0
                    3D
 Structure written by MMmdl.
160168  0  0  1  0            999 V2000
  -30.7198  -14.5210   20.4963 C   0  0  0  0  0  0
  -30.4159  -12.3198   19.4426 C   0  0  0  0  0  0
  -29.4995  -12.4927   18.2129 C   0  0  0  0  0  0
  -28.0189  -12.3619   18.6186 C   0  0  0  0  0  0
  -27.6552  -13.2225   19.8585 C   0  0  2  0  0  0
  -28.7013  -13.0733   20.9886 C   0  0  0  0  0  0
  -25.2581  -13.8203   20.5712 C   0  0  0  0  0  0
  -24.1831  -13.0465   20.9186 C   0  0  0  0  0  0
  -24.6395  -11.6932   20.8723 C   0  0  0  0  0  0
  -23.9055  -10.4312   21.0393 C   0  0  0  0  0  0
  -24.3613   -9.4226   21.9168 C   0  0  0  0  0  0
  -23.6303   -8.2250   22.0728 C   0  0  0  0  0  0
  -22.4283   -8.0280   21.3521 C   0  0  0  0  0  0
  -21.9912   -9.0255   20.4621 C   0  0  0  0  0  0
  -22.7237  -10.2140   20.3035 C   0  0  0  0  0  0
  -21.6854   -6.0722   22.5284 C   0  0  0  0  0  0
  -21.4020   -6.5627   23.8218 C   0  0  0  0  0  0
  -21.3681   -5.6782   24.9180 C   0  0  0  0  0  0
  -21.6055   -4.3043   24.7241 C   0  0  0  0  0  0
  -21.8819   -3.8132   23.4360 C   0  0  0  0  0  0
  -21.9192   -4.6946   22.3413 C   0  0  0  0  0  0
  -22.7852  -13.5248   21.1848 C   0  0  0  0  0  0
  -22.1669   -4.2133   21.0988 F   0  0  0  0  0  0
  -21.5626   -3.4527   25.7751 F   0  0  0  0  0  0
  -30.0284  -13.3497   20.4208 N   0  0  0  0  0  0
  -26.2999  -12.9394   20.3301 N   0  0  0  0  0  0
  -25.9329  -11.6543   20.5743 N   0  0  0  0  0  0
  -22.0459  -12.8258   22.0395 N   0  0  0  0  0  0
  -25.4330  -15.1933   20.4169 N   0  0  0  0  0  0
  -31.8926  -14.6091   20.1221 O   0  0  0  0  0  0
  -21.6643   -6.8873   21.4242 O   0  0  0  0  0  0
  -22.3544  -14.5546   20.6665 O   0  0  0  0  0  0
  -24.6185  -31.8642   23.2060 C   0  0  0  0  0  0
  -25.9073  -32.4806   23.8359 C   0  0  1  0  0  0
  -27.2310  -27.3802   20.1006 C   0  0  0  0  0  0
  -25.5927  -33.8604   24.2292 N   0  0  0  0  0  0
  -23.4113  -30.4858   21.5466 C   0  0  2  0  0  0
  -24.8613  -28.9500   20.1045 C   0  0  0  0  0  0
  -22.7451  -29.4638   22.4950 C   0  0  0  0  0  0
  -18.0309  -28.1397   22.8517 C   0  0  0  0  0  0
  -24.1482  -36.7278   23.2639 C   0  0  0  0  0  0
  -25.9435  -30.8113   21.3716 C   0  0  0  0  0  0
  -26.0220  -29.4449   20.7106 C   0  0  0  0  0  0
  -27.2088  -28.6666   20.7063 C   0  0  0  0  0  0
  -26.0594  -26.9331   19.4512 C   0  0  0  0  0  0
  -24.8788  -27.6983   19.4680 C   0  0  0  0  0  0
  -23.6236  -29.8194   20.1599 C   0  0  0  0  0  0
  -25.4112  -36.3081   24.0330 C   0  0  1  0  0  0
  -20.5897  -28.3702   23.1303 C   0  0  2  0  0  0
  -20.6781  -26.9428   22.5424 C   0  0  0  0  0  0
  -19.5749  -26.6409   21.5223 C   0  0  0  0  0  0
  -18.1941  -26.7945   22.1648 C   0  0  0  0  0  0
  -19.1554  -28.8867   23.2917 C   0  0  0  0  0  0
  -18.9471  -30.1470   23.8920 C   0  0  0  0  0  0
  -17.6468  -30.6596   24.0584 C   0  0  0  0  0  0
  -25.9053  -34.9460   23.5100 C   0  0  0  0  0  0
  -16.5363  -29.9095   23.6331 C   0  0  0  0  0  0
  -16.7300  -28.6518   23.0351 C   0  0  0  0  0  0
  -26.4477  -31.6604   25.0704 C   0  0  0  0  0  0
  -25.3725  -31.3746   26.1442 C   0  0  0  0  0  0
  -27.0304  -30.3032   24.6121 C   0  0  0  0  0  0
  -27.6046  -32.4319   25.7470 C   0  0  0  0  0  0
  -27.5572  -37.1803   24.8472 C   0  0  0  0  0  0
  -21.4165  -29.3037   22.3670 N   0  0  0  0  0  0
  -26.4290  -37.3779   23.9410 N   0  0  0  0  0  0
  -24.6756  -31.0684   22.0994 N   0  0  0  0  0  0
  -23.4180  -28.8188   23.3035 O   0  0  0  0  0  0
  -28.3656  -26.5805   20.1715 O   0  0  0  0  0  0
  -26.5596  -34.8916   22.4650 O   0  0  0  0  0  0
  -23.5364  -32.1443   23.7406 O   0  0  0  0  0  0
  -29.3579  -18.4451   21.9997 C   0  0  0  0  0  0
  -29.8880  -18.2361   20.7495 C   0  0  0  0  0  0
  -29.5675  -20.5255   20.6777 C   0  0  0  0  0  0
  -28.5221  -25.4555   22.9671 C   0  0  0  0  0  0
  -26.1828  -25.1310   22.0473 C   0  0  0  0  0  0
  -30.4485  -16.9517   20.1609 C   0  0  0  0  0  0
  -29.6176  -24.4511   20.1439 C   0  0  0  0  0  0
  -27.6773  -24.8278   21.8443 C   0  0  0  0  0  0
  -28.2301  -25.1377   20.4147 C   0  0  1  0  0  0
  -30.0146  -23.0897   20.8383 C   0  0  1  0  0  0
  -29.9643  -19.4329   20.0049 N   0  0  0  0  0  0
  -29.6276  -21.8356   20.1824 N   0  0  0  0  0  0
  -30.0066  -15.6467   20.7150 N   0  0  0  0  0  0
  -31.3457  -23.0772   20.8830 F   0  0  0  0  0  0
  -29.0060  -20.1380   22.3008 S   0  0  0  0  0  0
  -31.4629  -12.3967   19.1386 H   0  0  0  0  0  0
  -30.3051  -11.3259   19.8767 H   0  0  0  0  0  0
  -29.7460  -11.7496   17.4524 H   0  0  0  0  0  0
  -29.6751  -13.4676   17.7551 H   0  0  0  0  0  0
  -27.8285  -11.3111   18.8358 H   0  0  0  0  0  0
  -27.3768  -12.6209   17.7764 H   0  0  0  0  0  0
  -27.6781  -14.2605   19.5265 H   0  0  0  0  0  0
  -28.6820  -12.0632   21.4019 H   0  0  0  0  0  0
  -28.4748  -13.7412   21.8197 H   0  0  0  0  0  0
  -25.2754   -9.5709   22.4741 H   0  0  0  0  0  0
  -24.0015   -7.4639   22.7446 H   0  0  0  0  0  0
  -21.0842   -8.8776   19.8936 H   0  0  0  0  0  0
  -22.3701  -10.9666   19.6130 H   0  0  0  0  0  0
  -21.2015   -7.6132   23.9722 H   0  0  0  0  0  0
  -21.1500   -6.0505   25.9087 H   0  0  0  0  0  0
  -22.0574   -2.7590   23.2857 H   0  0  0  0  0  0
  -22.4079  -11.9985   22.4907 H   0  0  0  0  0  0
  -21.1033  -13.1240   22.2468 H   0  0  0  0  0  0
  -24.6721  -15.8547   20.5310 H   0  0  0  0  0  0
  -26.2815  -15.6263   20.0757 H   0  0  0  0  0  0
  -26.7146  -32.5498   23.1123 H   0  0  0  0  0  0
  -25.0069  -33.9772   25.0426 H   0  0  0  0  0  0
  -22.7025  -31.3042   21.4072 H   0  0  0  0  0  0
  -23.3736  -35.9619   23.3314 H   0  0  0  0  0  0
  -24.3561  -36.8880   22.2048 H   0  0  0  0  0  0
  -23.7247  -37.6496   23.6638 H   0  0  0  0  0  0
  -26.0624  -31.5793   20.6055 H   0  0  0  0  0  0
  -26.8247  -30.8605   21.9984 H   0  0  0  0  0  0
  -28.0986  -29.0298   21.2001 H   0  0  0  0  0  0
  -26.0326  -25.9799   18.9446 H   0  0  0  0  0  0
  -23.9891  -27.3156   18.9880 H   0  0  0  0  0  0
  -23.7397  -30.5941   19.4011 H   0  0  0  0  0  0
  -22.7457  -29.2429   19.8648 H   0  0  0  0  0  0
  -25.1302  -36.1921   25.0829 H   0  0  0  0  0  0
  -21.0036  -28.3271   24.1407 H   0  0  0  0  0  0
  -20.5692  -26.2298   23.3618 H   0  0  0  0  0  0
  -21.6647  -26.7470   22.1201 H   0  0  0  0  0  0
  -19.6891  -25.6322   21.1249 H   0  0  0  0  0  0
  -19.6658  -27.3214   20.6741 H   0  0  0  0  0  0
  -17.4203  -26.6727   21.4054 H   0  0  0  0  0  0
  -18.0335  -26.0082   22.9038 H   0  0  0  0  0  0
  -19.7942  -30.7306   24.2263 H   0  0  0  0  0  0
  -17.5019  -31.6278   24.5183 H   0  0  0  0  0  0
  -15.5361  -30.3003   23.7629 H   0  0  0  0  0  0
  -15.8710  -28.0850   22.7021 H   0  0  0  0  0  0
  -24.5901  -30.7105   25.7761 H   0  0  0  0  0  0
  -24.8918  -32.2919   26.4854 H   0  0  0  0  0  0
  -25.8061  -30.8937   27.0221 H   0  0  0  0  0  0
  -26.2871  -29.6803   24.1137 H   0  0  0  0  0  0
  -27.4007  -29.7276   25.4610 H   0  0  0  0  0  0
  -27.8725  -30.4313   23.9312 H   0  0  0  0  0  0
  -27.2680  -33.3618   26.2061 H   0  0  0  0  0  0
  -28.3847  -32.6891   25.0294 H   0  0  0  0  0  0
  -28.0711  -31.8435   26.5386 H   0  0  0  0  0  0
  -28.2613  -38.0077   24.7503 H   0  0  0  0  0  0
  -28.1051  -36.2617   24.6320 H   0  0  0  0  0  0
  -27.2293  -37.1479   25.8879 H   0  0  0  0  0  0
  -20.9312  -29.8737   21.6875 H   0  0  0  0  0  0
  -26.0160  -38.2848   24.1422 H   0  0  0  0  0  0
  -29.1960  -17.7129   22.7783 H   0  0  0  0  0  0
  -28.1861  -25.1089   23.9446 H   0  0  0  0  0  0
  -28.4452  -26.5437   22.9587 H   0  0  0  0  0  0
  -29.5783  -25.2012   22.8801 H   0  0  0  0  0  0
  -25.8086  -24.6721   22.9631 H   0  0  0  0  0  0
  -25.5857  -24.7347   21.2253 H   0  0  0  0  0  0
  -25.9937  -26.2003   22.1277 H   0  0  0  0  0  0
  -31.5354  -17.0236   20.2393 H   0  0  0  0  0  0
  -30.2424  -16.9232   19.0893 H   0  0  0  0  0  0
  -30.3626  -25.1748   20.4774 H   0  0  0  0  0  0
  -29.7849  -24.3831   19.0688 H   0  0  0  0  0  0
  -27.7177  -23.7469   21.9677 H   0  0  0  0  0  0
  -27.5502  -24.6897   19.6887 H   0  0  0  0  0  0
  -29.7231  -23.0753   21.8869 H   0  0  0  0  0  0
  -29.9187  -21.8249   19.2122 H   0  0  0  0  0  0
  -29.0390  -15.5513   20.9833 H   0  0  0  0  0  0
  1 25  1  0  0  0
  1 30  2  0  0  0
  1 83  1  0  0  0
  2  3  1  0  0  0
  2 25  1  0  0  0
  2 86  1  0  0  0
  2 87  1  0  0  0
  3  4  1  0  0  0
  3 88  1  0  0  0
  3 89  1  0  0  0
  4  5  1  0  0  0
  4 90  1  0  0  0
  4 91  1  0  0  0
  5  6  1  0  0  0
  5 26  1  0  0  0
  5 92  1  0  0  0
  6 25  1  0  0  0
  6 93  1  0  0  0
  6 94  1  0  0  0
  7  8  2  0  0  0
  7 26  1  0  0  0
  7 29  1  0  0  0
  8  9  1  0  0  0
  8 22  1  0  0  0
  9 10  1  0  0  0
  9 27  2  0  0  0
 10 11  2  0  0  0
 10 15  1  0  0  0
 11 12  1  0  0  0
 11 95  1  0  0  0
 12 13  2  0  0  0
 12 96  1  0  0  0
 13 14  1  0  0  0
 13 31  1  0  0  0
 14 15  2  0  0  0
 14 97  1  0  0  0
 15 98  1  0  0  0
 16 17  2  0  0  0
 16 21  1  0  0  0
 16 31  1  0  0  0
 17 18  1  0  0  0
 17 99  1  0  0  0
 18 19  2  0  0  0
 18100  1  0  0  0
 19 20  1  0  0  0
 19 24  1  0  0  0
 20 21  2  0  0  0
 20101  1  0  0  0
 21 23  1  0  0  0
 22 28  1  0  0  0
 22 32  2  0  0  0
 26 27  1  0  0  0
 28102  1  0  0  0
 28103  1  0  0  0
 29104  1  0  0  0
 29105  1  0  0  0
 33 34  1  0  0  0
 33 66  1  0  0  0
 33 70  2  0  0  0
 34 36  1  0  0  0
 34 59  1  0  0  0
 34106  1  0  0  0
 35 44  2  0  0  0
 35 45  1  0  0  0
 35 68  1  0  0  0
 36 56  1  0  0  0
 36107  1  0  0  0
 37 39  1  0  0  0
 37 47  1  0  0  0
 37 66  1  0  0  0
 37108  1  0  0  0
 38 43  2  0  0  0
 38 46  1  0  0  0
 38 47  1  0  0  0
 39 64  1  0  0  0
 39 67  2  0  0  0
 40 52  1  0  0  0
 40 53  2  0  0  0
 40 58  1  0  0  0
 41109  1  0  0  0
 41110  1  0  0  0
 41111  1  0  0  0
 41 48  1  0  0  0
 42 43  1  0  0  0
 42 66  1  0  0  0
 42112  1  0  0  0
 42113  1  0  0  0
 43 44  1  0  0  0
 44114  1  0  0  0
 45 46  2  0  0  0
 45115  1  0  0  0
 46116  1  0  0  0
 47117  1  0  0  0
 47118  1  0  0  0
 48 56  1  0  0  0
 48 65  1  0  0  0
 48119  1  0  0  0
 49 50  1  0  0  0
 49 53  1  0  0  0
 49 64  1  0  0  0
 49120  1  0  0  0
 50 51  1  0  0  0
 50121  1  0  0  0
 50122  1  0  0  0
 51 52  1  0  0  0
 51123  1  0  0  0
 51124  1  0  0  0
 52125  1  0  0  0
 52126  1  0  0  0
 53 54  1  0  0  0
 54 55  2  0  0  0
 54127  1  0  0  0
 55 57  1  0  0  0
 55128  1  0  0  0
 56 69  2  0  0  0
 57 58  2  0  0  0
 57129  1  0  0  0
 58130  1  0  0  0
 59 60  1  0  0  0
 59 61  1  0  0  0
 59 62  1  0  0  0
 60131  1  0  0  0
 60132  1  0  0  0
 60133  1  0  0  0
 61134  1  0  0  0
 61135  1  0  0  0
 61136  1  0  0  0
 62137  1  0  0  0
 62138  1  0  0  0
 62139  1  0  0  0
 63 65  1  0  0  0
 63140  1  0  0  0
 63141  1  0  0  0
 63142  1  0  0  0
 64143  1  0  0  0
 65144  1  0  0  0
 68 79  1  0  0  0
 71 72  2  0  0  0
 71 85  1  0  0  0
 71145  1  0  0  0
 72 76  1  0  0  0
 72 81  1  0  0  0
 73 81  2  0  0  0
 73 82  1  0  0  0
 73 85  1  0  0  0
 74146  1  0  0  0
 74147  1  0  0  0
 74148  1  0  0  0
 74 78  1  0  0  0
 75 78  1  0  0  0
 75149  1  0  0  0
 75150  1  0  0  0
 75151  1  0  0  0
 76 83  1  0  0  0
 76152  1  0  0  0
 76153  1  0  0  0
 77 80  1  0  0  0
 77154  1  0  0  0
 77155  1  0  0  0
 77 79  1  0  0  0
 78 79  1  0  0  0
 78156  1  0  0  0
 79157  1  0  0  0
 80 82  1  0  0  0
 80 84  1  0  0  0
 80158  1  0  0  0
 82159  1  0  0  0
 83160  1  0  0  0
M  ISO  4   1 100  68 101  79 101  83 100
M  END
> <chiral flag>
0

> <version>
0

> <s_m_source_file>
/data/baiqing/PycharmProjects/Reinvent-master-3.2/result/LINK_invent/BTK/process_docking_weight1_custom_product_contain_oxygen_bond_distance_aromatic_linkinvent_7_9_3/rearranged_h_0193.sdf

> <i_m_source_file_index>
1

> <r_mmod_Potential_Energy-OPLS-2005>
-190.216415405273

> <r_mmod_Stretch_Energy-OPLS-2005>
48.0502662658691

> <r_mmod_Bend_Energy-OPLS-2005>
123.844352722168

> <r_mmod_Torsional_Energy-OPLS-2005>
232.10107421875

> <r_mmod_Improper_Torsional_Energy-OPLS-2005>
10.8781862258911

> <r_mmod_Van_der_Waal_Energy-OPLS-2005>
125.60538482666

> <r_mmod_Electrostatic_Energy-OPLS-2005>
-542.349731445312

> <r_mmod_Solvation_Energy-OPLS-2005>
-216.497573852539

> <b_mmod_Minimization_Converged-OPLS-2005>
0

> <r_mmod_RMS_Derivative-OPLS-2005>
3.65159678459167

$$$$
1
                    3D
 Structure written by MMmdl.
154162  0  0  1  0            999 V2000
  -30.6782  -14.5232   20.5058 C   0  0  0  0  0  0
  -30.4283  -12.3131   19.4502 C   0  0  0  0  0  0
  -29.5078  -12.4915   18.2234 C   0  0  0  0  0  0
  -28.0263  -12.3573   18.6278 C   0  0  0  0  0  0
  -27.6598  -13.2131   19.8714 C   0  0  2  0  0  0
  -28.7020  -13.0280   20.9992 C   0  0  0  0  0  0
  -25.2589  -13.8196   20.5687 C   0  0  0  0  0  0
  -24.1845  -13.0458   20.9188 C   0  0  0  0  0  0
  -24.6404  -11.6927   20.8736 C   0  0  0  0  0  0
  -23.9053  -10.4301   21.0387 C   0  0  0  0  0  0
  -24.3621   -9.4215   21.9161 C   0  0  0  0  0  0
  -23.6304   -8.2245   22.0727 C   0  0  0  0  0  0
  -22.4281   -8.0281   21.3530 C   0  0  0  0  0  0
  -21.9910   -9.0242   20.4622 C   0  0  0  0  0  0
  -22.7227  -10.2134   20.3026 C   0  0  0  0  0  0
  -21.6864   -6.0736   22.5275 C   0  0  0  0  0  0
  -21.4010   -6.5630   23.8212 C   0  0  0  0  0  0
  -21.3669   -5.6782   24.9171 C   0  0  0  0  0  0
  -21.6051   -4.3045   24.7221 C   0  0  0  0  0  0
  -21.8818   -3.8137   23.4343 C   0  0  0  0  0  0
  -21.9186   -4.6961   22.3395 C   0  0  0  0  0  0
  -22.7861  -13.5234   21.1877 C   0  0  0  0  0  0
  -22.1651   -4.2152   21.0971 F   0  0  0  0  0  0
  -21.5640   -3.4517   25.7722 F   0  0  0  0  0  0
  -30.0308  -13.3230   20.4460 N   0  0  0  0  0  0
  -26.3018  -12.9371   20.3338 N   0  0  0  0  0  0
  -25.9321  -11.6527   20.5761 N   0  0  0  0  0  0
  -22.0482  -12.8231   22.0430 N   0  0  0  0  0  0
  -25.4309  -15.1921   20.4116 N   0  0  0  0  0  0
  -31.8505  -14.6549   20.1303 O   0  0  0  0  0  0
  -21.6637   -6.8886   21.4241 O   0  0  0  0  0  0
  -22.3533  -14.5524   20.6708 O   0  0  0  0  0  0
  -24.6160  -31.8680   23.2068 C   0  0  0  0  0  0
  -25.9042  -32.4826   23.8385 C   0  0  1  0  0  0
  -27.2093  -27.4065   20.1152 C   0  0  0  0  0  0
  -25.5869  -33.8628   24.2298 N   0  0  0  0  0  0
  -23.4047  -30.4901   21.5515 C   0  0  2  0  0  0
  -24.8472  -28.9569   20.1118 C   0  0  0  0  0  0
  -22.7418  -29.4648   22.5002 C   0  0  0  0  0  0
  -18.0256  -28.1388   22.8493 C   0  0  0  0  0  0
  -24.1474  -36.7331   23.2642 C   0  0  0  0  0  0
  -25.9350  -30.8312   21.3566 C   0  0  0  0  0  0
  -26.0128  -29.4641   20.7025 C   0  0  0  0  0  0
  -27.2043  -28.6996   20.6936 C   0  0  0  0  0  0
  -26.0319  -26.9231   19.5101 C   0  0  0  0  0  0
  -24.8531  -27.6890   19.5079 C   0  0  0  0  0  0
  -23.6106  -29.8239   20.1664 C   0  0  0  0  0  0
  -25.4102  -36.3132   24.0335 C   0  0  1  0  0  0
  -20.5854  -28.3677   23.1333 C   0  0  2  0  0  0
  -20.6760  -26.9415   22.5434 C   0  0  0  0  0  0
  -19.5733  -26.6395   21.5238 C   0  0  0  0  0  0
  -18.1911  -26.7933   22.1644 C   0  0  0  0  0  0
  -19.1510  -28.8847   23.2906 C   0  0  0  0  0  0
  -18.9452  -30.1464   23.8909 C   0  0  0  0  0  0
  -17.6456  -30.6596   24.0583 C   0  0  0  0  0  0
  -25.9038  -34.9488   23.5117 C   0  0  0  0  0  0
  -16.5344  -29.9117   23.6323 C   0  0  0  0  0  0
  -16.7248  -28.6536   23.0335 C   0  0  0  0  0  0
  -26.4442  -31.6619   25.0730 C   0  0  0  0  0  0
  -25.3675  -31.3788   26.1464 C   0  0  0  0  0  0
  -27.0263  -30.3046   24.6130 C   0  0  0  0  0  0
  -27.5997  -32.4362   25.7482 C   0  0  0  0  0  0
  -27.5587  -37.1804   24.8450 C   0  0  0  0  0  0
  -21.4141  -29.3029   22.3729 N   0  0  0  0  0  0
  -26.4281  -37.3831   23.9426 N   0  0  0  0  0  0
  -24.6716  -31.0766   22.0972 N   0  0  0  0  0  0
  -23.4174  -28.8191   23.3062 O   0  0  0  0  0  0
  -28.3291  -26.6032   20.1529 O   0  0  0  0  0  0
  -26.5641  -34.8948   22.4706 O   0  0  0  0  0  0
  -23.5345  -32.1436   23.7457 O   0  0  0  0  0  0
  -29.2327  -18.9642   18.6204 C   0  0  0  0  0  0
  -29.5777  -17.7458   18.0364 C   0  0  0  0  0  0
  -29.1923  -19.0180   20.0154 C   0  0  0  0  0  0
  -29.7636  -16.7691   20.1050 C   0  0  0  0  0  0
  -28.5919  -24.0856   20.0315 C   0  0  0  0  0  0
  -28.7828  -21.4832   19.9407 C   0  0  0  0  0  0
  -28.1450  -25.3386   20.8389 C   0  0  0  0  0  0
  -28.6206  -22.7434   20.8354 C   0  0  1  0  0  0
  -29.8302  -16.6592   18.7802 N   0  0  0  0  0  0
  -29.4409  -17.9060   20.7535 N   0  0  0  0  0  0
  -28.8891  -20.2161   20.6894 N   0  0  0  0  0  0
  -29.9177  -15.5991   20.8376 N   0  0  0  0  0  0
  -29.7359  -22.7408   21.7125 O   0  0  0  0  0  0
  -31.4749  -12.4075   19.1512 H   0  0  0  0  0  0
  -30.3283  -11.3093   19.8669 H   0  0  0  0  0  0
  -29.7561  -11.7579   17.4551 H   0  0  0  0  0  0
  -29.6817  -13.4710   17.7773 H   0  0  0  0  0  0
  -27.8386  -11.3046   18.8373 H   0  0  0  0  0  0
  -27.3814  -12.6110   17.7866 H   0  0  0  0  0  0
  -27.6932  -14.2548   19.5520 H   0  0  0  0  0  0
  -28.6804  -12.0023   21.3666 H   0  0  0  0  0  0
  -28.4677  -13.6569   21.8597 H   0  0  0  0  0  0
  -25.2764   -9.5708   22.4745 H   0  0  0  0  0  0
  -24.0017   -7.4638   22.7443 H   0  0  0  0  0  0
  -21.0840   -8.8759   19.8942 H   0  0  0  0  0  0
  -22.3671  -10.9668   19.6138 H   0  0  0  0  0  0
  -21.1988   -7.6138   23.9725 H   0  0  0  0  0  0
  -21.1506   -6.0502   25.9094 H   0  0  0  0  0  0
  -22.0590   -2.7594   23.2822 H   0  0  0  0  0  0
  -22.4069  -11.9889   22.4849 H   0  0  0  0  0  0
  -21.1084  -13.1252   22.2607 H   0  0  0  0  0  0
  -24.6703  -15.8522   20.5294 H   0  0  0  0  0  0
  -26.2784  -15.6262   20.0706 H   0  0  0  0  0  0
  -26.7111  -32.5530   23.1151 H   0  0  0  0  0  0
  -24.9916  -33.9787   25.0368 H   0  0  0  0  0  0
  -22.6940  -31.3079   21.4119 H   0  0  0  0  0  0
  -23.3752  -35.9642   23.3262 H   0  0  0  0  0  0
  -24.3586  -36.8993   22.2067 H   0  0  0  0  0  0
  -23.7184  -37.6502   23.6688 H   0  0  0  0  0  0
  -26.0400  -31.5965   20.5868 H   0  0  0  0  0  0
  -26.8270  -30.8922   21.9693 H   0  0  0  0  0  0
  -28.1039  -29.0824   21.1547 H   0  0  0  0  0  0
  -26.0181  -25.9401   19.0604 H   0  0  0  0  0  0
  -23.9543  -27.2906   19.0589 H   0  0  0  0  0  0
  -23.7152  -30.5978   19.4047 H   0  0  0  0  0  0
  -22.7347  -29.2421   19.8733 H   0  0  0  0  0  0
  -25.1263  -36.1988   25.0825 H   0  0  0  0  0  0
  -20.9940  -28.3251   24.1466 H   0  0  0  0  0  0
  -20.5711  -26.2284   23.3634 H   0  0  0  0  0  0
  -21.6629  -26.7493   22.1207 H   0  0  0  0  0  0
  -19.6909  -25.6318   21.1260 H   0  0  0  0  0  0
  -19.6667  -27.3221   20.6789 H   0  0  0  0  0  0
  -17.4192  -26.6688   21.4034 H   0  0  0  0  0  0
  -18.0284  -26.0072   22.9035 H   0  0  0  0  0  0
  -19.7940  -30.7272   24.2270 H   0  0  0  0  0  0
  -17.5028  -31.6277   24.5208 H   0  0  0  0  0  0
  -15.5351  -30.3046   23.7649 H   0  0  0  0  0  0
  -15.8646  -28.0900   22.7011 H   0  0  0  0  0  0
  -24.5750  -30.7259   25.7783 H   0  0  0  0  0  0
  -24.8995  -32.2994   26.4967 H   0  0  0  0  0  0
  -25.7973  -30.8867   27.0193 H   0  0  0  0  0  0
  -26.2831  -29.6829   24.1121 H   0  0  0  0  0  0
  -27.3929  -29.7268   25.4623 H   0  0  0  0  0  0
  -27.8701  -30.4339   23.9349 H   0  0  0  0  0  0
  -27.2562  -33.3614   26.2128 H   0  0  0  0  0  0
  -28.3753  -32.7018   25.0284 H   0  0  0  0  0  0
  -28.0721  -31.8467   26.5344 H   0  0  0  0  0  0
  -28.2571  -38.0140   24.7584 H   0  0  0  0  0  0
  -28.1114  -36.2680   24.6146 H   0  0  0  0  0  0
  -27.2335  -37.1298   25.8859 H   0  0  0  0  0  0
  -20.9317  -29.8711   21.6908 H   0  0  0  0  0  0
  -26.0159  -38.2891   24.1488 H   0  0  0  0  0  0
  -29.0252  -19.8077   17.9808 H   0  0  0  0  0  0
  -29.6403  -17.6350   16.9648 H   0  0  0  0  0  0
  -29.5698  -24.2668   19.5855 H   0  0  0  0  0  0
  -27.9069  -23.9734   19.1920 H   0  0  0  0  0  0
  -29.6680  -21.6026   19.3164 H   0  0  0  0  0  0
  -27.9278  -21.4210   19.2622 H   0  0  0  0  0  0
  -28.7214  -25.3957   21.7628 H   0  0  0  0  0  0
  -27.1112  -25.1923   21.1659 H   0  0  0  0  0  0
  -27.7008  -22.6596   21.4213 H   0  0  0  0  0  0
  -29.1626  -20.2940   21.6639 H   0  0  0  0  0  0
  -29.1342  -15.3909   21.4315 H   0  0  0  0  0  0
  -29.6750  -23.5076   22.2716 H   0  0  0  0  0  0
  1 25  1  0  0  0
  1 30  2  0  0  0
  1 82  1  0  0  0
  2  3  1  0  0  0
  2 25  1  0  0  0
  2 84  1  0  0  0
  2 85  1  0  0  0
  3  4  1  0  0  0
  3 86  1  0  0  0
  3 87  1  0  0  0
  4  5  1  0  0  0
  4 88  1  0  0  0
  4 89  1  0  0  0
  5  6  1  0  0  0
  5 26  1  0  0  0
  5 90  1  0  0  0
  6 25  1  0  0  0
  6 91  1  0  0  0
  6 92  1  0  0  0
  7  8  2  0  0  0
  7 26  1  0  0  0
  7 29  1  0  0  0
  8  9  1  0  0  0
  8 22  1  0  0  0
  9 10  1  0  0  0
  9 27  2  0  0  0
 10 11  2  0  0  0
 10 15  1  0  0  0
 11 12  1  0  0  0
 11 93  1  0  0  0
 12 13  2  0  0  0
 12 94  1  0  0  0
 13 14  1  0  0  0
 13 31  1  0  0  0
 14 15  2  0  0  0
 14 95  1  0  0  0
 15 96  1  0  0  0
 16 17  2  0  0  0
 16 21  1  0  0  0
 16 31  1  0  0  0
 17 18  1  0  0  0
 17 97  1  0  0  0
 18 19  2  0  0  0
 18 98  1  0  0  0
 19 20  1  0  0  0
 19 24  1  0  0  0
 20 21  2  0  0  0
 20 99  1  0  0  0
 21 23  1  0  0  0
 22 28  1  0  0  0
 22 32  2  0  0  0
 26 27  1  0  0  0
 28100  1  0  0  0
 28101  1  0  0  0
 29102  1  0  0  0
 29103  1  0  0  0
 33 34  1  0  0  0
 33 66  1  0  0  0
 33 70  2  0  0  0
 34 36  1  0  0  0
 34 59  1  0  0  0
 34104  1  0  0  0
 35 44  2  0  0  0
 35 45  1  0  0  0
 35 68  1  0  0  0
 36 56  1  0  0  0
 36105  1  0  0  0
 37 39  1  0  0  0
 37 47  1  0  0  0
 37 66  1  0  0  0
 37106  1  0  0  0
 38 43  2  0  0  0
 38 46  1  0  0  0
 38 47  1  0  0  0
 39 64  1  0  0  0
 39 67  2  0  0  0
 40 52  1  0  0  0
 40 53  2  0  0  0
 40 58  1  0  0  0
 41107  1  0  0  0
 41108  1  0  0  0
 41109  1  0  0  0
 41 48  1  0  0  0
 42 43  1  0  0  0
 42 66  1  0  0  0
 42110  1  0  0  0
 42111  1  0  0  0
 43 44  1  0  0  0
 44112  1  0  0  0
 45 46  2  0  0  0
 45113  1  0  0  0
 46114  1  0  0  0
 47115  1  0  0  0
 47116  1  0  0  0
 48 56  1  0  0  0
 48 65  1  0  0  0
 48117  1  0  0  0
 49 50  1  0  0  0
 49 53  1  0  0  0
 49 64  1  0  0  0
 49118  1  0  0  0
 50 51  1  0  0  0
 50119  1  0  0  0
 50120  1  0  0  0
 51 52  1  0  0  0
 51121  1  0  0  0
 51122  1  0  0  0
 52123  1  0  0  0
 52124  1  0  0  0
 53 54  1  0  0  0
 54 55  2  0  0  0
 54125  1  0  0  0
 55 57  1  0  0  0
 55126  1  0  0  0
 56 69  2  0  0  0
 57 58  2  0  0  0
 57127  1  0  0  0
 58128  1  0  0  0
 59 60  1  0  0  0
 59 61  1  0  0  0
 59 62  1  0  0  0
 60129  1  0  0  0
 60130  1  0  0  0
 60131  1  0  0  0
 61132  1  0  0  0
 61133  1  0  0  0
 61134  1  0  0  0
 62135  1  0  0  0
 62136  1  0  0  0
 62137  1  0  0  0
 63 65  1  0  0  0
 63138  1  0  0  0
 63139  1  0  0  0
 63140  1  0  0  0
 64141  1  0  0  0
 65142  1  0  0  0
 68 77  1  0  0  0
 71 72  2  0  0  0
 71 73  1  0  0  0
 71143  1  0  0  0
 72 79  1  0  0  0
 72144  1  0  0  0
 73 80  2  0  0  0
 73 81  1  0  0  0
 74 79  2  0  0  0
 74 80  1  0  0  0
 74 82  1  0  0  0
 75 77  1  0  0  0
 75 78  1  0  0  0
 75145  1  0  0  0
 75146  1  0  0  0
 76 78  1  0  0  0
 76 81  1  0  0  0
 76147  1  0  0  0
 76148  1  0  0  0
 77149  1  0  0  0
 77150  1  0  0  0
 78 83  1  0  0  0
 78151  1  0  0  0
 81152  1  0  0  0
 82153  1  0  0  0
 83154  1  0  0  0
M  ISO  4   1 100  68 101  77 101  82 100
M  END
> <chiral flag>
0

> <version>
0

> <s_m_source_file>
/data/baiqing/PycharmProjects/Reinvent-master-3.2/result/LINK_invent/BTK/process_docking_weight1_custom_product_contain_oxygen_bond_distance_aromatic_linkinvent_7_9_3/rearranged_h_0193.sdf

> <i_m_source_file_index>
2

> <r_mmod_Potential_Energy-OPLS-2005>
-598.573181152344

> <r_mmod_Stretch_Energy-OPLS-2005>
42.534481048584

> <r_mmod_Bend_Energy-OPLS-2005>
103.47819519043

> <r_mmod_Torsional_Energy-OPLS-2005>
274.896453857422

> <r_mmod_Improper_Torsional_Energy-OPLS-2005>
7.76749467849731

> <r_mmod_Van_der_Waal_Energy-OPLS-2005>
162.027923583984

> <r_mmod_Electrostatic_Energy-OPLS-2005>
-955.985778808594

> <r_mmod_Solvation_Energy-OPLS-2005>
-256.448547363281

> <b_mmod_Minimization_Converged-OPLS-2005>
0

> <r_mmod_RMS_Derivative-OPLS-2005>
3.74056386947632

$$$$
2
                    3D
 Structure written by MMmdl.
156164  0  0  1  0            999 V2000
  -30.6851  -14.4767   20.5834 C   0  0  0  0  0  0
  -30.4313  -12.3098   19.4227 C   0  0  0  0  0  0
  -29.4997  -12.5100   18.2088 C   0  0  0  0  0  0
  -28.0202  -12.3597   18.6176 C   0  0  0  0  0  0
  -27.6631  -13.1943   19.8750 C   0  0  2  0  0  0
  -28.7038  -12.9665   20.9957 C   0  0  0  0  0  0
  -25.2596  -13.8125   20.5682 C   0  0  0  0  0  0
  -24.1832  -13.0424   20.9172 C   0  0  0  0  0  0
  -24.6370  -11.6885   20.8729 C   0  0  0  0  0  0
  -23.9035  -10.4286   21.0403 C   0  0  0  0  0  0
  -24.3593   -9.4208   21.9182 C   0  0  0  0  0  0
  -23.6276   -8.2241   22.0747 C   0  0  0  0  0  0
  -22.4255   -8.0277   21.3540 C   0  0  0  0  0  0
  -21.9887   -9.0247   20.4646 C   0  0  0  0  0  0
  -22.7213  -10.2128   20.3054 C   0  0  0  0  0  0
  -21.6852   -6.0732   22.5282 C   0  0  0  0  0  0
  -21.4014   -6.5630   23.8216 C   0  0  0  0  0  0
  -21.3659   -5.6779   24.9176 C   0  0  0  0  0  0
  -21.6043   -4.3045   24.7226 C   0  0  0  0  0  0
  -21.8818   -3.8142   23.4347 C   0  0  0  0  0  0
  -21.9193   -4.6961   22.3408 C   0  0  0  0  0  0
  -22.7863  -13.5250   21.1843 C   0  0  0  0  0  0
  -22.1663   -4.2150   21.0987 F   0  0  0  0  0  0
  -21.5629   -3.4527   25.7739 F   0  0  0  0  0  0
  -30.0402  -13.2819   20.4559 N   0  0  0  0  0  0
  -26.3019  -12.9270   20.3340 N   0  0  0  0  0  0
  -25.9287  -11.6445   20.5735 N   0  0  0  0  0  0
  -22.0490  -12.8256   22.0399 N   0  0  0  0  0  0
  -25.4326  -15.1845   20.4144 N   0  0  0  0  0  0
  -31.7951  -14.6953   20.0848 O   0  0  0  0  0  0
  -21.6627   -6.8872   21.4242 O   0  0  0  0  0  0
  -22.3567  -14.5570   20.6712 O   0  0  0  0  0  0
  -24.6134  -31.8672   23.2086 C   0  0  0  0  0  0
  -25.9024  -32.4820   23.8386 C   0  0  1  0  0  0
  -27.2424  -27.4467   20.1076 C   0  0  0  0  0  0
  -25.5872  -33.8620   24.2313 N   0  0  0  0  0  0
  -23.4022  -30.4884   21.5480 C   0  0  2  0  0  0
  -24.8528  -28.9523   20.1157 C   0  0  0  0  0  0
  -22.7406  -29.4654   22.4989 C   0  0  0  0  0  0
  -18.0268  -28.1377   22.8492 C   0  0  0  0  0  0
  -24.1482  -36.7326   23.2639 C   0  0  0  0  0  0
  -25.9276  -30.8402   21.3575 C   0  0  0  0  0  0
  -26.0100  -29.4745   20.7075 C   0  0  0  0  0  0
  -27.2110  -28.7317   20.6941 C   0  0  0  0  0  0
  -26.0734  -26.9334   19.5108 C   0  0  0  0  0  0
  -24.8784  -27.6805   19.5131 C   0  0  0  0  0  0
  -23.6114  -29.8147   20.1644 C   0  0  0  0  0  0
  -25.4100  -36.3114   24.0336 C   0  0  1  0  0  0
  -20.5858  -28.3663   23.1319 C   0  0  2  0  0  0
  -20.6758  -26.9400   22.5421 C   0  0  0  0  0  0
  -19.5736  -26.6384   21.5214 C   0  0  0  0  0  0
  -18.1915  -26.7922   22.1625 C   0  0  0  0  0  0
  -19.1518  -28.8835   23.2903 C   0  0  0  0  0  0
  -18.9451  -30.1441   23.8916 C   0  0  0  0  0  0
  -17.6455  -30.6586   24.0565 C   0  0  0  0  0  0
  -25.9028  -34.9478   23.5128 C   0  0  0  0  0  0
  -16.5344  -29.9091   23.6326 C   0  0  0  0  0  0
  -16.7259  -28.6506   23.0348 C   0  0  0  0  0  0
  -26.4458  -31.6597   25.0713 C   0  0  0  0  0  0
  -25.3732  -31.3708   26.1473 C   0  0  0  0  0  0
  -27.0287  -30.3040   24.6075 C   0  0  0  0  0  0
  -27.6033  -32.4318   25.7468 C   0  0  0  0  0  0
  -27.5578  -37.1810   24.8457 C   0  0  0  0  0  0
  -21.4134  -29.3032   22.3729 N   0  0  0  0  0  0
  -26.4286  -37.3797   23.9409 N   0  0  0  0  0  0
  -24.6656  -31.0790   22.0972 N   0  0  0  0  0  0
  -23.4178  -28.8206   23.3037 O   0  0  0  0  0  0
  -28.3918  -26.6881   20.1055 O   0  0  0  0  0  0
  -26.5603  -34.8930   22.4699 O   0  0  0  0  0  0
  -23.5328  -32.1415   23.7488 O   0  0  0  0  0  0
  -28.5464  -18.4723   19.6935 C   0  0  0  0  0  0
  -28.8067  -17.1268   20.0022 C   0  0  0  0  0  0
  -30.3991  -19.0599   21.1055 C   0  0  0  0  0  0
  -29.3440  -19.4849   20.2589 C   0  0  0  0  0  0
  -29.8714  -16.7895   20.8600 C   0  0  0  0  0  0
  -28.9169  -23.3128   20.2768 C   0  0  0  0  0  0
  -28.8991  -26.4730   22.4710 C   0  0  0  0  0  0
  -29.5011  -24.6085   20.8625 C   0  0  0  0  0  0
  -29.6103  -21.9816   20.6548 C   0  0  0  0  0  0
  -28.4824  -25.7379   21.1829 C   0  0  2  0  0  0
  -30.6506  -17.7578   21.4020 N   0  0  0  0  0  0
  -29.0398  -20.8281   19.9488 N   0  0  0  0  0  0
  -29.9803  -15.4234   21.2322 N   0  0  0  0  0  0
  -27.9329  -23.3224   19.5274 O   0  0  0  0  0  0
  -31.4746  -12.4190   19.1215 H   0  0  0  0  0  0
  -30.3394  -11.2947   19.8119 H   0  0  0  0  0  0
  -29.7427  -11.7930   17.4242 H   0  0  0  0  0  0
  -29.6633  -13.4988   17.7781 H   0  0  0  0  0  0
  -27.8332  -11.3029   18.8121 H   0  0  0  0  0  0
  -27.3708  -12.6340   17.7864 H   0  0  0  0  0  0
  -27.7069  -14.2384   19.5744 H   0  0  0  0  0  0
  -28.6811  -11.9251   21.3208 H   0  0  0  0  0  0
  -28.4498  -13.5441   21.8850 H   0  0  0  0  0  0
  -25.2737   -9.5686   22.4752 H   0  0  0  0  0  0
  -23.9995   -7.4626   22.7450 H   0  0  0  0  0  0
  -21.0822   -8.8762   19.8946 H   0  0  0  0  0  0
  -22.3673  -10.9661   19.6156 H   0  0  0  0  0  0
  -21.1999   -7.6136   23.9725 H   0  0  0  0  0  0
  -21.1481   -6.0506   25.9080 H   0  0  0  0  0  0
  -22.0596   -2.7604   23.2850 H   0  0  0  0  0  0
  -22.4081  -11.9916   22.4805 H   0  0  0  0  0  0
  -21.1113  -13.1304   22.2595 H   0  0  0  0  0  0
  -24.6670  -15.8390   20.5347 H   0  0  0  0  0  0
  -26.2880  -15.6306   20.1140 H   0  0  0  0  0  0
  -26.7102  -32.5539   23.1161 H   0  0  0  0  0  0
  -24.9997  -33.9777   25.0440 H   0  0  0  0  0  0
  -22.6900  -31.3038   21.4059 H   0  0  0  0  0  0
  -23.3737  -35.9666   23.3305 H   0  0  0  0  0  0
  -24.3580  -36.8944   22.2055 H   0  0  0  0  0  0
  -23.7246  -37.6534   23.6660 H   0  0  0  0  0  0
  -26.0333  -31.6050   20.5868 H   0  0  0  0  0  0
  -26.8171  -30.8978   21.9729 H   0  0  0  0  0  0
  -28.1074  -29.1322   21.1465 H   0  0  0  0  0  0
  -26.0907  -25.9533   19.0541 H   0  0  0  0  0  0
  -23.9883  -27.2701   19.0566 H   0  0  0  0  0  0
  -23.7162  -30.5861   19.4007 H   0  0  0  0  0  0
  -22.7372  -29.2299   19.8724 H   0  0  0  0  0  0
  -25.1278  -36.1973   25.0828 H   0  0  0  0  0  0
  -20.9945  -28.3229   24.1439 H   0  0  0  0  0  0
  -20.5658  -26.2269   23.3607 H   0  0  0  0  0  0
  -21.6631  -26.7442   22.1214 H   0  0  0  0  0  0
  -19.6901  -25.6299   21.1234 H   0  0  0  0  0  0
  -19.6677  -27.3203   20.6747 H   0  0  0  0  0  0
  -17.4183  -26.6667   21.4027 H   0  0  0  0  0  0
  -18.0319  -26.0059   22.9019 H   0  0  0  0  0  0
  -19.7931  -30.7248   24.2288 H   0  0  0  0  0  0
  -17.5019  -31.6267   24.5167 H   0  0  0  0  0  0
  -15.5350  -30.3005   23.7644 H   0  0  0  0  0  0
  -15.8655  -28.0840   22.7053 H   0  0  0  0  0  0
  -24.5859  -30.7111   25.7810 H   0  0  0  0  0  0
  -24.8982  -32.2876   26.4978 H   0  0  0  0  0  0
  -25.8086  -30.8820   27.0199 H   0  0  0  0  0  0
  -26.2828  -29.6805   24.1134 H   0  0  0  0  0  0
  -27.4072  -29.7269   25.4522 H   0  0  0  0  0  0
  -27.8653  -30.4363   23.9209 H   0  0  0  0  0  0
  -27.2641  -33.3592   26.2094 H   0  0  0  0  0  0
  -28.3809  -32.6924   25.0277 H   0  0  0  0  0  0
  -28.0740  -31.8421   26.5343 H   0  0  0  0  0  0
  -28.2591  -38.0113   24.7517 H   0  0  0  0  0  0
  -28.1078  -36.2648   24.6257 H   0  0  0  0  0  0
  -27.2306  -37.1434   25.8863 H   0  0  0  0  0  0
  -20.9292  -29.8744   21.6948 H   0  0  0  0  0  0
  -26.0175  -38.2873   24.1423 H   0  0  0  0  0  0
  -27.7263  -18.7189   19.0338 H   0  0  0  0  0  0
  -28.1731  -16.3697   19.5712 H   0  0  0  0  0  0
  -31.0554  -19.7788   21.5729 H   0  0  0  0  0  0
  -29.0108  -25.7745   23.3014 H   0  0  0  0  0  0
  -28.1574  -27.2091   22.7805 H   0  0  0  0  0  0
  -29.8509  -26.9885   22.3409 H   0  0  0  0  0  0
  -30.2811  -24.9800   20.1986 H   0  0  0  0  0  0
  -30.0077  -24.3156   21.7821 H   0  0  0  0  0  0
  -29.5167  -21.8424   21.7329 H   0  0  0  0  0  0
  -30.6745  -22.0681   20.4294 H   0  0  0  0  0  0
  -27.5017  -25.2897   21.3607 H   0  0  0  0  0  0
  -28.1898  -21.0424   19.4279 H   0  0  0  0  0  0
  -29.1429  -15.0445   21.6441 H   0  0  0  0  0  0
  1 25  1  0  0  0
  1 30  2  0  0  0
  1 83  1  0  0  0
  2  3  1  0  0  0
  2 25  1  0  0  0
  2 85  1  0  0  0
  2 86  1  0  0  0
  3  4  1  0  0  0
  3 87  1  0  0  0
  3 88  1  0  0  0
  4  5  1  0  0  0
  4 89  1  0  0  0
  4 90  1  0  0  0
  5  6  1  0  0  0
  5 26  1  0  0  0
  5 91  1  0  0  0
  6 25  1  0  0  0
  6 92  1  0  0  0
  6 93  1  0  0  0
  7  8  2  0  0  0
  7 26  1  0  0  0
  7 29  1  0  0  0
  8  9  1  0  0  0
  8 22  1  0  0  0
  9 10  1  0  0  0
  9 27  2  0  0  0
 10 11  2  0  0  0
 10 15  1  0  0  0
 11 12  1  0  0  0
 11 94  1  0  0  0
 12 13  2  0  0  0
 12 95  1  0  0  0
 13 14  1  0  0  0
 13 31  1  0  0  0
 14 15  2  0  0  0
 14 96  1  0  0  0
 15 97  1  0  0  0
 16 17  2  0  0  0
 16 21  1  0  0  0
 16 31  1  0  0  0
 17 18  1  0  0  0
 17 98  1  0  0  0
 18 19  2  0  0  0
 18 99  1  0  0  0
 19 20  1  0  0  0
 19 24  1  0  0  0
 20 21  2  0  0  0
 20100  1  0  0  0
 21 23  1  0  0  0
 22 28  1  0  0  0
 22 32  2  0  0  0
 26 27  1  0  0  0
 28101  1  0  0  0
 28102  1  0  0  0
 29103  1  0  0  0
 29104  1  0  0  0
 33 34  1  0  0  0
 33 66  1  0  0  0
 33 70  2  0  0  0
 34 36  1  0  0  0
 34 59  1  0  0  0
 34105  1  0  0  0
 35 44  2  0  0  0
 35 45  1  0  0  0
 35 68  1  0  0  0
 36 56  1  0  0  0
 36106  1  0  0  0
 37 39  1  0  0  0
 37 47  1  0  0  0
 37 66  1  0  0  0
 37107  1  0  0  0
 38 43  2  0  0  0
 38 46  1  0  0  0
 38 47  1  0  0  0
 39 64  1  0  0  0
 39 67  2  0  0  0
 40 52  1  0  0  0
 40 53  2  0  0  0
 40 58  1  0  0  0
 41108  1  0  0  0
 41109  1  0  0  0
 41110  1  0  0  0
 41 48  1  0  0  0
 42 43  1  0  0  0
 42 66  1  0  0  0
 42111  1  0  0  0
 42112  1  0  0  0
 43 44  1  0  0  0
 44113  1  0  0  0
 45 46  2  0  0  0
 45114  1  0  0  0
 46115  1  0  0  0
 47116  1  0  0  0
 47117  1  0  0  0
 48 56  1  0  0  0
 48 65  1  0  0  0
 48118  1  0  0  0
 49 50  1  0  0  0
 49 53  1  0  0  0
 49 64  1  0  0  0
 49119  1  0  0  0
 50 51  1  0  0  0
 50120  1  0  0  0
 50121  1  0  0  0
 51 52  1  0  0  0
 51122  1  0  0  0
 51123  1  0  0  0
 52124  1  0  0  0
 52125  1  0  0  0
 53 54  1  0  0  0
 54 55  2  0  0  0
 54126  1  0  0  0
 55 57  1  0  0  0
 55127  1  0  0  0
 56 69  2  0  0  0
 57 58  2  0  0  0
 57128  1  0  0  0
 58129  1  0  0  0
 59 60  1  0  0  0
 59 61  1  0  0  0
 59 62  1  0  0  0
 60130  1  0  0  0
 60131  1  0  0  0
 60132  1  0  0  0
 61133  1  0  0  0
 61134  1  0  0  0
 61135  1  0  0  0
 62136  1  0  0  0
 62137  1  0  0  0
 62138  1  0  0  0
 63 65  1  0  0  0
 63139  1  0  0  0
 63140  1  0  0  0
 63141  1  0  0  0
 64142  1  0  0  0
 65143  1  0  0  0
 68 80  1  0  0  0
 71 72  2  0  0  0
 71 74  1  0  0  0
 71144  1  0  0  0
 72 75  1  0  0  0
 72145  1  0  0  0
 73 74  2  0  0  0
 73 81  1  0  0  0
 73146  1  0  0  0
 74 82  1  0  0  0
 75 81  2  0  0  0
 75 83  1  0  0  0
 76 78  1  0  0  0
 76 79  1  0  0  0
 76 84  2  0  0  0
 77147  1  0  0  0
 77148  1  0  0  0
 77149  1  0  0  0
 77 80  1  0  0  0
 78 80  1  0  0  0
 78150  1  0  0  0
 78151  1  0  0  0
 79 82  1  0  0  0
 79152  1  0  0  0
 79153  1  0  0  0
 80154  1  0  0  0
 82155  1  0  0  0
 83156  1  0  0  0
M  ISO  4   1 100  68 101  80 101  83 100
M  END
> <chiral flag>
0

> <version>
0

> <s_m_source_file>
/data/baiqing/PycharmProjects/Reinvent-master-3.2/result/LINK_invent/BTK/process_docking_weight1_custom_product_contain_oxygen_bond_distance_aromatic_linkinvent_7_9_3/rearranged_h_0193.sdf

> <i_m_source_file_index>
3

> <r_mmod_Potential_Energy-OPLS-2005>
-116.149353027344

> <r_mmod_Stretch_Energy-OPLS-2005>
37.6156387329102

> <r_mmod_Bend_Energy-OPLS-2005>
107.727577209473

> <r_mmod_Torsional_Energy-OPLS-2005>
248.232925415039

> <r_mmod_Improper_Torsional_Energy-OPLS-2005>
6.44697713851929

> <r_mmod_Van_der_Waal_Energy-OPLS-2005>
145.338790893555

> <r_mmod_Electrostatic_Energy-OPLS-2005>
-418.569732666016

> <r_mmod_Solvation_Energy-OPLS-2005>
-254.60578918457

> <b_mmod_Minimization_Converged-OPLS-2005>
0

> <r_mmod_RMS_Derivative-OPLS-2005>
1.13374328613281

$$$$
3
                    3D
 Structure written by MMmdl.
159167  0  0  1  0            999 V2000
  -30.7004  -14.4215   20.6133 C   0  0  0  0  0  0
  -30.4219  -12.2848   19.4223 C   0  0  0  0  0  0
  -29.4956  -12.5188   18.2089 C   0  0  0  0  0  0
  -28.0137  -12.3859   18.6119 C   0  0  0  0  0  0
  -27.6655  -13.2042   19.8830 C   0  0  2  0  0  0
  -28.6981  -12.9406   21.0025 C   0  0  0  0  0  0
  -25.2579  -13.8158   20.5635 C   0  0  0  0  0  0
  -24.1826  -13.0453   20.9153 C   0  0  0  0  0  0
  -24.6361  -11.6914   20.8685 C   0  0  0  0  0  0
  -23.9026  -10.4306   21.0377 C   0  0  0  0  0  0
  -24.3595   -9.4233   21.9148 C   0  0  0  0  0  0
  -23.6300   -8.2255   22.0725 C   0  0  0  0  0  0
  -22.4282   -8.0268   21.3536 C   0  0  0  0  0  0
  -21.9898   -9.0230   20.4636 C   0  0  0  0  0  0
  -22.7203  -10.2125   20.3035 C   0  0  0  0  0  0
  -21.6866   -6.0732   22.5283 C   0  0  0  0  0  0
  -21.4018   -6.5634   23.8219 C   0  0  0  0  0  0
  -21.3649   -5.6781   24.9170 C   0  0  0  0  0  0
  -21.6051   -4.3052   24.7227 C   0  0  0  0  0  0
  -21.8822   -3.8143   23.4350 C   0  0  0  0  0  0
  -21.9188   -4.6953   22.3402 C   0  0  0  0  0  0
  -22.7847  -13.5263   21.1839 C   0  0  0  0  0  0
  -22.1666   -4.2134   21.0982 F   0  0  0  0  0  0
  -21.5624   -3.4532   25.7740 F   0  0  0  0  0  0
  -30.0421  -13.2403   20.4741 N   0  0  0  0  0  0
  -26.3020  -12.9328   20.3357 N   0  0  0  0  0  0
  -25.9295  -11.6489   20.5732 N   0  0  0  0  0  0
  -22.0505  -12.8221   22.0395 N   0  0  0  0  0  0
  -25.4337  -15.1864   20.4017 N   0  0  0  0  0  0
  -31.7998  -14.6405   20.0836 O   0  0  0  0  0  0
  -21.6655   -6.8865   21.4246 O   0  0  0  0  0  0
  -22.3533  -14.5576   20.6696 O   0  0  0  0  0  0
  -24.6135  -31.8703   23.2136 C   0  0  0  0  0  0
  -25.9037  -32.4838   23.8419 C   0  0  1  0  0  0
  -27.2333  -27.4469   20.0866 C   0  0  0  0  0  0
  -25.5906  -33.8640   24.2356 N   0  0  0  0  0  0
  -23.4007  -30.4973   21.5532 C   0  0  2  0  0  0
  -24.8418  -28.9639   20.1188 C   0  0  0  0  0  0
  -22.7406  -29.4677   22.4989 C   0  0  0  0  0  0
  -18.0272  -28.1368   22.8490 C   0  0  0  0  0  0
  -24.1481  -36.7319   23.2645 C   0  0  0  0  0  0
  -25.9295  -30.8369   21.3677 C   0  0  0  0  0  0
  -26.0008  -29.4730   20.7117 C   0  0  0  0  0  0
  -27.1945  -28.7220   20.6939 C   0  0  0  0  0  0
  -26.0414  -26.9369   19.5126 C   0  0  0  0  0  0
  -24.8539  -27.6924   19.5217 C   0  0  0  0  0  0
  -23.6075  -29.8343   20.1658 C   0  0  0  0  0  0
  -25.4102  -36.3136   24.0353 C   0  0  1  0  0  0
  -20.5856  -28.3654   23.1310 C   0  0  2  0  0  0
  -20.6762  -26.9393   22.5407 C   0  0  0  0  0  0
  -19.5740  -26.6373   21.5204 C   0  0  0  0  0  0
  -18.1920  -26.7923   22.1611 C   0  0  0  0  0  0
  -19.1520  -28.8824   23.2910 C   0  0  0  0  0  0
  -18.9449  -30.1427   23.8923 C   0  0  0  0  0  0
  -17.6455  -30.6586   24.0545 C   0  0  0  0  0  0
  -25.9021  -34.9492   23.5150 C   0  0  0  0  0  0
  -16.5344  -29.9085   23.6319 C   0  0  0  0  0  0
  -16.7262  -28.6494   23.0361 C   0  0  0  0  0  0
  -26.4471  -31.6635   25.0758 C   0  0  0  0  0  0
  -25.3764  -31.3727   26.1526 C   0  0  0  0  0  0
  -27.0308  -30.3087   24.6143 C   0  0  0  0  0  0
  -27.6041  -32.4374   25.7506 C   0  0  0  0  0  0
  -27.5581  -37.1821   24.8468 C   0  0  0  0  0  0
  -21.4133  -29.3039   22.3722 N   0  0  0  0  0  0
  -26.4291  -37.3813   23.9414 N   0  0  0  0  0  0
  -24.6655  -31.0827   22.1021 N   0  0  0  0  0  0
  -23.4187  -28.8228   23.3027 O   0  0  0  0  0  0
  -28.4483  -26.7876   20.0854 O   0  0  0  0  0  0
  -26.5570  -34.8934   22.4702 O   0  0  0  0  0  0
  -23.5329  -32.1413   23.7555 O   0  0  0  0  0  0
  -29.6340  -18.8363   21.7618 C   0  0  0  0  0  0
  -29.5418  -19.2985   20.4290 C   0  0  0  0  0  0
  -29.6022  -18.2950   19.4517 C   0  0  0  0  0  0
  -29.8995  -16.6783   21.0286 C   0  0  0  0  0  0
  -30.7644  -22.0163   21.4910 C   0  0  0  0  0  0
  -29.0045  -23.0233   19.9364 C   0  0  0  0  0  0
  -28.5798  -25.4814   19.5213 C   0  0  0  0  0  0
  -29.3816  -21.8225   20.8416 C   0  0  1  0  0  0
  -28.7260  -24.3895   20.6074 C   0  0  1  0  0  0
  -29.8034  -17.5247   22.0537 N   0  0  0  0  0  0
  -29.7643  -17.0054   19.7426 N   0  0  0  0  0  0
  -29.4853  -18.6100   18.1045 N   0  0  0  0  0  0
  -29.3700  -20.6297   20.0005 N   0  0  0  0  0  0
  -30.0578  -15.3537   21.3398 N   0  0  0  0  0  0
  -27.5254  -24.2945   21.3594 O   0  0  0  0  0  0
  -31.4681  -12.3838   19.1254 H   0  0  0  0  0  0
  -30.3180  -11.2633   19.7926 H   0  0  0  0  0  0
  -29.7332  -11.8104   17.4147 H   0  0  0  0  0  0
  -29.6752  -13.5133   17.7968 H   0  0  0  0  0  0
  -27.8044  -11.3297   18.7822 H   0  0  0  0  0  0
  -27.3720  -12.6903   17.7849 H   0  0  0  0  0  0
  -27.7259  -14.2587   19.6132 H   0  0  0  0  0  0
  -28.6570  -11.8953   21.3088 H   0  0  0  0  0  0
  -28.4480  -13.5053   21.9016 H   0  0  0  0  0  0
  -25.2737   -9.5733   22.4704 H   0  0  0  0  0  0
  -24.0018   -7.4666   22.7440 H   0  0  0  0  0  0
  -21.0824   -8.8740   19.8952 H   0  0  0  0  0  0
  -22.3637  -10.9646   19.6139 H   0  0  0  0  0  0
  -21.2017   -7.6143   23.9722 H   0  0  0  0  0  0
  -21.1469   -6.0504   25.9072 H   0  0  0  0  0  0
  -22.0602   -2.7600   23.2853 H   0  0  0  0  0  0
  -22.4132  -11.9895   22.4814 H   0  0  0  0  0  0
  -21.1121  -13.1227   22.2622 H   0  0  0  0  0  0
  -24.6674  -15.8438   20.4932 H   0  0  0  0  0  0
  -26.2812  -15.6125   20.0482 H   0  0  0  0  0  0
  -26.7123  -32.5539   23.1186 H   0  0  0  0  0  0
  -25.0129  -33.9803   25.0557 H   0  0  0  0  0  0
  -22.6895  -31.3142   21.4194 H   0  0  0  0  0  0
  -23.3752  -35.9641   23.3326 H   0  0  0  0  0  0
  -24.3583  -36.8895   22.2052 H   0  0  0  0  0  0
  -23.7201  -37.6524   23.6632 H   0  0  0  0  0  0
  -26.0529  -31.6080   20.6066 H   0  0  0  0  0  0
  -26.8122  -30.8787   21.9929 H   0  0  0  0  0  0
  -28.0923  -29.1198   21.1464 H   0  0  0  0  0  0
  -25.9811  -25.9660   19.0500 H   0  0  0  0  0  0
  -23.9575  -27.2898   19.0726 H   0  0  0  0  0  0
  -23.7237  -30.6099   19.4071 H   0  0  0  0  0  0
  -22.7282  -29.2595   19.8685 H   0  0  0  0  0  0
  -25.1282  -36.2019   25.0846 H   0  0  0  0  0  0
  -20.9960  -28.3225   24.1423 H   0  0  0  0  0  0
  -20.5651  -26.2280   23.3599 H   0  0  0  0  0  0
  -21.6641  -26.7452   22.1203 H   0  0  0  0  0  0
  -19.6901  -25.6287   21.1228 H   0  0  0  0  0  0
  -19.6673  -27.3185   20.6734 H   0  0  0  0  0  0
  -17.4197  -26.6676   21.4004 H   0  0  0  0  0  0
  -18.0315  -26.0059   22.8997 H   0  0  0  0  0  0
  -19.7931  -30.7219   24.2326 H   0  0  0  0  0  0
  -17.5019  -31.6269   24.5138 H   0  0  0  0  0  0
  -15.5345  -30.2991   23.7630 H   0  0  0  0  0  0
  -15.8664  -28.0803   22.7088 H   0  0  0  0  0  0
  -24.5898  -30.7124   25.7869 H   0  0  0  0  0  0
  -24.9009  -32.2880   26.5065 H   0  0  0  0  0  0
  -25.8129  -30.8824   27.0239 H   0  0  0  0  0  0
  -26.2846  -29.6844   24.1219 H   0  0  0  0  0  0
  -27.4102  -29.7338   25.4604 H   0  0  0  0  0  0
  -27.8680  -30.4424   23.9290 H   0  0  0  0  0  0
  -27.2654  -33.3658   26.2124 H   0  0  0  0  0  0
  -28.3812  -32.6973   25.0309 H   0  0  0  0  0  0
  -28.0773  -31.8501   26.5382 H   0  0  0  0  0  0
  -28.2627  -38.0100   24.7528 H   0  0  0  0  0  0
  -28.1055  -36.2635   24.6295 H   0  0  0  0  0  0
  -27.2315  -37.1484   25.8879 H   0  0  0  0  0  0
  -20.9288  -29.8775   21.6956 H   0  0  0  0  0  0
  -26.0197  -38.2902   24.1406 H   0  0  0  0  0  0
  -29.5552  -19.5086   22.6030 H   0  0  0  0  0  0
  -30.7848  -22.9002   22.1285 H   0  0  0  0  0  0
  -31.5439  -22.1424   20.7398 H   0  0  0  0  0  0
  -31.0545  -21.1768   22.1206 H   0  0  0  0  0  0
  -28.1285  -22.7644   19.3384 H   0  0  0  0  0  0
  -29.8118  -23.1603   19.2141 H   0  0  0  0  0  0
  -27.8428  -25.2143   18.7680 H   0  0  0  0  0  0
  -29.5149  -25.5139   18.9600 H   0  0  0  0  0  0
  -28.6243  -21.7139   21.6204 H   0  0  0  0  0  0
  -29.5502  -24.6561   21.2700 H   0  0  0  0  0  0
  -29.8172  -19.5333   17.8672 H   0  0  0  0  0  0
  -29.7987  -17.9013   17.4562 H   0  0  0  0  0  0
  -29.0323  -20.7331   19.0466 H   0  0  0  0  0  0
  -29.3752  -14.9999   21.9897 H   0  0  0  0  0  0
  -26.7932  -24.3543   20.7552 H   0  0  0  0  0  0
  1 25  1  0  0  0
  1 30  2  0  0  0
  1 84  1  0  0  0
  2  3  1  0  0  0
  2 25  1  0  0  0
  2 86  1  0  0  0
  2 87  1  0  0  0
  3  4  1  0  0  0
  3 88  1  0  0  0
  3 89  1  0  0  0
  4  5  1  0  0  0
  4 90  1  0  0  0
  4 91  1  0  0  0
  5  6  1  0  0  0
  5 26  1  0  0  0
  5 92  1  0  0  0
  6 25  1  0  0  0
  6 93  1  0  0  0
  6 94  1  0  0  0
  7  8  2  0  0  0
  7 26  1  0  0  0
  7 29  1  0  0  0
  8  9  1  0  0  0
  8 22  1  0  0  0
  9 10  1  0  0  0
  9 27  2  0  0  0
 10 11  2  0  0  0
 10 15  1  0  0  0
 11 12  1  0  0  0
 11 95  1  0  0  0
 12 13  2  0  0  0
 12 96  1  0  0  0
 13 14  1  0  0  0
 13 31  1  0  0  0
 14 15  2  0  0  0
 14 97  1  0  0  0
 15 98  1  0  0  0
 16 17  2  0  0  0
 16 21  1  0  0  0
 16 31  1  0  0  0
 17 18  1  0  0  0
 17 99  1  0  0  0
 18 19  2  0  0  0
 18100  1  0  0  0
 19 20  1  0  0  0
 19 24  1  0  0  0
 20 21  2  0  0  0
 20101  1  0  0  0
 21 23  1  0  0  0
 22 28  1  0  0  0
 22 32  2  0  0  0
 26 27  1  0  0  0
 28102  1  0  0  0
 28103  1  0  0  0
 29104  1  0  0  0
 29105  1  0  0  0
 33 34  1  0  0  0
 33 66  1  0  0  0
 33 70  2  0  0  0
 34 36  1  0  0  0
 34 59  1  0  0  0
 34106  1  0  0  0
 35 44  2  0  0  0
 35 45  1  0  0  0
 35 68  1  0  0  0
 36 56  1  0  0  0
 36107  1  0  0  0
 37 39  1  0  0  0
 37 47  1  0  0  0
 37 66  1  0  0  0
 37108  1  0  0  0
 38 43  2  0  0  0
 38 46  1  0  0  0
 38 47  1  0  0  0
 39 64  1  0  0  0
 39 67  2  0  0  0
 40 52  1  0  0  0
 40 53  2  0  0  0
 40 58  1  0  0  0
 41109  1  0  0  0
 41110  1  0  0  0
 41111  1  0  0  0
 41 48  1  0  0  0
 42 43  1  0  0  0
 42 66  1  0  0  0
 42112  1  0  0  0
 42113  1  0  0  0
 43 44  1  0  0  0
 44114  1  0  0  0
 45 46  2  0  0  0
 45115  1  0  0  0
 46116  1  0  0  0
 47117  1  0  0  0
 47118  1  0  0  0
 48 56  1  0  0  0
 48 65  1  0  0  0
 48119  1  0  0  0
 49 50  1  0  0  0
 49 53  1  0  0  0
 49 64  1  0  0  0
 49120  1  0  0  0
 50 51  1  0  0  0
 50121  1  0  0  0
 50122  1  0  0  0
 51 52  1  0  0  0
 51123  1  0  0  0
 51124  1  0  0  0
 52125  1  0  0  0
 52126  1  0  0  0
 53 54  1  0  0  0
 54 55  2  0  0  0
 54127  1  0  0  0
 55 57  1  0  0  0
 55128  1  0  0  0
 56 69  2  0  0  0
 57 58  2  0  0  0
 57129  1  0  0  0
 58130  1  0  0  0
 59 60  1  0  0  0
 59 61  1  0  0  0
 59 62  1  0  0  0
 60131  1  0  0  0
 60132  1  0  0  0
 60133  1  0  0  0
 61134  1  0  0  0
 61135  1  0  0  0
 61136  1  0  0  0
 62137  1  0  0  0
 62138  1  0  0  0
 62139  1  0  0  0
 63 65  1  0  0  0
 63140  1  0  0  0
 63141  1  0  0  0
 63142  1  0  0  0
 64143  1  0  0  0
 65144  1  0  0  0
 68 77  1  0  0  0
 71 72  2  0  0  0
 71 80  1  0  0  0
 71145  1  0  0  0
 72 73  1  0  0  0
 72 83  1  0  0  0
 73 81  2  0  0  0
 73 82  1  0  0  0
 74 80  2  0  0  0
 74 81  1  0  0  0
 74 84  1  0  0  0
 75146  1  0  0  0
 75147  1  0  0  0
 75148  1  0  0  0
 75 78  1  0  0  0
 76 78  1  0  0  0
 76 79  1  0  0  0
 76149  1  0  0  0
 76150  1  0  0  0
 77 79  1  0  0  0
 77151  1  0  0  0
 77152  1  0  0  0
 78 83  1  0  0  0
 78153  1  0  0  0
 79 85  1  0  0  0
 79154  1  0  0  0
 82155  1  0  0  0
 82156  1  0  0  0
 83157  1  0  0  0
 84158  1  0  0  0
 85159  1  0  0  0
M  ISO  4   1 100  68 101  77 101  84 100
M  END
> <chiral flag>
0

> <version>
0

> <s_m_source_file>
/data/baiqing/PycharmProjects/Reinvent-master-3.2/result/LINK_invent/BTK/process_docking_weight1_custom_product_contain_oxygen_bond_distance_aromatic_linkinvent_7_9_3/rearranged_h_0193.sdf

> <i_m_source_file_index>
4

> <r_mmod_Potential_Energy-OPLS-2005>
-512.440551757812

> <r_mmod_Stretch_Energy-OPLS-2005>
34.3523406982422

> <r_mmod_Bend_Energy-OPLS-2005>
133.015472412109

> <r_mmod_Torsional_Energy-OPLS-2005>
228.182754516602

> <r_mmod_Improper_Torsional_Energy-OPLS-2005>
8.49594879150391

> <r_mmod_Van_der_Waal_Energy-OPLS-2005>
169.954605102539

> <r_mmod_Electrostatic_Energy-OPLS-2005>
-840.274353027344

> <r_mmod_Solvation_Energy-OPLS-2005>
-255.967788696289

> <b_mmod_Minimization_Converged-OPLS-2005>
0

> <r_mmod_RMS_Derivative-OPLS-2005>
2.61565208435059

$$$$
4
                    3D
 Structure written by MMmdl.
163171  0  0  1  0            999 V2000
  -30.7174  -14.4565   20.6438 C   0  0  0  0  0  0
  -30.4585  -12.3262   19.4059 C   0  0  0  0  0  0
  -29.5147  -12.5166   18.2004 C   0  0  0  0  0  0
  -28.0341  -12.3695   18.6092 C   0  0  0  0  0  0
  -27.6784  -13.1991   19.8751 C   0  0  2  0  0  0
  -28.7227  -12.9441   20.9858 C   0  0  0  0  0  0
  -25.2693  -13.8167   20.5629 C   0  0  0  0  0  0
  -24.1933  -13.0446   20.9112 C   0  0  0  0  0  0
  -24.6448  -11.6933   20.8732 C   0  0  0  0  0  0
  -23.9109  -10.4317   21.0407 C   0  0  0  0  0  0
  -24.3663   -9.4239   21.9204 C   0  0  0  0  0  0
  -23.6342   -8.2257   22.0763 C   0  0  0  0  0  0
  -22.4310   -8.0304   21.3535 C   0  0  0  0  0  0
  -21.9943   -9.0267   20.4618 C   0  0  0  0  0  0
  -22.7273  -10.2158   20.3056 C   0  0  0  0  0  0
  -21.6835   -6.0770   22.5302 C   0  0  0  0  0  0
  -21.3978   -6.5640   23.8238 C   0  0  0  0  0  0
  -21.3667   -5.6773   24.9184 C   0  0  0  0  0  0
  -21.6070   -4.3049   24.7203 C   0  0  0  0  0  0
  -21.8820   -3.8156   23.4319 C   0  0  0  0  0  0
  -21.9186   -4.6993   22.3385 C   0  0  0  0  0  0
  -22.7933  -13.5287   21.1726 C   0  0  0  0  0  0
  -22.1658   -4.2183   21.0966 F   0  0  0  0  0  0
  -21.5652   -3.4533   25.7714 F   0  0  0  0  0  0
  -30.0639  -13.2741   20.4597 N   0  0  0  0  0  0
  -26.3152  -12.9296   20.3345 N   0  0  0  0  0  0
  -25.9393  -11.6480   20.5763 N   0  0  0  0  0  0
  -22.0476  -12.8394   22.0290 N   0  0  0  0  0  0
  -25.4411  -15.1876   20.4049 N   0  0  0  0  0  0
  -31.7637  -14.7472   20.0583 O   0  0  0  0  0  0
  -21.6638   -6.8930   21.4268 O   0  0  0  0  0  0
  -22.3690  -14.5592   20.6528 O   0  0  0  0  0  0
  -24.6209  -31.8647   23.2054 C   0  0  0  0  0  0
  -25.9090  -32.4803   23.8347 C   0  0  1  0  0  0
  -27.2496  -27.4155   20.0895 C   0  0  0  0  0  0
  -25.5935  -33.8595   24.2285 N   0  0  0  0  0  0
  -23.4116  -30.4860   21.5441 C   0  0  2  0  0  0
  -24.8582  -28.9411   20.1062 C   0  0  0  0  0  0
  -22.7447  -29.4658   22.4940 C   0  0  0  0  0  0
  -18.0315  -28.1475   22.8482 C   0  0  0  0  0  0
  -24.1488  -36.7322   23.2632 C   0  0  0  0  0  0
  -25.9381  -30.8196   21.3596 C   0  0  0  0  0  0
  -26.0138  -29.4498   20.7125 C   0  0  0  0  0  0
  -27.2051  -28.6889   20.7082 C   0  0  0  0  0  0
  -26.0775  -26.9286   19.4661 C   0  0  0  0  0  0
  -24.8837  -27.6806   19.4797 C   0  0  0  0  0  0
  -23.6222  -29.8134   20.1589 C   0  0  0  0  0  0
  -25.4115  -36.3082   24.0311 C   0  0  1  0  0  0
  -20.5893  -28.3740   23.1315 C   0  0  2  0  0  0
  -20.6833  -26.9484   22.5416 C   0  0  0  0  0  0
  -19.5830  -26.6418   21.5226 C   0  0  0  0  0  0
  -18.1986  -26.8026   22.1588 C   0  0  0  0  0  0
  -19.1557  -28.8928   23.2893 C   0  0  0  0  0  0
  -18.9481  -30.1539   23.8901 C   0  0  0  0  0  0
  -17.6479  -30.6654   24.0605 C   0  0  0  0  0  0
  -25.9026  -34.9453   23.5075 C   0  0  0  0  0  0
  -16.5366  -29.9158   23.6360 C   0  0  0  0  0  0
  -16.7297  -28.6602   23.0327 C   0  0  0  0  0  0
  -26.4534  -31.6649   25.0721 C   0  0  0  0  0  0
  -25.3802  -31.3801   26.1466 C   0  0  0  0  0  0
  -27.0353  -30.3088   24.6108 C   0  0  0  0  0  0
  -27.6084  -32.4387   25.7528 C   0  0  0  0  0  0
  -27.5591  -37.1816   24.8461 C   0  0  0  0  0  0
  -21.4163  -29.3066   22.3681 N   0  0  0  0  0  0
  -26.4301  -37.3773   23.9403 N   0  0  0  0  0  0
  -24.6770  -31.0690   22.0981 N   0  0  0  0  0  0
  -23.4216  -28.8184   23.2981 O   0  0  0  0  0  0
  -28.4304  -26.6951   20.1637 O   0  0  0  0  0  0
  -26.5539  -34.8933   22.4598 O   0  0  0  0  0  0
  -23.5387  -32.1370   23.7435 O   0  0  0  0  0  0
  -30.1091  -18.9239   21.2648 C   0  0  0  0  0  0
  -28.9513  -18.8702   22.0242 C   0  0  0  0  0  0
  -29.8997  -16.6462   21.5757 C   0  0  0  0  0  0
  -30.3747  -23.9860   21.3217 C   0  0  0  0  0  0
  -29.3307  -20.5341   18.7227 C   0  0  0  0  0  0
  -28.3431  -24.1626   19.6312 C   0  0  0  0  0  0
  -28.7290  -25.6294   19.2478 C   0  0  0  0  0  0
  -30.8237  -20.1891   20.7703 C   0  0  2  0  0  0
  -28.9979  -23.4463   20.8650 C   0  0  1  0  0  0
  -29.9757  -21.2176   19.9429 C   0  0  2  0  0  0
  -30.6304  -17.6259   21.0055 N   0  0  0  0  0  0
  -28.1454  -19.8957   22.5059 N   0  0  0  0  0  0
  -30.1526  -15.2466   21.5712 N   0  0  0  0  0  0
  -28.9481  -21.9462   20.7527 N   0  3  0  0  0  0
  -31.8879  -19.8772   20.0204 F   0  0  0  0  0  0
  -28.5107  -17.2430   22.4579 S   0  0  0  0  0  0
  -31.4983  -12.4640   19.0985 H   0  0  0  0  0  0
  -30.4051  -11.3032   19.7842 H   0  0  0  0  0  0
  -29.7636  -11.7895   17.4250 H   0  0  0  0  0  0
  -29.6750  -13.5045   17.7607 H   0  0  0  0  0  0
  -27.8466  -11.3100   18.7919 H   0  0  0  0  0  0
  -27.3843  -12.6489   17.7779 H   0  0  0  0  0  0
  -27.7319  -14.2530   19.5965 H   0  0  0  0  0  0
  -28.7084  -11.8940   21.2761 H   0  0  0  0  0  0
  -28.4614  -13.4912   21.8936 H   0  0  0  0  0  0
  -25.2816   -9.5707   22.4783 H   0  0  0  0  0  0
  -24.0025   -7.4655   22.7525 H   0  0  0  0  0  0
  -21.0833   -8.8789   19.8960 H   0  0  0  0  0  0
  -22.3733  -10.9691   19.6160 H   0  0  0  0  0  0
  -21.1939   -7.6143   23.9755 H   0  0  0  0  0  0
  -21.1501   -6.0488   25.9099 H   0  0  0  0  0  0
  -22.0606   -2.7620   23.2773 H   0  0  0  0  0  0
  -22.3934  -12.0083   22.4844 H   0  0  0  0  0  0
  -21.1089  -13.1520   22.2321 H   0  0  0  0  0  0
  -24.6645  -15.8349   20.4931 H   0  0  0  0  0  0
  -26.3007  -15.6413   20.1225 H   0  0  0  0  0  0
  -26.7160  -32.5519   23.1107 H   0  0  0  0  0  0
  -25.0294  -33.9746   25.0569 H   0  0  0  0  0  0
  -22.7070  -31.3071   21.3964 H   0  0  0  0  0  0
  -23.3728  -35.9673   23.3292 H   0  0  0  0  0  0
  -24.3600  -36.8931   22.2047 H   0  0  0  0  0  0
  -23.7257  -37.6533   23.6657 H   0  0  0  0  0  0
  -26.0344  -31.5750   20.5775 H   0  0  0  0  0  0
  -26.8352  -30.8869   21.9645 H   0  0  0  0  0  0
  -28.0996  -29.0675   21.1820 H   0  0  0  0  0  0
  -26.0643  -25.9681   18.9764 H   0  0  0  0  0  0
  -23.9989  -27.2863   18.9973 H   0  0  0  0  0  0
  -23.7492  -30.5887   19.4024 H   0  0  0  0  0  0
  -22.7455  -29.2414   19.8517 H   0  0  0  0  0  0
  -25.1299  -36.1911   25.0796 H   0  0  0  0  0  0
  -21.0015  -28.3303   24.1428 H   0  0  0  0  0  0
  -20.5815  -26.2337   23.3588 H   0  0  0  0  0  0
  -21.6701  -26.7600   22.1160 H   0  0  0  0  0  0
  -19.7004  -25.6303   21.1324 H   0  0  0  0  0  0
  -19.6840  -27.3165   20.6715 H   0  0  0  0  0  0
  -17.4297  -26.6827   21.3941 H   0  0  0  0  0  0
  -18.0347  -26.0173   22.8974 H   0  0  0  0  0  0
  -19.7947  -30.7394   24.2232 H   0  0  0  0  0  0
  -17.5032  -31.6330   24.5212 H   0  0  0  0  0  0
  -15.5370  -30.3073   23.7719 H   0  0  0  0  0  0
  -15.8694  -28.0952   22.6991 H   0  0  0  0  0  0
  -24.5930  -30.7201   25.7831 H   0  0  0  0  0  0
  -24.9075  -32.2994   26.4940 H   0  0  0  0  0  0
  -25.8133  -30.8966   27.0225 H   0  0  0  0  0  0
  -26.2885  -29.6844   24.1195 H   0  0  0  0  0  0
  -27.4165  -29.7336   25.4560 H   0  0  0  0  0  0
  -27.8700  -30.4426   23.9219 H   0  0  0  0  0  0
  -27.2673  -33.3653   26.2162 H   0  0  0  0  0  0
  -28.3920  -32.7002   25.0411 H   0  0  0  0  0  0
  -28.0748  -31.8498   26.5438 H   0  0  0  0  0  0
  -28.2569  -38.0152   24.7481 H   0  0  0  0  0  0
  -28.1107  -36.2656   24.6282 H   0  0  0  0  0  0
  -27.2309  -37.1442   25.8868 H   0  0  0  0  0  0
  -20.9337  -29.8784   21.6884 H   0  0  0  0  0  0
  -26.0164  -38.2829   24.1429 H   0  0  0  0  0  0
  -30.2804  -25.0147   21.6708 H   0  0  0  0  0  0
  -31.1261  -23.9797   20.5327 H   0  0  0  0  0  0
  -30.7709  -23.4148   22.1632 H   0  0  0  0  0  0
  -30.0685  -19.9313   18.1884 H   0  0  0  0  0  0
  -28.9385  -21.2617   18.0134 H   0  0  0  0  0  0
  -28.5199  -19.8657   19.0123 H   0  0  0  0  0  0
  -28.5648  -23.5684   18.7440 H   0  0  0  0  0  0
  -27.2595  -24.0961   19.7379 H   0  0  0  0  0  0
  -28.3048  -25.8739   18.2723 H   0  0  0  0  0  0
  -29.8060  -25.6646   19.0827 H   0  0  0  0  0  0
  -31.2658  -20.7058   21.6235 H   0  0  0  0  0  0
  -28.3370  -23.6756   21.7031 H   0  0  0  0  0  0
  -30.6644  -21.9629   19.5437 H   0  0  0  0  0  0
  -28.3541  -20.0227   23.4949 H   0  0  0  0  0  0
  -27.1929  -19.5317   22.5360 H   0  0  0  0  0  0
  -29.4823  -14.7331   22.1208 H   0  0  0  0  0  0
  -28.0442  -21.6866   20.3930 H   0  0  0  0  0  0
  -28.9336  -21.5155   21.6744 H   0  0  0  0  0  0
  1 25  1  0  0  0
  1 30  2  0  0  0
  1 83  1  0  0  0
  2  3  1  0  0  0
  2 25  1  0  0  0
  2 87  1  0  0  0
  2 88  1  0  0  0
  3  4  1  0  0  0
  3 89  1  0  0  0
  3 90  1  0  0  0
  4  5  1  0  0  0
  4 91  1  0  0  0
  4 92  1  0  0  0
  5  6  1  0  0  0
  5 26  1  0  0  0
  5 93  1  0  0  0
  6 25  1  0  0  0
  6 94  1  0  0  0
  6 95  1  0  0  0
  7  8  2  0  0  0
  7 26  1  0  0  0
  7 29  1  0  0  0
  8  9  1  0  0  0
  8 22  1  0  0  0
  9 10  1  0  0  0
  9 27  2  0  0  0
 10 11  2  0  0  0
 10 15  1  0  0  0
 11 12  1  0  0  0
 11 96  1  0  0  0
 12 13  2  0  0  0
 12 97  1  0  0  0
 13 14  1  0  0  0
 13 31  1  0  0  0
 14 15  2  0  0  0
 14 98  1  0  0  0
 15 99  1  0  0  0
 16 17  2  0  0  0
 16 21  1  0  0  0
 16 31  1  0  0  0
 17 18  1  0  0  0
 17100  1  0  0  0
 18 19  2  0  0  0
 18101  1  0  0  0
 19 20  1  0  0  0
 19 24  1  0  0  0
 20 21  2  0  0  0
 20102  1  0  0  0
 21 23  1  0  0  0
 22 28  1  0  0  0
 22 32  2  0  0  0
 26 27  1  0  0  0
 28103  1  0  0  0
 28104  1  0  0  0
 29105  1  0  0  0
 29106  1  0  0  0
 33 34  1  0  0  0
 33 66  1  0  0  0
 33 70  2  0  0  0
 34 36  1  0  0  0
 34 59  1  0  0  0
 34107  1  0  0  0
 35 44  2  0  0  0
 35 45  1  0  0  0
 35 68  1  0  0  0
 36 56  1  0  0  0
 36108  1  0  0  0
 37 39  1  0  0  0
 37 47  1  0  0  0
 37 66  1  0  0  0
 37109  1  0  0  0
 38 43  2  0  0  0
 38 46  1  0  0  0
 38 47  1  0  0  0
 39 64  1  0  0  0
 39 67  2  0  0  0
 40 52  1  0  0  0
 40 53  2  0  0  0
 40 58  1  0  0  0
 41110  1  0  0  0
 41111  1  0  0  0
 41112  1  0  0  0
 41 48  1  0  0  0
 42 43  1  0  0  0
 42 66  1  0  0  0
 42113  1  0  0  0
 42114  1  0  0  0
 43 44  1  0  0  0
 44115  1  0  0  0
 45 46  2  0  0  0
 45116  1  0  0  0
 46117  1  0  0  0
 47118  1  0  0  0
 47119  1  0  0  0
 48 56  1  0  0  0
 48 65  1  0  0  0
 48120  1  0  0  0
 49 50  1  0  0  0
 49 53  1  0  0  0
 49 64  1  0  0  0
 49121  1  0  0  0
 50 51  1  0  0  0
 50122  1  0  0  0
 50123  1  0  0  0
 51 52  1  0  0  0
 51124  1  0  0  0
 51125  1  0  0  0
 52126  1  0  0  0
 52127  1  0  0  0
 53 54  1  0  0  0
 54 55  2  0  0  0
 54128  1  0  0  0
 55 57  1  0  0  0
 55129  1  0  0  0
 56 69  2  0  0  0
 57 58  2  0  0  0
 57130  1  0  0  0
 58131  1  0  0  0
 59 60  1  0  0  0
 59 61  1  0  0  0
 59 62  1  0  0  0
 60132  1  0  0  0
 60133  1  0  0  0
 60134  1  0  0  0
 61135  1  0  0  0
 61136  1  0  0  0
 61137  1  0  0  0
 62138  1  0  0  0
 62139  1  0  0  0
 62140  1  0  0  0
 63 65  1  0  0  0
 63141  1  0  0  0
 63142  1  0  0  0
 63143  1  0  0  0
 64144  1  0  0  0
 65145  1  0  0  0
 68 77  1  0  0  0
 71 72  2  0  0  0
 71 78  1  0  0  0
 71 81  1  0  0  0
 72 82  1  0  0  0
 72 86  1  0  0  0
 73 81  2  0  0  0
 73 83  1  0  0  0
 73 86  1  0  0  0
 74146  1  0  0  0
 74147  1  0  0  0
 74148  1  0  0  0
 74 79  1  0  0  0
 75149  1  0  0  0
 75150  1  0  0  0
 75151  1  0  0  0
 75 80  1  0  0  0
 76 77  1  0  0  0
 76 79  1  0  0  0
 76152  1  0  0  0
 76153  1  0  0  0
 77154  1  0  0  0
 77155  1  0  0  0
 78 80  1  0  0  0
 78 85  1  0  0  0
 78156  1  0  0  0
 79 84  1  0  0  0
 79157  1  0  0  0
 80 84  1  0  0  0
 80158  1  0  0  0
 82159  1  0  0  0
 82160  1  0  0  0
 83161  1  0  0  0
 84162  1  0  0  0
 84163  1  0  0  0
M  CHG  1  84   1
M  ISO  4   1 100  68 101  77 101  83 100
M  END
> <chiral flag>
0

> <version>
0

> <s_m_source_file>
/data/baiqing/PycharmProjects/Reinvent-master-3.2/result/LINK_invent/BTK/process_docking_weight1_custom_product_contain_oxygen_bond_distance_aromatic_linkinvent_7_9_3/rearranged_h_0193.sdf

> <i_m_source_file_index>
5

> <r_mmod_Potential_Energy-OPLS-2005>
-144.343032836914

> <r_mmod_Stretch_Energy-OPLS-2005>
47.3913459777832

> <r_mmod_Bend_Energy-OPLS-2005>
154.408233642578

> <r_mmod_Torsional_Energy-OPLS-2005>
263.571533203125

> <r_mmod_Improper_Torsional_Energy-OPLS-2005>
11.7633123397827

> <r_mmod_Van_der_Waal_Energy-OPLS-2005>
123.85124206543

> <r_mmod_Electrostatic_Energy-OPLS-2005>
-295.724578857422

> <r_mmod_Solvation_Energy-OPLS-2005>
-464.726104736328

> <b_mmod_Minimization_Converged-OPLS-2005>
0

> <r_mmod_RMS_Derivative-OPLS-2005>
5.77045345306396

$$$$
5
                    3D
 Structure written by MMmdl.
170178  0  0  1  0            999 V2000
  -30.7141  -14.4178   20.6860 C   0  0  0  0  0  0
  -30.4363  -12.3175   19.3944 C   0  0  0  0  0  0
  -29.4947  -12.5414   18.1940 C   0  0  0  0  0  0
  -28.0184  -12.3893   18.6078 C   0  0  0  0  0  0
  -27.6726  -13.1993   19.8828 C   0  0  2  0  0  0
  -28.7098  -12.9172   20.9905 C   0  0  0  0  0  0
  -25.2644  -13.8130   20.5670 C   0  0  0  0  0  0
  -24.1864  -13.0440   20.9131 C   0  0  0  0  0  0
  -24.6390  -11.6894   20.8676 C   0  0  0  0  0  0
  -23.9047  -10.4289   21.0374 C   0  0  0  0  0  0
  -24.3593   -9.4210   21.9159 C   0  0  0  0  0  0
  -23.6265   -8.2251   22.0752 C   0  0  0  0  0  0
  -22.4246   -8.0280   21.3552 C   0  0  0  0  0  0
  -21.9872   -9.0242   20.4655 C   0  0  0  0  0  0
  -22.7211  -10.2118   20.3046 C   0  0  0  0  0  0
  -21.6859   -6.0721   22.5275 C   0  0  0  0  0  0
  -21.4021   -6.5618   23.8204 C   0  0  0  0  0  0
  -21.3666   -5.6770   24.9158 C   0  0  0  0  0  0
  -21.6043   -4.3033   24.7219 C   0  0  0  0  0  0
  -21.8820   -3.8136   23.4337 C   0  0  0  0  0  0
  -21.9198   -4.6955   22.3392 C   0  0  0  0  0  0
  -22.7892  -13.5273   21.1786 C   0  0  0  0  0  0
  -22.1666   -4.2141   21.0975 F   0  0  0  0  0  0
  -21.5626   -3.4520   25.7729 F   0  0  0  0  0  0
  -30.0562  -13.2442   20.4714 N   0  0  0  0  0  0
  -26.3079  -12.9297   20.3379 N   0  0  0  0  0  0
  -25.9316  -11.6456   20.5704 N   0  0  0  0  0  0
  -22.0502  -12.8306   22.0362 N   0  0  0  0  0  0
  -25.4396  -15.1846   20.4125 N   0  0  0  0  0  0
  -31.7216  -14.7586   20.0527 O   0  0  0  0  0  0
  -21.6632   -6.8864   21.4239 O   0  0  0  0  0  0
  -22.3605  -14.5581   20.6629 O   0  0  0  0  0  0
  -24.6128  -31.8684   23.2096 C   0  0  0  0  0  0
  -25.9018  -32.4833   23.8405 C   0  0  1  0  0  0
  -27.2450  -27.4430   20.1066 C   0  0  0  0  0  0
  -25.5867  -33.8632   24.2328 N   0  0  0  0  0  0
  -23.4036  -30.4883   21.5492 C   0  0  2  0  0  0
  -24.8566  -28.9527   20.1175 C   0  0  0  0  0  0
  -22.7414  -29.4648   22.4989 C   0  0  0  0  0  0
  -18.0279  -28.1387   22.8498 C   0  0  0  0  0  0
  -24.1481  -36.7323   23.2642 C   0  0  0  0  0  0
  -25.9309  -30.8352   21.3650 C   0  0  0  0  0  0
  -26.0136  -29.4681   20.7174 C   0  0  0  0  0  0
  -27.2121  -28.7188   20.7134 C   0  0  0  0  0  0
  -26.0776  -26.9389   19.4994 C   0  0  0  0  0  0
  -24.8819  -27.6859   19.5068 C   0  0  0  0  0  0
  -23.6154  -29.8165   20.1657 C   0  0  0  0  0  0
  -25.4098  -36.3116   24.0341 C   0  0  1  0  0  0
  -20.5865  -28.3670   23.1322 C   0  0  2  0  0  0
  -20.6757  -26.9403   22.5426 C   0  0  0  0  0  0
  -19.5736  -26.6392   21.5216 C   0  0  0  0  0  0
  -18.1918  -26.7936   22.1627 C   0  0  0  0  0  0
  -19.1528  -28.8846   23.2909 C   0  0  0  0  0  0
  -18.9456  -30.1451   23.8918 C   0  0  0  0  0  0
  -17.6458  -30.6586   24.0576 C   0  0  0  0  0  0
  -25.9029  -34.9484   23.5139 C   0  0  0  0  0  0
  -16.5352  -29.9090   23.6329 C   0  0  0  0  0  0
  -16.7267  -28.6511   23.0344 C   0  0  0  0  0  0
  -26.4453  -31.6611   25.0729 C   0  0  0  0  0  0
  -25.3727  -31.3728   26.1487 C   0  0  0  0  0  0
  -27.0286  -30.3052   24.6103 C   0  0  0  0  0  0
  -27.6041  -32.4332   25.7471 C   0  0  0  0  0  0
  -27.5581  -37.1802   24.8460 C   0  0  0  0  0  0
  -21.4139  -29.3029   22.3724 N   0  0  0  0  0  0
  -26.4285  -37.3796   23.9415 N   0  0  0  0  0  0
  -24.6668  -31.0785   22.1001 N   0  0  0  0  0  0
  -23.4181  -28.8198   23.3040 O   0  0  0  0  0  0
  -28.3924  -26.6846   20.0791 O   0  0  0  0  0  0
  -26.5603  -34.8932   22.4704 O   0  0  0  0  0  0
  -23.5317  -32.1438   23.7484 O   0  0  0  0  0  0
  -28.3724  -16.5511   22.1657 C   0  0  0  0  0  0
  -29.6571  -16.4080   21.7106 C   0  0  0  0  0  0
  -29.4888  -18.6914   21.6524 C   0  0  0  0  0  0
  -28.2711  -20.7698   19.6446 C   0  0  0  0  0  0
  -25.7118  -19.9566   17.6819 C   0  0  0  0  0  0
  -31.1547  -22.6582   19.2430 C   0  0  0  0  0  0
  -29.8934  -20.1492   21.5765 C   0  0  0  0  0  0
  -28.1234  -20.8125   18.1155 C   0  0  0  0  0  0
  -26.7037  -21.1291   17.5933 C   0  0  0  0  0  0
  -29.0975  -23.3960   20.4596 C   0  0  0  0  0  0
  -28.5542  -25.8398   21.2234 C   0  0  0  0  0  0
  -29.7062  -20.8860   20.2170 C   0  0  2  0  0  0
  -29.6414  -24.7451   21.0074 C   0  0  1  0  0  0
  -30.2849  -17.6305   21.3941 N   0  0  0  0  0  0
  -30.2389  -15.1131   21.7307 N   0  0  0  0  0  0
  -30.1525  -22.3328   20.2909 N   0  3  1  0  0  0
  -27.2700  -20.7443   20.3650 O   0  0  0  0  0  0
  -30.2941  -24.4741   22.2416 O   0  0  0  0  0  0
  -27.8910  -18.2169   22.2341 S   0  0  0  0  0  0
  -31.4754  -12.4482   19.0870 H   0  0  0  0  0  0
  -30.3599  -11.2890   19.7490 H   0  0  0  0  0  0
  -29.7298  -11.8356   17.3952 H   0  0  0  0  0  0
  -29.6587  -13.5384   17.7823 H   0  0  0  0  0  0
  -27.8259  -11.3307   18.7805 H   0  0  0  0  0  0
  -27.3680  -12.6888   17.7860 H   0  0  0  0  0  0
  -27.7360  -14.2564   19.6228 H   0  0  0  0  0  0
  -28.6809  -11.8628   21.2681 H   0  0  0  0  0  0
  -28.4381  -13.4498   21.9017 H   0  0  0  0  0  0
  -25.2733   -9.5692   22.4738 H   0  0  0  0  0  0
  -23.9972   -7.4656   22.7486 H   0  0  0  0  0  0
  -21.0787   -8.8757   19.8972 H   0  0  0  0  0  0
  -22.3651  -10.9643   19.6158 H   0  0  0  0  0  0
  -21.2011   -7.6123   23.9705 H   0  0  0  0  0  0
  -21.1489   -6.0495   25.9062 H   0  0  0  0  0  0
  -22.0596   -2.7603   23.2834 H   0  0  0  0  0  0
  -22.4074  -11.9980   22.4796 H   0  0  0  0  0  0
  -21.1136  -13.1405   22.2539 H   0  0  0  0  0  0
  -24.6691  -15.8369   20.5066 H   0  0  0  0  0  0
  -26.2971  -15.6253   20.1059 H   0  0  0  0  0  0
  -26.7092  -32.5558   23.1183 H   0  0  0  0  0  0
  -24.9992  -33.9802   25.0449 H   0  0  0  0  0  0
  -22.6918  -31.3035   21.4067 H   0  0  0  0  0  0
  -23.3737  -35.9662   23.3319 H   0  0  0  0  0  0
  -24.3587  -36.8928   22.2055 H   0  0  0  0  0  0
  -23.7242  -37.6533   23.6655 H   0  0  0  0  0  0
  -26.0411  -31.5978   20.5933 H   0  0  0  0  0  0
  -26.8193  -30.8949   21.9825 H   0  0  0  0  0  0
  -28.1071  -29.1132   21.1743 H   0  0  0  0  0  0
  -26.0929  -25.9672   19.0258 H   0  0  0  0  0  0
  -23.9931  -27.2813   19.0427 H   0  0  0  0  0  0
  -23.7238  -30.5897   19.4048 H   0  0  0  0  0  0
  -22.7416  -29.2339   19.8688 H   0  0  0  0  0  0
  -25.1262  -36.1992   25.0832 H   0  0  0  0  0  0
  -20.9966  -28.3239   24.1437 H   0  0  0  0  0  0
  -20.5659  -26.2270   23.3612 H   0  0  0  0  0  0
  -21.6627  -26.7440   22.1220 H   0  0  0  0  0  0
  -19.6891  -25.6302   21.1237 H   0  0  0  0  0  0
  -19.6676  -27.3210   20.6752 H   0  0  0  0  0  0
  -17.4183  -26.6703   21.4031 H   0  0  0  0  0  0
  -18.0316  -26.0072   22.9016 H   0  0  0  0  0  0
  -19.7929  -30.7270   24.2292 H   0  0  0  0  0  0
  -17.5010  -31.6266   24.5178 H   0  0  0  0  0  0
  -15.5350  -30.3000   23.7635 H   0  0  0  0  0  0
  -15.8669  -28.0839   22.7040 H   0  0  0  0  0  0
  -24.5870  -30.7109   25.7824 H   0  0  0  0  0  0
  -24.8953  -32.2895   26.4959 H   0  0  0  0  0  0
  -25.8076  -30.8870   27.0232 H   0  0  0  0  0  0
  -26.2828  -29.6818   24.1159 H   0  0  0  0  0  0
  -27.4056  -29.7286   25.4560 H   0  0  0  0  0  0
  -27.8663  -30.4373   23.9254 H   0  0  0  0  0  0
  -27.2667  -33.3617   26.2093 H   0  0  0  0  0  0
  -28.3812  -32.6927   25.0268 H   0  0  0  0  0  0
  -28.0762  -31.8442   26.5346 H   0  0  0  0  0  0
  -28.2589  -38.0105   24.7518 H   0  0  0  0  0  0
  -28.1085  -36.2643   24.6259 H   0  0  0  0  0  0
  -27.2323  -37.1432   25.8869 H   0  0  0  0  0  0
  -20.9302  -29.8759   21.6952 H   0  0  0  0  0  0
  -26.0185  -38.2877   24.1411 H   0  0  0  0  0  0
  -27.6732  -15.7910   22.4881 H   0  0  0  0  0  0
  -24.7418  -20.2443   17.2739 H   0  0  0  0  0  0
  -25.5489  -19.6344   18.7115 H   0  0  0  0  0  0
  -26.0651  -19.0964   17.1127 H   0  0  0  0  0  0
  -31.6874  -23.5823   19.4632 H   0  0  0  0  0  0
  -30.6928  -22.7638   18.2621 H   0  0  0  0  0  0
  -31.9178  -21.8822   19.1698 H   0  0  0  0  0  0
  -30.9405  -20.2106   21.8729 H   0  0  0  0  0  0
  -29.3407  -20.6802   22.3523 H   0  0  0  0  0  0
  -28.4702  -19.8651   17.7036 H   0  0  0  0  0  0
  -28.8052  -21.5736   17.7383 H   0  0  0  0  0  0
  -26.2967  -21.9939   18.1199 H   0  0  0  0  0  0
  -26.7828  -21.4356   16.5492 H   0  0  0  0  0  0
  -28.5849  -23.5744   19.5121 H   0  0  0  0  0  0
  -28.3423  -23.0453   21.1652 H   0  0  0  0  0  0
  -28.8492  -26.4913   22.0482 H   0  0  0  0  0  0
  -27.6060  -25.3838   21.5170 H   0  0  0  0  0  0
  -30.3608  -20.3645   19.5181 H   0  0  0  0  0  0
  -30.3897  -25.1574   20.3302 H   0  0  0  0  0  0
  -29.7195  -14.4833   22.3212 H   0  0  0  0  0  0
  -30.6740  -22.3984   21.1550 H   0  0  0  0  0  0
  -29.6451  -24.5188   22.9398 H   0  0  0  0  0  0
  1 25  1  0  0  0
  1 30  2  0  0  0
  1 85  1  0  0  0
  2  3  1  0  0  0
  2 25  1  0  0  0
  2 90  1  0  0  0
  2 91  1  0  0  0
  3  4  1  0  0  0
  3 92  1  0  0  0
  3 93  1  0  0  0
  4  5  1  0  0  0
  4 94  1  0  0  0
  4 95  1  0  0  0
  5  6  1  0  0  0
  5 26  1  0  0  0
  5 96  1  0  0  0
  6 25  1  0  0  0
  6 97  1  0  0  0
  6 98  1  0  0  0
  7  8  2  0  0  0
  7 26  1  0  0  0
  7 29  1  0  0  0
  8  9  1  0  0  0
  8 22  1  0  0  0
  9 10  1  0  0  0
  9 27  2  0  0  0
 10 11  2  0  0  0
 10 15  1  0  0  0
 11 12  1  0  0  0
 11 99  1  0  0  0
 12 13  2  0  0  0
 12100  1  0  0  0
 13 14  1  0  0  0
 13 31  1  0  0  0
 14 15  2  0  0  0
 14101  1  0  0  0
 15102  1  0  0  0
 16 17  2  0  0  0
 16 21  1  0  0  0
 16 31  1  0  0  0
 17 18  1  0  0  0
 17103  1  0  0  0
 18 19  2  0  0  0
 18104  1  0  0  0
 19 20  1  0  0  0
 19 24  1  0  0  0
 20 21  2  0  0  0
 20105  1  0  0  0
 21 23  1  0  0  0
 22 28  1  0  0  0
 22 32  2  0  0  0
 26 27  1  0  0  0
 28106  1  0  0  0
 28107  1  0  0  0
 29108  1  0  0  0
 29109  1  0  0  0
 33 34  1  0  0  0
 33 66  1  0  0  0
 33 70  2  0  0  0
 34 36  1  0  0  0
 34 59  1  0  0  0
 34110  1  0  0  0
 35 44  2  0  0  0
 35 45  1  0  0  0
 35 68  1  0  0  0
 36 56  1  0  0  0
 36111  1  0  0  0
 37 39  1  0  0  0
 37 47  1  0  0  0
 37 66  1  0  0  0
 37112  1  0  0  0
 38 43  2  0  0  0
 38 46  1  0  0  0
 38 47  1  0  0  0
 39 64  1  0  0  0
 39 67  2  0  0  0
 40 52  1  0  0  0
 40 53  2  0  0  0
 40 58  1  0  0  0
 41113  1  0  0  0
 41114  1  0  0  0
 41115  1  0  0  0
 41 48  1  0  0  0
 42 43  1  0  0  0
 42 66  1  0  0  0
 42116  1  0  0  0
 42117  1  0  0  0
 43 44  1  0  0  0
 44118  1  0  0  0
 45 46  2  0  0  0
 45119  1  0  0  0
 46120  1  0  0  0
 47121  1  0  0  0
 47122  1  0  0  0
 48 56  1  0  0  0
 48 65  1  0  0  0
 48123  1  0  0  0
 49 50  1  0  0  0
 49 53  1  0  0  0
 49 64  1  0  0  0
 49124  1  0  0  0
 50 51  1  0  0  0
 50125  1  0  0  0
 50126  1  0  0  0
 51 52  1  0  0  0
 51127  1  0  0  0
 51128  1  0  0  0
 52129  1  0  0  0
 52130  1  0  0  0
 53 54  1  0  0  0
 54 55  2  0  0  0
 54131  1  0  0  0
 55 57  1  0  0  0
 55132  1  0  0  0
 56 69  2  0  0  0
 57 58  2  0  0  0
 57133  1  0  0  0
 58134  1  0  0  0
 59 60  1  0  0  0
 59 61  1  0  0  0
 59 62  1  0  0  0
 60135  1  0  0  0
 60136  1  0  0  0
 60137  1  0  0  0
 61138  1  0  0  0
 61139  1  0  0  0
 61140  1  0  0  0
 62141  1  0  0  0
 62142  1  0  0  0
 62143  1  0  0  0
 63 65  1  0  0  0
 63144  1  0  0  0
 63145  1  0  0  0
 63146  1  0  0  0
 64147  1  0  0  0
 65148  1  0  0  0
 68 81  1  0  0  0
 71 72  2  0  0  0
 71 89  1  0  0  0
 71149  1  0  0  0
 72 84  1  0  0  0
 72 85  1  0  0  0
 73 77  1  0  0  0
 73 84  2  0  0  0
 73 89  1  0  0  0
 74 78  1  0  0  0
 74 82  1  0  0  0
 74 87  2  0  0  0
 75 79  1  0  0  0
 75150  1  0  0  0
 75151  1  0  0  0
 75152  1  0  0  0
 76153  1  0  0  0
 76154  1  0  0  0
 76155  1  0  0  0
 76 86  1  0  0  0
 77156  1  0  0  0
 77157  1  0  0  0
 77 82  1  0  0  0
 78 79  1  0  0  0
 78158  1  0  0  0
 78159  1  0  0  0
 79160  1  0  0  0
 79161  1  0  0  0
 80 83  1  0  0  0
 80 86  1  0  0  0
 80162  1  0  0  0
 80163  1  0  0  0
 81 83  1  0  0  0
 81164  1  0  0  0
 81165  1  0  0  0
 82 86  1  0  0  0
 82166  1  0  0  0
 83 88  1  0  0  0
 83167  1  0  0  0
 85168  1  0  0  0
 86169  1  0  0  0
 88170  1  0  0  0
M  CHG  1  86   1
M  ISO  4   1 100  68 101  81 101  85 100
M  END
> <chiral flag>
0

> <version>
0

> <s_m_source_file>
/data/baiqing/PycharmProjects/Reinvent-master-3.2/result/LINK_invent/BTK/process_docking_weight1_custom_product_contain_oxygen_bond_distance_aromatic_linkinvent_7_9_3/rearranged_h_0193.sdf

> <i_m_source_file_index>
6

> <r_mmod_Potential_Energy-OPLS-2005>
-283.872253417969

> <r_mmod_Stretch_Energy-OPLS-2005>
42.8542747497559

> <r_mmod_Bend_Energy-OPLS-2005>
119.125335693359

> <r_mmod_Torsional_Energy-OPLS-2005>
258.870727539062

> <r_mmod_Improper_Torsional_Energy-OPLS-2005>
8.05759429931641

> <r_mmod_Van_der_Waal_Energy-OPLS-2005>
120.585662841797

> <r_mmod_Electrostatic_Energy-OPLS-2005>
-371.708282470703

> <r_mmod_Solvation_Energy-OPLS-2005>
-471.637359619141

> <b_mmod_Minimization_Converged-OPLS-2005>
0

> <r_mmod_RMS_Derivative-OPLS-2005>
2.00521636009216

$$$$
6
                    3D
 Structure written by MMmdl.
161169  0  0  1  0            999 V2000
  -30.7114  -14.4365   20.5896 C   0  0  0  0  0  0
  -30.4188  -12.2911   19.4126 C   0  0  0  0  0  0
  -29.4903  -12.5053   18.2004 C   0  0  0  0  0  0
  -28.0108  -12.3705   18.6121 C   0  0  0  0  0  0
  -27.6624  -13.2029   19.8756 C   0  0  2  0  0  0
  -28.7024  -12.9665   20.9936 C   0  0  0  0  0  0
  -25.2590  -13.8150   20.5654 C   0  0  0  0  0  0
  -24.1838  -13.0434   20.9148 C   0  0  0  0  0  0
  -24.6381  -11.6898   20.8711 C   0  0  0  0  0  0
  -23.9051  -10.4289   21.0393 C   0  0  0  0  0  0
  -24.3612   -9.4210   21.9178 C   0  0  0  0  0  0
  -23.6287   -8.2246   22.0757 C   0  0  0  0  0  0
  -22.4268   -8.0279   21.3546 C   0  0  0  0  0  0
  -21.9899   -9.0249   20.4646 C   0  0  0  0  0  0
  -22.7221  -10.2132   20.3049 C   0  0  0  0  0  0
  -21.6855   -6.0729   22.5281 C   0  0  0  0  0  0
  -21.4015   -6.5637   23.8212 C   0  0  0  0  0  0
  -21.3659   -5.6793   24.9177 C   0  0  0  0  0  0
  -21.6047   -4.3056   24.7229 C   0  0  0  0  0  0
  -21.8821   -3.8141   23.4353 C   0  0  0  0  0  0
  -21.9190   -4.6955   22.3406 C   0  0  0  0  0  0
  -22.7862  -13.5236   21.1815 C   0  0  0  0  0  0
  -22.1659   -4.2137   21.0983 F   0  0  0  0  0  0
  -21.5630   -3.4544   25.7746 F   0  0  0  0  0  0
  -30.0352  -13.2669   20.4441 N   0  0  0  0  0  0
  -26.3024  -12.9312   20.3352 N   0  0  0  0  0  0
  -25.9307  -11.6472   20.5751 N   0  0  0  0  0  0
  -22.0503  -12.8242   22.0381 N   0  0  0  0  0  0
  -25.4319  -15.1871   20.4059 N   0  0  0  0  0  0
  -31.8247  -14.6390   20.0968 O   0  0  0  0  0  0
  -21.6641   -6.8869   21.4241 O   0  0  0  0  0  0
  -22.3546  -14.5538   20.6651 O   0  0  0  0  0  0
  -24.6150  -31.8683   23.2108 C   0  0  0  0  0  0
  -25.9042  -32.4829   23.8405 C   0  0  1  0  0  0
  -27.2315  -27.4342   20.0917 C   0  0  0  0  0  0
  -25.5901  -33.8627   24.2340 N   0  0  0  0  0  0
  -23.4022  -30.4919   21.5518 C   0  0  2  0  0  0
  -24.8470  -28.9587   20.1125 C   0  0  0  0  0  0
  -22.7410  -29.4666   22.5009 C   0  0  0  0  0  0
  -18.0278  -28.1365   22.8486 C   0  0  0  0  0  0
  -24.1489  -36.7314   23.2640 C   0  0  0  0  0  0
  -25.9306  -30.8335   21.3620 C   0  0  0  0  0  0
  -26.0068  -29.4683   20.7088 C   0  0  0  0  0  0
  -27.2013  -28.7136   20.6939 C   0  0  0  0  0  0
  -26.0567  -26.9472   19.4748 C   0  0  0  0  0  0
  -24.8670  -27.6981   19.4928 C   0  0  0  0  0  0
  -23.6089  -29.8243   20.1661 C   0  0  0  0  0  0
  -25.4109  -36.3120   24.0345 C   0  0  1  0  0  0
  -20.5862  -28.3656   23.1324 C   0  0  2  0  0  0
  -20.6774  -26.9395   22.5419 C   0  0  0  0  0  0
  -19.5760  -26.6381   21.5215 C   0  0  0  0  0  0
  -18.1936  -26.7911   22.1622 C   0  0  0  0  0  0
  -19.1519  -28.8828   23.2902 C   0  0  0  0  0  0
  -18.9447  -30.1432   23.8909 C   0  0  0  0  0  0
  -17.6449  -30.6576   24.0560 C   0  0  0  0  0  0
  -25.9035  -34.9482   23.5141 C   0  0  0  0  0  0
  -16.5345  -29.9070   23.6324 C   0  0  0  0  0  0
  -16.7263  -28.6490   23.0342 C   0  0  0  0  0  0
  -26.4475  -31.6598   25.0722 C   0  0  0  0  0  0
  -25.3751  -31.3673   26.1474 C   0  0  0  0  0  0
  -27.0303  -30.3051   24.6065 C   0  0  0  0  0  0
  -27.6064  -32.4306   25.7471 C   0  0  0  0  0  0
  -27.5580  -37.1812   24.8468 C   0  0  0  0  0  0
  -21.4138  -29.3040   22.3756 N   0  0  0  0  0  0
  -26.4295  -37.3800   23.9411 N   0  0  0  0  0  0
  -24.6681  -31.0790   22.1003 N   0  0  0  0  0  0
  -23.4197  -28.8199   23.3035 O   0  0  0  0  0  0
  -28.4041  -26.7056   20.1207 O   0  0  0  0  0  0
  -26.5592  -34.8931   22.4701 O   0  0  0  0  0  0
  -23.5339  -32.1427   23.7501 O   0  0  0  0  0  0
  -29.6171  -17.7061   22.1043 C   0  0  0  0  0  0
  -29.0221  -17.4022   23.3110 C   0  0  0  0  0  0
  -28.6246  -19.7100   22.5574 C   0  0  0  0  0  0
  -29.0836  -16.1287   24.0919 C   0  0  0  0  0  0
  -26.9709  -21.9402   20.5973 C   0  0  0  0  0  0
  -30.5060  -16.8089   21.2765 C   0  0  0  0  0  0
  -28.3153  -23.4924   22.2263 C   0  0  0  0  0  0
  -28.3302  -25.2692   20.2318 C   0  0  0  0  0  0
  -28.2140  -22.1205   21.4816 C   0  0  1  0  0  0
  -27.7823  -24.8248   21.6157 C   0  0  1  0  0  0
  -29.3611  -19.0244   21.6786 N   0  0  0  0  0  0
  -28.2463  -21.0449   22.4727 N   0  0  0  0  0  0
  -30.0364  -15.4246   21.1920 N   0  0  0  0  0  0
  -26.3645  -24.7994   21.6196 O   0  0  0  0  0  0
  -28.1369  -18.7616   23.9502 S   0  0  0  0  0  0
  -31.4631  -12.3879   19.1110 H   0  0  0  0  0  0
  -30.3168  -11.2758   19.7985 H   0  0  0  0  0  0
  -29.7262  -11.7882   17.4125 H   0  0  0  0  0  0
  -29.6633  -13.4960   17.7761 H   0  0  0  0  0  0
  -27.8099  -11.3139   18.7961 H   0  0  0  0  0  0
  -27.3640  -12.6607   17.7832 H   0  0  0  0  0  0
  -27.7124  -14.2538   19.5878 H   0  0  0  0  0  0
  -28.6714  -11.9257   21.3204 H   0  0  0  0  0  0
  -28.4671  -13.5544   21.8814 H   0  0  0  0  0  0
  -25.2758   -9.5698   22.4748 H   0  0  0  0  0  0
  -24.0000   -7.4644   22.7487 H   0  0  0  0  0  0
  -21.0825   -8.8762   19.8953 H   0  0  0  0  0  0
  -22.3674  -10.9668   19.6156 H   0  0  0  0  0  0
  -21.2016   -7.6147   23.9714 H   0  0  0  0  0  0
  -21.1474   -6.0525   25.9081 H   0  0  0  0  0  0
  -22.0600   -2.7600   23.2860 H   0  0  0  0  0  0
  -22.4112  -11.9906   22.4783 H   0  0  0  0  0  0
  -21.1119  -13.1272   22.2575 H   0  0  0  0  0  0
  -24.6679  -15.8437   20.5219 H   0  0  0  0  0  0
  -26.2863  -15.6272   20.0877 H   0  0  0  0  0  0
  -26.7115  -32.5538   23.1173 H   0  0  0  0  0  0
  -25.0094  -33.9794   25.0511 H   0  0  0  0  0  0
  -22.6900  -31.3080   21.4136 H   0  0  0  0  0  0
  -23.3750  -35.9649   23.3321 H   0  0  0  0  0  0
  -24.3578  -36.8909   22.2052 H   0  0  0  0  0  0
  -23.7248  -37.6529   23.6632 H   0  0  0  0  0  0
  -26.0410  -31.5977   20.5915 H   0  0  0  0  0  0
  -26.8210  -30.8889   21.9770 H   0  0  0  0  0  0
  -28.0976  -29.1020   21.1579 H   0  0  0  0  0  0
  -26.0415  -25.9904   18.9736 H   0  0  0  0  0  0
  -23.9765  -27.3056   19.0207 H   0  0  0  0  0  0
  -23.7166  -30.5985   19.4061 H   0  0  0  0  0  0
  -22.7322  -29.2435   19.8737 H   0  0  0  0  0  0
  -25.1288  -36.1994   25.0839 H   0  0  0  0  0  0
  -20.9928  -28.3207   24.1449 H   0  0  0  0  0  0
  -20.5675  -26.2271   23.3608 H   0  0  0  0  0  0
  -21.6644  -26.7430   22.1220 H   0  0  0  0  0  0
  -19.6941  -25.6296   21.1241 H   0  0  0  0  0  0
  -19.6696  -27.3194   20.6749 H   0  0  0  0  0  0
  -17.4204  -26.6633   21.4034 H   0  0  0  0  0  0
  -18.0339  -26.0052   22.9013 H   0  0  0  0  0  0
  -19.7923  -30.7245   24.2281 H   0  0  0  0  0  0
  -17.5006  -31.6264   24.5139 H   0  0  0  0  0  0
  -15.5345  -30.2979   23.7643 H   0  0  0  0  0  0
  -15.8666  -28.0820   22.7040 H   0  0  0  0  0  0
  -24.5935  -30.7011   25.7804 H   0  0  0  0  0  0
  -24.8923  -32.2808   26.4951 H   0  0  0  0  0  0
  -25.8121  -30.8824   27.0214 H   0  0  0  0  0  0
  -26.2831  -29.6803   24.1157 H   0  0  0  0  0  0
  -27.4141  -29.7293   25.4498 H   0  0  0  0  0  0
  -27.8639  -30.4401   23.9169 H   0  0  0  0  0  0
  -27.2713  -33.3604   26.2079 H   0  0  0  0  0  0
  -28.3852  -32.6865   25.0273 H   0  0  0  0  0  0
  -28.0758  -31.8405   26.5354 H   0  0  0  0  0  0
  -28.2616  -38.0091   24.7507 H   0  0  0  0  0  0
  -28.1059  -36.2627   24.6308 H   0  0  0  0  0  0
  -27.2294  -37.1489   25.8869 H   0  0  0  0  0  0
  -20.9292  -29.8794   21.7009 H   0  0  0  0  0  0
  -26.0192  -38.2885   24.1392 H   0  0  0  0  0  0
  -30.0895  -15.7082   24.0790 H   0  0  0  0  0  0
  -28.3982  -15.3868   23.6819 H   0  0  0  0  0  0
  -28.8118  -16.2902   25.1357 H   0  0  0  0  0  0
  -26.9430  -22.6704   19.7893 H   0  0  0  0  0  0
  -26.0496  -22.0437   21.1716 H   0  0  0  0  0  0
  -26.9607  -20.9539   20.1309 H   0  0  0  0  0  0
  -31.5120  -16.8119   21.6996 H   0  0  0  0  0  0
  -30.6078  -17.2042   20.2643 H   0  0  0  0  0  0
  -29.3690  -23.6418   22.4679 H   0  0  0  0  0  0
  -27.8294  -23.4006   23.1991 H   0  0  0  0  0  0
  -29.3584  -24.9184   20.1434 H   0  0  0  0  0  0
  -27.8024  -24.8079   19.3977 H   0  0  0  0  0  0
  -29.0906  -22.0161   20.8400 H   0  0  0  0  0  0
  -28.0745  -25.6007   22.3257 H   0  0  0  0  0  0
  -27.7456  -21.3082   23.3152 H   0  0  0  0  0  0
  -29.1115  -15.2274   21.5392 H   0  0  0  0  0  0
  -26.0681  -25.6542   21.3224 H   0  0  0  0  0  0
  1 25  1  0  0  0
  1 30  2  0  0  0
  1 83  1  0  0  0
  2  3  1  0  0  0
  2 25  1  0  0  0
  2 86  1  0  0  0
  2 87  1  0  0  0
  3  4  1  0  0  0
  3 88  1  0  0  0
  3 89  1  0  0  0
  4  5  1  0  0  0
  4 90  1  0  0  0
  4 91  1  0  0  0
  5  6  1  0  0  0
  5 26  1  0  0  0
  5 92  1  0  0  0
  6 25  1  0  0  0
  6 93  1  0  0  0
  6 94  1  0  0  0
  7  8  2  0  0  0
  7 26  1  0  0  0
  7 29  1  0  0  0
  8  9  1  0  0  0
  8 22  1  0  0  0
  9 10  1  0  0  0
  9 27  2  0  0  0
 10 11  2  0  0  0
 10 15  1  0  0  0
 11 12  1  0  0  0
 11 95  1  0  0  0
 12 13  2  0  0  0
 12 96  1  0  0  0
 13 14  1  0  0  0
 13 31  1  0  0  0
 14 15  2  0  0  0
 14 97  1  0  0  0
 15 98  1  0  0  0
 16 17  2  0  0  0
 16 21  1  0  0  0
 16 31  1  0  0  0
 17 18  1  0  0  0
 17 99  1  0  0  0
 18 19  2  0  0  0
 18100  1  0  0  0
 19 20  1  0  0  0
 19 24  1  0  0  0
 20 21  2  0  0  0
 20101  1  0  0  0
 21 23  1  0  0  0
 22 28  1  0  0  0
 22 32  2  0  0  0
 26 27  1  0  0  0
 28102  1  0  0  0
 28103  1  0  0  0
 29104  1  0  0  0
 29105  1  0  0  0
 33 34  1  0  0  0
 33 66  1  0  0  0
 33 70  2  0  0  0
 34 36  1  0  0  0
 34 59  1  0  0  0
 34106  1  0  0  0
 35 44  2  0  0  0
 35 45  1  0  0  0
 35 68  1  0  0  0
 36 56  1  0  0  0
 36107  1  0  0  0
 37 39  1  0  0  0
 37 47  1  0  0  0
 37 66  1  0  0  0
 37108  1  0  0  0
 38 43  2  0  0  0
 38 46  1  0  0  0
 38 47  1  0  0  0
 39 64  1  0  0  0
 39 67  2  0  0  0
 40 52  1  0  0  0
 40 53  2  0  0  0
 40 58  1  0  0  0
 41109  1  0  0  0
 41110  1  0  0  0
 41111  1  0  0  0
 41 48  1  0  0  0
 42 43  1  0  0  0
 42 66  1  0  0  0
 42112  1  0  0  0
 42113  1  0  0  0
 43 44  1  0  0  0
 44114  1  0  0  0
 45 46  2  0  0  0
 45115  1  0  0  0
 46116  1  0  0  0
 47117  1  0  0  0
 47118  1  0  0  0
 48 56  1  0  0  0
 48 65  1  0  0  0
 48119  1  0  0  0
 49 50  1  0  0  0
 49 53  1  0  0  0
 49 64  1  0  0  0
 49120  1  0  0  0
 50 51  1  0  0  0
 50121  1  0  0  0
 50122  1  0  0  0
 51 52  1  0  0  0
 51123  1  0  0  0
 51124  1  0  0  0
 52125  1  0  0  0
 52126  1  0  0  0
 53 54  1  0  0  0
 54 55  2  0  0  0
 54127  1  0  0  0
 55 57  1  0  0  0
 55128  1  0  0  0
 56 69  2  0  0  0
 57 58  2  0  0  0
 57129  1  0  0  0
 58130  1  0  0  0
 59 60  1  0  0  0
 59 61  1  0  0  0
 59 62  1  0  0  0
 60131  1  0  0  0
 60132  1  0  0  0
 60133  1  0  0  0
 61134  1  0  0  0
 61135  1  0  0  0
 61136  1  0  0  0
 62137  1  0  0  0
 62138  1  0  0  0
 62139  1  0  0  0
 63 65  1  0  0  0
 63140  1  0  0  0
 63141  1  0  0  0
 63142  1  0  0  0
 64143  1  0  0  0
 65144  1  0  0  0
 68 78  1  0  0  0
 71 72  2  0  0  0
 71 76  1  0  0  0
 71 81  1  0  0  0
 72 74  1  0  0  0
 72 85  1  0  0  0
 73 81  2  0  0  0
 73 82  1  0  0  0
 73 85  1  0  0  0
 74145  1  0  0  0
 74146  1  0  0  0
 74147  1  0  0  0
 75148  1  0  0  0
 75149  1  0  0  0
 75150  1  0  0  0
 75 79  1  0  0  0
 76 83  1  0  0  0
 76151  1  0  0  0
 76152  1  0  0  0
 77 79  1  0  0  0
 77 80  1  0  0  0
 77153  1  0  0  0
 77154  1  0  0  0
 78 80  1  0  0  0
 78155  1  0  0  0
 78156  1  0  0  0
 79 82  1  0  0  0
 79157  1  0  0  0
 80 84  1  0  0  0
 80158  1  0  0  0
 82159  1  0  0  0
 83160  1  0  0  0
 84161  1  0  0  0
M  ISO  4   1 100  68 101  78 101  83 100
M  END
> <chiral flag>
0

> <version>
0

> <s_m_source_file>
/data/baiqing/PycharmProjects/Reinvent-master-3.2/result/LINK_invent/BTK/process_docking_weight1_custom_product_contain_oxygen_bond_distance_aromatic_linkinvent_7_9_3/rearranged_h_0193.sdf

> <i_m_source_file_index>
7

> <r_mmod_Potential_Energy-OPLS-2005>
-200.981094360352

> <r_mmod_Stretch_Energy-OPLS-2005>
36.1072387695312

> <r_mmod_Bend_Energy-OPLS-2005>
115.893333435059

> <r_mmod_Torsional_Energy-OPLS-2005>
204.846160888672

> <r_mmod_Improper_Torsional_Energy-OPLS-2005>
3.32939863204956

> <r_mmod_Van_der_Waal_Energy-OPLS-2005>
123.667701721191

> <r_mmod_Electrostatic_Energy-OPLS-2005>
-473.917602539062

> <r_mmod_Solvation_Energy-OPLS-2005>
-221.979675292969

> <b_mmod_Minimization_Converged-OPLS-2005>
0

> <r_mmod_RMS_Derivative-OPLS-2005>
1.30727827548981

$$$$
7
                    3D
 Structure written by MMmdl.
154162  0  0  1  0            999 V2000
  -30.6780  -14.4990   20.5022 C   0  0  0  0  0  0
  -30.4135  -12.2951   19.4402 C   0  0  0  0  0  0
  -29.4971  -12.4967   18.2145 C   0  0  0  0  0  0
  -28.0136  -12.3746   18.6124 C   0  0  0  0  0  0
  -27.6592  -13.2142   19.8701 C   0  0  2  0  0  0
  -28.7003  -13.0126   20.9970 C   0  0  0  0  0  0
  -25.2591  -13.8199   20.5658 C   0  0  0  0  0  0
  -24.1862  -13.0467   20.9178 C   0  0  0  0  0  0
  -24.6427  -11.6942   20.8726 C   0  0  0  0  0  0
  -23.9094  -10.4327   21.0390 C   0  0  0  0  0  0
  -24.3644   -9.4236   21.9165 C   0  0  0  0  0  0
  -23.6315   -8.2274   22.0745 C   0  0  0  0  0  0
  -22.4303   -8.0301   21.3539 C   0  0  0  0  0  0
  -21.9939   -9.0286   20.4649 C   0  0  0  0  0  0
  -22.7274  -10.2159   20.3046 C   0  0  0  0  0  0
  -21.6868   -6.0757   22.5273 C   0  0  0  0  0  0
  -21.4014   -6.5649   23.8207 C   0  0  0  0  0  0
  -21.3671   -5.6789   24.9171 C   0  0  0  0  0  0
  -21.6059   -4.3061   24.7205 C   0  0  0  0  0  0
  -21.8824   -3.8162   23.4326 C   0  0  0  0  0  0
  -21.9203   -4.6992   22.3385 C   0  0  0  0  0  0
  -22.7879  -13.5237   21.1838 C   0  0  0  0  0  0
  -22.1667   -4.2182   21.0965 F   0  0  0  0  0  0
  -21.5637   -3.4537   25.7714 F   0  0  0  0  0  0
  -30.0335  -13.3006   20.4446 N   0  0  0  0  0  0
  -26.3010  -12.9384   20.3333 N   0  0  0  0  0  0
  -25.9341  -11.6551   20.5769 N   0  0  0  0  0  0
  -22.0510  -12.8226   22.0380 N   0  0  0  0  0  0
  -25.4310  -15.1918   20.4060 N   0  0  0  0  0  0
  -31.8389  -14.6443   20.1052 O   0  0  0  0  0  0
  -21.6671   -6.8899   21.4239 O   0  0  0  0  0  0
  -22.3540  -14.5521   20.6690 O   0  0  0  0  0  0
  -24.6191  -31.8665   23.2075 C   0  0  0  0  0  0
  -25.9067  -32.4825   23.8369 C   0  0  1  0  0  0
  -27.2232  -27.4079   20.1011 C   0  0  0  0  0  0
  -25.5899  -33.8626   24.2308 N   0  0  0  0  0  0
  -23.4073  -30.4880   21.5523 C   0  0  2  0  0  0
  -24.8522  -28.9504   20.1149 C   0  0  0  0  0  0
  -22.7424  -29.4658   22.5019 C   0  0  0  0  0  0
  -18.0270  -28.1394   22.8507 C   0  0  0  0  0  0
  -24.1489  -36.7315   23.2632 C   0  0  0  0  0  0
  -25.9388  -30.8234   21.3635 C   0  0  0  0  0  0
  -26.0156  -29.4563   20.7084 C   0  0  0  0  0  0
  -27.2084  -28.6929   20.6962 C   0  0  0  0  0  0
  -26.0462  -26.9227   19.4953 C   0  0  0  0  0  0
  -24.8633  -27.6850   19.5014 C   0  0  0  0  0  0
  -23.6165  -29.8202   20.1675 C   0  0  0  0  0  0
  -25.4113  -36.3124   24.0331 C   0  0  1  0  0  0
  -20.5866  -28.3689   23.1332 C   0  0  2  0  0  0
  -20.6789  -26.9430   22.5444 C   0  0  0  0  0  0
  -19.5763  -26.6398   21.5253 C   0  0  0  0  0  0
  -18.1926  -26.7931   22.1642 C   0  0  0  0  0  0
  -19.1519  -28.8865   23.2905 C   0  0  0  0  0  0
  -18.9444  -30.1471   23.8917 C   0  0  0  0  0  0
  -17.6448  -30.6601   24.0577 C   0  0  0  0  0  0
  -25.9044  -34.9489   23.5124 C   0  0  0  0  0  0
  -16.5341  -29.9106   23.6332 C   0  0  0  0  0  0
  -16.7254  -28.6523   23.0339 C   0  0  0  0  0  0
  -26.4457  -31.6588   25.0703 C   0  0  0  0  0  0
  -25.3681  -31.3720   26.1423 C   0  0  0  0  0  0
  -27.0288  -30.3019   24.6102 C   0  0  0  0  0  0
  -27.6033  -32.4298   25.7472 C   0  0  0  0  0  0
  -27.5594  -37.1807   24.8456 C   0  0  0  0  0  0
  -21.4160  -29.3032   22.3735 N   0  0  0  0  0  0
  -26.4297  -37.3820   23.9413 N   0  0  0  0  0  0
  -24.6737  -31.0729   22.1003 N   0  0  0  0  0  0
  -23.4171  -28.8195   23.3076 O   0  0  0  0  0  0
  -28.3625  -26.6307   20.0991 O   0  0  0  0  0  0
  -26.5637  -34.8942   22.4708 O   0  0  0  0  0  0
  -23.5383  -32.1462   23.7444 O   0  0  0  0  0  0
  -29.8119  -16.7543   18.7067 C   0  0  0  0  0  0
  -29.5936  -17.9500   18.0157 C   0  0  0  0  0  0
  -29.7794  -16.7836   20.1157 C   0  0  0  0  0  0
  -29.2927  -19.0532   19.9797 C   0  0  0  0  0  0
  -28.5933  -24.1036   19.9913 C   0  0  0  0  0  0
  -28.7535  -21.5093   19.8890 C   0  0  0  0  0  0
  -28.2557  -25.3793   20.8175 C   0  0  0  0  0  0
  -28.6275  -22.7635   20.7986 C   0  0  1  0  0  0
  -29.3263  -19.0944   18.6593 N   0  0  0  0  0  0
  -29.4965  -17.9691   20.7302 N   0  0  0  0  0  0
  -29.9148  -15.5589   20.8488 N   0  0  0  0  0  0
  -28.9850  -20.2451   20.6124 N   0  0  0  0  0  0
  -29.7623  -22.7544   21.6516 O   0  0  0  0  0  0
  -31.4626  -12.3682   19.1426 H   0  0  0  0  0  0
  -30.2843  -11.2903   19.8485 H   0  0  0  0  0  0
  -29.7354  -11.7703   17.4371 H   0  0  0  0  0  0
  -29.6807  -13.4785   17.7773 H   0  0  0  0  0  0
  -27.8042  -11.3200   18.7936 H   0  0  0  0  0  0
  -27.3770  -12.6657   17.7775 H   0  0  0  0  0  0
  -27.6916  -14.2612   19.5679 H   0  0  0  0  0  0
  -28.6704  -11.9834   21.3599 H   0  0  0  0  0  0
  -28.4666  -13.6390   21.8586 H   0  0  0  0  0  0
  -25.2789   -9.5733   22.4736 H   0  0  0  0  0  0
  -24.0055   -7.4673   22.7439 H   0  0  0  0  0  0
  -21.0883   -8.8792   19.8929 H   0  0  0  0  0  0
  -22.3720  -10.9700   19.6147 H   0  0  0  0  0  0
  -21.1987   -7.6151   23.9709 H   0  0  0  0  0  0
  -21.1485   -6.0524   25.9067 H   0  0  0  0  0  0
  -22.0594   -2.7633   23.2806 H   0  0  0  0  0  0
  -22.4163  -11.9909   22.4789 H   0  0  0  0  0  0
  -21.1097  -13.1224   22.2557 H   0  0  0  0  0  0
  -24.6641  -15.8466   20.5078 H   0  0  0  0  0  0
  -26.2827  -15.6338   20.0883 H   0  0  0  0  0  0
  -26.7137  -32.5508   23.1124 H   0  0  0  0  0  0
  -24.9995  -33.9790   25.0414 H   0  0  0  0  0  0
  -22.6979  -31.3069   21.4126 H   0  0  0  0  0  0
  -23.3770  -35.9622   23.3282 H   0  0  0  0  0  0
  -24.3602  -36.8963   22.2049 H   0  0  0  0  0  0
  -23.7204  -37.6499   23.6663 H   0  0  0  0  0  0
  -26.0520  -31.5855   20.5927 H   0  0  0  0  0  0
  -26.8274  -30.8801   21.9805 H   0  0  0  0  0  0
  -28.1086  -29.0784   21.1541 H   0  0  0  0  0  0
  -26.0444  -25.9528   19.0168 H   0  0  0  0  0  0
  -23.9688  -27.2933   19.0366 H   0  0  0  0  0  0
  -23.7296  -30.5975   19.4116 H   0  0  0  0  0  0
  -22.7376  -29.2463   19.8697 H   0  0  0  0  0  0
  -25.1289  -36.1991   25.0825 H   0  0  0  0  0  0
  -20.9939  -28.3267   24.1457 H   0  0  0  0  0  0
  -20.5774  -26.2290   23.3620 H   0  0  0  0  0  0
  -21.6640  -26.7532   22.1169 H   0  0  0  0  0  0
  -19.6932  -25.6315   21.1263 H   0  0  0  0  0  0
  -19.6683  -27.3232   20.6790 H   0  0  0  0  0  0
  -17.4210  -26.6709   21.4024 H   0  0  0  0  0  0
  -18.0285  -26.0058   22.9018 H   0  0  0  0  0  0
  -19.7927  -30.7295   24.2255 H   0  0  0  0  0  0
  -17.5004  -31.6274   24.5175 H   0  0  0  0  0  0
  -15.5347  -30.3015   23.7641 H   0  0  0  0  0  0
  -15.8640  -28.0852   22.7033 H   0  0  0  0  0  0
  -24.5830  -30.7126   25.7710 H   0  0  0  0  0  0
  -24.8894  -32.2896   26.4856 H   0  0  0  0  0  0
  -25.7970  -30.8847   27.0187 H   0  0  0  0  0  0
  -26.2866  -29.6791   24.1099 H   0  0  0  0  0  0
  -27.3987  -29.7244   25.4583 H   0  0  0  0  0  0
  -27.8722  -30.4328   23.9320 H   0  0  0  0  0  0
  -27.2648  -33.3580   26.2091 H   0  0  0  0  0  0
  -28.3805  -32.6896   25.0271 H   0  0  0  0  0  0
  -28.0730  -31.8387   26.5345 H   0  0  0  0  0  0
  -28.2586  -38.0133   24.7577 H   0  0  0  0  0  0
  -28.1127  -36.2680   24.6196 H   0  0  0  0  0  0
  -27.2335  -37.1346   25.8864 H   0  0  0  0  0  0
  -20.9346  -29.8708   21.6905 H   0  0  0  0  0  0
  -26.0192  -38.2898   24.1447 H   0  0  0  0  0  0
  -29.9883  -15.8529   18.1387 H   0  0  0  0  0  0
  -29.6050  -17.9870   16.9374 H   0  0  0  0  0  0
  -29.5499  -24.2438   19.4859 H   0  0  0  0  0  0
  -27.8577  -24.0079   19.1909 H   0  0  0  0  0  0
  -29.5640  -21.6572   19.1741 H   0  0  0  0  0  0
  -27.8406  -21.4012   19.2988 H   0  0  0  0  0  0
  -28.9667  -25.4503   21.6392 H   0  0  0  0  0  0
  -27.2776  -25.2617   21.2898 H   0  0  0  0  0  0
  -27.7207  -22.6803   21.4066 H   0  0  0  0  0  0
  -29.1348  -15.3414   21.4462 H   0  0  0  0  0  0
  -29.1236  -20.2890   21.6149 H   0  0  0  0  0  0
  -29.6533  -23.4425   22.3012 H   0  0  0  0  0  0
  1 25  1  0  0  0
  1 30  2  0  0  0
  1 81  1  0  0  0
  2  3  1  0  0  0
  2 25  1  0  0  0
  2 84  1  0  0  0
  2 85  1  0  0  0
  3  4  1  0  0  0
  3 86  1  0  0  0
  3 87  1  0  0  0
  4  5  1  0  0  0
  4 88  1  0  0  0
  4 89  1  0  0  0
  5  6  1  0  0  0
  5 26  1  0  0  0
  5 90  1  0  0  0
  6 25  1  0  0  0
  6 91  1  0  0  0
  6 92  1  0  0  0
  7  8  2  0  0  0
  7 26  1  0  0  0
  7 29  1  0  0  0
  8  9  1  0  0  0
  8 22  1  0  0  0
  9 10  1  0  0  0
  9 27  2  0  0  0
 10 11  2  0  0  0
 10 15  1  0  0  0
 11 12  1  0  0  0
 11 93  1  0  0  0
 12 13  2  0  0  0
 12 94  1  0  0  0
 13 14  1  0  0  0
 13 31  1  0  0  0
 14 15  2  0  0  0
 14 95  1  0  0  0
 15 96  1  0  0  0
 16 17  2  0  0  0
 16 21  1  0  0  0
 16 31  1  0  0  0
 17 18  1  0  0  0
 17 97  1  0  0  0
 18 19  2  0  0  0
 18 98  1  0  0  0
 19 20  1  0  0  0
 19 24  1  0  0  0
 20 21  2  0  0  0
 20 99  1  0  0  0
 21 23  1  0  0  0
 22 28  1  0  0  0
 22 32  2  0  0  0
 26 27  1  0  0  0
 28100  1  0  0  0
 28101  1  0  0  0
 29102  1  0  0  0
 29103  1  0  0  0
 33 34  1  0  0  0
 33 66  1  0  0  0
 33 70  2  0  0  0
 34 36  1  0  0  0
 34 59  1  0  0  0
 34104  1  0  0  0
 35 44  2  0  0  0
 35 45  1  0  0  0
 35 68  1  0  0  0
 36 56  1  0  0  0
 36105  1  0  0  0
 37 39  1  0  0  0
 37 47  1  0  0  0
 37 66  1  0  0  0
 37106  1  0  0  0
 38 43  2  0  0  0
 38 46  1  0  0  0
 38 47  1  0  0  0
 39 64  1  0  0  0
 39 67  2  0  0  0
 40 52  1  0  0  0
 40 53  2  0  0  0
 40 58  1  0  0  0
 41107  1  0  0  0
 41108  1  0  0  0
 41109  1  0  0  0
 41 48  1  0  0  0
 42 43  1  0  0  0
 42 66  1  0  0  0
 42110  1  0  0  0
 42111  1  0  0  0
 43 44  1  0  0  0
 44112  1  0  0  0
 45 46  2  0  0  0
 45113  1  0  0  0
 46114  1  0  0  0
 47115  1  0  0  0
 47116  1  0  0  0
 48 56  1  0  0  0
 48 65  1  0  0  0
 48117  1  0  0  0
 49 50  1  0  0  0
 49 53  1  0  0  0
 49 64  1  0  0  0
 49118  1  0  0  0
 50 51  1  0  0  0
 50119  1  0  0  0
 50120  1  0  0  0
 51 52  1  0  0  0
 51121  1  0  0  0
 51122  1  0  0  0
 52123  1  0  0  0
 52124  1  0  0  0
 53 54  1  0  0  0
 54 55  2  0  0  0
 54125  1  0  0  0
 55 57  1  0  0  0
 55126  1  0  0  0
 56 69  2  0  0  0
 57 58  2  0  0  0
 57127  1  0  0  0
 58128  1  0  0  0
 59 60  1  0  0  0
 59 61  1  0  0  0
 59 62  1  0  0  0
 60129  1  0  0  0
 60130  1  0  0  0
 60131  1  0  0  0
 61132  1  0  0  0
 61133  1  0  0  0
 61134  1  0  0  0
 62135  1  0  0  0
 62136  1  0  0  0
 62137  1  0  0  0
 63 65  1  0  0  0
 63138  1  0  0  0
 63139  1  0  0  0
 63140  1  0  0  0
 64141  1  0  0  0
 65142  1  0  0  0
 68 77  1  0  0  0
 71 72  2  0  0  0
 71 73  1  0  0  0
 71143  1  0  0  0
 72 79  1  0  0  0
 72144  1  0  0  0
 73 80  2  0  0  0
 73 81  1  0  0  0
 74 79  2  0  0  0
 74 80  1  0  0  0
 74 82  1  0  0  0
 75 77  1  0  0  0
 75 78  1  0  0  0
 75145  1  0  0  0
 75146  1  0  0  0
 76 78  1  0  0  0
 76 82  1  0  0  0
 76147  1  0  0  0
 76148  1  0  0  0
 77149  1  0  0  0
 77150  1  0  0  0
 78 83  1  0  0  0
 78151  1  0  0  0
 81152  1  0  0  0
 82153  1  0  0  0
 83154  1  0  0  0
M  ISO  4   1 100  68 101  77 101  81 100
M  END
> <chiral flag>
0

> <version>
0

> <s_m_source_file>
/data/baiqing/PycharmProjects/Reinvent-master-3.2/result/LINK_invent/BTK/process_docking_weight1_custom_product_contain_oxygen_bond_distance_aromatic_linkinvent_7_9_3/rearranged_h_0193.sdf

> <i_m_source_file_index>
8

> <r_mmod_Potential_Energy-OPLS-2005>
-605.547241210938

> <r_mmod_Stretch_Energy-OPLS-2005>
40.1704444885254

> <r_mmod_Bend_Energy-OPLS-2005>
101.908241271973

> <r_mmod_Torsional_Energy-OPLS-2005>
281.668273925781

> <r_mmod_Improper_Torsional_Energy-OPLS-2005>
6.57576847076416

> <r_mmod_Van_der_Waal_Energy-OPLS-2005>
160.999893188477

> <r_mmod_Electrostatic_Energy-OPLS-2005>
-954.330078125

> <r_mmod_Solvation_Energy-OPLS-2005>
-260.998321533203

> <b_mmod_Minimization_Converged-OPLS-2005>
0

> <r_mmod_RMS_Derivative-OPLS-2005>
3.79947113990784

$$$$
8
                    3D
 Structure written by MMmdl.
165173  0  0  1  0            999 V2000
  -30.7013  -14.4512   20.6213 C   0  0  0  0  0  0
  -30.4297  -12.3109   19.4089 C   0  0  0  0  0  0
  -29.4941  -12.5207   18.2001 C   0  0  0  0  0  0
  -28.0156  -12.3769   18.6131 C   0  0  0  0  0  0
  -27.6661  -13.2011   19.8801 C   0  0  2  0  0  0
  -28.7063  -12.9471   20.9942 C   0  0  0  0  0  0
  -25.2607  -13.8148   20.5674 C   0  0  0  0  0  0
  -24.1848  -13.0437   20.9174 C   0  0  0  0  0  0
  -24.6391  -11.6900   20.8729 C   0  0  0  0  0  0
  -23.9056  -10.4291   21.0403 C   0  0  0  0  0  0
  -24.3611   -9.4209   21.9181 C   0  0  0  0  0  0
  -23.6289   -8.2246   22.0752 C   0  0  0  0  0  0
  -22.4270   -8.0282   21.3544 C   0  0  0  0  0  0
  -21.9904   -9.0250   20.4643 C   0  0  0  0  0  0
  -22.7229  -10.2131   20.3050 C   0  0  0  0  0  0
  -21.6852   -6.0737   22.5282 C   0  0  0  0  0  0
  -21.4012   -6.5640   23.8215 C   0  0  0  0  0  0
  -21.3658   -5.6791   24.9174 C   0  0  0  0  0  0
  -21.6044   -4.3055   24.7223 C   0  0  0  0  0  0
  -21.8817   -3.8148   23.4344 C   0  0  0  0  0  0
  -21.9191   -4.6966   22.3402 C   0  0  0  0  0  0
  -22.7871  -13.5243   21.1845 C   0  0  0  0  0  0
  -22.1659   -4.2153   21.0981 F   0  0  0  0  0  0
  -21.5630   -3.4540   25.7735 F   0  0  0  0  0  0
  -30.0424  -13.2700   20.4558 N   0  0  0  0  0  0
  -26.3046  -12.9306   20.3382 N   0  0  0  0  0  0
  -25.9319  -11.6471   20.5759 N   0  0  0  0  0  0
  -22.0499  -12.8235   22.0391 N   0  0  0  0  0  0
  -25.4347  -15.1866   20.4074 N   0  0  0  0  0  0
  -31.7888  -14.6863   20.0830 O   0  0  0  0  0  0
  -21.6636   -6.8879   21.4243 O   0  0  0  0  0  0
  -22.3562  -14.5559   20.6706 O   0  0  0  0  0  0
  -24.6136  -31.8693   23.2110 C   0  0  0  0  0  0
  -25.9030  -32.4829   23.8407 C   0  0  1  0  0  0
  -27.2428  -27.4421   20.1004 C   0  0  0  0  0  0
  -25.5881  -33.8624   24.2336 N   0  0  0  0  0  0
  -23.4029  -30.4914   21.5511 C   0  0  2  0  0  0
  -24.8537  -28.9550   20.1224 C   0  0  0  0  0  0
  -22.7416  -29.4659   22.4999 C   0  0  0  0  0  0
  -18.0273  -28.1387   22.8487 C   0  0  0  0  0  0
  -24.1489  -36.7316   23.2645 C   0  0  0  0  0  0
  -25.9308  -30.8349   21.3665 C   0  0  0  0  0  0
  -26.0113  -29.4649   20.7255 C   0  0  0  0  0  0
  -27.2103  -28.7145   20.7222 C   0  0  0  0  0  0
  -26.0724  -26.9510   19.4897 C   0  0  0  0  0  0
  -24.8764  -27.6924   19.5059 C   0  0  0  0  0  0
  -23.6142  -29.8211   20.1673 C   0  0  0  0  0  0
  -25.4103  -36.3110   24.0348 C   0  0  1  0  0  0
  -20.5863  -28.3661   23.1319 C   0  0  2  0  0  0
  -20.6767  -26.9397   22.5417 C   0  0  0  0  0  0
  -19.5742  -26.6388   21.5218 C   0  0  0  0  0  0
  -18.1917  -26.7929   22.1627 C   0  0  0  0  0  0
  -19.1523  -28.8841   23.2903 C   0  0  0  0  0  0
  -18.9458  -30.1449   23.8913 C   0  0  0  0  0  0
  -17.6456  -30.6586   24.0568 C   0  0  0  0  0  0
  -25.9024  -34.9477   23.5133 C   0  0  0  0  0  0
  -16.5346  -29.9087   23.6333 C   0  0  0  0  0  0
  -16.7261  -28.6513   23.0334 C   0  0  0  0  0  0
  -26.4467  -31.6598   25.0725 C   0  0  0  0  0  0
  -25.3731  -31.3696   26.1469 C   0  0  0  0  0  0
  -27.0309  -30.3046   24.6077 C   0  0  0  0  0  0
  -27.6034  -32.4329   25.7486 C   0  0  0  0  0  0
  -27.5581  -37.1809   24.8467 C   0  0  0  0  0  0
  -21.4143  -29.3035   22.3737 N   0  0  0  0  0  0
  -26.4295  -37.3784   23.9410 N   0  0  0  0  0  0
  -24.6672  -31.0796   22.1016 N   0  0  0  0  0  0
  -23.4192  -28.8200   23.3039 O   0  0  0  0  0  0
  -28.3690  -26.6591   19.9821 O   0  0  0  0  0  0
  -26.5593  -34.8928   22.4700 O   0  0  0  0  0  0
  -23.5328  -32.1443   23.7501 O   0  0  0  0  0  0
  -29.3611  -17.3630   22.4904 C   0  0  0  0  0  0
  -30.3664  -19.4220   22.1833 C   0  0  0  0  0  0
  -30.2349  -16.7477   21.5584 C   0  0  0  0  0  0
  -31.2414  -18.8273   21.2248 C   0  0  0  0  0  0
  -30.4465  -20.8166   22.6964 C   0  0  0  0  0  0
  -28.5651  -24.7958   22.8675 C   0  0  0  0  0  0
  -32.6638  -23.1857   22.5957 C   0  0  0  0  0  0
  -30.7554  -24.4484   21.5078 C   0  0  0  0  0  0
  -29.2330  -26.4918   21.1017 C   0  0  0  0  0  0
  -29.2936  -24.9888   21.5247 C   0  0  2  0  0  0
  -31.1396  -23.2259   22.3943 C   0  0  1  0  0  0
  -29.4158  -18.6797   22.8057 N   0  0  0  0  0  0
  -31.1618  -17.5085   20.9104 N   0  0  0  0  0  0
  -32.2529  -19.5183   20.5627 N   0  0  0  0  0  0
  -30.2906  -20.9849   24.0223 N   0  0  0  0  0  0
  -30.0436  -15.3458   21.3815 N   0  0  0  0  0  0
  -30.6929  -21.8955   21.9078 N   0  3  0  0  0  0
  -31.4718  -12.4246   19.1057 H   0  0  0  0  0  0
  -30.3432  -11.2906   19.7866 H   0  0  0  0  0  0
  -29.7315  -11.8054   17.4119 H   0  0  0  0  0  0
  -29.6605  -13.5112   17.7726 H   0  0  0  0  0  0
  -27.8237  -11.3187   18.7965 H   0  0  0  0  0  0
  -27.3648  -12.6647   17.7867 H   0  0  0  0  0  0
  -27.7208  -14.2546   19.6037 H   0  0  0  0  0  0
  -28.6840  -11.8990   21.2961 H   0  0  0  0  0  0
  -28.4525  -13.5020   21.8978 H   0  0  0  0  0  0
  -25.2758   -9.5688   22.4755 H   0  0  0  0  0  0
  -24.0000   -7.4638   22.7472 H   0  0  0  0  0  0
  -21.0839   -8.8765   19.8943 H   0  0  0  0  0  0
  -22.3691  -10.9669   19.6161 H   0  0  0  0  0  0
  -21.1999   -7.6146   23.9722 H   0  0  0  0  0  0
  -21.1482   -6.0519   25.9079 H   0  0  0  0  0  0
  -22.0597   -2.7611   23.2844 H   0  0  0  0  0  0
  -22.4095  -11.9884   22.4776 H   0  0  0  0  0  0
  -21.1121  -13.1275   22.2598 H   0  0  0  0  0  0
  -24.6662  -15.8415   20.5040 H   0  0  0  0  0  0
  -26.2830  -15.6213   20.0673 H   0  0  0  0  0  0
  -26.7106  -32.5555   23.1180 H   0  0  0  0  0  0
  -25.0034  -33.9791   25.0480 H   0  0  0  0  0  0
  -22.6904  -31.3067   21.4083 H   0  0  0  0  0  0
  -23.3747  -35.9653   23.3310 H   0  0  0  0  0  0
  -24.3591  -36.8920   22.2058 H   0  0  0  0  0  0
  -23.7251  -37.6529   23.6652 H   0  0  0  0  0  0
  -26.0382  -31.5941   20.5906 H   0  0  0  0  0  0
  -26.8212  -30.8966   21.9803 H   0  0  0  0  0  0
  -28.1049  -29.1211   21.1717 H   0  0  0  0  0  0
  -26.0918  -25.9883   18.9995 H   0  0  0  0  0  0
  -23.9893  -27.2914   19.0360 H   0  0  0  0  0  0
  -23.7213  -30.5947   19.4059 H   0  0  0  0  0  0
  -22.7400  -29.2386   19.8717 H   0  0  0  0  0  0
  -25.1280  -36.1982   25.0842 H   0  0  0  0  0  0
  -20.9947  -28.3220   24.1442 H   0  0  0  0  0  0
  -20.5675  -26.2262   23.3603 H   0  0  0  0  0  0
  -21.6633  -26.7439   22.1197 H   0  0  0  0  0  0
  -19.6901  -25.6305   21.1233 H   0  0  0  0  0  0
  -19.6691  -27.3216   20.6763 H   0  0  0  0  0  0
  -17.4189  -26.6682   21.4032 H   0  0  0  0  0  0
  -18.0304  -26.0070   22.9016 H   0  0  0  0  0  0
  -19.7939  -30.7265   24.2280 H   0  0  0  0  0  0
  -17.5014  -31.6266   24.5167 H   0  0  0  0  0  0
  -15.5348  -30.2990   23.7660 H   0  0  0  0  0  0
  -15.8659  -28.0851   22.7021 H   0  0  0  0  0  0
  -24.5899  -30.7047   25.7803 H   0  0  0  0  0  0
  -24.8930  -32.2855   26.4932 H   0  0  0  0  0  0
  -25.8080  -30.8856   27.0221 H   0  0  0  0  0  0
  -26.2855  -29.6802   24.1134 H   0  0  0  0  0  0
  -27.4108  -29.7277   25.4521 H   0  0  0  0  0  0
  -27.8667  -30.4388   23.9200 H   0  0  0  0  0  0
  -27.2639  -33.3618   26.2082 H   0  0  0  0  0  0
  -28.3825  -32.6915   25.0302 H   0  0  0  0  0  0
  -28.0715  -31.8446   26.5389 H   0  0  0  0  0  0
  -28.2586  -38.0116   24.7510 H   0  0  0  0  0  0
  -28.1090  -36.2646   24.6290 H   0  0  0  0  0  0
  -27.2301  -37.1447   25.8871 H   0  0  0  0  0  0
  -20.9302  -29.8768   21.6968 H   0  0  0  0  0  0
  -26.0191  -38.2866   24.1405 H   0  0  0  0  0  0
  -28.6101  -16.7846   23.0095 H   0  0  0  0  0  0
  -28.4485  -23.7407   23.1159 H   0  0  0  0  0  0
  -27.5614  -25.2210   22.8281 H   0  0  0  0  0  0
  -29.0970  -25.2827   23.6864 H   0  0  0  0  0  0
  -32.9970  -24.0135   23.2227 H   0  0  0  0  0  0
  -33.1930  -23.2583   21.6451 H   0  0  0  0  0  0
  -32.9826  -22.2649   23.0847 H   0  0  0  0  0  0
  -31.4029  -25.2647   21.8311 H   0  0  0  0  0  0
  -31.0480  -24.2579   20.4742 H   0  0  0  0  0  0
  -30.2131  -26.8493   20.7843 H   0  0  0  0  0  0
  -28.9521  -27.1178   21.9498 H   0  0  0  0  0  0
  -28.7394  -24.4050   20.7880 H   0  0  0  0  0  0
  -30.7091  -23.3862   23.3811 H   0  0  0  0  0  0
  -32.6809  -20.3134   21.0217 H   0  0  0  0  0  0
  -32.9296  -18.9547   20.0608 H   0  0  0  0  0  0
  -30.0254  -20.1681   24.5549 H   0  0  0  0  0  0
  -30.2882  -21.8767   24.4851 H   0  0  0  0  0  0
  -29.2238  -14.9690   21.8306 H   0  0  0  0  0  0
  -30.7740  -21.7215   20.9139 H   0  0  0  0  0  0
  1 25  1  0  0  0
  1 30  2  0  0  0
  1 86  1  0  0  0
  2  3  1  0  0  0
  2 25  1  0  0  0
  2 88  1  0  0  0
  2 89  1  0  0  0
  3  4  1  0  0  0
  3 90  1  0  0  0
  3 91  1  0  0  0
  4  5  1  0  0  0
  4 92  1  0  0  0
  4 93  1  0  0  0
  5  6  1  0  0  0
  5 26  1  0  0  0
  5 94  1  0  0  0
  6 25  1  0  0  0
  6 95  1  0  0  0
  6 96  1  0  0  0
  7  8  2  0  0  0
  7 26  1  0  0  0
  7 29  1  0  0  0
  8  9  1  0  0  0
  8 22  1  0  0  0
  9 10  1  0  0  0
  9 27  2  0  0  0
 10 11  2  0  0  0
 10 15  1  0  0  0
 11 12  1  0  0  0
 11 97  1  0  0  0
 12 13  2  0  0  0
 12 98  1  0  0  0
 13 14  1  0  0  0
 13 31  1  0  0  0
 14 15  2  0  0  0
 14 99  1  0  0  0
 15100  1  0  0  0
 16 17  2  0  0  0
 16 21  1  0  0  0
 16 31  1  0  0  0
 17 18  1  0  0  0
 17101  1  0  0  0
 18 19  2  0  0  0
 18102  1  0  0  0
 19 20  1  0  0  0
 19 24  1  0  0  0
 20 21  2  0  0  0
 20103  1  0  0  0
 21 23  1  0  0  0
 22 28  1  0  0  0
 22 32  2  0  0  0
 26 27  1  0  0  0
 28104  1  0  0  0
 28105  1  0  0  0
 29106  1  0  0  0
 29107  1  0  0  0
 33 34  1  0  0  0
 33 66  1  0  0  0
 33 70  2  0  0  0
 34 36  1  0  0  0
 34 59  1  0  0  0
 34108  1  0  0  0
 35 44  2  0  0  0
 35 45  1  0  0  0
 35 68  1  0  0  0
 36 56  1  0  0  0
 36109  1  0  0  0
 37 39  1  0  0  0
 37 47  1  0  0  0
 37 66  1  0  0  0
 37110  1  0  0  0
 38 43  2  0  0  0
 38 46  1  0  0  0
 38 47  1  0  0  0
 39 64  1  0  0  0
 39 67  2  0  0  0
 40 52  1  0  0  0
 40 53  2  0  0  0
 40 58  1  0  0  0
 41111  1  0  0  0
 41112  1  0  0  0
 41113  1  0  0  0
 41 48  1  0  0  0
 42 43  1  0  0  0
 42 66  1  0  0  0
 42114  1  0  0  0
 42115  1  0  0  0
 43 44  1  0  0  0
 44116  1  0  0  0
 45 46  2  0  0  0
 45117  1  0  0  0
 46118  1  0  0  0
 47119  1  0  0  0
 47120  1  0  0  0
 48 56  1  0  0  0
 48 65  1  0  0  0
 48121  1  0  0  0
 49 50  1  0  0  0
 49 53  1  0  0  0
 49 64  1  0  0  0
 49122  1  0  0  0
 50 51  1  0  0  0
 50123  1  0  0  0
 50124  1  0  0  0
 51 52  1  0  0  0
 51125  1  0  0  0
 51126  1  0  0  0
 52127  1  0  0  0
 52128  1  0  0  0
 53 54  1  0  0  0
 54 55  2  0  0  0
 54129  1  0  0  0
 55 57  1  0  0  0
 55130  1  0  0  0
 56 69  2  0  0  0
 57 58  2  0  0  0
 57131  1  0  0  0
 58132  1  0  0  0
 59 60  1  0  0  0
 59 61  1  0  0  0
 59 62  1  0  0  0
 60133  1  0  0  0
 60134  1  0  0  0
 60135  1  0  0  0
 61136  1  0  0  0
 61137  1  0  0  0
 61138  1  0  0  0
 62139  1  0  0  0
 62140  1  0  0  0
 62141  1  0  0  0
 63 65  1  0  0  0
 63142  1  0  0  0
 63143  1  0  0  0
 63144  1  0  0  0
 64145  1  0  0  0
 65146  1  0  0  0
 68 79  1  0  0  0
 71 73  2  0  0  0
 71 82  1  0  0  0
 71147  1  0  0  0
 72 74  1  0  0  0
 72 75  1  0  0  0
 72 82  2  0  0  0
 73 83  1  0  0  0
 73 86  1  0  0  0
 74 83  2  0  0  0
 74 84  1  0  0  0
 75 85  1  0  0  0
 75 87  2  0  0  0
 76148  1  0  0  0
 76149  1  0  0  0
 76150  1  0  0  0
 76 80  1  0  0  0
 77151  1  0  0  0
 77152  1  0  0  0
 77153  1  0  0  0
 77 81  1  0  0  0
 78 80  1  0  0  0
 78 81  1  0  0  0
 78154  1  0  0  0
 78155  1  0  0  0
 79 80  1  0  0  0
 79156  1  0  0  0
 79157  1  0  0  0
 80158  1  0  0  0
 81 87  1  0  0  0
 81159  1  0  0  0
 84160  1  0  0  0
 84161  1  0  0  0
 85162  1  0  0  0
 85163  1  0  0  0
 86164  1  0  0  0
 87165  1  0  0  0
M  CHG  1  87   1
M  ISO  4   1 100  68 101  79 101  86 100
M  END
> <chiral flag>
0

> <version>
0

> <s_m_source_file>
/data/baiqing/PycharmProjects/Reinvent-master-3.2/result/LINK_invent/BTK/process_docking_weight1_custom_product_contain_oxygen_bond_distance_aromatic_linkinvent_7_9_3/rearranged_h_0193.sdf

> <i_m_source_file_index>
9

> <r_mmod_Potential_Energy-OPLS-2005>
-37.7498474121094

> <r_mmod_Stretch_Energy-OPLS-2005>
43.1090354919434

> <r_mmod_Bend_Energy-OPLS-2005>
129.70588684082

> <r_mmod_Torsional_Energy-OPLS-2005>
251.539627075195

> <r_mmod_Improper_Torsional_Energy-OPLS-2005>
6.92982006072998

> <r_mmod_Van_der_Waal_Energy-OPLS-2005>
162.285781860352

> <r_mmod_Electrostatic_Energy-OPLS-2005>
-173.390975952148

> <r_mmod_Solvation_Energy-OPLS-2005>
-467.540710449219

> <b_mmod_Minimization_Converged-OPLS-2005>
0

> <r_mmod_RMS_Derivative-OPLS-2005>
1.07284724712372

$$$$
9
                    3D
 Structure written by MMmdl.
163171  0  0  1  0            999 V2000
  -30.6734  -14.5437   20.5611 C   0  0  0  0  0  0
  -30.4286  -12.3576   19.4178 C   0  0  0  0  0  0
  -29.4914  -12.5029   18.2003 C   0  0  0  0  0  0
  -28.0152  -12.3550   18.6200 C   0  0  0  0  0  0
  -27.6542  -13.2115   19.8632 C   0  0  2  0  0  0
  -28.6992  -13.0279   20.9850 C   0  0  0  0  0  0
  -25.2556  -13.8175   20.5662 C   0  0  0  0  0  0
  -24.1830  -13.0454   20.9191 C   0  0  0  0  0  0
  -24.6388  -11.6907   20.8740 C   0  0  0  0  0  0
  -23.9060  -10.4300   21.0412 C   0  0  0  0  0  0
  -24.3615   -9.4212   21.9191 C   0  0  0  0  0  0
  -23.6294   -8.2246   22.0757 C   0  0  0  0  0  0
  -22.4284   -8.0283   21.3545 C   0  0  0  0  0  0
  -21.9910   -9.0256   20.4650 C   0  0  0  0  0  0
  -22.7228  -10.2137   20.3059 C   0  0  0  0  0  0
  -21.6854   -6.0739   22.5284 C   0  0  0  0  0  0
  -21.4007   -6.5642   23.8216 C   0  0  0  0  0  0
  -21.3662   -5.6793   24.9180 C   0  0  0  0  0  0
  -21.6037   -4.3057   24.7224 C   0  0  0  0  0  0
  -21.8825   -3.8149   23.4350 C   0  0  0  0  0  0
  -21.9192   -4.6968   22.3400 C   0  0  0  0  0  0
  -22.7859  -13.5236   21.1858 C   0  0  0  0  0  0
  -22.1665   -4.2155   21.0981 F   0  0  0  0  0  0
  -21.5630   -3.4535   25.7739 F   0  0  0  0  0  0
  -30.0189  -13.3549   20.4218 N   0  0  0  0  0  0
  -26.2993  -12.9343   20.3315 N   0  0  0  0  0  0
  -25.9308  -11.6512   20.5755 N   0  0  0  0  0  0
  -22.0484  -12.8239   22.0414 N   0  0  0  0  0  0
  -25.4264  -15.1885   20.4034 N   0  0  0  0  0  0
  -31.8183  -14.7220   20.1354 O   0  0  0  0  0  0
  -21.6644   -6.8883   21.4250 O   0  0  0  0  0  0
  -22.3557  -14.5559   20.6720 O   0  0  0  0  0  0
  -24.6212  -31.8682   23.2080 C   0  0  0  0  0  0
  -25.9074  -32.4829   23.8371 C   0  0  1  0  0  0
  -27.2045  -27.3586   20.0663 C   0  0  0  0  0  0
  -25.5897  -33.8617   24.2299 N   0  0  0  0  0  0
  -23.4092  -30.4996   21.5533 C   0  0  2  0  0  0
  -24.8464  -28.9703   20.1121 C   0  0  0  0  0  0
  -22.7426  -29.4668   22.4937 C   0  0  0  0  0  0
  -18.0274  -28.1381   22.8490 C   0  0  0  0  0  0
  -24.1488  -36.7339   23.2638 C   0  0  0  0  0  0
  -25.9523  -30.8034   21.3805 C   0  0  0  0  0  0
  -26.0186  -29.4372   20.7161 C   0  0  0  0  0  0
  -27.1965  -28.6378   20.6966 C   0  0  0  0  0  0
  -25.9935  -26.9405   19.4547 C   0  0  0  0  0  0
  -24.8325  -27.7223   19.4836 C   0  0  0  0  0  0
  -23.6202  -29.8529   20.1625 C   0  0  0  0  0  0
  -25.4102  -36.3097   24.0318 C   0  0  1  0  0  0
  -20.5876  -28.3676   23.1310 C   0  0  2  0  0  0
  -20.6772  -26.9409   22.5416 C   0  0  0  0  0  0
  -19.5741  -26.6388   21.5218 C   0  0  0  0  0  0
  -18.1919  -26.7925   22.1632 C   0  0  0  0  0  0
  -19.1529  -28.8835   23.2905 C   0  0  0  0  0  0
  -18.9446  -30.1435   23.8915 C   0  0  0  0  0  0
  -17.6448  -30.6585   24.0569 C   0  0  0  0  0  0
  -25.9023  -34.9472   23.5103 C   0  0  0  0  0  0
  -16.5332  -29.9083   23.6337 C   0  0  0  0  0  0
  -16.7259  -28.6505   23.0340 C   0  0  0  0  0  0
  -26.4462  -31.6605   25.0708 C   0  0  0  0  0  0
  -25.3698  -31.3721   26.1427 C   0  0  0  0  0  0
  -27.0297  -30.3039   24.6137 C   0  0  0  0  0  0
  -27.6041  -32.4329   25.7455 C   0  0  0  0  0  0
  -27.5586  -37.1802   24.8440 C   0  0  0  0  0  0
  -21.4145  -29.3057   22.3705 N   0  0  0  0  0  0
  -26.4281  -37.3784   23.9407 N   0  0  0  0  0  0
  -24.6799  -31.0719   22.1038 N   0  0  0  0  0  0
  -23.4190  -28.8169   23.2956 O   0  0  0  0  0  0
  -28.3607  -26.5670   20.0774 O   0  0  0  0  0  0
  -26.5589  -34.8933   22.4668 O   0  0  0  0  0  0
  -23.5380  -32.1449   23.7444 O   0  0  0  0  0  0
  -29.9600  -18.0351   20.4020 C   0  0  0  0  0  0
  -29.3991  -18.6514   18.3674 C   0  0  0  0  0  0
  -29.5432  -20.1899   19.9379 C   0  0  0  0  0  0
  -28.3462  -26.4015   17.0417 C   0  0  0  0  0  0
  -27.2419  -22.3241   19.4747 C   0  0  0  0  0  0
  -30.4180  -16.9325   21.3759 C   0  0  0  0  0  0
  -29.1207  -25.5052   18.0212 C   0  0  0  0  0  0
  -29.0304  -24.0725   20.1769 C   0  0  0  0  0  0
  -28.7560  -22.6173   19.6009 C   0  0  1  0  0  0
  -28.4061  -25.2790   19.3721 C   0  0  1  0  0  0
  -29.7023  -17.6436   19.1571 N   0  0  0  0  0  0
  -29.8905  -19.2968   20.8644 N   0  0  0  0  0  0
  -29.3056  -19.9338   18.6594 N   0  0  0  0  0  0
  -29.1187  -18.3102   17.0813 N   0  0  0  0  0  0
  -29.4132  -21.5214   20.3579 N   0  0  0  0  0  0
  -29.9555  -15.5530   21.0939 N   0  0  0  0  0  0
  -31.4674  -12.4834   19.1067 H   0  0  0  0  0  0
  -30.3629  -11.3526   19.8371 H   0  0  0  0  0  0
  -29.7371  -11.7537   17.4458 H   0  0  0  0  0  0
  -29.6456  -13.4742   17.7276 H   0  0  0  0  0  0
  -27.8369  -11.3003   18.8334 H   0  0  0  0  0  0
  -27.3602  -12.6107   17.7860 H   0  0  0  0  0  0
  -27.6860  -14.2536   19.5432 H   0  0  0  0  0  0
  -28.6973  -11.9991   21.3479 H   0  0  0  0  0  0
  -28.4506  -13.6441   21.8497 H   0  0  0  0  0  0
  -25.2761   -9.5696   22.4763 H   0  0  0  0  0  0
  -24.0006   -7.4643   22.7472 H   0  0  0  0  0  0
  -21.0843   -8.8775   19.8951 H   0  0  0  0  0  0
  -22.3688  -10.9685   19.6170 H   0  0  0  0  0  0
  -21.2000   -7.6149   23.9723 H   0  0  0  0  0  0
  -21.1474   -6.0521   25.9083 H   0  0  0  0  0  0
  -22.0599   -2.7612   23.2845 H   0  0  0  0  0  0
  -22.4087  -11.9883   22.4786 H   0  0  0  0  0  0
  -21.1110  -13.1297   22.2625 H   0  0  0  0  0  0
  -24.6509  -15.8363   20.4909 H   0  0  0  0  0  0
  -26.2618  -15.6224   20.0339 H   0  0  0  0  0  0
  -26.7118  -32.5525   23.1096 H   0  0  0  0  0  0
  -24.9998  -33.9771   25.0408 H   0  0  0  0  0  0
  -22.7007  -31.3200   21.4231 H   0  0  0  0  0  0
  -23.3722  -35.9699   23.3270 H   0  0  0  0  0  0
  -24.3597  -36.9002   22.2066 H   0  0  0  0  0  0
  -23.7274  -37.6546   23.6675 H   0  0  0  0  0  0
  -26.0887  -31.5732   20.6189 H   0  0  0  0  0  0
  -26.8327  -30.8415   22.0092 H   0  0  0  0  0  0
  -28.0970  -28.9924   21.1781 H   0  0  0  0  0  0
  -25.8589  -26.0130   18.9285 H   0  0  0  0  0  0
  -23.9325  -27.3627   19.0058 H   0  0  0  0  0  0
  -23.7461  -30.6421   19.4193 H   0  0  0  0  0  0
  -22.7370  -29.2961   19.8479 H   0  0  0  0  0  0
  -25.1283  -36.1945   25.0805 H   0  0  0  0  0  0
  -20.9977  -28.3243   24.1421 H   0  0  0  0  0  0
  -20.5711  -26.2256   23.3591 H   0  0  0  0  0  0
  -21.6638  -26.7464   22.1186 H   0  0  0  0  0  0
  -19.6908  -25.6300   21.1233 H   0  0  0  0  0  0
  -19.6702  -27.3212   20.6755 H   0  0  0  0  0  0
  -17.4195  -26.6656   21.4026 H   0  0  0  0  0  0
  -18.0324  -26.0069   22.9032 H   0  0  0  0  0  0
  -19.7911  -30.7246   24.2314 H   0  0  0  0  0  0
  -17.4993  -31.6276   24.5143 H   0  0  0  0  0  0
  -15.5325  -30.2982   23.7669 H   0  0  0  0  0  0
  -15.8649  -28.0842   22.7032 H   0  0  0  0  0  0
  -24.5877  -30.7068   25.7735 H   0  0  0  0  0  0
  -24.8851  -32.2863   26.4857 H   0  0  0  0  0  0
  -25.8009  -30.8888   27.0197 H   0  0  0  0  0  0
  -26.2841  -29.6783   24.1201 H   0  0  0  0  0  0
  -27.4048  -29.7315   25.4632 H   0  0  0  0  0  0
  -27.8692  -30.4346   23.9306 H   0  0  0  0  0  0
  -27.2677  -33.3656   26.1996 H   0  0  0  0  0  0
  -28.3831  -32.6845   25.0241 H   0  0  0  0  0  0
  -28.0683  -31.8454   26.5385 H   0  0  0  0  0  0
  -28.2542  -38.0162   24.7553 H   0  0  0  0  0  0
  -28.1140  -36.2688   24.6158 H   0  0  0  0  0  0
  -27.2307  -37.1333   25.8843 H   0  0  0  0  0  0
  -20.9252  -29.8855   21.7028 H   0  0  0  0  0  0
  -26.0161  -38.2854   24.1424 H   0  0  0  0  0  0
  -27.3434  -26.0164   16.8602 H   0  0  0  0  0  0
  -28.8545  -26.4609   16.0790 H   0  0  0  0  0  0
  -28.2475  -27.4169   17.4229 H   0  0  0  0  0  0
  -26.7504  -22.9756   18.7521 H   0  0  0  0  0  0
  -26.7343  -22.4300   20.4345 H   0  0  0  0  0  0
  -27.0514  -21.3110   19.1223 H   0  0  0  0  0  0
  -30.0731  -17.1922   22.3757 H   0  0  0  0  0  0
  -31.5059  -16.9593   21.4271 H   0  0  0  0  0  0
  -30.1129  -25.9195   18.1995 H   0  0  0  0  0  0
  -29.2790  -24.5474   17.5274 H   0  0  0  0  0  0
  -30.1070  -24.2283   20.2516 H   0  0  0  0  0  0
  -28.6502  -24.1146   21.1980 H   0  0  0  0  0  0
  -29.1819  -22.5807   18.5974 H   0  0  0  0  0  0
  -27.4188  -24.9162   19.1567 H   0  0  0  0  0  0
  -29.3950  -17.3895   16.7658 H   0  0  0  0  0  0
  -29.0840  -19.0446   16.3878 H   0  0  0  0  0  0
  -29.5732  -21.6715   21.3477 H   0  0  0  0  0  0
  -28.9941  -15.3622   21.3211 H   0  0  0  0  0  0
  1 25  1  0  0  0
  1 30  2  0  0  0
  1 86  1  0  0  0
  2  3  1  0  0  0
  2 25  1  0  0  0
  2 87  1  0  0  0
  2 88  1  0  0  0
  3  4  1  0  0  0
  3 89  1  0  0  0
  3 90  1  0  0  0
  4  5  1  0  0  0
  4 91  1  0  0  0
  4 92  1  0  0  0
  5  6  1  0  0  0
  5 26  1  0  0  0
  5 93  1  0  0  0
  6 25  1  0  0  0
  6 94  1  0  0  0
  6 95  1  0  0  0
  7  8  2  0  0  0
  7 26  1  0  0  0
  7 29  1  0  0  0
  8  9  1  0  0  0
  8 22  1  0  0  0
  9 10  1  0  0  0
  9 27  2  0  0  0
 10 11  2  0  0  0
 10 15  1  0  0  0
 11 12  1  0  0  0
 11 96  1  0  0  0
 12 13  2  0  0  0
 12 97  1  0  0  0
 13 14  1  0  0  0
 13 31  1  0  0  0
 14 15  2  0  0  0
 14 98  1  0  0  0
 15 99  1  0  0  0
 16 17  2  0  0  0
 16 21  1  0  0  0
 16 31  1  0  0  0
 17 18  1  0  0  0
 17100  1  0  0  0
 18 19  2  0  0  0
 18101  1  0  0  0
 19 20  1  0  0  0
 19 24  1  0  0  0
 20 21  2  0  0  0
 20102  1  0  0  0
 21 23  1  0  0  0
 22 28  1  0  0  0
 22 32  2  0  0  0
 26 27  1  0  0  0
 28103  1  0  0  0
 28104  1  0  0  0
 29105  1  0  0  0
 29106  1  0  0  0
 33 34  1  0  0  0
 33 66  1  0  0  0
 33 70  2  0  0  0
 34 36  1  0  0  0
 34 59  1  0  0  0
 34107  1  0  0  0
 35 44  2  0  0  0
 35 45  1  0  0  0
 35 68  1  0  0  0
 36 56  1  0  0  0
 36108  1  0  0  0
 37 39  1  0  0  0
 37 47  1  0  0  0
 37 66  1  0  0  0
 37109  1  0  0  0
 38 43  2  0  0  0
 38 46  1  0  0  0
 38 47  1  0  0  0
 39 64  1  0  0  0
 39 67  2  0  0  0
 40 52  1  0  0  0
 40 53  2  0  0  0
 40 58  1  0  0  0
 41110  1  0  0  0
 41111  1  0  0  0
 41112  1  0  0  0
 41 48  1  0  0  0
 42 43  1  0  0  0
 42 66  1  0  0  0
 42113  1  0  0  0
 42114  1  0  0  0
 43 44  1  0  0  0
 44115  1  0  0  0
 45 46  2  0  0  0
 45116  1  0  0  0
 46117  1  0  0  0
 47118  1  0  0  0
 47119  1  0  0  0
 48 56  1  0  0  0
 48 65  1  0  0  0
 48120  1  0  0  0
 49 50  1  0  0  0
 49 53  1  0  0  0
 49 64  1  0  0  0
 49121  1  0  0  0
 50 51  1  0  0  0
 50122  1  0  0  0
 50123  1  0  0  0
 51 52  1  0  0  0
 51124  1  0  0  0
 51125  1  0  0  0
 52126  1  0  0  0
 52127  1  0  0  0
 53 54  1  0  0  0
 54 55  2  0  0  0
 54128  1  0  0  0
 55 57  1  0  0  0
 55129  1  0  0  0
 56 69  2  0  0  0
 57 58  2  0  0  0
 57130  1  0  0  0
 58131  1  0  0  0
 59 60  1  0  0  0
 59 61  1  0  0  0
 59 62  1  0  0  0
 60132  1  0  0  0
 60133  1  0  0  0
 60134  1  0  0  0
 61135  1  0  0  0
 61136  1  0  0  0
 61137  1  0  0  0
 62138  1  0  0  0
 62139  1  0  0  0
 62140  1  0  0  0
 63 65  1  0  0  0
 63141  1  0  0  0
 63142  1  0  0  0
 63143  1  0  0  0
 64144  1  0  0  0
 65145  1  0  0  0
 68 80  1  0  0  0
 71 76  1  0  0  0
 71 81  1  0  0  0
 71 82  2  0  0  0
 72 81  2  0  0  0
 72 83  1  0  0  0
 72 84  1  0  0  0
 73 82  1  0  0  0
 73 83  2  0  0  0
 73 85  1  0  0  0
 74 77  1  0  0  0
 74146  1  0  0  0
 74147  1  0  0  0
 74148  1  0  0  0
 75149  1  0  0  0
 75150  1  0  0  0
 75151  1  0  0  0
 75 79  1  0  0  0
 76 86  1  0  0  0
 76152  1  0  0  0
 76153  1  0  0  0
 77154  1  0  0  0
 77155  1  0  0  0
 77 80  1  0  0  0
 78 79  1  0  0  0
 78 80  1  0  0  0
 78156  1  0  0  0
 78157  1  0  0  0
 79 85  1  0  0  0
 79158  1  0  0  0
 80159  1  0  0  0
 84160  1  0  0  0
 84161  1  0  0  0
 85162  1  0  0  0
 86163  1  0  0  0
M  ISO  4   1 100  68 101  80 101  86 100
M  END
> <chiral flag>
0

> <version>
0

> <s_m_source_file>
/data/baiqing/PycharmProjects/Reinvent-master-3.2/result/LINK_invent/BTK/process_docking_weight1_custom_product_contain_oxygen_bond_distance_aromatic_linkinvent_7_9_3/rearranged_h_0193.sdf

> <i_m_source_file_index>
10

> <r_mmod_Potential_Energy-OPLS-2005>
-1097.55981445312

> <r_mmod_Stretch_Energy-OPLS-2005>
55.3813705444336

> <r_mmod_Bend_Energy-OPLS-2005>
127.902030944824

> <r_mmod_Torsional_Energy-OPLS-2005>
186.847274780273

> <r_mmod_Improper_Torsional_Energy-OPLS-2005>
5.44684076309204

> <r_mmod_Van_der_Waal_Energy-OPLS-2005>
182.201126098633

> <r_mmod_Electrostatic_Energy-OPLS-2005>
-1442.4697265625

> <r_mmod_Solvation_Energy-OPLS-2005>
-240.858093261719

> <b_mmod_Minimization_Converged-OPLS-2005>
0

> <r_mmod_RMS_Derivative-OPLS-2005>
3.3849573135376

$$$$
10
                    3D
 Structure written by MMmdl.
166174  0  0  1  0            999 V2000
  -30.6295  -14.5710   20.5654 C   0  0  0  0  0  0
  -30.4507  -12.3605   19.4306 C   0  0  0  0  0  0
  -29.5102  -12.5118   18.2127 C   0  0  0  0  0  0
  -28.0328  -12.3488   18.6271 C   0  0  0  0  0  0
  -27.6653  -13.1985   19.8715 C   0  0  2  0  0  0
  -28.7080  -12.9843   20.9940 C   0  0  0  0  0  0
  -25.2573  -13.8086   20.5486 C   0  0  0  0  0  0
  -24.1862  -13.0401   20.9155 C   0  0  0  0  0  0
  -24.6424  -11.6870   20.8757 C   0  0  0  0  0  0
  -23.9084  -10.4268   21.0413 C   0  0  0  0  0  0
  -24.3627   -9.4195   21.9191 C   0  0  0  0  0  0
  -23.6287   -8.2241   22.0773 C   0  0  0  0  0  0
  -22.4269   -8.0277   21.3564 C   0  0  0  0  0  0
  -21.9922   -9.0249   20.4656 C   0  0  0  0  0  0
  -22.7264  -10.2115   20.3051 C   0  0  0  0  0  0
  -21.6845   -6.0733   22.5280 C   0  0  0  0  0  0
  -21.4004   -6.5643   23.8217 C   0  0  0  0  0  0
  -21.3651   -5.6794   24.9182 C   0  0  0  0  0  0
  -21.6043   -4.3056   24.7230 C   0  0  0  0  0  0
  -21.8822   -3.8146   23.4349 C   0  0  0  0  0  0
  -21.9193   -4.6959   22.3405 C   0  0  0  0  0  0
  -22.7891  -13.5219   21.1799 C   0  0  0  0  0  0
  -22.1663   -4.2155   21.0976 F   0  0  0  0  0  0
  -21.5628   -3.4533   25.7740 F   0  0  0  0  0  0
  -30.0351  -13.3424   20.4515 N   0  0  0  0  0  0
  -26.3045  -12.9267   20.3299 N   0  0  0  0  0  0
  -25.9361  -11.6455   20.5822 N   0  0  0  0  0  0
  -22.0528  -12.8224   22.0351 N   0  0  0  0  0  0
  -25.4169  -15.1746   20.3536 N   0  0  0  0  0  0
  -31.7432  -14.8092   20.0814 O   0  0  0  0  0  0
  -21.6633   -6.8876   21.4238 O   0  0  0  0  0  0
  -22.3592  -14.5530   20.6641 O   0  0  0  0  0  0
  -24.6154  -31.8609   23.2038 C   0  0  0  0  0  0
  -25.9036  -32.4764   23.8329 C   0  0  1  0  0  0
  -27.2459  -27.3966   20.1150 C   0  0  0  0  0  0
  -25.5901  -33.8557   24.2263 N   0  0  0  0  0  0
  -23.4076  -30.4849   21.5415 C   0  0  2  0  0  0
  -24.8581  -28.9380   20.1162 C   0  0  0  0  0  0
  -22.7437  -29.4623   22.4932 C   0  0  0  0  0  0
  -18.0273  -28.1377   22.8490 C   0  0  0  0  0  0
  -24.1494  -36.7297   23.2641 C   0  0  0  0  0  0
  -25.9358  -30.8163   21.3607 C   0  0  0  0  0  0
  -26.0182  -29.4473   20.7105 C   0  0  0  0  0  0
  -27.2143  -28.6882   20.6993 C   0  0  0  0  0  0
  -26.0673  -26.9032   19.5186 C   0  0  0  0  0  0
  -24.8797  -27.6655   19.5150 C   0  0  0  0  0  0
  -23.6195  -29.8081   20.1605 C   0  0  0  0  0  0
  -25.4109  -36.3058   24.0342 C   0  0  1  0  0  0
  -20.5859  -28.3640   23.1284 C   0  0  2  0  0  0
  -20.6740  -26.9373   22.5376 C   0  0  0  0  0  0
  -19.5729  -26.6376   21.5172 C   0  0  0  0  0  0
  -18.1911  -26.7914   22.1610 C   0  0  0  0  0  0
  -19.1522  -28.8827   23.2888 C   0  0  0  0  0  0
  -18.9476  -30.1456   23.8869 C   0  0  0  0  0  0
  -17.6473  -30.6573   24.0592 C   0  0  0  0  0  0
  -25.9037  -34.9450   23.5096 C   0  0  0  0  0  0
  -16.5355  -29.9092   23.6351 C   0  0  0  0  0  0
  -16.7258  -28.6523   23.0323 C   0  0  0  0  0  0
  -26.4463  -31.6559   25.0678 C   0  0  0  0  0  0
  -25.3758  -31.3706   26.1462 C   0  0  0  0  0  0
  -27.0297  -30.3002   24.6058 C   0  0  0  0  0  0
  -27.5994  -32.4328   25.7464 C   0  0  0  0  0  0
  -27.5572  -37.1793   24.8467 C   0  0  0  0  0  0
  -21.4143  -29.3033   22.3705 N   0  0  0  0  0  0
  -26.4282  -37.3769   23.9432 N   0  0  0  0  0  0
  -24.6711  -31.0702   22.0940 N   0  0  0  0  0  0
  -23.4205  -28.8154   23.2950 O   0  0  0  0  0  0
  -28.4110  -26.6483   20.0799 O   0  0  0  0  0  0
  -26.5595  -34.8931   22.4648 O   0  0  0  0  0  0
  -23.5331  -32.1335   23.7439 O   0  0  0  0  0  0
  -28.6775  -18.8255   21.6262 C   0  0  0  0  0  0
  -28.5573  -17.4760   21.8343 C   0  0  0  0  0  0
  -29.6882  -16.9186   21.1576 C   0  0  0  0  0  0
  -26.1379  -17.5130   22.5644 C   0  0  0  0  0  0
  -27.9212  -16.5461   24.0781 C   0  0  0  0  0  0
  -29.7530  -21.5709   18.3729 C   0  0  0  0  0  0
  -29.4025  -22.8995   20.5628 C   0  0  0  0  0  0
  -30.3703  -20.4033   20.5580 C   0  0  0  0  0  0
  -28.4094  -25.3653   20.7615 C   0  0  0  0  0  0
  -27.4797  -16.7614   22.6241 C   0  0  0  0  0  0
  -29.4144  -21.4678   19.8746 C   0  0  2  0  0  0
  -28.6262  -24.0870   19.8664 C   0  0  2  0  0  0
  -30.4391  -17.8752   20.5814 N   0  0  0  0  0  0
  -29.7986  -19.0659   20.8644 N   0  0  0  0  0  0
  -29.8645  -15.4863   21.2130 N   0  0  0  0  0  0
  -27.3478  -23.6052   19.4933 O   0  0  0  0  0  0
  -31.4897  -12.4989   19.1241 H   0  0  0  0  0  0
  -30.3963  -11.3469   19.8346 H   0  0  0  0  0  0
  -29.7674  -11.7805   17.4440 H   0  0  0  0  0  0
  -29.6560  -13.4921   17.7562 H   0  0  0  0  0  0
  -27.8624  -11.2930   18.8424 H   0  0  0  0  0  0
  -27.3788  -12.5960   17.7916 H   0  0  0  0  0  0
  -27.7067  -14.2431   19.5636 H   0  0  0  0  0  0
  -28.7131  -11.9415   21.3156 H   0  0  0  0  0  0
  -28.4430  -13.5481   21.8894 H   0  0  0  0  0  0
  -25.2774   -9.5656   22.4779 H   0  0  0  0  0  0
  -23.9983   -7.4625   22.7497 H   0  0  0  0  0  0
  -21.0872   -8.8762   19.8955 H   0  0  0  0  0  0
  -22.3739  -10.9646   19.6153 H   0  0  0  0  0  0
  -21.1991   -7.6155   23.9727 H   0  0  0  0  0  0
  -21.1466   -6.0524   25.9093 H   0  0  0  0  0  0
  -22.0607   -2.7606   23.2844 H   0  0  0  0  0  0
  -22.4116  -11.9862   22.4716 H   0  0  0  0  0  0
  -21.1140  -13.1259   22.2527 H   0  0  0  0  0  0
  -24.6338  -15.8131   20.4335 H   0  0  0  0  0  0
  -26.2471  -15.6114   19.9731 H   0  0  0  0  0  0
  -26.7081  -32.5494   23.1073 H   0  0  0  0  0  0
  -25.0139  -33.9699   25.0453 H   0  0  0  0  0  0
  -22.6970  -31.3009   21.3907 H   0  0  0  0  0  0
  -23.3760  -35.9622   23.3287 H   0  0  0  0  0  0
  -24.3610  -36.8912   22.2051 H   0  0  0  0  0  0
  -23.7231  -37.6506   23.6664 H   0  0  0  0  0  0
  -26.0467  -31.5791   20.5881 H   0  0  0  0  0  0
  -26.8217  -30.8685   21.9802 H   0  0  0  0  0  0
  -28.1124  -29.0858   21.1515 H   0  0  0  0  0  0
  -26.0707  -25.9266   19.0555 H   0  0  0  0  0  0
  -23.9923  -27.2616   19.0519 H   0  0  0  0  0  0
  -23.7294  -30.5785   19.3951 H   0  0  0  0  0  0
  -22.7427  -29.2256   19.8673 H   0  0  0  0  0  0
  -25.1262  -36.1880   25.0829 H   0  0  0  0  0  0
  -20.9970  -28.3171   24.1397 H   0  0  0  0  0  0
  -20.5585  -26.2244   23.3560 H   0  0  0  0  0  0
  -21.6615  -26.7370   22.1187 H   0  0  0  0  0  0
  -19.6923  -25.6315   21.1151 H   0  0  0  0  0  0
  -19.6701  -27.3236   20.6754 H   0  0  0  0  0  0
  -17.4187  -26.6679   21.4008 H   0  0  0  0  0  0
  -18.0354  -26.0023   22.8973 H   0  0  0  0  0  0
  -19.7965  -30.7290   24.2164 H   0  0  0  0  0  0
  -17.5052  -31.6246   24.5222 H   0  0  0  0  0  0
  -15.5365  -30.2983   23.7738 H   0  0  0  0  0  0
  -15.8655  -28.0892   22.6954 H   0  0  0  0  0  0
  -24.5943  -30.6989   25.7900 H   0  0  0  0  0  0
  -24.8947  -32.2876   26.4883 H   0  0  0  0  0  0
  -25.8145  -30.8968   27.0243 H   0  0  0  0  0  0
  -26.2842  -29.6774   24.1096 H   0  0  0  0  0  0
  -27.4061  -29.7204   25.4493 H   0  0  0  0  0  0
  -27.8677  -30.4340   23.9208 H   0  0  0  0  0  0
  -27.2556  -33.3645   26.1988 H   0  0  0  0  0  0
  -28.3852  -32.6855   25.0329 H   0  0  0  0  0  0
  -28.0609  -31.8485   26.5442 H   0  0  0  0  0  0
  -28.2535  -38.0140   24.7526 H   0  0  0  0  0  0
  -28.1093  -36.2650   24.6224 H   0  0  0  0  0  0
  -27.2306  -37.1352   25.8877 H   0  0  0  0  0  0
  -20.9273  -29.8814   21.7002 H   0  0  0  0  0  0
  -26.0140  -38.2825   24.1474 H   0  0  0  0  0  0
  -28.0618  -19.6406   21.9813 H   0  0  0  0  0  0
  -25.8302  -17.6870   21.5322 H   0  0  0  0  0  0
  -26.1911  -18.4809   23.0633 H   0  0  0  0  0  0
  -25.3468  -16.9363   23.0450 H   0  0  0  0  0  0
  -28.8187  -15.9292   24.1373 H   0  0  0  0  0  0
  -27.1431  -16.0434   24.6536 H   0  0  0  0  0  0
  -28.1367  -17.4945   24.5727 H   0  0  0  0  0  0
  -29.0872  -22.2478   17.8398 H   0  0  0  0  0  0
  -29.6651  -20.5990   17.8859 H   0  0  0  0  0  0
  -30.7704  -21.9340   18.2184 H   0  0  0  0  0  0
  -30.4342  -23.2250   20.7072 H   0  0  0  0  0  0
  -29.0032  -22.7887   21.5720 H   0  0  0  0  0  0
  -30.7197  -20.8067   21.5102 H   0  0  0  0  0  0
  -31.2714  -20.2650   19.9590 H   0  0  0  0  0  0
  -29.2415  -25.4328   21.4629 H   0  0  0  0  0  0
  -27.5296  -25.2494   21.3986 H   0  0  0  0  0  0
  -27.3057  -15.7745   22.1971 H   0  0  0  0  0  0
  -28.3943  -21.0840   19.9434 H   0  0  0  0  0  0
  -29.1770  -24.3839   18.9724 H   0  0  0  0  0  0
  -29.0995  -15.0269   21.6791 H   0  0  0  0  0  0
  -27.4842  -22.8757   18.8958 H   0  0  0  0  0  0
  1 25  1  0  0  0
  1 30  2  0  0  0
  1 85  1  0  0  0
  2  3  1  0  0  0
  2 25  1  0  0  0
  2 87  1  0  0  0
  2 88  1  0  0  0
  3  4  1  0  0  0
  3 89  1  0  0  0
  3 90  1  0  0  0
  4  5  1  0  0  0
  4 91  1  0  0  0
  4 92  1  0  0  0
  5  6  1  0  0  0
  5 26  1  0  0  0
  5 93  1  0  0  0
  6 25  1  0  0  0
  6 94  1  0  0  0
  6 95  1  0  0  0
  7  8  2  0  0  0
  7 26  1  0  0  0
  7 29  1  0  0  0
  8  9  1  0  0  0
  8 22  1  0  0  0
  9 10  1  0  0  0
  9 27  2  0  0  0
 10 11  2  0  0  0
 10 15  1  0  0  0
 11 12  1  0  0  0
 11 96  1  0  0  0
 12 13  2  0  0  0
 12 97  1  0  0  0
 13 14  1  0  0  0
 13 31  1  0  0  0
 14 15  2  0  0  0
 14 98  1  0  0  0
 15 99  1  0  0  0
 16 17  2  0  0  0
 16 21  1  0  0  0
 16 31  1  0  0  0
 17 18  1  0  0  0
 17100  1  0  0  0
 18 19  2  0  0  0
 18101  1  0  0  0
 19 20  1  0  0  0
 19 24  1  0  0  0
 20 21  2  0  0  0
 20102  1  0  0  0
 21 23  1  0  0  0
 22 28  1  0  0  0
 22 32  2  0  0  0
 26 27  1  0  0  0
 28103  1  0  0  0
 28104  1  0  0  0
 29105  1  0  0  0
 29106  1  0  0  0
 33 34  1  0  0  0
 33 66  1  0  0  0
 33 70  2  0  0  0
 34 36  1  0  0  0
 34 59  1  0  0  0
 34107  1  0  0  0
 35 44  2  0  0  0
 35 45  1  0  0  0
 35 68  1  0  0  0
 36 56  1  0  0  0
 36108  1  0  0  0
 37 39  1  0  0  0
 37 47  1  0  0  0
 37 66  1  0  0  0
 37109  1  0  0  0
 38 43  2  0  0  0
 38 46  1  0  0  0
 38 47  1  0  0  0
 39 64  1  0  0  0
 39 67  2  0  0  0
 40 52  1  0  0  0
 40 53  2  0  0  0
 40 58  1  0  0  0
 41110  1  0  0  0
 41111  1  0  0  0
 41112  1  0  0  0
 41 48  1  0  0  0
 42 43  1  0  0  0
 42 66  1  0  0  0
 42113  1  0  0  0
 42114  1  0  0  0
 43 44  1  0  0  0
 44115  1  0  0  0
 45 46  2  0  0  0
 45116  1  0  0  0
 46117  1  0  0  0
 47118  1  0  0  0
 47119  1  0  0  0
 48 56  1  0  0  0
 48 65  1  0  0  0
 48120  1  0  0  0
 49 50  1  0  0  0
 49 53  1  0  0  0
 49 64  1  0  0  0
 49121  1  0  0  0
 50 51  1  0  0  0
 50122  1  0  0  0
 50123  1  0  0  0
 51 52  1  0  0  0
 51124  1  0  0  0
 51125  1  0  0  0
 52126  1  0  0  0
 52127  1  0  0  0
 53 54  1  0  0  0
 54 55  2  0  0  0
 54128  1  0  0  0
 55 57  1  0  0  0
 55129  1  0  0  0
 56 69  2  0  0  0
 57 58  2  0  0  0
 57130  1  0  0  0
 58131  1  0  0  0
 59 60  1  0  0  0
 59 61  1  0  0  0
 59 62  1  0  0  0
 60132  1  0  0  0
 60133  1  0  0  0
 60134  1  0  0  0
 61135  1  0  0  0
 61136  1  0  0  0
 61137  1  0  0  0
 62138  1  0  0  0
 62139  1  0  0  0
 62140  1  0  0  0
 63 65  1  0  0  0
 63141  1  0  0  0
 63142  1  0  0  0
 63143  1  0  0  0
 64144  1  0  0  0
 65145  1  0  0  0
 68 79  1  0  0  0
 71 72  2  0  0  0
 71 84  1  0  0  0
 71146  1  0  0  0
 72 73  1  0  0  0
 72 80  1  0  0  0
 73 83  2  0  0  0
 73 85  1  0  0  0
 74147  1  0  0  0
 74148  1  0  0  0
 74149  1  0  0  0
 74 80  1  0  0  0
 75 80  1  0  0  0
 75150  1  0  0  0
 75151  1  0  0  0
 75152  1  0  0  0
 76153  1  0  0  0
 76154  1  0  0  0
 76155  1  0  0  0
 76 81  1  0  0  0
 77 81  1  0  0  0
 77 82  1  0  0  0
 77156  1  0  0  0
 77157  1  0  0  0
 78 81  1  0  0  0
 78 84  1  0  0  0
 78158  1  0  0  0
 78159  1  0  0  0
 79 82  1  0  0  0
 79160  1  0  0  0
 79161  1  0  0  0
 80162  1  0  0  0
 81163  1  0  0  0
 82 86  1  0  0  0
 82164  1  0  0  0
 83 84  1  0  0  0
 85165  1  0  0  0
 86166  1  0  0  0
M  ISO  4   1 100  68 101  79 101  85 100
M  END
> <chiral flag>
0

> <version>
0

> <s_m_source_file>
/data/baiqing/PycharmProjects/Reinvent-master-3.2/result/LINK_invent/BTK/process_docking_weight1_custom_product_contain_oxygen_bond_distance_aromatic_linkinvent_7_9_3/rearranged_h_0193.sdf

> <i_m_source_file_index>
11

> <r_mmod_Potential_Energy-OPLS-2005>
3.36477184295654

> <r_mmod_Stretch_Energy-OPLS-2005>
58.3116073608398

> <r_mmod_Bend_Energy-OPLS-2005>
140.707290649414

> <r_mmod_Torsional_Energy-OPLS-2005>
258.933776855469

> <r_mmod_Improper_Torsional_Energy-OPLS-2005>
4.11288499832153

> <r_mmod_Van_der_Waal_Energy-OPLS-2005>
110.039001464844

> <r_mmod_Electrostatic_Energy-OPLS-2005>
-357.372192382812

> <r_mmod_Solvation_Energy-OPLS-2005>
-235.227661132812

> <b_mmod_Minimization_Converged-OPLS-2005>
0

> <r_mmod_RMS_Derivative-OPLS-2005>
4.09411478042603

$$$$
11
                    3D
 Structure written by MMmdl.
154162  0  0  1  0            999 V2000
  -30.7117  -14.4297   20.6229 C   0  0  0  0  0  0
  -30.4215  -12.2948   19.4154 C   0  0  0  0  0  0
  -29.4943  -12.5243   18.2041 C   0  0  0  0  0  0
  -28.0161  -12.3741   18.6154 C   0  0  0  0  0  0
  -27.6663  -13.1974   19.8825 C   0  0  2  0  0  0
  -28.7052  -12.9459   21.0002 C   0  0  0  0  0  0
  -25.2623  -13.8142   20.5705 C   0  0  0  0  0  0
  -24.1860  -13.0437   20.9184 C   0  0  0  0  0  0
  -24.6387  -11.6891   20.8715 C   0  0  0  0  0  0
  -23.9040  -10.4284   21.0372 C   0  0  0  0  0  0
  -24.3602   -9.4203   21.9150 C   0  0  0  0  0  0
  -23.6280   -8.2242   22.0748 C   0  0  0  0  0  0
  -22.4266   -8.0270   21.3537 C   0  0  0  0  0  0
  -21.9894   -9.0239   20.4640 C   0  0  0  0  0  0
  -22.7215  -10.2118   20.3030 C   0  0  0  0  0  0
  -21.6849   -6.0724   22.5267 C   0  0  0  0  0  0
  -21.4009   -6.5625   23.8197 C   0  0  0  0  0  0
  -21.3671   -5.6787   24.9160 C   0  0  0  0  0  0
  -21.6066   -4.3049   24.7214 C   0  0  0  0  0  0
  -21.8817   -3.8139   23.4329 C   0  0  0  0  0  0
  -21.9186   -4.6958   22.3389 C   0  0  0  0  0  0
  -22.7885  -13.5244   21.1846 C   0  0  0  0  0  0
  -22.1658   -4.2147   21.0969 F   0  0  0  0  0  0
  -21.5637   -3.4536   25.7724 F   0  0  0  0  0  0
  -30.0441  -13.2542   20.4647 N   0  0  0  0  0  0
  -26.3041  -12.9300   20.3390 N   0  0  0  0  0  0
  -25.9310  -11.6462   20.5758 N   0  0  0  0  0  0
  -22.0515  -12.8238   22.0393 N   0  0  0  0  0  0
  -25.4401  -15.1863   20.4132 N   0  0  0  0  0  0
  -31.8029  -14.6502   20.0846 O   0  0  0  0  0  0
  -21.6634   -6.8864   21.4234 O   0  0  0  0  0  0
  -22.3580  -14.5554   20.6683 O   0  0  0  0  0  0
  -24.6105  -31.8696   23.2133 C   0  0  0  0  0  0
  -25.9010  -32.4838   23.8417 C   0  0  1  0  0  0
  -27.2326  -27.4528   20.1027 C   0  0  0  0  0  0
  -25.5886  -33.8636   24.2356 N   0  0  0  0  0  0
  -23.3988  -30.4902   21.5536 C   0  0  2  0  0  0
  -24.8473  -28.9561   20.1219 C   0  0  0  0  0  0
  -22.7402  -29.4642   22.5020 C   0  0  0  0  0  0
  -18.0274  -28.1346   22.8508 C   0  0  0  0  0  0
  -24.1483  -36.7309   23.2630 C   0  0  0  0  0  0
  -25.9255  -30.8391   21.3673 C   0  0  0  0  0  0
  -26.0053  -29.4713   20.7226 C   0  0  0  0  0  0
  -27.2026  -28.7225   20.7194 C   0  0  0  0  0  0
  -26.0674  -26.9488   19.4937 C   0  0  0  0  0  0
  -24.8701  -27.6897   19.5109 C   0  0  0  0  0  0
  -23.6076  -29.8202   20.1684 C   0  0  0  0  0  0
  -25.4106  -36.3126   24.0341 C   0  0  1  0  0  0
  -20.5860  -28.3621   23.1335 C   0  0  2  0  0  0
  -20.6748  -26.9361   22.5422 C   0  0  0  0  0  0
  -19.5724  -26.6369   21.5219 C   0  0  0  0  0  0
  -18.1910  -26.7904   22.1635 C   0  0  0  0  0  0
  -19.1521  -28.8808   23.2911 C   0  0  0  0  0  0
  -18.9446  -30.1426   23.8904 C   0  0  0  0  0  0
  -17.6446  -30.6562   24.0555 C   0  0  0  0  0  0
  -25.9027  -34.9489   23.5144 C   0  0  0  0  0  0
  -16.5334  -29.9063   23.6320 C   0  0  0  0  0  0
  -16.7262  -28.6471   23.0369 C   0  0  0  0  0  0
  -26.4453  -31.6599   25.0724 C   0  0  0  0  0  0
  -25.3731  -31.3699   26.1478 C   0  0  0  0  0  0
  -27.0254  -30.3044   24.6056 C   0  0  0  0  0  0
  -27.6047  -32.4286   25.7482 C   0  0  0  0  0  0
  -27.5600  -37.1795   24.8452 C   0  0  0  0  0  0
  -21.4132  -29.2998   22.3756 N   0  0  0  0  0  0
  -26.4299  -37.3812   23.9418 N   0  0  0  0  0  0
  -24.6626  -31.0801   22.1036 N   0  0  0  0  0  0
  -23.4185  -28.8193   23.3052 O   0  0  0  0  0  0
  -28.3798  -26.7032   20.0491 O   0  0  0  0  0  0
  -26.5599  -34.8931   22.4709 O   0  0  0  0  0  0
  -23.5303  -32.1454   23.7527 O   0  0  0  0  0  0
  -30.8481  -18.8266   20.6998 C   0  0  0  0  0  0
  -29.5429  -19.1474   21.0043 C   0  0  0  0  0  0
  -30.0880  -16.7526   21.2433 C   0  0  0  0  0  0
  -28.7764  -20.4112   20.8760 C   0  0  0  0  0  0
  -28.2046  -23.7054   20.2043 C   0  0  0  0  0  0
  -28.7199  -22.4564   19.4471 C   0  0  0  0  0  0
  -28.7053  -26.0135   21.2604 C   0  0  0  0  0  0
  -29.2457  -24.6034   20.9174 C   0  0  2  0  0  0
  -31.1478  -17.4625   20.8347 N   0  0  0  0  0  0
  -30.0656  -15.3391   21.3714 N   0  0  0  0  0  0
  -29.3904  -21.4161   20.2347 N   0  0  0  0  0  0
  -27.6042  -20.4916   21.2517 O   0  0  0  0  0  0
  -30.4161  -24.7942   20.1428 O   0  0  0  0  0  0
  -28.6728  -17.7402   21.5847 S   0  0  0  0  0  0
  -31.4678  -12.3888   19.1193 H   0  0  0  0  0  0
  -30.3155  -11.2749   19.7874 H   0  0  0  0  0  0
  -29.7381  -11.8241   17.4053 H   0  0  0  0  0  0
  -29.6605  -13.5227   17.7974 H   0  0  0  0  0  0
  -27.8288  -11.3161   18.7988 H   0  0  0  0  0  0
  -27.3629  -12.6566   17.7896 H   0  0  0  0  0  0
  -27.7218  -14.2508   19.6052 H   0  0  0  0  0  0
  -28.6763  -11.9006   21.3117 H   0  0  0  0  0  0
  -28.4557  -13.5118   21.8988 H   0  0  0  0  0  0
  -25.2743   -9.5697   22.4728 H   0  0  0  0  0  0
  -23.9994   -7.4639   22.7469 H   0  0  0  0  0  0
  -21.0827   -8.8728   19.8942 H   0  0  0  0  0  0
  -22.3649  -10.9643   19.6142 H   0  0  0  0  0  0
  -21.1995   -7.6131   23.9709 H   0  0  0  0  0  0
  -21.1514   -6.0506   25.9069 H   0  0  0  0  0  0
  -22.0594   -2.7605   23.2819 H   0  0  0  0  0  0
  -22.4107  -11.9877   22.4757 H   0  0  0  0  0  0
  -21.1137  -13.1266   22.2591 H   0  0  0  0  0  0
  -24.6828  -15.8481   20.5425 H   0  0  0  0  0  0
  -26.2961  -15.6199   20.0918 H   0  0  0  0  0  0
  -26.7079  -32.5564   23.1185 H   0  0  0  0  0  0
  -25.0034  -33.9819   25.0497 H   0  0  0  0  0  0
  -22.6828  -31.3039   21.4142 H   0  0  0  0  0  0
  -23.3774  -35.9612   23.3268 H   0  0  0  0  0  0
  -24.3607  -36.8951   22.2053 H   0  0  0  0  0  0
  -23.7190  -37.6485   23.6658 H   0  0  0  0  0  0
  -26.0333  -31.6027   20.5956 H   0  0  0  0  0  0
  -26.8140  -30.8974   21.9835 H   0  0  0  0  0  0
  -28.0976  -29.1189   21.1765 H   0  0  0  0  0  0
  -26.0816  -25.9829   19.0094 H   0  0  0  0  0  0
  -23.9795  -27.2854   19.0502 H   0  0  0  0  0  0
  -23.7136  -30.5925   19.4055 H   0  0  0  0  0  0
  -22.7333  -29.2378   19.8756 H   0  0  0  0  0  0
  -25.1278  -36.1998   25.0835 H   0  0  0  0  0  0
  -20.9959  -28.3164   24.1450 H   0  0  0  0  0  0
  -20.5638  -26.2225   23.3597 H   0  0  0  0  0  0
  -21.6618  -26.7388   22.1211 H   0  0  0  0  0  0
  -19.6858  -25.6291   21.1221 H   0  0  0  0  0  0
  -19.6658  -27.3205   20.6767 H   0  0  0  0  0  0
  -17.4180  -26.6688   21.4026 H   0  0  0  0  0  0
  -18.0274  -26.0037   22.9007 H   0  0  0  0  0  0
  -19.7921  -30.7247   24.2276 H   0  0  0  0  0  0
  -17.4991  -31.6258   24.5125 H   0  0  0  0  0  0
  -15.5332  -30.2950   23.7629 H   0  0  0  0  0  0
  -15.8668  -28.0765   22.7089 H   0  0  0  0  0  0
  -24.5868  -30.7091   25.7802 H   0  0  0  0  0  0
  -24.8966  -32.2860   26.4973 H   0  0  0  0  0  0
  -25.8082  -30.8809   27.0203 H   0  0  0  0  0  0
  -26.2771  -29.6834   24.1117 H   0  0  0  0  0  0
  -27.4035  -29.7244   25.4477 H   0  0  0  0  0  0
  -27.8609  -30.4360   23.9182 H   0  0  0  0  0  0
  -27.2688  -33.3553   26.2143 H   0  0  0  0  0  0
  -28.3836  -32.6896   25.0305 H   0  0  0  0  0  0
  -28.0749  -31.8353   26.5336 H   0  0  0  0  0  0
  -28.2572  -38.0143   24.7607 H   0  0  0  0  0  0
  -28.1161  -36.2684   24.6159 H   0  0  0  0  0  0
  -27.2340  -37.1289   25.8860 H   0  0  0  0  0  0
  -20.9274  -29.8731   21.6995 H   0  0  0  0  0  0
  -26.0186  -38.2875   24.1504 H   0  0  0  0  0  0
  -31.6125  -19.4911   20.3222 H   0  0  0  0  0  0
  -27.4394  -23.4091   20.9236 H   0  0  0  0  0  0
  -27.6757  -24.3105   19.4687 H   0  0  0  0  0  0
  -29.4112  -22.7690   18.6636 H   0  0  0  0  0  0
  -27.8811  -22.0024   18.9167 H   0  0  0  0  0  0
  -29.4473  -26.5955   21.8093 H   0  0  0  0  0  0
  -27.8324  -25.9217   21.9114 H   0  0  0  0  0  0
  -29.5458  -24.1061   21.8418 H   0  0  0  0  0  0
  -29.2391  -14.9759   21.8180 H   0  0  0  0  0  0
  -30.3713  -21.2881   20.0285 H   0  0  0  0  0  0
  -30.2159  -25.4822   19.5141 H   0  0  0  0  0  0
  1 25  1  0  0  0
  1 30  2  0  0  0
  1 80  1  0  0  0
  2  3  1  0  0  0
  2 25  1  0  0  0
  2 85  1  0  0  0
  2 86  1  0  0  0
  3  4  1  0  0  0
  3 87  1  0  0  0
  3 88  1  0  0  0
  4  5  1  0  0  0
  4 89  1  0  0  0
  4 90  1  0  0  0
  5  6  1  0  0  0
  5 26  1  0  0  0
  5 91  1  0  0  0
  6 25  1  0  0  0
  6 92  1  0  0  0
  6 93  1  0  0  0
  7  8  2  0  0  0
  7 26  1  0  0  0
  7 29  1  0  0  0
  8  9  1  0  0  0
  8 22  1  0  0  0
  9 10  1  0  0  0
  9 27  2  0  0  0
 10 11  2  0  0  0
 10 15  1  0  0  0
 11 12  1  0  0  0
 11 94  1  0  0  0
 12 13  2  0  0  0
 12 95  1  0  0  0
 13 14  1  0  0  0
 13 31  1  0  0  0
 14 15  2  0  0  0
 14 96  1  0  0  0
 15 97  1  0  0  0
 16 17  2  0  0  0
 16 21  1  0  0  0
 16 31  1  0  0  0
 17 18  1  0  0  0
 17 98  1  0  0  0
 18 19  2  0  0  0
 18 99  1  0  0  0
 19 20  1  0  0  0
 19 24  1  0  0  0
 20 21  2  0  0  0
 20100  1  0  0  0
 21 23  1  0  0  0
 22 28  1  0  0  0
 22 32  2  0  0  0
 26 27  1  0  0  0
 28101  1  0  0  0
 28102  1  0  0  0
 29103  1  0  0  0
 29104  1  0  0  0
 33 34  1  0  0  0
 33 66  1  0  0  0
 33 70  2  0  0  0
 34 36  1  0  0  0
 34 59  1  0  0  0
 34105  1  0  0  0
 35 44  2  0  0  0
 35 45  1  0  0  0
 35 68  1  0  0  0
 36 56  1  0  0  0
 36106  1  0  0  0
 37 39  1  0  0  0
 37 47  1  0  0  0
 37 66  1  0  0  0
 37107  1  0  0  0
 38 43  2  0  0  0
 38 46  1  0  0  0
 38 47  1  0  0  0
 39 64  1  0  0  0
 39 67  2  0  0  0
 40 52  1  0  0  0
 40 53  2  0  0  0
 40 58  1  0  0  0
 41108  1  0  0  0
 41109  1  0  0  0
 41110  1  0  0  0
 41 48  1  0  0  0
 42 43  1  0  0  0
 42 66  1  0  0  0
 42111  1  0  0  0
 42112  1  0  0  0
 43 44  1  0  0  0
 44113  1  0  0  0
 45 46  2  0  0  0
 45114  1  0  0  0
 46115  1  0  0  0
 47116  1  0  0  0
 47117  1  0  0  0
 48 56  1  0  0  0
 48 65  1  0  0  0
 48118  1  0  0  0
 49 50  1  0  0  0
 49 53  1  0  0  0
 49 64  1  0  0  0
 49119  1  0  0  0
 50 51  1  0  0  0
 50120  1  0  0  0
 50121  1  0  0  0
 51 52  1  0  0  0
 51122  1  0  0  0
 51123  1  0  0  0
 52124  1  0  0  0
 52125  1  0  0  0
 53 54  1  0  0  0
 54 55  2  0  0  0
 54126  1  0  0  0
 55 57  1  0  0  0
 55127  1  0  0  0
 56 69  2  0  0  0
 57 58  2  0  0  0
 57128  1  0  0  0
 58129  1  0  0  0
 59 60  1  0  0  0
 59 61  1  0  0  0
 59 62  1  0  0  0
 60130  1  0  0  0
 60131  1  0  0  0
 60132  1  0  0  0
 61133  1  0  0  0
 61134  1  0  0  0
 61135  1  0  0  0
 62136  1  0  0  0
 62137  1  0  0  0
 62138  1  0  0  0
 63 65  1  0  0  0
 63139  1  0  0  0
 63140  1  0  0  0
 63141  1  0  0  0
 64142  1  0  0  0
 65143  1  0  0  0
 68 77  1  0  0  0
 71 72  2  0  0  0
 71 79  1  0  0  0
 71144  1  0  0  0
 72 74  1  0  0  0
 72 84  1  0  0  0
 73 79  2  0  0  0
 73 80  1  0  0  0
 73 84  1  0  0  0
 74 81  1  0  0  0
 74 82  2  0  0  0
 75 76  1  0  0  0
 75 78  1  0  0  0
 75145  1  0  0  0
 75146  1  0  0  0
 76 81  1  0  0  0
 76147  1  0  0  0
 76148  1  0  0  0
 77 78  1  0  0  0
 77149  1  0  0  0
 77150  1  0  0  0
 78 83  1  0  0  0
 78151  1  0  0  0
 80152  1  0  0  0
 81153  1  0  0  0
 83154  1  0  0  0
M  ISO  4   1 100  68 101  77 101  80 100
M  END
> <chiral flag>
0

> <version>
0

> <s_m_source_file>
/data/baiqing/PycharmProjects/Reinvent-master-3.2/result/LINK_invent/BTK/process_docking_weight1_custom_product_contain_oxygen_bond_distance_aromatic_linkinvent_7_9_3/rearranged_h_0193.sdf

> <i_m_source_file_index>
12

> <r_mmod_Potential_Energy-OPLS-2005>
-165.214218139648

> <r_mmod_Stretch_Energy-OPLS-2005>
32.9285354614258

> <r_mmod_Bend_Energy-OPLS-2005>
99.4104156494141

> <r_mmod_Torsional_Energy-OPLS-2005>
270.698364257812

> <r_mmod_Improper_Torsional_Energy-OPLS-2005>
5.44293975830078

> <r_mmod_Van_der_Waal_Energy-OPLS-2005>
127.205207824707

> <r_mmod_Electrostatic_Energy-OPLS-2005>
-448.964080810547

> <r_mmod_Solvation_Energy-OPLS-2005>
-260.083770751953

> <b_mmod_Minimization_Converged-OPLS-2005>
0

> <r_mmod_RMS_Derivative-OPLS-2005>
2.51959776878357

$$$$
12
                    3D
 Structure written by MMmdl.
158166  0  0  1  0            999 V2000
  -30.6753  -14.5554   20.5189 C   0  0  0  0  0  0
  -30.4272  -12.3494   19.4300 C   0  0  0  0  0  0
  -29.4973  -12.5076   18.2089 C   0  0  0  0  0  0
  -28.0150  -12.3722   18.6167 C   0  0  0  0  0  0
  -27.6549  -13.2187   19.8665 C   0  0  2  0  0  0
  -28.7030  -13.0424   20.9876 C   0  0  0  0  0  0
  -25.2559  -13.8184   20.5682 C   0  0  0  0  0  0
  -24.1818  -13.0444   20.9190 C   0  0  0  0  0  0
  -24.6384  -11.6920   20.8742 C   0  0  0  0  0  0
  -23.9048  -10.4307   21.0383 C   0  0  0  0  0  0
  -24.3604   -9.4226   21.9160 C   0  0  0  0  0  0
  -23.6292   -8.2254   22.0734 C   0  0  0  0  0  0
  -22.4285   -8.0283   21.3524 C   0  0  0  0  0  0
  -21.9906   -9.0261   20.4637 C   0  0  0  0  0  0
  -22.7222  -10.2146   20.3038 C   0  0  0  0  0  0
  -21.6866   -6.0729   22.5281 C   0  0  0  0  0  0
  -21.4016   -6.5630   23.8214 C   0  0  0  0  0  0
  -21.3660   -5.6782   24.9173 C   0  0  0  0  0  0
  -21.6059   -4.3052   24.7221 C   0  0  0  0  0  0
  -21.8819   -3.8138   23.4339 C   0  0  0  0  0  0
  -21.9190   -4.6954   22.3396 C   0  0  0  0  0  0
  -22.7841  -13.5237   21.1870 C   0  0  0  0  0  0
  -22.1651   -4.2126   21.0974 F   0  0  0  0  0  0
  -21.5642   -3.4540   25.7732 F   0  0  0  0  0  0
  -30.0227  -13.3616   20.4198 N   0  0  0  0  0  0
  -26.3002  -12.9372   20.3357 N   0  0  0  0  0  0
  -25.9324  -11.6526   20.5778 N   0  0  0  0  0  0
  -22.0478  -12.8233   22.0431 N   0  0  0  0  0  0
  -25.4279  -15.1906   20.4061 N   0  0  0  0  0  0
  -31.8303  -14.7078   20.1163 O   0  0  0  0  0  0
  -21.6644   -6.8884   21.4248 O   0  0  0  0  0  0
  -22.3517  -14.5535   20.6710 O   0  0  0  0  0  0
  -24.6197  -31.8628   23.2077 C   0  0  0  0  0  0
  -25.9063  -32.4814   23.8386 C   0  0  1  0  0  0
  -27.2263  -27.3777   20.1247 C   0  0  0  0  0  0
  -25.5907  -33.8613   24.2321 N   0  0  0  0  0  0
  -23.4108  -30.4890   21.5461 C   0  0  2  0  0  0
  -24.8592  -28.9476   20.1123 C   0  0  0  0  0  0
  -22.7419  -29.4659   22.4938 C   0  0  0  0  0  0
  -18.0284  -28.1395   22.8488 C   0  0  0  0  0  0
  -24.1479  -36.7309   23.2639 C   0  0  0  0  0  0
  -25.9433  -30.8168   21.3653 C   0  0  0  0  0  0
  -26.0221  -29.4451   20.7150 C   0  0  0  0  0  0
  -27.2118  -28.6708   20.7122 C   0  0  0  0  0  0
  -26.0499  -26.9146   19.4990 C   0  0  0  0  0  0
  -24.8717  -27.6852   19.4947 C   0  0  0  0  0  0
  -23.6248  -29.8227   20.1603 C   0  0  0  0  0  0
  -25.4100  -36.3115   24.0344 C   0  0  1  0  0  0
  -20.5879  -28.3699   23.1284 C   0  0  2  0  0  0
  -20.6781  -26.9424   22.5409 C   0  0  0  0  0  0
  -19.5764  -26.6392   21.5211 C   0  0  0  0  0  0
  -18.1936  -26.7949   22.1617 C   0  0  0  0  0  0
  -19.1532  -28.8864   23.2897 C   0  0  0  0  0  0
  -18.9463  -30.1465   23.8914 C   0  0  0  0  0  0
  -17.6465  -30.6608   24.0576 C   0  0  0  0  0  0
  -25.9024  -34.9477   23.5130 C   0  0  0  0  0  0
  -16.5354  -29.9112   23.6336 C   0  0  0  0  0  0
  -16.7271  -28.6531   23.0353 C   0  0  0  0  0  0
  -26.4483  -31.6608   25.0720 C   0  0  0  0  0  0
  -25.3734  -31.3724   26.1463 C   0  0  0  0  0  0
  -27.0339  -30.3061   24.6103 C   0  0  0  0  0  0
  -27.6068  -32.4317   25.7484 C   0  0  0  0  0  0
  -27.5581  -37.1807   24.8461 C   0  0  0  0  0  0
  -21.4141  -29.3060   22.3672 N   0  0  0  0  0  0
  -26.4291  -37.3797   23.9410 N   0  0  0  0  0  0
  -24.6765  -31.0701   22.0995 N   0  0  0  0  0  0
  -23.4160  -28.8183   23.2998 O   0  0  0  0  0  0
  -28.3573  -26.5735   20.1388 O   0  0  0  0  0  0
  -26.5567  -34.8928   22.4674 O   0  0  0  0  0  0
  -23.5379  -32.1395   23.7449 O   0  0  0  0  0  0
  -28.7679  -17.6078   19.1057 C   0  0  0  0  0  0
  -29.5851  -18.0473   20.1592 C   0  0  0  0  0  0
  -28.1484  -18.5965   18.3442 C   0  0  0  0  0  0
  -29.0987  -20.2458   19.5971 C   0  0  0  0  0  0
  -29.6517  -22.5767   21.8948 C   0  0  0  0  0  0
  -30.3700  -17.0321   21.0162 C   0  0  0  0  0  0
  -28.8462  -24.0617   19.9377 C   0  0  0  0  0  0
  -28.2154  -25.2525   20.7491 C   0  0  0  0  0  0
  -28.8574  -22.6082   20.5764 C   0  0  1  0  0  0
  -29.7316  -19.3861   20.4070 N   0  0  0  0  0  0
  -28.3261  -19.9034   18.5756 N   0  0  0  0  0  0
  -27.3282  -18.2697   17.2791 N   0  0  0  0  0  0
  -29.4081  -21.6087   19.6327 N   0  0  0  0  0  0
  -29.9367  -15.6114   20.9291 N   0  0  0  0  0  0
  -31.4693  -12.4578   19.1235 H   0  0  0  0  0  0
  -30.3468  -11.3468   19.8526 H   0  0  0  0  0  0
  -29.7475  -11.7609   17.4546 H   0  0  0  0  0  0
  -29.6623  -13.4799   17.7420 H   0  0  0  0  0  0
  -27.8199  -11.3189   18.8152 H   0  0  0  0  0  0
  -27.3669  -12.6434   17.7810 H   0  0  0  0  0  0
  -27.6856  -14.2609   19.5475 H   0  0  0  0  0  0
  -28.6982  -12.0168   21.3600 H   0  0  0  0  0  0
  -28.4661  -13.6700   21.8471 H   0  0  0  0  0  0
  -25.2745   -9.5709   22.4729 H   0  0  0  0  0  0
  -24.0020   -7.4642   22.7441 H   0  0  0  0  0  0
  -21.0836   -8.8764   19.8935 H   0  0  0  0  0  0
  -22.3672  -10.9672   19.6140 H   0  0  0  0  0  0
  -21.2006   -7.6135   23.9719 H   0  0  0  0  0  0
  -21.1490   -6.0499   25.9079 H   0  0  0  0  0  0
  -22.0598   -2.7598   23.2842 H   0  0  0  0  0  0
  -22.4081  -11.9893   22.4834 H   0  0  0  0  0  0
  -21.1079  -13.1250   22.2602 H   0  0  0  0  0  0
  -24.6630  -15.8474   20.5138 H   0  0  0  0  0  0
  -26.2740  -15.6310   20.0712 H   0  0  0  0  0  0
  -26.7124  -32.5522   23.1142 H   0  0  0  0  0  0
  -25.0134  -33.9757   25.0528 H   0  0  0  0  0  0
  -22.7056  -31.3108   21.4061 H   0  0  0  0  0  0
  -23.3746  -35.9635   23.3300 H   0  0  0  0  0  0
  -24.3588  -36.8914   22.2055 H   0  0  0  0  0  0
  -23.7219  -37.6510   23.6645 H   0  0  0  0  0  0
  -26.0494  -31.5757   20.5890 H   0  0  0  0  0  0
  -26.8345  -30.8802   21.9784 H   0  0  0  0  0  0
  -28.1088  -29.0467   21.1853 H   0  0  0  0  0  0
  -26.0409  -25.9470   19.0184 H   0  0  0  0  0  0
  -23.9816  -27.3006   19.0157 H   0  0  0  0  0  0
  -23.7411  -30.5992   19.4035 H   0  0  0  0  0  0
  -22.7452  -29.2495   19.8606 H   0  0  0  0  0  0
  -25.1281  -36.1984   25.0841 H   0  0  0  0  0  0
  -20.9998  -28.3289   24.1396 H   0  0  0  0  0  0
  -20.5695  -26.2301   23.3606 H   0  0  0  0  0  0
  -21.6650  -26.7472   22.1196 H   0  0  0  0  0  0
  -19.6918  -25.6295   21.1259 H   0  0  0  0  0  0
  -19.6719  -27.3185   20.6730 H   0  0  0  0  0  0
  -17.4207  -26.6695   21.4020 H   0  0  0  0  0  0
  -18.0341  -26.0096   22.9022 H   0  0  0  0  0  0
  -19.7936  -30.7280   24.2279 H   0  0  0  0  0  0
  -17.5027  -31.6290   24.5173 H   0  0  0  0  0  0
  -15.5358  -30.3029   23.7661 H   0  0  0  0  0  0
  -15.8665  -28.0868   22.7052 H   0  0  0  0  0  0
  -24.5895  -30.7090   25.7787 H   0  0  0  0  0  0
  -24.8938  -32.2887   26.4913 H   0  0  0  0  0  0
  -25.8068  -30.8878   27.0220 H   0  0  0  0  0  0
  -26.2902  -29.6798   24.1155 H   0  0  0  0  0  0
  -27.4133  -29.7326   25.4572 H   0  0  0  0  0  0
  -27.8721  -30.4418   23.9260 H   0  0  0  0  0  0
  -27.2706  -33.3611   26.2093 H   0  0  0  0  0  0
  -28.3863  -32.6869   25.0292 H   0  0  0  0  0  0
  -28.0744  -31.8404   26.5365 H   0  0  0  0  0  0
  -28.2594  -38.0111   24.7528 H   0  0  0  0  0  0
  -28.1082  -36.2642   24.6269 H   0  0  0  0  0  0
  -27.2298  -37.1440   25.8863 H   0  0  0  0  0  0
  -20.9277  -29.8786   21.6906 H   0  0  0  0  0  0
  -26.0182  -38.2870   24.1429 H   0  0  0  0  0  0
  -28.6532  -16.5588   18.8727 H   0  0  0  0  0  0
  -29.2019  -23.2167   22.6547 H   0  0  0  0  0  0
  -30.6799  -22.9093   21.7445 H   0  0  0  0  0  0
  -29.6964  -21.5705   22.3134 H   0  0  0  0  0  0
  -30.2975  -17.3382   22.0594 H   0  0  0  0  0  0
  -31.4239  -17.1255   20.7540 H   0  0  0  0  0  0
  -29.8736  -24.3380   19.6978 H   0  0  0  0  0  0
  -28.3233  -24.0148   18.9820 H   0  0  0  0  0  0
  -28.7079  -25.3151   21.7209 H   0  0  0  0  0  0
  -27.1724  -25.0226   20.9737 H   0  0  0  0  0  0
  -27.8272  -22.3137   20.7918 H   0  0  0  0  0  0
  -27.2413  -17.3177   16.9460 H   0  0  0  0  0  0
  -26.9835  -18.9894   16.6555 H   0  0  0  0  0  0
  -29.2790  -21.9783   18.7002 H   0  0  0  0  0  0
  -28.9757  -15.4315   21.1696 H   0  0  0  0  0  0
  1 25  1  0  0  0
  1 30  2  0  0  0
  1 84  1  0  0  0
  2  3  1  0  0  0
  2 25  1  0  0  0
  2 85  1  0  0  0
  2 86  1  0  0  0
  3  4  1  0  0  0
  3 87  1  0  0  0
  3 88  1  0  0  0
  4  5  1  0  0  0
  4 89  1  0  0  0
  4 90  1  0  0  0
  5  6  1  0  0  0
  5 26  1  0  0  0
  5 91  1  0  0  0
  6 25  1  0  0  0
  6 92  1  0  0  0
  6 93  1  0  0  0
  7  8  2  0  0  0
  7 26  1  0  0  0
  7 29  1  0  0  0
  8  9  1  0  0  0
  8 22  1  0  0  0
  9 10  1  0  0  0
  9 27  2  0  0  0
 10 11  2  0  0  0
 10 15  1  0  0  0
 11 12  1  0  0  0
 11 94  1  0  0  0
 12 13  2  0  0  0
 12 95  1  0  0  0
 13 14  1  0  0  0
 13 31  1  0  0  0
 14 15  2  0  0  0
 14 96  1  0  0  0
 15 97  1  0  0  0
 16 17  2  0  0  0
 16 21  1  0  0  0
 16 31  1  0  0  0
 17 18  1  0  0  0
 17 98  1  0  0  0
 18 19  2  0  0  0
 18 99  1  0  0  0
 19 20  1  0  0  0
 19 24  1  0  0  0
 20 21  2  0  0  0
 20100  1  0  0  0
 21 23  1  0  0  0
 22 28  1  0  0  0
 22 32  2  0  0  0
 26 27  1  0  0  0
 28101  1  0  0  0
 28102  1  0  0  0
 29103  1  0  0  0
 29104  1  0  0  0
 33 34  1  0  0  0
 33 66  1  0  0  0
 33 70  2  0  0  0
 34 36  1  0  0  0
 34 59  1  0  0  0
 34105  1  0  0  0
 35 44  2  0  0  0
 35 45  1  0  0  0
 35 68  1  0  0  0
 36 56  1  0  0  0
 36106  1  0  0  0
 37 39  1  0  0  0
 37 47  1  0  0  0
 37 66  1  0  0  0
 37107  1  0  0  0
 38 43  2  0  0  0
 38 46  1  0  0  0
 38 47  1  0  0  0
 39 64  1  0  0  0
 39 67  2  0  0  0
 40 52  1  0  0  0
 40 53  2  0  0  0
 40 58  1  0  0  0
 41108  1  0  0  0
 41109  1  0  0  0
 41110  1  0  0  0
 41 48  1  0  0  0
 42 43  1  0  0  0
 42 66  1  0  0  0
 42111  1  0  0  0
 42112  1  0  0  0
 43 44  1  0  0  0
 44113  1  0  0  0
 45 46  2  0  0  0
 45114  1  0  0  0
 46115  1  0  0  0
 47116  1  0  0  0
 47117  1  0  0  0
 48 56  1  0  0  0
 48 65  1  0  0  0
 48118  1  0  0  0
 49 50  1  0  0  0
 49 53  1  0  0  0
 49 64  1  0  0  0
 49119  1  0  0  0
 50 51  1  0  0  0
 50120  1  0  0  0
 50121  1  0  0  0
 51 52  1  0  0  0
 51122  1  0  0  0
 51123  1  0  0  0
 52124  1  0  0  0
 52125  1  0  0  0
 53 54  1  0  0  0
 54 55  2  0  0  0
 54126  1  0  0  0
 55 57  1  0  0  0
 55127  1  0  0  0
 56 69  2  0  0  0
 57 58  2  0  0  0
 57128  1  0  0  0
 58129  1  0  0  0
 59 60  1  0  0  0
 59 61  1  0  0  0
 59 62  1  0  0  0
 60130  1  0  0  0
 60131  1  0  0  0
 60132  1  0  0  0
 61133  1  0  0  0
 61134  1  0  0  0
 61135  1  0  0  0
 62136  1  0  0  0
 62137  1  0  0  0
 62138  1  0  0  0
 63 65  1  0  0  0
 63139  1  0  0  0
 63140  1  0  0  0
 63141  1  0  0  0
 64142  1  0  0  0
 65143  1  0  0  0
 68 78  1  0  0  0
 71 72  2  0  0  0
 71 73  1  0  0  0
 71144  1  0  0  0
 72 76  1  0  0  0
 72 80  1  0  0  0
 73 81  2  0  0  0
 73 82  1  0  0  0
 74 80  2  0  0  0
 74 81  1  0  0  0
 74 83  1  0  0  0
 75145  1  0  0  0
 75146  1  0  0  0
 75147  1  0  0  0
 75 79  1  0  0  0
 76 84  1  0  0  0
 76148  1  0  0  0
 76149  1  0  0  0
 77 78  1  0  0  0
 77 79  1  0  0  0
 77150  1  0  0  0
 77151  1  0  0  0
 78152  1  0  0  0
 78153  1  0  0  0
 79 83  1  0  0  0
 79154  1  0  0  0
 82155  1  0  0  0
 82156  1  0  0  0
 83157  1  0  0  0
 84158  1  0  0  0
M  ISO  4   1 100  68 101  78 101  84 100
M  END
> <chiral flag>
0

> <version>
0

> <s_m_source_file>
/data/baiqing/PycharmProjects/Reinvent-master-3.2/result/LINK_invent/BTK/process_docking_weight1_custom_product_contain_oxygen_bond_distance_aromatic_linkinvent_7_9_3/rearranged_h_0193.sdf

> <i_m_source_file_index>
13

> <r_mmod_Potential_Energy-OPLS-2005>
-780.842468261719

> <r_mmod_Stretch_Energy-OPLS-2005>
51.2286376953125

> <r_mmod_Bend_Energy-OPLS-2005>
123.684928894043

> <r_mmod_Torsional_Energy-OPLS-2005>
233.130722045898

> <r_mmod_Improper_Torsional_Energy-OPLS-2005>
10.5000429153442

> <r_mmod_Van_der_Waal_Energy-OPLS-2005>
147.372802734375

> <r_mmod_Electrostatic_Energy-OPLS-2005>
-1122.69750976562

> <r_mmod_Solvation_Energy-OPLS-2005>
-250.647659301758

> <b_mmod_Minimization_Converged-OPLS-2005>
0

> <r_mmod_RMS_Derivative-OPLS-2005>
2.98282098770142

$$$$
13
                    3D
 Structure written by MMmdl.
158166  0  0  1  0            999 V2000
  -30.7084  -14.4855   20.5678 C   0  0  0  0  0  0
  -30.4218  -12.3152   19.4277 C   0  0  0  0  0  0
  -29.4958  -12.4972   18.2078 C   0  0  0  0  0  0
  -28.0158  -12.3636   18.6189 C   0  0  0  0  0  0
  -27.6598  -13.2107   19.8712 C   0  0  2  0  0  0
  -28.7021  -13.0082   20.9944 C   0  0  0  0  0  0
  -25.2573  -13.8167   20.5668 C   0  0  0  0  0  0
  -24.1841  -13.0445   20.9214 C   0  0  0  0  0  0
  -24.6398  -11.6913   20.8755 C   0  0  0  0  0  0
  -23.9058  -10.4297   21.0410 C   0  0  0  0  0  0
  -24.3608   -9.4208   21.9183 C   0  0  0  0  0  0
  -23.6289   -8.2241   22.0750 C   0  0  0  0  0  0
  -22.4268   -8.0281   21.3543 C   0  0  0  0  0  0
  -21.9905   -9.0253   20.4639 C   0  0  0  0  0  0
  -22.7231  -10.2138   20.3053 C   0  0  0  0  0  0
  -21.6850   -6.0735   22.5277 C   0  0  0  0  0  0
  -21.4013   -6.5636   23.8214 C   0  0  0  0  0  0
  -21.3664   -5.6784   24.9173 C   0  0  0  0  0  0
  -21.6040   -4.3047   24.7219 C   0  0  0  0  0  0
  -21.8818   -3.8146   23.4340 C   0  0  0  0  0  0
  -21.9193   -4.6964   22.3399 C   0  0  0  0  0  0
  -22.7860  -13.5246   21.1858 C   0  0  0  0  0  0
  -22.1655   -4.2151   21.0976 F   0  0  0  0  0  0
  -21.5633   -3.4528   25.7733 F   0  0  0  0  0  0
  -30.0305  -13.3116   20.4377 N   0  0  0  0  0  0
  -26.3013  -12.9346   20.3345 N   0  0  0  0  0  0
  -25.9327  -11.6502   20.5777 N   0  0  0  0  0  0
  -22.0478  -12.8253   22.0405 N   0  0  0  0  0  0
  -25.4255  -15.1874   20.3980 N   0  0  0  0  0  0
  -31.8402  -14.6508   20.1044 O   0  0  0  0  0  0
  -21.6634   -6.8877   21.4239 O   0  0  0  0  0  0
  -22.3554  -14.5545   20.6691 O   0  0  0  0  0  0
  -24.6166  -31.8667   23.2082 C   0  0  0  0  0  0
  -25.9048  -32.4817   23.8390 C   0  0  1  0  0  0
  -27.2301  -27.4219   20.0973 C   0  0  0  0  0  0
  -25.5895  -33.8615   24.2323 N   0  0  0  0  0  0
  -23.4059  -30.4914   21.5485 C   0  0  2  0  0  0
  -24.8535  -28.9594   20.1080 C   0  0  0  0  0  0
  -22.7425  -29.4658   22.4963 C   0  0  0  0  0  0
  -18.0282  -28.1384   22.8494 C   0  0  0  0  0  0
  -24.1484  -36.7318   23.2640 C   0  0  0  0  0  0
  -25.9370  -30.8302   21.3622 C   0  0  0  0  0  0
  -26.0158  -29.4656   20.7049 C   0  0  0  0  0  0
  -27.2118  -28.7063   20.6927 C   0  0  0  0  0  0
  -26.0545  -26.9393   19.4835 C   0  0  0  0  0  0
  -24.8690  -27.6966   19.4907 C   0  0  0  0  0  0
  -23.6147  -29.8257   20.1623 C   0  0  0  0  0  0
  -25.4104  -36.3109   24.0339 C   0  0  1  0  0  0
  -20.5875  -28.3672   23.1309 C   0  0  2  0  0  0
  -20.6775  -26.9405   22.5417 C   0  0  0  0  0  0
  -19.5753  -26.6385   21.5216 C   0  0  0  0  0  0
  -18.1932  -26.7928   22.1626 C   0  0  0  0  0  0
  -19.1531  -28.8845   23.2901 C   0  0  0  0  0  0
  -18.9456  -30.1452   23.8910 C   0  0  0  0  0  0
  -17.6455  -30.6586   24.0570 C   0  0  0  0  0  0
  -25.9028  -34.9475   23.5127 C   0  0  0  0  0  0
  -16.5348  -29.9088   23.6325 C   0  0  0  0  0  0
  -16.7270  -28.6509   23.0344 C   0  0  0  0  0  0
  -26.4469  -31.6602   25.0723 C   0  0  0  0  0  0
  -25.3738  -31.3711   26.1475 C   0  0  0  0  0  0
  -27.0297  -30.3044   24.6101 C   0  0  0  0  0  0
  -27.6046  -32.4319   25.7485 C   0  0  0  0  0  0
  -27.5578  -37.1812   24.8464 C   0  0  0  0  0  0
  -21.4151  -29.3037   22.3706 N   0  0  0  0  0  0
  -26.4292  -37.3796   23.9407 N   0  0  0  0  0  0
  -24.6719  -31.0766   22.0983 N   0  0  0  0  0  0
  -23.4192  -28.8198   23.3007 O   0  0  0  0  0  0
  -28.3489  -26.6134   20.1454 O   0  0  0  0  0  0
  -26.5597  -34.8927   22.4690 O   0  0  0  0  0  0
  -23.5354  -32.1412   23.7472 O   0  0  0  0  0  0
  -28.1123  -17.8244   21.1484 C   0  0  0  0  0  0
  -29.4737  -17.9822   21.0742 C   0  0  0  0  0  0
  -28.8011  -20.1794   20.8252 C   0  0  0  0  0  0
  -26.5049  -22.0541   22.8988 C   0  0  0  0  0  0
  -30.5304  -16.9000   21.2083 C   0  0  0  0  0  0
  -26.7565  -22.5684   21.4740 C   0  0  0  0  0  0
  -28.1400  -25.4078   20.9229 C   0  0  0  0  0  0
  -28.2631  -22.7902   21.1653 C   0  0  2  0  0  0
  -28.5303  -24.0436   20.2544 C   0  0  1  0  0  0
  -29.8406  -19.3309   20.8671 N   0  0  0  0  0  0
  -28.9315  -21.5699   20.6581 N   0  0  0  0  0  0
  -30.0290  -15.5134   21.1104 N   0  0  0  0  0  0
  -27.7645  -23.7955   19.0922 O   0  0  0  0  0  0
  -27.2581  -19.3327   20.9558 S   0  0  0  0  0  0
  -31.4667  -12.4089   19.1261 H   0  0  0  0  0  0
  -30.3233  -11.3093   19.8385 H   0  0  0  0  0  0
  -29.7365  -11.7597   17.4406 H   0  0  0  0  0  0
  -29.6684  -13.4750   17.7556 H   0  0  0  0  0  0
  -27.8242  -11.3087   18.8191 H   0  0  0  0  0  0
  -27.3670  -12.6344   17.7846 H   0  0  0  0  0  0
  -27.6990  -14.2569   19.5663 H   0  0  0  0  0  0
  -28.6833  -11.9754   21.3458 H   0  0  0  0  0  0
  -28.4665  -13.6195   21.8669 H   0  0  0  0  0  0
  -25.2753   -9.5687   22.4754 H   0  0  0  0  0  0
  -24.0001   -7.4634   22.7468 H   0  0  0  0  0  0
  -21.0839   -8.8764   19.8944 H   0  0  0  0  0  0
  -22.3685  -10.9673   19.6158 H   0  0  0  0  0  0
  -21.1993   -7.6142   23.9719 H   0  0  0  0  0  0
  -21.1494   -6.0511   25.9079 H   0  0  0  0  0  0
  -22.0597   -2.7609   23.2834 H   0  0  0  0  0  0
  -22.4084  -11.9934   22.4827 H   0  0  0  0  0  0
  -21.1083  -13.1275   22.2568 H   0  0  0  0  0  0
  -24.6350  -15.8200   20.4587 H   0  0  0  0  0  0
  -26.2205  -15.5958   19.9247 H   0  0  0  0  0  0
  -26.7125  -32.5523   23.1163 H   0  0  0  0  0  0
  -25.0052  -33.9786   25.0471 H   0  0  0  0  0  0
  -22.6951  -31.3085   21.4097 H   0  0  0  0  0  0
  -23.3738  -35.9659   23.3311 H   0  0  0  0  0  0
  -24.3581  -36.8921   22.2053 H   0  0  0  0  0  0
  -23.7241  -37.6529   23.6646 H   0  0  0  0  0  0
  -26.0499  -31.5966   20.5941 H   0  0  0  0  0  0
  -26.8249  -30.8838   21.9805 H   0  0  0  0  0  0
  -28.1060  -29.0879   21.1654 H   0  0  0  0  0  0
  -26.0524  -25.9649   19.0149 H   0  0  0  0  0  0
  -23.9767  -27.3017   19.0246 H   0  0  0  0  0  0
  -23.7225  -30.6018   19.4040 H   0  0  0  0  0  0
  -22.7378  -29.2474   19.8659 H   0  0  0  0  0  0
  -25.1280  -36.1979   25.0833 H   0  0  0  0  0  0
  -20.9983  -28.3248   24.1422 H   0  0  0  0  0  0
  -20.5683  -26.2281   23.3609 H   0  0  0  0  0  0
  -21.6644  -26.7447   22.1204 H   0  0  0  0  0  0
  -19.6910  -25.6299   21.1237 H   0  0  0  0  0  0
  -19.6690  -27.3206   20.6756 H   0  0  0  0  0  0
  -17.4201  -26.6682   21.4029 H   0  0  0  0  0  0
  -18.0329  -26.0074   22.9027 H   0  0  0  0  0  0
  -19.7932  -30.7270   24.2280 H   0  0  0  0  0  0
  -17.5010  -31.6265   24.5172 H   0  0  0  0  0  0
  -15.5353  -30.2994   23.7640 H   0  0  0  0  0  0
  -15.8672  -28.0834   22.7041 H   0  0  0  0  0  0
  -24.5909  -30.7057   25.7820 H   0  0  0  0  0  0
  -24.8933  -32.2870   26.4929 H   0  0  0  0  0  0
  -25.8099  -30.8880   27.0230 H   0  0  0  0  0  0
  -26.2842  -29.6814   24.1148 H   0  0  0  0  0  0
  -27.4060  -29.7270   25.4556 H   0  0  0  0  0  0
  -27.8680  -30.4362   23.9256 H   0  0  0  0  0  0
  -27.2665  -33.3608   26.2094 H   0  0  0  0  0  0
  -28.3845  -32.6899   25.0307 H   0  0  0  0  0  0
  -28.0731  -31.8425   26.5380 H   0  0  0  0  0  0
  -28.2605  -38.0102   24.7505 H   0  0  0  0  0  0
  -28.1065  -36.2632   24.6294 H   0  0  0  0  0  0
  -27.2301  -37.1473   25.8871 H   0  0  0  0  0  0
  -20.9305  -29.8761   21.6934 H   0  0  0  0  0  0
  -26.0179  -38.2875   24.1405 H   0  0  0  0  0  0
  -27.5492  -16.9176   21.3128 H   0  0  0  0  0  0
  -25.4471  -21.8405   23.0539 H   0  0  0  0  0  0
  -26.8011  -22.7991   23.6382 H   0  0  0  0  0  0
  -27.0660  -21.1458   23.1125 H   0  0  0  0  0  0
  -31.0352  -16.9990   22.1701 H   0  0  0  0  0  0
  -31.3032  -17.0709   20.4571 H   0  0  0  0  0  0
  -26.1916  -23.4928   21.3770 H   0  0  0  0  0  0
  -26.2988  -21.9157   20.7315 H   0  0  0  0  0  0
  -28.7640  -25.5224   21.8096 H   0  0  0  0  0  0
  -27.1284  -25.3692   21.3232 H   0  0  0  0  0  0
  -28.7556  -23.0132   22.1139 H   0  0  0  0  0  0
  -29.5860  -24.0864   19.9833 H   0  0  0  0  0  0
  -29.8841  -21.7837   20.3828 H   0  0  0  0  0  0
  -29.0989  -15.3290   21.4500 H   0  0  0  0  0  0
  -27.8668  -22.8613   18.9297 H   0  0  0  0  0  0
  1 25  1  0  0  0
  1 30  2  0  0  0
  1 82  1  0  0  0
  2  3  1  0  0  0
  2 25  1  0  0  0
  2 85  1  0  0  0
  2 86  1  0  0  0
  3  4  1  0  0  0
  3 87  1  0  0  0
  3 88  1  0  0  0
  4  5  1  0  0  0
  4 89  1  0  0  0
  4 90  1  0  0  0
  5  6  1  0  0  0
  5 26  1  0  0  0
  5 91  1  0  0  0
  6 25  1  0  0  0
  6 92  1  0  0  0
  6 93  1  0  0  0
  7  8  2  0  0  0
  7 26  1  0  0  0
  7 29  1  0  0  0
  8  9  1  0  0  0
  8 22  1  0  0  0
  9 10  1  0  0  0
  9 27  2  0  0  0
 10 11  2  0  0  0
 10 15  1  0  0  0
 11 12  1  0  0  0
 11 94  1  0  0  0
 12 13  2  0  0  0
 12 95  1  0  0  0
 13 14  1  0  0  0
 13 31  1  0  0  0
 14 15  2  0  0  0
 14 96  1  0  0  0
 15 97  1  0  0  0
 16 17  2  0  0  0
 16 21  1  0  0  0
 16 31  1  0  0  0
 17 18  1  0  0  0
 17 98  1  0  0  0
 18 19  2  0  0  0
 18 99  1  0  0  0
 19 20  1  0  0  0
 19 24  1  0  0  0
 20 21  2  0  0  0
 20100  1  0  0  0
 21 23  1  0  0  0
 22 28  1  0  0  0
 22 32  2  0  0  0
 26 27  1  0  0  0
 28101  1  0  0  0
 28102  1  0  0  0
 29103  1  0  0  0
 29104  1  0  0  0
 33 34  1  0  0  0
 33 66  1  0  0  0
 33 70  2  0  0  0
 34 36  1  0  0  0
 34 59  1  0  0  0
 34105  1  0  0  0
 35 44  2  0  0  0
 35 45  1  0  0  0
 35 68  1  0  0  0
 36 56  1  0  0  0
 36106  1  0  0  0
 37 39  1  0  0  0
 37 47  1  0  0  0
 37 66  1  0  0  0
 37107  1  0  0  0
 38 43  2  0  0  0
 38 46  1  0  0  0
 38 47  1  0  0  0
 39 64  1  0  0  0
 39 67  2  0  0  0
 40 52  1  0  0  0
 40 53  2  0  0  0
 40 58  1  0  0  0
 41108  1  0  0  0
 41109  1  0  0  0
 41110  1  0  0  0
 41 48  1  0  0  0
 42 43  1  0  0  0
 42 66  1  0  0  0
 42111  1  0  0  0
 42112  1  0  0  0
 43 44  1  0  0  0
 44113  1  0  0  0
 45 46  2  0  0  0
 45114  1  0  0  0
 46115  1  0  0  0
 47116  1  0  0  0
 47117  1  0  0  0
 48 56  1  0  0  0
 48 65  1  0  0  0
 48118  1  0  0  0
 49 50  1  0  0  0
 49 53  1  0  0  0
 49 64  1  0  0  0
 49119  1  0  0  0
 50 51  1  0  0  0
 50120  1  0  0  0
 50121  1  0  0  0
 51 52  1  0  0  0
 51122  1  0  0  0
 51123  1  0  0  0
 52124  1  0  0  0
 52125  1  0  0  0
 53 54  1  0  0  0
 54 55  2  0  0  0
 54126  1  0  0  0
 55 57  1  0  0  0
 55127  1  0  0  0
 56 69  2  0  0  0
 57 58  2  0  0  0
 57128  1  0  0  0
 58129  1  0  0  0
 59 60  1  0  0  0
 59 61  1  0  0  0
 59 62  1  0  0  0
 60130  1  0  0  0
 60131  1  0  0  0
 60132  1  0  0  0
 61133  1  0  0  0
 61134  1  0  0  0
 61135  1  0  0  0
 62136  1  0  0  0
 62137  1  0  0  0
 62138  1  0  0  0
 63 65  1  0  0  0
 63139  1  0  0  0
 63140  1  0  0  0
 63141  1  0  0  0
 64142  1  0  0  0
 65143  1  0  0  0
 68 77  1  0  0  0
 71 72  2  0  0  0
 71 84  1  0  0  0
 71144  1  0  0  0
 72 75  1  0  0  0
 72 80  1  0  0  0
 73 80  2  0  0  0
 73 81  1  0  0  0
 73 84  1  0  0  0
 74 76  1  0  0  0
 74145  1  0  0  0
 74146  1  0  0  0
 74147  1  0  0  0
 75 82  1  0  0  0
 75148  1  0  0  0
 75149  1  0  0  0
 76150  1  0  0  0
 76151  1  0  0  0
 76 78  1  0  0  0
 77 79  1  0  0  0
 77152  1  0  0  0
 77153  1  0  0  0
 78 79  1  0  0  0
 78 81  1  0  0  0
 78154  1  0  0  0
 79 83  1  0  0  0
 79155  1  0  0  0
 81156  1  0  0  0
 82157  1  0  0  0
 83158  1  0  0  0
M  ISO  4   1 100  68 101  77 101  82 100
M  END
> <chiral flag>
0

> <version>
0

> <s_m_source_file>
/data/baiqing/PycharmProjects/Reinvent-master-3.2/result/LINK_invent/BTK/process_docking_weight1_custom_product_contain_oxygen_bond_distance_aromatic_linkinvent_7_9_3/rearranged_h_0193.sdf

> <i_m_source_file_index>
14

> <r_mmod_Potential_Energy-OPLS-2005>
-256.107177734375

> <r_mmod_Stretch_Energy-OPLS-2005>
42.7470283508301

> <r_mmod_Bend_Energy-OPLS-2005>
102.150871276855

> <r_mmod_Torsional_Energy-OPLS-2005>
266.183990478516

> <r_mmod_Improper_Torsional_Energy-OPLS-2005>
5.5460786819458

> <r_mmod_Van_der_Waal_Energy-OPLS-2005>
131.05940246582

> <r_mmod_Electrostatic_Energy-OPLS-2005>
-583.771728515625

> <r_mmod_Solvation_Energy-OPLS-2005>
-237.044082641602

> <b_mmod_Minimization_Converged-OPLS-2005>
0

> <r_mmod_RMS_Derivative-OPLS-2005>
1.1339066028595

$$$$
14
                    3D
 Structure written by MMmdl.
155163  0  0  1  0            999 V2000
  -30.6899  -14.5382   20.5704 C   0  0  0  0  0  0
  -30.4291  -12.3492   19.4392 C   0  0  0  0  0  0
  -29.5028  -12.5072   18.2161 C   0  0  0  0  0  0
  -28.0244  -12.3553   18.6247 C   0  0  0  0  0  0
  -27.6568  -13.2133   19.8648 C   0  0  2  0  0  0
  -28.6982  -13.0380   20.9928 C   0  0  0  0  0  0
  -25.2577  -13.8191   20.5665 C   0  0  0  0  0  0
  -24.1838  -13.0454   20.9182 C   0  0  0  0  0  0
  -24.6398  -11.6920   20.8727 C   0  0  0  0  0  0
  -23.9059  -10.4304   21.0396 C   0  0  0  0  0  0
  -24.3617   -9.4217   21.9167 C   0  0  0  0  0  0
  -23.6298   -8.2249   22.0738 C   0  0  0  0  0  0
  -22.4276   -8.0288   21.3547 C   0  0  0  0  0  0
  -21.9913   -9.0254   20.4637 C   0  0  0  0  0  0
  -22.7232  -10.2138   20.3041 C   0  0  0  0  0  0
  -21.6855   -6.0739   22.5281 C   0  0  0  0  0  0
  -21.4010   -6.5641   23.8216 C   0  0  0  0  0  0
  -21.3660   -5.6793   24.9175 C   0  0  0  0  0  0
  -21.6052   -4.3058   24.7226 C   0  0  0  0  0  0
  -21.8820   -3.8150   23.4345 C   0  0  0  0  0  0
  -21.9194   -4.6969   22.3403 C   0  0  0  0  0  0
  -22.7858  -13.5243   21.1846 C   0  0  0  0  0  0
  -22.1658   -4.2164   21.0978 F   0  0  0  0  0  0
  -21.5637   -3.4535   25.7733 F   0  0  0  0  0  0
  -30.0228  -13.3546   20.4358 N   0  0  0  0  0  0
  -26.3002  -12.9356   20.3305 N   0  0  0  0  0  0
  -25.9326  -11.6518   20.5739 N   0  0  0  0  0  0
  -22.0499  -12.8230   22.0411 N   0  0  0  0  0  0
  -25.4333  -15.1899   20.4078 N   0  0  0  0  0  0
  -31.8283  -14.7058   20.1276 O   0  0  0  0  0  0
  -21.6643   -6.8880   21.4242 O   0  0  0  0  0  0
  -22.3534  -14.5542   20.6687 O   0  0  0  0  0  0
  -24.6177  -31.8653   23.2068 C   0  0  0  0  0  0
  -25.9053  -32.4813   23.8374 C   0  0  1  0  0  0
  -27.2275  -27.3910   20.1247 C   0  0  0  0  0  0
  -25.5892  -33.8610   24.2310 N   0  0  0  0  0  0
  -23.4083  -30.4882   21.5481 C   0  0  2  0  0  0
  -24.8559  -28.9496   20.1135 C   0  0  0  0  0  0
  -22.7431  -29.4645   22.4977 C   0  0  0  0  0  0
  -18.0269  -28.1360   22.8501 C   0  0  0  0  0  0
  -24.1485  -36.7313   23.2641 C   0  0  0  0  0  0
  -25.9404  -30.8223   21.3623 C   0  0  0  0  0  0
  -26.0192  -29.4529   20.7114 C   0  0  0  0  0  0
  -27.2119  -28.6853   20.7052 C   0  0  0  0  0  0
  -26.0505  -26.9173   19.5072 C   0  0  0  0  0  0
  -24.8696  -27.6841   19.5021 C   0  0  0  0  0  0
  -23.6190  -29.8207   20.1630 C   0  0  0  0  0  0
  -25.4101  -36.3113   24.0345 C   0  0  1  0  0  0
  -20.5869  -28.3656   23.1314 C   0  0  2  0  0  0
  -20.6762  -26.9391   22.5418 C   0  0  0  0  0  0
  -19.5735  -26.6375   21.5217 C   0  0  0  0  0  0
  -18.1915  -26.7907   22.1633 C   0  0  0  0  0  0
  -19.1524  -28.8820   23.2906 C   0  0  0  0  0  0
  -18.9453  -30.1427   23.8916 C   0  0  0  0  0  0
  -17.6459  -30.6575   24.0561 C   0  0  0  0  0  0
  -25.9028  -34.9479   23.5132 C   0  0  0  0  0  0
  -16.5345  -29.9079   23.6327 C   0  0  0  0  0  0
  -16.7262  -28.6490   23.0356 C   0  0  0  0  0  0
  -26.4460  -31.6589   25.0705 C   0  0  0  0  0  0
  -25.3732  -31.3704   26.1463 C   0  0  0  0  0  0
  -27.0279  -30.3029   24.6076 C   0  0  0  0  0  0
  -27.6030  -32.4305   25.7471 C   0  0  0  0  0  0
  -27.5582  -37.1807   24.8467 C   0  0  0  0  0  0
  -21.4149  -29.3034   22.3728 N   0  0  0  0  0  0
  -26.4289  -37.3793   23.9419 N   0  0  0  0  0  0
  -24.6744  -31.0730   22.0981 N   0  0  0  0  0  0
  -23.4189  -28.8194   23.3037 O   0  0  0  0  0  0
  -28.3580  -26.5897   20.1542 O   0  0  0  0  0  0
  -26.5605  -34.8933   22.4700 O   0  0  0  0  0  0
  -23.5360  -32.1419   23.7442 O   0  0  0  0  0  0
  -29.7778  -17.8866   19.1090 C   0  0  0  0  0  0
  -29.9926  -18.0393   20.4550 C   0  0  0  0  0  0
  -29.4357  -20.2128   19.8712 C   0  0  0  0  0  0
  -29.9774  -22.7416   21.9694 C   0  0  0  0  0  0
  -30.4644  -16.9380   21.4038 C   0  0  0  0  0  0
  -28.1934  -25.2918   20.7979 C   0  0  0  0  0  0
  -28.9415  -22.7137   20.8376 C   0  0  1  0  0  0
  -28.8815  -24.0901   20.0582 C   0  0  1  0  0  0
  -29.7707  -19.3802   20.8791 N   0  0  0  0  0  0
  -29.2001  -21.5999   19.9060 N   0  0  0  0  0  0
  -29.9883  -15.5634   21.1039 N   0  0  0  0  0  0
  -28.1335  -23.8489   18.8765 O   0  0  0  0  0  0
  -29.3307  -19.3794   18.3251 S   0  0  0  0  0  0
  -31.4718  -12.4584   19.1384 H   0  0  0  0  0  0
  -30.3455  -11.3462   19.8608 H   0  0  0  0  0  0
  -29.7604  -11.7706   17.4539 H   0  0  0  0  0  0
  -29.6614  -13.4866   17.7612 H   0  0  0  0  0  0
  -27.8475  -11.3005   18.8378 H   0  0  0  0  0  0
  -27.3754  -12.6078   17.7847 H   0  0  0  0  0  0
  -27.6880  -14.2543   19.5426 H   0  0  0  0  0  0
  -28.6900  -12.0124   21.3637 H   0  0  0  0  0  0
  -28.4473  -13.6626   21.8511 H   0  0  0  0  0  0
  -25.2758   -9.5706   22.4745 H   0  0  0  0  0  0
  -24.0024   -7.4639   22.7447 H   0  0  0  0  0  0
  -21.0853   -8.8760   19.8937 H   0  0  0  0  0  0
  -22.3676  -10.9677   19.6157 H   0  0  0  0  0  0
  -21.1987   -7.6146   23.9726 H   0  0  0  0  0  0
  -21.1486   -6.0514   25.9083 H   0  0  0  0  0  0
  -22.0598   -2.7615   23.2835 H   0  0  0  0  0  0
  -22.4097  -11.9888   22.4811 H   0  0  0  0  0  0
  -21.1113  -13.1255   22.2598 H   0  0  0  0  0  0
  -24.6736  -15.8534   20.5127 H   0  0  0  0  0  0
  -26.2915  -15.6241   20.0917 H   0  0  0  0  0  0
  -26.7126  -32.5521   23.1135 H   0  0  0  0  0  0
  -25.0034  -33.9751   25.0454 H   0  0  0  0  0  0
  -22.7000  -31.3072   21.4078 H   0  0  0  0  0  0
  -23.3746  -35.9647   23.3299 H   0  0  0  0  0  0
  -24.3591  -36.8919   22.2057 H   0  0  0  0  0  0
  -23.7231  -37.6517   23.6646 H   0  0  0  0  0  0
  -26.0526  -31.5850   20.5900 H   0  0  0  0  0  0
  -26.8292  -30.8800   21.9791 H   0  0  0  0  0  0
  -28.1089  -29.0694   21.1712 H   0  0  0  0  0  0
  -26.0401  -25.9433   19.0394 H   0  0  0  0  0  0
  -23.9786  -27.2894   19.0326 H   0  0  0  0  0  0
  -23.7321  -30.5969   19.4053 H   0  0  0  0  0  0
  -22.7416  -29.2439   19.8653 H   0  0  0  0  0  0
  -25.1274  -36.1975   25.0836 H   0  0  0  0  0  0
  -20.9957  -28.3211   24.1433 H   0  0  0  0  0  0
  -20.5655  -26.2266   23.3605 H   0  0  0  0  0  0
  -21.6630  -26.7426   22.1214 H   0  0  0  0  0  0
  -19.6900  -25.6293   21.1224 H   0  0  0  0  0  0
  -19.6661  -27.3207   20.6763 H   0  0  0  0  0  0
  -17.4187  -26.6661   21.4028 H   0  0  0  0  0  0
  -18.0311  -26.0031   22.9011 H   0  0  0  0  0  0
  -19.7930  -30.7232   24.2294 H   0  0  0  0  0  0
  -17.5015  -31.6259   24.5152 H   0  0  0  0  0  0
  -15.5347  -30.2992   23.7620 H   0  0  0  0  0  0
  -15.8659  -28.0807   22.7070 H   0  0  0  0  0  0
  -24.5900  -30.7038   25.7821 H   0  0  0  0  0  0
  -24.8924  -32.2862   26.4915 H   0  0  0  0  0  0
  -25.8096  -30.8885   27.0221 H   0  0  0  0  0  0
  -26.2817  -29.6803   24.1116 H   0  0  0  0  0  0
  -27.4038  -29.7238   25.4520 H   0  0  0  0  0  0
  -27.8659  -30.4340   23.9226 H   0  0  0  0  0  0
  -27.2641  -33.3592   26.2070 H   0  0  0  0  0  0
  -28.3830  -32.6877   25.0295 H   0  0  0  0  0  0
  -28.0707  -31.8418   26.5370 H   0  0  0  0  0  0
  -28.2597  -38.0107   24.7525 H   0  0  0  0  0  0
  -28.1079  -36.2641   24.6271 H   0  0  0  0  0  0
  -27.2314  -37.1438   25.8873 H   0  0  0  0  0  0
  -20.9302  -29.8778   21.6972 H   0  0  0  0  0  0
  -26.0181  -38.2872   24.1414 H   0  0  0  0  0  0
  -29.8875  -16.9824   18.5240 H   0  0  0  0  0  0
  -29.7278  -23.4982   22.7134 H   0  0  0  0  0  0
  -30.9743  -22.9672   21.5920 H   0  0  0  0  0  0
  -30.0282  -21.7854   22.4913 H   0  0  0  0  0  0
  -30.1520  -17.1694   22.4224 H   0  0  0  0  0  0
  -31.5558  -16.9410   21.4423 H   0  0  0  0  0  0
  -28.6439  -25.3959   21.7854 H   0  0  0  0  0  0
  -27.1488  -25.0466   20.9996 H   0  0  0  0  0  0
  -27.9597  -22.5322   21.2782 H   0  0  0  0  0  0
  -29.8922  -24.3875   19.7715 H   0  0  0  0  0  0
  -28.9522  -21.9555   18.9816 H   0  0  0  0  0  0
  -29.0428  -15.3556   21.3843 H   0  0  0  0  0  0
  -28.0503  -24.6890   18.4369 H   0  0  0  0  0  0
  1 25  1  0  0  0
  1 30  2  0  0  0
  1 81  1  0  0  0
  2  3  1  0  0  0
  2 25  1  0  0  0
  2 84  1  0  0  0
  2 85  1  0  0  0
  3  4  1  0  0  0
  3 86  1  0  0  0
  3 87  1  0  0  0
  4  5  1  0  0  0
  4 88  1  0  0  0
  4 89  1  0  0  0
  5  6  1  0  0  0
  5 26  1  0  0  0
  5 90  1  0  0  0
  6 25  1  0  0  0
  6 91  1  0  0  0
  6 92  1  0  0  0
  7  8  2  0  0  0
  7 26  1  0  0  0
  7 29  1  0  0  0
  8  9  1  0  0  0
  8 22  1  0  0  0
  9 10  1  0  0  0
  9 27  2  0  0  0
 10 11  2  0  0  0
 10 15  1  0  0  0
 11 12  1  0  0  0
 11 93  1  0  0  0
 12 13  2  0  0  0
 12 94  1  0  0  0
 13 14  1  0  0  0
 13 31  1  0  0  0
 14 15  2  0  0  0
 14 95  1  0  0  0
 15 96  1  0  0  0
 16 17  2  0  0  0
 16 21  1  0  0  0
 16 31  1  0  0  0
 17 18  1  0  0  0
 17 97  1  0  0  0
 18 19  2  0  0  0
 18 98  1  0  0  0
 19 20  1  0  0  0
 19 24  1  0  0  0
 20 21  2  0  0  0
 20 99  1  0  0  0
 21 23  1  0  0  0
 22 28  1  0  0  0
 22 32  2  0  0  0
 26 27  1  0  0  0
 28100  1  0  0  0
 28101  1  0  0  0
 29102  1  0  0  0
 29103  1  0  0  0
 33 34  1  0  0  0
 33 66  1  0  0  0
 33 70  2  0  0  0
 34 36  1  0  0  0
 34 59  1  0  0  0
 34104  1  0  0  0
 35 44  2  0  0  0
 35 45  1  0  0  0
 35 68  1  0  0  0
 36 56  1  0  0  0
 36105  1  0  0  0
 37 39  1  0  0  0
 37 47  1  0  0  0
 37 66  1  0  0  0
 37106  1  0  0  0
 38 43  2  0  0  0
 38 46  1  0  0  0
 38 47  1  0  0  0
 39 64  1  0  0  0
 39 67  2  0  0  0
 40 52  1  0  0  0
 40 53  2  0  0  0
 40 58  1  0  0  0
 41107  1  0  0  0
 41108  1  0  0  0
 41109  1  0  0  0
 41 48  1  0  0  0
 42 43  1  0  0  0
 42 66  1  0  0  0
 42110  1  0  0  0
 42111  1  0  0  0
 43 44  1  0  0  0
 44112  1  0  0  0
 45 46  2  0  0  0
 45113  1  0  0  0
 46114  1  0  0  0
 47115  1  0  0  0
 47116  1  0  0  0
 48 56  1  0  0  0
 48 65  1  0  0  0
 48117  1  0  0  0
 49 50  1  0  0  0
 49 53  1  0  0  0
 49 64  1  0  0  0
 49118  1  0  0  0
 50 51  1  0  0  0
 50119  1  0  0  0
 50120  1  0  0  0
 51 52  1  0  0  0
 51121  1  0  0  0
 51122  1  0  0  0
 52123  1  0  0  0
 52124  1  0  0  0
 53 54  1  0  0  0
 54 55  2  0  0  0
 54125  1  0  0  0
 55 57  1  0  0  0
 55126  1  0  0  0
 56 69  2  0  0  0
 57 58  2  0  0  0
 57127  1  0  0  0
 58128  1  0  0  0
 59 60  1  0  0  0
 59 61  1  0  0  0
 59 62  1  0  0  0
 60129  1  0  0  0
 60130  1  0  0  0
 60131  1  0  0  0
 61132  1  0  0  0
 61133  1  0  0  0
 61134  1  0  0  0
 62135  1  0  0  0
 62136  1  0  0  0
 62137  1  0  0  0
 63 65  1  0  0  0
 63138  1  0  0  0
 63139  1  0  0  0
 63140  1  0  0  0
 64141  1  0  0  0
 65142  1  0  0  0
 68 76  1  0  0  0
 71 72  2  0  0  0
 71 83  1  0  0  0
 71143  1  0  0  0
 72 75  1  0  0  0
 72 79  1  0  0  0
 73 79  2  0  0  0
 73 80  1  0  0  0
 73 83  1  0  0  0
 74144  1  0  0  0
 74145  1  0  0  0
 74146  1  0  0  0
 74 77  1  0  0  0
 75 81  1  0  0  0
 75147  1  0  0  0
 75148  1  0  0  0
 76 78  1  0  0  0
 76149  1  0  0  0
 76150  1  0  0  0
 77 78  1  0  0  0
 77 80  1  0  0  0
 77151  1  0  0  0
 78 82  1  0  0  0
 78152  1  0  0  0
 80153  1  0  0  0
 81154  1  0  0  0
 82155  1  0  0  0
M  ISO  4   1 100  68 101  76 101  81 100
M  END
> <chiral flag>
0

> <version>
0

> <s_m_source_file>
/data/baiqing/PycharmProjects/Reinvent-master-3.2/result/LINK_invent/BTK/process_docking_weight1_custom_product_contain_oxygen_bond_distance_aromatic_linkinvent_7_9_3/rearranged_h_0193.sdf

> <i_m_source_file_index>
15

> <r_mmod_Potential_Energy-OPLS-2005>
-278.364105224609

> <r_mmod_Stretch_Energy-OPLS-2005>
48.1244850158691

> <r_mmod_Bend_Energy-OPLS-2005>
111.925079345703

> <r_mmod_Torsional_Energy-OPLS-2005>
237.260101318359

> <r_mmod_Improper_Torsional_Energy-OPLS-2005>
3.43008923530579

> <r_mmod_Van_der_Waal_Energy-OPLS-2005>
123.629936218262

> <r_mmod_Electrostatic_Energy-OPLS-2005>
-594.173706054688

> <r_mmod_Solvation_Energy-OPLS-2005>
-231.923187255859

> <b_mmod_Minimization_Converged-OPLS-2005>
0

> <r_mmod_RMS_Derivative-OPLS-2005>
1.88336169719696

$$$$
15
                    3D
 Structure written by MMmdl.
160168  0  0  1  0            999 V2000
  -30.6528  -14.5770   20.4925 C   0  0  0  0  0  0
  -30.4176  -12.3445   19.4523 C   0  0  0  0  0  0
  -29.4911  -12.4732   18.2262 C   0  0  0  0  0  0
  -28.0154  -12.3222   18.6445 C   0  0  0  0  0  0
  -27.6444  -13.2127   19.8628 C   0  0  2  0  0  0
  -28.6881  -13.0760   20.9904 C   0  0  0  0  0  0
  -25.2526  -13.8093   20.5907 C   0  0  0  0  0  0
  -24.1832  -13.0373   20.9415 C   0  0  0  0  0  0
  -24.6379  -11.6848   20.8783 C   0  0  0  0  0  0
  -23.9090  -10.4229   21.0377 C   0  0  0  0  0  0
  -24.3639   -9.4161   21.9189 C   0  0  0  0  0  0
  -23.6320   -8.2213   22.0722 C   0  0  0  0  0  0
  -22.4298   -8.0249   21.3508 C   0  0  0  0  0  0
  -21.9954   -9.0216   20.4614 C   0  0  0  0  0  0
  -22.7281  -10.2122   20.3023 C   0  0  0  0  0  0
  -21.6846   -6.0710   22.5235 C   0  0  0  0  0  0
  -21.4070   -6.5637   23.8166 C   0  0  0  0  0  0
  -21.3689   -5.6798   24.9153 C   0  0  0  0  0  0
  -21.6052   -4.3057   24.7221 C   0  0  0  0  0  0
  -21.8837   -3.8146   23.4337 C   0  0  0  0  0  0
  -21.9205   -4.6939   22.3401 C   0  0  0  0  0  0
  -22.7834  -13.5112   21.2201 C   0  0  0  0  0  0
  -22.1660   -4.2141   21.0967 F   0  0  0  0  0  0
  -21.5666   -3.4546   25.7734 F   0  0  0  0  0  0
  -30.0031  -13.3803   20.4166 N   0  0  0  0  0  0
  -26.2948  -12.9320   20.3374 N   0  0  0  0  0  0
  -25.9258  -11.6446   20.5671 N   0  0  0  0  0  0
  -22.0644  -12.8003   22.0805 N   0  0  0  0  0  0
  -25.4283  -15.1831   20.4459 N   0  0  0  0  0  0
  -31.8223  -14.7002   20.1234 O   0  0  0  0  0  0
  -21.6635   -6.8865   21.4200 O   0  0  0  0  0  0
  -22.3420  -14.5394   20.7063 O   0  0  0  0  0  0
  -24.6195  -31.8618   23.2066 C   0  0  0  0  0  0
  -25.9075  -32.4778   23.8371 C   0  0  1  0  0  0
  -27.2309  -27.3728   20.1045 C   0  0  0  0  0  0
  -25.5942  -33.8576   24.2304 N   0  0  0  0  0  0
  -23.4112  -30.4842   21.5467 C   0  0  2  0  0  0
  -24.8631  -28.9407   20.1106 C   0  0  0  0  0  0
  -22.7445  -29.4626   22.4953 C   0  0  0  0  0  0
  -18.0259  -28.1386   22.8478 C   0  0  0  0  0  0
  -24.1493  -36.7314   23.2644 C   0  0  0  0  0  0
  -25.9445  -30.8024   21.3767 C   0  0  0  0  0  0
  -26.0221  -29.4295   20.7299 C   0  0  0  0  0  0
  -27.2079  -28.6501   20.7280 C   0  0  0  0  0  0
  -26.0618  -26.9188   19.4654 C   0  0  0  0  0  0
  -24.8844  -27.6907   19.4688 C   0  0  0  0  0  0
  -23.6272  -29.8161   20.1608 C   0  0  0  0  0  0
  -25.4120  -36.3085   24.0314 C   0  0  1  0  0  0
  -20.5853  -28.3683   23.1304 C   0  0  2  0  0  0
  -20.6759  -26.9419   22.5410 C   0  0  0  0  0  0
  -19.5742  -26.6391   21.5204 C   0  0  0  0  0  0
  -18.1913  -26.7920   22.1615 C   0  0  0  0  0  0
  -19.1511  -28.8846   23.2885 C   0  0  0  0  0  0
  -18.9452  -30.1443   23.8908 C   0  0  0  0  0  0
  -17.6465  -30.6600   24.0556 C   0  0  0  0  0  0
  -25.9043  -34.9444   23.5093 C   0  0  0  0  0  0
  -16.5346  -29.9109   23.6326 C   0  0  0  0  0  0
  -16.7245  -28.6516   23.0350 C   0  0  0  0  0  0
  -26.4506  -31.6579   25.0720 C   0  0  0  0  0  0
  -25.3766  -31.3731   26.1471 C   0  0  0  0  0  0
  -27.0344  -30.3004   24.6133 C   0  0  0  0  0  0
  -27.6056  -32.4327   25.7503 C   0  0  0  0  0  0
  -27.5564  -37.1819   24.8460 C   0  0  0  0  0  0
  -21.4156  -29.3054   22.3718 N   0  0  0  0  0  0
  -26.4286  -37.3772   23.9398 N   0  0  0  0  0  0
  -24.6764  -31.0666   22.1003 N   0  0  0  0  0  0
  -23.4194  -28.8158   23.2998 O   0  0  0  0  0  0
  -28.3760  -26.5921   20.0410 O   0  0  0  0  0  0
  -26.5593  -34.8907   22.4639 O   0  0  0  0  0  0
  -23.5395  -32.1394   23.7472 O   0  0  0  0  0  0
  -29.3518  -18.1612   20.2336 C   0  0  0  0  0  0
  -27.5749  -18.7257   19.0444 C   0  0  0  0  0  0
  -28.7593  -20.3228   20.0045 C   0  0  0  0  0  0
  -28.3459  -22.8275   18.1578 C   0  0  0  0  0  0
  -26.4211  -17.1123   17.5146 C   0  0  0  0  0  0
  -30.3783  -17.0802   20.6541 C   0  0  0  0  0  0
  -27.8762  -24.0034   20.4050 C   0  0  0  0  0  0
  -28.4350  -25.4056   20.8844 C   0  0  0  0  0  0
  -28.7840  -22.9669   19.6302 C   0  0  1  0  0  0
  -28.3319  -17.7374   19.4953 N   0  0  0  0  0  0
  -29.6076  -19.4452   20.5470 N   0  0  0  0  0  0
  -27.7149  -20.0262   19.2465 N   0  0  0  0  0  0
  -26.5071  -18.3691   18.2563 N   0  0  0  0  0  0
  -28.9861  -21.6675   20.3455 N   0  0  0  0  0  0
  -29.9056  -15.6717   20.7869 N   0  0  0  0  0  0
  -31.4581  -12.4589   19.1358 H   0  0  0  0  0  0
  -30.3522  -11.3499   19.8993 H   0  0  0  0  0  0
  -29.7538  -11.7340   17.4650 H   0  0  0  0  0  0
  -29.6334  -13.4526   17.7692 H   0  0  0  0  0  0
  -27.8501  -11.2732   18.8943 H   0  0  0  0  0  0
  -27.3567  -12.5371   17.8033 H   0  0  0  0  0  0
  -27.6625  -14.2440   19.5129 H   0  0  0  0  0  0
  -28.6827  -12.0587   21.3893 H   0  0  0  0  0  0
  -28.4521  -13.7326   21.8290 H   0  0  0  0  0  0
  -25.2777   -9.5625   22.4804 H   0  0  0  0  0  0
  -24.0025   -7.4634   22.7463 H   0  0  0  0  0  0
  -21.0924   -8.8679   19.8898 H   0  0  0  0  0  0
  -22.3795  -10.9638   19.6093 H   0  0  0  0  0  0
  -21.2084   -7.6163   23.9660 H   0  0  0  0  0  0
  -21.1521   -6.0556   25.9052 H   0  0  0  0  0  0
  -22.0639   -2.7597   23.2860 H   0  0  0  0  0  0
  -22.4434  -11.9836   22.5361 H   0  0  0  0  0  0
  -21.1297  -13.0967   22.3231 H   0  0  0  0  0  0
  -24.6832  -15.8454   20.6242 H   0  0  0  0  0  0
  -26.2617  -15.6214   20.0731 H   0  0  0  0  0  0
  -26.7136  -32.5473   23.1121 H   0  0  0  0  0  0
  -25.0152  -33.9729   25.0487 H   0  0  0  0  0  0
  -22.7017  -31.3044   21.4039 H   0  0  0  0  0  0
  -23.3715  -35.9675   23.3307 H   0  0  0  0  0  0
  -24.3592  -36.8951   22.2063 H   0  0  0  0  0  0
  -23.7266  -37.6524   23.6662 H   0  0  0  0  0  0
  -26.0639  -31.5617   20.6054 H   0  0  0  0  0  0
  -26.8327  -30.8657   21.9936 H   0  0  0  0  0  0
  -28.0991  -29.0180   21.2209 H   0  0  0  0  0  0
  -26.0694  -25.9760   18.9378 H   0  0  0  0  0  0
  -24.0081  -27.3291   18.9513 H   0  0  0  0  0  0
  -23.7454  -30.5934   19.4053 H   0  0  0  0  0  0
  -22.7479  -29.2466   19.8534 H   0  0  0  0  0  0
  -25.1289  -36.1924   25.0794 H   0  0  0  0  0  0
  -20.9910  -28.3242   24.1445 H   0  0  0  0  0  0
  -20.5667  -26.2296   23.3602 H   0  0  0  0  0  0
  -21.6627  -26.7480   22.1204 H   0  0  0  0  0  0
  -19.6928  -25.6303   21.1239 H   0  0  0  0  0  0
  -19.6683  -27.3185   20.6715 H   0  0  0  0  0  0
  -17.4187  -26.6636   21.4019 H   0  0  0  0  0  0
  -18.0345  -26.0071   22.9026 H   0  0  0  0  0  0
  -19.7922  -30.7221   24.2324 H   0  0  0  0  0  0
  -17.5025  -31.6274   24.5152 H   0  0  0  0  0  0
  -15.5347  -30.3034   23.7639 H   0  0  0  0  0  0
  -15.8629  -28.0830   22.7115 H   0  0  0  0  0  0
  -24.5913  -30.7092   25.7820 H   0  0  0  0  0  0
  -24.9009  -32.2935   26.4871 H   0  0  0  0  0  0
  -25.8142  -30.8934   27.0247 H   0  0  0  0  0  0
  -26.2885  -29.6749   24.1220 H   0  0  0  0  0  0
  -27.4108  -29.7255   25.4605 H   0  0  0  0  0  0
  -27.8721  -30.4288   23.9283 H   0  0  0  0  0  0
  -27.2595  -33.3586   26.2091 H   0  0  0  0  0  0
  -28.3869  -32.6947   25.0361 H   0  0  0  0  0  0
  -28.0688  -31.8461   26.5447 H   0  0  0  0  0  0
  -28.2589  -38.0111   24.7471 H   0  0  0  0  0  0
  -28.1062  -36.2643   24.6309 H   0  0  0  0  0  0
  -27.2290  -37.1480   25.8868 H   0  0  0  0  0  0
  -20.9340  -29.8831   21.6971 H   0  0  0  0  0  0
  -26.0170  -38.2845   24.1382 H   0  0  0  0  0  0
  -28.3660  -23.7842   17.6380 H   0  0  0  0  0  0
  -27.3238  -22.4543   18.0740 H   0  0  0  0  0  0
  -28.9950  -22.1584   17.5899 H   0  0  0  0  0  0
  -26.7961  -17.2570   16.4990 H   0  0  0  0  0  0
  -25.3815  -16.7813   17.4644 H   0  0  0  0  0  0
  -26.9901  -16.3068   17.9828 H   0  0  0  0  0  0
  -30.8408  -17.3695   21.5964 H   0  0  0  0  0  0
  -31.1628  -17.1225   19.8965 H   0  0  0  0  0  0
  -26.9278  -24.1519   19.8906 H   0  0  0  0  0  0
  -27.5953  -23.4985   21.3282 H   0  0  0  0  0  0
  -29.4683  -25.2829   21.2169 H   0  0  0  0  0  0
  -27.8965  -25.6540   21.8025 H   0  0  0  0  0  0
  -29.7857  -23.3935   19.5955 H   0  0  0  0  0  0
  -25.9548  -19.1478   17.9180 H   0  0  0  0  0  0
  -29.7080  -21.7338   21.0509 H   0  0  0  0  0  0
  -28.9322  -15.5392   21.0074 H   0  0  0  0  0  0
  1 25  1  0  0  0
  1 30  2  0  0  0
  1 85  1  0  0  0
  2  3  1  0  0  0
  2 25  1  0  0  0
  2 86  1  0  0  0
  2 87  1  0  0  0
  3  4  1  0  0  0
  3 88  1  0  0  0
  3 89  1  0  0  0
  4  5  1  0  0  0
  4 90  1  0  0  0
  4 91  1  0  0  0
  5  6  1  0  0  0
  5 26  1  0  0  0
  5 92  1  0  0  0
  6 25  1  0  0  0
  6 93  1  0  0  0
  6 94  1  0  0  0
  7  8  2  0  0  0
  7 26  1  0  0  0
  7 29  1  0  0  0
  8  9  1  0  0  0
  8 22  1  0  0  0
  9 10  1  0  0  0
  9 27  2  0  0  0
 10 11  2  0  0  0
 10 15  1  0  0  0
 11 12  1  0  0  0
 11 95  1  0  0  0
 12 13  2  0  0  0
 12 96  1  0  0  0
 13 14  1  0  0  0
 13 31  1  0  0  0
 14 15  2  0  0  0
 14 97  1  0  0  0
 15 98  1  0  0  0
 16 17  2  0  0  0
 16 21  1  0  0  0
 16 31  1  0  0  0
 17 18  1  0  0  0
 17 99  1  0  0  0
 18 19  2  0  0  0
 18100  1  0  0  0
 19 20  1  0  0  0
 19 24  1  0  0  0
 20 21  2  0  0  0
 20101  1  0  0  0
 21 23  1  0  0  0
 22 28  1  0  0  0
 22 32  2  0  0  0
 26 27  1  0  0  0
 28102  1  0  0  0
 28103  1  0  0  0
 29104  1  0  0  0
 29105  1  0  0  0
 33 34  1  0  0  0
 33 66  1  0  0  0
 33 70  2  0  0  0
 34 36  1  0  0  0
 34 59  1  0  0  0
 34106  1  0  0  0
 35 44  2  0  0  0
 35 45  1  0  0  0
 35 68  1  0  0  0
 36 56  1  0  0  0
 36107  1  0  0  0
 37 39  1  0  0  0
 37 47  1  0  0  0
 37 66  1  0  0  0
 37108  1  0  0  0
 38 43  2  0  0  0
 38 46  1  0  0  0
 38 47  1  0  0  0
 39 64  1  0  0  0
 39 67  2  0  0  0
 40 52  1  0  0  0
 40 53  2  0  0  0
 40 58  1  0  0  0
 41109  1  0  0  0
 41110  1  0  0  0
 41111  1  0  0  0
 41 48  1  0  0  0
 42 43  1  0  0  0
 42 66  1  0  0  0
 42112  1  0  0  0
 42113  1  0  0  0
 43 44  1  0  0  0
 44114  1  0  0  0
 45 46  2  0  0  0
 45115  1  0  0  0
 46116  1  0  0  0
 47117  1  0  0  0
 47118  1  0  0  0
 48 56  1  0  0  0
 48 65  1  0  0  0
 48119  1  0  0  0
 49 50  1  0  0  0
 49 53  1  0  0  0
 49 64  1  0  0  0
 49120  1  0  0  0
 50 51  1  0  0  0
 50121  1  0  0  0
 50122  1  0  0  0
 51 52  1  0  0  0
 51123  1  0  0  0
 51124  1  0  0  0
 52125  1  0  0  0
 52126  1  0  0  0
 53 54  1  0  0  0
 54 55  2  0  0  0
 54127  1  0  0  0
 55 57  1  0  0  0
 55128  1  0  0  0
 56 69  2  0  0  0
 57 58  2  0  0  0
 57129  1  0  0  0
 58130  1  0  0  0
 59 60  1  0  0  0
 59 61  1  0  0  0
 59 62  1  0  0  0
 60131  1  0  0  0
 60132  1  0  0  0
 60133  1  0  0  0
 61134  1  0  0  0
 61135  1  0  0  0
 61136  1  0  0  0
 62137  1  0  0  0
 62138  1  0  0  0
 62139  1  0  0  0
 63 65  1  0  0  0
 63140  1  0  0  0
 63141  1  0  0  0
 63142  1  0  0  0
 64143  1  0  0  0
 65144  1  0  0  0
 68 78  1  0  0  0
 71 76  1  0  0  0
 71 80  1  0  0  0
 71 81  2  0  0  0
 72 80  2  0  0  0
 72 82  1  0  0  0
 72 83  1  0  0  0
 73 81  1  0  0  0
 73 82  2  0  0  0
 73 84  1  0  0  0
 74145  1  0  0  0
 74146  1  0  0  0
 74147  1  0  0  0
 74 79  1  0  0  0
 75 83  1  0  0  0
 75148  1  0  0  0
 75149  1  0  0  0
 75150  1  0  0  0
 76 85  1  0  0  0
 76151  1  0  0  0
 76152  1  0  0  0
 77 78  1  0  0  0
 77 79  1  0  0  0
 77153  1  0  0  0
 77154  1  0  0  0
 78155  1  0  0  0
 78156  1  0  0  0
 79 84  1  0  0  0
 79157  1  0  0  0
 83158  1  0  0  0
 84159  1  0  0  0
 85160  1  0  0  0
M  ISO  4   1 100  68 101  78 101  85 100
M  END
> <chiral flag>
0

> <version>
0

> <s_m_source_file>
/data/baiqing/PycharmProjects/Reinvent-master-3.2/result/LINK_invent/BTK/process_docking_weight1_custom_product_contain_oxygen_bond_distance_aromatic_linkinvent_7_9_3/rearranged_h_0193.sdf

> <i_m_source_file_index>
16

> <r_mmod_Potential_Energy-OPLS-2005>
-1017.96942138672

> <r_mmod_Stretch_Energy-OPLS-2005>
53.6179695129395

> <r_mmod_Bend_Energy-OPLS-2005>
152.674087524414

> <r_mmod_Torsional_Energy-OPLS-2005>
234.251281738281

> <r_mmod_Improper_Torsional_Energy-OPLS-2005>
7.95949459075928

> <r_mmod_Van_der_Waal_Energy-OPLS-2005>
164.285736083984

> <r_mmod_Electrostatic_Energy-OPLS-2005>
-1423.79626464844

> <r_mmod_Solvation_Energy-OPLS-2005>
-238.332702636719

> <b_mmod_Minimization_Converged-OPLS-2005>
0

> <r_mmod_RMS_Derivative-OPLS-2005>
7.86158084869385

$$$$
16
                    3D
 Structure written by MMmdl.
160168  0  0  1  0            999 V2000
  -30.6889  -14.4429   20.6492 C   0  0  0  0  0  0
  -30.4351  -12.3062   19.4223 C   0  0  0  0  0  0
  -29.5046  -12.5157   18.2093 C   0  0  0  0  0  0
  -28.0249  -12.3694   18.6127 C   0  0  0  0  0  0
  -27.6675  -13.1949   19.8763 C   0  0  2  0  0  0
  -28.6976  -12.9340   20.9968 C   0  0  0  0  0  0
  -25.2620  -13.8134   20.5633 C   0  0  0  0  0  0
  -24.1844  -13.0428   20.9122 C   0  0  0  0  0  0
  -24.6383  -11.6885   20.8671 C   0  0  0  0  0  0
  -23.9031  -10.4294   21.0377 C   0  0  0  0  0  0
  -24.3599   -9.4218   21.9166 C   0  0  0  0  0  0
  -23.6278   -8.2253   22.0757 C   0  0  0  0  0  0
  -22.4262   -8.0277   21.3553 C   0  0  0  0  0  0
  -21.9885   -9.0242   20.4663 C   0  0  0  0  0  0
  -22.7198  -10.2127   20.3041 C   0  0  0  0  0  0
  -21.6857   -6.0726   22.5272 C   0  0  0  0  0  0
  -21.4024   -6.5632   23.8208 C   0  0  0  0  0  0
  -21.3651   -5.6785   24.9168 C   0  0  0  0  0  0
  -21.6039   -4.3043   24.7220 C   0  0  0  0  0  0
  -21.8814   -3.8134   23.4339 C   0  0  0  0  0  0
  -21.9201   -4.6953   22.3405 C   0  0  0  0  0  0
  -22.7871  -13.5254   21.1781 C   0  0  0  0  0  0
  -22.1662   -4.2134   21.0978 F   0  0  0  0  0  0
  -21.5632   -3.4529   25.7740 F   0  0  0  0  0  0
  -30.0441  -13.2548   20.4774 N   0  0  0  0  0  0
  -26.3037  -12.9285   20.3290 N   0  0  0  0  0  0
  -25.9298  -11.6445   20.5663 N   0  0  0  0  0  0
  -22.0498  -12.8284   22.0353 N   0  0  0  0  0  0
  -25.4392  -15.1856   20.4117 N   0  0  0  0  0  0
  -31.7279  -14.7433   20.0481 O   0  0  0  0  0  0
  -21.6642   -6.8862   21.4234 O   0  0  0  0  0  0
  -22.3578  -14.5566   20.6638 O   0  0  0  0  0  0
  -24.6156  -31.8667   23.2091 C   0  0  0  0  0  0
  -25.9040  -32.4814   23.8385 C   0  0  1  0  0  0
  -27.2355  -27.4252   20.0775 C   0  0  0  0  0  0
  -25.5890  -33.8616   24.2314 N   0  0  0  0  0  0
  -23.4035  -30.4901   21.5495 C   0  0  2  0  0  0
  -24.8502  -28.9550   20.1095 C   0  0  0  0  0  0
  -22.7414  -29.4646   22.4977 C   0  0  0  0  0  0
  -18.0270  -28.1389   22.8489 C   0  0  0  0  0  0
  -24.1483  -36.7318   23.2641 C   0  0  0  0  0  0
  -25.9341  -30.8232   21.3685 C   0  0  0  0  0  0
  -26.0089  -29.4572   20.7149 C   0  0  0  0  0  0
  -27.1991  -28.6916   20.7100 C   0  0  0  0  0  0
  -26.0590  -26.9400   19.4694 C   0  0  0  0  0  0
  -24.8700  -27.6939   19.4880 C   0  0  0  0  0  0
  -23.6125  -29.8231   20.1637 C   0  0  0  0  0  0
  -25.4099  -36.3111   24.0344 C   0  0  1  0  0  0
  -20.5861  -28.3669   23.1328 C   0  0  2  0  0  0
  -20.6754  -26.9402   22.5435 C   0  0  0  0  0  0
  -19.5746  -26.6389   21.5217 C   0  0  0  0  0  0
  -18.1917  -26.7930   22.1617 C   0  0  0  0  0  0
  -19.1517  -28.8840   23.2903 C   0  0  0  0  0  0
  -18.9449  -30.1447   23.8904 C   0  0  0  0  0  0
  -17.6453  -30.6593   24.0566 C   0  0  0  0  0  0
  -25.9036  -34.9472   23.5129 C   0  0  0  0  0  0
  -16.5336  -29.9091   23.6331 C   0  0  0  0  0  0
  -16.7263  -28.6512   23.0334 C   0  0  0  0  0  0
  -26.4465  -31.6602   25.0722 C   0  0  0  0  0  0
  -25.3744  -31.3728   26.1491 C   0  0  0  0  0  0
  -27.0291  -30.3036   24.6119 C   0  0  0  0  0  0
  -27.6049  -32.4325   25.7457 C   0  0  0  0  0  0
  -27.5583  -37.1799   24.8454 C   0  0  0  0  0  0
  -21.4139  -29.3031   22.3734 N   0  0  0  0  0  0
  -26.4281  -37.3797   23.9422 N   0  0  0  0  0  0
  -24.6687  -31.0745   22.1005 N   0  0  0  0  0  0
  -23.4172  -28.8195   23.3032 O   0  0  0  0  0  0
  -28.3855  -26.6606   20.1259 O   0  0  0  0  0  0
  -26.5602  -34.8929   22.4696 O   0  0  0  0  0  0
  -23.5350  -32.1421   23.7489 O   0  0  0  0  0  0
  -29.3923  -18.6878   20.7077 C   0  0  0  0  0  0
  -28.4952  -18.7283   21.7526 C   0  0  0  0  0  0
  -29.7199  -16.5872   21.4881 C   0  0  0  0  0  0
  -29.6084  -19.7691   19.7228 C   0  0  0  0  0  0
  -29.1603  -24.4097   17.1026 C   0  0  0  0  0  0
  -29.0638  -23.5536   19.5247 C   0  0  0  0  0  0
  -28.9359  -22.1032   18.9684 C   0  0  0  0  0  0
  -28.9090  -26.1277   18.9034 C   0  0  0  0  0  0
  -28.5853  -24.6487   18.5159 C   0  0  1  0  0  0
  -30.0779  -17.4654   20.5335 N   0  0  0  0  0  0
  -27.6019  -19.7307   22.1366 N   0  0  0  0  0  0
  -30.2849  -19.4862   18.6004 N   0  0  0  0  0  0
  -30.1369  -15.2310   21.5852 N   0  0  0  0  0  0
  -29.0993  -21.0062   19.9497 N   0  3  0  0  0  0
  -28.5389  -17.2259   22.6369 S   0  0  0  0  0  0
  -31.4792  -12.4264   19.1301 H   0  0  0  0  0  0
  -30.3485  -11.2844   19.7932 H   0  0  0  0  0  0
  -29.7536  -11.8015   17.4235 H   0  0  0  0  0  0
  -29.6695  -13.5063   17.7814 H   0  0  0  0  0  0
  -27.8357  -11.3116   18.7955 H   0  0  0  0  0  0
  -27.3793  -12.6523   17.7805 H   0  0  0  0  0  0
  -27.7287  -14.2485   19.6042 H   0  0  0  0  0  0
  -28.6644  -11.8870   21.2987 H   0  0  0  0  0  0
  -28.4228  -13.4895   21.8941 H   0  0  0  0  0  0
  -25.2755   -9.5715   22.4711 H   0  0  0  0  0  0
  -24.0003   -7.4656   22.7478 H   0  0  0  0  0  0
  -21.0811   -8.8743   19.8989 H   0  0  0  0  0  0
  -22.3642  -10.9647   19.6128 H   0  0  0  0  0  0
  -21.2021   -7.6144   23.9704 H   0  0  0  0  0  0
  -21.1478   -6.0517   25.9073 H   0  0  0  0  0  0
  -22.0613   -2.7596   23.2830 H   0  0  0  0  0  0
  -22.4107  -11.9981   22.4799 H   0  0  0  0  0  0
  -21.1112  -13.1335   22.2548 H   0  0  0  0  0  0
  -24.6801  -15.8466   20.5392 H   0  0  0  0  0  0
  -26.2984  -15.6233   20.1078 H   0  0  0  0  0  0
  -26.7101  -32.5517   23.1140 H   0  0  0  0  0  0
  -25.0015  -33.9767   25.0440 H   0  0  0  0  0  0
  -22.6918  -31.3073   21.4128 H   0  0  0  0  0  0
  -23.3743  -35.9652   23.3301 H   0  0  0  0  0  0
  -24.3575  -36.8933   22.2053 H   0  0  0  0  0  0
  -23.7233  -37.6523   23.6654 H   0  0  0  0  0  0
  -26.0506  -31.5871   20.5989 H   0  0  0  0  0  0
  -26.8213  -30.8748   21.9873 H   0  0  0  0  0  0
  -28.0893  -29.0667   21.1940 H   0  0  0  0  0  0
  -26.0383  -25.9676   19.0051 H   0  0  0  0  0  0
  -23.9764  -27.2991   19.0231 H   0  0  0  0  0  0
  -23.7168  -30.5990   19.4050 H   0  0  0  0  0  0
  -22.7360  -29.2428   19.8708 H   0  0  0  0  0  0
  -25.1266  -36.1966   25.0833 H   0  0  0  0  0  0
  -20.9951  -28.3239   24.1448 H   0  0  0  0  0  0
  -20.5660  -26.2270   23.3622 H   0  0  0  0  0  0
  -21.6625  -26.7440   22.1238 H   0  0  0  0  0  0
  -19.6911  -25.6305   21.1230 H   0  0  0  0  0  0
  -19.6703  -27.3208   20.6758 H   0  0  0  0  0  0
  -17.4204  -26.6705   21.3998 H   0  0  0  0  0  0
  -18.0296  -26.0060   22.9000 H   0  0  0  0  0  0
  -19.7924  -30.7256   24.2269 H   0  0  0  0  0  0
  -17.5013  -31.6263   24.5184 H   0  0  0  0  0  0
  -15.5346  -30.2996   23.7653 H   0  0  0  0  0  0
  -15.8662  -28.0849   22.7023 H   0  0  0  0  0  0
  -24.5904  -30.7078   25.7837 H   0  0  0  0  0  0
  -24.8960  -32.2905   26.4932 H   0  0  0  0  0  0
  -25.8122  -30.8904   27.0247 H   0  0  0  0  0  0
  -26.2837  -29.6793   24.1186 H   0  0  0  0  0  0
  -27.4050  -29.7269   25.4579 H   0  0  0  0  0  0
  -27.8673  -30.4317   23.9268 H   0  0  0  0  0  0
  -27.2665  -33.3604   26.2074 H   0  0  0  0  0  0
  -28.3825  -32.6932   25.0265 H   0  0  0  0  0  0
  -28.0770  -31.8444   26.5337 H   0  0  0  0  0  0
  -28.2595  -38.0102   24.7516 H   0  0  0  0  0  0
  -28.1082  -36.2637   24.6240 H   0  0  0  0  0  0
  -27.2326  -37.1413   25.8864 H   0  0  0  0  0  0
  -20.9307  -29.8723   21.6932 H   0  0  0  0  0  0
  -26.0174  -38.2874   24.1434 H   0  0  0  0  0  0
  -28.8394  -23.4617   16.6725 H   0  0  0  0  0  0
  -30.2511  -24.4232   17.1060 H   0  0  0  0  0  0
  -28.8288  -25.1814   16.4070 H   0  0  0  0  0  0
  -30.1044  -23.7339   19.7980 H   0  0  0  0  0  0
  -28.4891  -23.6460   20.4472 H   0  0  0  0  0  0
  -29.6644  -21.9629   18.1719 H   0  0  0  0  0  0
  -27.9537  -21.9756   18.5118 H   0  0  0  0  0  0
  -28.6178  -26.7910   18.0863 H   0  0  0  0  0  0
  -29.9933  -26.2289   18.9727 H   0  0  0  0  0  0
  -27.5072  -24.5369   18.4234 H   0  0  0  0  0  0
  -26.7784  -19.7625   21.5383 H   0  0  0  0  0  0
  -27.2506  -19.5766   23.0761 H   0  0  0  0  0  0
  -30.6474  -18.5465   18.5182 H   0  0  0  0  0  0
  -30.5452  -20.1682   17.9092 H   0  0  0  0  0  0
  -29.5798  -14.7052   22.2399 H   0  0  0  0  0  0
  -28.5648  -21.0636   20.8154 H   0  0  0  0  0  0
  1 25  1  0  0  0
  1 30  2  0  0  0
  1 83  1  0  0  0
  2  3  1  0  0  0
  2 25  1  0  0  0
  2 86  1  0  0  0
  2 87  1  0  0  0
  3  4  1  0  0  0
  3 88  1  0  0  0
  3 89  1  0  0  0
  4  5  1  0  0  0
  4 90  1  0  0  0
  4 91  1  0  0  0
  5  6  1  0  0  0
  5 26  1  0  0  0
  5 92  1  0  0  0
  6 25  1  0  0  0
  6 93  1  0  0  0
  6 94  1  0  0  0
  7  8  2  0  0  0
  7 26  1  0  0  0
  7 29  1  0  0  0
  8  9  1  0  0  0
  8 22  1  0  0  0
  9 10  1  0  0  0
  9 27  2  0  0  0
 10 11  2  0  0  0
 10 15  1  0  0  0
 11 12  1  0  0  0
 11 95  1  0  0  0
 12 13  2  0  0  0
 12 96  1  0  0  0
 13 14  1  0  0  0
 13 31  1  0  0  0
 14 15  2  0  0  0
 14 97  1  0  0  0
 15 98  1  0  0  0
 16 17  2  0  0  0
 16 21  1  0  0  0
 16 31  1  0  0  0
 17 18  1  0  0  0
 17 99  1  0  0  0
 18 19  2  0  0  0
 18100  1  0  0  0
 19 20  1  0  0  0
 19 24  1  0  0  0
 20 21  2  0  0  0
 20101  1  0  0  0
 21 23  1  0  0  0
 22 28  1  0  0  0
 22 32  2  0  0  0
 26 27  1  0  0  0
 28102  1  0  0  0
 28103  1  0  0  0
 29104  1  0  0  0
 29105  1  0  0  0
 33 34  1  0  0  0
 33 66  1  0  0  0
 33 70  2  0  0  0
 34 36  1  0  0  0
 34 59  1  0  0  0
 34106  1  0  0  0
 35 44  2  0  0  0
 35 45  1  0  0  0
 35 68  1  0  0  0
 36 56  1  0  0  0
 36107  1  0  0  0
 37 39  1  0  0  0
 37 47  1  0  0  0
 37 66  1  0  0  0
 37108  1  0  0  0
 38 43  2  0  0  0
 38 46  1  0  0  0
 38 47  1  0  0  0
 39 64  1  0  0  0
 39 67  2  0  0  0
 40 52  1  0  0  0
 40 53  2  0  0  0
 40 58  1  0  0  0
 41109  1  0  0  0
 41110  1  0  0  0
 41111  1  0  0  0
 41 48  1  0  0  0
 42 43  1  0  0  0
 42 66  1  0  0  0
 42112  1  0  0  0
 42113  1  0  0  0
 43 44  1  0  0  0
 44114  1  0  0  0
 45 46  2  0  0  0
 45115  1  0  0  0
 46116  1  0  0  0
 47117  1  0  0  0
 47118  1  0  0  0
 48 56  1  0  0  0
 48 65  1  0  0  0
 48119  1  0  0  0
 49 50  1  0  0  0
 49 53  1  0  0  0
 49 64  1  0  0  0
 49120  1  0  0  0
 50 51  1  0  0  0
 50121  1  0  0  0
 50122  1  0  0  0
 51 52  1  0  0  0
 51123  1  0  0  0
 51124  1  0  0  0
 52125  1  0  0  0
 52126  1  0  0  0
 53 54  1  0  0  0
 54 55  2  0  0  0
 54127  1  0  0  0
 55 57  1  0  0  0
 55128  1  0  0  0
 56 69  2  0  0  0
 57 58  2  0  0  0
 57129  1  0  0  0
 58130  1  0  0  0
 59 60  1  0  0  0
 59 61  1  0  0  0
 59 62  1  0  0  0
 60131  1  0  0  0
 60132  1  0  0  0
 60133  1  0  0  0
 61134  1  0  0  0
 61135  1  0  0  0
 61136  1  0  0  0
 62137  1  0  0  0
 62138  1  0  0  0
 62139  1  0  0  0
 63 65  1  0  0  0
 63140  1  0  0  0
 63141  1  0  0  0
 63142  1  0  0  0
 64143  1  0  0  0
 65144  1  0  0  0
 68 78  1  0  0  0
 71 72  2  0  0  0
 71 74  1  0  0  0
 71 80  1  0  0  0
 72 81  1  0  0  0
 72 85  1  0  0  0
 73 80  2  0  0  0
 73 83  1  0  0  0
 73 85  1  0  0  0
 74 82  1  0  0  0
 74 84  2  0  0  0
 75145  1  0  0  0
 75146  1  0  0  0
 75147  1  0  0  0
 75 79  1  0  0  0
 76 77  1  0  0  0
 76 79  1  0  0  0
 76148  1  0  0  0
 76149  1  0  0  0
 77 84  1  0  0  0
 77150  1  0  0  0
 77151  1  0  0  0
 78 79  1  0  0  0
 78152  1  0  0  0
 78153  1  0  0  0
 79154  1  0  0  0
 81155  1  0  0  0
 81156  1  0  0  0
 82157  1  0  0  0
 82158  1  0  0  0
 83159  1  0  0  0
 84160  1  0  0  0
M  CHG  1  84   1
M  ISO  4   1 100  68 101  78 101  83 100
M  END
> <chiral flag>
0

> <version>
0

> <s_m_source_file>
/data/baiqing/PycharmProjects/Reinvent-master-3.2/result/LINK_invent/BTK/process_docking_weight1_custom_product_contain_oxygen_bond_distance_aromatic_linkinvent_7_9_3/rearranged_h_0193.sdf

> <i_m_source_file_index>
17

> <r_mmod_Potential_Energy-OPLS-2005>
-123.708702087402

> <r_mmod_Stretch_Energy-OPLS-2005>
39.2232437133789

> <r_mmod_Bend_Energy-OPLS-2005>
128.653015136719

> <r_mmod_Torsional_Energy-OPLS-2005>
246.566162109375

> <r_mmod_Improper_Torsional_Energy-OPLS-2005>
12.3260507583618

> <r_mmod_Van_der_Waal_Energy-OPLS-2005>
134.931076049805

> <r_mmod_Electrostatic_Energy-OPLS-2005>
-256.584411621094

> <r_mmod_Solvation_Energy-OPLS-2005>
-441.974945068359

> <b_mmod_Minimization_Converged-OPLS-2005>
0

> <r_mmod_RMS_Derivative-OPLS-2005>
2.7377028465271

$$$$
17
                    3D
 Structure written by MMmdl.
160168  0  0  1  0            999 V2000
  -30.6956  -14.4734   20.5657 C   0  0  0  0  0  0
  -30.4257  -12.3034   19.4261 C   0  0  0  0  0  0
  -29.4976  -12.5011   18.2091 C   0  0  0  0  0  0
  -28.0186  -12.3605   18.6204 C   0  0  0  0  0  0
  -27.6634  -13.2025   19.8753 C   0  0  2  0  0  0
  -28.7037  -12.9816   20.9979 C   0  0  0  0  0  0
  -25.2608  -13.8147   20.5682 C   0  0  0  0  0  0
  -24.1851  -13.0435   20.9176 C   0  0  0  0  0  0
  -24.6390  -11.6896   20.8724 C   0  0  0  0  0  0
  -23.9051  -10.4290   21.0392 C   0  0  0  0  0  0
  -24.3604   -9.4210   21.9176 C   0  0  0  0  0  0
  -23.6282   -8.2245   22.0754 C   0  0  0  0  0  0
  -22.4267   -8.0279   21.3543 C   0  0  0  0  0  0
  -21.9897   -9.0247   20.4644 C   0  0  0  0  0  0
  -22.7219  -10.2128   20.3045 C   0  0  0  0  0  0
  -21.6853   -6.0730   22.5275 C   0  0  0  0  0  0
  -21.4016   -6.5631   23.8208 C   0  0  0  0  0  0
  -21.3661   -5.6785   24.9170 C   0  0  0  0  0  0
  -21.6041   -4.3047   24.7221 C   0  0  0  0  0  0
  -21.8821   -3.8139   23.4341 C   0  0  0  0  0  0
  -21.9196   -4.6959   22.3398 C   0  0  0  0  0  0
  -22.7877  -13.5250   21.1829 C   0  0  0  0  0  0
  -22.1663   -4.2147   21.0975 F   0  0  0  0  0  0
  -21.5631   -3.4530   25.7734 F   0  0  0  0  0  0
  -30.0372  -13.2868   20.4497 N   0  0  0  0  0  0
  -26.3034  -12.9304   20.3352 N   0  0  0  0  0  0
  -25.9316  -11.6471   20.5749 N   0  0  0  0  0  0
  -22.0504  -12.8247   22.0377 N   0  0  0  0  0  0
  -25.4352  -15.1863   20.4102 N   0  0  0  0  0  0
  -31.8237  -14.6481   20.0949 O   0  0  0  0  0  0
  -21.6634   -6.8871   21.4237 O   0  0  0  0  0  0
  -22.3574  -14.5562   20.6680 O   0  0  0  0  0  0
  -24.6115  -31.8696   23.2110 C   0  0  0  0  0  0
  -25.9015  -32.4833   23.8410 C   0  0  1  0  0  0
  -27.2464  -27.4487   20.1039 C   0  0  0  0  0  0
  -25.5883  -33.8632   24.2341 N   0  0  0  0  0  0
  -23.4009  -30.4904   21.5502 C   0  0  2  0  0  0
  -24.8528  -28.9568   20.1174 C   0  0  0  0  0  0
  -22.7400  -29.4658   22.4998 C   0  0  0  0  0  0
  -18.0273  -28.1381   22.8499 C   0  0  0  0  0  0
  -24.1483  -36.7323   23.2637 C   0  0  0  0  0  0
  -25.9258  -30.8398   21.3626 C   0  0  0  0  0  0
  -26.0074  -29.4708   20.7208 C   0  0  0  0  0  0
  -27.2054  -28.7222   20.7233 C   0  0  0  0  0  0
  -26.0814  -26.9549   19.4849 C   0  0  0  0  0  0
  -24.8827  -27.6941   19.4992 C   0  0  0  0  0  0
  -23.6116  -29.8198   20.1653 C   0  0  0  0  0  0
  -25.4100  -36.3123   24.0342 C   0  0  1  0  0  0
  -20.5863  -28.3664   23.1332 C   0  0  2  0  0  0
  -20.6761  -26.9403   22.5426 C   0  0  0  0  0  0
  -19.5739  -26.6396   21.5221 C   0  0  0  0  0  0
  -18.1917  -26.7931   22.1630 C   0  0  0  0  0  0
  -19.1523  -28.8840   23.2913 C   0  0  0  0  0  0
  -18.9452  -30.1450   23.8918 C   0  0  0  0  0  0
  -17.6454  -30.6587   24.0575 C   0  0  0  0  0  0
  -25.9027  -34.9484   23.5141 C   0  0  0  0  0  0
  -16.5345  -29.9093   23.6327 C   0  0  0  0  0  0
  -16.7265  -28.6513   23.0343 C   0  0  0  0  0  0
  -26.4458  -31.6600   25.0722 C   0  0  0  0  0  0
  -25.3737  -31.3693   26.1485 C   0  0  0  0  0  0
  -27.0288  -30.3051   24.6064 C   0  0  0  0  0  0
  -27.6054  -32.4299   25.7476 C   0  0  0  0  0  0
  -27.5582  -37.1813   24.8461 C   0  0  0  0  0  0
  -21.4132  -29.3030   22.3735 N   0  0  0  0  0  0
  -26.4288  -37.3804   23.9415 N   0  0  0  0  0  0
  -24.6638  -31.0809   22.1003 N   0  0  0  0  0  0
  -23.4175  -28.8203   23.3041 O   0  0  0  0  0  0
  -28.3684  -26.6488   20.0586 O   0  0  0  0  0  0
  -26.5592  -34.8929   22.4704 O   0  0  0  0  0  0
  -23.5311  -32.1442   23.7506 O   0  0  0  0  0  0
  -29.0399  -17.6697   21.4762 C   0  0  0  0  0  0
  -31.0425  -18.8249   20.1051 C   0  0  0  0  0  0
  -30.0918  -16.8749   20.9466 C   0  0  0  0  0  0
  -29.9706  -19.6016   20.6103 C   0  0  0  0  0  0
  -27.6973  -21.3395   19.3735 C   0  0  0  0  0  0
  -30.1770  -25.4420   21.2435 C   0  0  0  0  0  0
  -28.9654  -23.3141   20.3125 C   0  0  0  0  0  0
  -29.1957  -26.6423   21.2188 C   0  0  0  0  0  0
  -28.6987  -21.7827   20.4568 C   0  0  2  0  0  0
  -29.6276  -24.0129   21.5244 C   0  0  2  0  0  0
  -31.1033  -17.4801   20.2679 N   0  0  0  0  0  0
  -28.9719  -19.0180   21.3151 N   0  0  0  0  0  0
  -29.9823  -15.4638   21.1385 N   0  0  0  0  0  0
  -29.9337  -20.9890   20.3733 N   0  0  0  0  0  0
  -28.7545  -24.0264   22.6435 O   0  0  0  0  0  0
  -31.4706  -12.4006   19.1248 H   0  0  0  0  0  0
  -30.3263  -11.2926   19.8241 H   0  0  0  0  0  0
  -29.7389  -11.7750   17.4317 H   0  0  0  0  0  0
  -29.6665  -13.4856   17.7703 H   0  0  0  0  0  0
  -27.8315  -11.3048   18.8200 H   0  0  0  0  0  0
  -27.3684  -12.6318   17.7879 H   0  0  0  0  0  0
  -27.7091  -14.2497   19.5760 H   0  0  0  0  0  0
  -28.6802  -11.9446   21.3374 H   0  0  0  0  0  0
  -28.4606  -13.5769   21.8792 H   0  0  0  0  0  0
  -25.2753   -9.5688   22.4744 H   0  0  0  0  0  0
  -23.9994   -7.4642   22.7473 H   0  0  0  0  0  0
  -21.0833   -8.8758   19.8950 H   0  0  0  0  0  0
  -22.3677  -10.9660   19.6149 H   0  0  0  0  0  0
  -21.2005   -7.6140   23.9710 H   0  0  0  0  0  0
  -21.1482   -6.0512   25.9074 H   0  0  0  0  0  0
  -22.0600   -2.7602   23.2838 H   0  0  0  0  0  0
  -22.4100  -11.9895   22.4759 H   0  0  0  0  0  0
  -21.1123  -13.1283   22.2566 H   0  0  0  0  0  0
  -24.6663  -15.8398   20.5117 H   0  0  0  0  0  0
  -26.2771  -15.6205   20.0550 H   0  0  0  0  0  0
  -26.7092  -32.5572   23.1188 H   0  0  0  0  0  0
  -25.0029  -33.9801   25.0482 H   0  0  0  0  0  0
  -22.6882  -31.3056   21.4093 H   0  0  0  0  0  0
  -23.3744  -35.9657   23.3302 H   0  0  0  0  0  0
  -24.3585  -36.8932   22.2052 H   0  0  0  0  0  0
  -23.7231  -37.6528   23.6645 H   0  0  0  0  0  0
  -26.0291  -31.5995   20.5864 H   0  0  0  0  0  0
  -26.8165  -30.9046   21.9751 H   0  0  0  0  0  0
  -28.0893  -29.1324   21.1906 H   0  0  0  0  0  0
  -26.1020  -25.9867   19.0045 H   0  0  0  0  0  0
  -23.9969  -27.2894   19.0296 H   0  0  0  0  0  0
  -23.7177  -30.5932   19.4034 H   0  0  0  0  0  0
  -22.7372  -29.2360   19.8718 H   0  0  0  0  0  0
  -25.1269  -36.1999   25.0834 H   0  0  0  0  0  0
  -20.9966  -28.3228   24.1450 H   0  0  0  0  0  0
  -20.5679  -26.2263   23.3606 H   0  0  0  0  0  0
  -21.6630  -26.7454   22.1210 H   0  0  0  0  0  0
  -19.6892  -25.6317   21.1226 H   0  0  0  0  0  0
  -19.6672  -27.3227   20.6767 H   0  0  0  0  0  0
  -17.4190  -26.6702   21.4027 H   0  0  0  0  0  0
  -18.0303  -26.0067   22.9019 H   0  0  0  0  0  0
  -19.7929  -30.7267   24.2289 H   0  0  0  0  0  0
  -17.5009  -31.6268   24.5177 H   0  0  0  0  0  0
  -15.5345  -30.2998   23.7640 H   0  0  0  0  0  0
  -15.8667  -28.0842   22.7034 H   0  0  0  0  0  0
  -24.5894  -30.7056   25.7828 H   0  0  0  0  0  0
  -24.8945  -32.2844   26.4974 H   0  0  0  0  0  0
  -25.8102  -30.8833   27.0219 H   0  0  0  0  0  0
  -26.2825  -29.6815   24.1127 H   0  0  0  0  0  0
  -27.4095  -29.7277   25.4498 H   0  0  0  0  0  0
  -27.8640  -30.4395   23.9184 H   0  0  0  0  0  0
  -27.2707  -33.3602   26.2079 H   0  0  0  0  0  0
  -28.3851  -32.6844   25.0285 H   0  0  0  0  0  0
  -28.0729  -31.8395   26.5366 H   0  0  0  0  0  0
  -28.2596  -38.0113   24.7527 H   0  0  0  0  0  0
  -28.1078  -36.2649   24.6255 H   0  0  0  0  0  0
  -27.2310  -37.1441   25.8866 H   0  0  0  0  0  0
  -20.9287  -29.8755   21.6964 H   0  0  0  0  0  0
  -26.0179  -38.2885   24.1416 H   0  0  0  0  0  0
  -28.2232  -17.2165   22.0198 H   0  0  0  0  0  0
  -31.8495  -19.2798   19.5492 H   0  0  0  0  0  0
  -26.7746  -21.9182   19.4341 H   0  0  0  0  0  0
  -27.4154  -20.2917   19.4768 H   0  0  0  0  0  0
  -28.1042  -21.4771   18.3709 H   0  0  0  0  0  0
  -30.9048  -25.6581   22.0271 H   0  0  0  0  0  0
  -30.7585  -25.4342   20.3211 H   0  0  0  0  0  0
  -28.0257  -23.8284   20.1024 H   0  0  0  0  0  0
  -29.5781  -23.4799   19.4248 H   0  0  0  0  0  0
  -29.7810  -27.5630   21.2239 H   0  0  0  0  0  0
  -28.5913  -26.6524   22.1278 H   0  0  0  0  0  0
  -28.2413  -21.6072   21.4325 H   0  0  0  0  0  0
  -30.4879  -23.4024   21.8042 H   0  0  0  0  0  0
  -29.1289  -15.1579   21.5775 H   0  0  0  0  0  0
  -30.6894  -21.3586   19.8038 H   0  0  0  0  0  0
  -27.9644  -24.4966   22.3967 H   0  0  0  0  0  0
  1 25  1  0  0  0
  1 30  2  0  0  0
  1 83  1  0  0  0
  2  3  1  0  0  0
  2 25  1  0  0  0
  2 86  1  0  0  0
  2 87  1  0  0  0
  3  4  1  0  0  0
  3 88  1  0  0  0
  3 89  1  0  0  0
  4  5  1  0  0  0
  4 90  1  0  0  0
  4 91  1  0  0  0
  5  6  1  0  0  0
  5 26  1  0  0  0
  5 92  1  0  0  0
  6 25  1  0  0  0
  6 93  1  0  0  0
  6 94  1  0  0  0
  7  8  2  0  0  0
  7 26  1  0  0  0
  7 29  1  0  0  0
  8  9  1  0  0  0
  8 22  1  0  0  0
  9 10  1  0  0  0
  9 27  2  0  0  0
 10 11  2  0  0  0
 10 15  1  0  0  0
 11 12  1  0  0  0
 11 95  1  0  0  0
 12 13  2  0  0  0
 12 96  1  0  0  0
 13 14  1  0  0  0
 13 31  1  0  0  0
 14 15  2  0  0  0
 14 97  1  0  0  0
 15 98  1  0  0  0
 16 17  2  0  0  0
 16 21  1  0  0  0
 16 31  1  0  0  0
 17 18  1  0  0  0
 17 99  1  0  0  0
 18 19  2  0  0  0
 18100  1  0  0  0
 19 20  1  0  0  0
 19 24  1  0  0  0
 20 21  2  0  0  0
 20101  1  0  0  0
 21 23  1  0  0  0
 22 28  1  0  0  0
 22 32  2  0  0  0
 26 27  1  0  0  0
 28102  1  0  0  0
 28103  1  0  0  0
 29104  1  0  0  0
 29105  1  0  0  0
 33 34  1  0  0  0
 33 66  1  0  0  0
 33 70  2  0  0  0
 34 36  1  0  0  0
 34 59  1  0  0  0
 34106  1  0  0  0
 35 44  2  0  0  0
 35 45  1  0  0  0
 35 68  1  0  0  0
 36 56  1  0  0  0
 36107  1  0  0  0
 37 39  1  0  0  0
 37 47  1  0  0  0
 37 66  1  0  0  0
 37108  1  0  0  0
 38 43  2  0  0  0
 38 46  1  0  0  0
 38 47  1  0  0  0
 39 64  1  0  0  0
 39 67  2  0  0  0
 40 52  1  0  0  0
 40 53  2  0  0  0
 40 58  1  0  0  0
 41109  1  0  0  0
 41110  1  0  0  0
 41111  1  0  0  0
 41 48  1  0  0  0
 42 43  1  0  0  0
 42 66  1  0  0  0
 42112  1  0  0  0
 42113  1  0  0  0
 43 44  1  0  0  0
 44114  1  0  0  0
 45 46  2  0  0  0
 45115  1  0  0  0
 46116  1  0  0  0
 47117  1  0  0  0
 47118  1  0  0  0
 48 56  1  0  0  0
 48 65  1  0  0  0
 48119  1  0  0  0
 49 50  1  0  0  0
 49 53  1  0  0  0
 49 64  1  0  0  0
 49120  1  0  0  0
 50 51  1  0  0  0
 50121  1  0  0  0
 50122  1  0  0  0
 51 52  1  0  0  0
 51123  1  0  0  0
 51124  1  0  0  0
 52125  1  0  0  0
 52126  1  0  0  0
 53 54  1  0  0  0
 54 55  2  0  0  0
 54127  1  0  0  0
 55 57  1  0  0  0
 55128  1  0  0  0
 56 69  2  0  0  0
 57 58  2  0  0  0
 57129  1  0  0  0
 58130  1  0  0  0
 59 60  1  0  0  0
 59 61  1  0  0  0
 59 62  1  0  0  0
 60131  1  0  0  0
 60132  1  0  0  0
 60133  1  0  0  0
 61134  1  0  0  0
 61135  1  0  0  0
 61136  1  0  0  0
 62137  1  0  0  0
 62138  1  0  0  0
 62139  1  0  0  0
 63 65  1  0  0  0
 63140  1  0  0  0
 63141  1  0  0  0
 63142  1  0  0  0
 64143  1  0  0  0
 65144  1  0  0  0
 68 78  1  0  0  0
 71 73  2  0  0  0
 71 82  1  0  0  0
 71145  1  0  0  0
 72 74  1  0  0  0
 72 81  2  0  0  0
 72146  1  0  0  0
 73 81  1  0  0  0
 73 83  1  0  0  0
 74 82  2  0  0  0
 74 84  1  0  0  0
 75147  1  0  0  0
 75148  1  0  0  0
 75149  1  0  0  0
 75 79  1  0  0  0
 76 78  1  0  0  0
 76 80  1  0  0  0
 76150  1  0  0  0
 76151  1  0  0  0
 77 79  1  0  0  0
 77 80  1  0  0  0
 77152  1  0  0  0
 77153  1  0  0  0
 78154  1  0  0  0
 78155  1  0  0  0
 79 84  1  0  0  0
 79156  1  0  0  0
 80 85  1  0  0  0
 80157  1  0  0  0
 83158  1  0  0  0
 84159  1  0  0  0
 85160  1  0  0  0
M  ISO  4   1 100  68 101  78 101  83 100
M  END
> <chiral flag>
0

> <version>
0

> <s_m_source_file>
/data/baiqing/PycharmProjects/Reinvent-master-3.2/result/LINK_invent/BTK/process_docking_weight1_custom_product_contain_oxygen_bond_distance_aromatic_linkinvent_7_9_3/rearranged_h_0193.sdf

> <i_m_source_file_index>
18

> <r_mmod_Potential_Energy-OPLS-2005>
-25.7821636199951

> <r_mmod_Stretch_Energy-OPLS-2005>
40.080509185791

> <r_mmod_Bend_Energy-OPLS-2005>
117.050323486328

> <r_mmod_Torsional_Energy-OPLS-2005>
217.897567749023

> <r_mmod_Improper_Torsional_Energy-OPLS-2005>
4.7619104385376

> <r_mmod_Van_der_Waal_Energy-OPLS-2005>
155.436996459961

> <r_mmod_Electrostatic_Energy-OPLS-2005>
-316.283355712891

> <r_mmod_Solvation_Energy-OPLS-2005>
-256.437927246094

> <b_mmod_Minimization_Converged-OPLS-2005>
0

> <r_mmod_RMS_Derivative-OPLS-2005>
0.889184951782227

$$$$
18
                    3D
 Structure written by MMmdl.
168176  0  0  1  0            999 V2000
  -30.6886  -14.4566   20.6547 C   0  0  0  0  0  0
  -30.4402  -12.3277   19.4048 C   0  0  0  0  0  0
  -29.4990  -12.5417   18.2006 C   0  0  0  0  0  0
  -28.0201  -12.3877   18.6099 C   0  0  0  0  0  0
  -27.6694  -13.2011   19.8826 C   0  0  2  0  0  0
  -28.7087  -12.9273   20.9927 C   0  0  0  0  0  0
  -25.2595  -13.8125   20.5612 C   0  0  0  0  0  0
  -24.1854  -13.0421   20.9166 C   0  0  0  0  0  0
  -24.6402  -11.6892   20.8721 C   0  0  0  0  0  0
  -23.9057  -10.4291   21.0407 C   0  0  0  0  0  0
  -24.3604   -9.4211   21.9188 C   0  0  0  0  0  0
  -23.6288   -8.2241   22.0749 C   0  0  0  0  0  0
  -22.4271   -8.0278   21.3547 C   0  0  0  0  0  0
  -21.9907   -9.0255   20.4647 C   0  0  0  0  0  0
  -22.7227  -10.2139   20.3059 C   0  0  0  0  0  0
  -21.6852   -6.0737   22.5289 C   0  0  0  0  0  0
  -21.4008   -6.5641   23.8222 C   0  0  0  0  0  0
  -21.3655   -5.6787   24.9184 C   0  0  0  0  0  0
  -21.6045   -4.3051   24.7225 C   0  0  0  0  0  0
  -21.8819   -3.8144   23.4343 C   0  0  0  0  0  0
  -21.9189   -4.6964   22.3404 C   0  0  0  0  0  0
  -22.7879  -13.5243   21.1835 C   0  0  0  0  0  0
  -22.1665   -4.2155   21.0978 F   0  0  0  0  0  0
  -21.5634   -3.4533   25.7735 F   0  0  0  0  0  0
  -30.0501  -13.2654   20.4706 N   0  0  0  0  0  0
  -26.3055  -12.9295   20.3358 N   0  0  0  0  0  0
  -25.9328  -11.6465   20.5732 N   0  0  0  0  0  0
  -22.0491  -12.8265   22.0390 N   0  0  0  0  0  0
  -25.4251  -15.1827   20.3928 N   0  0  0  0  0  0
  -31.7186  -14.7724   20.0463 O   0  0  0  0  0  0
  -21.6631   -6.8879   21.4249 O   0  0  0  0  0  0
  -22.3587  -14.5555   20.6676 O   0  0  0  0  0  0
  -24.6159  -31.8672   23.2077 C   0  0  0  0  0  0
  -25.9046  -32.4817   23.8382 C   0  0  1  0  0  0
  -27.2382  -27.4233   20.0985 C   0  0  0  0  0  0
  -25.5899  -33.8615   24.2315 N   0  0  0  0  0  0
  -23.4039  -30.4892   21.5498 C   0  0  2  0  0  0
  -24.8499  -28.9499   20.1166 C   0  0  0  0  0  0
  -22.7416  -29.4652   22.4998 C   0  0  0  0  0  0
  -18.0270  -28.1373   22.8492 C   0  0  0  0  0  0
  -24.1485  -36.7313   23.2639 C   0  0  0  0  0  0
  -25.9337  -30.8298   21.3605 C   0  0  0  0  0  0
  -26.0110  -29.4632   20.7075 C   0  0  0  0  0  0
  -27.2089  -28.7107   20.6868 C   0  0  0  0  0  0
  -26.0560  -26.9225   19.5089 C   0  0  0  0  0  0
  -24.8687  -27.6804   19.5124 C   0  0  0  0  0  0
  -23.6117  -29.8179   20.1656 C   0  0  0  0  0  0
  -25.4107  -36.3111   24.0339 C   0  0  1  0  0  0
  -20.5858  -28.3657   23.1324 C   0  0  2  0  0  0
  -20.6755  -26.9394   22.5420 C   0  0  0  0  0  0
  -19.5735  -26.6380   21.5211 C   0  0  0  0  0  0
  -18.1915  -26.7922   22.1625 C   0  0  0  0  0  0
  -19.1519  -28.8833   23.2904 C   0  0  0  0  0  0
  -18.9446  -30.1441   23.8907 C   0  0  0  0  0  0
  -17.6450  -30.6581   24.0560 C   0  0  0  0  0  0
  -25.9037  -34.9476   23.5127 C   0  0  0  0  0  0
  -16.5340  -29.9084   23.6324 C   0  0  0  0  0  0
  -16.7258  -28.6499   23.0346 C   0  0  0  0  0  0
  -26.4463  -31.6605   25.0720 C   0  0  0  0  0  0
  -25.3722  -31.3719   26.1470 C   0  0  0  0  0  0
  -27.0296  -30.3048   24.6103 C   0  0  0  0  0  0
  -27.6043  -32.4324   25.7477 C   0  0  0  0  0  0
  -27.5584  -37.1810   24.8463 C   0  0  0  0  0  0
  -21.4141  -29.3030   22.3742 N   0  0  0  0  0  0
  -26.4296  -37.3796   23.9409 N   0  0  0  0  0  0
  -24.6697  -31.0764   22.0980 N   0  0  0  0  0  0
  -23.4190  -28.8198   23.3042 O   0  0  0  0  0  0
  -28.4178  -26.7026   20.0907 O   0  0  0  0  0  0
  -26.5600  -34.8933   22.4688 O   0  0  0  0  0  0
  -23.5350  -32.1423   23.7469 O   0  0  0  0  0  0
  -28.1821  -16.5729   21.7995 C   0  0  0  0  0  0
  -29.5123  -16.4871   21.4822 C   0  0  0  0  0  0
  -29.2497  -18.7653   21.4394 C   0  0  0  0  0  0
  -30.5960  -20.4688   22.7247 C   0  0  0  0  0  0
  -31.7483  -22.5318   18.4254 C   0  0  0  0  0  0
  -29.6946  -21.5084   17.3322 C   0  0  0  0  0  0
  -29.9261  -23.2170   20.9066 C   0  0  0  0  0  0
  -28.3363  -25.2767   20.2922 C   0  0  0  0  0  0
  -29.5846  -20.2373   21.5859 C   0  0  1  0  0  0
  -30.2084  -22.4454   18.4405 C   0  0  0  0  0  0
  -29.6186  -22.1085   19.8405 C   0  0  1  0  0  0
  -29.7665  -24.7324   20.5479 C   0  0  1  0  0  0
  -30.1141  -17.7423   21.2321 N   0  0  0  0  0  0
  -30.1489  -15.2201   21.6211 N   0  0  0  0  0  0
  -30.0428  -20.7245   20.2612 N   0  3  0  0  0  0
  -30.2448  -25.4408   21.6792 O   0  0  0  0  0  0
  -27.6165  -18.2132   21.8041 S   0  0  0  0  0  0
  -31.4803  -12.4623   19.1023 H   0  0  0  0  0  0
  -30.3682  -11.3014   19.7689 H   0  0  0  0  0  0
  -29.7426  -11.8387   17.4031 H   0  0  0  0  0  0
  -29.6591  -13.5383   17.7855 H   0  0  0  0  0  0
  -27.8304  -11.3278   18.7844 H   0  0  0  0  0  0
  -27.3681  -12.6811   17.7860 H   0  0  0  0  0  0
  -27.7275  -14.2582   19.6209 H   0  0  0  0  0  0
  -28.6878  -11.8714   21.2673 H   0  0  0  0  0  0
  -28.4400  -13.4561   21.9076 H   0  0  0  0  0  0
  -25.2748   -9.5697   22.4770 H   0  0  0  0  0  0
  -24.0007   -7.4626   22.7461 H   0  0  0  0  0  0
  -21.0841   -8.8770   19.8951 H   0  0  0  0  0  0
  -22.3682  -10.9679   19.6169 H   0  0  0  0  0  0
  -21.2003   -7.6148   23.9736 H   0  0  0  0  0  0
  -21.1480   -6.0509   25.9091 H   0  0  0  0  0  0
  -22.0598   -2.7604   23.2829 H   0  0  0  0  0  0
  -22.4062  -11.9917   22.4805 H   0  0  0  0  0  0
  -21.1109  -13.1327   22.2555 H   0  0  0  0  0  0
  -24.6450  -15.8246   20.4798 H   0  0  0  0  0  0
  -26.2586  -15.6212   20.0221 H   0  0  0  0  0  0
  -26.7120  -32.5520   23.1148 H   0  0  0  0  0  0
  -25.0044  -33.9766   25.0456 H   0  0  0  0  0  0
  -22.6932  -31.3065   21.4101 H   0  0  0  0  0  0
  -23.3748  -35.9646   23.3308 H   0  0  0  0  0  0
  -24.3577  -36.8920   22.2052 H   0  0  0  0  0  0
  -23.7237  -37.6522   23.6645 H   0  0  0  0  0  0
  -26.0476  -31.5962   20.5924 H   0  0  0  0  0  0
  -26.8213  -30.8822   21.9794 H   0  0  0  0  0  0
  -28.1083  -29.1095   21.1347 H   0  0  0  0  0  0
  -26.0424  -25.9536   19.0312 H   0  0  0  0  0  0
  -23.9769  -27.2807   19.0489 H   0  0  0  0  0  0
  -23.7176  -30.5909   19.4036 H   0  0  0  0  0  0
  -22.7351  -29.2374   19.8722 H   0  0  0  0  0  0
  -25.1281  -36.1979   25.0832 H   0  0  0  0  0  0
  -20.9949  -28.3216   24.1445 H   0  0  0  0  0  0
  -20.5649  -26.2264   23.3606 H   0  0  0  0  0  0
  -21.6629  -26.7434   22.1222 H   0  0  0  0  0  0
  -19.6897  -25.6294   21.1231 H   0  0  0  0  0  0
  -19.6677  -27.3196   20.6746 H   0  0  0  0  0  0
  -17.4188  -26.6674   21.4022 H   0  0  0  0  0  0
  -18.0313  -26.0059   22.9017 H   0  0  0  0  0  0
  -19.7922  -30.7251   24.2288 H   0  0  0  0  0  0
  -17.5004  -31.6264   24.5162 H   0  0  0  0  0  0
  -15.5339  -30.2989   23.7638 H   0  0  0  0  0  0
  -15.8661  -28.0824   22.7053 H   0  0  0  0  0  0
  -24.5877  -30.7089   25.7805 H   0  0  0  0  0  0
  -24.8930  -32.2880   26.4935 H   0  0  0  0  0  0
  -25.8065  -30.8870   27.0221 H   0  0  0  0  0  0
  -26.2849  -29.6817   24.1138 H   0  0  0  0  0  0
  -27.4051  -29.7277   25.4563 H   0  0  0  0  0  0
  -27.8685  -30.4372   23.9264 H   0  0  0  0  0  0
  -27.2666  -33.3611   26.2087 H   0  0  0  0  0  0
  -28.3829  -32.6909   25.0288 H   0  0  0  0  0  0
  -28.0739  -31.8432   26.5363 H   0  0  0  0  0  0
  -28.2606  -38.0103   24.7516 H   0  0  0  0  0  0
  -28.1074  -36.2638   24.6277 H   0  0  0  0  0  0
  -27.2305  -37.1456   25.8867 H   0  0  0  0  0  0
  -20.9306  -29.8761   21.6970 H   0  0  0  0  0  0
  -26.0187  -38.2879   24.1398 H   0  0  0  0  0  0
  -27.4928  -15.7843   22.0712 H   0  0  0  0  0  0
  -30.2144  -20.0621   23.6610 H   0  0  0  0  0  0
  -30.8009  -21.5227   22.8988 H   0  0  0  0  0  0
  -31.5452  -19.9744   22.5195 H   0  0  0  0  0  0
  -32.1101  -22.8365   17.4428 H   0  0  0  0  0  0
  -32.2167  -21.5754   18.6557 H   0  0  0  0  0  0
  -32.1260  -23.2656   19.1380 H   0  0  0  0  0  0
  -30.0406  -21.8429   16.3529 H   0  0  0  0  0  0
  -28.6041  -21.4946   17.2957 H   0  0  0  0  0  0
  -30.0407  -20.4828   17.4603 H   0  0  0  0  0  0
  -30.9608  -23.0817   21.2220 H   0  0  0  0  0  0
  -29.3209  -23.0277   21.7936 H   0  0  0  0  0  0
  -27.6798  -25.0476   21.1341 H   0  0  0  0  0  0
  -27.9186  -24.7922   19.4094 H   0  0  0  0  0  0
  -28.6529  -20.7460   21.8382 H   0  0  0  0  0  0
  -29.8368  -23.4313   18.1606 H   0  0  0  0  0  0
  -28.5321  -22.0820   19.7336 H   0  0  0  0  0  0
  -30.4077  -24.9908   19.7044 H   0  0  0  0  0  0
  -29.6119  -14.6134   22.2202 H   0  0  0  0  0  0
  -29.6691  -20.0733   19.5889 H   0  0  0  0  0  0
  -31.0446  -20.6309   20.2249 H   0  0  0  0  0  0
  -30.0740  -26.3644   21.5087 H   0  0  0  0  0  0
  1 25  1  0  0  0
  1 30  2  0  0  0
  1 84  1  0  0  0
  2  3  1  0  0  0
  2 25  1  0  0  0
  2 88  1  0  0  0
  2 89  1  0  0  0
  3  4  1  0  0  0
  3 90  1  0  0  0
  3 91  1  0  0  0
  4  5  1  0  0  0
  4 92  1  0  0  0
  4 93  1  0  0  0
  5  6  1  0  0  0
  5 26  1  0  0  0
  5 94  1  0  0  0
  6 25  1  0  0  0
  6 95  1  0  0  0
  6 96  1  0  0  0
  7  8  2  0  0  0
  7 26  1  0  0  0
  7 29  1  0  0  0
  8  9  1  0  0  0
  8 22  1  0  0  0
  9 10  1  0  0  0
  9 27  2  0  0  0
 10 11  2  0  0  0
 10 15  1  0  0  0
 11 12  1  0  0  0
 11 97  1  0  0  0
 12 13  2  0  0  0
 12 98  1  0  0  0
 13 14  1  0  0  0
 13 31  1  0  0  0
 14 15  2  0  0  0
 14 99  1  0  0  0
 15100  1  0  0  0
 16 17  2  0  0  0
 16 21  1  0  0  0
 16 31  1  0  0  0
 17 18  1  0  0  0
 17101  1  0  0  0
 18 19  2  0  0  0
 18102  1  0  0  0
 19 20  1  0  0  0
 19 24  1  0  0  0
 20 21  2  0  0  0
 20103  1  0  0  0
 21 23  1  0  0  0
 22 28  1  0  0  0
 22 32  2  0  0  0
 26 27  1  0  0  0
 28104  1  0  0  0
 28105  1  0  0  0
 29106  1  0  0  0
 29107  1  0  0  0
 33 34  1  0  0  0
 33 66  1  0  0  0
 33 70  2  0  0  0
 34 36  1  0  0  0
 34 59  1  0  0  0
 34108  1  0  0  0
 35 44  2  0  0  0
 35 45  1  0  0  0
 35 68  1  0  0  0
 36 56  1  0  0  0
 36109  1  0  0  0
 37 39  1  0  0  0
 37 47  1  0  0  0
 37 66  1  0  0  0
 37110  1  0  0  0
 38 43  2  0  0  0
 38 46  1  0  0  0
 38 47  1  0  0  0
 39 64  1  0  0  0
 39 67  2  0  0  0
 40 52  1  0  0  0
 40 53  2  0  0  0
 40 58  1  0  0  0
 41111  1  0  0  0
 41112  1  0  0  0
 41113  1  0  0  0
 41 48  1  0  0  0
 42 43  1  0  0  0
 42 66  1  0  0  0
 42114  1  0  0  0
 42115  1  0  0  0
 43 44  1  0  0  0
 44116  1  0  0  0
 45 46  2  0  0  0
 45117  1  0  0  0
 46118  1  0  0  0
 47119  1  0  0  0
 47120  1  0  0  0
 48 56  1  0  0  0
 48 65  1  0  0  0
 48121  1  0  0  0
 49 50  1  0  0  0
 49 53  1  0  0  0
 49 64  1  0  0  0
 49122  1  0  0  0
 50 51  1  0  0  0
 50123  1  0  0  0
 50124  1  0  0  0
 51 52  1  0  0  0
 51125  1  0  0  0
 51126  1  0  0  0
 52127  1  0  0  0
 52128  1  0  0  0
 53 54  1  0  0  0
 54 55  2  0  0  0
 54129  1  0  0  0
 55 57  1  0  0  0
 55130  1  0  0  0
 56 69  2  0  0  0
 57 58  2  0  0  0
 57131  1  0  0  0
 58132  1  0  0  0
 59 60  1  0  0  0
 59 61  1  0  0  0
 59 62  1  0  0  0
 60133  1  0  0  0
 60134  1  0  0  0
 60135  1  0  0  0
 61136  1  0  0  0
 61137  1  0  0  0
 61138  1  0  0  0
 62139  1  0  0  0
 62140  1  0  0  0
 62141  1  0  0  0
 63 65  1  0  0  0
 63142  1  0  0  0
 63143  1  0  0  0
 63144  1  0  0  0
 64145  1  0  0  0
 65146  1  0  0  0
 68 78  1  0  0  0
 71 72  2  0  0  0
 71 87  1  0  0  0
 71147  1  0  0  0
 72 83  1  0  0  0
 72 84  1  0  0  0
 73 79  1  0  0  0
 73 83  2  0  0  0
 73 87  1  0  0  0
 74148  1  0  0  0
 74149  1  0  0  0
 74150  1  0  0  0
 74 79  1  0  0  0
 75151  1  0  0  0
 75152  1  0  0  0
 75153  1  0  0  0
 75 80  1  0  0  0
 76 80  1  0  0  0
 76154  1  0  0  0
 76155  1  0  0  0
 76156  1  0  0  0
 77 82  1  0  0  0
 77157  1  0  0  0
 77158  1  0  0  0
 77 81  1  0  0  0
 78 82  1  0  0  0
 78159  1  0  0  0
 78160  1  0  0  0
 79 85  1  0  0  0
 79161  1  0  0  0
 80 81  1  0  0  0
 80162  1  0  0  0
 81 85  1  0  0  0
 81163  1  0  0  0
 82 86  1  0  0  0
 82164  1  0  0  0
 84165  1  0  0  0
 85166  1  0  0  0
 85167  1  0  0  0
 86168  1  0  0  0
M  CHG  1  85   1
M  ISO  4   1 100  68 101  78 101  84 100
M  END
> <chiral flag>
0

> <version>
0

> <s_m_source_file>
/data/baiqing/PycharmProjects/Reinvent-master-3.2/result/LINK_invent/BTK/process_docking_weight1_custom_product_contain_oxygen_bond_distance_aromatic_linkinvent_7_9_3/rearranged_h_0193.sdf

> <i_m_source_file_index>
19

> <r_mmod_Potential_Energy-OPLS-2005>
-256.364196777344

> <r_mmod_Stretch_Energy-OPLS-2005>
43.8393707275391

> <r_mmod_Bend_Energy-OPLS-2005>
131.066177368164

> <r_mmod_Torsional_Energy-OPLS-2005>
276.897338867188

> <r_mmod_Improper_Torsional_Energy-OPLS-2005>
8.61508941650391

> <r_mmod_Van_der_Waal_Energy-OPLS-2005>
116.480476379395

> <r_mmod_Electrostatic_Energy-OPLS-2005>
-378.139343261719

> <r_mmod_Solvation_Energy-OPLS-2005>
-467.665222167969

> <b_mmod_Minimization_Converged-OPLS-2005>
0

> <r_mmod_RMS_Derivative-OPLS-2005>
1.35720467567444

$$$$
19
                    3D
 Structure written by MMmdl.
169177  0  0  1  0            999 V2000
  -30.6571  -14.5518   20.5795 C   0  0  0  0  0  0
  -30.4280  -12.3588   19.4257 C   0  0  0  0  0  0
  -29.4929  -12.5115   18.2063 C   0  0  0  0  0  0
  -28.0125  -12.3617   18.6141 C   0  0  0  0  0  0
  -27.6524  -13.2082   19.8639 C   0  0  2  0  0  0
  -28.6958  -13.0215   20.9877 C   0  0  0  0  0  0
  -25.2586  -13.8165   20.5661 C   0  0  0  0  0  0
  -24.1830  -13.0438   20.9169 C   0  0  0  0  0  0
  -24.6372  -11.6904   20.8716 C   0  0  0  0  0  0
  -23.9040  -10.4293   21.0393 C   0  0  0  0  0  0
  -24.3615   -9.4223   21.9174 C   0  0  0  0  0  0
  -23.6301   -8.2254   22.0742 C   0  0  0  0  0  0
  -22.4288   -8.0275   21.3530 C   0  0  0  0  0  0
  -21.9912   -9.0252   20.4646 C   0  0  0  0  0  0
  -22.7222  -10.2132   20.3047 C   0  0  0  0  0  0
  -21.6859   -6.0734   22.5281 C   0  0  0  0  0  0
  -21.4018   -6.5647   23.8214 C   0  0  0  0  0  0
  -21.3658   -5.6797   24.9185 C   0  0  0  0  0  0
  -21.6043   -4.3059   24.7222 C   0  0  0  0  0  0
  -21.8828   -3.8148   23.4344 C   0  0  0  0  0  0
  -21.9203   -4.6967   22.3398 C   0  0  0  0  0  0
  -22.7879  -13.5240   21.1827 C   0  0  0  0  0  0
  -22.1674   -4.2157   21.0981 F   0  0  0  0  0  0
  -21.5630   -3.4536   25.7731 F   0  0  0  0  0  0
  -30.0135  -13.3561   20.4278 N   0  0  0  0  0  0
  -26.2973  -12.9309   20.3305 N   0  0  0  0  0  0
  -25.9292  -11.6476   20.5724 N   0  0  0  0  0  0
  -22.0524  -12.8225   22.0383 N   0  0  0  0  0  0
  -25.4356  -15.1874   20.4089 N   0  0  0  0  0  0
  -31.8120  -14.7211   20.1620 O   0  0  0  0  0  0
  -21.6653   -6.8869   21.4227 O   0  0  0  0  0  0
  -22.3552  -14.5533   20.6679 O   0  0  0  0  0  0
  -24.6220  -31.8644   23.2078 C   0  0  0  0  0  0
  -25.9099  -32.4816   23.8361 C   0  0  1  0  0  0
  -27.2258  -27.3628   20.0921 C   0  0  0  0  0  0
  -25.5978  -33.8622   24.2309 N   0  0  0  0  0  0
  -23.4129  -30.4924   21.5460 C   0  0  2  0  0  0
  -24.8578  -28.9560   20.1096 C   0  0  0  0  0  0
  -22.7459  -29.4639   22.4892 C   0  0  0  0  0  0
  -18.0312  -28.1399   22.8511 C   0  0  0  0  0  0
  -24.1483  -36.7234   23.2639 C   0  0  0  0  0  0
  -25.9536  -30.8021   21.3797 C   0  0  0  0  0  0
  -26.0244  -29.4351   20.7198 C   0  0  0  0  0  0
  -27.2069  -28.6449   20.7113 C   0  0  0  0  0  0
  -26.0395  -26.9405   19.4445 C   0  0  0  0  0  0
  -24.8641  -27.7074   19.4728 C   0  0  0  0  0  0
  -23.6290  -29.8354   20.1579 C   0  0  0  0  0  0
  -25.4119  -36.3078   24.0335 C   0  0  1  0  0  0
  -20.5909  -28.3689   23.1273 C   0  0  2  0  0  0
  -20.6774  -26.9406   22.5394 C   0  0  0  0  0  0
  -19.5736  -26.6399   21.5206 C   0  0  0  0  0  0
  -18.1931  -26.7957   22.1630 C   0  0  0  0  0  0
  -19.1568  -28.8856   23.2908 C   0  0  0  0  0  0
  -18.9491  -30.1474   23.8910 C   0  0  0  0  0  0
  -17.6482  -30.6597   24.0575 C   0  0  0  0  0  0
  -25.9054  -34.9468   23.5097 C   0  0  0  0  0  0
  -16.5378  -29.9093   23.6333 C   0  0  0  0  0  0
  -16.7307  -28.6517   23.0354 C   0  0  0  0  0  0
  -26.4523  -31.6670   25.0742 C   0  0  0  0  0  0
  -25.3794  -31.3802   26.1497 C   0  0  0  0  0  0
  -27.0358  -30.3110   24.6174 C   0  0  0  0  0  0
  -27.6101  -32.4414   25.7514 C   0  0  0  0  0  0
  -27.5570  -37.1769   24.8481 C   0  0  0  0  0  0
  -21.4170  -29.3052   22.3657 N   0  0  0  0  0  0
  -26.4274  -37.3787   23.9434 N   0  0  0  0  0  0
  -24.6813  -31.0684   22.1014 N   0  0  0  0  0  0
  -23.4219  -28.8142   23.2912 O   0  0  0  0  0  0
  -28.3611  -26.5506   20.1485 O   0  0  0  0  0  0
  -26.5563  -34.8928   22.4632 O   0  0  0  0  0  0
  -23.5392  -32.1428   23.7431 O   0  0  0  0  0  0
  -31.1516  -19.1590   22.5676 C   0  0  0  0  0  0
  -31.0027  -17.9777   23.3539 C   0  0  0  0  0  0
  -30.4099  -19.1223   21.3488 C   0  0  0  0  0  0
  -30.2472  -16.8109   21.5301 C   0  0  0  0  0  0
  -29.6594  -17.8371   25.5095 C   0  0  0  0  0  0
  -33.1943  -20.0304   24.0214 C   0  0  0  0  0  0
  -33.0702  -20.5796   21.6486 C   0  0  0  0  0  0
  -31.0619  -17.8985   24.8804 C   0  0  0  0  0  0
  -29.1208  -24.1176   20.6345 C   0  0  0  0  0  0
  -29.8520  -21.6136   21.1127 C   0  0  0  0  0  0
  -28.2413  -25.1258   19.8148 C   0  0  0  0  0  0
  -29.0014  -22.5921   20.2378 C   0  0  1  0  0  0
  -32.1831  -20.2879   22.8850 C   0  0  0  0  0  0
  -30.6022  -16.8138   22.8026 N   0  0  0  0  0  0
  -30.0068  -17.9321   20.8312 N   0  0  0  0  0  0
  -30.0144  -20.2428   20.5694 N   0  0  0  0  0  0
  -29.8829  -15.5824   21.0116 N   0  0  0  0  0  0
  -27.6598  -22.1617   20.3858 O   0  0  0  0  0  0
  -31.5611  -21.3984   23.2696 F   0  0  0  0  0  0
  -31.4687  -12.4792   19.1206 H   0  0  0  0  0  0
  -30.3500  -11.3539   19.8445 H   0  0  0  0  0  0
  -29.7462  -11.7783   17.4407 H   0  0  0  0  0  0
  -29.6474  -13.4930   17.7528 H   0  0  0  0  0  0
  -27.8216  -11.3056   18.8026 H   0  0  0  0  0  0
  -27.3655  -12.6363   17.7807 H   0  0  0  0  0  0
  -27.6835  -14.2511   19.5463 H   0  0  0  0  0  0
  -28.6963  -11.9905   21.3415 H   0  0  0  0  0  0
  -28.4450  -13.6270   21.8615 H   0  0  0  0  0  0
  -25.2780   -9.5709   22.4730 H   0  0  0  0  0  0
  -24.0034   -7.4643   22.7452 H   0  0  0  0  0  0
  -21.0853   -8.8759   19.8944 H   0  0  0  0  0  0
  -22.3686  -10.9670   19.6146 H   0  0  0  0  0  0
  -21.2001   -7.6158   23.9711 H   0  0  0  0  0  0
  -21.1474   -6.0533   25.9083 H   0  0  0  0  0  0
  -22.0599   -2.7602   23.2846 H   0  0  0  0  0  0
  -22.4185  -11.9911   22.4784 H   0  0  0  0  0  0
  -21.1122  -13.1206   22.2560 H   0  0  0  0  0  0
  -24.6698  -15.8421   20.5258 H   0  0  0  0  0  0
  -26.2701  -15.6223   20.0358 H   0  0  0  0  0  0
  -26.7168  -32.5467   23.1105 H   0  0  0  0  0  0
  -25.0318  -33.9813   25.0572 H   0  0  0  0  0  0
  -22.7067  -31.3131   21.4049 H   0  0  0  0  0  0
  -23.3774  -35.9536   23.3334 H   0  0  0  0  0  0
  -24.3537  -36.8802   22.2038 H   0  0  0  0  0  0
  -23.7208  -37.6435   23.6626 H   0  0  0  0  0  0
  -26.0935  -31.5630   20.6104 H   0  0  0  0  0  0
  -26.8336  -30.8356   22.0129 H   0  0  0  0  0  0
  -28.1000  -29.0068   21.2023 H   0  0  0  0  0  0
  -25.9825  -26.0118   18.8985 H   0  0  0  0  0  0
  -23.9722  -27.3295   18.9892 H   0  0  0  0  0  0
  -23.7614  -30.6142   19.4066 H   0  0  0  0  0  0
  -22.7504  -29.2701   19.8421 H   0  0  0  0  0  0
  -25.1298  -36.1911   25.0819 H   0  0  0  0  0  0
  -21.0057  -28.3245   24.1366 H   0  0  0  0  0  0
  -20.5635  -26.2283   23.3597 H   0  0  0  0  0  0
  -21.6634  -26.7384   22.1186 H   0  0  0  0  0  0
  -19.6839  -25.6311   21.1222 H   0  0  0  0  0  0
  -19.6670  -27.3212   20.6750 H   0  0  0  0  0  0
  -17.4185  -26.6770   21.4040 H   0  0  0  0  0  0
  -18.0298  -26.0111   22.9028 H   0  0  0  0  0  0
  -19.7966  -30.7308   24.2258 H   0  0  0  0  0  0
  -17.5038  -31.6278   24.5186 H   0  0  0  0  0  0
  -15.5372  -30.2994   23.7662 H   0  0  0  0  0  0
  -15.8717  -28.0842   22.7040 H   0  0  0  0  0  0
  -24.5934  -30.7208   25.7815 H   0  0  0  0  0  0
  -24.9043  -32.2978   26.4988 H   0  0  0  0  0  0
  -25.8144  -30.8922   27.0231 H   0  0  0  0  0  0
  -26.2900  -29.6895   24.1215 H   0  0  0  0  0  0
  -27.4102  -29.7358   25.4644 H   0  0  0  0  0  0
  -27.8766  -30.4430   23.9364 H   0  0  0  0  0  0
  -27.2732  -33.3712   26.2122 H   0  0  0  0  0  0
  -28.3920  -32.7007   25.0361 H   0  0  0  0  0  0
  -28.0794  -31.8546   26.5425 H   0  0  0  0  0  0
  -28.2607  -38.0051   24.7530 H   0  0  0  0  0  0
  -28.1049  -36.2578   24.6319 H   0  0  0  0  0  0
  -27.2272  -37.1431   25.8882 H   0  0  0  0  0  0
  -20.9321  -29.8851   21.6952 H   0  0  0  0  0  0
  -26.0141  -38.2837   24.1510 H   0  0  0  0  0  0
  -29.7124  -17.8872   26.5994 H   0  0  0  0  0  0
  -29.1453  -16.9123   25.2507 H   0  0  0  0  0  0
  -29.0390  -18.6675   25.1696 H   0  0  0  0  0  0
  -33.5992  -19.0177   24.0035 H   0  0  0  0  0  0
  -32.7795  -20.2509   25.0022 H   0  0  0  0  0  0
  -34.0457  -20.7089   23.9415 H   0  0  0  0  0  0
  -33.6833  -19.7089   21.4121 H   0  0  0  0  0  0
  -33.7492  -21.4122   21.8274 H   0  0  0  0  0  0
  -32.5240  -20.8294   20.7429 H   0  0  0  0  0  0
  -31.5483  -18.7345   25.3522 H   0  0  0  0  0  0
  -31.6363  -17.0220   25.1766 H   0  0  0  0  0  0
  -28.8747  -24.2406   21.6908 H   0  0  0  0  0  0
  -30.1684  -24.4109   20.5407 H   0  0  0  0  0  0
  -29.4446  -21.5654   22.1247 H   0  0  0  0  0  0
  -30.8398  -22.0684   21.1869 H   0  0  0  0  0  0
  -27.2250  -24.7727   19.9721 H   0  0  0  0  0  0
  -28.4532  -25.0051   18.7509 H   0  0  0  0  0  0
  -29.3001  -22.4901   19.1930 H   0  0  0  0  0  0
  -29.5268  -20.0219   19.7099 H   0  0  0  0  0  0
  -28.9206  -15.3430   21.1672 H   0  0  0  0  0  0
  -27.6287  -21.2242   20.2222 H   0  0  0  0  0  0
  1 25  1  0  0  0
  1 30  2  0  0  0
  1 87  1  0  0  0
  2  3  1  0  0  0
  2 25  1  0  0  0
  2 90  1  0  0  0
  2 91  1  0  0  0
  3  4  1  0  0  0
  3 92  1  0  0  0
  3 93  1  0  0  0
  4  5  1  0  0  0
  4 94  1  0  0  0
  4 95  1  0  0  0
  5  6  1  0  0  0
  5 26  1  0  0  0
  5 96  1  0  0  0
  6 25  1  0  0  0
  6 97  1  0  0  0
  6 98  1  0  0  0
  7  8  2  0  0  0
  7 26  1  0  0  0
  7 29  1  0  0  0
  8  9  1  0  0  0
  8 22  1  0  0  0
  9 10  1  0  0  0
  9 27  2  0  0  0
 10 11  2  0  0  0
 10 15  1  0  0  0
 11 12  1  0  0  0
 11 99  1  0  0  0
 12 13  2  0  0  0
 12100  1  0  0  0
 13 14  1  0  0  0
 13 31  1  0  0  0
 14 15  2  0  0  0
 14101  1  0  0  0
 15102  1  0  0  0
 16 17  2  0  0  0
 16 21  1  0  0  0
 16 31  1  0  0  0
 17 18  1  0  0  0
 17103  1  0  0  0
 18 19  2  0  0  0
 18104  1  0  0  0
 19 20  1  0  0  0
 19 24  1  0  0  0
 20 21  2  0  0  0
 20105  1  0  0  0
 21 23  1  0  0  0
 22 28  1  0  0  0
 22 32  2  0  0  0
 26 27  1  0  0  0
 28106  1  0  0  0
 28107  1  0  0  0
 29108  1  0  0  0
 29109  1  0  0  0
 33 34  1  0  0  0
 33 66  1  0  0  0
 33 70  2  0  0  0
 34 36  1  0  0  0
 34 59  1  0  0  0
 34110  1  0  0  0
 35 44  2  0  0  0
 35 45  1  0  0  0
 35 68  1  0  0  0
 36 56  1  0  0  0
 36111  1  0  0  0
 37 39  1  0  0  0
 37 47  1  0  0  0
 37 66  1  0  0  0
 37112  1  0  0  0
 38 43  2  0  0  0
 38 46  1  0  0  0
 38 47  1  0  0  0
 39 64  1  0  0  0
 39 67  2  0  0  0
 40 52  1  0  0  0
 40 53  2  0  0  0
 40 58  1  0  0  0
 41113  1  0  0  0
 41114  1  0  0  0
 41115  1  0  0  0
 41 48  1  0  0  0
 42 43  1  0  0  0
 42 66  1  0  0  0
 42116  1  0  0  0
 42117  1  0  0  0
 43 44  1  0  0  0
 44118  1  0  0  0
 45 46  2  0  0  0
 45119  1  0  0  0
 46120  1  0  0  0
 47121  1  0  0  0
 47122  1  0  0  0
 48 56  1  0  0  0
 48 65  1  0  0  0
 48123  1  0  0  0
 49 50  1  0  0  0
 49 53  1  0  0  0
 49 64  1  0  0  0
 49124  1  0  0  0
 50 51  1  0  0  0
 50125  1  0  0  0
 50126  1  0  0  0
 51 52  1  0  0  0
 51127  1  0  0  0
 51128  1  0  0  0
 52129  1  0  0  0
 52130  1  0  0  0
 53 54  1  0  0  0
 54 55  2  0  0  0
 54131  1  0  0  0
 55 57  1  0  0  0
 55132  1  0  0  0
 56 69  2  0  0  0
 57 58  2  0  0  0
 57133  1  0  0  0
 58134  1  0  0  0
 59 60  1  0  0  0
 59 61  1  0  0  0
 59 62  1  0  0  0
 60135  1  0  0  0
 60136  1  0  0  0
 60137  1  0  0  0
 61138  1  0  0  0
 61139  1  0  0  0
 61140  1  0  0  0
 62141  1  0  0  0
 62142  1  0  0  0
 62143  1  0  0  0
 63 65  1  0  0  0
 63144  1  0  0  0
 63145  1  0  0  0
 63146  1  0  0  0
 64147  1  0  0  0
 65148  1  0  0  0
 68 81  1  0  0  0
 71 72  2  0  0  0
 71 73  1  0  0  0
 71 83  1  0  0  0
 72 78  1  0  0  0
 72 84  1  0  0  0
 73 85  2  0  0  0
 73 86  1  0  0  0
 74 84  2  0  0  0
 74 85  1  0  0  0
 74 87  1  0  0  0
 75 78  1  0  0  0
 75149  1  0  0  0
 75150  1  0  0  0
 75151  1  0  0  0
 76152  1  0  0  0
 76153  1  0  0  0
 76154  1  0  0  0
 76 83  1  0  0  0
 77 83  1  0  0  0
 77155  1  0  0  0
 77156  1  0  0  0
 77157  1  0  0  0
 78158  1  0  0  0
 78159  1  0  0  0
 79 81  1  0  0  0
 79 82  1  0  0  0
 79160  1  0  0  0
 79161  1  0  0  0
 80 82  1  0  0  0
 80 86  1  0  0  0
 80162  1  0  0  0
 80163  1  0  0  0
 81164  1  0  0  0
 81165  1  0  0  0
 82 88  1  0  0  0
 82166  1  0  0  0
 83 89  1  0  0  0
 86167  1  0  0  0
 87168  1  0  0  0
 88169  1  0  0  0
M  ISO  4   1 100  68 101  81 101  87 100
M  END
> <chiral flag>
0

> <version>
0

> <s_m_source_file>
/data/baiqing/PycharmProjects/Reinvent-master-3.2/result/LINK_invent/BTK/process_docking_weight1_custom_product_contain_oxygen_bond_distance_aromatic_linkinvent_7_9_3/rearranged_h_0193.sdf

> <i_m_source_file_index>
20

> <r_mmod_Potential_Energy-OPLS-2005>
-404.747375488281

> <r_mmod_Stretch_Energy-OPLS-2005>
60.3828430175781

> <r_mmod_Bend_Energy-OPLS-2005>
154.670959472656

> <r_mmod_Torsional_Energy-OPLS-2005>
303.120880126953

> <r_mmod_Improper_Torsional_Energy-OPLS-2005>
9.28175926208496

> <r_mmod_Van_der_Waal_Energy-OPLS-2005>
180.874114990234

> <r_mmod_Electrostatic_Energy-OPLS-2005>
-901.4443359375

> <r_mmod_Solvation_Energy-OPLS-2005>
-241.02311706543

> <b_mmod_Minimization_Converged-OPLS-2005>
0

> <r_mmod_RMS_Derivative-OPLS-2005>
4.34799337387085

$$$$
20
                    3D
 Structure written by MMmdl.
161169  0  0  1  0            999 V2000
  -30.6701  -14.5450   20.6358 C   0  0  0  0  0  0
  -30.4316  -12.3729   19.4425 C   0  0  0  0  0  0
  -29.5022  -12.5426   18.2166 C   0  0  0  0  0  0
  -28.0185  -12.3761   18.6137 C   0  0  0  0  0  0
  -27.6538  -13.1973   19.8778 C   0  0  2  0  0  0
  -28.6949  -12.9125   20.9804 C   0  0  0  0  0  0
  -25.2492  -13.8134   20.5604 C   0  0  0  0  0  0
  -24.1771  -13.0429   20.9142 C   0  0  0  0  0  0
  -24.6332  -11.6880   20.8736 C   0  0  0  0  0  0
  -23.9013  -10.4272   21.0405 C   0  0  0  0  0  0
  -24.3567   -9.4203   21.9184 C   0  0  0  0  0  0
  -23.6235   -8.2249   22.0780 C   0  0  0  0  0  0
  -22.4225   -8.0263   21.3554 C   0  0  0  0  0  0
  -21.9845   -9.0245   20.4671 C   0  0  0  0  0  0
  -22.7189  -10.2109   20.3066 C   0  0  0  0  0  0
  -21.6844   -6.0696   22.5265 C   0  0  0  0  0  0
  -21.4042   -6.5619   23.8205 C   0  0  0  0  0  0
  -21.3650   -5.6773   24.9161 C   0  0  0  0  0  0
  -21.6029   -4.3038   24.7216 C   0  0  0  0  0  0
  -21.8812   -3.8122   23.4353 C   0  0  0  0  0  0
  -21.9199   -4.6921   22.3412 C   0  0  0  0  0  0
  -22.7774  -13.5204   21.1776 C   0  0  0  0  0  0
  -22.1643   -4.2116   21.0973 F   0  0  0  0  0  0
  -21.5624   -3.4509   25.7735 F   0  0  0  0  0  0
  -30.0024  -13.3498   20.4748 N   0  0  0  0  0  0
  -26.2946  -12.9303   20.3332 N   0  0  0  0  0  0
  -25.9254  -11.6463   20.5761 N   0  0  0  0  0  0
  -22.0444  -12.8269   22.0414 N   0  0  0  0  0  0
  -25.4121  -15.1868   20.3907 N   0  0  0  0  0  0
  -31.7966  -14.6569   20.1334 O   0  0  0  0  0  0
  -21.6632   -6.8828   21.4226 O   0  0  0  0  0  0
  -22.3442  -14.5485   20.6594 O   0  0  0  0  0  0
  -24.6203  -31.8715   23.2066 C   0  0  0  0  0  0
  -25.9077  -32.4857   23.8394 C   0  0  1  0  0  0
  -27.2437  -27.4198   20.1145 C   0  0  0  0  0  0
  -25.5938  -33.8641   24.2372 N   0  0  0  0  0  0
  -23.4115  -30.4913   21.5458 C   0  0  2  0  0  0
  -24.8593  -28.9549   20.1170 C   0  0  0  0  0  0
  -22.7454  -29.4695   22.4969 C   0  0  0  0  0  0
  -18.0292  -28.1391   22.8518 C   0  0  0  0  0  0
  -24.1470  -36.7285   23.2632 C   0  0  0  0  0  0
  -25.9389  -30.8352   21.3558 C   0  0  0  0  0  0
  -26.0171  -29.4629   20.7154 C   0  0  0  0  0  0
  -27.2125  -28.7049   20.7131 C   0  0  0  0  0  0
  -26.0649  -26.9386   19.4978 C   0  0  0  0  0  0
  -24.8798  -27.6915   19.5034 C   0  0  0  0  0  0
  -23.6210  -29.8175   20.1627 C   0  0  0  0  0  0
  -25.4090  -36.3123   24.0363 C   0  0  1  0  0  0
  -20.5885  -28.3695   23.1313 C   0  0  2  0  0  0
  -20.6776  -26.9424   22.5417 C   0  0  0  0  0  0
  -19.5723  -26.6407   21.5234 C   0  0  0  0  0  0
  -18.1905  -26.7950   22.1643 C   0  0  0  0  0  0
  -19.1539  -28.8854   23.2918 C   0  0  0  0  0  0
  -18.9466  -30.1460   23.8938 C   0  0  0  0  0  0
  -17.6462  -30.6596   24.0581 C   0  0  0  0  0  0
  -25.9039  -34.9497   23.5151 C   0  0  0  0  0  0
  -16.5360  -29.9108   23.6317 C   0  0  0  0  0  0
  -16.7280  -28.6512   23.0366 C   0  0  0  0  0  0
  -26.4485  -31.6624   25.0713 C   0  0  0  0  0  0
  -25.3756  -31.3727   26.1465 C   0  0  0  0  0  0
  -27.0348  -30.3103   24.6056 C   0  0  0  0  0  0
  -27.6097  -32.4325   25.7450 C   0  0  0  0  0  0
  -27.5583  -37.1779   24.8467 C   0  0  0  0  0  0
  -21.4180  -29.3077   22.3730 N   0  0  0  0  0  0
  -26.4277  -37.3823   23.9449 N   0  0  0  0  0  0
  -24.6765  -31.0784   22.0977 N   0  0  0  0  0  0
  -23.4210  -28.8257   23.3048 O   0  0  0  0  0  0
  -28.4023  -26.6595   20.1411 O   0  0  0  0  0  0
  -26.5567  -34.8958   22.4695 O   0  0  0  0  0  0
  -23.5370  -32.1466   23.7422 O   0  0  0  0  0  0
  -31.8874  -17.3186   21.4613 C   0  0  0  0  0  0
  -30.6341  -16.9812   21.0081 C   0  0  0  0  0  0
  -30.5589  -19.2534   20.7182 C   0  0  0  0  0  0
  -29.1109  -15.2741   23.5094 C   0  0  0  0  0  0
  -31.4520  -22.2223   19.4712 C   0  0  0  0  0  0
  -29.2461  -22.8882   20.6360 C   0  0  0  0  0  0
  -28.8582  -15.7376   22.0576 C   0  0  0  0  0  0
  -28.2195  -25.2371   20.3153 C   0  0  0  0  0  0
  -30.4558  -21.8989   20.5950 C   0  0  1  0  0  0
  -29.5306  -24.4235   20.5184 C   0  0  1  0  0  0
  -29.8960  -18.0989   20.5635 N   0  0  0  0  0  0
  -29.9970  -20.5093   20.4740 N   0  0  0  0  0  0
  -30.0584  -15.6675   21.1865 N   0  0  0  0  0  0
  -30.1990  -24.8529   21.6974 O   0  0  0  0  0  0
  -32.1903  -19.0352   21.3438 S   0  0  0  0  0  0
  -31.4721  -12.4956   19.1419 H   0  0  0  0  0  0
  -30.3686  -11.3506   19.8240 H   0  0  0  0  0  0
  -29.7703  -11.8304   17.4357 H   0  0  0  0  0  0
  -29.6480  -13.5341   17.7894 H   0  0  0  0  0  0
  -27.8389  -11.3169   18.8034 H   0  0  0  0  0  0
  -27.3673  -12.6531   17.7842 H   0  0  0  0  0  0
  -27.7099  -14.2513   19.6043 H   0  0  0  0  0  0
  -28.7139  -11.8409   21.1830 H   0  0  0  0  0  0
  -28.4225  -13.3023   21.9490 H   0  0  0  0  0  0
  -25.2722   -9.5694   22.4700 H   0  0  0  0  0  0
  -23.9958   -7.4657   22.7514 H   0  0  0  0  0  0
  -21.0770   -8.8761   19.8988 H   0  0  0  0  0  0
  -22.3659  -10.9626   19.6151 H   0  0  0  0  0  0
  -21.2078   -7.6129   23.9696 H   0  0  0  0  0  0
  -21.1455   -6.0507   25.9055 H   0  0  0  0  0  0
  -22.0613   -2.7578   23.2866 H   0  0  0  0  0  0
  -22.4033  -11.9966   22.4900 H   0  0  0  0  0  0
  -21.1085  -13.1355   22.2603 H   0  0  0  0  0  0
  -24.6312  -15.8275   20.4814 H   0  0  0  0  0  0
  -26.2457  -15.6368   20.0376 H   0  0  0  0  0  0
  -26.7181  -32.5591   23.1188 H   0  0  0  0  0  0
  -25.0215  -33.9813   25.0602 H   0  0  0  0  0  0
  -22.7033  -31.3092   21.3973 H   0  0  0  0  0  0
  -23.3777  -35.9578   23.3310 H   0  0  0  0  0  0
  -24.3562  -36.8854   22.2039 H   0  0  0  0  0  0
  -23.7175  -37.6478   23.6628 H   0  0  0  0  0  0
  -26.0317  -31.5893   20.5719 H   0  0  0  0  0  0
  -26.8344  -30.9121   21.9597 H   0  0  0  0  0  0
  -28.1027  -29.0945   21.1919 H   0  0  0  0  0  0
  -26.0433  -25.9841   18.9950 H   0  0  0  0  0  0
  -23.9923  -27.2953   19.0321 H   0  0  0  0  0  0
  -23.7313  -30.5869   19.3974 H   0  0  0  0  0  0
  -22.7534  -29.2264   19.8662 H   0  0  0  0  0  0
  -25.1250  -36.1980   25.0861 H   0  0  0  0  0  0
  -20.9984  -28.3254   24.1433 H   0  0  0  0  0  0
  -20.5674  -26.2321   23.3617 H   0  0  0  0  0  0
  -21.6647  -26.7460   22.1199 H   0  0  0  0  0  0
  -19.6881  -25.6330   21.1232 H   0  0  0  0  0  0
  -19.6637  -27.3262   20.6790 H   0  0  0  0  0  0
  -17.4193  -26.6754   21.4031 H   0  0  0  0  0  0
  -18.0268  -26.0074   22.9001 H   0  0  0  0  0  0
  -19.7935  -30.7268   24.2328 H   0  0  0  0  0  0
  -17.5014  -31.6271   24.5196 H   0  0  0  0  0  0
  -15.5361  -30.3017   23.7612 H   0  0  0  0  0  0
  -15.8681  -28.0832   22.7069 H   0  0  0  0  0  0
  -24.5921  -30.7091   25.7789 H   0  0  0  0  0  0
  -24.8952  -32.2887   26.4932 H   0  0  0  0  0  0
  -25.8085  -30.8875   27.0220 H   0  0  0  0  0  0
  -26.2902  -29.6819   24.1172 H   0  0  0  0  0  0
  -27.4252  -29.7359   25.4458 H   0  0  0  0  0  0
  -27.8657  -30.4479   23.9134 H   0  0  0  0  0  0
  -27.2787  -33.3620   26.2086 H   0  0  0  0  0  0
  -28.3868  -32.6889   25.0241 H   0  0  0  0  0  0
  -28.0849  -31.8427   26.5288 H   0  0  0  0  0  0
  -28.2591  -38.0090   24.7604 H   0  0  0  0  0  0
  -28.1084  -36.2638   24.6185 H   0  0  0  0  0  0
  -27.2321  -37.1300   25.8870 H   0  0  0  0  0  0
  -20.9355  -29.8812   21.6939 H   0  0  0  0  0  0
  -26.0156  -38.2891   24.1519 H   0  0  0  0  0  0
  -32.6285  -16.6666   21.8989 H   0  0  0  0  0  0
  -29.8987  -15.8593   23.9822 H   0  0  0  0  0  0
  -29.3939  -14.2257   23.5903 H   0  0  0  0  0  0
  -28.2168  -15.4132   24.1208 H   0  0  0  0  0  0
  -30.9613  -22.2466   18.4996 H   0  0  0  0  0  0
  -32.2552  -21.4856   19.4298 H   0  0  0  0  0  0
  -31.9247  -23.1914   19.6318 H   0  0  0  0  0  0
  -28.6928  -22.7080   21.5605 H   0  0  0  0  0  0
  -28.5545  -22.6155   19.8381 H   0  0  0  0  0  0
  -28.5217  -16.7709   22.1593 H   0  0  0  0  0  0
  -27.9812  -15.2944   21.5987 H   0  0  0  0  0  0
  -27.5192  -25.0479   21.1300 H   0  0  0  0  0  0
  -27.7629  -24.8420   19.4088 H   0  0  0  0  0  0
  -30.9915  -21.9825   21.5433 H   0  0  0  0  0  0
  -30.1647  -24.6141   19.6515 H   0  0  0  0  0  0
  -29.0377  -20.4327   20.1564 H   0  0  0  0  0  0
  -29.6007  -24.7676   22.4335 H   0  0  0  0  0  0
  1 25  1  0  0  0
  1 30  2  0  0  0
  1 83  1  0  0  0
  2  3  1  0  0  0
  2 25  1  0  0  0
  2 86  1  0  0  0
  2 87  1  0  0  0
  3  4  1  0  0  0
  3 88  1  0  0  0
  3 89  1  0  0  0
  4  5  1  0  0  0
  4 90  1  0  0  0
  4 91  1  0  0  0
  5  6  1  0  0  0
  5 26  1  0  0  0
  5 92  1  0  0  0
  6 25  1  0  0  0
  6 93  1  0  0  0
  6 94  1  0  0  0
  7  8  2  0  0  0
  7 26  1  0  0  0
  7 29  1  0  0  0
  8  9  1  0  0  0
  8 22  1  0  0  0
  9 10  1  0  0  0
  9 27  2  0  0  0
 10 11  2  0  0  0
 10 15  1  0  0  0
 11 12  1  0  0  0
 11 95  1  0  0  0
 12 13  2  0  0  0
 12 96  1  0  0  0
 13 14  1  0  0  0
 13 31  1  0  0  0
 14 15  2  0  0  0
 14 97  1  0  0  0
 15 98  1  0  0  0
 16 17  2  0  0  0
 16 21  1  0  0  0
 16 31  1  0  0  0
 17 18  1  0  0  0
 17 99  1  0  0  0
 18 19  2  0  0  0
 18100  1  0  0  0
 19 20  1  0  0  0
 19 24  1  0  0  0
 20 21  2  0  0  0
 20101  1  0  0  0
 21 23  1  0  0  0
 22 28  1  0  0  0
 22 32  2  0  0  0
 26 27  1  0  0  0
 28102  1  0  0  0
 28103  1  0  0  0
 29104  1  0  0  0
 29105  1  0  0  0
 33 34  1  0  0  0
 33 66  1  0  0  0
 33 70  2  0  0  0
 34 36  1  0  0  0
 34 59  1  0  0  0
 34106  1  0  0  0
 35 44  2  0  0  0
 35 45  1  0  0  0
 35 68  1  0  0  0
 36 56  1  0  0  0
 36107  1  0  0  0
 37 39  1  0  0  0
 37 47  1  0  0  0
 37 66  1  0  0  0
 37108  1  0  0  0
 38 43  2  0  0  0
 38 46  1  0  0  0
 38 47  1  0  0  0
 39 64  1  0  0  0
 39 67  2  0  0  0
 40 52  1  0  0  0
 40 53  2  0  0  0
 40 58  1  0  0  0
 41109  1  0  0  0
 41110  1  0  0  0
 41111  1  0  0  0
 41 48  1  0  0  0
 42 43  1  0  0  0
 42 66  1  0  0  0
 42112  1  0  0  0
 42113  1  0  0  0
 43 44  1  0  0  0
 44114  1  0  0  0
 45 46  2  0  0  0
 45115  1  0  0  0
 46116  1  0  0  0
 47117  1  0  0  0
 47118  1  0  0  0
 48 56  1  0  0  0
 48 65  1  0  0  0
 48119  1  0  0  0
 49 50  1  0  0  0
 49 53  1  0  0  0
 49 64  1  0  0  0
 49120  1  0  0  0
 50 51  1  0  0  0
 50121  1  0  0  0
 50122  1  0  0  0
 51 52  1  0  0  0
 51123  1  0  0  0
 51124  1  0  0  0
 52125  1  0  0  0
 52126  1  0  0  0
 53 54  1  0  0  0
 54 55  2  0  0  0
 54127  1  0  0  0
 55 57  1  0  0  0
 55128  1  0  0  0
 56 69  2  0  0  0
 57 58  2  0  0  0
 57129  1  0  0  0
 58130  1  0  0  0
 59 60  1  0  0  0
 59 61  1  0  0  0
 59 62  1  0  0  0
 60131  1  0  0  0
 60132  1  0  0  0
 60133  1  0  0  0
 61134  1  0  0  0
 61135  1  0  0  0
 61136  1  0  0  0
 62137  1  0  0  0
 62138  1  0  0  0
 62139  1  0  0  0
 63 65  1  0  0  0
 63140  1  0  0  0
 63141  1  0  0  0
 63142  1  0  0  0
 64143  1  0  0  0
 65144  1  0  0  0
 68 78  1  0  0  0
 71 72  2  0  0  0
 71 85  1  0  0  0
 71145  1  0  0  0
 72 81  1  0  0  0
 72 83  1  0  0  0
 73 81  2  0  0  0
 73 82  1  0  0  0
 73 85  1  0  0  0
 74 77  1  0  0  0
 74146  1  0  0  0
 74147  1  0  0  0
 74148  1  0  0  0
 75149  1  0  0  0
 75150  1  0  0  0
 75151  1  0  0  0
 75 79  1  0  0  0
 76 79  1  0  0  0
 76 80  1  0  0  0
 76152  1  0  0  0
 76153  1  0  0  0
 77 83  1  0  0  0
 77154  1  0  0  0
 77155  1  0  0  0
 78 80  1  0  0  0
 78156  1  0  0  0
 78157  1  0  0  0
 79 82  1  0  0  0
 79158  1  0  0  0
 80 84  1  0  0  0
 80159  1  0  0  0
 82160  1  0  0  0
 84161  1  0  0  0
M  ISO  4   1 100  68 101  78 101  83 100
M  END
> <chiral flag>
0

> <version>
0

> <s_m_source_file>
/data/baiqing/PycharmProjects/Reinvent-master-3.2/result/LINK_invent/BTK/process_docking_weight1_custom_product_contain_oxygen_bond_distance_aromatic_linkinvent_7_9_3/rearranged_h_0193.sdf

> <i_m_source_file_index>
21

> <r_mmod_Potential_Energy-OPLS-2005>
161.035766601562

> <r_mmod_Stretch_Energy-OPLS-2005>
53.1892242431641

> <r_mmod_Bend_Energy-OPLS-2005>
141.362976074219

> <r_mmod_Torsional_Energy-OPLS-2005>
282.487823486328

> <r_mmod_Improper_Torsional_Energy-OPLS-2005>
5.22633075714111

> <r_mmod_Van_der_Waal_Energy-OPLS-2005>
149.643737792969

> <r_mmod_Electrostatic_Energy-OPLS-2005>
-274.028656005859

> <r_mmod_Solvation_Energy-OPLS-2005>
-216.592636108398

> <b_mmod_Minimization_Converged-OPLS-2005>
0

> <r_mmod_RMS_Derivative-OPLS-2005>
5.85079526901245

$$$$
21
                    3D
 Structure written by MMmdl.
151159  0  0  1  0            999 V2000
  -30.6494  -14.6848   20.4688 C   0  0  0  0  0  0
  -30.4281  -12.4214   19.4622 C   0  0  0  0  0  0
  -29.5038  -12.4915   18.2287 C   0  0  0  0  0  0
  -28.0293  -12.3312   18.6441 C   0  0  0  0  0  0
  -27.6447  -13.2268   19.8534 C   0  0  2  0  0  0
  -28.6915  -13.1430   20.9855 C   0  0  0  0  0  0
  -25.2526  -13.8205   20.5691 C   0  0  0  0  0  0
  -24.1810  -13.0457   20.9210 C   0  0  0  0  0  0
  -24.6393  -11.6928   20.8748 C   0  0  0  0  0  0
  -23.9071  -10.4310   21.0407 C   0  0  0  0  0  0
  -24.3629   -9.4223   21.9181 C   0  0  0  0  0  0
  -23.6304   -8.2255   22.0748 C   0  0  0  0  0  0
  -22.4283   -8.0288   21.3544 C   0  0  0  0  0  0
  -21.9923   -9.0264   20.4642 C   0  0  0  0  0  0
  -22.7247  -10.2147   20.3056 C   0  0  0  0  0  0
  -21.6854   -6.0736   22.5277 C   0  0  0  0  0  0
  -21.4017   -6.5636   23.8208 C   0  0  0  0  0  0
  -21.3664   -5.6785   24.9168 C   0  0  0  0  0  0
  -21.6052   -4.3049   24.7220 C   0  0  0  0  0  0
  -21.8826   -3.8147   23.4340 C   0  0  0  0  0  0
  -21.9199   -4.6965   22.3396 C   0  0  0  0  0  0
  -22.7837  -13.5234   21.1860 C   0  0  0  0  0  0
  -22.1665   -4.2149   21.0975 F   0  0  0  0  0  0
  -21.5633   -3.4540   25.7736 F   0  0  0  0  0  0
  -29.9959  -13.4789   20.4020 N   0  0  0  0  0  0
  -26.2951  -12.9397   20.3303 N   0  0  0  0  0  0
  -25.9316  -11.6543   20.5762 N   0  0  0  0  0  0
  -22.0474  -12.8231   22.0414 N   0  0  0  0  0  0
  -25.4215  -15.1931   20.4074 N   0  0  0  0  0  0
  -31.8371  -14.7638   20.1445 O   0  0  0  0  0  0
  -21.6641   -6.8888   21.4239 O   0  0  0  0  0  0
  -22.3520  -14.5543   20.6703 O   0  0  0  0  0  0
  -24.6272  -31.8593   23.2003 C   0  0  0  0  0  0
  -25.9109  -32.4779   23.8347 C   0  0  1  0  0  0
  -27.2199  -27.2938   20.1306 C   0  0  0  0  0  0
  -25.5918  -33.8576   24.2276 N   0  0  0  0  0  0
  -23.4232  -30.4813   21.5432 C   0  0  2  0  0  0
  -24.8732  -28.9346   20.1081 C   0  0  0  0  0  0
  -22.7488  -29.4615   22.4927 C   0  0  0  0  0  0
  -18.0290  -28.1369   22.8496 C   0  0  0  0  0  0
  -24.1482  -36.7294   23.2643 C   0  0  0  0  0  0
  -25.9665  -30.7811   21.3773 C   0  0  0  0  0  0
  -26.0415  -29.4050   20.7226 C   0  0  0  0  0  0
  -27.2203  -28.5960   20.7253 C   0  0  0  0  0  0
  -26.0394  -26.8943   19.4678 C   0  0  0  0  0  0
  -24.8765  -27.6864   19.4674 C   0  0  0  0  0  0
  -23.6409  -29.8156   20.1587 C   0  0  0  0  0  0
  -25.4109  -36.3083   24.0330 C   0  0  1  0  0  0
  -20.5893  -28.3684   23.1276 C   0  0  2  0  0  0
  -20.6769  -26.9405   22.5406 C   0  0  0  0  0  0
  -19.5745  -26.6380   21.5206 C   0  0  0  0  0  0
  -18.1931  -26.7916   22.1628 C   0  0  0  0  0  0
  -19.1544  -28.8846   23.2882 C   0  0  0  0  0  0
  -18.9468  -30.1447   23.8902 C   0  0  0  0  0  0
  -17.6468  -30.6583   24.0557 C   0  0  0  0  0  0
  -25.9050  -34.9450   23.5107 C   0  0  0  0  0  0
  -16.5359  -29.9080   23.6318 C   0  0  0  0  0  0
  -16.7275  -28.6486   23.0362 C   0  0  0  0  0  0
  -26.4486  -31.6587   25.0719 C   0  0  0  0  0  0
  -25.3710  -31.3722   26.1441 C   0  0  0  0  0  0
  -27.0330  -30.3010   24.6171 C   0  0  0  0  0  0
  -27.6056  -32.4320   25.7475 C   0  0  0  0  0  0
  -27.5573  -37.1802   24.8470 C   0  0  0  0  0  0
  -21.4199  -29.3040   22.3675 N   0  0  0  0  0  0
  -26.4289  -37.3778   23.9410 N   0  0  0  0  0  0
  -24.6911  -31.0586   22.0966 N   0  0  0  0  0  0
  -23.4204  -28.8156   23.3015 O   0  0  0  0  0  0
  -28.3062  -26.3975   20.1782 O   0  0  0  0  0  0
  -26.5628  -34.8920   22.4679 O   0  0  0  0  0  0
  -23.5431  -32.1411   23.7316 O   0  0  0  0  0  0
  -28.3253  -18.7421   21.1090 C   0  0  0  0  0  0
  -29.6017  -18.5493   20.6227 C   0  0  0  0  0  0
  -28.7416  -20.9985   20.6585 C   0  0  0  0  0  0
  -28.0167  -25.1206   22.2041 C   0  0  0  0  0  0
  -30.4683  -17.2465   20.5020 C   0  0  0  0  0  0
  -28.9464  -23.7570   20.2332 C   0  0  0  0  0  0
  -28.0301  -25.0106   20.6709 C   0  0  1  0  0  0
  -27.8717  -20.0888   21.1208 N   0  0  0  0  0  0
  -28.4218  -22.4001   20.6256 N   0  0  0  0  0  0
  -29.9216  -15.8391   20.6762 N   0  0  0  0  0  0
  -30.2425  -20.1619   20.1520 S   0  0  0  0  0  0
  -31.4685  -12.5372   19.1536 H   0  0  0  0  0  0
  -30.3650  -11.4408   19.9373 H   0  0  0  0  0  0
  -29.7760  -11.7148   17.5132 H   0  0  0  0  0  0
  -29.6412  -13.4439   17.7140 H   0  0  0  0  0  0
  -27.8762  -11.2815   18.8984 H   0  0  0  0  0  0
  -27.3737  -12.5368   17.7975 H   0  0  0  0  0  0
  -27.6477  -14.2521   19.4833 H   0  0  0  0  0  0
  -28.7168  -12.1416   21.4172 H   0  0  0  0  0  0
  -28.4375  -13.8222   21.8005 H   0  0  0  0  0  0
  -25.2773   -9.5712   22.4747 H   0  0  0  0  0  0
  -24.0029   -7.4653   22.7464 H   0  0  0  0  0  0
  -21.0860   -8.8783   19.8940 H   0  0  0  0  0  0
  -22.3704  -10.9688   19.6171 H   0  0  0  0  0  0
  -21.2002   -7.6141   23.9720 H   0  0  0  0  0  0
  -21.1479   -6.0503   25.9074 H   0  0  0  0  0  0
  -22.0602   -2.7607   23.2830 H   0  0  0  0  0  0
  -22.4089  -11.9907   22.4839 H   0  0  0  0  0  0
  -21.1081  -13.1243   22.2582 H   0  0  0  0  0  0
  -24.6525  -15.8450   20.5192 H   0  0  0  0  0  0
  -26.2533  -15.6291   20.0312 H   0  0  0  0  0  0
  -26.7171  -32.5450   23.1092 H   0  0  0  0  0  0
  -25.0048  -33.9717   25.0409 H   0  0  0  0  0  0
  -22.7175  -31.3019   21.3982 H   0  0  0  0  0  0
  -23.3742  -35.9629   23.3311 H   0  0  0  0  0  0
  -24.3587  -36.8914   22.2061 H   0  0  0  0  0  0
  -23.7228  -37.6496   23.6662 H   0  0  0  0  0  0
  -26.1015  -31.5412   20.6068 H   0  0  0  0  0  0
  -26.8453  -30.8331   22.0075 H   0  0  0  0  0  0
  -28.1136  -28.9483   21.2227 H   0  0  0  0  0  0
  -26.0034  -25.9487   18.9466 H   0  0  0  0  0  0
  -23.9888  -27.3277   18.9649 H   0  0  0  0  0  0
  -23.7608  -30.5928   19.4034 H   0  0  0  0  0  0
  -22.7603  -29.2479   19.8542 H   0  0  0  0  0  0
  -25.1278  -36.1946   25.0822 H   0  0  0  0  0  0
  -20.9989  -28.3254   24.1394 H   0  0  0  0  0  0
  -20.5665  -26.2294   23.3610 H   0  0  0  0  0  0
  -21.6635  -26.7423   22.1202 H   0  0  0  0  0  0
  -19.6906  -25.6292   21.1232 H   0  0  0  0  0  0
  -19.6668  -27.3188   20.6734 H   0  0  0  0  0  0
  -17.4192  -26.6668   21.4036 H   0  0  0  0  0  0
  -18.0336  -26.0050   22.9018 H   0  0  0  0  0  0
  -19.7947  -30.7254   24.2281 H   0  0  0  0  0  0
  -17.5023  -31.6262   24.5157 H   0  0  0  0  0  0
  -15.5360  -30.2985   23.7632 H   0  0  0  0  0  0
  -15.8675  -28.0794   22.7092 H   0  0  0  0  0  0
  -24.5888  -30.7071   25.7757 H   0  0  0  0  0  0
  -24.8891  -32.2883   26.4865 H   0  0  0  0  0  0
  -25.8025  -30.8895   27.0216 H   0  0  0  0  0  0
  -26.2898  -29.6767   24.1197 H   0  0  0  0  0  0
  -27.4034  -29.7261   25.4670 H   0  0  0  0  0  0
  -27.8760  -30.4304   23.9382 H   0  0  0  0  0  0
  -27.2682  -33.3638   26.2024 H   0  0  0  0  0  0
  -28.3862  -32.6857   25.0287 H   0  0  0  0  0  0
  -28.0718  -31.8461   26.5410 H   0  0  0  0  0  0
  -28.2594  -38.0095   24.7511 H   0  0  0  0  0  0
  -28.1062  -36.2629   24.6290 H   0  0  0  0  0  0
  -27.2301  -37.1440   25.8877 H   0  0  0  0  0  0
  -20.9387  -29.8785   21.6896 H   0  0  0  0  0  0
  -26.0174  -38.2855   24.1409 H   0  0  0  0  0  0
  -27.6667  -17.9733   21.4896 H   0  0  0  0  0  0
  -28.9933  -25.4205   22.5844 H   0  0  0  0  0  0
  -27.7579  -24.1714   22.6731 H   0  0  0  0  0  0
  -27.2899  -25.8566   22.5477 H   0  0  0  0  0  0
  -31.2902  -17.3405   21.2128 H   0  0  0  0  0  0
  -30.9522  -17.2717   19.5243 H   0  0  0  0  0  0
  -29.9474  -23.8780   20.6487 H   0  0  0  0  0  0
  -29.0638  -23.7671   19.1489 H   0  0  0  0  0  0
  -27.0236  -24.7238   20.3740 H   0  0  0  0  0  0
  -27.4855  -22.5171   20.9963 H   0  0  0  0  0  0
  -28.9411  -15.7334   20.8826 H   0  0  0  0  0  0
  1 25  1  0  0  0
  1 30  2  0  0  0
  1 80  1  0  0  0
  2  3  1  0  0  0
  2 25  1  0  0  0
  2 82  1  0  0  0
  2 83  1  0  0  0
  3  4  1  0  0  0
  3 84  1  0  0  0
  3 85  1  0  0  0
  4  5  1  0  0  0
  4 86  1  0  0  0
  4 87  1  0  0  0
  5  6  1  0  0  0
  5 26  1  0  0  0
  5 88  1  0  0  0
  6 25  1  0  0  0
  6 89  1  0  0  0
  6 90  1  0  0  0
  7  8  2  0  0  0
  7 26  1  0  0  0
  7 29  1  0  0  0
  8  9  1  0  0  0
  8 22  1  0  0  0
  9 10  1  0  0  0
  9 27  2  0  0  0
 10 11  2  0  0  0
 10 15  1  0  0  0
 11 12  1  0  0  0
 11 91  1  0  0  0
 12 13  2  0  0  0
 12 92  1  0  0  0
 13 14  1  0  0  0
 13 31  1  0  0  0
 14 15  2  0  0  0
 14 93  1  0  0  0
 15 94  1  0  0  0
 16 17  2  0  0  0
 16 21  1  0  0  0
 16 31  1  0  0  0
 17 18  1  0  0  0
 17 95  1  0  0  0
 18 19  2  0  0  0
 18 96  1  0  0  0
 19 20  1  0  0  0
 19 24  1  0  0  0
 20 21  2  0  0  0
 20 97  1  0  0  0
 21 23  1  0  0  0
 22 28  1  0  0  0
 22 32  2  0  0  0
 26 27  1  0  0  0
 28 98  1  0  0  0
 28 99  1  0  0  0
 29100  1  0  0  0
 29101  1  0  0  0
 33 34  1  0  0  0
 33 66  1  0  0  0
 33 70  2  0  0  0
 34 36  1  0  0  0
 34 59  1  0  0  0
 34102  1  0  0  0
 35 44  2  0  0  0
 35 45  1  0  0  0
 35 68  1  0  0  0
 36 56  1  0  0  0
 36103  1  0  0  0
 37 39  1  0  0  0
 37 47  1  0  0  0
 37 66  1  0  0  0
 37104  1  0  0  0
 38 43  2  0  0  0
 38 46  1  0  0  0
 38 47  1  0  0  0
 39 64  1  0  0  0
 39 67  2  0  0  0
 40 52  1  0  0  0
 40 53  2  0  0  0
 40 58  1  0  0  0
 41105  1  0  0  0
 41106  1  0  0  0
 41107  1  0  0  0
 41 48  1  0  0  0
 42 43  1  0  0  0
 42 66  1  0  0  0
 42108  1  0  0  0
 42109  1  0  0  0
 43 44  1  0  0  0
 44110  1  0  0  0
 45 46  2  0  0  0
 45111  1  0  0  0
 46112  1  0  0  0
 47113  1  0  0  0
 47114  1  0  0  0
 48 56  1  0  0  0
 48 65  1  0  0  0
 48115  1  0  0  0
 49 50  1  0  0  0
 49 53  1  0  0  0
 49 64  1  0  0  0
 49116  1  0  0  0
 50 51  1  0  0  0
 50117  1  0  0  0
 50118  1  0  0  0
 51 52  1  0  0  0
 51119  1  0  0  0
 51120  1  0  0  0
 52121  1  0  0  0
 52122  1  0  0  0
 53 54  1  0  0  0
 54 55  2  0  0  0
 54123  1  0  0  0
 55 57  1  0  0  0
 55124  1  0  0  0
 56 69  2  0  0  0
 57 58  2  0  0  0
 57125  1  0  0  0
 58126  1  0  0  0
 59 60  1  0  0  0
 59 61  1  0  0  0
 59 62  1  0  0  0
 60127  1  0  0  0
 60128  1  0  0  0
 60129  1  0  0  0
 61130  1  0  0  0
 61131  1  0  0  0
 61132  1  0  0  0
 62133  1  0  0  0
 62134  1  0  0  0
 62135  1  0  0  0
 63 65  1  0  0  0
 63136  1  0  0  0
 63137  1  0  0  0
 63138  1  0  0  0
 64139  1  0  0  0
 65140  1  0  0  0
 68 77  1  0  0  0
 71 72  2  0  0  0
 71 78  1  0  0  0
 71141  1  0  0  0
 72 75  1  0  0  0
 72 81  1  0  0  0
 73 78  2  0  0  0
 73 79  1  0  0  0
 73 81  1  0  0  0
 74142  1  0  0  0
 74143  1  0  0  0
 74144  1  0  0  0
 74 77  1  0  0  0
 75 80  1  0  0  0
 75145  1  0  0  0
 75146  1  0  0  0
 76 77  1  0  0  0
 76 79  1  0  0  0
 76147  1  0  0  0
 76148  1  0  0  0
 77149  1  0  0  0
 79150  1  0  0  0
 80151  1  0  0  0
M  ISO  4   1 100  68 101  77 101  80 100
M  END
> <chiral flag>
0

> <version>
0

> <s_m_source_file>
/data/baiqing/PycharmProjects/Reinvent-master-3.2/result/LINK_invent/BTK/process_docking_weight1_custom_product_contain_oxygen_bond_distance_aromatic_linkinvent_7_9_3/rearranged_h_0193.sdf

> <i_m_source_file_index>
22

> <r_mmod_Potential_Energy-OPLS-2005>
-26.7684898376465

> <r_mmod_Stretch_Energy-OPLS-2005>
92.706672668457

> <r_mmod_Bend_Energy-OPLS-2005>
158.733139038086

> <r_mmod_Torsional_Energy-OPLS-2005>
208.938217163086

> <r_mmod_Improper_Torsional_Energy-OPLS-2005>
5.15649509429932

> <r_mmod_Van_der_Waal_Energy-OPLS-2005>
118.699630737305

> <r_mmod_Electrostatic_Energy-OPLS-2005>
-455.831512451172

> <r_mmod_Solvation_Energy-OPLS-2005>
-221.985977172852

> <b_mmod_Minimization_Converged-OPLS-2005>
0

> <r_mmod_RMS_Derivative-OPLS-2005>
1.71458232402802

$$$$
22
                    3D
 Structure written by MMmdl.
159167  0  0  1  0            999 V2000
  -30.7089  -14.4184   20.6045 C   0  0  0  0  0  0
  -30.4227  -12.2883   19.4193 C   0  0  0  0  0  0
  -29.5101  -12.5453   18.2062 C   0  0  0  0  0  0
  -28.0212  -12.4280   18.5909 C   0  0  0  0  0  0
  -27.6655  -13.2159   19.8817 C   0  0  2  0  0  0
  -28.6990  -12.9528   20.9989 C   0  0  0  0  0  0
  -25.2573  -13.8182   20.5639 C   0  0  0  0  0  0
  -24.1829  -13.0459   20.9137 C   0  0  0  0  0  0
  -24.6397  -11.6940   20.8657 C   0  0  0  0  0  0
  -23.9042  -10.4338   21.0355 C   0  0  0  0  0  0
  -24.3645   -9.4273   21.9110 C   0  0  0  0  0  0
  -23.6373   -8.2291   22.0695 C   0  0  0  0  0  0
  -22.4347   -8.0301   21.3502 C   0  0  0  0  0  0
  -21.9961   -9.0240   20.4591 C   0  0  0  0  0  0
  -22.7232  -10.2144   20.2988 C   0  0  0  0  0  0
  -21.6889   -6.0772   22.5252 C   0  0  0  0  0  0
  -21.4014   -6.5657   23.8174 C   0  0  0  0  0  0
  -21.3674   -5.6795   24.9133 C   0  0  0  0  0  0
  -21.6074   -4.3047   24.7166 C   0  0  0  0  0  0
  -21.8819   -3.8173   23.4261 C   0  0  0  0  0  0
  -21.9195   -4.7014   22.3354 C   0  0  0  0  0  0
  -22.7838  -13.5247   21.1828 C   0  0  0  0  0  0
  -22.1665   -4.2228   21.0917 F   0  0  0  0  0  0
  -21.5688   -3.4504   25.7643 F   0  0  0  0  0  0
  -30.0348  -13.2516   20.4567 N   0  0  0  0  0  0
  -26.3033  -12.9371   20.3333 N   0  0  0  0  0  0
  -25.9302  -11.6517   20.5639 N   0  0  0  0  0  0
  -22.0488  -12.8211   22.0396 N   0  0  0  0  0  0
  -25.4340  -15.1896   20.4032 N   0  0  0  0  0  0
  -31.8473  -14.6044   20.1702 O   0  0  0  0  0  0
  -21.6712   -6.8905   21.4209 O   0  0  0  0  0  0
  -22.3492  -14.5580   20.6716 O   0  0  0  0  0  0
  -24.6168  -31.8671   23.2054 C   0  0  0  0  0  0
  -25.9077  -32.4819   23.8358 C   0  0  1  0  0  0
  -27.2087  -27.4402   20.0675 C   0  0  0  0  0  0
  -25.5940  -33.8619   24.2310 N   0  0  0  0  0  0
  -23.4007  -30.4976   21.5442 C   0  0  2  0  0  0
  -24.8317  -28.9662   20.1065 C   0  0  0  0  0  0
  -22.7451  -29.4682   22.4940 C   0  0  0  0  0  0
  -18.0294  -28.1391   22.8491 C   0  0  0  0  0  0
  -24.1476  -36.7334   23.2624 C   0  0  0  0  0  0
  -25.9276  -30.8399   21.3486 C   0  0  0  0  0  0
  -25.9946  -29.4712   20.6988 C   0  0  0  0  0  0
  -27.1824  -28.7092   20.6834 C   0  0  0  0  0  0
  -26.0150  -26.9396   19.4841 C   0  0  0  0  0  0
  -24.8362  -27.7001   19.4963 C   0  0  0  0  0  0
  -23.6016  -29.8395   20.1547 C   0  0  0  0  0  0
  -25.4080  -36.3113   24.0342 C   0  0  1  0  0  0
  -20.5877  -28.3676   23.1315 C   0  0  2  0  0  0
  -20.6762  -26.9415   22.5398 C   0  0  0  0  0  0
  -19.5723  -26.6419   21.5186 C   0  0  0  0  0  0
  -18.1928  -26.7946   22.1627 C   0  0  0  0  0  0
  -19.1528  -28.8837   23.2913 C   0  0  0  0  0  0
  -18.9458  -30.1443   23.8932 C   0  0  0  0  0  0
  -17.6451  -30.6579   24.0567 C   0  0  0  0  0  0
  -25.9029  -34.9479   23.5106 C   0  0  0  0  0  0
  -16.5348  -29.9103   23.6300 C   0  0  0  0  0  0
  -16.7274  -28.6516   23.0328 C   0  0  0  0  0  0
  -26.4480  -31.6611   25.0710 C   0  0  0  0  0  0
  -25.3782  -31.3735   26.1483 C   0  0  0  0  0  0
  -27.0216  -30.3029   24.6088 C   0  0  0  0  0  0
  -27.6041  -32.4303   25.7526 C   0  0  0  0  0  0
  -27.5567  -37.1810   24.8451 C   0  0  0  0  0  0
  -21.4158  -29.3079   22.3741 N   0  0  0  0  0  0
  -26.4245  -37.3811   23.9415 N   0  0  0  0  0  0
  -24.6683  -31.0847   22.0902 N   0  0  0  0  0  0
  -23.4239  -28.8238   23.2954 O   0  0  0  0  0  0
  -28.3963  -26.7406   20.0501 O   0  0  0  0  0  0
  -26.5560  -34.8928   22.4660 O   0  0  0  0  0  0
  -23.5394  -32.1395   23.7498 O   0  0  0  0  0  0
  -30.4977  -17.0646   18.6433 C   0  0  0  0  0  0
  -30.3682  -17.9109   17.5436 C   0  0  0  0  0  0
  -30.2522  -17.6128   19.9170 C   0  0  0  0  0  0
  -29.7868  -19.6109   18.9296 C   0  0  0  0  0  0
  -27.1363  -20.9843   19.8518 C   0  0  0  0  0  0
  -30.4224  -16.8152   21.2085 C   0  0  0  0  0  0
  -28.0719  -24.2791   19.9261 C   0  0  0  0  0  0
  -28.4180  -23.0634   19.0494 C   0  0  0  0  0  0
  -28.4993  -25.5842   19.2191 C   0  0  0  0  0  0
  -28.5249  -21.6929   19.7576 C   0  0  2  0  0  0
  -30.0399  -19.2042   17.7022 N   0  0  0  0  0  0
  -29.8641  -18.9000   20.0438 N   0  0  0  0  0  0
  -29.5206  -20.9488   18.9836 N   0  0  0  0  0  0
  -29.9873  -15.4237   21.1150 N   0  0  0  0  0  0
  -31.4717  -12.3944   19.1339 H   0  0  0  0  0  0
  -30.3159  -11.2654   19.7879 H   0  0  0  0  0  0
  -29.7602  -11.8602   17.3956 H   0  0  0  0  0  0
  -29.7004  -13.5507   17.8266 H   0  0  0  0  0  0
  -27.7882  -11.3727   18.7193 H   0  0  0  0  0  0
  -27.4034  -12.7842   17.7643 H   0  0  0  0  0  0
  -27.7244  -14.2755   19.6305 H   0  0  0  0  0  0
  -28.6536  -11.9133   21.3298 H   0  0  0  0  0  0
  -28.4633  -13.5370   21.8870 H   0  0  0  0  0  0
  -25.2773   -9.5869   22.4634 H   0  0  0  0  0  0
  -24.0151   -7.4739   22.7412 H   0  0  0  0  0  0
  -21.0886   -8.8672   19.8922 H   0  0  0  0  0  0
  -22.3597  -10.9649   19.6105 H   0  0  0  0  0  0
  -21.1962   -7.6154   23.9685 H   0  0  0  0  0  0
  -21.1538   -6.0510   25.9037 H   0  0  0  0  0  0
  -22.0599   -2.7646   23.2670 H   0  0  0  0  0  0
  -22.4162  -11.9932   22.4850 H   0  0  0  0  0  0
  -21.1067  -13.1147   22.2540 H   0  0  0  0  0  0
  -24.6749  -15.8538   20.4998 H   0  0  0  0  0  0
  -26.2845  -15.6131   20.0560 H   0  0  0  0  0  0
  -26.7212  -32.5484   23.1163 H   0  0  0  0  0  0
  -25.0196  -33.9779   25.0536 H   0  0  0  0  0  0
  -22.6859  -31.3091   21.4124 H   0  0  0  0  0  0
  -23.3723  -35.9690   23.3271 H   0  0  0  0  0  0
  -24.3599  -36.8956   22.2050 H   0  0  0  0  0  0
  -23.7261  -37.6555   23.6621 H   0  0  0  0  0  0
  -26.0291  -31.6085   20.5782 H   0  0  0  0  0  0
  -26.8205  -30.8949   21.9621 H   0  0  0  0  0  0
  -28.0852  -29.1005   21.1319 H   0  0  0  0  0  0
  -25.9632  -25.9746   19.0041 H   0  0  0  0  0  0
  -23.9392  -27.3032   19.0338 H   0  0  0  0  0  0
  -23.7201  -30.6095   19.3897 H   0  0  0  0  0  0
  -22.7206  -29.2650   19.8657 H   0  0  0  0  0  0
  -25.1285  -36.1947   25.0844 H   0  0  0  0  0  0
  -20.9975  -28.3191   24.1416 H   0  0  0  0  0  0
  -20.5615  -26.2293   23.3584 H   0  0  0  0  0  0
  -21.6641  -26.7448   22.1183 H   0  0  0  0  0  0
  -19.6855  -25.6343   21.1184 H   0  0  0  0  0  0
  -19.6624  -27.3233   20.6706 H   0  0  0  0  0  0
  -17.4186  -26.6685   21.4041 H   0  0  0  0  0  0
  -18.0312  -26.0120   22.9053 H   0  0  0  0  0  0
  -19.7936  -30.7244   24.2324 H   0  0  0  0  0  0
  -17.5016  -31.6242   24.5200 H   0  0  0  0  0  0
  -15.5339  -30.3003   23.7597 H   0  0  0  0  0  0
  -15.8699  -28.0844   22.7002 H   0  0  0  0  0  0
  -24.5964  -30.7060   25.7861 H   0  0  0  0  0  0
  -24.8985  -32.2902   26.4922 H   0  0  0  0  0  0
  -25.8210  -30.8951   27.0234 H   0  0  0  0  0  0
  -26.2724  -29.6892   24.1085 H   0  0  0  0  0  0
  -27.3864  -29.7189   25.4548 H   0  0  0  0  0  0
  -27.8629  -30.4285   23.9269 H   0  0  0  0  0  0
  -27.2638  -33.3574   26.2139 H   0  0  0  0  0  0
  -28.3875  -32.6901   25.0401 H   0  0  0  0  0  0
  -28.0671  -31.8415   26.5451 H   0  0  0  0  0  0
  -28.2564  -38.0126   24.7518 H   0  0  0  0  0  0
  -28.1087  -36.2668   24.6226 H   0  0  0  0  0  0
  -27.2311  -37.1403   25.8859 H   0  0  0  0  0  0
  -20.9279  -29.8950   21.7131 H   0  0  0  0  0  0
  -26.0138  -38.2888   24.1418 H   0  0  0  0  0  0
  -30.8174  -16.0484   18.4802 H   0  0  0  0  0  0
  -30.5523  -17.5765   16.5342 H   0  0  0  0  0  0
  -26.3709  -21.6216   20.3076 H   0  0  0  0  0  0
  -27.1615  -20.0818   20.4647 H   0  0  0  0  0  0
  -26.7441  -20.7037   18.8686 H   0  0  0  0  0  0
  -29.8676  -17.3056   22.0075 H   0  0  0  0  0  0
  -31.4670  -16.8565   21.5135 H   0  0  0  0  0  0
  -28.6261  -24.2050   20.8623 H   0  0  0  0  0  0
  -27.0093  -24.2834   20.1835 H   0  0  0  0  0  0
  -29.3865  -23.2917   18.5991 H   0  0  0  0  0  0
  -27.7360  -22.9930   18.1996 H   0  0  0  0  0  0
  -27.9928  -25.7277   18.2627 H   0  0  0  0  0  0
  -29.5538  -25.4965   18.9554 H   0  0  0  0  0  0
  -28.9274  -21.8466   20.7630 H   0  0  0  0  0  0
  -29.8081  -21.4155   18.1315 H   0  0  0  0  0  0
  -29.0435  -15.2252   21.4052 H   0  0  0  0  0  0
  1 25  1  0  0  0
  1 30  2  0  0  0
  1 84  1  0  0  0
  2  3  1  0  0  0
  2 25  1  0  0  0
  2 85  1  0  0  0
  2 86  1  0  0  0
  3  4  1  0  0  0
  3 87  1  0  0  0
  3 88  1  0  0  0
  4  5  1  0  0  0
  4 89  1  0  0  0
  4 90  1  0  0  0
  5  6  1  0  0  0
  5 26  1  0  0  0
  5 91  1  0  0  0
  6 25  1  0  0  0
  6 92  1  0  0  0
  6 93  1  0  0  0
  7  8  2  0  0  0
  7 26  1  0  0  0
  7 29  1  0  0  0
  8  9  1  0  0  0
  8 22  1  0  0  0
  9 10  1  0  0  0
  9 27  2  0  0  0
 10 11  2  0  0  0
 10 15  1  0  0  0
 11 12  1  0  0  0
 11 94  1  0  0  0
 12 13  2  0  0  0
 12 95  1  0  0  0
 13 14  1  0  0  0
 13 31  1  0  0  0
 14 15  2  0  0  0
 14 96  1  0  0  0
 15 97  1  0  0  0
 16 17  2  0  0  0
 16 21  1  0  0  0
 16 31  1  0  0  0
 17 18  1  0  0  0
 17 98  1  0  0  0
 18 19  2  0  0  0
 18 99  1  0  0  0
 19 20  1  0  0  0
 19 24  1  0  0  0
 20 21  2  0  0  0
 20100  1  0  0  0
 21 23  1  0  0  0
 22 28  1  0  0  0
 22 32  2  0  0  0
 26 27  1  0  0  0
 28101  1  0  0  0
 28102  1  0  0  0
 29103  1  0  0  0
 29104  1  0  0  0
 33 34  1  0  0  0
 33 66  1  0  0  0
 33 70  2  0  0  0
 34 36  1  0  0  0
 34 59  1  0  0  0
 34105  1  0  0  0
 35 44  2  0  0  0
 35 45  1  0  0  0
 35 68  1  0  0  0
 36 56  1  0  0  0
 36106  1  0  0  0
 37 39  1  0  0  0
 37 47  1  0  0  0
 37 66  1  0  0  0
 37107  1  0  0  0
 38 43  2  0  0  0
 38 46  1  0  0  0
 38 47  1  0  0  0
 39 64  1  0  0  0
 39 67  2  0  0  0
 40 52  1  0  0  0
 40 53  2  0  0  0
 40 58  1  0  0  0
 41108  1  0  0  0
 41109  1  0  0  0
 41110  1  0  0  0
 41 48  1  0  0  0
 42 43  1  0  0  0
 42 66  1  0  0  0
 42111  1  0  0  0
 42112  1  0  0  0
 43 44  1  0  0  0
 44113  1  0  0  0
 45 46  2  0  0  0
 45114  1  0  0  0
 46115  1  0  0  0
 47116  1  0  0  0
 47117  1  0  0  0
 48 56  1  0  0  0
 48 65  1  0  0  0
 48118  1  0  0  0
 49 50  1  0  0  0
 49 53  1  0  0  0
 49 64  1  0  0  0
 49119  1  0  0  0
 50 51  1  0  0  0
 50120  1  0  0  0
 50121  1  0  0  0
 51 52  1  0  0  0
 51122  1  0  0  0
 51123  1  0  0  0
 52124  1  0  0  0
 52125  1  0  0  0
 53 54  1  0  0  0
 54 55  2  0  0  0
 54126  1  0  0  0
 55 57  1  0  0  0
 55127  1  0  0  0
 56 69  2  0  0  0
 57 58  2  0  0  0
 57128  1  0  0  0
 58129  1  0  0  0
 59 60  1  0  0  0
 59 61  1  0  0  0
 59 62  1  0  0  0
 60130  1  0  0  0
 60131  1  0  0  0
 60132  1  0  0  0
 61133  1  0  0  0
 61134  1  0  0  0
 61135  1  0  0  0
 62136  1  0  0  0
 62137  1  0  0  0
 62138  1  0  0  0
 63 65  1  0  0  0
 63139  1  0  0  0
 63140  1  0  0  0
 63141  1  0  0  0
 64142  1  0  0  0
 65143  1  0  0  0
 68 79  1  0  0  0
 71 72  2  0  0  0
 71 73  1  0  0  0
 71144  1  0  0  0
 72 81  1  0  0  0
 72145  1  0  0  0
 73 76  1  0  0  0
 73 82  2  0  0  0
 74 81  2  0  0  0
 74 82  1  0  0  0
 74 83  1  0  0  0
 75146  1  0  0  0
 75147  1  0  0  0
 75148  1  0  0  0
 75 80  1  0  0  0
 76 84  1  0  0  0
 76149  1  0  0  0
 76150  1  0  0  0
 77 78  1  0  0  0
 77 79  1  0  0  0
 77151  1  0  0  0
 77152  1  0  0  0
 78 80  1  0  0  0
 78153  1  0  0  0
 78154  1  0  0  0
 79155  1  0  0  0
 79156  1  0  0  0
 80 83  1  0  0  0
 80157  1  0  0  0
 83158  1  0  0  0
 84159  1  0  0  0
M  ISO  4   1 100  68 101  79 101  84 100
M  END
> <chiral flag>
0

> <version>
0

> <s_m_source_file>
/data/baiqing/PycharmProjects/Reinvent-master-3.2/result/LINK_invent/BTK/process_docking_weight1_custom_product_contain_oxygen_bond_distance_aromatic_linkinvent_7_9_3/rearranged_h_0193.sdf

> <i_m_source_file_index>
23

> <r_mmod_Potential_Energy-OPLS-2005>
-765.472351074219

> <r_mmod_Stretch_Energy-OPLS-2005>
33.2429161071777

> <r_mmod_Bend_Energy-OPLS-2005>
124.284843444824

> <r_mmod_Torsional_Energy-OPLS-2005>
194.424468994141

> <r_mmod_Improper_Torsional_Energy-OPLS-2005>
5.44580268859863

> <r_mmod_Van_der_Waal_Energy-OPLS-2005>
172.562149047852

> <r_mmod_Electrostatic_Energy-OPLS-2005>
-1069.66088867188

> <r_mmod_Solvation_Energy-OPLS-2005>
-238.483642578125

> <b_mmod_Minimization_Converged-OPLS-2005>
0

> <r_mmod_RMS_Derivative-OPLS-2005>
7.83219623565674

$$$$
23
                    3D
 Structure written by MMmdl.
163171  0  0  1  0            999 V2000
  -30.5453  -14.7854   20.4419 C   0  0  0  0  0  0
  -30.4370  -12.4743   19.4857 C   0  0  0  0  0  0
  -29.5191  -12.5017   18.2463 C   0  0  0  0  0  0
  -28.0428  -12.3222   18.6523 C   0  0  0  0  0  0
  -27.6353  -13.2271   19.8466 C   0  0  2  0  0  0
  -28.6699  -13.1538   20.9871 C   0  0  0  0  0  0
  -25.2481  -13.8163   20.5702 C   0  0  0  0  0  0
  -24.1754  -13.0421   20.9223 C   0  0  0  0  0  0
  -24.6357  -11.6906   20.8752 C   0  0  0  0  0  0
  -23.9040  -10.4285   21.0390 C   0  0  0  0  0  0
  -24.3599   -9.4197   21.9180 C   0  0  0  0  0  0
  -23.6279   -8.2230   22.0752 C   0  0  0  0  0  0
  -22.4257   -8.0279   21.3559 C   0  0  0  0  0  0
  -21.9894   -9.0238   20.4648 C   0  0  0  0  0  0
  -22.7212  -10.2112   20.3053 C   0  0  0  0  0  0
  -21.6851   -6.0737   22.5281 C   0  0  0  0  0  0
  -21.4010   -6.5646   23.8209 C   0  0  0  0  0  0
  -21.3663   -5.6797   24.9183 C   0  0  0  0  0  0
  -21.6044   -4.3063   24.7215 C   0  0  0  0  0  0
  -21.8824   -3.8157   23.4343 C   0  0  0  0  0  0
  -21.9182   -4.6973   22.3400 C   0  0  0  0  0  0
  -22.7794  -13.5209   21.1899 C   0  0  0  0  0  0
  -22.1663   -4.2169   21.0973 F   0  0  0  0  0  0
  -21.5612   -3.4538   25.7719 F   0  0  0  0  0  0
  -29.9626  -13.5317   20.4094 N   0  0  0  0  0  0
  -26.2876  -12.9367   20.3210 N   0  0  0  0  0  0
  -25.9267  -11.6528   20.5692 N   0  0  0  0  0  0
  -22.0417  -12.8213   22.0439 N   0  0  0  0  0  0
  -25.4112  -15.1900   20.4129 N   0  0  0  0  0  0
  -31.7339  -14.8806   20.1210 O   0  0  0  0  0  0
  -21.6646   -6.8876   21.4239 O   0  0  0  0  0  0
  -22.3483  -14.5518   20.6725 O   0  0  0  0  0  0
  -24.6303  -31.8486   23.1874 C   0  0  0  0  0  0
  -25.9094  -32.4740   23.8274 C   0  0  1  0  0  0
  -27.2275  -27.2360   20.1583 C   0  0  0  0  0  0
  -25.5847  -33.8540   24.2172 N   0  0  0  0  0  0
  -23.4345  -30.4698   21.5227 C   0  0  2  0  0  0
  -24.8880  -28.9052   20.0936 C   0  0  0  0  0  0
  -22.7528  -29.4587   22.4772 C   0  0  0  0  0  0
  -18.0303  -28.1511   22.8506 C   0  0  0  0  0  0
  -24.1446  -36.7284   23.2658 C   0  0  0  0  0  0
  -25.9747  -30.7624   21.3671 C   0  0  0  0  0  0
  -26.0473  -29.3811   20.7128 C   0  0  0  0  0  0
  -27.2111  -28.5536   20.7335 C   0  0  0  0  0  0
  -26.0535  -26.8196   19.4975 C   0  0  0  0  0  0
  -24.8982  -27.6413   19.4724 C   0  0  0  0  0  0
  -23.6644  -29.8017   20.1358 C   0  0  0  0  0  0
  -25.4083  -36.3060   24.0322 C   0  0  1  0  0  0
  -20.5913  -28.3768   23.1279 C   0  0  2  0  0  0
  -20.6772  -26.9468   22.5435 C   0  0  0  0  0  0
  -19.5737  -26.6449   21.5277 C   0  0  0  0  0  0
  -18.1914  -26.8068   22.1667 C   0  0  0  0  0  0
  -19.1574  -28.8957   23.2911 C   0  0  0  0  0  0
  -18.9509  -30.1551   23.8943 C   0  0  0  0  0  0
  -17.6519  -30.6689   24.0625 C   0  0  0  0  0  0
  -25.9047  -34.9450   23.5054 C   0  0  0  0  0  0
  -16.5391  -29.9217   23.6368 C   0  0  0  0  0  0
  -16.7285  -28.6646   23.0332 C   0  0  0  0  0  0
  -26.4464  -31.6642   25.0721 C   0  0  0  0  0  0
  -25.3662  -31.3877   26.1435 C   0  0  0  0  0  0
  -27.0293  -30.3044   24.6224 C   0  0  0  0  0  0
  -27.5992  -32.4386   25.7527 C   0  0  0  0  0  0
  -27.5535  -37.1780   24.8455 C   0  0  0  0  0  0
  -21.4213  -29.3129   22.3653 N   0  0  0  0  0  0
  -26.4242  -37.3772   23.9430 N   0  0  0  0  0  0
  -24.6989  -31.0487   22.0827 N   0  0  0  0  0  0
  -23.4253  -28.8056   23.2786 O   0  0  0  0  0  0
  -28.3621  -26.4122   20.3380 O   0  0  0  0  0  0
  -26.5659  -34.8948   22.4645 O   0  0  0  0  0  0
  -23.5446  -32.1263   23.7169 O   0  0  0  0  0  0
  -31.3494  -17.7692   20.8166 C   0  0  0  0  0  0
  -30.0034  -17.3771   20.5893 C   0  0  0  0  0  0
  -30.8519  -20.0284   20.7493 C   0  0  0  0  0  0
  -29.4728  -19.7743   20.5229 C   0  0  0  0  0  0
  -30.0650  -24.8048   20.6824 C   0  0  0  0  0  0
  -32.5190  -25.4874   20.9529 C   0  0  0  0  0  0
  -29.3229  -22.1740   18.5189 C   0  0  0  0  0  0
  -31.3546  -25.2362   19.9677 C   0  0  0  0  0  0
  -27.9070  -23.5825   20.3198 C   0  0  0  0  0  0
  -28.7019  -24.9756   19.9682 C   0  0  2  0  0  0
  -28.3575  -22.1061   19.7139 C   0  0  2  0  0  0
  -31.7714  -19.0527   20.8761 N   0  0  0  0  0  0
  -29.0689  -18.4294   20.4440 N   0  0  0  0  0  0
  -31.3342  -21.3118   20.9528 N   0  0  0  0  0  0
  -29.7170  -15.9054   20.6096 N   0  0  0  0  0  0
  -28.5494  -20.8981   20.6360 N   0  0  0  0  0  0
  -30.1208  -24.3614   21.8377 O   0  0  0  0  0  0
  -31.4732  -12.6275   19.1825 H   0  0  0  0  0  0
  -30.4167  -11.4969   19.9707 H   0  0  0  0  0  0
  -29.8127  -11.7200   17.5457 H   0  0  0  0  0  0
  -29.6465  -13.4491   17.7219 H   0  0  0  0  0  0
  -27.9063  -11.2728   18.9209 H   0  0  0  0  0  0
  -27.3912  -12.5027   17.7974 H   0  0  0  0  0  0
  -27.6274  -14.2499   19.4675 H   0  0  0  0  0  0
  -28.7077  -12.1457   21.4096 H   0  0  0  0  0  0
  -28.3935  -13.8179   21.8081 H   0  0  0  0  0  0
  -25.2732   -9.5693   22.4770 H   0  0  0  0  0  0
  -24.0001   -7.4623   22.7468 H   0  0  0  0  0  0
  -21.0837   -8.8758   19.8939 H   0  0  0  0  0  0
  -22.3678  -10.9662   19.6177 H   0  0  0  0  0  0
  -21.2022   -7.6155   23.9729 H   0  0  0  0  0  0
  -21.1477   -6.0523   25.9083 H   0  0  0  0  0  0
  -22.0594   -2.7617   23.2826 H   0  0  0  0  0  0
  -22.4043  -11.9895   22.4859 H   0  0  0  0  0  0
  -21.1030  -13.1239   22.2599 H   0  0  0  0  0  0
  -24.6335  -15.8298   20.5321 H   0  0  0  0  0  0
  -26.2357  -15.6399   20.0365 H   0  0  0  0  0  0
  -26.7141  -32.5402   23.1035 H   0  0  0  0  0  0
  -24.9892  -33.9663   25.0241 H   0  0  0  0  0  0
  -22.7344  -31.2922   21.3689 H   0  0  0  0  0  0
  -23.3710  -35.9617   23.3332 H   0  0  0  0  0  0
  -24.3517  -36.8895   22.2069 H   0  0  0  0  0  0
  -23.7222  -37.6485   23.6683 H   0  0  0  0  0  0
  -26.1034  -31.5200   20.5909 H   0  0  0  0  0  0
  -26.8545  -30.8234   21.9934 H   0  0  0  0  0  0
  -28.1003  -28.9071   21.2383 H   0  0  0  0  0  0
  -26.0087  -25.8414   19.0408 H   0  0  0  0  0  0
  -24.0026  -27.2842   18.9818 H   0  0  0  0  0  0
  -23.8188  -30.5814   19.3885 H   0  0  0  0  0  0
  -22.7823  -29.2545   19.8017 H   0  0  0  0  0  0
  -25.1278  -36.1880   25.0812 H   0  0  0  0  0  0
  -21.0034  -28.3366   24.1384 H   0  0  0  0  0  0
  -20.5685  -26.2373   23.3662 H   0  0  0  0  0  0
  -21.6627  -26.7506   22.1228 H   0  0  0  0  0  0
  -19.6865  -25.6341   21.1329 H   0  0  0  0  0  0
  -19.6699  -27.3263   20.6814 H   0  0  0  0  0  0
  -17.4175  -26.6832   21.4057 H   0  0  0  0  0  0
  -18.0232  -26.0285   22.9111 H   0  0  0  0  0  0
  -19.7980  -30.7352   24.2333 H   0  0  0  0  0  0
  -17.5089  -31.6363   24.5244 H   0  0  0  0  0  0
  -15.5396  -30.3153   23.7711 H   0  0  0  0  0  0
  -15.8682  -28.1026   22.6988 H   0  0  0  0  0  0
  -24.5832  -30.7213   25.7799 H   0  0  0  0  0  0
  -24.8895  -32.3111   26.4731 H   0  0  0  0  0  0
  -25.7962  -30.9169   27.0289 H   0  0  0  0  0  0
  -26.2901  -29.6848   24.1129 H   0  0  0  0  0  0
  -27.3845  -29.7245   25.4757 H   0  0  0  0  0  0
  -27.8826  -30.4340   23.9555 H   0  0  0  0  0  0
  -27.2565  -33.3703   26.2045 H   0  0  0  0  0  0
  -28.3870  -32.6904   25.0415 H   0  0  0  0  0  0
  -28.0565  -31.8545   26.5509 H   0  0  0  0  0  0
  -28.2546  -38.0080   24.7500 H   0  0  0  0  0  0
  -28.1022  -36.2609   24.6270 H   0  0  0  0  0  0
  -27.2248  -37.1417   25.8851 H   0  0  0  0  0  0
  -20.9345  -29.9019   21.7017 H   0  0  0  0  0  0
  -26.0092  -38.2808   24.1497 H   0  0  0  0  0  0
  -32.1275  -17.0498   21.0071 H   0  0  0  0  0  0
  -33.4535  -25.6860   20.4291 H   0  0  0  0  0  0
  -32.6982  -24.6310   21.6072 H   0  0  0  0  0  0
  -32.3169  -26.3440   21.5978 H   0  0  0  0  0  0
  -28.8414  -22.6946   17.6861 H   0  0  0  0  0  0
  -29.6111  -21.1927   18.1451 H   0  0  0  0  0  0
  -30.2348  -22.7156   18.7498 H   0  0  0  0  0  0
  -31.1695  -26.1310   19.3729 H   0  0  0  0  0  0
  -31.6451  -24.4412   19.2787 H   0  0  0  0  0  0
  -27.7920  -23.4889   21.4011 H   0  0  0  0  0  0
  -26.8844  -23.7473   19.9789 H   0  0  0  0  0  0
  -28.8814  -24.9772   18.8947 H   0  0  0  0  0  0
  -27.4313  -21.7953   19.2234 H   0  0  0  0  0  0
  -32.2752  -21.4667   21.2854 H   0  0  0  0  0  0
  -30.6737  -22.0698   21.0873 H   0  0  0  0  0  0
  -28.7493  -15.6694   20.7717 H   0  0  0  0  0  0
  -28.6224  -21.2415   21.5886 H   0  0  0  0  0  0
  1 25  1  0  0  0
  1 30  2  0  0  0
  1 85  1  0  0  0
  2  3  1  0  0  0
  2 25  1  0  0  0
  2 88  1  0  0  0
  2 89  1  0  0  0
  3  4  1  0  0  0
  3 90  1  0  0  0
  3 91  1  0  0  0
  4  5  1  0  0  0
  4 92  1  0  0  0
  4 93  1  0  0  0
  5  6  1  0  0  0
  5 26  1  0  0  0
  5 94  1  0  0  0
  6 25  1  0  0  0
  6 95  1  0  0  0
  6 96  1  0  0  0
  7  8  2  0  0  0
  7 26  1  0  0  0
  7 29  1  0  0  0
  8  9  1  0  0  0
  8 22  1  0  0  0
  9 10  1  0  0  0
  9 27  2  0  0  0
 10 11  2  0  0  0
 10 15  1  0  0  0
 11 12  1  0  0  0
 11 97  1  0  0  0
 12 13  2  0  0  0
 12 98  1  0  0  0
 13 14  1  0  0  0
 13 31  1  0  0  0
 14 15  2  0  0  0
 14 99  1  0  0  0
 15100  1  0  0  0
 16 17  2  0  0  0
 16 21  1  0  0  0
 16 31  1  0  0  0
 17 18  1  0  0  0
 17101  1  0  0  0
 18 19  2  0  0  0
 18102  1  0  0  0
 19 20  1  0  0  0
 19 24  1  0  0  0
 20 21  2  0  0  0
 20103  1  0  0  0
 21 23  1  0  0  0
 22 28  1  0  0  0
 22 32  2  0  0  0
 26 27  1  0  0  0
 28104  1  0  0  0
 28105  1  0  0  0
 29106  1  0  0  0
 29107  1  0  0  0
 33 34  1  0  0  0
 33 66  1  0  0  0
 33 70  2  0  0  0
 34 36  1  0  0  0
 34 59  1  0  0  0
 34108  1  0  0  0
 35 44  2  0  0  0
 35 45  1  0  0  0
 35 68  1  0  0  0
 36 56  1  0  0  0
 36109  1  0  0  0
 37 39  1  0  0  0
 37 47  1  0  0  0
 37 66  1  0  0  0
 37110  1  0  0  0
 38 43  2  0  0  0
 38 46  1  0  0  0
 38 47  1  0  0  0
 39 64  1  0  0  0
 39 67  2  0  0  0
 40 52  1  0  0  0
 40 53  2  0  0  0
 40 58  1  0  0  0
 41111  1  0  0  0
 41112  1  0  0  0
 41113  1  0  0  0
 41 48  1  0  0  0
 42 43  1  0  0  0
 42 66  1  0  0  0
 42114  1  0  0  0
 42115  1  0  0  0
 43 44  1  0  0  0
 44116  1  0  0  0
 45 46  2  0  0  0
 45117  1  0  0  0
 46118  1  0  0  0
 47119  1  0  0  0
 47120  1  0  0  0
 48 56  1  0  0  0
 48 65  1  0  0  0
 48121  1  0  0  0
 49 50  1  0  0  0
 49 53  1  0  0  0
 49 64  1  0  0  0
 49122  1  0  0  0
 50 51  1  0  0  0
 50123  1  0  0  0
 50124  1  0  0  0
 51 52  1  0  0  0
 51125  1  0  0  0
 51126  1  0  0  0
 52127  1  0  0  0
 52128  1  0  0  0
 53 54  1  0  0  0
 54 55  2  0  0  0
 54129  1  0  0  0
 55 57  1  0  0  0
 55130  1  0  0  0
 56 69  2  0  0  0
 57 58  2  0  0  0
 57131  1  0  0  0
 58132  1  0  0  0
 59 60  1  0  0  0
 59 61  1  0  0  0
 59 62  1  0  0  0
 60133  1  0  0  0
 60134  1  0  0  0
 60135  1  0  0  0
 61136  1  0  0  0
 61137  1  0  0  0
 61138  1  0  0  0
 62139  1  0  0  0
 62140  1  0  0  0
 62141  1  0  0  0
 63 65  1  0  0  0
 63142  1  0  0  0
 63143  1  0  0  0
 63144  1  0  0  0
 64145  1  0  0  0
 65146  1  0  0  0
 68 80  1  0  0  0
 71 72  2  0  0  0
 71 82  1  0  0  0
 71147  1  0  0  0
 72 83  1  0  0  0
 72 85  1  0  0  0
 73 74  1  0  0  0
 73 82  2  0  0  0
 73 84  1  0  0  0
 74 83  2  0  0  0
 74 86  1  0  0  0
 75 78  1  0  0  0
 75 80  1  0  0  0
 75 87  2  0  0  0
 76 78  1  0  0  0
 76148  1  0  0  0
 76149  1  0  0  0
 76150  1  0  0  0
 77151  1  0  0  0
 77152  1  0  0  0
 77153  1  0  0  0
 77 81  1  0  0  0
 78154  1  0  0  0
 78155  1  0  0  0
 79 81  1  0  0  0
 79156  1  0  0  0
 79157  1  0  0  0
 79 80  1  0  0  0
 80158  1  0  0  0
 81 86  1  0  0  0
 81159  1  0  0  0
 84160  1  0  0  0
 84161  1  0  0  0
 85162  1  0  0  0
 86163  1  0  0  0
M  ISO  4   1 100  68 101  80 101  85 100
M  END
> <chiral flag>
0

> <version>
0

> <s_m_source_file>
/data/baiqing/PycharmProjects/Reinvent-master-3.2/result/LINK_invent/BTK/process_docking_weight1_custom_product_contain_oxygen_bond_distance_aromatic_linkinvent_7_9_3/rearranged_h_0193.sdf

> <i_m_source_file_index>
24

> <r_mmod_Potential_Energy-OPLS-2005>
254.349945068359

> <r_mmod_Stretch_Energy-OPLS-2005>
161.916030883789

> <r_mmod_Bend_Energy-OPLS-2005>
283.876342773438

> <r_mmod_Torsional_Energy-OPLS-2005>
272.488952636719

> <r_mmod_Improper_Torsional_Energy-OPLS-2005>
13.2086458206177

> <r_mmod_Van_der_Waal_Energy-OPLS-2005>
140.366653442383

> <r_mmod_Electrostatic_Energy-OPLS-2005>
-488.888275146484

> <r_mmod_Solvation_Energy-OPLS-2005>
-233.463729858398

> <b_mmod_Minimization_Converged-OPLS-2005>
0

> <r_mmod_RMS_Derivative-OPLS-2005>
6.14126586914062

$$$$
24
                    3D
 Structure written by MMmdl.
155163  0  0  1  0            999 V2000
  -30.6766  -14.5885   20.4784 C   0  0  0  0  0  0
  -30.4098  -12.3490   19.4566 C   0  0  0  0  0  0
  -29.4914  -12.4827   18.2229 C   0  0  0  0  0  0
  -28.0154  -12.3355   18.6375 C   0  0  0  0  0  0
  -27.6462  -13.2222   19.8557 C   0  0  2  0  0  0
  -28.6897  -13.0986   20.9908 C   0  0  0  0  0  0
  -25.2525  -13.8187   20.5766 C   0  0  0  0  0  0
  -24.1801  -13.0455   20.9281 C   0  0  0  0  0  0
  -24.6386  -11.6922   20.8804 C   0  0  0  0  0  0
  -23.9075  -10.4295   21.0444 C   0  0  0  0  0  0
  -24.3628   -9.4189   21.9207 C   0  0  0  0  0  0
  -23.6306   -8.2215   22.0752 C   0  0  0  0  0  0
  -22.4276   -8.0283   21.3557 C   0  0  0  0  0  0
  -21.9945   -9.0262   20.4649 C   0  0  0  0  0  0
  -22.7268  -10.2140   20.3077 C   0  0  0  0  0  0
  -21.6841   -6.0757   22.5310 C   0  0  0  0  0  0
  -21.3994   -6.5651   23.8254 C   0  0  0  0  0  0
  -21.3648   -5.6804   24.9215 C   0  0  0  0  0  0
  -21.6041   -4.3070   24.7261 C   0  0  0  0  0  0
  -21.8802   -3.8163   23.4380 C   0  0  0  0  0  0
  -21.9182   -4.6979   22.3436 C   0  0  0  0  0  0
  -22.7811  -13.5226   21.1943 C   0  0  0  0  0  0
  -22.1651   -4.2161   21.1014 F   0  0  0  0  0  0
  -21.5643   -3.4551   25.7769 F   0  0  0  0  0  0
  -30.0070  -13.3961   20.4184 N   0  0  0  0  0  0
  -26.2946  -12.9396   20.3325 N   0  0  0  0  0  0
  -25.9306  -11.6537   20.5807 N   0  0  0  0  0  0
  -22.0450  -12.8184   22.0452 N   0  0  0  0  0  0
  -25.4277  -15.1909   20.4174 N   0  0  0  0  0  0
  -31.8581  -14.6395   20.1306 O   0  0  0  0  0  0
  -21.6623   -6.8891   21.4265 O   0  0  0  0  0  0
  -22.3494  -14.5565   20.6838 O   0  0  0  0  0  0
  -24.6180  -31.8616   23.2062 C   0  0  0  0  0  0
  -25.9049  -32.4781   23.8364 C   0  0  1  0  0  0
  -27.2182  -27.3691   20.1357 C   0  0  0  0  0  0
  -25.5891  -33.8587   24.2272 N   0  0  0  0  0  0
  -23.4075  -30.4827   21.5478 C   0  0  2  0  0  0
  -24.8551  -28.9400   20.1130 C   0  0  0  0  0  0
  -22.7423  -29.4616   22.4983 C   0  0  0  0  0  0
  -18.0264  -28.1387   22.8483 C   0  0  0  0  0  0
  -24.1488  -36.7310   23.2638 C   0  0  0  0  0  0
  -25.9397  -30.8119   21.3634 C   0  0  0  0  0  0
  -26.0153  -29.4407   20.7147 C   0  0  0  0  0  0
  -27.2031  -28.6646   20.7155 C   0  0  0  0  0  0
  -26.0477  -26.8963   19.5140 C   0  0  0  0  0  0
  -24.8722  -27.6731   19.5013 C   0  0  0  0  0  0
  -23.6149  -29.8082   20.1639 C   0  0  0  0  0  0
  -25.4101  -36.3090   24.0330 C   0  0  1  0  0  0
  -20.5860  -28.3674   23.1326 C   0  0  2  0  0  0
  -20.6762  -26.9410   22.5433 C   0  0  0  0  0  0
  -19.5740  -26.6390   21.5225 C   0  0  0  0  0  0
  -18.1917  -26.7920   22.1617 C   0  0  0  0  0  0
  -19.1512  -28.8845   23.2888 C   0  0  0  0  0  0
  -18.9440  -30.1459   23.8886 C   0  0  0  0  0  0
  -17.6437  -30.6582   24.0570 C   0  0  0  0  0  0
  -25.9045  -34.9456   23.5102 C   0  0  0  0  0  0
  -16.5331  -29.9074   23.6350 C   0  0  0  0  0  0
  -16.7253  -28.6508   23.0342 C   0  0  0  0  0  0
  -26.4441  -31.6592   25.0712 C   0  0  0  0  0  0
  -25.3682  -31.3706   26.1458 C   0  0  0  0  0  0
  -27.0302  -30.3033   24.6132 C   0  0  0  0  0  0
  -27.6024  -32.4328   25.7460 C   0  0  0  0  0  0
  -27.5571  -37.1779   24.8438 C   0  0  0  0  0  0
  -21.4157  -29.3021   22.3725 N   0  0  0  0  0  0
  -26.4265  -37.3794   23.9411 N   0  0  0  0  0  0
  -24.6741  -31.0676   22.0973 N   0  0  0  0  0  0
  -23.4177  -28.8164   23.3039 O   0  0  0  0  0  0
  -28.3637  -26.5874   20.1465 O   0  0  0  0  0  0
  -26.5620  -34.8913   22.4682 O   0  0  0  0  0  0
  -23.5373  -32.1411   23.7441 O   0  0  0  0  0  0
  -29.3218  -18.1640   20.7051 C   0  0  0  0  0  0
  -28.3049  -20.1502   20.5904 C   0  0  0  0  0  0
  -30.3345  -17.0229   20.5771 C   0  0  0  0  0  0
  -30.1393  -22.7005   19.9850 C   0  0  0  0  0  0
  -27.7443  -25.4834   22.2927 C   0  0  0  0  0  0
  -27.9381  -24.0086   20.1644 C   0  0  0  0  0  0
  -28.7021  -22.6642   20.5395 C   0  0  1  0  0  0
  -28.3913  -25.3320   20.9007 C   0  0  1  0  0  0
  -29.3921  -19.4291   20.2225 N   0  0  0  0  0  0
  -27.3897  -19.5474   21.3698 N   0  0  0  0  0  0
  -28.0020  -21.4382   20.0801 N   0  0  0  0  0  0
  -29.9358  -15.7155   20.7215 N   0  0  0  0  0  0
  -31.4911  -17.3592   20.2849 O   0  0  0  0  0  0
  -27.9023  -17.9531   21.6939 S   0  0  0  0  0  0
  -31.4580  -12.4184   19.1602 H   0  0  0  0  0  0
  -30.3052  -11.3581   19.8993 H   0  0  0  0  0  0
  -29.7415  -11.7247   17.4785 H   0  0  0  0  0  0
  -29.6466  -13.4509   17.7438 H   0  0  0  0  0  0
  -27.8471  -11.2866   18.8799 H   0  0  0  0  0  0
  -27.3631  -12.5585   17.7926 H   0  0  0  0  0  0
  -27.6628  -14.2522   19.4953 H   0  0  0  0  0  0
  -28.6812  -12.0895   21.4069 H   0  0  0  0  0  0
  -28.4457  -13.7658   21.8191 H   0  0  0  0  0  0
  -25.2757   -9.5628   22.4809 H   0  0  0  0  0  0
  -24.0001   -7.4564   22.7437 H   0  0  0  0  0  0
  -21.0907   -8.8808   19.8903 H   0  0  0  0  0  0
  -22.3773  -10.9710   19.6193 H   0  0  0  0  0  0
  -21.1963   -7.6150   23.9783 H   0  0  0  0  0  0
  -21.1493   -6.0526   25.9136 H   0  0  0  0  0  0
  -22.0583   -2.7621   23.2904 H   0  0  0  0  0  0
  -22.4090  -11.9810   22.4729 H   0  0  0  0  0  0
  -21.1056  -13.1182   22.2704 H   0  0  0  0  0  0
  -24.6685  -15.8522   20.5462 H   0  0  0  0  0  0
  -26.2687  -15.6188   20.0563 H   0  0  0  0  0  0
  -26.7111  -32.5472   23.1115 H   0  0  0  0  0  0
  -25.0033  -33.9741   25.0413 H   0  0  0  0  0  0
  -22.6988  -31.3022   21.4035 H   0  0  0  0  0  0
  -23.3743  -35.9647   23.3300 H   0  0  0  0  0  0
  -24.3586  -36.8956   22.2053 H   0  0  0  0  0  0
  -23.7234  -37.6498   23.6682 H   0  0  0  0  0  0
  -26.0589  -31.5727   20.5906 H   0  0  0  0  0  0
  -26.8252  -30.8666   21.9845 H   0  0  0  0  0  0
  -28.1011  -29.0404   21.1849 H   0  0  0  0  0  0
  -26.0468  -25.9233   19.0451 H   0  0  0  0  0  0
  -23.9851  -27.2880   19.0219 H   0  0  0  0  0  0
  -23.7092  -30.5750   19.3944 H   0  0  0  0  0  0
  -22.7366  -29.2244   19.8815 H   0  0  0  0  0  0
  -25.1272  -36.1949   25.0812 H   0  0  0  0  0  0
  -20.9954  -28.3238   24.1441 H   0  0  0  0  0  0
  -20.5687  -26.2260   23.3603 H   0  0  0  0  0  0
  -21.6621  -26.7455   22.1195 H   0  0  0  0  0  0
  -19.6915  -25.6312   21.1239 H   0  0  0  0  0  0
  -19.6692  -27.3209   20.6763 H   0  0  0  0  0  0
  -17.4183  -26.6686   21.4015 H   0  0  0  0  0  0
  -18.0297  -26.0074   22.9017 H   0  0  0  0  0  0
  -19.7910  -30.7301   24.2240 H   0  0  0  0  0  0
  -17.4973  -31.6263   24.5163 H   0  0  0  0  0  0
  -15.5327  -30.2943   23.7713 H   0  0  0  0  0  0
  -15.8652  -28.0838   22.7034 H   0  0  0  0  0  0
  -24.5858  -30.7053   25.7763 H   0  0  0  0  0  0
  -24.8862  -32.2866   26.4887 H   0  0  0  0  0  0
  -25.8017  -30.8871   27.0229 H   0  0  0  0  0  0
  -26.2889  -29.6758   24.1160 H   0  0  0  0  0  0
  -27.4022  -29.7273   25.4615 H   0  0  0  0  0  0
  -27.8740  -30.4318   23.9343 H   0  0  0  0  0  0
  -27.2657  -33.3633   26.2034 H   0  0  0  0  0  0
  -28.3825  -32.6890   25.0273 H   0  0  0  0  0  0
  -28.0702  -31.8458   26.5366 H   0  0  0  0  0  0
  -28.2543  -38.0123   24.7573 H   0  0  0  0  0  0
  -28.1117  -36.2657   24.6177 H   0  0  0  0  0  0
  -27.2302  -37.1326   25.8841 H   0  0  0  0  0  0
  -20.9329  -29.8718   21.6926 H   0  0  0  0  0  0
  -26.0161  -38.2861   24.1460 H   0  0  0  0  0  0
  -30.6560  -23.6263   20.2369 H   0  0  0  0  0  0
  -30.1452  -22.6171   18.8973 H   0  0  0  0  0  0
  -30.7491  -21.8902   20.3864 H   0  0  0  0  0  0
  -27.8901  -24.5884   22.8977 H   0  0  0  0  0  0
  -26.6695  -25.6517   22.2247 H   0  0  0  0  0  0
  -28.1863  -26.3163   22.8419 H   0  0  0  0  0  0
  -26.8705  -23.8827   20.3475 H   0  0  0  0  0  0
  -28.0274  -24.1689   19.0889 H   0  0  0  0  0  0
  -28.7536  -22.6036   21.6279 H   0  0  0  0  0  0
  -29.4544  -25.2186   21.1053 H   0  0  0  0  0  0
  -26.9985  -21.5737   20.1546 H   0  0  0  0  0  0
  -28.9720  -15.5753   20.9618 H   0  0  0  0  0  0
  1 25  1  0  0  0
  1 30  2  0  0  0
  1 82  1  0  0  0
  2  3  1  0  0  0
  2 25  1  0  0  0
  2 85  1  0  0  0
  2 86  1  0  0  0
  3  4  1  0  0  0
  3 87  1  0  0  0
  3 88  1  0  0  0
  4  5  1  0  0  0
  4 89  1  0  0  0
  4 90  1  0  0  0
  5  6  1  0  0  0
  5 26  1  0  0  0
  5 91  1  0  0  0
  6 25  1  0  0  0
  6 92  1  0  0  0
  6 93  1  0  0  0
  7  8  2  0  0  0
  7 26  1  0  0  0
  7 29  1  0  0  0
  8  9  1  0  0  0
  8 22  1  0  0  0
  9 10  1  0  0  0
  9 27  2  0  0  0
 10 11  2  0  0  0
 10 15  1  0  0  0
 11 12  1  0  0  0
 11 94  1  0  0  0
 12 13  2  0  0  0
 12 95  1  0  0  0
 13 14  1  0  0  0
 13 31  1  0  0  0
 14 15  2  0  0  0
 14 96  1  0  0  0
 15 97  1  0  0  0
 16 17  2  0  0  0
 16 21  1  0  0  0
 16 31  1  0  0  0
 17 18  1  0  0  0
 17 98  1  0  0  0
 18 19  2  0  0  0
 18 99  1  0  0  0
 19 20  1  0  0  0
 19 24  1  0  0  0
 20 21  2  0  0  0
 20100  1  0  0  0
 21 23  1  0  0  0
 22 28  1  0  0  0
 22 32  2  0  0  0
 26 27  1  0  0  0
 28101  1  0  0  0
 28102  1  0  0  0
 29103  1  0  0  0
 29104  1  0  0  0
 33 34  1  0  0  0
 33 66  1  0  0  0
 33 70  2  0  0  0
 34 36  1  0  0  0
 34 59  1  0  0  0
 34105  1  0  0  0
 35 44  2  0  0  0
 35 45  1  0  0  0
 35 68  1  0  0  0
 36 56  1  0  0  0
 36106  1  0  0  0
 37 39  1  0  0  0
 37 47  1  0  0  0
 37 66  1  0  0  0
 37107  1  0  0  0
 38 43  2  0  0  0
 38 46  1  0  0  0
 38 47  1  0  0  0
 39 64  1  0  0  0
 39 67  2  0  0  0
 40 52  1  0  0  0
 40 53  2  0  0  0
 40 58  1  0  0  0
 41108  1  0  0  0
 41109  1  0  0  0
 41110  1  0  0  0
 41 48  1  0  0  0
 42 43  1  0  0  0
 42 66  1  0  0  0
 42111  1  0  0  0
 42112  1  0  0  0
 43 44  1  0  0  0
 44113  1  0  0  0
 45 46  2  0  0  0
 45114  1  0  0  0
 46115  1  0  0  0
 47116  1  0  0  0
 47117  1  0  0  0
 48 56  1  0  0  0
 48 65  1  0  0  0
 48118  1  0  0  0
 49 50  1  0  0  0
 49 53  1  0  0  0
 49 64  1  0  0  0
 49119  1  0  0  0
 50 51  1  0  0  0
 50120  1  0  0  0
 50121  1  0  0  0
 51 52  1  0  0  0
 51122  1  0  0  0
 51123  1  0  0  0
 52124  1  0  0  0
 52125  1  0  0  0
 53 54  1  0  0  0
 54 55  2  0  0  0
 54126  1  0  0  0
 55 57  1  0  0  0
 55127  1  0  0  0
 56 69  2  0  0  0
 57 58  2  0  0  0
 57128  1  0  0  0
 58129  1  0  0  0
 59 60  1  0  0  0
 59 61  1  0  0  0
 59 62  1  0  0  0
 60130  1  0  0  0
 60131  1  0  0  0
 60132  1  0  0  0
 61133  1  0  0  0
 61134  1  0  0  0
 61135  1  0  0  0
 62136  1  0  0  0
 62137  1  0  0  0
 62138  1  0  0  0
 63 65  1  0  0  0
 63139  1  0  0  0
 63140  1  0  0  0
 63141  1  0  0  0
 64142  1  0  0  0
 65143  1  0  0  0
 68 78  1  0  0  0
 71 73  1  0  0  0
 71 79  2  0  0  0
 71 84  1  0  0  0
 72 79  1  0  0  0
 72 80  2  0  0  0
 72 81  1  0  0  0
 73 82  1  0  0  0
 73 83  2  0  0  0
 74144  1  0  0  0
 74145  1  0  0  0
 74146  1  0  0  0
 74 77  1  0  0  0
 75147  1  0  0  0
 75148  1  0  0  0
 75149  1  0  0  0
 75 78  1  0  0  0
 76 77  1  0  0  0
 76 78  1  0  0  0
 76150  1  0  0  0
 76151  1  0  0  0
 77 81  1  0  0  0
 77152  1  0  0  0
 78153  1  0  0  0
 80 84  1  0  0  0
 81154  1  0  0  0
 82155  1  0  0  0
M  ISO  4   1 100  68 101  78 101  82 100
M  END
> <chiral flag>
0

> <version>
0

> <s_m_source_file>
/data/baiqing/PycharmProjects/Reinvent-master-3.2/result/LINK_invent/BTK/process_docking_weight1_custom_product_contain_oxygen_bond_distance_aromatic_linkinvent_7_9_3/rearranged_h_0193.sdf

> <i_m_source_file_index>
25

> <r_mmod_Potential_Energy-OPLS-2005>
-118.444206237793

> <r_mmod_Stretch_Energy-OPLS-2005>
59.9727363586426

> <r_mmod_Bend_Energy-OPLS-2005>
140.119476318359

> <r_mmod_Torsional_Energy-OPLS-2005>
263.585662841797

> <r_mmod_Improper_Torsional_Energy-OPLS-2005>
11.1889781951904

> <r_mmod_Van_der_Waal_Energy-OPLS-2005>
120.549774169922

> <r_mmod_Electrostatic_Energy-OPLS-2005>
-497.222076416016

> <r_mmod_Solvation_Energy-OPLS-2005>
-250.499908447266

> <b_mmod_Minimization_Converged-OPLS-2005>
0

> <r_mmod_RMS_Derivative-OPLS-2005>
3.90401244163513

$$$$
25
                    3D
 Structure written by MMmdl.
162170  0  0  1  0            999 V2000
  -30.6131  -14.7711   20.4268 C   0  0  0  0  0  0
  -30.4344  -12.4682   19.4779 C   0  0  0  0  0  0
  -29.5118  -12.4986   18.2396 C   0  0  0  0  0  0
  -28.0441  -12.3087   18.6629 C   0  0  0  0  0  0
  -27.6426  -13.2307   19.8446 C   0  0  2  0  0  0
  -28.6866  -13.2002   20.9829 C   0  0  0  0  0  0
  -25.2550  -13.8199   20.5686 C   0  0  0  0  0  0
  -24.1832  -13.0453   20.9199 C   0  0  0  0  0  0
  -24.6419  -11.6922   20.8766 C   0  0  0  0  0  0
  -23.9097  -10.4302   21.0422 C   0  0  0  0  0  0
  -24.3640   -9.4207   21.9196 C   0  0  0  0  0  0
  -23.6307   -8.2248   22.0768 C   0  0  0  0  0  0
  -22.4287   -8.0304   21.3555 C   0  0  0  0  0  0
  -21.9931   -9.0276   20.4652 C   0  0  0  0  0  0
  -22.7275  -10.2151   20.3063 C   0  0  0  0  0  0
  -21.6858   -6.0758   22.5281 C   0  0  0  0  0  0
  -21.4013   -6.5654   23.8215 C   0  0  0  0  0  0
  -21.3653   -5.6803   24.9180 C   0  0  0  0  0  0
  -21.6036   -4.3062   24.7220 C   0  0  0  0  0  0
  -21.8822   -3.8161   23.4337 C   0  0  0  0  0  0
  -21.9194   -4.6987   22.3402 C   0  0  0  0  0  0
  -22.7852  -13.5247   21.1844 C   0  0  0  0  0  0
  -22.1666   -4.2173   21.0979 F   0  0  0  0  0  0
  -21.5623   -3.4547   25.7729 F   0  0  0  0  0  0
  -29.9876  -13.5429   20.3973 N   0  0  0  0  0  0
  -26.2958  -12.9398   20.3267 N   0  0  0  0  0  0
  -25.9349  -11.6542   20.5757 N   0  0  0  0  0  0
  -22.0490  -12.8238   22.0396 N   0  0  0  0  0  0
  -25.4244  -15.1925   20.4086 N   0  0  0  0  0  0
  -31.8000  -14.8542   20.1018 O   0  0  0  0  0  0
  -21.6648   -6.8907   21.4245 O   0  0  0  0  0  0
  -22.3546  -14.5556   20.6701 O   0  0  0  0  0  0
  -24.6326  -31.8512   23.1900 C   0  0  0  0  0  0
  -25.9131  -32.4733   23.8265 C   0  0  1  0  0  0
  -27.2361  -27.2609   20.1208 C   0  0  0  0  0  0
  -25.5924  -33.8535   24.2191 N   0  0  0  0  0  0
  -23.4323  -30.4686   21.5351 C   0  0  2  0  0  0
  -24.8810  -28.9052   20.1177 C   0  0  0  0  0  0
  -22.7496  -29.4570   22.4904 C   0  0  0  0  0  0
  -18.0277  -28.1404   22.8468 C   0  0  0  0  0  0
  -24.1495  -36.7292   23.2647 C   0  0  0  0  0  0
  -25.9770  -30.7636   21.3677 C   0  0  0  0  0  0
  -26.0532  -29.3816   20.7192 C   0  0  0  0  0  0
  -27.2364  -28.5729   20.7034 C   0  0  0  0  0  0
  -26.0385  -26.8370   19.5146 C   0  0  0  0  0  0
  -24.8783  -27.6395   19.5064 C   0  0  0  0  0  0
  -23.6506  -29.7897   20.1581 C   0  0  0  0  0  0
  -25.4122  -36.3052   24.0309 C   0  0  1  0  0  0
  -20.5875  -28.3699   23.1284 C   0  0  2  0  0  0
  -20.6781  -26.9429   22.5409 C   0  0  0  0  0  0
  -19.5745  -26.6392   21.5232 C   0  0  0  0  0  0
  -18.1918  -26.7947   22.1618 C   0  0  0  0  0  0
  -19.1538  -28.8870   23.2866 C   0  0  0  0  0  0
  -18.9463  -30.1470   23.8875 C   0  0  0  0  0  0
  -17.6463  -30.6596   24.0569 C   0  0  0  0  0  0
  -25.9058  -34.9427   23.5055 C   0  0  0  0  0  0
  -16.5351  -29.9093   23.6345 C   0  0  0  0  0  0
  -16.7266  -28.6523   23.0341 C   0  0  0  0  0  0
  -26.4497  -31.6583   25.0683 C   0  0  0  0  0  0
  -25.3689  -31.3721   26.1372 C   0  0  0  0  0  0
  -27.0364  -30.3004   24.6177 C   0  0  0  0  0  0
  -27.6045  -32.4335   25.7447 C   0  0  0  0  0  0
  -27.5560  -37.1790   24.8456 C   0  0  0  0  0  0
  -21.4200  -29.3040   22.3667 N   0  0  0  0  0  0
  -26.4282  -37.3771   23.9393 N   0  0  0  0  0  0
  -24.7010  -31.0462   22.0876 N   0  0  0  0  0  0
  -23.4179  -28.8108   23.3027 O   0  0  0  0  0  0
  -28.3572  -26.4048   20.0414 O   0  0  0  0  0  0
  -26.5662  -34.8915   22.4634 O   0  0  0  0  0  0
  -23.5460  -32.1319   23.7170 O   0  0  0  0  0  0
  -28.5720  -18.5833   21.7508 C   0  0  0  0  0  0
  -29.4174  -18.6184   20.6724 C   0  0  0  0  0  0
  -28.7774  -20.9302   20.8582 C   0  0  0  0  0  0
  -30.0470  -23.6720   19.1627 C   0  0  0  0  0  0
  -29.4054  -25.3798   17.3479 C   0  0  0  0  0  0
  -28.8130  -24.7635   23.2425 C   0  0  0  0  0  0
  -30.2027  -17.3501   20.1325 C   0  0  0  0  0  0
  -30.0118  -24.0045   17.6662 C   0  0  0  0  0  0
  -29.3212  -25.2996   21.9004 C   0  0  0  0  0  0
  -28.7035  -23.6318   19.9215 C   0  0  2  0  0  0
  -28.3680  -25.0532   20.7017 C   0  0  2  0  0  0
  -29.4974  -19.9852   20.1588 N   0  0  0  0  0  0
  -28.5976  -22.3677   20.7624 N   0  0  0  0  0  0
  -29.8497  -15.9222   20.5769 N   0  0  0  0  0  0
  -31.1241  -23.3845   19.6890 O   0  0  0  0  0  0
  -27.9146  -20.1490   22.1819 S   0  0  0  0  0  0
  -31.4742  -12.5895   19.1698 H   0  0  0  0  0  0
  -30.3838  -11.4973   19.9740 H   0  0  0  0  0  0
  -29.8007  -11.7188   17.5335 H   0  0  0  0  0  0
  -29.6257  -13.4472   17.7121 H   0  0  0  0  0  0
  -27.9260  -11.2654   18.9588 H   0  0  0  0  0  0
  -27.3771  -12.4603   17.8129 H   0  0  0  0  0  0
  -27.6288  -14.2429   19.4384 H   0  0  0  0  0  0
  -28.7256  -12.2185   21.4570 H   0  0  0  0  0  0
  -28.4167  -13.9097   21.7668 H   0  0  0  0  0  0
  -25.2789   -9.5684   22.4769 H   0  0  0  0  0  0
  -24.0014   -7.4645   22.7488 H   0  0  0  0  0  0
  -21.0867   -8.8801   19.8954 H   0  0  0  0  0  0
  -22.3744  -10.9693   19.6170 H   0  0  0  0  0  0
  -21.2006   -7.6161   23.9730 H   0  0  0  0  0  0
  -21.1468   -6.0530   25.9081 H   0  0  0  0  0  0
  -22.0602   -2.7624   23.2831 H   0  0  0  0  0  0
  -22.4091  -11.9892   22.4770 H   0  0  0  0  0  0
  -21.1111  -13.1272   22.2592 H   0  0  0  0  0  0
  -24.6510  -15.8421   20.5030 H   0  0  0  0  0  0
  -26.2667  -15.6288   20.0573 H   0  0  0  0  0  0
  -26.7182  -32.5364   23.0980 H   0  0  0  0  0  0
  -25.0062  -33.9641   25.0340 H   0  0  0  0  0  0
  -22.7339  -31.2921   21.3769 H   0  0  0  0  0  0
  -23.3743  -35.9647   23.3330 H   0  0  0  0  0  0
  -24.3596  -36.8931   22.2068 H   0  0  0  0  0  0
  -23.7270  -37.6499   23.6684 H   0  0  0  0  0  0
  -26.1172  -31.5180   20.5897 H   0  0  0  0  0  0
  -26.8560  -30.8179   21.9993 H   0  0  0  0  0  0
  -28.1426  -28.9413   21.1612 H   0  0  0  0  0  0
  -25.9981  -25.8672   19.0380 H   0  0  0  0  0  0
  -23.9820  -27.2643   19.0325 H   0  0  0  0  0  0
  -23.7746  -30.5555   19.3918 H   0  0  0  0  0  0
  -22.7693  -29.2173   19.8611 H   0  0  0  0  0  0
  -25.1319  -36.1891   25.0812 H   0  0  0  0  0  0
  -20.9970  -28.3281   24.1400 H   0  0  0  0  0  0
  -20.5755  -26.2284   23.3596 H   0  0  0  0  0  0
  -21.6637  -26.7483   22.1162 H   0  0  0  0  0  0
  -19.6934  -25.6314   21.1243 H   0  0  0  0  0  0
  -19.6726  -27.3222   20.6795 H   0  0  0  0  0  0
  -17.4212  -26.6703   21.3998 H   0  0  0  0  0  0
  -18.0275  -26.0111   22.9026 H   0  0  0  0  0  0
  -19.7953  -30.7294   24.2232 H   0  0  0  0  0  0
  -17.5025  -31.6279   24.5172 H   0  0  0  0  0  0
  -15.5353  -30.2991   23.7709 H   0  0  0  0  0  0
  -15.8652  -28.0855   22.7054 H   0  0  0  0  0  0
  -24.5876  -30.7069   25.7667 H   0  0  0  0  0  0
  -24.8857  -32.2888   26.4772 H   0  0  0  0  0  0
  -25.7969  -30.8892   27.0157 H   0  0  0  0  0  0
  -26.2953  -29.6716   24.1218 H   0  0  0  0  0  0
  -27.4087  -29.7282   25.4688 H   0  0  0  0  0  0
  -27.8793  -30.4307   23.9378 H   0  0  0  0  0  0
  -27.2664  -33.3665   26.1947 H   0  0  0  0  0  0
  -28.3866  -32.6857   25.0279 H   0  0  0  0  0  0
  -28.0668  -31.8500   26.5410 H   0  0  0  0  0  0
  -28.2578  -38.0081   24.7521 H   0  0  0  0  0  0
  -28.1042  -36.2615   24.6272 H   0  0  0  0  0  0
  -27.2267  -37.1460   25.8854 H   0  0  0  0  0  0
  -20.9372  -29.8762   21.6878 H   0  0  0  0  0  0
  -26.0145  -38.2838   24.1418 H   0  0  0  0  0  0
  -28.3096  -17.7200   22.3459 H   0  0  0  0  0  0
  -29.4533  -25.5902   16.2796 H   0  0  0  0  0  0
  -29.9344  -26.1803   17.8652 H   0  0  0  0  0  0
  -28.3557  -25.4277   17.6361 H   0  0  0  0  0  0
  -29.5327  -24.9852   24.0313 H   0  0  0  0  0  0
  -28.6642  -23.6851   23.2257 H   0  0  0  0  0  0
  -27.8667  -25.2328   23.5154 H   0  0  0  0  0  0
  -31.2624  -17.4942   20.3445 H   0  0  0  0  0  0
  -30.1384  -17.3466   19.0431 H   0  0  0  0  0  0
  -29.4505  -23.2234   17.1546 H   0  0  0  0  0  0
  -31.0276  -23.9580   17.2714 H   0  0  0  0  0  0
  -30.3156  -24.9043   21.6939 H   0  0  0  0  0  0
  -29.4803  -26.3715   22.0316 H   0  0  0  0  0  0
  -27.9277  -23.5192   19.1644 H   0  0  0  0  0  0
  -27.3620  -24.9268   21.1074 H   0  0  0  0  0  0
  -28.1256  -22.6399   21.6161 H   0  0  0  0  0  0
  -28.8912  -15.7777   20.8505 H   0  0  0  0  0  0
  1 25  1  0  0  0
  1 30  2  0  0  0
  1 84  1  0  0  0
  2  3  1  0  0  0
  2 25  1  0  0  0
  2 87  1  0  0  0
  2 88  1  0  0  0
  3  4  1  0  0  0
  3 89  1  0  0  0
  3 90  1  0  0  0
  4  5  1  0  0  0
  4 91  1  0  0  0
  4 92  1  0  0  0
  5  6  1  0  0  0
  5 26  1  0  0  0
  5 93  1  0  0  0
  6 25  1  0  0  0
  6 94  1  0  0  0
  6 95  1  0  0  0
  7  8  2  0  0  0
  7 26  1  0  0  0
  7 29  1  0  0  0
  8  9  1  0  0  0
  8 22  1  0  0  0
  9 10  1  0  0  0
  9 27  2  0  0  0
 10 11  2  0  0  0
 10 15  1  0  0  0
 11 12  1  0  0  0
 11 96  1  0  0  0
 12 13  2  0  0  0
 12 97  1  0  0  0
 13 14  1  0  0  0
 13 31  1  0  0  0
 14 15  2  0  0  0
 14 98  1  0  0  0
 15 99  1  0  0  0
 16 17  2  0  0  0
 16 21  1  0  0  0
 16 31  1  0  0  0
 17 18  1  0  0  0
 17100  1  0  0  0
 18 19  2  0  0  0
 18101  1  0  0  0
 19 20  1  0  0  0
 19 24  1  0  0  0
 20 21  2  0  0  0
 20102  1  0  0  0
 21 23  1  0  0  0
 22 28  1  0  0  0
 22 32  2  0  0  0
 26 27  1  0  0  0
 28103  1  0  0  0
 28104  1  0  0  0
 29105  1  0  0  0
 29106  1  0  0  0
 33 34  1  0  0  0
 33 66  1  0  0  0
 33 70  2  0  0  0
 34 36  1  0  0  0
 34 59  1  0  0  0
 34107  1  0  0  0
 35 44  2  0  0  0
 35 45  1  0  0  0
 35 68  1  0  0  0
 36 56  1  0  0  0
 36108  1  0  0  0
 37 39  1  0  0  0
 37 47  1  0  0  0
 37 66  1  0  0  0
 37109  1  0  0  0
 38 43  2  0  0  0
 38 46  1  0  0  0
 38 47  1  0  0  0
 39 64  1  0  0  0
 39 67  2  0  0  0
 40 52  1  0  0  0
 40 53  2  0  0  0
 40 58  1  0  0  0
 41110  1  0  0  0
 41111  1  0  0  0
 41112  1  0  0  0
 41 48  1  0  0  0
 42 43  1  0  0  0
 42 66  1  0  0  0
 42113  1  0  0  0
 42114  1  0  0  0
 43 44  1  0  0  0
 44115  1  0  0  0
 45 46  2  0  0  0
 45116  1  0  0  0
 46117  1  0  0  0
 47118  1  0  0  0
 47119  1  0  0  0
 48 56  1  0  0  0
 48 65  1  0  0  0
 48120  1  0  0  0
 49 50  1  0  0  0
 49 53  1  0  0  0
 49 64  1  0  0  0
 49121  1  0  0  0
 50 51  1  0  0  0
 50122  1  0  0  0
 50123  1  0  0  0
 51 52  1  0  0  0
 51124  1  0  0  0
 51125  1  0  0  0
 52126  1  0  0  0
 52127  1  0  0  0
 53 54  1  0  0  0
 54 55  2  0  0  0
 54128  1  0  0  0
 55 57  1  0  0  0
 55129  1  0  0  0
 56 69  2  0  0  0
 57 58  2  0  0  0
 57130  1  0  0  0
 58131  1  0  0  0
 59 60  1  0  0  0
 59 61  1  0  0  0
 59 62  1  0  0  0
 60132  1  0  0  0
 60133  1  0  0  0
 60134  1  0  0  0
 61135  1  0  0  0
 61136  1  0  0  0
 61137  1  0  0  0
 62138  1  0  0  0
 62139  1  0  0  0
 62140  1  0  0  0
 63 65  1  0  0  0
 63141  1  0  0  0
 63142  1  0  0  0
 63143  1  0  0  0
 64144  1  0  0  0
 65145  1  0  0  0
 68 81  1  0  0  0
 71 72  2  0  0  0
 71 86  1  0  0  0
 71146  1  0  0  0
 72 77  1  0  0  0
 72 82  1  0  0  0
 73 82  2  0  0  0
 73 83  1  0  0  0
 73 86  1  0  0  0
 74 78  1  0  0  0
 74 80  1  0  0  0
 74 85  2  0  0  0
 75 78  1  0  0  0
 75147  1  0  0  0
 75148  1  0  0  0
 75149  1  0  0  0
 76 79  1  0  0  0
 76150  1  0  0  0
 76151  1  0  0  0
 76152  1  0  0  0
 77 84  1  0  0  0
 77153  1  0  0  0
 77154  1  0  0  0
 78155  1  0  0  0
 78156  1  0  0  0
 79157  1  0  0  0
 79158  1  0  0  0
 79 81  1  0  0  0
 80 81  1  0  0  0
 80 83  1  0  0  0
 80159  1  0  0  0
 81160  1  0  0  0
 83161  1  0  0  0
 84162  1  0  0  0
M  ISO  4   1 100  68 101  81 101  84 100
M  END
> <chiral flag>
0

> <version>
0

> <s_m_source_file>
/data/baiqing/PycharmProjects/Reinvent-master-3.2/result/LINK_invent/BTK/process_docking_weight1_custom_product_contain_oxygen_bond_distance_aromatic_linkinvent_7_9_3/rearranged_h_0193.sdf

> <i_m_source_file_index>
26

> <r_mmod_Potential_Energy-OPLS-2005>
1.11660254001617

> <r_mmod_Stretch_Energy-OPLS-2005>
130.267501831055

> <r_mmod_Bend_Energy-OPLS-2005>
198.052520751953

> <r_mmod_Torsional_Energy-OPLS-2005>
231.627105712891

> <r_mmod_Improper_Torsional_Energy-OPLS-2005>
6.77884817123413

> <r_mmod_Van_der_Waal_Energy-OPLS-2005>
101.508178710938

> <r_mmod_Electrostatic_Energy-OPLS-2005>
-514.346984863281

> <r_mmod_Solvation_Energy-OPLS-2005>
-241.544662475586

> <b_mmod_Minimization_Converged-OPLS-2005>
0

> <r_mmod_RMS_Derivative-OPLS-2005>
3.30246138572693

$$$$
26
                    3D
 Structure written by MMmdl.
166174  0  0  1  0            999 V2000
  -30.6457  -14.6055   20.5215 C   0  0  0  0  0  0
  -30.4469  -12.3845   19.4286 C   0  0  0  0  0  0
  -29.5034  -12.4888   18.2119 C   0  0  0  0  0  0
  -28.0269  -12.3345   18.6366 C   0  0  0  0  0  0
  -27.6563  -13.2099   19.8633 C   0  0  2  0  0  0
  -28.7067  -13.0597   20.9847 C   0  0  0  0  0  0
  -25.2599  -13.8163   20.5711 C   0  0  0  0  0  0
  -24.1854  -13.0445   20.9204 C   0  0  0  0  0  0
  -24.6417  -11.6913   20.8769 C   0  0  0  0  0  0
  -23.9077  -10.4290   21.0442 C   0  0  0  0  0  0
  -24.3614   -9.4209   21.9211 C   0  0  0  0  0  0
  -23.6301   -8.2232   22.0755 C   0  0  0  0  0  0
  -22.4285   -8.0281   21.3538 C   0  0  0  0  0  0
  -21.9934   -9.0251   20.4639 C   0  0  0  0  0  0
  -22.7260  -10.2144   20.3069 C   0  0  0  0  0  0
  -21.6855   -6.0734   22.5270 C   0  0  0  0  0  0
  -21.4004   -6.5637   23.8200 C   0  0  0  0  0  0
  -21.3657   -5.6794   24.9162 C   0  0  0  0  0  0
  -21.6045   -4.3056   24.7210 C   0  0  0  0  0  0
  -21.8819   -3.8155   23.4338 C   0  0  0  0  0  0
  -21.9194   -4.6971   22.3399 C   0  0  0  0  0  0
  -22.7875  -13.5231   21.1862 C   0  0  0  0  0  0
  -22.1658   -4.2151   21.0980 F   0  0  0  0  0  0
  -21.5642   -3.4554   25.7730 F   0  0  0  0  0  0
  -30.0170  -13.3986   20.4057 N   0  0  0  0  0  0
  -26.3022  -12.9332   20.3351 N   0  0  0  0  0  0
  -25.9348  -11.6489   20.5795 N   0  0  0  0  0  0
  -22.0519  -12.8206   22.0409 N   0  0  0  0  0  0
  -25.4344  -15.1889   20.4093 N   0  0  0  0  0  0
  -31.8200  -14.7674   20.1862 O   0  0  0  0  0  0
  -21.6634   -6.8894   21.4235 O   0  0  0  0  0  0
  -22.3550  -14.5551   20.6737 O   0  0  0  0  0  0
  -24.6227  -31.8649   23.2049 C   0  0  0  0  0  0
  -25.9102  -32.4796   23.8366 C   0  0  1  0  0  0
  -27.2311  -27.3772   20.1118 C   0  0  0  0  0  0
  -25.5929  -33.8591   24.2269 N   0  0  0  0  0  0
  -23.4087  -30.4855   21.5514 C   0  0  2  0  0  0
  -24.8540  -28.9376   20.1181 C   0  0  0  0  0  0
  -22.7448  -29.4650   22.5030 C   0  0  0  0  0  0
  -18.0267  -28.1382   22.8490 C   0  0  0  0  0  0
  -24.1489  -36.7277   23.2649 C   0  0  0  0  0  0
  -25.9404  -30.8130   21.3604 C   0  0  0  0  0  0
  -26.0182  -29.4401   20.7131 C   0  0  0  0  0  0
  -27.2128  -28.6708   20.6981 C   0  0  0  0  0  0
  -26.0477  -26.8948   19.5158 C   0  0  0  0  0  0
  -24.8688  -27.6692   19.5121 C   0  0  0  0  0  0
  -23.6133  -29.8093   20.1690 C   0  0  0  0  0  0
  -25.4116  -36.3070   24.0320 C   0  0  1  0  0  0
  -20.5855  -28.3667   23.1335 C   0  0  2  0  0  0
  -20.6789  -26.9425   22.5421 C   0  0  0  0  0  0
  -19.5756  -26.6393   21.5231 C   0  0  0  0  0  0
  -18.1911  -26.7931   22.1616 C   0  0  0  0  0  0
  -19.1510  -28.8834   23.2912 C   0  0  0  0  0  0
  -18.9447  -30.1444   23.8922 C   0  0  0  0  0  0
  -17.6465  -30.6610   24.0543 C   0  0  0  0  0  0
  -25.9060  -34.9449   23.5108 C   0  0  0  0  0  0
  -16.5336  -29.9088   23.6346 C   0  0  0  0  0  0
  -16.7248  -28.6503   23.0395 C   0  0  0  0  0  0
  -26.4514  -31.6590   25.0718 C   0  0  0  0  0  0
  -25.3743  -31.3624   26.1419 C   0  0  0  0  0  0
  -27.0386  -30.3066   24.6088 C   0  0  0  0  0  0
  -27.6062  -32.4337   25.7458 C   0  0  0  0  0  0
  -27.5553  -37.1790   24.8467 C   0  0  0  0  0  0
  -21.4170  -29.3037   22.3756 N   0  0  0  0  0  0
  -26.4259  -37.3786   23.9424 N   0  0  0  0  0  0
  -24.6754  -31.0711   22.0969 N   0  0  0  0  0  0
  -23.4193  -28.8228   23.3112 O   0  0  0  0  0  0
  -28.3893  -26.6162   20.0335 O   0  0  0  0  0  0
  -26.5656  -34.8902   22.4666 O   0  0  0  0  0  0
  -23.5423  -32.1392   23.7452 O   0  0  0  0  0  0
  -30.2346  -18.1997   20.4039 C   0  0  0  0  0  0
  -31.2901  -19.2700   18.7828 C   0  0  0  0  0  0
  -29.7750  -20.3664   19.9649 C   0  0  0  0  0  0
  -34.5735  -18.8329   17.0655 C   0  0  0  0  0  0
  -32.6299  -17.3743   16.3454 C   0  0  0  0  0  0
  -30.4951  -23.4221   19.2520 C   0  0  0  0  0  0
  -30.2308  -16.9937   21.3801 C   0  0  0  0  0  0
  -28.2580  -24.0042   20.2800 C   0  0  0  0  0  0
  -28.5062  -25.4437   20.8861 C   0  0  0  0  0  0
  -33.2013  -18.2597   17.4631 C   0  0  0  0  0  0
  -29.4589  -22.9688   20.3076 C   0  0  1  0  0  0
  -31.1282  -18.1258   19.4261 N   0  0  0  0  0  0
  -29.4946  -19.2890   20.7076 N   0  0  0  0  0  0
  -30.6613  -20.4130   18.9845 N   0  0  0  0  0  0
  -32.2635  -19.3258   17.8089 N   0  0  0  0  0  0
  -29.0228  -21.5356   20.2047 N   0  0  0  0  0  0
  -29.8528  -15.6417   20.8962 N   0  0  0  0  0  0
  -31.4839  -12.5282   19.1180 H   0  0  0  0  0  0
  -30.3993  -11.3889   19.8721 H   0  0  0  0  0  0
  -29.7561  -11.7229   17.4781 H   0  0  0  0  0  0
  -29.6461  -13.4483   17.7119 H   0  0  0  0  0  0
  -27.8664  -11.2833   18.8807 H   0  0  0  0  0  0
  -27.3641  -12.5544   17.7975 H   0  0  0  0  0  0
  -27.6761  -14.2438   19.5174 H   0  0  0  0  0  0
  -28.7207  -12.0398   21.3692 H   0  0  0  0  0  0
  -28.4613  -13.6920   21.8418 H   0  0  0  0  0  0
  -25.2762   -9.5681   22.4795 H   0  0  0  0  0  0
  -24.0001   -7.4627   22.7486 H   0  0  0  0  0  0
  -21.0859   -8.8791   19.8950 H   0  0  0  0  0  0
  -22.3737  -10.9684   19.6173 H   0  0  0  0  0  0
  -21.1973   -7.6128   23.9703 H   0  0  0  0  0  0
  -21.1483   -6.0518   25.9062 H   0  0  0  0  0  0
  -22.0609   -2.7613   23.2839 H   0  0  0  0  0  0
  -22.4102  -11.9813   22.4737 H   0  0  0  0  0  0
  -21.1144  -13.1231   22.2632 H   0  0  0  0  0  0
  -24.6702  -15.8492   20.5078 H   0  0  0  0  0  0
  -26.2755  -15.6198   20.0480 H   0  0  0  0  0  0
  -26.7167  -32.5494   23.1111 H   0  0  0  0  0  0
  -25.0070  -33.9731   25.0420 H   0  0  0  0  0  0
  -22.6997  -31.3044   21.4138 H   0  0  0  0  0  0
  -23.3754  -35.9619   23.3327 H   0  0  0  0  0  0
  -24.3551  -36.8900   22.2066 H   0  0  0  0  0  0
  -23.7248  -37.6479   23.6682 H   0  0  0  0  0  0
  -26.0597  -31.5716   20.5841 H   0  0  0  0  0  0
  -26.8282  -30.8673   21.9801 H   0  0  0  0  0  0
  -28.1172  -29.0669   21.1369 H   0  0  0  0  0  0
  -26.0433  -25.9235   19.0430 H   0  0  0  0  0  0
  -23.9738  -27.2798   19.0487 H   0  0  0  0  0  0
  -23.7085  -30.5818   19.4058 H   0  0  0  0  0  0
  -22.7354  -29.2272   19.8804 H   0  0  0  0  0  0
  -25.1301  -36.1891   25.0809 H   0  0  0  0  0  0
  -20.9901  -28.3233   24.1474 H   0  0  0  0  0  0
  -20.5757  -26.2279   23.3618 H   0  0  0  0  0  0
  -21.6654  -26.7521   22.1166 H   0  0  0  0  0  0
  -19.6946  -25.6308   21.1261 H   0  0  0  0  0  0
  -19.6707  -27.3217   20.6778 H   0  0  0  0  0  0
  -17.4218  -26.6715   21.3988 H   0  0  0  0  0  0
  -18.0280  -26.0035   22.8951 H   0  0  0  0  0  0
  -19.7940  -30.7243   24.2323 H   0  0  0  0  0  0
  -17.5023  -31.6303   24.5126 H   0  0  0  0  0  0
  -15.5361  -30.3014   23.7680 H   0  0  0  0  0  0
  -15.8633  -28.0810   22.7177 H   0  0  0  0  0  0
  -24.5981  -30.6906   25.7710 H   0  0  0  0  0  0
  -24.8843  -32.2735   26.4891 H   0  0  0  0  0  0
  -25.8065  -30.8783   27.0182 H   0  0  0  0  0  0
  -26.2919  -29.6762   24.1238 H   0  0  0  0  0  0
  -27.4315  -29.7363   25.4518 H   0  0  0  0  0  0
  -27.8667  -30.4457   23.9119 H   0  0  0  0  0  0
  -27.2708  -33.3691   26.1944 H   0  0  0  0  0  0
  -28.3893  -32.6808   25.0274 H   0  0  0  0  0  0
  -28.0696  -31.8514   26.5444 H   0  0  0  0  0  0
  -28.2577  -38.0091   24.7549 H   0  0  0  0  0  0
  -28.1051  -36.2625   24.6257 H   0  0  0  0  0  0
  -27.2263  -37.1350   25.8867 H   0  0  0  0  0  0
  -20.9389  -29.8674   21.6869 H   0  0  0  0  0  0
  -26.0138  -38.2853   24.1449 H   0  0  0  0  0  0
  -35.2784  -18.0317   16.8342 H   0  0  0  0  0  0
  -35.0180  -19.4159   17.8744 H   0  0  0  0  0  0
  -34.5094  -19.4733   16.1845 H   0  0  0  0  0  0
  -33.3065  -16.5500   16.1114 H   0  0  0  0  0  0
  -32.4683  -17.9420   15.4276 H   0  0  0  0  0  0
  -31.6753  -16.9357   16.6390 H   0  0  0  0  0  0
  -30.8198  -24.4432   19.4509 H   0  0  0  0  0  0
  -30.0800  -23.4080   18.2416 H   0  0  0  0  0  0
  -31.4035  -22.8199   19.2555 H   0  0  0  0  0  0
  -29.5507  -17.2281   22.1986 H   0  0  0  0  0  0
  -31.2152  -16.9308   21.8433 H   0  0  0  0  0  0
  -27.8794  -24.0997   19.2608 H   0  0  0  0  0  0
  -27.4303  -23.5820   20.8484 H   0  0  0  0  0  0
  -29.5185  -25.4818   21.2871 H   0  0  0  0  0  0
  -27.8640  -25.5745   21.7591 H   0  0  0  0  0  0
  -33.3612  -17.6358   18.3459 H   0  0  0  0  0  0
  -29.9388  -23.0405   21.2877 H   0  0  0  0  0  0
  -32.3790  -20.2330   17.3737 H   0  0  0  0  0  0
  -28.2670  -21.3359   20.8514 H   0  0  0  0  0  0
  -28.8823  -15.4134   21.0395 H   0  0  0  0  0  0
  1 25  1  0  0  0
  1 30  2  0  0  0
  1 87  1  0  0  0
  2  3  1  0  0  0
  2 25  1  0  0  0
  2 88  1  0  0  0
  2 89  1  0  0  0
  3  4  1  0  0  0
  3 90  1  0  0  0
  3 91  1  0  0  0
  4  5  1  0  0  0
  4 92  1  0  0  0
  4 93  1  0  0  0
  5  6  1  0  0  0
  5 26  1  0  0  0
  5 94  1  0  0  0
  6 25  1  0  0  0
  6 95  1  0  0  0
  6 96  1  0  0  0
  7  8  2  0  0  0
  7 26  1  0  0  0
  7 29  1  0  0  0
  8  9  1  0  0  0
  8 22  1  0  0  0
  9 10  1  0  0  0
  9 27  2  0  0  0
 10 11  2  0  0  0
 10 15  1  0  0  0
 11 12  1  0  0  0
 11 97  1  0  0  0
 12 13  2  0  0  0
 12 98  1  0  0  0
 13 14  1  0  0  0
 13 31  1  0  0  0
 14 15  2  0  0  0
 14 99  1  0  0  0
 15100  1  0  0  0
 16 17  2  0  0  0
 16 21  1  0  0  0
 16 31  1  0  0  0
 17 18  1  0  0  0
 17101  1  0  0  0
 18 19  2  0  0  0
 18102  1  0  0  0
 19 20  1  0  0  0
 19 24  1  0  0  0
 20 21  2  0  0  0
 20103  1  0  0  0
 21 23  1  0  0  0
 22 28  1  0  0  0
 22 32  2  0  0  0
 26 27  1  0  0  0
 28104  1  0  0  0
 28105  1  0  0  0
 29106  1  0  0  0
 29107  1  0  0  0
 33 34  1  0  0  0
 33 66  1  0  0  0
 33 70  2  0  0  0
 34 36  1  0  0  0
 34 59  1  0  0  0
 34108  1  0  0  0
 35 44  2  0  0  0
 35 45  1  0  0  0
 35 68  1  0  0  0
 36 56  1  0  0  0
 36109  1  0  0  0
 37 39  1  0  0  0
 37 47  1  0  0  0
 37 66  1  0  0  0
 37110  1  0  0  0
 38 43  2  0  0  0
 38 46  1  0  0  0
 38 47  1  0  0  0
 39 64  1  0  0  0
 39 67  2  0  0  0
 40 52  1  0  0  0
 40 53  2  0  0  0
 40 58  1  0  0  0
 41111  1  0  0  0
 41112  1  0  0  0
 41113  1  0  0  0
 41 48  1  0  0  0
 42 43  1  0  0  0
 42 66  1  0  0  0
 42114  1  0  0  0
 42115  1  0  0  0
 43 44  1  0  0  0
 44116  1  0  0  0
 45 46  2  0  0  0
 45117  1  0  0  0
 46118  1  0  0  0
 47119  1  0  0  0
 47120  1  0  0  0
 48 56  1  0  0  0
 48 65  1  0  0  0
 48121  1  0  0  0
 49 50  1  0  0  0
 49 53  1  0  0  0
 49 64  1  0  0  0
 49122  1  0  0  0
 50 51  1  0  0  0
 50123  1  0  0  0
 50124  1  0  0  0
 51 52  1  0  0  0
 51125  1  0  0  0
 51126  1  0  0  0
 52127  1  0  0  0
 52128  1  0  0  0
 53 54  1  0  0  0
 54 55  2  0  0  0
 54129  1  0  0  0
 55 57  1  0  0  0
 55130  1  0  0  0
 56 69  2  0  0  0
 57 58  2  0  0  0
 57131  1  0  0  0
 58132  1  0  0  0
 59 60  1  0  0  0
 59 61  1  0  0  0
 59 62  1  0  0  0
 60133  1  0  0  0
 60134  1  0  0  0
 60135  1  0  0  0
 61136  1  0  0  0
 61137  1  0  0  0
 61138  1  0  0  0
 62139  1  0  0  0
 62140  1  0  0  0
 62141  1  0  0  0
 63 65  1  0  0  0
 63142  1  0  0  0
 63143  1  0  0  0
 63144  1  0  0  0
 64145  1  0  0  0
 65146  1  0  0  0
 68 79  1  0  0  0
 71 77  1  0  0  0
 71 82  1  0  0  0
 71 83  2  0  0  0
 72 82  2  0  0  0
 72 84  1  0  0  0
 72 85  1  0  0  0
 73 83  1  0  0  0
 73 84  2  0  0  0
 73 86  1  0  0  0
 74147  1  0  0  0
 74148  1  0  0  0
 74149  1  0  0  0
 74 80  1  0  0  0
 75 80  1  0  0  0
 75150  1  0  0  0
 75151  1  0  0  0
 75152  1  0  0  0
 76153  1  0  0  0
 76154  1  0  0  0
 76155  1  0  0  0
 76 81  1  0  0  0
 77 87  1  0  0  0
 77156  1  0  0  0
 77157  1  0  0  0
 78 79  1  0  0  0
 78 81  1  0  0  0
 78158  1  0  0  0
 78159  1  0  0  0
 79160  1  0  0  0
 79161  1  0  0  0
 80 85  1  0  0  0
 80162  1  0  0  0
 81 86  1  0  0  0
 81163  1  0  0  0
 85164  1  0  0  0
 86165  1  0  0  0
 87166  1  0  0  0
M  ISO  4   1 100  68 101  79 101  87 100
M  END
> <chiral flag>
0

> <version>
0

> <s_m_source_file>
/data/baiqing/PycharmProjects/Reinvent-master-3.2/result/LINK_invent/BTK/process_docking_weight1_custom_product_contain_oxygen_bond_distance_aromatic_linkinvent_7_9_3/rearranged_h_0193.sdf

> <i_m_source_file_index>
27

> <r_mmod_Potential_Energy-OPLS-2005>
-973.302490234375

> <r_mmod_Stretch_Energy-OPLS-2005>
56.3286666870117

> <r_mmod_Bend_Energy-OPLS-2005>
146.025253295898

> <r_mmod_Torsional_Energy-OPLS-2005>
233.234634399414

> <r_mmod_Improper_Torsional_Energy-OPLS-2005>
7.69990491867065

> <r_mmod_Van_der_Waal_Energy-OPLS-2005>
161.540618896484

> <r_mmod_Electrostatic_Energy-OPLS-2005>
-1357.33813476562

> <r_mmod_Solvation_Energy-OPLS-2005>
-252.641052246094

> <b_mmod_Minimization_Converged-OPLS-2005>
0

> <r_mmod_RMS_Derivative-OPLS-2005>
4.32145023345947

$$$$
27
                    3D
 Structure written by MMmdl.
154162  0  0  1  0            999 V2000
  -30.7333  -14.4374   20.6241 C   0  0  0  0  0  0
  -30.4115  -12.3052   19.4180 C   0  0  0  0  0  0
  -29.4825  -12.5090   18.2061 C   0  0  0  0  0  0
  -28.0072  -12.3657   18.6228 C   0  0  0  0  0  0
  -27.6581  -13.2070   19.8788 C   0  0  2  0  0  0
  -28.6989  -12.9804   20.9986 C   0  0  0  0  0  0
  -25.2568  -13.8153   20.5710 C   0  0  0  0  0  0
  -24.1819  -13.0441   20.9185 C   0  0  0  0  0  0
  -24.6362  -11.6905   20.8724 C   0  0  0  0  0  0
  -23.9032  -10.4294   21.0394 C   0  0  0  0  0  0
  -24.3583   -9.4215   21.9178 C   0  0  0  0  0  0
  -23.6271   -8.2246   22.0734 C   0  0  0  0  0  0
  -22.4257   -8.0277   21.3529 C   0  0  0  0  0  0
  -21.9893   -9.0251   20.4631 C   0  0  0  0  0  0
  -22.7203  -10.2136   20.3050 C   0  0  0  0  0  0
  -21.6851   -6.0726   22.5276 C   0  0  0  0  0  0
  -21.4024   -6.5641   23.8206 C   0  0  0  0  0  0
  -21.3647   -5.6798   24.9172 C   0  0  0  0  0  0
  -21.6042   -4.3061   24.7233 C   0  0  0  0  0  0
  -21.8814   -3.8141   23.4355 C   0  0  0  0  0  0
  -21.9199   -4.6953   22.3409 C   0  0  0  0  0  0
  -22.7840  -13.5225   21.1855 C   0  0  0  0  0  0
  -22.1660   -4.2146   21.0982 F   0  0  0  0  0  0
  -21.5620   -3.4536   25.7739 F   0  0  0  0  0  0
  -30.0318  -13.2838   20.4509 N   0  0  0  0  0  0
  -26.2998  -12.9326   20.3399 N   0  0  0  0  0  0
  -25.9295  -11.6477   20.5782 N   0  0  0  0  0  0
  -22.0495  -12.8225   22.0421 N   0  0  0  0  0  0
  -25.4339  -15.1878   20.4114 N   0  0  0  0  0  0
  -31.8062  -14.6490   20.0532 O   0  0  0  0  0  0
  -21.6627   -6.8876   21.4239 O   0  0  0  0  0  0
  -22.3536  -14.5551   20.6722 O   0  0  0  0  0  0
  -24.6177  -31.8639   23.2035 C   0  0  0  0  0  0
  -25.9073  -32.4768   23.8345 C   0  0  1  0  0  0
  -27.2328  -27.3942   20.1098 C   0  0  0  0  0  0
  -25.5902  -33.8564   24.2271 N   0  0  0  0  0  0
  -23.4061  -30.4886   21.5389 C   0  0  2  0  0  0
  -24.8562  -28.9488   20.1075 C   0  0  0  0  0  0
  -22.7420  -29.4664   22.4907 C   0  0  0  0  0  0
  -18.0273  -28.1383   22.8482 C   0  0  0  0  0  0
  -24.1495  -36.7324   23.2629 C   0  0  0  0  0  0
  -25.9383  -30.8200   21.3603 C   0  0  0  0  0  0
  -26.0140  -29.4499   20.7114 C   0  0  0  0  0  0
  -27.2015  -28.6793   20.7108 C   0  0  0  0  0  0
  -26.0505  -26.9092   19.5086 C   0  0  0  0  0  0
  -24.8719  -27.6812   19.5006 C   0  0  0  0  0  0
  -23.6180  -29.8172   20.1547 C   0  0  0  0  0  0
  -25.4111  -36.3077   24.0315 C   0  0  1  0  0  0
  -20.5878  -28.3683   23.1277 C   0  0  2  0  0  0
  -20.6765  -26.9402   22.5402 C   0  0  0  0  0  0
  -19.5736  -26.6384   21.5205 C   0  0  0  0  0  0
  -18.1922  -26.7920   22.1628 C   0  0  0  0  0  0
  -19.1531  -28.8844   23.2879 C   0  0  0  0  0  0
  -18.9457  -30.1448   23.8897 C   0  0  0  0  0  0
  -17.6460  -30.6587   24.0568 C   0  0  0  0  0  0
  -25.9035  -34.9443   23.5089 C   0  0  0  0  0  0
  -16.5347  -29.9094   23.6323 C   0  0  0  0  0  0
  -16.7262  -28.6513   23.0332 C   0  0  0  0  0  0
  -26.4490  -31.6558   25.0688 C   0  0  0  0  0  0
  -25.3750  -31.3706   26.1430 C   0  0  0  0  0  0
  -27.0322  -30.2982   24.6108 C   0  0  0  0  0  0
  -27.6037  -32.4292   25.7475 C   0  0  0  0  0  0
  -27.5577  -37.1813   24.8454 C   0  0  0  0  0  0
  -21.4145  -29.3043   22.3660 N   0  0  0  0  0  0
  -26.4298  -37.3766   23.9384 N   0  0  0  0  0  0
  -24.6717  -31.0755   22.0914 N   0  0  0  0  0  0
  -23.4201  -28.8204   23.2953 O   0  0  0  0  0  0
  -28.4154  -26.6726   20.1514 O   0  0  0  0  0  0
  -26.5604  -34.8906   22.4654 O   0  0  0  0  0  0
  -23.5370  -32.1380   23.7421 O   0  0  0  0  0  0
  -28.3865  -19.2712   21.2085 C   0  0  0  0  0  0
  -30.2662  -17.9369   21.4512 C   0  0  0  0  0  0
  -29.1788  -20.4332   20.9973 C   0  0  0  0  0  0
  -31.0726  -19.0936   21.2351 C   0  0  0  0  0  0
  -28.9104  -22.8120   20.2321 C   0  0  0  0  0  0
  -30.8721  -16.5889   21.8838 C   0  0  0  0  0  0
  -28.1443  -24.1433   20.4966 C   0  0  0  0  0  0
  -28.5394  -25.3499   19.5766 C   0  0  0  0  0  0
  -28.9123  -18.0320   21.4218 N   0  0  0  0  0  0
  -30.5366  -20.3136   21.0036 N   0  0  0  0  0  0
  -32.4623  -19.0752   21.2778 N   0  0  0  0  0  0
  -28.4996  -21.6920   20.8715 N   0  0  0  0  0  0
  -30.1929  -15.3537   21.4460 N   0  0  0  0  0  0
  -29.8464  -22.7967   19.4280 O   0  0  0  0  0  0
  -31.4547  -12.3945   19.1100 H   0  0  0  0  0  0
  -30.3085  -11.2929   19.8138 H   0  0  0  0  0  0
  -29.7213  -11.7860   17.4241 H   0  0  0  0  0  0
  -29.6484  -13.4992   17.7777 H   0  0  0  0  0  0
  -27.8212  -11.3094   18.8218 H   0  0  0  0  0  0
  -27.3505  -12.6333   17.7932 H   0  0  0  0  0  0
  -27.7058  -14.2561   19.5853 H   0  0  0  0  0  0
  -28.6723  -11.9401   21.3290 H   0  0  0  0  0  0
  -28.4539  -13.5668   21.8852 H   0  0  0  0  0  0
  -25.2717   -9.5704   22.4753 H   0  0  0  0  0  0
  -23.9977   -7.4648   22.7448 H   0  0  0  0  0  0
  -21.0820   -8.8748   19.8946 H   0  0  0  0  0  0
  -22.3631  -10.9665   19.6157 H   0  0  0  0  0  0
  -21.2018   -7.6151   23.9717 H   0  0  0  0  0  0
  -21.1466   -6.0523   25.9077 H   0  0  0  0  0  0
  -22.0605   -2.7607   23.2852 H   0  0  0  0  0  0
  -22.4090  -11.9861   22.4787 H   0  0  0  0  0  0
  -21.1119  -13.1240   22.2632 H   0  0  0  0  0  0
  -24.6764  -15.8520   20.5264 H   0  0  0  0  0  0
  -26.3033  -15.6210   20.1244 H   0  0  0  0  0  0
  -26.7135  -32.5486   23.1093 H   0  0  0  0  0  0
  -25.0016  -33.9692   25.0394 H   0  0  0  0  0  0
  -22.6937  -31.3036   21.3926 H   0  0  0  0  0  0
  -23.3721  -35.9704   23.3308 H   0  0  0  0  0  0
  -24.3585  -36.8930   22.2045 H   0  0  0  0  0  0
  -23.7307  -37.6546   23.6655 H   0  0  0  0  0  0
  -26.0547  -31.5816   20.5879 H   0  0  0  0  0  0
  -26.8239  -30.8738   21.9831 H   0  0  0  0  0  0
  -28.0949  -29.0632   21.1842 H   0  0  0  0  0  0
  -26.0090  -25.9330   19.0523 H   0  0  0  0  0  0
  -23.9805  -27.2919   19.0296 H   0  0  0  0  0  0
  -23.7212  -30.5842   19.3864 H   0  0  0  0  0  0
  -22.7455  -29.2297   19.8639 H   0  0  0  0  0  0
  -25.1305  -36.1914   25.0814 H   0  0  0  0  0  0
  -20.9990  -28.3263   24.1392 H   0  0  0  0  0  0
  -20.5668  -26.2290   23.3603 H   0  0  0  0  0  0
  -21.6633  -26.7423   22.1189 H   0  0  0  0  0  0
  -19.6904  -25.6303   21.1213 H   0  0  0  0  0  0
  -19.6675  -27.3216   20.6756 H   0  0  0  0  0  0
  -17.4182  -26.6635   21.4046 H   0  0  0  0  0  0
  -18.0343  -26.0077   22.9047 H   0  0  0  0  0  0
  -19.7934  -30.7258   24.2279 H   0  0  0  0  0  0
  -17.5013  -31.6267   24.5167 H   0  0  0  0  0  0
  -15.5349  -30.2997   23.7650 H   0  0  0  0  0  0
  -15.8658  -28.0848   22.7026 H   0  0  0  0  0  0
  -24.5904  -30.7062   25.7780 H   0  0  0  0  0  0
  -24.8986  -32.2899   26.4858 H   0  0  0  0  0  0
  -25.8103  -30.8885   27.0195 H   0  0  0  0  0  0
  -26.2889  -29.6718   24.1159 H   0  0  0  0  0  0
  -27.4041  -29.7227   25.4595 H   0  0  0  0  0  0
  -27.8750  -30.4229   23.9301 H   0  0  0  0  0  0
  -27.2605  -33.3551   26.2102 H   0  0  0  0  0  0
  -28.3858  -32.6910   25.0337 H   0  0  0  0  0  0
  -28.0712  -31.8398   26.5369 H   0  0  0  0  0  0
  -28.2590  -38.0107   24.7466 H   0  0  0  0  0  0
  -28.1068  -36.2629   24.6330 H   0  0  0  0  0  0
  -27.2279  -37.1529   25.8850 H   0  0  0  0  0  0
  -20.9304  -29.8808   21.6917 H   0  0  0  0  0  0
  -26.0167  -38.2839   24.1373 H   0  0  0  0  0  0
  -27.3078  -19.3405   21.2328 H   0  0  0  0  0  0
  -30.8857  -16.5826   22.9730 H   0  0  0  0  0  0
  -31.9250  -16.5599   21.6009 H   0  0  0  0  0  0
  -28.3559  -24.4180   21.5290 H   0  0  0  0  0  0
  -27.0690  -23.9721   20.4433 H   0  0  0  0  0  0
  -28.0500  -25.2829   18.6058 H   0  0  0  0  0  0
  -29.6016  -25.2751   19.3444 H   0  0  0  0  0  0
  -32.9519  -18.2811   21.6747 H   0  0  0  0  0  0
  -32.9679  -19.9504   21.3265 H   0  0  0  0  0  0
  -27.6079  -21.7458   21.3450 H   0  0  0  0  0  0
  -29.3074  -15.1358   21.8751 H   0  0  0  0  0  0
  1 25  1  0  0  0
  1 30  2  0  0  0
  1 83  1  0  0  0
  2  3  1  0  0  0
  2 25  1  0  0  0
  2 85  1  0  0  0
  2 86  1  0  0  0
  3  4  1  0  0  0
  3 87  1  0  0  0
  3 88  1  0  0  0
  4  5  1  0  0  0
  4 89  1  0  0  0
  4 90  1  0  0  0
  5  6  1  0  0  0
  5 26  1  0  0  0
  5 91  1  0  0  0
  6 25  1  0  0  0
  6 92  1  0  0  0
  6 93  1  0  0  0
  7  8  2  0  0  0
  7 26  1  0  0  0
  7 29  1  0  0  0
  8  9  1  0  0  0
  8 22  1  0  0  0
  9 10  1  0  0  0
  9 27  2  0  0  0
 10 11  2  0  0  0
 10 15  1  0  0  0
 11 12  1  0  0  0
 11 94  1  0  0  0
 12 13  2  0  0  0
 12 95  1  0  0  0
 13 14  1  0  0  0
 13 31  1  0  0  0
 14 15  2  0  0  0
 14 96  1  0  0  0
 15 97  1  0  0  0
 16 17  2  0  0  0
 16 21  1  0  0  0
 16 31  1  0  0  0
 17 18  1  0  0  0
 17 98  1  0  0  0
 18 19  2  0  0  0
 18 99  1  0  0  0
 19 20  1  0  0  0
 19 24  1  0  0  0
 20 21  2  0  0  0
 20100  1  0  0  0
 21 23  1  0  0  0
 22 28  1  0  0  0
 22 32  2  0  0  0
 26 27  1  0  0  0
 28101  1  0  0  0
 28102  1  0  0  0
 29103  1  0  0  0
 29104  1  0  0  0
 33 34  1  0  0  0
 33 66  1  0  0  0
 33 70  2  0  0  0
 34 36  1  0  0  0
 34 59  1  0  0  0
 34105  1  0  0  0
 35 44  2  0  0  0
 35 45  1  0  0  0
 35 68  1  0  0  0
 36 56  1  0  0  0
 36106  1  0  0  0
 37 39  1  0  0  0
 37 47  1  0  0  0
 37 66  1  0  0  0
 37107  1  0  0  0
 38 43  2  0  0  0
 38 46  1  0  0  0
 38 47  1  0  0  0
 39 64  1  0  0  0
 39 67  2  0  0  0
 40 52  1  0  0  0
 40 53  2  0  0  0
 40 58  1  0  0  0
 41108  1  0  0  0
 41109  1  0  0  0
 41110  1  0  0  0
 41 48  1  0  0  0
 42 43  1  0  0  0
 42 66  1  0  0  0
 42111  1  0  0  0
 42112  1  0  0  0
 43 44  1  0  0  0
 44113  1  0  0  0
 45 46  2  0  0  0
 45114  1  0  0  0
 46115  1  0  0  0
 47116  1  0  0  0
 47117  1  0  0  0
 48 56  1  0  0  0
 48 65  1  0  0  0
 48118  1  0  0  0
 49 50  1  0  0  0
 49 53  1  0  0  0
 49 64  1  0  0  0
 49119  1  0  0  0
 50 51  1  0  0  0
 50120  1  0  0  0
 50121  1  0  0  0
 51 52  1  0  0  0
 51122  1  0  0  0
 51123  1  0  0  0
 52124  1  0  0  0
 52125  1  0  0  0
 53 54  1  0  0  0
 54 55  2  0  0  0
 54126  1  0  0  0
 55 57  1  0  0  0
 55127  1  0  0  0
 56 69  2  0  0  0
 57 58  2  0  0  0
 57128  1  0  0  0
 58129  1  0  0  0
 59 60  1  0  0  0
 59 61  1  0  0  0
 59 62  1  0  0  0
 60130  1  0  0  0
 60131  1  0  0  0
 60132  1  0  0  0
 61133  1  0  0  0
 61134  1  0  0  0
 61135  1  0  0  0
 62136  1  0  0  0
 62137  1  0  0  0
 62138  1  0  0  0
 63 65  1  0  0  0
 63139  1  0  0  0
 63140  1  0  0  0
 63141  1  0  0  0
 64142  1  0  0  0
 65143  1  0  0  0
 68 78  1  0  0  0
 71 73  2  0  0  0
 71 79  1  0  0  0
 71144  1  0  0  0
 72 74  1  0  0  0
 72 76  1  0  0  0
 72 79  2  0  0  0
 73 80  1  0  0  0
 73 82  1  0  0  0
 74 80  2  0  0  0
 74 81  1  0  0  0
 75 77  1  0  0  0
 75 82  1  0  0  0
 75 84  2  0  0  0
 76 83  1  0  0  0
 76145  1  0  0  0
 76146  1  0  0  0
 77 78  1  0  0  0
 77147  1  0  0  0
 77148  1  0  0  0
 78149  1  0  0  0
 78150  1  0  0  0
 81151  1  0  0  0
 81152  1  0  0  0
 82153  1  0  0  0
 83154  1  0  0  0
M  ISO  4   1 100  68 101  78 101  83 100
M  END
> <chiral flag>
0

> <version>
0

> <s_m_source_file>
/data/baiqing/PycharmProjects/Reinvent-master-3.2/result/LINK_invent/BTK/process_docking_weight1_custom_product_contain_oxygen_bond_distance_aromatic_linkinvent_7_9_3/rearranged_h_0193.sdf

> <i_m_source_file_index>
28

> <r_mmod_Potential_Energy-OPLS-2005>
-169.890426635742

> <r_mmod_Stretch_Energy-OPLS-2005>
47.0258178710938

> <r_mmod_Bend_Energy-OPLS-2005>
122.508575439453

> <r_mmod_Torsional_Energy-OPLS-2005>
195.479110717773

> <r_mmod_Improper_Torsional_Energy-OPLS-2005>
4.42722415924072

> <r_mmod_Van_der_Waal_Energy-OPLS-2005>
161.636199951172

> <r_mmod_Electrostatic_Energy-OPLS-2005>
-446.157958984375

> <r_mmod_Solvation_Energy-OPLS-2005>
-268.429321289062

> <b_mmod_Minimization_Converged-OPLS-2005>
0

> <r_mmod_RMS_Derivative-OPLS-2005>
3.24752712249756

$$$$
28
                    3D
 Structure written by MMmdl.
165173  0  0  1  0            999 V2000
  -30.6952  -14.4972   20.5390 C   0  0  0  0  0  0
  -30.4191  -12.3115   19.4290 C   0  0  0  0  0  0
  -29.4942  -12.4978   18.2087 C   0  0  0  0  0  0
  -28.0156  -12.3601   18.6214 C   0  0  0  0  0  0
  -27.6583  -13.2094   19.8708 C   0  0  2  0  0  0
  -28.7011  -13.0127   20.9945 C   0  0  0  0  0  0
  -25.2580  -13.8163   20.5687 C   0  0  0  0  0  0
  -24.1837  -13.0438   20.9191 C   0  0  0  0  0  0
  -24.6389  -11.6907   20.8739 C   0  0  0  0  0  0
  -23.9051  -10.4292   21.0403 C   0  0  0  0  0  0
  -24.3606   -9.4211   21.9182 C   0  0  0  0  0  0
  -23.6287   -8.2242   22.0750 C   0  0  0  0  0  0
  -22.4269   -8.0275   21.3538 C   0  0  0  0  0  0
  -21.9902   -9.0249   20.4641 C   0  0  0  0  0  0
  -22.7226  -10.2132   20.3050 C   0  0  0  0  0  0
  -21.6852   -6.0733   22.5279 C   0  0  0  0  0  0
  -21.4009   -6.5640   23.8211 C   0  0  0  0  0  0
  -21.3657   -5.6792   24.9173 C   0  0  0  0  0  0
  -21.6048   -4.3054   24.7226 C   0  0  0  0  0  0
  -21.8821   -3.8144   23.4346 C   0  0  0  0  0  0
  -21.9193   -4.6960   22.3402 C   0  0  0  0  0  0
  -22.7860  -13.5239   21.1854 C   0  0  0  0  0  0
  -22.1664   -4.2149   21.0979 F   0  0  0  0  0  0
  -21.5629   -3.4537   25.7736 F   0  0  0  0  0  0
  -30.0289  -13.3135   20.4352 N   0  0  0  0  0  0
  -26.3009  -12.9337   20.3352 N   0  0  0  0  0  0
  -25.9317  -11.6494   20.5769 N   0  0  0  0  0  0
  -22.0490  -12.8230   22.0401 N   0  0  0  0  0  0
  -25.4306  -15.1882   20.4098 N   0  0  0  0  0  0
  -31.8470  -14.6296   20.1127 O   0  0  0  0  0  0
  -21.6633   -6.8875   21.4237 O   0  0  0  0  0  0
  -22.3552  -14.5547   20.6703 O   0  0  0  0  0  0
  -24.6167  -31.8665   23.2101 C   0  0  0  0  0  0
  -25.9064  -32.4803   23.8392 C   0  0  1  0  0  0
  -27.2299  -27.4275   20.1022 C   0  0  0  0  0  0
  -25.5934  -33.8601   24.2339 N   0  0  0  0  0  0
  -23.4036  -30.4909   21.5499 C   0  0  2  0  0  0
  -24.8493  -28.9521   20.1158 C   0  0  0  0  0  0
  -22.7406  -29.4663   22.4989 C   0  0  0  0  0  0
  -18.0271  -28.1365   22.8486 C   0  0  0  0  0  0
  -24.1485  -36.7294   23.2644 C   0  0  0  0  0  0
  -25.9332  -30.8310   21.3628 C   0  0  0  0  0  0
  -26.0104  -29.4650   20.7093 C   0  0  0  0  0  0
  -27.2076  -28.7116   20.6947 C   0  0  0  0  0  0
  -26.0549  -26.9270   19.5054 C   0  0  0  0  0  0
  -24.8663  -27.6825   19.5102 C   0  0  0  0  0  0
  -23.6118  -29.8205   20.1650 C   0  0  0  0  0  0
  -25.4104  -36.3097   24.0353 C   0  0  1  0  0  0
  -20.5863  -28.3655   23.1310 C   0  0  2  0  0  0
  -20.6757  -26.9391   22.5410 C   0  0  0  0  0  0
  -19.5740  -26.6375   21.5200 C   0  0  0  0  0  0
  -18.1919  -26.7917   22.1607 C   0  0  0  0  0  0
  -19.1522  -28.8826   23.2894 C   0  0  0  0  0  0
  -18.9450  -30.1436   23.8900 C   0  0  0  0  0  0
  -17.6455  -30.6576   24.0557 C   0  0  0  0  0  0
  -25.9038  -34.9465   23.5138 C   0  0  0  0  0  0
  -16.5342  -29.9074   23.6333 C   0  0  0  0  0  0
  -16.7262  -28.6489   23.0353 C   0  0  0  0  0  0
  -26.4503  -31.6576   25.0713 C   0  0  0  0  0  0
  -25.3786  -31.3661   26.1471 C   0  0  0  0  0  0
  -27.0345  -30.3027   24.6080 C   0  0  0  0  0  0
  -27.6078  -32.4296   25.7473 C   0  0  0  0  0  0
  -27.5578  -37.1797   24.8471 C   0  0  0  0  0  0
  -21.4137  -29.3029   22.3720 N   0  0  0  0  0  0
  -26.4285  -37.3784   23.9426 N   0  0  0  0  0  0
  -24.6691  -31.0778   22.0990 N   0  0  0  0  0  0
  -23.4174  -28.8216   23.3043 O   0  0  0  0  0  0
  -28.3792  -26.6678   20.0929 O   0  0  0  0  0  0
  -26.5573  -34.8921   22.4680 O   0  0  0  0  0  0
  -23.5362  -32.1407   23.7508 O   0  0  0  0  0  0
  -29.3802  -17.9511   21.2682 C   0  0  0  0  0  0
  -31.3053  -18.8194   20.7573 C   0  0  0  0  0  0
  -30.2715  -16.9434   20.9420 C   0  0  0  0  0  0
  -26.8370  -20.8059   20.0184 C   0  0  0  0  0  0
  -31.8368  -22.3778   20.1873 C   0  0  0  0  0  0
  -28.2286  -21.0294   19.3982 C   0  0  0  0  0  0
  -30.6119  -21.7712   19.4760 C   0  0  0  0  0  0
  -28.7130  -24.1782   20.0768 C   0  0  0  0  0  0
  -28.9109  -22.9326   20.9977 C   0  0  0  0  0  0
  -29.5965  -20.5206   21.5033 C   0  0  0  0  0  0
  -28.3141  -25.4536   20.8653 C   0  0  0  0  0  0
  -29.3381  -21.5637   20.3490 C   0  0  0  0  0  0
  -31.4999  -17.5118   20.6055 N   0  0  0  0  0  0
  -30.0681  -19.1683   21.1482 N   0  0  0  0  0  0
  -29.9590  -15.5454   20.9801 N   0  0  0  0  0  0
  -31.4643  -12.4012   19.1276 H   0  0  0  0  0  0
  -30.3148  -11.3063   19.8396 H   0  0  0  0  0  0
  -29.7355  -11.7649   17.4379 H   0  0  0  0  0  0
  -29.6632  -13.4788   17.7613 H   0  0  0  0  0  0
  -27.8284  -11.3055   18.8261 H   0  0  0  0  0  0
  -27.3647  -12.6255   17.7878 H   0  0  0  0  0  0
  -27.6951  -14.2538   19.5603 H   0  0  0  0  0  0
  -28.6812  -11.9838   21.3564 H   0  0  0  0  0  0
  -28.4666  -13.6337   21.8602 H   0  0  0  0  0  0
  -25.2753   -9.5693   22.4758 H   0  0  0  0  0  0
  -24.0000   -7.4630   22.7471 H   0  0  0  0  0  0
  -21.0831   -8.8765   19.8949 H   0  0  0  0  0  0
  -22.3681  -10.9667   19.6157 H   0  0  0  0  0  0
  -21.1995   -7.6147   23.9714 H   0  0  0  0  0  0
  -21.1479   -6.0520   25.9079 H   0  0  0  0  0  0
  -22.0601   -2.7607   23.2841 H   0  0  0  0  0  0
  -22.4092  -11.9891   22.4796 H   0  0  0  0  0  0
  -21.1106  -13.1264   22.2595 H   0  0  0  0  0  0
  -24.6623  -15.8416   20.5163 H   0  0  0  0  0  0
  -26.2760  -15.6251   20.0653 H   0  0  0  0  0  0
  -26.7135  -32.5525   23.1156 H   0  0  0  0  0  0
  -25.0169  -33.9755   25.0545 H   0  0  0  0  0  0
  -22.6940  -31.3093   21.4111 H   0  0  0  0  0  0
  -23.3751  -35.9620   23.3297 H   0  0  0  0  0  0
  -24.3584  -36.8902   22.2059 H   0  0  0  0  0  0
  -23.7219  -37.6497   23.6646 H   0  0  0  0  0  0
  -26.0495  -31.5982   20.5953 H   0  0  0  0  0  0
  -26.8205  -30.8812   21.9826 H   0  0  0  0  0  0
  -28.1059  -29.1030   21.1510 H   0  0  0  0  0  0
  -26.0611  -25.9518   19.0384 H   0  0  0  0  0  0
  -23.9737  -27.2811   19.0497 H   0  0  0  0  0  0
  -23.7216  -30.5937   19.4040 H   0  0  0  0  0  0
  -22.7345  -29.2422   19.8701 H   0  0  0  0  0  0
  -25.1275  -36.1956   25.0844 H   0  0  0  0  0  0
  -20.9963  -28.3208   24.1427 H   0  0  0  0  0  0
  -20.5640  -26.2264   23.3593 H   0  0  0  0  0  0
  -21.6630  -26.7422   22.1213 H   0  0  0  0  0  0
  -19.6898  -25.6288   21.1221 H   0  0  0  0  0  0
  -19.6684  -27.3189   20.6734 H   0  0  0  0  0  0
  -17.4197  -26.6678   21.4001 H   0  0  0  0  0  0
  -18.0310  -26.0047   22.8988 H   0  0  0  0  0  0
  -19.7935  -30.7243   24.2266 H   0  0  0  0  0  0
  -17.5018  -31.6265   24.5142 H   0  0  0  0  0  0
  -15.5341  -30.2977   23.7663 H   0  0  0  0  0  0
  -15.8659  -28.0811   22.7068 H   0  0  0  0  0  0
  -24.5988  -30.6964   25.7827 H   0  0  0  0  0  0
  -24.8951  -32.2803   26.4929 H   0  0  0  0  0  0
  -25.8179  -30.8851   27.0222 H   0  0  0  0  0  0
  -26.2879  -29.6746   24.1206 H   0  0  0  0  0  0
  -27.4209  -29.7297   25.4522 H   0  0  0  0  0  0
  -27.8671  -30.4356   23.9163 H   0  0  0  0  0  0
  -27.2701  -33.3597   26.2059 H   0  0  0  0  0  0
  -28.3884  -32.6843   25.0290 H   0  0  0  0  0  0
  -28.0748  -31.8410   26.5382 H   0  0  0  0  0  0
  -28.2594  -38.0097   24.7533 H   0  0  0  0  0  0
  -28.1074  -36.2633   24.6274 H   0  0  0  0  0  0
  -27.2305  -37.1420   25.8875 H   0  0  0  0  0  0
  -20.9295  -29.8755   21.6948 H   0  0  0  0  0  0
  -26.0172  -38.2860   24.1430 H   0  0  0  0  0  0
  -28.3495  -17.9103   21.5954 H   0  0  0  0  0  0
  -32.1001  -19.5363   20.6097 H   0  0  0  0  0  0
  -26.1470  -20.4240   19.2658 H   0  0  0  0  0  0
  -26.4050  -21.7296   20.4018 H   0  0  0  0  0  0
  -26.8565  -20.0775   20.8282 H   0  0  0  0  0  0
  -32.6842  -22.4306   19.5030 H   0  0  0  0  0  0
  -32.1536  -21.7914   21.0484 H   0  0  0  0  0  0
  -31.6470  -23.3936   20.5319 H   0  0  0  0  0  0
  -28.1116  -21.7102   18.5542 H   0  0  0  0  0  0
  -28.5569  -20.0863   18.9580 H   0  0  0  0  0  0
  -30.9020  -20.8291   19.0126 H   0  0  0  0  0  0
  -30.3707  -22.4139   18.6283 H   0  0  0  0  0  0
  -27.9568  -23.9731   19.3192 H   0  0  0  0  0  0
  -29.6371  -24.3892   19.5411 H   0  0  0  0  0  0
  -28.0012  -22.7892   21.5803 H   0  0  0  0  0  0
  -29.6573  -23.2018   21.7453 H   0  0  0  0  0  0
  -28.6959  -20.4066   22.1056 H   0  0  0  0  0  0
  -30.3283  -20.9318   22.1992 H   0  0  0  0  0  0
  -29.0029  -25.5837   21.7003 H   0  0  0  0  0  0
  -27.3324  -25.3048   21.3191 H   0  0  0  0  0  0
  -29.0284  -15.3075   21.2856 H   0  0  0  0  0  0
  1 25  1  0  0  0
  1 30  2  0  0  0
  1 85  1  0  0  0
  2  3  1  0  0  0
  2 25  1  0  0  0
  2 86  1  0  0  0
  2 87  1  0  0  0
  3  4  1  0  0  0
  3 88  1  0  0  0
  3 89  1  0  0  0
  4  5  1  0  0  0
  4 90  1  0  0  0
  4 91  1  0  0  0
  5  6  1  0  0  0
  5 26  1  0  0  0
  5 92  1  0  0  0
  6 25  1  0  0  0
  6 93  1  0  0  0
  6 94  1  0  0  0
  7  8  2  0  0  0
  7 26  1  0  0  0
  7 29  1  0  0  0
  8  9  1  0  0  0
  8 22  1  0  0  0
  9 10  1  0  0  0
  9 27  2  0  0  0
 10 11  2  0  0  0
 10 15  1  0  0  0
 11 12  1  0  0  0
 11 95  1  0  0  0
 12 13  2  0  0  0
 12 96  1  0  0  0
 13 14  1  0  0  0
 13 31  1  0  0  0
 14 15  2  0  0  0
 14 97  1  0  0  0
 15 98  1  0  0  0
 16 17  2  0  0  0
 16 21  1  0  0  0
 16 31  1  0  0  0
 17 18  1  0  0  0
 17 99  1  0  0  0
 18 19  2  0  0  0
 18100  1  0  0  0
 19 20  1  0  0  0
 19 24  1  0  0  0
 20 21  2  0  0  0
 20101  1  0  0  0
 21 23  1  0  0  0
 22 28  1  0  0  0
 22 32  2  0  0  0
 26 27  1  0  0  0
 28102  1  0  0  0
 28103  1  0  0  0
 29104  1  0  0  0
 29105  1  0  0  0
 33 34  1  0  0  0
 33 66  1  0  0  0
 33 70  2  0  0  0
 34 36  1  0  0  0
 34 59  1  0  0  0
 34106  1  0  0  0
 35 44  2  0  0  0
 35 45  1  0  0  0
 35 68  1  0  0  0
 36 56  1  0  0  0
 36107  1  0  0  0
 37 39  1  0  0  0
 37 47  1  0  0  0
 37 66  1  0  0  0
 37108  1  0  0  0
 38 43  2  0  0  0
 38 46  1  0  0  0
 38 47  1  0  0  0
 39 64  1  0  0  0
 39 67  2  0  0  0
 40 52  1  0  0  0
 40 53  2  0  0  0
 40 58  1  0  0  0
 41109  1  0  0  0
 41110  1  0  0  0
 41111  1  0  0  0
 41 48  1  0  0  0
 42 43  1  0  0  0
 42 66  1  0  0  0
 42112  1  0  0  0
 42113  1  0  0  0
 43 44  1  0  0  0
 44114  1  0  0  0
 45 46  2  0  0  0
 45115  1  0  0  0
 46116  1  0  0  0
 47117  1  0  0  0
 47118  1  0  0  0
 48 56  1  0  0  0
 48 65  1  0  0  0
 48119  1  0  0  0
 49 50  1  0  0  0
 49 53  1  0  0  0
 49 64  1  0  0  0
 49120  1  0  0  0
 50 51  1  0  0  0
 50121  1  0  0  0
 50122  1  0  0  0
 51 52  1  0  0  0
 51123  1  0  0  0
 51124  1  0  0  0
 52125  1  0  0  0
 52126  1  0  0  0
 53 54  1  0  0  0
 54 55  2  0  0  0
 54127  1  0  0  0
 55 57  1  0  0  0
 55128  1  0  0  0
 56 69  2  0  0  0
 57 58  2  0  0  0
 57129  1  0  0  0
 58130  1  0  0  0
 59 60  1  0  0  0
 59 61  1  0  0  0
 59 62  1  0  0  0
 60131  1  0  0  0
 60132  1  0  0  0
 60133  1  0  0  0
 61134  1  0  0  0
 61135  1  0  0  0
 61136  1  0  0  0
 62137  1  0  0  0
 62138  1  0  0  0
 62139  1  0  0  0
 63 65  1  0  0  0
 63140  1  0  0  0
 63141  1  0  0  0
 63142  1  0  0  0
 64143  1  0  0  0
 65144  1  0  0  0
 68 81  1  0  0  0
 71 73  2  0  0  0
 71 84  1  0  0  0
 71145  1  0  0  0
 72 83  2  0  0  0
 72 84  1  0  0  0
 72146  1  0  0  0
 73 83  1  0  0  0
 73 85  1  0  0  0
 74 76  1  0  0  0
 74147  1  0  0  0
 74148  1  0  0  0
 74149  1  0  0  0
 75 77  1  0  0  0
 75150  1  0  0  0
 75151  1  0  0  0
 75152  1  0  0  0
 76153  1  0  0  0
 76154  1  0  0  0
 76 82  1  0  0  0
 77 82  1  0  0  0
 77155  1  0  0  0
 77156  1  0  0  0
 78 79  1  0  0  0
 78 81  1  0  0  0
 78157  1  0  0  0
 78158  1  0  0  0
 79 82  1  0  0  0
 79159  1  0  0  0
 79160  1  0  0  0
 80 82  1  0  0  0
 80 84  1  0  0  0
 80161  1  0  0  0
 80162  1  0  0  0
 81163  1  0  0  0
 81164  1  0  0  0
 85165  1  0  0  0
M  ISO  4   1 100  68 101  81 101  85 100
M  END
> <chiral flag>
0

> <version>
0

> <s_m_source_file>
/data/baiqing/PycharmProjects/Reinvent-master-3.2/result/LINK_invent/BTK/process_docking_weight1_custom_product_contain_oxygen_bond_distance_aromatic_linkinvent_7_9_3/rearranged_h_0193.sdf

> <i_m_source_file_index>
29

> <r_mmod_Potential_Energy-OPLS-2005>
-9.41265773773193

> <r_mmod_Stretch_Energy-OPLS-2005>
44.6738128662109

> <r_mmod_Bend_Energy-OPLS-2005>
124.47631072998

> <r_mmod_Torsional_Energy-OPLS-2005>
249.702896118164

> <r_mmod_Improper_Torsional_Energy-OPLS-2005>
4.33663415908813

> <r_mmod_Van_der_Waal_Energy-OPLS-2005>
127.007377624512

> <r_mmod_Electrostatic_Energy-OPLS-2005>
-345.449249267578

> <r_mmod_Solvation_Energy-OPLS-2005>
-229.862457275391

> <b_mmod_Minimization_Converged-OPLS-2005>
0

> <r_mmod_RMS_Derivative-OPLS-2005>
1.00822174549103

$$$$
29
                    3D
 Structure written by MMmdl.
167175  0  0  1  0            999 V2000
  -30.6037  -14.5940   20.4485 C   0  0  0  0  0  0
  -30.4463  -12.3557   19.4171 C   0  0  0  0  0  0
  -29.5020  -12.4890   18.2001 C   0  0  0  0  0  0
  -28.0278  -12.3168   18.6334 C   0  0  0  0  0  0
  -27.6570  -13.1800   19.8704 C   0  0  2  0  0  0
  -28.7163  -13.0079   20.9852 C   0  0  0  0  0  0
  -25.2628  -13.8056   20.5765 C   0  0  0  0  0  0
  -24.1849  -13.0349   20.9267 C   0  0  0  0  0  0
  -24.6422  -11.6831   20.8857 C   0  0  0  0  0  0
  -23.9088  -10.4214   21.0404 C   0  0  0  0  0  0
  -24.3614   -9.4101   21.9150 C   0  0  0  0  0  0
  -23.6241   -8.2189   22.0734 C   0  0  0  0  0  0
  -22.4211   -8.0293   21.3527 C   0  0  0  0  0  0
  -21.9905   -9.0257   20.4614 C   0  0  0  0  0  0
  -22.7285  -10.2088   20.2996 C   0  0  0  0  0  0
  -21.6773   -6.0761   22.5245 C   0  0  0  0  0  0
  -21.3968   -6.5639   23.8200 C   0  0  0  0  0  0
  -21.3704   -5.6806   24.9164 C   0  0  0  0  0  0
  -21.6051   -4.3074   24.7201 C   0  0  0  0  0  0
  -21.8807   -3.8163   23.4308 C   0  0  0  0  0  0
  -21.9148   -4.7001   22.3363 C   0  0  0  0  0  0
  -22.7886  -13.5227   21.1901 C   0  0  0  0  0  0
  -22.1604   -4.2186   21.0936 F   0  0  0  0  0  0
  -21.5687   -3.4578   25.7721 F   0  0  0  0  0  0
  -30.0202  -13.3626   20.4030 N   0  0  0  0  0  0
  -26.3033  -12.9155   20.3450 N   0  0  0  0  0  0
  -25.9319  -11.6327   20.5847 N   0  0  0  0  0  0
  -22.0501  -12.8244   22.0480 N   0  0  0  0  0  0
  -25.4385  -15.1771   20.4162 N   0  0  0  0  0  0
  -31.7819  -14.7786   20.1327 O   0  0  0  0  0  0
  -21.6535   -6.8928   21.4216 O   0  0  0  0  0  0
  -22.3660  -14.5552   20.6761 O   0  0  0  0  0  0
  -24.6222  -31.8587   23.2060 C   0  0  0  0  0  0
  -25.9073  -32.4785   23.8400 C   0  0  1  0  0  0
  -27.2835  -27.3915   20.1040 C   0  0  0  0  0  0
  -25.5890  -33.8596   24.2324 N   0  0  0  0  0  0
  -23.4176  -30.4794   21.5445 C   0  0  2  0  0  0
  -24.8742  -28.9286   20.1128 C   0  0  0  0  0  0
  -22.7474  -29.4638   22.4975 C   0  0  0  0  0  0
  -18.0282  -28.1390   22.8480 C   0  0  0  0  0  0
  -24.1484  -36.7329   23.2646 C   0  0  0  0  0  0
  -25.9523  -30.8025   21.3693 C   0  0  0  0  0  0
  -26.0342  -29.4339   20.7175 C   0  0  0  0  0  0
  -27.2338  -28.6801   20.7033 C   0  0  0  0  0  0
  -26.1044  -26.9169   19.4851 C   0  0  0  0  0  0
  -24.9141  -27.6730   19.4807 C   0  0  0  0  0  0
  -23.6347  -29.8002   20.1621 C   0  0  0  0  0  0
  -25.4103  -36.3133   24.0353 C   0  0  1  0  0  0
  -20.5858  -28.3697   23.1282 C   0  0  2  0  0  0
  -20.6771  -26.9432   22.5397 C   0  0  0  0  0  0
  -19.5762  -26.6390   21.5197 C   0  0  0  0  0  0
  -18.1940  -26.7924   22.1617 C   0  0  0  0  0  0
  -19.1515  -28.8869   23.2863 C   0  0  0  0  0  0
  -18.9457  -30.1442   23.8916 C   0  0  0  0  0  0
  -17.6452  -30.6584   24.0558 C   0  0  0  0  0  0
  -25.9025  -34.9473   23.5156 C   0  0  0  0  0  0
  -16.5351  -29.9092   23.6301 C   0  0  0  0  0  0
  -16.7261  -28.6502   23.0355 C   0  0  0  0  0  0
  -26.4466  -31.6597   25.0767 C   0  0  0  0  0  0
  -25.3727  -31.3654   26.1505 C   0  0  0  0  0  0
  -27.0284  -30.3054   24.6129 C   0  0  0  0  0  0
  -27.6046  -32.4323   25.7507 C   0  0  0  0  0  0
  -27.5583  -37.1828   24.8469 C   0  0  0  0  0  0
  -21.4191  -29.3037   22.3717 N   0  0  0  0  0  0
  -26.4302  -37.3808   23.9402 N   0  0  0  0  0  0
  -24.6827  -31.0636   22.0978 N   0  0  0  0  0  0
  -23.4193  -28.8188   23.3065 O   0  0  0  0  0  0
  -28.4616  -26.6430   20.1371 O   0  0  0  0  0  0
  -26.5608  -34.8937   22.4729 O   0  0  0  0  0  0
  -23.5389  -32.1368   23.7411 O   0  0  0  0  0  0
  -28.1306  -18.2945   17.2305 C   0  0  0  0  0  0
  -29.2565  -17.8507   19.3803 C   0  0  0  0  0  0
  -29.1208  -19.2185   19.0717 C   0  0  0  0  0  0
  -26.0935  -20.2949   20.0948 C   0  0  0  0  0  0
  -25.1873  -21.9259   18.3881 C   0  0  0  0  0  0
  -29.9513  -17.1131   20.5368 C   0  0  0  0  0  0
  -27.6592  -22.0107   18.9468 C   0  0  0  0  0  0
  -29.9255  -22.9216   19.6833 C   0  0  0  0  0  0
  -28.4202  -25.2151   19.8351 C   0  0  0  0  0  0
  -26.2454  -21.6958   19.4831 C   0  0  0  0  0  0
  -28.8849  -21.7514   19.8777 C   0  0  2  0  0  0
  -29.6529  -24.3555   20.3233 C   0  0  1  0  0  0
  -28.5812  -19.4048   17.7960 N   0  0  0  0  0  0
  -29.4944  -20.3755   19.8296 N   0  0  0  0  0  0
  -29.7398  -15.6301   20.6307 N   0  0  0  0  0  0
  -29.5599  -24.1812   21.7244 O   0  0  0  0  0  0
  -28.4416  -16.8637   18.1761 S   0  0  0  0  0  0
  -31.4884  -12.4869   19.1152 H   0  0  0  0  0  0
  -30.3781  -11.3535   19.8425 H   0  0  0  0  0  0
  -29.7650  -11.7432   17.4475 H   0  0  0  0  0  0
  -29.6405  -13.4597   17.7157 H   0  0  0  0  0  0
  -27.8864  -11.2626   18.8685 H   0  0  0  0  0  0
  -27.3555  -12.5398   17.8053 H   0  0  0  0  0  0
  -27.6712  -14.2115   19.5311 H   0  0  0  0  0  0
  -28.7429  -11.9739   21.3355 H   0  0  0  0  0  0
  -28.4876  -13.6117   21.8634 H   0  0  0  0  0  0
  -25.2775   -9.5520   22.4713 H   0  0  0  0  0  0
  -23.9857   -7.4598   22.7527 H   0  0  0  0  0  0
  -21.0816   -8.8940   19.8922 H   0  0  0  0  0  0
  -22.3829  -10.9614   19.6090 H   0  0  0  0  0  0
  -21.1888   -7.6134   23.9700 H   0  0  0  0  0  0
  -21.1576   -6.0536   25.9076 H   0  0  0  0  0  0
  -22.0540   -2.7623   23.2783 H   0  0  0  0  0  0
  -22.4107  -11.9911   22.4880 H   0  0  0  0  0  0
  -21.1241  -13.1464   22.2857 H   0  0  0  0  0  0
  -24.6908  -15.8416   20.5838 H   0  0  0  0  0  0
  -26.2992  -15.6224   20.1296 H   0  0  0  0  0  0
  -26.7160  -32.5488   23.1169 H   0  0  0  0  0  0
  -25.0055  -33.9703   25.0484 H   0  0  0  0  0  0
  -22.7098  -31.2968   21.3982 H   0  0  0  0  0  0
  -23.3748  -35.9654   23.3304 H   0  0  0  0  0  0
  -24.3595  -36.8949   22.2059 H   0  0  0  0  0  0
  -23.7204  -37.6529   23.6652 H   0  0  0  0  0  0
  -26.0813  -31.5564   20.5900 H   0  0  0  0  0  0
  -26.8339  -30.8578   21.9977 H   0  0  0  0  0  0
  -28.1240  -29.0808   21.1741 H   0  0  0  0  0  0
  -26.0896  -25.9597   18.9885 H   0  0  0  0  0  0
  -24.0435  -27.2666   18.9816 H   0  0  0  0  0  0
  -23.7517  -30.5742   19.4024 H   0  0  0  0  0  0
  -22.7571  -29.2227   19.8621 H   0  0  0  0  0  0
  -25.1275  -36.2028   25.0844 H   0  0  0  0  0  0
  -20.9957  -28.3272   24.1385 H   0  0  0  0  0  0
  -20.5659  -26.2346   23.3603 H   0  0  0  0  0  0
  -21.6649  -26.7453   22.1187 H   0  0  0  0  0  0
  -19.6914  -25.6299   21.1237 H   0  0  0  0  0  0
  -19.6654  -27.3193   20.6713 H   0  0  0  0  0  0
  -17.4188  -26.6645   21.4029 H   0  0  0  0  0  0
  -18.0342  -26.0069   22.9027 H   0  0  0  0  0  0
  -19.7923  -30.7239   24.2334 H   0  0  0  0  0  0
  -17.5000  -31.6256   24.5175 H   0  0  0  0  0  0
  -15.5351  -30.3001   23.7596 H   0  0  0  0  0  0
  -15.8670  -28.0801   22.7093 H   0  0  0  0  0  0
  -24.5941  -30.6954   25.7850 H   0  0  0  0  0  0
  -24.8851  -32.2756   26.4989 H   0  0  0  0  0  0
  -25.8093  -30.8826   27.0250 H   0  0  0  0  0  0
  -26.2815  -29.6836   24.1187 H   0  0  0  0  0  0
  -27.4068  -29.7274   25.4565 H   0  0  0  0  0  0
  -27.8654  -30.4409   23.9286 H   0  0  0  0  0  0
  -27.2695  -33.3637   26.2061 H   0  0  0  0  0  0
  -28.3837  -32.6832   25.0313 H   0  0  0  0  0  0
  -28.0720  -31.8461   26.5414 H   0  0  0  0  0  0
  -28.2626  -38.0109   24.7522 H   0  0  0  0  0  0
  -28.1069  -36.2645   24.6310 H   0  0  0  0  0  0
  -27.2309  -37.1503   25.8879 H   0  0  0  0  0  0
  -20.9451  -29.8803   21.6918 H   0  0  0  0  0  0
  -26.0215  -38.2914   24.1347 H   0  0  0  0  0  0
  -27.6483  -18.3269   16.2612 H   0  0  0  0  0  0
  -25.1236  -20.1767   20.5809 H   0  0  0  0  0  0
  -26.8481  -20.1049   20.8571 H   0  0  0  0  0  0
  -26.1896  -19.5164   19.3366 H   0  0  0  0  0  0
  -24.1800  -21.8933   18.8079 H   0  0  0  0  0  0
  -25.2481  -21.1657   17.6075 H   0  0  0  0  0  0
  -25.3101  -22.8969   17.9037 H   0  0  0  0  0  0
  -29.5861  -17.5402   21.4688 H   0  0  0  0  0  0
  -31.0166  -17.3298   20.5099 H   0  0  0  0  0  0
  -27.6159  -23.0684   18.7282 H   0  0  0  0  0  0
  -27.8273  -21.6291   17.9501 H   0  0  0  0  0  0
  -30.1100  -23.0574   18.6180 H   0  0  0  0  0  0
  -30.8873  -22.5767   20.0710 H   0  0  0  0  0  0
  -27.5163  -24.7711   20.2603 H   0  0  0  0  0  0
  -28.3520  -25.1340   18.7472 H   0  0  0  0  0  0
  -26.0395  -22.4162   20.2777 H   0  0  0  0  0  0
  -28.5324  -21.8162   20.9064 H   0  0  0  0  0  0
  -30.5572  -24.9391   20.1480 H   0  0  0  0  0  0
  -29.9256  -20.1241   20.7122 H   0  0  0  0  0  0
  -28.7899  -15.3421   20.8088 H   0  0  0  0  0  0
  -28.7163  -23.7801   21.9043 H   0  0  0  0  0  0
  1 25  1  0  0  0
  1 30  2  0  0  0
  1 85  1  0  0  0
  2  3  1  0  0  0
  2 25  1  0  0  0
  2 88  1  0  0  0
  2 89  1  0  0  0
  3  4  1  0  0  0
  3 90  1  0  0  0
  3 91  1  0  0  0
  4  5  1  0  0  0
  4 92  1  0  0  0
  4 93  1  0  0  0
  5  6  1  0  0  0
  5 26  1  0  0  0
  5 94  1  0  0  0
  6 25  1  0  0  0
  6 95  1  0  0  0
  6 96  1  0  0  0
  7  8  2  0  0  0
  7 26  1  0  0  0
  7 29  1  0  0  0
  8  9  1  0  0  0
  8 22  1  0  0  0
  9 10  1  0  0  0
  9 27  2  0  0  0
 10 11  2  0  0  0
 10 15  1  0  0  0
 11 12  1  0  0  0
 11 97  1  0  0  0
 12 13  2  0  0  0
 12 98  1  0  0  0
 13 14  1  0  0  0
 13 31  1  0  0  0
 14 15  2  0  0  0
 14 99  1  0  0  0
 15100  1  0  0  0
 16 17  2  0  0  0
 16 21  1  0  0  0
 16 31  1  0  0  0
 17 18  1  0  0  0
 17101  1  0  0  0
 18 19  2  0  0  0
 18102  1  0  0  0
 19 20  1  0  0  0
 19 24  1  0  0  0
 20 21  2  0  0  0
 20103  1  0  0  0
 21 23  1  0  0  0
 22 28  1  0  0  0
 22 32  2  0  0  0
 26 27  1  0  0  0
 28104  1  0  0  0
 28105  1  0  0  0
 29106  1  0  0  0
 29107  1  0  0  0
 33 34  1  0  0  0
 33 66  1  0  0  0
 33 70  2  0  0  0
 34 36  1  0  0  0
 34 59  1  0  0  0
 34108  1  0  0  0
 35 44  2  0  0  0
 35 45  1  0  0  0
 35 68  1  0  0  0
 36 56  1  0  0  0
 36109  1  0  0  0
 37 39  1  0  0  0
 37 47  1  0  0  0
 37 66  1  0  0  0
 37110  1  0  0  0
 38 43  2  0  0  0
 38 46  1  0  0  0
 38 47  1  0  0  0
 39 64  1  0  0  0
 39 67  2  0  0  0
 40 52  1  0  0  0
 40 53  2  0  0  0
 40 58  1  0  0  0
 41111  1  0  0  0
 41112  1  0  0  0
 41113  1  0  0  0
 41 48  1  0  0  0
 42 43  1  0  0  0
 42 66  1  0  0  0
 42114  1  0  0  0
 42115  1  0  0  0
 43 44  1  0  0  0
 44116  1  0  0  0
 45 46  2  0  0  0
 45117  1  0  0  0
 46118  1  0  0  0
 47119  1  0  0  0
 47120  1  0  0  0
 48 56  1  0  0  0
 48 65  1  0  0  0
 48121  1  0  0  0
 49 50  1  0  0  0
 49 53  1  0  0  0
 49 64  1  0  0  0
 49122  1  0  0  0
 50 51  1  0  0  0
 50123  1  0  0  0
 50124  1  0  0  0
 51 52  1  0  0  0
 51125  1  0  0  0
 51126  1  0  0  0
 52127  1  0  0  0
 52128  1  0  0  0
 53 54  1  0  0  0
 54 55  2  0  0  0
 54129  1  0  0  0
 55 57  1  0  0  0
 55130  1  0  0  0
 56 69  2  0  0  0
 57 58  2  0  0  0
 57131  1  0  0  0
 58132  1  0  0  0
 59 60  1  0  0  0
 59 61  1  0  0  0
 59 62  1  0  0  0
 60133  1  0  0  0
 60134  1  0  0  0
 60135  1  0  0  0
 61136  1  0  0  0
 61137  1  0  0  0
 61138  1  0  0  0
 62139  1  0  0  0
 62140  1  0  0  0
 62141  1  0  0  0
 63 65  1  0  0  0
 63142  1  0  0  0
 63143  1  0  0  0
 63144  1  0  0  0
 64145  1  0  0  0
 65146  1  0  0  0
 68 79  1  0  0  0
 71 83  2  0  0  0
 71 87  1  0  0  0
 71147  1  0  0  0
 72 73  2  0  0  0
 72 76  1  0  0  0
 72 87  1  0  0  0
 73 83  1  0  0  0
 73 84  1  0  0  0
 74148  1  0  0  0
 74149  1  0  0  0
 74150  1  0  0  0
 74 80  1  0  0  0
 75 80  1  0  0  0
 75151  1  0  0  0
 75152  1  0  0  0
 75153  1  0  0  0
 76 85  1  0  0  0
 76154  1  0  0  0
 76155  1  0  0  0
 77 80  1  0  0  0
 77156  1  0  0  0
 77157  1  0  0  0
 77 81  1  0  0  0
 78 81  1  0  0  0
 78 82  1  0  0  0
 78158  1  0  0  0
 78159  1  0  0  0
 79 82  1  0  0  0
 79160  1  0  0  0
 79161  1  0  0  0
 80162  1  0  0  0
 81 84  1  0  0  0
 81163  1  0  0  0
 82 86  1  0  0  0
 82164  1  0  0  0
 84165  1  0  0  0
 85166  1  0  0  0
 86167  1  0  0  0
M  ISO  4   1 100  68 101  79 101  85 100
M  END
> <chiral flag>
0

> <version>
0

> <s_m_source_file>
/data/baiqing/PycharmProjects/Reinvent-master-3.2/result/LINK_invent/BTK/process_docking_weight1_custom_product_contain_oxygen_bond_distance_aromatic_linkinvent_7_9_3/rearranged_h_0193.sdf

> <i_m_source_file_index>
30

> <r_mmod_Potential_Energy-OPLS-2005>
-3.93130588531494

> <r_mmod_Stretch_Energy-OPLS-2005>
68.7150955200195

> <r_mmod_Bend_Energy-OPLS-2005>
158.44172668457

> <r_mmod_Torsional_Energy-OPLS-2005>
233.233001708984

> <r_mmod_Improper_Torsional_Energy-OPLS-2005>
7.64071178436279

> <r_mmod_Van_der_Waal_Energy-OPLS-2005>
122.892463684082

> <r_mmod_Electrostatic_Energy-OPLS-2005>
-378.114318847656

> <r_mmod_Solvation_Energy-OPLS-2005>
-250.104385375977

> <b_mmod_Minimization_Converged-OPLS-2005>
0

> <r_mmod_RMS_Derivative-OPLS-2005>
8.08246803283691

$$$$
30
                    3D
 Structure written by MMmdl.
155163  0  0  1  0            999 V2000
  -30.6063  -14.7901   20.4425 C   0  0  0  0  0  0
  -30.4377  -12.4853   19.4714 C   0  0  0  0  0  0
  -29.5135  -12.5106   18.2341 C   0  0  0  0  0  0
  -28.0431  -12.3180   18.6536 C   0  0  0  0  0  0
  -27.6384  -13.2346   19.8397 C   0  0  2  0  0  0
  -28.6862  -13.1964   20.9726 C   0  0  0  0  0  0
  -25.2494  -13.8182   20.5657 C   0  0  0  0  0  0
  -24.1811  -13.0420   20.9238 C   0  0  0  0  0  0
  -24.6427  -11.6900   20.8785 C   0  0  0  0  0  0
  -23.9098  -10.4273   21.0446 C   0  0  0  0  0  0
  -24.3642   -9.4187   21.9230 C   0  0  0  0  0  0
  -23.6304   -8.2221   22.0788 C   0  0  0  0  0  0
  -22.4294   -8.0274   21.3563 C   0  0  0  0  0  0
  -21.9930   -9.0260   20.4678 C   0  0  0  0  0  0
  -22.7266  -10.2132   20.3096 C   0  0  0  0  0  0
  -21.6853   -6.0736   22.5282 C   0  0  0  0  0  0
  -21.4011   -6.5637   23.8219 C   0  0  0  0  0  0
  -21.3658   -5.6791   24.9176 C   0  0  0  0  0  0
  -21.6042   -4.3054   24.7223 C   0  0  0  0  0  0
  -21.8822   -3.8151   23.4346 C   0  0  0  0  0  0
  -21.9185   -4.6968   22.3401 C   0  0  0  0  0  0
  -22.7816  -13.5183   21.1872 C   0  0  0  0  0  0
  -22.1657   -4.2147   21.0984 F   0  0  0  0  0  0
  -21.5630   -3.4542   25.7743 F   0  0  0  0  0  0
  -29.9804  -13.5608   20.3837 N   0  0  0  0  0  0
  -26.2935  -12.9412   20.3232 N   0  0  0  0  0  0
  -25.9356  -11.6552   20.5777 N   0  0  0  0  0  0
  -22.0440  -12.8205   22.0434 N   0  0  0  0  0  0
  -25.4064  -15.1920   20.4017 N   0  0  0  0  0  0
  -31.8047  -14.8706   20.1626 O   0  0  0  0  0  0
  -21.6647   -6.8886   21.4252 O   0  0  0  0  0  0
  -22.3494  -14.5482   20.6700 O   0  0  0  0  0  0
  -24.6325  -31.8529   23.1963 C   0  0  0  0  0  0
  -25.9143  -32.4738   23.8323 C   0  0  1  0  0  0
  -27.2223  -27.2400   20.1284 C   0  0  0  0  0  0
  -25.5928  -33.8540   24.2242 N   0  0  0  0  0  0
  -23.4308  -30.4742   21.5399 C   0  0  2  0  0  0
  -24.8775  -28.9156   20.1087 C   0  0  0  0  0  0
  -22.7511  -29.4594   22.4903 C   0  0  0  0  0  0
  -18.0292  -28.1385   22.8481 C   0  0  0  0  0  0
  -24.1497  -36.7272   23.2641 C   0  0  0  0  0  0
  -25.9786  -30.7582   21.3807 C   0  0  0  0  0  0
  -26.0488  -29.3809   20.7173 C   0  0  0  0  0  0
  -27.2198  -28.5558   20.7135 C   0  0  0  0  0  0
  -26.0222  -26.8401   19.5006 C   0  0  0  0  0  0
  -24.8714  -27.6557   19.4895 C   0  0  0  0  0  0
  -23.6511  -29.8073   20.1561 C   0  0  0  0  0  0
  -25.4121  -36.3053   24.0327 C   0  0  1  0  0  0
  -20.5898  -28.3701   23.1269 C   0  0  2  0  0  0
  -20.6779  -26.9414   22.5418 C   0  0  0  0  0  0
  -19.5761  -26.6380   21.5219 C   0  0  0  0  0  0
  -18.1934  -26.7930   22.1620 C   0  0  0  0  0  0
  -19.1543  -28.8861   23.2871 C   0  0  0  0  0  0
  -18.9467  -30.1458   23.8896 C   0  0  0  0  0  0
  -17.6465  -30.6587   24.0558 C   0  0  0  0  0  0
  -25.9058  -34.9423   23.5084 C   0  0  0  0  0  0
  -16.5356  -29.9082   23.6323 C   0  0  0  0  0  0
  -16.7279  -28.6497   23.0351 C   0  0  0  0  0  0
  -26.4510  -31.6578   25.0724 C   0  0  0  0  0  0
  -25.3730  -31.3753   26.1454 C   0  0  0  0  0  0
  -27.0379  -30.2984   24.6257 C   0  0  0  0  0  0
  -27.6055  -32.4346   25.7483 C   0  0  0  0  0  0
  -27.5581  -37.1798   24.8460 C   0  0  0  0  0  0
  -21.4214  -29.3040   22.3647 N   0  0  0  0  0  0
  -26.4290  -37.3757   23.9402 N   0  0  0  0  0  0
  -24.6998  -31.0481   22.0945 N   0  0  0  0  0  0
  -23.4209  -28.8135   23.3007 O   0  0  0  0  0  0
  -28.3416  -26.3713   20.2097 O   0  0  0  0  0  0
  -26.5647  -34.8905   22.4672 O   0  0  0  0  0  0
  -23.5474  -32.1364   23.7250 O   0  0  0  0  0  0
  -27.1925  -19.5206   19.3264 C   0  0  0  0  0  0
  -27.9995  -18.3871   19.5757 C   0  0  0  0  0  0
  -29.2482  -18.6210   20.2055 C   0  0  0  0  0  0
  -28.7421  -20.9785   20.1514 C   0  0  0  0  0  0
  -26.9437  -23.3927   21.1927 C   0  0  0  0  0  0
  -30.2627  -17.4211   20.5484 C   0  0  0  0  0  0
  -28.4047  -24.9453   19.7038 C   0  0  0  0  0  0
  -28.3727  -23.6437   20.6850 C   0  0  2  0  0  0
  -27.5577  -20.7866   19.6068 N   0  0  0  0  0  0
  -29.5932  -19.9511   20.4577 N   0  0  0  0  0  0
  -27.5677  -17.1253   19.1423 N   0  0  0  0  0  0
  -29.1309  -22.3542   20.3219 N   0  0  0  0  0  0
  -29.8447  -15.9406   20.6043 N   0  0  0  0  0  0
  -31.4777  -12.6128   19.1673 H   0  0  0  0  0  0
  -30.3915  -11.5149   19.9693 H   0  0  0  0  0  0
  -29.8078  -11.7356   17.5247 H   0  0  0  0  0  0
  -29.6262  -13.4624   17.7129 H   0  0  0  0  0  0
  -27.9228  -11.2720   18.9395 H   0  0  0  0  0  0
  -27.3800  -12.4765   17.8023 H   0  0  0  0  0  0
  -27.6213  -14.2478   19.4402 H   0  0  0  0  0  0
  -28.7377  -12.2016   21.4176 H   0  0  0  0  0  0
  -28.4137  -13.8816   21.7764 H   0  0  0  0  0  0
  -25.2776   -9.5649   22.4817 H   0  0  0  0  0  0
  -24.0005   -7.4616   22.7514 H   0  0  0  0  0  0
  -21.0857   -8.8789   19.8984 H   0  0  0  0  0  0
  -22.3730  -10.9690   19.6217 H   0  0  0  0  0  0
  -21.2011   -7.6151   23.9711 H   0  0  0  0  0  0
  -21.1475   -6.0532   25.9076 H   0  0  0  0  0  0
  -22.0599   -2.7608   23.2848 H   0  0  0  0  0  0
  -22.4027  -11.9884   22.4893 H   0  0  0  0  0  0
  -21.1078  -13.1279   22.2612 H   0  0  0  0  0  0
  -24.6214  -15.8233   20.5158 H   0  0  0  0  0  0
  -26.2325  -15.6681   20.0404 H   0  0  0  0  0  0
  -26.7201  -32.5366   23.1054 H   0  0  0  0  0  0
  -25.0031  -33.9674   25.0358 H   0  0  0  0  0  0
  -22.7281  -31.2967   21.3919 H   0  0  0  0  0  0
  -23.3752  -35.9610   23.3295 H   0  0  0  0  0  0
  -24.3581  -36.8908   22.2054 H   0  0  0  0  0  0
  -23.7261  -37.6472   23.6682 H   0  0  0  0  0  0
  -26.1284  -31.5241   20.6192 H   0  0  0  0  0  0
  -26.8518  -30.7984   22.0208 H   0  0  0  0  0  0
  -28.1181  -28.9093   21.1994 H   0  0  0  0  0  0
  -25.9305  -25.8715   19.0359 H   0  0  0  0  0  0
  -23.9715  -27.2893   19.0140 H   0  0  0  0  0  0
  -23.7818  -30.5865   19.4038 H   0  0  0  0  0  0
  -22.7679  -29.2465   19.8438 H   0  0  0  0  0  0
  -25.1304  -36.1893   25.0821 H   0  0  0  0  0  0
  -20.9983  -28.3292   24.1395 H   0  0  0  0  0  0
  -20.5670  -26.2313   23.3626 H   0  0  0  0  0  0
  -21.6650  -26.7439   22.1222 H   0  0  0  0  0  0
  -19.6926  -25.6288   21.1258 H   0  0  0  0  0  0
  -19.6703  -27.3184   20.6744 H   0  0  0  0  0  0
  -17.4209  -26.6677   21.4012 H   0  0  0  0  0  0
  -18.0324  -26.0076   22.9017 H   0  0  0  0  0  0
  -19.7943  -30.7261   24.2278 H   0  0  0  0  0  0
  -17.5022  -31.6269   24.5157 H   0  0  0  0  0  0
  -15.5353  -30.2987   23.7648 H   0  0  0  0  0  0
  -15.8677  -28.0809   22.7084 H   0  0  0  0  0  0
  -24.5910  -30.7088   25.7799 H   0  0  0  0  0  0
  -24.8913  -32.2930   26.4835 H   0  0  0  0  0  0
  -25.8055  -30.8965   27.0247 H   0  0  0  0  0  0
  -26.2982  -29.6683   24.1306 H   0  0  0  0  0  0
  -27.4060  -29.7303   25.4805 H   0  0  0  0  0  0
  -27.8856  -30.4224   23.9517 H   0  0  0  0  0  0
  -27.2662  -33.3673   26.1996 H   0  0  0  0  0  0
  -28.3887  -32.6870   25.0324 H   0  0  0  0  0  0
  -28.0696  -31.8508   26.5441 H   0  0  0  0  0  0
  -28.2584  -38.0101   24.7491 H   0  0  0  0  0  0
  -28.1096  -36.2634   24.6304 H   0  0  0  0  0  0
  -27.2302  -37.1457   25.8862 H   0  0  0  0  0  0
  -20.9410  -29.8743   21.6825 H   0  0  0  0  0  0
  -26.0162  -38.2829   24.1396 H   0  0  0  0  0  0
  -26.2336  -19.4110   18.8424 H   0  0  0  0  0  0
  -26.5317  -24.3024   21.6310 H   0  0  0  0  0  0
  -26.9221  -22.6240   21.9662 H   0  0  0  0  0  0
  -26.2745  -23.0894   20.3863 H   0  0  0  0  0  0
  -30.7109  -17.6642   21.5134 H   0  0  0  0  0  0
  -31.0766  -17.5091   19.8279 H   0  0  0  0  0  0
  -27.7060  -24.7903   18.8848 H   0  0  0  0  0  0
  -29.3735  -24.9116   19.2067 H   0  0  0  0  0  0
  -28.9282  -23.9718   21.5643 H   0  0  0  0  0  0
  -26.8264  -17.1456   18.4450 H   0  0  0  0  0  0
  -28.3061  -16.5023   18.8313 H   0  0  0  0  0  0
  -30.1061  -22.4213   20.5886 H   0  0  0  0  0  0
  -28.8492  -15.8135   20.7244 H   0  0  0  0  0  0
  1 25  1  0  0  0
  1 30  2  0  0  0
  1 83  1  0  0  0
  2  3  1  0  0  0
  2 25  1  0  0  0
  2 84  1  0  0  0
  2 85  1  0  0  0
  3  4  1  0  0  0
  3 86  1  0  0  0
  3 87  1  0  0  0
  4  5  1  0  0  0
  4 88  1  0  0  0
  4 89  1  0  0  0
  5  6  1  0  0  0
  5 26  1  0  0  0
  5 90  1  0  0  0
  6 25  1  0  0  0
  6 91  1  0  0  0
  6 92  1  0  0  0
  7  8  2  0  0  0
  7 26  1  0  0  0
  7 29  1  0  0  0
  8  9  1  0  0  0
  8 22  1  0  0  0
  9 10  1  0  0  0
  9 27  2  0  0  0
 10 11  2  0  0  0
 10 15  1  0  0  0
 11 12  1  0  0  0
 11 93  1  0  0  0
 12 13  2  0  0  0
 12 94  1  0  0  0
 13 14  1  0  0  0
 13 31  1  0  0  0
 14 15  2  0  0  0
 14 95  1  0  0  0
 15 96  1  0  0  0
 16 17  2  0  0  0
 16 21  1  0  0  0
 16 31  1  0  0  0
 17 18  1  0  0  0
 17 97  1  0  0  0
 18 19  2  0  0  0
 18 98  1  0  0  0
 19 20  1  0  0  0
 19 24  1  0  0  0
 20 21  2  0  0  0
 20 99  1  0  0  0
 21 23  1  0  0  0
 22 28  1  0  0  0
 22 32  2  0  0  0
 26 27  1  0  0  0
 28100  1  0  0  0
 28101  1  0  0  0
 29102  1  0  0  0
 29103  1  0  0  0
 33 34  1  0  0  0
 33 66  1  0  0  0
 33 70  2  0  0  0
 34 36  1  0  0  0
 34 59  1  0  0  0
 34104  1  0  0  0
 35 44  2  0  0  0
 35 45  1  0  0  0
 35 68  1  0  0  0
 36 56  1  0  0  0
 36105  1  0  0  0
 37 39  1  0  0  0
 37 47  1  0  0  0
 37 66  1  0  0  0
 37106  1  0  0  0
 38 43  2  0  0  0
 38 46  1  0  0  0
 38 47  1  0  0  0
 39 64  1  0  0  0
 39 67  2  0  0  0
 40 52  1  0  0  0
 40 53  2  0  0  0
 40 58  1  0  0  0
 41107  1  0  0  0
 41108  1  0  0  0
 41109  1  0  0  0
 41 48  1  0  0  0
 42 43  1  0  0  0
 42 66  1  0  0  0
 42110  1  0  0  0
 42111  1  0  0  0
 43 44  1  0  0  0
 44112  1  0  0  0
 45 46  2  0  0  0
 45113  1  0  0  0
 46114  1  0  0  0
 47115  1  0  0  0
 47116  1  0  0  0
 48 56  1  0  0  0
 48 65  1  0  0  0
 48117  1  0  0  0
 49 50  1  0  0  0
 49 53  1  0  0  0
 49 64  1  0  0  0
 49118  1  0  0  0
 50 51  1  0  0  0
 50119  1  0  0  0
 50120  1  0  0  0
 51 52  1  0  0  0
 51121  1  0  0  0
 51122  1  0  0  0
 52123  1  0  0  0
 52124  1  0  0  0
 53 54  1  0  0  0
 54 55  2  0  0  0
 54125  1  0  0  0
 55 57  1  0  0  0
 55126  1  0  0  0
 56 69  2  0  0  0
 57 58  2  0  0  0
 57127  1  0  0  0
 58128  1  0  0  0
 59 60  1  0  0  0
 59 61  1  0  0  0
 59 62  1  0  0  0
 60129  1  0  0  0
 60130  1  0  0  0
 60131  1  0  0  0
 61132  1  0  0  0
 61133  1  0  0  0
 61134  1  0  0  0
 62135  1  0  0  0
 62136  1  0  0  0
 62137  1  0  0  0
 63 65  1  0  0  0
 63138  1  0  0  0
 63139  1  0  0  0
 63140  1  0  0  0
 64141  1  0  0  0
 65142  1  0  0  0
 68 77  1  0  0  0
 71 72  2  0  0  0
 71 79  1  0  0  0
 71143  1  0  0  0
 72 73  1  0  0  0
 72 81  1  0  0  0
 73 76  1  0  0  0
 73 80  2  0  0  0
 74 79  2  0  0  0
 74 80  1  0  0  0
 74 82  1  0  0  0
 75144  1  0  0  0
 75145  1  0  0  0
 75146  1  0  0  0
 75 78  1  0  0  0
 76 83  1  0  0  0
 76147  1  0  0  0
 76148  1  0  0  0
 77 78  1  0  0  0
 77149  1  0  0  0
 77150  1  0  0  0
 78 82  1  0  0  0
 78151  1  0  0  0
 81152  1  0  0  0
 81153  1  0  0  0
 82154  1  0  0  0
 83155  1  0  0  0
M  ISO  4   1 100  68 101  77 101  83 100
M  END
> <chiral flag>
0

> <version>
0

> <s_m_source_file>
/data/baiqing/PycharmProjects/Reinvent-master-3.2/result/LINK_invent/BTK/process_docking_weight1_custom_product_contain_oxygen_bond_distance_aromatic_linkinvent_7_9_3/rearranged_h_0193.sdf

> <i_m_source_file_index>
31

> <r_mmod_Potential_Energy-OPLS-2005>
-375.154510498047

> <r_mmod_Stretch_Energy-OPLS-2005>
135.189712524414

> <r_mmod_Bend_Energy-OPLS-2005>
208.353698730469

> <r_mmod_Torsional_Energy-OPLS-2005>
203.652252197266

> <r_mmod_Improper_Torsional_Energy-OPLS-2005>
11.8906164169312

> <r_mmod_Van_der_Waal_Energy-OPLS-2005>
140.354049682617

> <r_mmod_Electrostatic_Energy-OPLS-2005>
-935.399291992188

> <r_mmod_Solvation_Energy-OPLS-2005>
-240.691757202148

> <b_mmod_Minimization_Converged-OPLS-2005>
0

> <r_mmod_RMS_Derivative-OPLS-2005>
2.48320627212524

$$$$
31
                    3D
 Structure written by MMmdl.
157165  0  0  1  0            999 V2000
  -30.5842  -14.8055   20.5240 C   0  0  0  0  0  0
  -30.4436  -12.5073   19.5022 C   0  0  0  0  0  0
  -29.5281  -12.5319   18.2595 C   0  0  0  0  0  0
  -28.0605  -12.3310   18.6721 C   0  0  0  0  0  0
  -27.6489  -13.2326   19.8617 C   0  0  2  0  0  0
  -28.6790  -13.1863   21.0138 C   0  0  0  0  0  0
  -25.2533  -13.8192   20.5655 C   0  0  0  0  0  0
  -24.1846  -13.0451   20.9162 C   0  0  0  0  0  0
  -24.6446  -11.6921   20.8771 C   0  0  0  0  0  0
  -23.9151  -10.4292   21.0418 C   0  0  0  0  0  0
  -24.3700   -9.4182   21.9189 C   0  0  0  0  0  0
  -23.6328   -8.2258   22.0762 C   0  0  0  0  0  0
  -22.4292   -8.0327   21.3567 C   0  0  0  0  0  0
  -21.9947   -9.0305   20.4658 C   0  0  0  0  0  0
  -22.7327  -10.2161   20.3044 C   0  0  0  0  0  0
  -21.6839   -6.0767   22.5273 C   0  0  0  0  0  0
  -21.4026   -6.5652   23.8227 C   0  0  0  0  0  0
  -21.3672   -5.6790   24.9168 C   0  0  0  0  0  0
  -21.6044   -4.3043   24.7201 C   0  0  0  0  0  0
  -21.8836   -3.8164   23.4311 C   0  0  0  0  0  0
  -21.9192   -4.6986   22.3391 C   0  0  0  0  0  0
  -22.7886  -13.5224   21.1777 C   0  0  0  0  0  0
  -22.1656   -4.2188   21.0950 F   0  0  0  0  0  0
  -21.5610   -3.4534   25.7714 F   0  0  0  0  0  0
  -29.9774  -13.5680   20.4425 N   0  0  0  0  0  0
  -26.2968  -12.9423   20.3278 N   0  0  0  0  0  0
  -25.9368  -11.6571   20.5781 N   0  0  0  0  0  0
  -22.0512  -12.8297   22.0352 N   0  0  0  0  0  0
  -25.4125  -15.1956   20.4090 N   0  0  0  0  0  0
  -31.7539  -14.9091   20.1382 O   0  0  0  0  0  0
  -21.6622   -6.8925   21.4254 O   0  0  0  0  0  0
  -22.3592  -14.5535   20.6549 O   0  0  0  0  0  0
  -24.6319  -31.8536   23.2029 C   0  0  0  0  0  0
  -25.9146  -32.4783   23.8329 C   0  0  1  0  0  0
  -27.2091  -27.2246   20.1703 C   0  0  0  0  0  0
  -25.5882  -33.8594   24.2234 N   0  0  0  0  0  0
  -23.4259  -30.4776   21.5502 C   0  0  2  0  0  0
  -24.8763  -28.9059   20.1351 C   0  0  0  0  0  0
  -22.7465  -29.4625   22.5027 C   0  0  0  0  0  0
  -18.0261  -28.1419   22.8509 C   0  0  0  0  0  0
  -24.1494  -36.7246   23.2644 C   0  0  0  0  0  0
  -25.9741  -30.7615   21.3871 C   0  0  0  0  0  0
  -26.0502  -29.3730   20.7408 C   0  0  0  0  0  0
  -27.2263  -28.5469   20.7409 C   0  0  0  0  0  0
  -26.0090  -26.8211   19.5525 C   0  0  0  0  0  0
  -24.8583  -27.6371   19.5349 C   0  0  0  0  0  0
  -23.6528  -29.8087   20.1723 C   0  0  0  0  0  0
  -25.4125  -36.3091   24.0355 C   0  0  1  0  0  0
  -20.5853  -28.3713   23.1364 C   0  0  2  0  0  0
  -20.6774  -26.9445   22.5471 C   0  0  0  0  0  0
  -19.5752  -26.6390   21.5258 C   0  0  0  0  0  0
  -18.1915  -26.7972   22.1637 C   0  0  0  0  0  0
  -19.1508  -28.8869   23.2933 C   0  0  0  0  0  0
  -18.9428  -30.1460   23.8958 C   0  0  0  0  0  0
  -17.6428  -30.6618   24.0553 C   0  0  0  0  0  0
  -25.9047  -34.9459   23.5086 C   0  0  0  0  0  0
  -16.5322  -29.9112   23.6354 C   0  0  0  0  0  0
  -16.7245  -28.6536   23.0396 C   0  0  0  0  0  0
  -26.4495  -31.6652   25.0725 C   0  0  0  0  0  0
  -25.3668  -31.3830   26.1398 C   0  0  0  0  0  0
  -27.0354  -30.3083   24.6234 C   0  0  0  0  0  0
  -27.6045  -32.4369   25.7483 C   0  0  0  0  0  0
  -27.5580  -37.1770   24.8463 C   0  0  0  0  0  0
  -21.4190  -29.3053   22.3764 N   0  0  0  0  0  0
  -26.4279  -37.3785   23.9426 N   0  0  0  0  0  0
  -24.6946  -31.0503   22.1021 N   0  0  0  0  0  0
  -23.4160  -28.8157   23.3105 O   0  0  0  0  0  0
  -28.3286  -26.3641   20.0630 O   0  0  0  0  0  0
  -26.5607  -34.8900   22.4649 O   0  0  0  0  0  0
  -23.5486  -32.1338   23.7378 O   0  0  0  0  0  0
  -29.2855  -18.6701   21.0301 C   0  0  0  0  0  0
  -27.4892  -19.5074   22.0426 C   0  0  0  0  0  0
  -28.7552  -20.9485   20.9299 C   0  0  0  0  0  0
  -28.1367  -23.5919   18.6745 C   0  0  0  0  0  0
  -30.0173  -25.1145   21.0798 C   0  0  0  0  0  0
  -30.2611  -17.4158   20.7732 C   0  0  0  0  0  0
  -28.1932  -23.5345   20.2063 C   0  0  1  0  0  0
  -28.5107  -25.0448   20.7975 C   0  0  1  0  0  0
  -28.2021  -18.4213   21.7706 N   0  0  0  0  0  0
  -29.6166  -19.9427   20.6035 N   0  0  0  0  0  0
  -27.6640  -20.7653   21.6586 N   0  0  0  0  0  0
  -26.4338  -19.3199   22.8821 N   0  0  0  0  0  0
  -29.0641  -22.3270   20.6070 N   0  0  0  0  0  0
  -29.8344  -15.9375   20.8544 N   0  0  0  0  0  0
  -31.4848  -12.6334   19.1978 H   0  0  0  0  0  0
  -30.4038  -11.5320   19.9930 H   0  0  0  0  0  0
  -29.8304  -11.7651   17.5482 H   0  0  0  0  0  0
  -29.6389  -13.4822   17.7363 H   0  0  0  0  0  0
  -27.9326  -11.2807   18.9381 H   0  0  0  0  0  0
  -27.4059  -12.5140   17.8189 H   0  0  0  0  0  0
  -27.6387  -14.2513   19.4732 H   0  0  0  0  0  0
  -28.7448  -12.1863   21.4527 H   0  0  0  0  0  0
  -28.3810  -13.8481   21.8307 H   0  0  0  0  0  0
  -25.2862   -9.5626   22.4748 H   0  0  0  0  0  0
  -24.0010   -7.4640   22.7516 H   0  0  0  0  0  0
  -21.0867   -8.8899   19.8995 H   0  0  0  0  0  0
  -22.3835  -10.9731   19.6144 H   0  0  0  0  0  0
  -21.2043   -7.6156   23.9765 H   0  0  0  0  0  0
  -21.1453   -6.0479   25.9082 H   0  0  0  0  0  0
  -22.0596   -2.7617   23.2772 H   0  0  0  0  0  0
  -22.4119  -11.9955   22.4773 H   0  0  0  0  0  0
  -21.1160  -13.1401   22.2526 H   0  0  0  0  0  0
  -24.6475  -15.8492   20.5374 H   0  0  0  0  0  0
  -26.2559  -15.6497   20.0885 H   0  0  0  0  0  0
  -26.7203  -32.5435   23.1047 H   0  0  0  0  0  0
  -25.0050  -33.9767   25.0410 H   0  0  0  0  0  0
  -22.7170  -31.2957   21.4076 H   0  0  0  0  0  0
  -23.3799  -35.9535   23.3327 H   0  0  0  0  0  0
  -24.3568  -36.8805   22.2034 H   0  0  0  0  0  0
  -23.7189  -37.6423   23.6669 H   0  0  0  0  0  0
  -26.1090  -31.5215   20.6166 H   0  0  0  0  0  0
  -26.8540  -30.8122   22.0189 H   0  0  0  0  0  0
  -28.1325  -28.9192   21.1986 H   0  0  0  0  0  0
  -25.9436  -25.8567   19.0721 H   0  0  0  0  0  0
  -23.9493  -27.2743   19.0700 H   0  0  0  0  0  0
  -23.7966  -30.5816   19.4145 H   0  0  0  0  0  0
  -22.7657  -29.2561   19.8649 H   0  0  0  0  0  0
  -25.1351  -36.1890   25.0859 H   0  0  0  0  0  0
  -20.9912  -28.3295   24.1500 H   0  0  0  0  0  0
  -20.5739  -26.2289   23.3674 H   0  0  0  0  0  0
  -21.6642  -26.7567   22.1190 H   0  0  0  0  0  0
  -19.6923  -25.6294   21.1303 H   0  0  0  0  0  0
  -19.6694  -27.3220   20.6809 H   0  0  0  0  0  0
  -17.4197  -26.6734   21.4029 H   0  0  0  0  0  0
  -18.0279  -26.0127   22.9038 H   0  0  0  0  0  0
  -19.7901  -30.7248   24.2399 H   0  0  0  0  0  0
  -17.5008  -31.6347   24.5072 H   0  0  0  0  0  0
  -15.5353  -30.3021   23.7708 H   0  0  0  0  0  0
  -15.8639  -28.0865   22.7146 H   0  0  0  0  0  0
  -24.5831  -30.7214   25.7710 H   0  0  0  0  0  0
  -24.8851  -32.3008   26.4779 H   0  0  0  0  0  0
  -25.7861  -30.8970   27.0204 H   0  0  0  0  0  0
  -26.2987  -29.6793   24.1204 H   0  0  0  0  0  0
  -27.4002  -29.7383   25.4787 H   0  0  0  0  0  0
  -27.8877  -30.4418   23.9561 H   0  0  0  0  0  0
  -27.2708  -33.3692   26.2065 H   0  0  0  0  0  0
  -28.3846  -32.6847   25.0282 H   0  0  0  0  0  0
  -28.0741  -31.8441   26.5334 H   0  0  0  0  0  0
  -28.2621  -38.0052   24.7533 H   0  0  0  0  0  0
  -28.1011  -36.2549   24.6287 H   0  0  0  0  0  0
  -27.2254  -37.1463   25.8850 H   0  0  0  0  0  0
  -20.9417  -29.8614   21.6841 H   0  0  0  0  0  0
  -26.0133  -38.2840   24.1442 H   0  0  0  0  0  0
  -27.8289  -22.6346   18.2552 H   0  0  0  0  0  0
  -29.1090  -23.8438   18.2498 H   0  0  0  0  0  0
  -27.4109  -24.3315   18.3401 H   0  0  0  0  0  0
  -30.3026  -26.0695   21.5125 H   0  0  0  0  0  0
  -30.5713  -24.9873   20.1483 H   0  0  0  0  0  0
  -30.3447  -24.3456   21.7827 H   0  0  0  0  0  0
  -31.0585  -17.5380   21.5067 H   0  0  0  0  0  0
  -30.7305  -17.5741   19.8009 H   0  0  0  0  0  0
  -27.1786  -23.2910   20.5174 H   0  0  0  0  0  0
  -27.9896  -25.1487   21.7531 H   0  0  0  0  0  0
  -26.4625  -18.4993   23.4698 H   0  0  0  0  0  0
  -26.1095  -20.1533   23.3538 H   0  0  0  0  0  0
  -30.0167  -22.4175   20.2821 H   0  0  0  0  0  0
  -28.8767  -15.8015   21.1415 H   0  0  0  0  0  0
  1 25  1  0  0  0
  1 30  2  0  0  0
  1 84  1  0  0  0
  2  3  1  0  0  0
  2 25  1  0  0  0
  2 85  1  0  0  0
  2 86  1  0  0  0
  3  4  1  0  0  0
  3 87  1  0  0  0
  3 88  1  0  0  0
  4  5  1  0  0  0
  4 89  1  0  0  0
  4 90  1  0  0  0
  5  6  1  0  0  0
  5 26  1  0  0  0
  5 91  1  0  0  0
  6 25  1  0  0  0
  6 92  1  0  0  0
  6 93  1  0  0  0
  7  8  2  0  0  0
  7 26  1  0  0  0
  7 29  1  0  0  0
  8  9  1  0  0  0
  8 22  1  0  0  0
  9 10  1  0  0  0
  9 27  2  0  0  0
 10 11  2  0  0  0
 10 15  1  0  0  0
 11 12  1  0  0  0
 11 94  1  0  0  0
 12 13  2  0  0  0
 12 95  1  0  0  0
 13 14  1  0  0  0
 13 31  1  0  0  0
 14 15  2  0  0  0
 14 96  1  0  0  0
 15 97  1  0  0  0
 16 17  2  0  0  0
 16 21  1  0  0  0
 16 31  1  0  0  0
 17 18  1  0  0  0
 17 98  1  0  0  0
 18 19  2  0  0  0
 18 99  1  0  0  0
 19 20  1  0  0  0
 19 24  1  0  0  0
 20 21  2  0  0  0
 20100  1  0  0  0
 21 23  1  0  0  0
 22 28  1  0  0  0
 22 32  2  0  0  0
 26 27  1  0  0  0
 28101  1  0  0  0
 28102  1  0  0  0
 29103  1  0  0  0
 29104  1  0  0  0
 33 34  1  0  0  0
 33 66  1  0  0  0
 33 70  2  0  0  0
 34 36  1  0  0  0
 34 59  1  0  0  0
 34105  1  0  0  0
 35 44  2  0  0  0
 35 45  1  0  0  0
 35 68  1  0  0  0
 36 56  1  0  0  0
 36106  1  0  0  0
 37 39  1  0  0  0
 37 47  1  0  0  0
 37 66  1  0  0  0
 37107  1  0  0  0
 38 43  2  0  0  0
 38 46  1  0  0  0
 38 47  1  0  0  0
 39 64  1  0  0  0
 39 67  2  0  0  0
 40 52  1  0  0  0
 40 53  2  0  0  0
 40 58  1  0  0  0
 41108  1  0  0  0
 41109  1  0  0  0
 41110  1  0  0  0
 41 48  1  0  0  0
 42 43  1  0  0  0
 42 66  1  0  0  0
 42111  1  0  0  0
 42112  1  0  0  0
 43 44  1  0  0  0
 44113  1  0  0  0
 45 46  2  0  0  0
 45114  1  0  0  0
 46115  1  0  0  0
 47116  1  0  0  0
 47117  1  0  0  0
 48 56  1  0  0  0
 48 65  1  0  0  0
 48118  1  0  0  0
 49 50  1  0  0  0
 49 53  1  0  0  0
 49 64  1  0  0  0
 49119  1  0  0  0
 50 51  1  0  0  0
 50120  1  0  0  0
 50121  1  0  0  0
 51 52  1  0  0  0
 51122  1  0  0  0
 51123  1  0  0  0
 52124  1  0  0  0
 52125  1  0  0  0
 53 54  1  0  0  0
 54 55  2  0  0  0
 54126  1  0  0  0
 55 57  1  0  0  0
 55127  1  0  0  0
 56 69  2  0  0  0
 57 58  2  0  0  0
 57128  1  0  0  0
 58129  1  0  0  0
 59 60  1  0  0  0
 59 61  1  0  0  0
 59 62  1  0  0  0
 60130  1  0  0  0
 60131  1  0  0  0
 60132  1  0  0  0
 61133  1  0  0  0
 61134  1  0  0  0
 61135  1  0  0  0
 62136  1  0  0  0
 62137  1  0  0  0
 62138  1  0  0  0
 63 65  1  0  0  0
 63139  1  0  0  0
 63140  1  0  0  0
 63141  1  0  0  0
 64142  1  0  0  0
 65143  1  0  0  0
 68 78  1  0  0  0
 71 76  1  0  0  0
 71 79  1  0  0  0
 71 80  2  0  0  0
 72 79  2  0  0  0
 72 81  1  0  0  0
 72 82  1  0  0  0
 73 80  1  0  0  0
 73 81  2  0  0  0
 73 83  1  0  0  0
 74144  1  0  0  0
 74145  1  0  0  0
 74146  1  0  0  0
 74 77  1  0  0  0
 75147  1  0  0  0
 75148  1  0  0  0
 75149  1  0  0  0
 75 78  1  0  0  0
 76 84  1  0  0  0
 76150  1  0  0  0
 76151  1  0  0  0
 77 78  1  0  0  0
 77 83  1  0  0  0
 77152  1  0  0  0
 78153  1  0  0  0
 82154  1  0  0  0
 82155  1  0  0  0
 83156  1  0  0  0
 84157  1  0  0  0
M  ISO  4   1 100  68 101  78 101  84 100
M  END
> <chiral flag>
0

> <version>
0

> <s_m_source_file>
/data/baiqing/PycharmProjects/Reinvent-master-3.2/result/LINK_invent/BTK/process_docking_weight1_custom_product_contain_oxygen_bond_distance_aromatic_linkinvent_7_9_3/rearranged_h_0193.sdf

> <i_m_source_file_index>
32

> <r_mmod_Potential_Energy-OPLS-2005>
-878.186706542969

> <r_mmod_Stretch_Energy-OPLS-2005>
147.032699584961

> <r_mmod_Bend_Energy-OPLS-2005>
216.585556030273

> <r_mmod_Torsional_Energy-OPLS-2005>
251.294662475586

> <r_mmod_Improper_Torsional_Energy-OPLS-2005>
10.2673997879028

> <r_mmod_Van_der_Waal_Energy-OPLS-2005>
145.081481933594

> <r_mmod_Electrostatic_Energy-OPLS-2005>
-1512.85266113281

> <r_mmod_Solvation_Energy-OPLS-2005>
-238.52165222168

> <b_mmod_Minimization_Converged-OPLS-2005>
0

> <r_mmod_RMS_Derivative-OPLS-2005>
8.27642154693604

$$$$
32
                    3D
 Structure written by MMmdl.
166174  0  0  1  0            999 V2000
  -30.6940  -14.4719   20.5571 C   0  0  0  0  0  0
  -30.4303  -12.3067   19.4170 C   0  0  0  0  0  0
  -29.4945  -12.4887   18.2042 C   0  0  0  0  0  0
  -28.0188  -12.3366   18.6230 C   0  0  0  0  0  0
  -27.6628  -13.1845   19.8732 C   0  0  2  0  0  0
  -28.7066  -12.9824   20.9950 C   0  0  0  0  0  0
  -25.2603  -13.8102   20.5648 C   0  0  0  0  0  0
  -24.1836  -13.0411   20.9169 C   0  0  0  0  0  0
  -24.6376  -11.6876   20.8754 C   0  0  0  0  0  0
  -23.9038  -10.4275   21.0430 C   0  0  0  0  0  0
  -24.3611   -9.4184   21.9199 C   0  0  0  0  0  0
  -23.6285   -8.2219   22.0762 C   0  0  0  0  0  0
  -22.4264   -8.0276   21.3549 C   0  0  0  0  0  0
  -21.9890   -9.0247   20.4657 C   0  0  0  0  0  0
  -22.7216  -10.2122   20.3071 C   0  0  0  0  0  0
  -21.6836   -6.0737   22.5281 C   0  0  0  0  0  0
  -21.4009   -6.5638   23.8214 C   0  0  0  0  0  0
  -21.3647   -5.6790   24.9172 C   0  0  0  0  0  0
  -21.6040   -4.3053   24.7221 C   0  0  0  0  0  0
  -21.8822   -3.8142   23.4344 C   0  0  0  0  0  0
  -21.9183   -4.6962   22.3402 C   0  0  0  0  0  0
  -22.7871  -13.5239   21.1825 C   0  0  0  0  0  0
  -22.1662   -4.2146   21.0981 F   0  0  0  0  0  0
  -21.5618   -3.4544   25.7739 F   0  0  0  0  0  0
  -30.0362  -13.2892   20.4384 N   0  0  0  0  0  0
  -26.3017  -12.9236   20.3347 N   0  0  0  0  0  0
  -25.9292  -11.6412   20.5781 N   0  0  0  0  0  0
  -22.0487  -12.8260   22.0396 N   0  0  0  0  0  0
  -25.4312  -15.1824   20.4068 N   0  0  0  0  0  0
  -31.8330  -14.6548   20.1179 O   0  0  0  0  0  0
  -21.6629   -6.8878   21.4244 O   0  0  0  0  0  0
  -22.3576  -14.5546   20.6666 O   0  0  0  0  0  0
  -24.6151  -31.8693   23.2111 C   0  0  0  0  0  0
  -25.9042  -32.4831   23.8399 C   0  0  1  0  0  0
  -27.2313  -27.4377   20.0762 C   0  0  0  0  0  0
  -25.5899  -33.8630   24.2335 N   0  0  0  0  0  0
  -23.4012  -30.4959   21.5507 C   0  0  2  0  0  0
  -24.8427  -28.9655   20.1119 C   0  0  0  0  0  0
  -22.7405  -29.4672   22.4968 C   0  0  0  0  0  0
  -18.0274  -28.1373   22.8484 C   0  0  0  0  0  0
  -24.1488  -36.7325   23.2635 C   0  0  0  0  0  0
  -25.9318  -30.8329   21.3654 C   0  0  0  0  0  0
  -26.0030  -29.4688   20.7102 C   0  0  0  0  0  0
  -27.1929  -28.7076   20.6984 C   0  0  0  0  0  0
  -26.0424  -26.9464   19.4813 C   0  0  0  0  0  0
  -24.8561  -27.7015   19.5018 C   0  0  0  0  0  0
  -23.6072  -29.8336   20.1628 C   0  0  0  0  0  0
  -25.4098  -36.3119   24.0345 C   0  0  1  0  0  0
  -20.5865  -28.3666   23.1310 C   0  0  2  0  0  0
  -20.6769  -26.9395   22.5428 C   0  0  0  0  0  0
  -19.5764  -26.6379   21.5203 C   0  0  0  0  0  0
  -18.1931  -26.7924   22.1597 C   0  0  0  0  0  0
  -19.1523  -28.8829   23.2905 C   0  0  0  0  0  0
  -18.9456  -30.1421   23.8941 C   0  0  0  0  0  0
  -17.6460  -30.6576   24.0562 C   0  0  0  0  0  0
  -25.9028  -34.9485   23.5136 C   0  0  0  0  0  0
  -16.5349  -29.9082   23.6317 C   0  0  0  0  0  0
  -16.7263  -28.6494   23.0348 C   0  0  0  0  0  0
  -26.4467  -31.6620   25.0735 C   0  0  0  0  0  0
  -25.3744  -31.3775   26.1510 C   0  0  0  0  0  0
  -27.0266  -30.3047   24.6130 C   0  0  0  0  0  0
  -27.6080  -32.4325   25.7453 C   0  0  0  0  0  0
  -27.5591  -37.1796   24.8444 C   0  0  0  0  0  0
  -21.4133  -29.3035   22.3707 N   0  0  0  0  0  0
  -26.4282  -37.3808   23.9420 N   0  0  0  0  0  0
  -24.6675  -31.0801   22.1000 N   0  0  0  0  0  0
  -23.4179  -28.8211   23.3007 O   0  0  0  0  0  0
  -28.4226  -26.7378   20.1163 O   0  0  0  0  0  0
  -26.5588  -34.8933   22.4696 O   0  0  0  0  0  0
  -23.5347  -32.1446   23.7507 O   0  0  0  0  0  0
  -28.0492  -20.8412   22.1380 C   0  0  0  0  0  0
  -28.1412  -19.5158   22.4536 C   0  0  0  0  0  0
  -29.3094  -21.1318   21.5401 C   0  0  0  0  0  0
  -28.9504  -23.4808   20.7496 C   0  0  0  0  0  0
  -29.7123  -17.6707   16.9903 C   0  0  0  0  0  0
  -27.9995  -17.3295   19.5706 C   0  0  0  0  0  0
  -29.6237  -24.6031   19.9364 C   0  0  0  0  0  0
  -30.1281  -16.9118   18.2579 C   0  0  0  0  0  0
  -29.9178  -17.7065   22.1747 C   0  0  0  0  0  0
  -28.6495  -25.6034   19.2671 C   0  0  0  0  0  0
  -29.5299  -17.4980   19.5577 C   0  0  2  0  0  0
  -30.2212  -16.9397   20.8425 C   0  0  2  0  0  0
  -30.1281  -20.0838   21.5386 N   0  0  0  0  0  0
  -29.3850  -19.0674   22.0516 N   0  0  0  0  0  0
  -29.6936  -22.3762   20.9719 N   0  0  0  0  0  0
  -29.9423  -15.4958   20.9994 N   0  0  0  0  0  0
  -27.7961  -23.6302   21.1588 O   0  0  0  0  0  0
  -31.4696  -12.4211   19.1032 H   0  0  0  0  0  0
  -30.3509  -11.2953   19.8183 H   0  0  0  0  0  0
  -29.7401  -11.7595   17.4305 H   0  0  0  0  0  0
  -29.6528  -13.4715   17.7563 H   0  0  0  0  0  0
  -27.8409  -11.2799   18.8290 H   0  0  0  0  0  0
  -27.3651  -12.5968   17.7900 H   0  0  0  0  0  0
  -27.7059  -14.2221   19.5587 H   0  0  0  0  0  0
  -28.6904  -11.9495   21.3441 H   0  0  0  0  0  0
  -28.4657  -13.5898   21.8698 H   0  0  0  0  0  0
  -25.2765   -9.5641   22.4764 H   0  0  0  0  0  0
  -23.9982   -7.4602   22.7472 H   0  0  0  0  0  0
  -21.0807   -8.8771   19.8981 H   0  0  0  0  0  0
  -22.3680  -10.9675   19.6181 H   0  0  0  0  0  0
  -21.2019   -7.6154   23.9718 H   0  0  0  0  0  0
  -21.1463   -6.0526   25.9072 H   0  0  0  0  0  0
  -22.0618   -2.7608   23.2852 H   0  0  0  0  0  0
  -22.4081  -11.9919   22.4805 H   0  0  0  0  0  0
  -21.1124  -13.1347   22.2601 H   0  0  0  0  0  0
  -24.6620  -15.8362   20.5040 H   0  0  0  0  0  0
  -26.2772  -15.6216   20.0710 H   0  0  0  0  0  0
  -26.7108  -32.5537   23.1157 H   0  0  0  0  0  0
  -25.0043  -33.9787   25.0478 H   0  0  0  0  0  0
  -22.6909  -31.3140   21.4151 H   0  0  0  0  0  0
  -23.3752  -35.9657   23.3280 H   0  0  0  0  0  0
  -24.3598  -36.8955   22.2055 H   0  0  0  0  0  0
  -23.7238  -37.6522   23.6665 H   0  0  0  0  0  0
  -26.0485  -31.5987   20.5970 H   0  0  0  0  0  0
  -26.8197  -30.8823   21.9842 H   0  0  0  0  0  0
  -28.0882  -29.0932   21.1659 H   0  0  0  0  0  0
  -25.9767  -25.9820   19.0052 H   0  0  0  0  0  0
  -23.9589  -27.3033   19.0465 H   0  0  0  0  0  0
  -23.7183  -30.6117   19.4066 H   0  0  0  0  0  0
  -22.7305  -29.2568   19.8631 H   0  0  0  0  0  0
  -25.1267  -36.1984   25.0839 H   0  0  0  0  0  0
  -20.9959  -28.3244   24.1428 H   0  0  0  0  0  0
  -20.5628  -26.2276   23.3617 H   0  0  0  0  0  0
  -21.6658  -26.7416   22.1265 H   0  0  0  0  0  0
  -19.6930  -25.6293   21.1222 H   0  0  0  0  0  0
  -19.6717  -27.3194   20.6740 H   0  0  0  0  0  0
  -17.4212  -26.6677   21.3984 H   0  0  0  0  0  0
  -18.0313  -26.0051   22.8975 H   0  0  0  0  0  0
  -19.7930  -30.7209   24.2366 H   0  0  0  0  0  0
  -17.5018  -31.6265   24.5145 H   0  0  0  0  0  0
  -15.5355  -30.2999   23.7626 H   0  0  0  0  0  0
  -15.8657  -28.0812   22.7069 H   0  0  0  0  0  0
  -24.5899  -30.7119   25.7892 H   0  0  0  0  0  0
  -24.8960  -32.2957   26.4935 H   0  0  0  0  0  0
  -25.8107  -30.8981   27.0283 H   0  0  0  0  0  0
  -26.2793  -29.6812   24.1209 H   0  0  0  0  0  0
  -27.4036  -29.7293   25.4593 H   0  0  0  0  0  0
  -27.8643  -30.4350   23.9275 H   0  0  0  0  0  0
  -27.2744  -33.3627   26.2069 H   0  0  0  0  0  0
  -28.3847  -32.6875   25.0231 H   0  0  0  0  0  0
  -28.0796  -31.8426   26.5323 H   0  0  0  0  0  0
  -28.2600  -38.0101   24.7517 H   0  0  0  0  0  0
  -28.1093  -36.2642   24.6212 H   0  0  0  0  0  0
  -27.2331  -37.1387   25.8851 H   0  0  0  0  0  0
  -20.9280  -29.8767   21.6946 H   0  0  0  0  0  0
  -26.0172  -38.2882   24.1452 H   0  0  0  0  0  0
  -27.1969  -21.4855   22.2995 H   0  0  0  0  0  0
  -27.4199  -18.8555   22.9143 H   0  0  0  0  0  0
  -30.1760  -17.2278   16.1079 H   0  0  0  0  0  0
  -30.0194  -18.7168   17.0368 H   0  0  0  0  0  0
  -28.6343  -17.6415   16.8372 H   0  0  0  0  0  0
  -27.5306  -18.0190   18.8704 H   0  0  0  0  0  0
  -27.5629  -17.5206   20.5499 H   0  0  0  0  0  0
  -27.7138  -16.3287   19.2674 H   0  0  0  0  0  0
  -30.2081  -24.1260   19.1491 H   0  0  0  0  0  0
  -30.3372  -25.1328   20.5667 H   0  0  0  0  0  0
  -31.2167  -16.9268   18.3198 H   0  0  0  0  0  0
  -29.8459  -15.8648   18.1509 H   0  0  0  0  0  0
  -30.8174  -17.7535   22.7902 H   0  0  0  0  0  0
  -29.1984  -17.1411   22.7683 H   0  0  0  0  0  0
  -27.7600  -25.0593   18.9620 H   0  0  0  0  0  0
  -29.0939  -25.9762   18.3436 H   0  0  0  0  0  0
  -29.7387  -18.5647   19.5104 H   0  0  0  0  0  0
  -31.2951  -17.0683   20.6889 H   0  0  0  0  0  0
  -30.6382  -22.4095   20.6179 H   0  0  0  0  0  0
  -29.0212  -15.2468   21.3253 H   0  0  0  0  0  0
  1 25  1  0  0  0
  1 30  2  0  0  0
  1 86  1  0  0  0
  2  3  1  0  0  0
  2 25  1  0  0  0
  2 88  1  0  0  0
  2 89  1  0  0  0
  3  4  1  0  0  0
  3 90  1  0  0  0
  3 91  1  0  0  0
  4  5  1  0  0  0
  4 92  1  0  0  0
  4 93  1  0  0  0
  5  6  1  0  0  0
  5 26  1  0  0  0
  5 94  1  0  0  0
  6 25  1  0  0  0
  6 95  1  0  0  0
  6 96  1  0  0  0
  7  8  2  0  0  0
  7 26  1  0  0  0
  7 29  1  0  0  0
  8  9  1  0  0  0
  8 22  1  0  0  0
  9 10  1  0  0  0
  9 27  2  0  0  0
 10 11  2  0  0  0
 10 15  1  0  0  0
 11 12  1  0  0  0
 11 97  1  0  0  0
 12 13  2  0  0  0
 12 98  1  0  0  0
 13 14  1  0  0  0
 13 31  1  0  0  0
 14 15  2  0  0  0
 14 99  1  0  0  0
 15100  1  0  0  0
 16 17  2  0  0  0
 16 21  1  0  0  0
 16 31  1  0  0  0
 17 18  1  0  0  0
 17101  1  0  0  0
 18 19  2  0  0  0
 18102  1  0  0  0
 19 20  1  0  0  0
 19 24  1  0  0  0
 20 21  2  0  0  0
 20103  1  0  0  0
 21 23  1  0  0  0
 22 28  1  0  0  0
 22 32  2  0  0  0
 26 27  1  0  0  0
 28104  1  0  0  0
 28105  1  0  0  0
 29106  1  0  0  0
 29107  1  0  0  0
 33 34  1  0  0  0
 33 66  1  0  0  0
 33 70  2  0  0  0
 34 36  1  0  0  0
 34 59  1  0  0  0
 34108  1  0  0  0
 35 44  2  0  0  0
 35 45  1  0  0  0
 35 68  1  0  0  0
 36 56  1  0  0  0
 36109  1  0  0  0
 37 39  1  0  0  0
 37 47  1  0  0  0
 37 66  1  0  0  0
 37110  1  0  0  0
 38 43  2  0  0  0
 38 46  1  0  0  0
 38 47  1  0  0  0
 39 64  1  0  0  0
 39 67  2  0  0  0
 40 52  1  0  0  0
 40 53  2  0  0  0
 40 58  1  0  0  0
 41111  1  0  0  0
 41112  1  0  0  0
 41113  1  0  0  0
 41 48  1  0  0  0
 42 43  1  0  0  0
 42 66  1  0  0  0
 42114  1  0  0  0
 42115  1  0  0  0
 43 44  1  0  0  0
 44116  1  0  0  0
 45 46  2  0  0  0
 45117  1  0  0  0
 46118  1  0  0  0
 47119  1  0  0  0
 47120  1  0  0  0
 48 56  1  0  0  0
 48 65  1  0  0  0
 48121  1  0  0  0
 49 50  1  0  0  0
 49 53  1  0  0  0
 49 64  1  0  0  0
 49122  1  0  0  0
 50 51  1  0  0  0
 50123  1  0  0  0
 50124  1  0  0  0
 51 52  1  0  0  0
 51125  1  0  0  0
 51126  1  0  0  0
 52127  1  0  0  0
 52128  1  0  0  0
 53 54  1  0  0  0
 54 55  2  0  0  0
 54129  1  0  0  0
 55 57  1  0  0  0
 55130  1  0  0  0
 56 69  2  0  0  0
 57 58  2  0  0  0
 57131  1  0  0  0
 58132  1  0  0  0
 59 60  1  0  0  0
 59 61  1  0  0  0
 59 62  1  0  0  0
 60133  1  0  0  0
 60134  1  0  0  0
 60135  1  0  0  0
 61136  1  0  0  0
 61137  1  0  0  0
 61138  1  0  0  0
 62139  1  0  0  0
 62140  1  0  0  0
 62141  1  0  0  0
 63 65  1  0  0  0
 63142  1  0  0  0
 63143  1  0  0  0
 63144  1  0  0  0
 64145  1  0  0  0
 65146  1  0  0  0
 68 80  1  0  0  0
 71 72  2  0  0  0
 71 73  1  0  0  0
 71147  1  0  0  0
 72 84  1  0  0  0
 72148  1  0  0  0
 73 83  2  0  0  0
 73 85  1  0  0  0
 74 77  1  0  0  0
 74 85  1  0  0  0
 74 87  2  0  0  0
 75 78  1  0  0  0
 75149  1  0  0  0
 75150  1  0  0  0
 75151  1  0  0  0
 76152  1  0  0  0
 76153  1  0  0  0
 76154  1  0  0  0
 76 81  1  0  0  0
 77 80  1  0  0  0
 77155  1  0  0  0
 77156  1  0  0  0
 78 81  1  0  0  0
 78157  1  0  0  0
 78158  1  0  0  0
 79 84  1  0  0  0
 79159  1  0  0  0
 79160  1  0  0  0
 79 82  1  0  0  0
 80161  1  0  0  0
 80162  1  0  0  0
 81 82  1  0  0  0
 81163  1  0  0  0
 82 86  1  0  0  0
 82164  1  0  0  0
 83 84  1  0  0  0
 85165  1  0  0  0
 86166  1  0  0  0
M  ISO  4   1 100  68 101  80 101  86 100
M  END
> <chiral flag>
0

> <version>
0

> <s_m_source_file>
/data/baiqing/PycharmProjects/Reinvent-master-3.2/result/LINK_invent/BTK/process_docking_weight1_custom_product_contain_oxygen_bond_distance_aromatic_linkinvent_7_9_3/rearranged_h_0193.sdf

> <i_m_source_file_index>
33

> <r_mmod_Potential_Energy-OPLS-2005>
-151.140640258789

> <r_mmod_Stretch_Energy-OPLS-2005>
38.3286628723145

> <r_mmod_Bend_Energy-OPLS-2005>
119.696098327637

> <r_mmod_Torsional_Energy-OPLS-2005>
229.814331054688

> <r_mmod_Improper_Torsional_Energy-OPLS-2005>
5.05397033691406

> <r_mmod_Van_der_Waal_Energy-OPLS-2005>
132.376892089844

> <r_mmod_Electrostatic_Energy-OPLS-2005>
-453.897338867188

> <r_mmod_Solvation_Energy-OPLS-2005>
-236.856170654297

> <b_mmod_Minimization_Converged-OPLS-2005>
0

> <r_mmod_RMS_Derivative-OPLS-2005>
2.38190412521362

$$$$
33
                    3D
 Structure written by MMmdl.
158166  0  0  1  0            999 V2000
  -30.7064  -14.4882   20.6135 C   0  0  0  0  0  0
  -30.4239  -12.3354   19.4242 C   0  0  0  0  0  0
  -29.4968  -12.5253   18.2067 C   0  0  0  0  0  0
  -28.0179  -12.3724   18.6174 C   0  0  0  0  0  0
  -27.6598  -13.2141   19.8722 C   0  0  2  0  0  0
  -28.6980  -13.0033   20.9963 C   0  0  0  0  0  0
  -25.2562  -13.8176   20.5653 C   0  0  0  0  0  0
  -24.1820  -13.0447   20.9146 C   0  0  0  0  0  0
  -24.6399  -11.6928   20.8703 C   0  0  0  0  0  0
  -23.9077  -10.4301   21.0386 C   0  0  0  0  0  0
  -24.3631   -9.4222   21.9169 C   0  0  0  0  0  0
  -23.6310   -8.2257   22.0742 C   0  0  0  0  0  0
  -22.4287   -8.0291   21.3546 C   0  0  0  0  0  0
  -21.9921   -9.0267   20.4651 C   0  0  0  0  0  0
  -22.7246  -10.2143   20.3052 C   0  0  0  0  0  0
  -21.6861   -6.0748   22.5277 C   0  0  0  0  0  0
  -21.4020   -6.5637   23.8214 C   0  0  0  0  0  0
  -21.3656   -5.6782   24.9166 C   0  0  0  0  0  0
  -21.6041   -4.3049   24.7224 C   0  0  0  0  0  0
  -21.8812   -3.8146   23.4337 C   0  0  0  0  0  0
  -21.9190   -4.6974   22.3396 C   0  0  0  0  0  0
  -22.7831  -13.5242   21.1829 C   0  0  0  0  0  0
  -22.1654   -4.2158   21.0969 F   0  0  0  0  0  0
  -21.5646   -3.4535   25.7751 F   0  0  0  0  0  0
  -30.0273  -13.3190   20.4469 N   0  0  0  0  0  0
  -26.3011  -12.9367   20.3329 N   0  0  0  0  0  0
  -25.9325  -11.6523   20.5723 N   0  0  0  0  0  0
  -22.0484  -12.8239   22.0406 N   0  0  0  0  0  0
  -25.4303  -15.1894   20.4092 N   0  0  0  0  0  0
  -31.8110  -14.6899   20.1002 O   0  0  0  0  0  0
  -21.6646   -6.8888   21.4245 O   0  0  0  0  0  0
  -22.3507  -14.5540   20.6673 O   0  0  0  0  0  0
  -24.6176  -31.8658   23.2079 C   0  0  0  0  0  0
  -25.9066  -32.4807   23.8377 C   0  0  1  0  0  0
  -27.2319  -27.4030   20.0958 C   0  0  0  0  0  0
  -25.5902  -33.8606   24.2297 N   0  0  0  0  0  0
  -23.4058  -30.4912   21.5491 C   0  0  2  0  0  0
  -24.8518  -28.9509   20.1199 C   0  0  0  0  0  0
  -22.7419  -29.4666   22.4972 C   0  0  0  0  0  0
  -18.0273  -28.1383   22.8491 C   0  0  0  0  0  0
  -24.1488  -36.7305   23.2632 C   0  0  0  0  0  0
  -25.9399  -30.8221   21.3669 C   0  0  0  0  0  0
  -26.0159  -29.4546   20.7119 C   0  0  0  0  0  0
  -27.2104  -28.6904   20.6907 C   0  0  0  0  0  0
  -26.0447  -26.9243   19.4977 C   0  0  0  0  0  0
  -24.8617  -27.6863   19.5113 C   0  0  0  0  0  0
  -23.6167  -29.8226   20.1648 C   0  0  0  0  0  0
  -25.4105  -36.3095   24.0329 C   0  0  1  0  0  0
  -20.5869  -28.3678   23.1308 C   0  0  2  0  0  0
  -20.6766  -26.9411   22.5417 C   0  0  0  0  0  0
  -19.5745  -26.6392   21.5211 C   0  0  0  0  0  0
  -18.1921  -26.7926   22.1626 C   0  0  0  0  0  0
  -19.1527  -28.8844   23.2901 C   0  0  0  0  0  0
  -18.9449  -30.1448   23.8920 C   0  0  0  0  0  0
  -17.6456  -30.6593   24.0560 C   0  0  0  0  0  0
  -25.9038  -34.9466   23.5114 C   0  0  0  0  0  0
  -16.5345  -29.9096   23.6324 C   0  0  0  0  0  0
  -16.7264  -28.6506   23.0350 C   0  0  0  0  0  0
  -26.4474  -31.6598   25.0726 C   0  0  0  0  0  0
  -25.3713  -31.3752   26.1461 C   0  0  0  0  0  0
  -27.0284  -30.3015   24.6145 C   0  0  0  0  0  0
  -27.6057  -32.4308   25.7488 C   0  0  0  0  0  0
  -27.5583  -37.1796   24.8453 C   0  0  0  0  0  0
  -21.4138  -29.3047   22.3709 N   0  0  0  0  0  0
  -26.4284  -37.3785   23.9421 N   0  0  0  0  0  0
  -24.6726  -31.0745   22.0989 N   0  0  0  0  0  0
  -23.4175  -28.8194   23.3010 O   0  0  0  0  0  0
  -28.4011  -26.6568   20.0784 O   0  0  0  0  0  0
  -26.5601  -34.8932   22.4677 O   0  0  0  0  0  0
  -23.5363  -32.1414   23.7465 O   0  0  0  0  0  0
  -29.9138  -18.3195   19.7833 C   0  0  0  0  0  0
  -29.5829  -19.6454   19.4042 C   0  0  0  0  0  0
  -30.1372  -18.0717   21.1654 C   0  0  0  0  0  0
  -29.5035  -20.6490   20.4024 C   0  0  0  0  0  0
  -31.4308  -22.8969   20.8927 C   0  0  0  0  0  0
  -30.6797  -16.7410   21.7429 C   0  0  0  0  0  0
  -29.6773  -24.5239   20.0808 C   0  0  0  0  0  0
  -28.3013  -25.2205   20.2635 C   0  0  0  0  0  0
  -29.9069  -23.1234   20.7553 C   0  0  1  0  0  0
  -29.9926  -19.0754   22.0772 N   0  0  0  0  0  0
  -29.6784  -20.3314   21.7126 N   0  0  0  0  0  0
  -30.0556  -17.3354   18.7936 N   0  0  0  0  0  0
  -29.2781  -21.9995   20.0356 N   0  0  0  0  0  0
  -30.0810  -15.4541   21.3169 N   0  0  0  0  0  0
  -29.3960  -19.9575   18.0951 F   0  0  0  0  0  0
  -31.4673  -12.4410   19.1234 H   0  0  0  0  0  0
  -30.3349  -11.3252   19.8248 H   0  0  0  0  0  0
  -29.7475  -11.8102   17.4215 H   0  0  0  0  0  0
  -29.6553  -13.5154   17.7748 H   0  0  0  0  0  0
  -27.8319  -11.3153   18.8144 H   0  0  0  0  0  0
  -27.3687  -12.6468   17.7853 H   0  0  0  0  0  0
  -27.7037  -14.2608   19.5688 H   0  0  0  0  0  0
  -28.6823  -11.9678   21.3437 H   0  0  0  0  0  0
  -28.4472  -13.6078   21.8676 H   0  0  0  0  0  0
  -25.2787   -9.5708   22.4730 H   0  0  0  0  0  0
  -24.0030   -7.4644   22.7452 H   0  0  0  0  0  0
  -21.0855   -8.8794   19.8958 H   0  0  0  0  0  0
  -22.3711  -10.9682   19.6158 H   0  0  0  0  0  0
  -21.2015   -7.6153   23.9713 H   0  0  0  0  0  0
  -21.1483   -6.0518   25.9063 H   0  0  0  0  0  0
  -22.0599   -2.7621   23.2827 H   0  0  0  0  0  0
  -22.4115  -11.9922   22.4820 H   0  0  0  0  0  0
  -21.1102  -13.1259   22.2609 H   0  0  0  0  0  0
  -24.6708  -15.8512   20.5222 H   0  0  0  0  0  0
  -26.2936  -15.6266   20.1094 H   0  0  0  0  0  0
  -26.7138  -32.5501   23.1140 H   0  0  0  0  0  0
  -25.0039  -33.9759   25.0431 H   0  0  0  0  0  0
  -22.6961  -31.3089   21.4076 H   0  0  0  0  0  0
  -23.3755  -35.9629   23.3275 H   0  0  0  0  0  0
  -24.3586  -36.8943   22.2050 H   0  0  0  0  0  0
  -23.7240  -37.6504   23.6661 H   0  0  0  0  0  0
  -26.0601  -31.5898   20.6013 H   0  0  0  0  0  0
  -26.8247  -30.8710   21.9892 H   0  0  0  0  0  0
  -28.1123  -29.0798   21.1424 H   0  0  0  0  0  0
  -26.0108  -25.9712   18.9938 H   0  0  0  0  0  0
  -23.9670  -27.2932   19.0494 H   0  0  0  0  0  0
  -23.7313  -30.5960   19.4047 H   0  0  0  0  0  0
  -22.7397  -29.2449   19.8666 H   0  0  0  0  0  0
  -25.1285  -36.1941   25.0817 H   0  0  0  0  0  0
  -20.9969  -28.3252   24.1427 H   0  0  0  0  0  0
  -20.5678  -26.2278   23.3602 H   0  0  0  0  0  0
  -21.6637  -26.7454   22.1205 H   0  0  0  0  0  0
  -19.6906  -25.6304   21.1238 H   0  0  0  0  0  0
  -19.6689  -27.3205   20.6738 H   0  0  0  0  0  0
  -17.4190  -26.6674   21.4030 H   0  0  0  0  0  0
  -18.0330  -26.0067   22.9027 H   0  0  0  0  0  0
  -19.7931  -30.7250   24.2311 H   0  0  0  0  0  0
  -17.5016  -31.6280   24.5153 H   0  0  0  0  0  0
  -15.5350  -30.3009   23.7639 H   0  0  0  0  0  0
  -15.8658  -28.0835   22.7065 H   0  0  0  0  0  0
  -24.5877  -30.7106   25.7805 H   0  0  0  0  0  0
  -24.8913  -32.2929   26.4875 H   0  0  0  0  0  0
  -25.8035  -30.8941   27.0242 H   0  0  0  0  0  0
  -26.2837  -29.6806   24.1146 H   0  0  0  0  0  0
  -27.3952  -29.7243   25.4647 H   0  0  0  0  0  0
  -27.8734  -30.4297   23.9372 H   0  0  0  0  0  0
  -27.2687  -33.3606   26.2089 H   0  0  0  0  0  0
  -28.3863  -32.6861   25.0307 H   0  0  0  0  0  0
  -28.0725  -31.8400   26.5382 H   0  0  0  0  0  0
  -28.2580  -38.0115   24.7535 H   0  0  0  0  0  0
  -28.1097  -36.2650   24.6218 H   0  0  0  0  0  0
  -27.2306  -37.1390   25.8856 H   0  0  0  0  0  0
  -20.9290  -29.8764   21.6932 H   0  0  0  0  0  0
  -26.0164  -38.2853   24.1448 H   0  0  0  0  0  0
  -31.9166  -23.7455   21.3753 H   0  0  0  0  0  0
  -31.9057  -22.7589   19.9213 H   0  0  0  0  0  0
  -31.6702  -22.0265   21.5031 H   0  0  0  0  0  0
  -30.5756  -16.7779   22.8283 H   0  0  0  0  0  0
  -31.7567  -16.7383   21.5659 H   0  0  0  0  0  0
  -30.4077  -25.2141   20.5044 H   0  0  0  0  0  0
  -29.9257  -24.4781   19.0193 H   0  0  0  0  0  0
  -27.9214  -25.0318   21.2682 H   0  0  0  0  0  0
  -27.6066  -24.7508   19.5691 H   0  0  0  0  0  0
  -29.4803  -23.1593   21.7594 H   0  0  0  0  0  0
  -30.0680  -17.6789   17.8399 H   0  0  0  0  0  0
  -30.7576  -16.6219   18.9602 H   0  0  0  0  0  0
  -29.1787  -22.1078   19.0317 H   0  0  0  0  0  0
  -29.1582  -15.2456   21.6637 H   0  0  0  0  0  0
  1 25  1  0  0  0
  1 30  2  0  0  0
  1 84  1  0  0  0
  2  3  1  0  0  0
  2 25  1  0  0  0
  2 86  1  0  0  0
  2 87  1  0  0  0
  3  4  1  0  0  0
  3 88  1  0  0  0
  3 89  1  0  0  0
  4  5  1  0  0  0
  4 90  1  0  0  0
  4 91  1  0  0  0
  5  6  1  0  0  0
  5 26  1  0  0  0
  5 92  1  0  0  0
  6 25  1  0  0  0
  6 93  1  0  0  0
  6 94  1  0  0  0
  7  8  2  0  0  0
  7 26  1  0  0  0
  7 29  1  0  0  0
  8  9  1  0  0  0
  8 22  1  0  0  0
  9 10  1  0  0  0
  9 27  2  0  0  0
 10 11  2  0  0  0
 10 15  1  0  0  0
 11 12  1  0  0  0
 11 95  1  0  0  0
 12 13  2  0  0  0
 12 96  1  0  0  0
 13 14  1  0  0  0
 13 31  1  0  0  0
 14 15  2  0  0  0
 14 97  1  0  0  0
 15 98  1  0  0  0
 16 17  2  0  0  0
 16 21  1  0  0  0
 16 31  1  0  0  0
 17 18  1  0  0  0
 17 99  1  0  0  0
 18 19  2  0  0  0
 18100  1  0  0  0
 19 20  1  0  0  0
 19 24  1  0  0  0
 20 21  2  0  0  0
 20101  1  0  0  0
 21 23  1  0  0  0
 22 28  1  0  0  0
 22 32  2  0  0  0
 26 27  1  0  0  0
 28102  1  0  0  0
 28103  1  0  0  0
 29104  1  0  0  0
 29105  1  0  0  0
 33 34  1  0  0  0
 33 66  1  0  0  0
 33 70  2  0  0  0
 34 36  1  0  0  0
 34 59  1  0  0  0
 34106  1  0  0  0
 35 44  2  0  0  0
 35 45  1  0  0  0
 35 68  1  0  0  0
 36 56  1  0  0  0
 36107  1  0  0  0
 37 39  1  0  0  0
 37 47  1  0  0  0
 37 66  1  0  0  0
 37108  1  0  0  0
 38 43  2  0  0  0
 38 46  1  0  0  0
 38 47  1  0  0  0
 39 64  1  0  0  0
 39 67  2  0  0  0
 40 52  1  0  0  0
 40 53  2  0  0  0
 40 58  1  0  0  0
 41109  1  0  0  0
 41110  1  0  0  0
 41111  1  0  0  0
 41 48  1  0  0  0
 42 43  1  0  0  0
 42 66  1  0  0  0
 42112  1  0  0  0
 42113  1  0  0  0
 43 44  1  0  0  0
 44114  1  0  0  0
 45 46  2  0  0  0
 45115  1  0  0  0
 46116  1  0  0  0
 47117  1  0  0  0
 47118  1  0  0  0
 48 56  1  0  0  0
 48 65  1  0  0  0
 48119  1  0  0  0
 49 50  1  0  0  0
 49 53  1  0  0  0
 49 64  1  0  0  0
 49120  1  0  0  0
 50 51  1  0  0  0
 50121  1  0  0  0
 50122  1  0  0  0
 51 52  1  0  0  0
 51123  1  0  0  0
 51124  1  0  0  0
 52125  1  0  0  0
 52126  1  0  0  0
 53 54  1  0  0  0
 54 55  2  0  0  0
 54127  1  0  0  0
 55 57  1  0  0  0
 55128  1  0  0  0
 56 69  2  0  0  0
 57 58  2  0  0  0
 57129  1  0  0  0
 58130  1  0  0  0
 59 60  1  0  0  0
 59 61  1  0  0  0
 59 62  1  0  0  0
 60131  1  0  0  0
 60132  1  0  0  0
 60133  1  0  0  0
 61134  1  0  0  0
 61135  1  0  0  0
 61136  1  0  0  0
 62137  1  0  0  0
 62138  1  0  0  0
 62139  1  0  0  0
 63 65  1  0  0  0
 63140  1  0  0  0
 63141  1  0  0  0
 63142  1  0  0  0
 64143  1  0  0  0
 65144  1  0  0  0
 68 78  1  0  0  0
 71 72  2  0  0  0
 71 73  1  0  0  0
 71 82  1  0  0  0
 72 74  1  0  0  0
 72 85  1  0  0  0
 73 76  1  0  0  0
 73 80  2  0  0  0
 74 81  2  0  0  0
 74 83  1  0  0  0
 75145  1  0  0  0
 75146  1  0  0  0
 75147  1  0  0  0
 75 79  1  0  0  0
 76 84  1  0  0  0
 76148  1  0  0  0
 76149  1  0  0  0
 77 78  1  0  0  0
 77 79  1  0  0  0
 77150  1  0  0  0
 77151  1  0  0  0
 78152  1  0  0  0
 78153  1  0  0  0
 79 83  1  0  0  0
 79154  1  0  0  0
 80 81  1  0  0  0
 82155  1  0  0  0
 82156  1  0  0  0
 83157  1  0  0  0
 84158  1  0  0  0
M  ISO  4   1 100  68 101  78 101  84 100
M  END
> <chiral flag>
0

> <version>
0

> <s_m_source_file>
/data/baiqing/PycharmProjects/Reinvent-master-3.2/result/LINK_invent/BTK/process_docking_weight1_custom_product_contain_oxygen_bond_distance_aromatic_linkinvent_7_9_3/rearranged_h_0193.sdf

> <i_m_source_file_index>
34

> <r_mmod_Potential_Energy-OPLS-2005>
51.9960098266602

> <r_mmod_Stretch_Energy-OPLS-2005>
48.887996673584

> <r_mmod_Bend_Energy-OPLS-2005>
122.772727966309

> <r_mmod_Torsional_Energy-OPLS-2005>
209.909698486328

> <r_mmod_Improper_Torsional_Energy-OPLS-2005>
9.4607515335083

> <r_mmod_Van_der_Waal_Energy-OPLS-2005>
156.754943847656

> <r_mmod_Electrostatic_Energy-OPLS-2005>
-288.361572265625

> <r_mmod_Solvation_Energy-OPLS-2005>
-222.343902587891

> <b_mmod_Minimization_Converged-OPLS-2005>
0

> <r_mmod_RMS_Derivative-OPLS-2005>
2.58967566490173

$$$$
34
                    3D
 Structure written by MMmdl.
157165  0  0  1  0            999 V2000
  -30.6900  -14.4030   20.6058 C   0  0  0  0  0  0
  -30.4245  -12.2780   19.3936 C   0  0  0  0  0  0
  -29.4851  -12.5060   18.1913 C   0  0  0  0  0  0
  -28.0074  -12.3684   18.6107 C   0  0  0  0  0  0
  -27.6658  -13.1835   19.8876 C   0  0  2  0  0  0
  -28.7059  -12.9058   20.9924 C   0  0  0  0  0  0
  -25.2632  -13.8129   20.5632 C   0  0  0  0  0  0
  -24.1853  -13.0445   20.9165 C   0  0  0  0  0  0
  -24.6356  -11.6899   20.8713 C   0  0  0  0  0  0
  -23.9018  -10.4297   21.0374 C   0  0  0  0  0  0
  -24.3594   -9.4220   21.9147 C   0  0  0  0  0  0
  -23.6287   -8.2248   22.0725 C   0  0  0  0  0  0
  -22.4270   -8.0283   21.3517 C   0  0  0  0  0  0
  -21.9880   -9.0254   20.4643 C   0  0  0  0  0  0
  -22.7196  -10.2130   20.3045 C   0  0  0  0  0  0
  -21.6849   -6.0767   22.5290 C   0  0  0  0  0  0
  -21.4010   -6.5657   23.8222 C   0  0  0  0  0  0
  -21.3643   -5.6788   24.9174 C   0  0  0  0  0  0
  -21.6043   -4.3061   24.7203 C   0  0  0  0  0  0
  -21.8804   -3.8163   23.4323 C   0  0  0  0  0  0
  -21.9192   -4.6994   22.3394 C   0  0  0  0  0  0
  -22.7887  -13.5290   21.1822 C   0  0  0  0  0  0
  -22.1658   -4.2187   21.0973 F   0  0  0  0  0  0
  -21.5626   -3.4541   25.7709 F   0  0  0  0  0  0
  -30.0364  -13.2257   20.4437 N   0  0  0  0  0  0
  -26.3041  -12.9232   20.3411 N   0  0  0  0  0  0
  -25.9273  -11.6423   20.5771 N   0  0  0  0  0  0
  -22.0504  -12.8281   22.0375 N   0  0  0  0  0  0
  -25.4366  -15.1841   20.3920 N   0  0  0  0  0  0
  -31.8060  -14.6347   20.1288 O   0  0  0  0  0  0
  -21.6627   -6.8892   21.4238 O   0  0  0  0  0  0
  -22.3602  -14.5612   20.6680 O   0  0  0  0  0  0
  -24.6095  -31.8711   23.2127 C   0  0  0  0  0  0
  -25.9008  -32.4841   23.8402 C   0  0  1  0  0  0
  -27.2389  -27.4766   20.0844 C   0  0  0  0  0  0
  -25.5893  -33.8641   24.2334 N   0  0  0  0  0  0
  -23.3964  -30.4920   21.5549 C   0  0  2  0  0  0
  -24.8446  -28.9573   20.1254 C   0  0  0  0  0  0
  -22.7391  -29.4645   22.5022 C   0  0  0  0  0  0
  -18.0280  -28.1336   22.8489 C   0  0  0  0  0  0
  -24.1490  -36.7325   23.2632 C   0  0  0  0  0  0
  -25.9199  -30.8471   21.3615 C   0  0  0  0  0  0
  -26.0010  -29.4797   20.7185 C   0  0  0  0  0  0
  -27.2045  -28.7433   20.7020 C   0  0  0  0  0  0
  -26.0728  -26.9543   19.4935 C   0  0  0  0  0  0
  -24.8709  -27.6879   19.5191 C   0  0  0  0  0  0
  -23.6036  -29.8213   20.1704 C   0  0  0  0  0  0
  -25.4112  -36.3122   24.0324 C   0  0  1  0  0  0
  -20.5865  -28.3600   23.1342 C   0  0  2  0  0  0
  -20.6765  -26.9341   22.5436 C   0  0  0  0  0  0
  -19.5761  -26.6354   21.5204 C   0  0  0  0  0  0
  -18.1928  -26.7885   22.1613 C   0  0  0  0  0  0
  -19.1539  -28.8784   23.2914 C   0  0  0  0  0  0
  -18.9488  -30.1389   23.8924 C   0  0  0  0  0  0
  -17.6502  -30.6563   24.0563 C   0  0  0  0  0  0
  -25.9033  -34.9489   23.5133 C   0  0  0  0  0  0
  -16.5386  -29.9062   23.6337 C   0  0  0  0  0  0
  -16.7286  -28.6474   23.0366 C   0  0  0  0  0  0
  -26.4455  -31.6605   25.0715 C   0  0  0  0  0  0
  -25.3728  -31.3718   26.1469 C   0  0  0  0  0  0
  -27.0261  -30.3042   24.6057 C   0  0  0  0  0  0
  -27.6034  -32.4314   25.7476 C   0  0  0  0  0  0
  -27.5584  -37.1820   24.8456 C   0  0  0  0  0  0
  -21.4126  -29.3005   22.3772 N   0  0  0  0  0  0
  -26.4299  -37.3802   23.9396 N   0  0  0  0  0  0
  -24.6596  -31.0820   22.1033 N   0  0  0  0  0  0
  -23.4181  -28.8176   23.3033 O   0  0  0  0  0  0
  -28.4045  -26.7631   19.9983 O   0  0  0  0  0  0
  -26.5578  -34.8933   22.4687 O   0  0  0  0  0  0
  -23.5301  -32.1448   23.7558 O   0  0  0  0  0  0
  -29.5771  -17.7440   20.5739 C   0  0  0  0  0  0
  -29.1250  -17.6826   19.2673 C   0  0  0  0  0  0
  -28.6926  -19.8373   20.3660 C   0  0  0  0  0  0
  -28.1602  -22.2398   20.0983 C   0  0  0  0  0  0
  -29.2360  -16.5890   18.2537 C   0  0  0  0  0  0
  -30.3514  -16.7424   21.4018 C   0  0  0  0  0  0
  -27.9870  -23.5455   20.8793 C   0  0  0  0  0  0
  -28.7301  -25.9887   21.1452 C   0  0  0  0  0  0
  -29.1321  -24.5687   20.6782 C   0  0  1  0  0  0
  -29.2847  -18.9690   21.1863 N   0  0  0  0  0  0
  -28.4214  -21.1431   20.8278 N   0  0  0  0  0  0
  -29.9657  -15.3499   21.2113 N   0  0  0  0  0  0
  -28.0348  -22.2496   18.8700 O   0  0  0  0  0  0
  -30.3222  -24.1614   21.3474 O   0  0  0  0  0  0
  -28.3490  -19.1718   18.7787 S   0  0  0  0  0  0
  -31.4680  -12.3900   19.0914 H   0  0  0  0  0  0
  -30.3339  -11.2546   19.7642 H   0  0  0  0  0  0
  -29.7128  -11.7939   17.3975 H   0  0  0  0  0  0
  -29.6510  -13.4976   17.7693 H   0  0  0  0  0  0
  -27.8154  -11.3103   18.7913 H   0  0  0  0  0  0
  -27.3533  -12.6608   17.7882 H   0  0  0  0  0  0
  -27.7257  -14.2373   19.6255 H   0  0  0  0  0  0
  -28.6737  -11.8504   21.2705 H   0  0  0  0  0  0
  -28.4705  -13.4483   21.9076 H   0  0  0  0  0  0
  -25.2731   -9.5715   22.4735 H   0  0  0  0  0  0
  -24.0009   -7.4643   22.7433 H   0  0  0  0  0  0
  -21.0804   -8.8793   19.8965 H   0  0  0  0  0  0
  -22.3638  -10.9684   19.6176 H   0  0  0  0  0  0
  -21.2004   -7.6168   23.9753 H   0  0  0  0  0  0
  -21.1468   -6.0499   25.9086 H   0  0  0  0  0  0
  -22.0590   -2.7642   23.2790 H   0  0  0  0  0  0
  -22.4082  -11.9902   22.4705 H   0  0  0  0  0  0
  -21.1103  -13.1282   22.2530 H   0  0  0  0  0  0
  -24.6570  -15.8299   20.4518 H   0  0  0  0  0  0
  -26.2825  -15.6204   20.0437 H   0  0  0  0  0  0
  -26.7084  -32.5572   23.1172 H   0  0  0  0  0  0
  -25.0045  -33.9807   25.0478 H   0  0  0  0  0  0
  -22.6833  -31.3076   21.4179 H   0  0  0  0  0  0
  -23.3744  -35.9672   23.3310 H   0  0  0  0  0  0
  -24.3582  -36.8926   22.2048 H   0  0  0  0  0  0
  -23.7255  -37.6542   23.6631 H   0  0  0  0  0  0
  -26.0193  -31.6135   20.5906 H   0  0  0  0  0  0
  -26.8123  -30.9070   21.9736 H   0  0  0  0  0  0
  -28.1046  -29.1517   21.1405 H   0  0  0  0  0  0
  -26.0974  -25.9891   19.0077 H   0  0  0  0  0  0
  -23.9801  -27.2801   19.0619 H   0  0  0  0  0  0
  -23.7090  -30.5957   19.4088 H   0  0  0  0  0  0
  -22.7285  -29.2373   19.8791 H   0  0  0  0  0  0
  -25.1297  -36.1994   25.0815 H   0  0  0  0  0  0
  -20.9986  -28.3160   24.1455 H   0  0  0  0  0  0
  -20.5633  -26.2206   23.3613 H   0  0  0  0  0  0
  -21.6646  -26.7374   22.1251 H   0  0  0  0  0  0
  -19.6918  -25.6267   21.1192 H   0  0  0  0  0  0
  -19.6715  -27.3180   20.6749 H   0  0  0  0  0  0
  -17.4211  -26.6627   21.4003 H   0  0  0  0  0  0
  -18.0346  -25.9999   22.8987 H   0  0  0  0  0  0
  -19.7988  -30.7174   24.2269 H   0  0  0  0  0  0
  -17.5108  -31.6252   24.5167 H   0  0  0  0  0  0
  -15.5399  -30.3010   23.7630 H   0  0  0  0  0  0
  -15.8676  -28.0812   22.7070 H   0  0  0  0  0  0
  -24.5882  -30.7079   25.7809 H   0  0  0  0  0  0
  -24.8932  -32.2885   26.4914 H   0  0  0  0  0  0
  -25.8082  -30.8884   27.0222 H   0  0  0  0  0  0
  -26.2791  -29.6830   24.1090 H   0  0  0  0  0  0
  -27.4014  -29.7244   25.4503 H   0  0  0  0  0  0
  -27.8639  -30.4347   23.9199 H   0  0  0  0  0  0
  -27.2637  -33.3592   26.2087 H   0  0  0  0  0  0
  -28.3819  -32.6908   25.0292 H   0  0  0  0  0  0
  -28.0709  -31.8409   26.5359 H   0  0  0  0  0  0
  -28.2611  -38.0108   24.7501 H   0  0  0  0  0  0
  -28.1072  -36.2643   24.6293 H   0  0  0  0  0  0
  -27.2293  -37.1487   25.8855 H   0  0  0  0  0  0
  -20.9270  -29.8810   21.7080 H   0  0  0  0  0  0
  -26.0192  -38.2881   24.1406 H   0  0  0  0  0  0
  -28.3603  -15.9426   18.2802 H   0  0  0  0  0  0
  -30.1279  -15.9847   18.4023 H   0  0  0  0  0  0
  -29.3013  -17.0037   17.2477 H   0  0  0  0  0  0
  -30.2026  -16.9511   22.4616 H   0  0  0  0  0  0
  -31.4211  -16.8726   21.2365 H   0  0  0  0  0  0
  -27.8252  -23.3459   21.9398 H   0  0  0  0  0  0
  -27.0594  -23.9928   20.5184 H   0  0  0  0  0  0
  -29.5600  -26.4872   21.6487 H   0  0  0  0  0  0
  -27.9148  -25.9396   21.8703 H   0  0  0  0  0  0
  -29.3884  -24.6152   19.6177 H   0  0  0  0  0  0
  -28.5269  -21.2821   21.8214 H   0  0  0  0  0  0
  -29.0606  -15.0780   21.5621 H   0  0  0  0  0  0
  -30.1902  -24.2521   22.2869 H   0  0  0  0  0  0
  1 25  1  0  0  0
  1 30  2  0  0  0
  1 82  1  0  0  0
  2  3  1  0  0  0
  2 25  1  0  0  0
  2 86  1  0  0  0
  2 87  1  0  0  0
  3  4  1  0  0  0
  3 88  1  0  0  0
  3 89  1  0  0  0
  4  5  1  0  0  0
  4 90  1  0  0  0
  4 91  1  0  0  0
  5  6  1  0  0  0
  5 26  1  0  0  0
  5 92  1  0  0  0
  6 25  1  0  0  0
  6 93  1  0  0  0
  6 94  1  0  0  0
  7  8  2  0  0  0
  7 26  1  0  0  0
  7 29  1  0  0  0
  8  9  1  0  0  0
  8 22  1  0  0  0
  9 10  1  0  0  0
  9 27  2  0  0  0
 10 11  2  0  0  0
 10 15  1  0  0  0
 11 12  1  0  0  0
 11 95  1  0  0  0
 12 13  2  0  0  0
 12 96  1  0  0  0
 13 14  1  0  0  0
 13 31  1  0  0  0
 14 15  2  0  0  0
 14 97  1  0  0  0
 15 98  1  0  0  0
 16 17  2  0  0  0
 16 21  1  0  0  0
 16 31  1  0  0  0
 17 18  1  0  0  0
 17 99  1  0  0  0
 18 19  2  0  0  0
 18100  1  0  0  0
 19 20  1  0  0  0
 19 24  1  0  0  0
 20 21  2  0  0  0
 20101  1  0  0  0
 21 23  1  0  0  0
 22 28  1  0  0  0
 22 32  2  0  0  0
 26 27  1  0  0  0
 28102  1  0  0  0
 28103  1  0  0  0
 29104  1  0  0  0
 29105  1  0  0  0
 33 34  1  0  0  0
 33 66  1  0  0  0
 33 70  2  0  0  0
 34 36  1  0  0  0
 34 59  1  0  0  0
 34106  1  0  0  0
 35 44  2  0  0  0
 35 45  1  0  0  0
 35 68  1  0  0  0
 36 56  1  0  0  0
 36107  1  0  0  0
 37 39  1  0  0  0
 37 47  1  0  0  0
 37 66  1  0  0  0
 37108  1  0  0  0
 38 43  2  0  0  0
 38 46  1  0  0  0
 38 47  1  0  0  0
 39 64  1  0  0  0
 39 67  2  0  0  0
 40 52  1  0  0  0
 40 53  2  0  0  0
 40 58  1  0  0  0
 41109  1  0  0  0
 41110  1  0  0  0
 41111  1  0  0  0
 41 48  1  0  0  0
 42 43  1  0  0  0
 42 66  1  0  0  0
 42112  1  0  0  0
 42113  1  0  0  0
 43 44  1  0  0  0
 44114  1  0  0  0
 45 46  2  0  0  0
 45115  1  0  0  0
 46116  1  0  0  0
 47117  1  0  0  0
 47118  1  0  0  0
 48 56  1  0  0  0
 48 65  1  0  0  0
 48119  1  0  0  0
 49 50  1  0  0  0
 49 53  1  0  0  0
 49 64  1  0  0  0
 49120  1  0  0  0
 50 51  1  0  0  0
 50121  1  0  0  0
 50122  1  0  0  0
 51 52  1  0  0  0
 51123  1  0  0  0
 51124  1  0  0  0
 52125  1  0  0  0
 52126  1  0  0  0
 53 54  1  0  0  0
 54 55  2  0  0  0
 54127  1  0  0  0
 55 57  1  0  0  0
 55128  1  0  0  0
 56 69  2  0  0  0
 57 58  2  0  0  0
 57129  1  0  0  0
 58130  1  0  0  0
 59 60  1  0  0  0
 59 61  1  0  0  0
 59 62  1  0  0  0
 60131  1  0  0  0
 60132  1  0  0  0
 60133  1  0  0  0
 61134  1  0  0  0
 61135  1  0  0  0
 61136  1  0  0  0
 62137  1  0  0  0
 62138  1  0  0  0
 62139  1  0  0  0
 63 65  1  0  0  0
 63140  1  0  0  0
 63141  1  0  0  0
 63142  1  0  0  0
 64143  1  0  0  0
 65144  1  0  0  0
 68 78  1  0  0  0
 71 72  2  0  0  0
 71 76  1  0  0  0
 71 80  1  0  0  0
 72 75  1  0  0  0
 72 85  1  0  0  0
 73 80  2  0  0  0
 73 81  1  0  0  0
 73 85  1  0  0  0
 74 77  1  0  0  0
 74 81  1  0  0  0
 74 83  2  0  0  0
 75145  1  0  0  0
 75146  1  0  0  0
 75147  1  0  0  0
 76 82  1  0  0  0
 76148  1  0  0  0
 76149  1  0  0  0
 77 79  1  0  0  0
 77150  1  0  0  0
 77151  1  0  0  0
 78 79  1  0  0  0
 78152  1  0  0  0
 78153  1  0  0  0
 79 84  1  0  0  0
 79154  1  0  0  0
 81155  1  0  0  0
 82156  1  0  0  0
 84157  1  0  0  0
M  ISO  4   1 100  68 101  78 101  82 100
M  END
> <chiral flag>
0

> <version>
0

> <s_m_source_file>
/data/baiqing/PycharmProjects/Reinvent-master-3.2/result/LINK_invent/BTK/process_docking_weight1_custom_product_contain_oxygen_bond_distance_aromatic_linkinvent_7_9_3/rearranged_h_0193.sdf

> <i_m_source_file_index>
35

> <r_mmod_Potential_Energy-OPLS-2005>
-253.631164550781

> <r_mmod_Stretch_Energy-OPLS-2005>
30.3049163818359

> <r_mmod_Bend_Energy-OPLS-2005>
97.6844177246094

> <r_mmod_Torsional_Energy-OPLS-2005>
218.302612304688

> <r_mmod_Improper_Torsional_Energy-OPLS-2005>
3.59178566932678

> <r_mmod_Van_der_Waal_Energy-OPLS-2005>
124.389579772949

> <r_mmod_Electrostatic_Energy-OPLS-2005>
-482.850891113281

> <r_mmod_Solvation_Energy-OPLS-2005>
-253.273254394531

> <b_mmod_Minimization_Converged-OPLS-2005>
0

> <r_mmod_RMS_Derivative-OPLS-2005>
3.49164772033691

$$$$
35
                    3D
 Structure written by MMmdl.
150158  0  0  1  0            999 V2000
  -30.6409  -14.7096   20.4575 C   0  0  0  0  0  0
  -30.4212  -12.4329   19.4701 C   0  0  0  0  0  0
  -29.5030  -12.5031   18.2316 C   0  0  0  0  0  0
  -28.0292  -12.3363   18.6456 C   0  0  0  0  0  0
  -27.6412  -13.2337   19.8516 C   0  0  2  0  0  0
  -28.6860  -13.1679   20.9867 C   0  0  0  0  0  0
  -25.2516  -13.8197   20.5717 C   0  0  0  0  0  0
  -24.1809  -13.0445   20.9234 C   0  0  0  0  0  0
  -24.6399  -11.6925   20.8764 C   0  0  0  0  0  0
  -23.9076  -10.4294   21.0407 C   0  0  0  0  0  0
  -24.3614   -9.4206   21.9186 C   0  0  0  0  0  0
  -23.6293   -8.2236   22.0748 C   0  0  0  0  0  0
  -22.4272   -8.0283   21.3543 C   0  0  0  0  0  0
  -21.9917   -9.0259   20.4643 C   0  0  0  0  0  0
  -22.7252  -10.2139   20.3057 C   0  0  0  0  0  0
  -21.6854   -6.0742   22.5288 C   0  0  0  0  0  0
  -21.4018   -6.5646   23.8218 C   0  0  0  0  0  0
  -21.3650   -5.6797   24.9180 C   0  0  0  0  0  0
  -21.6038   -4.3060   24.7231 C   0  0  0  0  0  0
  -21.8821   -3.8157   23.4353 C   0  0  0  0  0  0
  -21.9186   -4.6967   22.3410 C   0  0  0  0  0  0
  -22.7827  -13.5230   21.1877 C   0  0  0  0  0  0
  -22.1659   -4.2157   21.0989 F   0  0  0  0  0  0
  -21.5622   -3.4540   25.7735 F   0  0  0  0  0  0
  -29.9885  -13.5004   20.4009 N   0  0  0  0  0  0
  -26.2938  -12.9413   20.3291 N   0  0  0  0  0  0
  -25.9325  -11.6557   20.5768 N   0  0  0  0  0  0
  -22.0466  -12.8208   22.0423 N   0  0  0  0  0  0
  -25.4221  -15.1909   20.4095 N   0  0  0  0  0  0
  -31.8327  -14.7741   20.1458 O   0  0  0  0  0  0
  -21.6642   -6.8877   21.4242 O   0  0  0  0  0  0
  -22.3518  -14.5539   20.6721 O   0  0  0  0  0  0
  -24.6305  -31.8551   23.1981 C   0  0  0  0  0  0
  -25.9132  -32.4747   23.8330 C   0  0  1  0  0  0
  -27.2209  -27.2674   20.1171 C   0  0  0  0  0  0
  -25.5931  -33.8547   24.2253 N   0  0  0  0  0  0
  -23.4258  -30.4780   21.5416 C   0  0  2  0  0  0
  -24.8708  -28.9246   20.1077 C   0  0  0  0  0  0
  -22.7494  -29.4604   22.4910 C   0  0  0  0  0  0
  -18.0287  -28.1390   22.8479 C   0  0  0  0  0  0
  -24.1486  -36.7282   23.2639 C   0  0  0  0  0  0
  -25.9709  -30.7688   21.3756 C   0  0  0  0  0  0
  -26.0412  -29.3920   20.7160 C   0  0  0  0  0  0
  -27.2144  -28.5741   20.7122 C   0  0  0  0  0  0
  -26.0201  -26.8589   19.4924 C   0  0  0  0  0  0
  -24.8651  -27.6658   19.4879 C   0  0  0  0  0  0
  -23.6419  -29.8116   20.1571 C   0  0  0  0  0  0
  -25.4113  -36.3062   24.0323 C   0  0  1  0  0  0
  -20.5892  -28.3696   23.1266 C   0  0  2  0  0  0
  -20.6770  -26.9414   22.5404 C   0  0  0  0  0  0
  -19.5749  -26.6389   21.5201 C   0  0  0  0  0  0
  -18.1931  -26.7934   22.1618 C   0  0  0  0  0  0
  -19.1543  -28.8860   23.2868 C   0  0  0  0  0  0
  -18.9467  -30.1459   23.8885 C   0  0  0  0  0  0
  -17.6465  -30.6585   24.0563 C   0  0  0  0  0  0
  -25.9056  -34.9434   23.5094 C   0  0  0  0  0  0
  -16.5356  -29.9086   23.6331 C   0  0  0  0  0  0
  -16.7275  -28.6506   23.0341 C   0  0  0  0  0  0
  -26.4498  -31.6576   25.0727 C   0  0  0  0  0  0
  -25.3717  -31.3728   26.1446 C   0  0  0  0  0  0
  -27.0335  -30.2986   24.6222 C   0  0  0  0  0  0
  -27.6056  -32.4305   25.7501 C   0  0  0  0  0  0
  -27.5574  -37.1798   24.8461 C   0  0  0  0  0  0
  -21.4203  -29.3043   22.3653 N   0  0  0  0  0  0
  -26.4282  -37.3768   23.9409 N   0  0  0  0  0  0
  -24.6949  -31.0523   22.0949 N   0  0  0  0  0  0
  -23.4201  -28.8147   23.3005 O   0  0  0  0  0  0
  -28.3422  -26.4112   20.2021 O   0  0  0  0  0  0
  -26.5634  -34.8910   22.4665 O   0  0  0  0  0  0
  -23.5460  -32.1369   23.7282 O   0  0  0  0  0  0
  -29.0452  -19.2309   21.5947 C   0  0  0  0  0  0
  -29.7278  -18.6435   20.5307 C   0  0  0  0  0  0
  -29.1024  -21.1584   20.2540 C   0  0  0  0  0  0
  -28.5154  -23.7393   20.4148 C   0  0  0  0  0  0
  -30.4957  -17.2683   20.3952 C   0  0  0  0  0  0
  -28.4394  -25.0725   19.5274 C   0  0  0  0  0  0
  -28.7074  -18.5634   22.9124 C   0  0  0  0  0  0
  -28.6927  -20.6137   21.4111 N   0  0  0  0  0  0
  -28.9224  -22.5592   19.8141 N   0  0  0  0  0  0
  -29.9171  -15.8787   20.6280 N   0  0  0  0  0  0
  -28.2108  -23.7980   21.6099 O   0  0  0  0  0  0
  -28.8257  -19.4058   23.9431 F   0  0  0  0  0  0
  -29.5013  -17.5208   23.1727 F   0  0  0  0  0  0
  -29.9012  -19.8924   19.2672 S   0  0  0  0  0  0
  -26.8225  -17.9420   22.7535 Br  0  0  0  0  0  0
  -31.4646  -12.5371   19.1683 H   0  0  0  0  0  0
  -30.3499  -11.4557   19.9498 H   0  0  0  0  0  0
  -29.7790  -11.7327   17.5100 H   0  0  0  0  0  0
  -29.6375  -13.4599   17.7242 H   0  0  0  0  0  0
  -27.8779  -11.2872   18.9015 H   0  0  0  0  0  0
  -27.3725  -12.5382   17.7990 H   0  0  0  0  0  0
  -27.6365  -14.2558   19.4723 H   0  0  0  0  0  0
  -28.7119  -12.1747   21.4369 H   0  0  0  0  0  0
  -28.4283  -13.8626   21.7875 H   0  0  0  0  0  0
  -25.2746   -9.5681   22.4781 H   0  0  0  0  0  0
  -23.9999   -7.4625   22.7463 H   0  0  0  0  0  0
  -21.0852   -8.8784   19.8946 H   0  0  0  0  0  0
  -22.3708  -10.9680   19.6172 H   0  0  0  0  0  0
  -21.2020   -7.6154   23.9729 H   0  0  0  0  0  0
  -21.1470   -6.0526   25.9085 H   0  0  0  0  0  0
  -22.0601   -2.7618   23.2853 H   0  0  0  0  0  0
  -22.4072  -11.9859   22.4802 H   0  0  0  0  0  0
  -21.1085  -13.1234   22.2623 H   0  0  0  0  0  0
  -24.6475  -15.8387   20.4987 H   0  0  0  0  0  0
  -26.2505  -15.6175   20.0176 H   0  0  0  0  0  0
  -26.7202  -32.5392   23.1072 H   0  0  0  0  0  0
  -25.0060  -33.9684   25.0386 H   0  0  0  0  0  0
  -22.7220  -31.3005   21.3967 H   0  0  0  0  0  0
  -23.3745  -35.9617   23.3298 H   0  0  0  0  0  0
  -24.3576  -36.8910   22.2055 H   0  0  0  0  0  0
  -23.7242  -37.6482   23.6668 H   0  0  0  0  0  0
  -26.1089  -31.5306   20.6072 H   0  0  0  0  0  0
  -26.8483  -30.8162   22.0090 H   0  0  0  0  0  0
  -28.1107  -28.9282   21.2015 H   0  0  0  0  0  0
  -25.9202  -25.8914   19.0292 H   0  0  0  0  0  0
  -23.9639  -27.2986   19.0156 H   0  0  0  0  0  0
  -23.7657  -30.5878   19.4009 H   0  0  0  0  0  0
  -22.7593  -29.2459   19.8527 H   0  0  0  0  0  0
  -25.1295  -36.1908   25.0816 H   0  0  0  0  0  0
  -20.9982  -28.3271   24.1387 H   0  0  0  0  0  0
  -20.5651  -26.2309   23.3606 H   0  0  0  0  0  0
  -21.6638  -26.7426   22.1208 H   0  0  0  0  0  0
  -19.6908  -25.6300   21.1230 H   0  0  0  0  0  0
  -19.6686  -27.3195   20.6727 H   0  0  0  0  0  0
  -17.4196  -26.6664   21.4027 H   0  0  0  0  0  0
  -18.0345  -26.0081   22.9025 H   0  0  0  0  0  0
  -19.7942  -30.7274   24.2250 H   0  0  0  0  0  0
  -17.5021  -31.6260   24.5180 H   0  0  0  0  0  0
  -15.5356  -30.2981   23.7668 H   0  0  0  0  0  0
  -15.8675  -28.0828   22.7053 H   0  0  0  0  0  0
  -24.5892  -30.7079   25.7775 H   0  0  0  0  0  0
  -24.8906  -32.2897   26.4866 H   0  0  0  0  0  0
  -25.8031  -30.8909   27.0232 H   0  0  0  0  0  0
  -26.2920  -29.6739   24.1231 H   0  0  0  0  0  0
  -27.3985  -29.7248   25.4756 H   0  0  0  0  0  0
  -27.8816  -30.4247   23.9484 H   0  0  0  0  0  0
  -27.2679  -33.3612   26.2070 H   0  0  0  0  0  0
  -28.3879  -32.6850   25.0337 H   0  0  0  0  0  0
  -28.0713  -31.8431   26.5426 H   0  0  0  0  0  0
  -28.2588  -38.0097   24.7501 H   0  0  0  0  0  0
  -28.1070  -36.2628   24.6290 H   0  0  0  0  0  0
  -27.2294  -37.1446   25.8864 H   0  0  0  0  0  0
  -20.9388  -29.8773   21.6863 H   0  0  0  0  0  0
  -26.0157  -38.2840   24.1411 H   0  0  0  0  0  0
  -31.3664  -17.3317   21.0497 H   0  0  0  0  0  0
  -30.9245  -17.2404   19.3917 H   0  0  0  0  0  0
  -27.6993  -24.9268   18.7456 H   0  0  0  0  0  0
  -29.3826  -25.1095   18.9821 H   0  0  0  0  0  0
  -29.1825  -22.6959   18.8478 H   0  0  0  0  0  0
  -28.9328  -15.7936   20.8269 H   0  0  0  0  0  0
  1 25  1  0  0  0
  1 30  2  0  0  0
  1 80  1  0  0  0
  2  3  1  0  0  0
  2 25  1  0  0  0
  2 86  1  0  0  0
  2 87  1  0  0  0
  3  4  1  0  0  0
  3 88  1  0  0  0
  3 89  1  0  0  0
  4  5  1  0  0  0
  4 90  1  0  0  0
  4 91  1  0  0  0
  5  6  1  0  0  0
  5 26  1  0  0  0
  5 92  1  0  0  0
  6 25  1  0  0  0
  6 93  1  0  0  0
  6 94  1  0  0  0
  7  8  2  0  0  0
  7 26  1  0  0  0
  7 29  1  0  0  0
  8  9  1  0  0  0
  8 22  1  0  0  0
  9 10  1  0  0  0
  9 27  2  0  0  0
 10 11  2  0  0  0
 10 15  1  0  0  0
 11 12  1  0  0  0
 11 95  1  0  0  0
 12 13  2  0  0  0
 12 96  1  0  0  0
 13 14  1  0  0  0
 13 31  1  0  0  0
 14 15  2  0  0  0
 14 97  1  0  0  0
 15 98  1  0  0  0
 16 17  2  0  0  0
 16 21  1  0  0  0
 16 31  1  0  0  0
 17 18  1  0  0  0
 17 99  1  0  0  0
 18 19  2  0  0  0
 18100  1  0  0  0
 19 20  1  0  0  0
 19 24  1  0  0  0
 20 21  2  0  0  0
 20101  1  0  0  0
 21 23  1  0  0  0
 22 28  1  0  0  0
 22 32  2  0  0  0
 26 27  1  0  0  0
 28102  1  0  0  0
 28103  1  0  0  0
 29104  1  0  0  0
 29105  1  0  0  0
 33 34  1  0  0  0
 33 66  1  0  0  0
 33 70  2  0  0  0
 34 36  1  0  0  0
 34 59  1  0  0  0
 34106  1  0  0  0
 35 44  2  0  0  0
 35 45  1  0  0  0
 35 68  1  0  0  0
 36 56  1  0  0  0
 36107  1  0  0  0
 37 39  1  0  0  0
 37 47  1  0  0  0
 37 66  1  0  0  0
 37108  1  0  0  0
 38 43  2  0  0  0
 38 46  1  0  0  0
 38 47  1  0  0  0
 39 64  1  0  0  0
 39 67  2  0  0  0
 40 52  1  0  0  0
 40 53  2  0  0  0
 40 58  1  0  0  0
 41109  1  0  0  0
 41110  1  0  0  0
 41111  1  0  0  0
 41 48  1  0  0  0
 42 43  1  0  0  0
 42 66  1  0  0  0
 42112  1  0  0  0
 42113  1  0  0  0
 43 44  1  0  0  0
 44114  1  0  0  0
 45 46  2  0  0  0
 45115  1  0  0  0
 46116  1  0  0  0
 47117  1  0  0  0
 47118  1  0  0  0
 48 56  1  0  0  0
 48 65  1  0  0  0
 48119  1  0  0  0
 49 50  1  0  0  0
 49 53  1  0  0  0
 49 64  1  0  0  0
 49120  1  0  0  0
 50 51  1  0  0  0
 50121  1  0  0  0
 50122  1  0  0  0
 51 52  1  0  0  0
 51123  1  0  0  0
 51124  1  0  0  0
 52125  1  0  0  0
 52126  1  0  0  0
 53 54  1  0  0  0
 54 55  2  0  0  0
 54127  1  0  0  0
 55 57  1  0  0  0
 55128  1  0  0  0
 56 69  2  0  0  0
 57 58  2  0  0  0
 57129  1  0  0  0
 58130  1  0  0  0
 59 60  1  0  0  0
 59 61  1  0  0  0
 59 62  1  0  0  0
 60131  1  0  0  0
 60132  1  0  0  0
 60133  1  0  0  0
 61134  1  0  0  0
 61135  1  0  0  0
 61136  1  0  0  0
 62137  1  0  0  0
 62138  1  0  0  0
 62139  1  0  0  0
 63 65  1  0  0  0
 63140  1  0  0  0
 63141  1  0  0  0
 63142  1  0  0  0
 64143  1  0  0  0
 65144  1  0  0  0
 68 76  1  0  0  0
 71 72  2  0  0  0
 71 77  1  0  0  0
 71 78  1  0  0  0
 72 75  1  0  0  0
 72 84  1  0  0  0
 73 78  2  0  0  0
 73 79  1  0  0  0
 73 84  1  0  0  0
 74 76  1  0  0  0
 74 79  1  0  0  0
 74 81  2  0  0  0
 75 80  1  0  0  0
 75145  1  0  0  0
 75146  1  0  0  0
 76147  1  0  0  0
 76148  1  0  0  0
 77 82  1  0  0  0
 77 83  1  0  0  0
 77 85  1  0  0  0
 79149  1  0  0  0
 80150  1  0  0  0
M  ISO  4   1 100  68 101  76 101  80 100
M  END
> <chiral flag>
0

> <version>
0

> <s_m_source_file>
/data/baiqing/PycharmProjects/Reinvent-master-3.2/result/LINK_invent/BTK/process_docking_weight1_custom_product_contain_oxygen_bond_distance_aromatic_linkinvent_7_9_3/rearranged_h_0193.sdf

> <i_m_source_file_index>
36

> <r_mmod_Potential_Energy-OPLS-2005>
76.4844131469727

> <r_mmod_Stretch_Energy-OPLS-2005>
106.856018066406

> <r_mmod_Bend_Energy-OPLS-2005>
189.867935180664

> <r_mmod_Torsional_Energy-OPLS-2005>
202.053009033203

> <r_mmod_Improper_Torsional_Energy-OPLS-2005>
6.65673351287842

> <r_mmod_Van_der_Waal_Energy-OPLS-2005>
111.459045410156

> <r_mmod_Electrostatic_Energy-OPLS-2005>
-353.222625732422

> <r_mmod_Solvation_Energy-OPLS-2005>
-262.350891113281

> <b_mmod_Minimization_Converged-OPLS-2005>
0

> <r_mmod_RMS_Derivative-OPLS-2005>
1.2878565788269

$$$$
36
                    3D
 Structure written by MMmdl.
156164  0  0  1  0            999 V2000
  -30.6892  -14.5398   20.5212 C   0  0  0  0  0  0
  -30.4207  -12.3394   19.4298 C   0  0  0  0  0  0
  -29.4933  -12.4908   18.2065 C   0  0  0  0  0  0
  -28.0138  -12.3451   18.6131 C   0  0  0  0  0  0
  -27.6511  -13.1994   19.8557 C   0  0  2  0  0  0
  -28.6985  -13.0528   20.9831 C   0  0  0  0  0  0
  -25.2592  -13.8167   20.5662 C   0  0  0  0  0  0
  -24.1854  -13.0441   20.9175 C   0  0  0  0  0  0
  -24.6388  -11.6907   20.8726 C   0  0  0  0  0  0
  -23.9033  -10.4308   21.0386 C   0  0  0  0  0  0
  -24.3594   -9.4216   21.9166 C   0  0  0  0  0  0
  -23.6284   -8.2252   22.0738 C   0  0  0  0  0  0
  -22.4269   -8.0259   21.3550 C   0  0  0  0  0  0
  -21.9894   -9.0228   20.4634 C   0  0  0  0  0  0
  -22.7203  -10.2122   20.3042 C   0  0  0  0  0  0
  -21.6849   -6.0729   22.5276 C   0  0  0  0  0  0
  -21.4003   -6.5638   23.8208 C   0  0  0  0  0  0
  -21.3674   -5.6799   24.9172 C   0  0  0  0  0  0
  -21.6053   -4.3056   24.7214 C   0  0  0  0  0  0
  -21.8824   -3.8139   23.4338 C   0  0  0  0  0  0
  -21.9191   -4.6953   22.3406 C   0  0  0  0  0  0
  -22.7880  -13.5231   21.1820 C   0  0  0  0  0  0
  -22.1651   -4.2150   21.0974 F   0  0  0  0  0  0
  -21.5652   -3.4540   25.7722 F   0  0  0  0  0  0
  -30.0172  -13.3573   20.4129 N   0  0  0  0  0  0
  -26.2980  -12.9297   20.3282 N   0  0  0  0  0  0
  -25.9312  -11.6477   20.5755 N   0  0  0  0  0  0
  -22.0509  -12.8235   22.0393 N   0  0  0  0  0  0
  -25.4356  -15.1878   20.4101 N   0  0  0  0  0  0
  -31.8561  -14.6646   20.1479 O   0  0  0  0  0  0
  -21.6642   -6.8861   21.4239 O   0  0  0  0  0  0
  -22.3553  -14.5498   20.6606 O   0  0  0  0  0  0
  -24.6195  -31.8657   23.2082 C   0  0  0  0  0  0
  -25.9071  -32.4826   23.8382 C   0  0  1  0  0  0
  -27.2409  -27.3972   20.1144 C   0  0  0  0  0  0
  -25.5934  -33.8626   24.2350 N   0  0  0  0  0  0
  -23.4130  -30.4886   21.5458 C   0  0  2  0  0  0
  -24.8626  -28.9463   20.1136 C   0  0  0  0  0  0
  -22.7437  -29.4661   22.4944 C   0  0  0  0  0  0
  -18.0291  -28.1409   22.8494 C   0  0  0  0  0  0
  -24.1495  -36.7311   23.2639 C   0  0  0  0  0  0
  -25.9436  -30.8188   21.3644 C   0  0  0  0  0  0
  -26.0224  -29.4478   20.7190 C   0  0  0  0  0  0
  -27.2165  -28.6817   20.7146 C   0  0  0  0  0  0
  -26.0669  -26.9230   19.4910 C   0  0  0  0  0  0
  -24.8811  -27.6844   19.4947 C   0  0  0  0  0  0
  -23.6271  -29.8198   20.1606 C   0  0  0  0  0  0
  -25.4116  -36.3123   24.0348 C   0  0  1  0  0  0
  -20.5884  -28.3705   23.1302 C   0  0  2  0  0  0
  -20.6789  -26.9435   22.5409 C   0  0  0  0  0  0
  -19.5767  -26.6396   21.5223 C   0  0  0  0  0  0
  -18.1942  -26.7958   22.1624 C   0  0  0  0  0  0
  -19.1539  -28.8866   23.2911 C   0  0  0  0  0  0
  -18.9466  -30.1466   23.8930 C   0  0  0  0  0  0
  -17.6468  -30.6604   24.0582 C   0  0  0  0  0  0
  -25.9036  -34.9488   23.5131 C   0  0  0  0  0  0
  -16.5362  -29.9111   23.6325 C   0  0  0  0  0  0
  -16.7279  -28.6534   23.0337 C   0  0  0  0  0  0
  -26.4487  -31.6614   25.0711 C   0  0  0  0  0  0
  -25.3739  -31.3708   26.1442 C   0  0  0  0  0  0
  -27.0335  -30.3080   24.6067 C   0  0  0  0  0  0
  -27.6096  -32.4299   25.7473 C   0  0  0  0  0  0
  -27.5596  -37.1819   24.8468 C   0  0  0  0  0  0
  -21.4155  -29.3074   22.3698 N   0  0  0  0  0  0
  -26.4312  -37.3800   23.9414 N   0  0  0  0  0  0
  -24.6783  -31.0711   22.0992 N   0  0  0  0  0  0
  -23.4187  -28.8191   23.2996 O   0  0  0  0  0  0
  -28.3873  -26.6182   20.1106 O   0  0  0  0  0  0
  -26.5563  -34.8936   22.4673 O   0  0  0  0  0  0
  -23.5371  -32.1435   23.7434 O   0  0  0  0  0  0
  -27.5326  -18.8594   19.1563 C   0  0  0  0  0  0
  -28.2628  -17.7863   19.6939 C   0  0  0  0  0  0
  -29.4813  -18.1101   20.3235 C   0  0  0  0  0  0
  -29.1073  -20.3508   19.8504 C   0  0  0  0  0  0
  -29.5865  -22.6740   22.0577 C   0  0  0  0  0  0
  -30.4351  -17.0308   20.8868 C   0  0  0  0  0  0
  -29.0497  -24.1526   20.0005 C   0  0  0  0  0  0
  -28.2781  -25.3075   20.7311 C   0  0  0  0  0  0
  -28.9606  -22.7170   20.6516 C   0  0  1  0  0  0
  -27.9677  -20.1377   19.2201 N   0  0  0  0  0  0
  -29.8849  -19.4144   20.4039 N   0  0  0  0  0  0
  -29.5682  -21.6613   19.8134 N   0  0  0  0  0  0
  -29.9634  -15.6217   20.8737 N   0  0  0  0  0  0
  -27.8061  -16.5183   19.5771 F   0  0  0  0  0  0
  -31.4653  -12.4409   19.1248 H   0  0  0  0  0  0
  -30.3303  -11.3406   19.8597 H   0  0  0  0  0  0
  -29.7497  -11.7512   17.4478 H   0  0  0  0  0  0
  -29.6527  -13.4664   17.7453 H   0  0  0  0  0  0
  -27.8225  -11.2913   18.8118 H   0  0  0  0  0  0
  -27.3665  -12.6109   17.7766 H   0  0  0  0  0  0
  -27.6701  -14.2279   19.5104 H   0  0  0  0  0  0
  -28.6999  -12.0359   21.3810 H   0  0  0  0  0  0
  -28.4606  -13.7097   21.8212 H   0  0  0  0  0  0
  -25.2738   -9.5699   22.4748 H   0  0  0  0  0  0
  -24.0009   -7.4635   22.7452 H   0  0  0  0  0  0
  -21.0826   -8.8700   19.8952 H   0  0  0  0  0  0
  -22.3609  -10.9654   19.6154 H   0  0  0  0  0  0
  -21.1993   -7.6148   23.9700 H   0  0  0  0  0  0
  -21.1501   -6.0534   25.9086 H   0  0  0  0  0  0
  -22.0594   -2.7593   23.2822 H   0  0  0  0  0  0
  -22.4082  -11.9915   22.4854 H   0  0  0  0  0  0
  -21.1129  -13.1278   22.2566 H   0  0  0  0  0  0
  -24.6647  -15.8421   20.4760 H   0  0  0  0  0  0
  -26.3021  -15.6227   20.1035 H   0  0  0  0  0  0
  -26.7146  -32.5537   23.1153 H   0  0  0  0  0  0
  -25.0201  -33.9797   25.0571 H   0  0  0  0  0  0
  -22.7059  -31.3078   21.4007 H   0  0  0  0  0  0
  -23.3771  -35.9629   23.3302 H   0  0  0  0  0  0
  -24.3598  -36.8901   22.2051 H   0  0  0  0  0  0
  -23.7225  -37.6515   23.6632 H   0  0  0  0  0  0
  -26.0461  -31.5740   20.5840 H   0  0  0  0  0  0
  -26.8353  -30.8868   21.9755 H   0  0  0  0  0  0
  -28.1096  -29.0615   21.1922 H   0  0  0  0  0  0
  -26.0695  -25.9595   19.0013 H   0  0  0  0  0  0
  -23.9940  -27.2945   19.0151 H   0  0  0  0  0  0
  -23.7488  -30.5959   19.4041 H   0  0  0  0  0  0
  -22.7493  -29.2455   19.8590 H   0  0  0  0  0  0
  -25.1295  -36.1998   25.0842 H   0  0  0  0  0  0
  -21.0005  -28.3273   24.1414 H   0  0  0  0  0  0
  -20.5714  -26.2312   23.3604 H   0  0  0  0  0  0
  -21.6659  -26.7481   22.1190 H   0  0  0  0  0  0
  -19.6927  -25.6299   21.1273 H   0  0  0  0  0  0
  -19.6724  -27.3190   20.6747 H   0  0  0  0  0  0
  -17.4221  -26.6721   21.4016 H   0  0  0  0  0  0
  -18.0333  -26.0101   22.9021 H   0  0  0  0  0  0
  -19.7934  -30.7282   24.2319 H   0  0  0  0  0  0
  -17.5019  -31.6289   24.5174 H   0  0  0  0  0  0
  -15.5362  -30.3026   23.7638 H   0  0  0  0  0  0
  -15.8686  -28.0876   22.7016 H   0  0  0  0  0  0
  -24.5928  -30.7055   25.7755 H   0  0  0  0  0  0
  -24.8897  -32.2844   26.4901 H   0  0  0  0  0  0
  -25.8051  -30.8859   27.0205 H   0  0  0  0  0  0
  -26.2877  -29.6822   24.1155 H   0  0  0  0  0  0
  -27.4196  -29.7338   25.4498 H   0  0  0  0  0  0
  -27.8662  -30.4465   23.9169 H   0  0  0  0  0  0
  -27.2792  -33.3619   26.2080 H   0  0  0  0  0  0
  -28.3900  -32.6812   25.0276 H   0  0  0  0  0  0
  -28.0777  -31.8381   26.5352 H   0  0  0  0  0  0
  -28.2614  -38.0124   24.7528 H   0  0  0  0  0  0
  -28.1093  -36.2650   24.6277 H   0  0  0  0  0  0
  -27.2308  -37.1441   25.8871 H   0  0  0  0  0  0
  -20.9311  -29.8830   21.6959 H   0  0  0  0  0  0
  -26.0204  -38.2883   24.1403 H   0  0  0  0  0  0
  -26.5946  -18.6891   18.6499 H   0  0  0  0  0  0
  -29.1978  -23.4561   22.7087 H   0  0  0  0  0  0
  -30.6727  -22.7796   22.0198 H   0  0  0  0  0  0
  -29.3726  -21.7258   22.5510 H   0  0  0  0  0  0
  -30.6828  -17.2872   21.9163 H   0  0  0  0  0  0
  -31.3655  -17.1254   20.3234 H   0  0  0  0  0  0
  -30.0973  -24.4402   19.9023 H   0  0  0  0  0  0
  -28.6650  -24.0974   18.9812 H   0  0  0  0  0  0
  -28.6787  -25.4218   21.7382 H   0  0  0  0  0  0
  -27.2382  -25.0130   20.8701 H   0  0  0  0  0  0
  -27.9012  -22.4727   20.7475 H   0  0  0  0  0  0
  -29.5473  -21.9875   18.8558 H   0  0  0  0  0  0
  -28.9670  -15.4971   20.9891 H   0  0  0  0  0  0
  1 25  1  0  0  0
  1 30  2  0  0  0
  1 83  1  0  0  0
  2  3  1  0  0  0
  2 25  1  0  0  0
  2 85  1  0  0  0
  2 86  1  0  0  0
  3  4  1  0  0  0
  3 87  1  0  0  0
  3 88  1  0  0  0
  4  5  1  0  0  0
  4 89  1  0  0  0
  4 90  1  0  0  0
  5  6  1  0  0  0
  5 26  1  0  0  0
  5 91  1  0  0  0
  6 25  1  0  0  0
  6 92  1  0  0  0
  6 93  1  0  0  0
  7  8  2  0  0  0
  7 26  1  0  0  0
  7 29  1  0  0  0
  8  9  1  0  0  0
  8 22  1  0  0  0
  9 10  1  0  0  0
  9 27  2  0  0  0
 10 11  2  0  0  0
 10 15  1  0  0  0
 11 12  1  0  0  0
 11 94  1  0  0  0
 12 13  2  0  0  0
 12 95  1  0  0  0
 13 14  1  0  0  0
 13 31  1  0  0  0
 14 15  2  0  0  0
 14 96  1  0  0  0
 15 97  1  0  0  0
 16 17  2  0  0  0
 16 21  1  0  0  0
 16 31  1  0  0  0
 17 18  1  0  0  0
 17 98  1  0  0  0
 18 19  2  0  0  0
 18 99  1  0  0  0
 19 20  1  0  0  0
 19 24  1  0  0  0
 20 21  2  0  0  0
 20100  1  0  0  0
 21 23  1  0  0  0
 22 28  1  0  0  0
 22 32  2  0  0  0
 26 27  1  0  0  0
 28101  1  0  0  0
 28102  1  0  0  0
 29103  1  0  0  0
 29104  1  0  0  0
 33 34  1  0  0  0
 33 66  1  0  0  0
 33 70  2  0  0  0
 34 36  1  0  0  0
 34 59  1  0  0  0
 34105  1  0  0  0
 35 44  2  0  0  0
 35 45  1  0  0  0
 35 68  1  0  0  0
 36 56  1  0  0  0
 36106  1  0  0  0
 37 39  1  0  0  0
 37 47  1  0  0  0
 37 66  1  0  0  0
 37107  1  0  0  0
 38 43  2  0  0  0
 38 46  1  0  0  0
 38 47  1  0  0  0
 39 64  1  0  0  0
 39 67  2  0  0  0
 40 52  1  0  0  0
 40 53  2  0  0  0
 40 58  1  0  0  0
 41108  1  0  0  0
 41109  1  0  0  0
 41110  1  0  0  0
 41 48  1  0  0  0
 42 43  1  0  0  0
 42 66  1  0  0  0
 42111  1  0  0  0
 42112  1  0  0  0
 43 44  1  0  0  0
 44113  1  0  0  0
 45 46  2  0  0  0
 45114  1  0  0  0
 46115  1  0  0  0
 47116  1  0  0  0
 47117  1  0  0  0
 48 56  1  0  0  0
 48 65  1  0  0  0
 48118  1  0  0  0
 49 50  1  0  0  0
 49 53  1  0  0  0
 49 64  1  0  0  0
 49119  1  0  0  0
 50 51  1  0  0  0
 50120  1  0  0  0
 50121  1  0  0  0
 51 52  1  0  0  0
 51122  1  0  0  0
 51123  1  0  0  0
 52124  1  0  0  0
 52125  1  0  0  0
 53 54  1  0  0  0
 54 55  2  0  0  0
 54126  1  0  0  0
 55 57  1  0  0  0
 55127  1  0  0  0
 56 69  2  0  0  0
 57 58  2  0  0  0
 57128  1  0  0  0
 58129  1  0  0  0
 59 60  1  0  0  0
 59 61  1  0  0  0
 59 62  1  0  0  0
 60130  1  0  0  0
 60131  1  0  0  0
 60132  1  0  0  0
 61133  1  0  0  0
 61134  1  0  0  0
 61135  1  0  0  0
 62136  1  0  0  0
 62137  1  0  0  0
 62138  1  0  0  0
 63 65  1  0  0  0
 63139  1  0  0  0
 63140  1  0  0  0
 63141  1  0  0  0
 64142  1  0  0  0
 65143  1  0  0  0
 68 78  1  0  0  0
 71 72  2  0  0  0
 71 80  1  0  0  0
 71144  1  0  0  0
 72 73  1  0  0  0
 72 84  1  0  0  0
 73 76  1  0  0  0
 73 81  2  0  0  0
 74 80  2  0  0  0
 74 81  1  0  0  0
 74 82  1  0  0  0
 75145  1  0  0  0
 75146  1  0  0  0
 75147  1  0  0  0
 75 79  1  0  0  0
 76 83  1  0  0  0
 76148  1  0  0  0
 76149  1  0  0  0
 77 78  1  0  0  0
 77 79  1  0  0  0
 77150  1  0  0  0
 77151  1  0  0  0
 78152  1  0  0  0
 78153  1  0  0  0
 79 82  1  0  0  0
 79154  1  0  0  0
 82155  1  0  0  0
 83156  1  0  0  0
M  ISO  4   1 100  68 101  78 101  83 100
M  END
> <chiral flag>
0

> <version>
0

> <s_m_source_file>
/data/baiqing/PycharmProjects/Reinvent-master-3.2/result/LINK_invent/BTK/process_docking_weight1_custom_product_contain_oxygen_bond_distance_aromatic_linkinvent_7_9_3/rearranged_h_0193.sdf

> <i_m_source_file_index>
37

> <r_mmod_Potential_Energy-OPLS-2005>
-574.072998046875

> <r_mmod_Stretch_Energy-OPLS-2005>
47.053768157959

> <r_mmod_Bend_Energy-OPLS-2005>
106.85230255127

> <r_mmod_Torsional_Energy-OPLS-2005>
245.405395507812

> <r_mmod_Improper_Torsional_Energy-OPLS-2005>
10.3587503433228

> <r_mmod_Van_der_Waal_Energy-OPLS-2005>
156.532119750977

> <r_mmod_Electrostatic_Energy-OPLS-2005>
-935.434875488281

> <r_mmod_Solvation_Energy-OPLS-2005>
-228.462966918945

> <b_mmod_Minimization_Converged-OPLS-2005>
0

> <r_mmod_RMS_Derivative-OPLS-2005>
3.45267796516418

$$$$
37
                    3D
 Structure written by MMmdl.
152160  0  0  1  0            999 V2000
  -30.6712  -14.5388   20.5146 C   0  0  0  0  0  0
  -30.4183  -12.3283   19.4483 C   0  0  0  0  0  0
  -29.4973  -12.4891   18.2200 C   0  0  0  0  0  0
  -28.0188  -12.3417   18.6322 C   0  0  0  0  0  0
  -27.6519  -13.2106   19.8657 C   0  0  2  0  0  0
  -28.6935  -13.0465   20.9963 C   0  0  0  0  0  0
  -25.2549  -13.8183   20.5681 C   0  0  0  0  0  0
  -24.1810  -13.0443   20.9193 C   0  0  0  0  0  0
  -24.6370  -11.6918   20.8738 C   0  0  0  0  0  0
  -23.9044  -10.4293   21.0404 C   0  0  0  0  0  0
  -24.3604   -9.4203   21.9175 C   0  0  0  0  0  0
  -23.6282   -8.2240   22.0744 C   0  0  0  0  0  0
  -22.4262   -8.0271   21.3542 C   0  0  0  0  0  0
  -21.9893   -9.0242   20.4644 C   0  0  0  0  0  0
  -22.7222  -10.2122   20.3050 C   0  0  0  0  0  0
  -21.6847   -6.0720   22.5279 C   0  0  0  0  0  0
  -21.4019   -6.5631   23.8210 C   0  0  0  0  0  0
  -21.3662   -5.6789   24.9177 C   0  0  0  0  0  0
  -21.6041   -4.3048   24.7231 C   0  0  0  0  0  0
  -21.8828   -3.8134   23.4355 C   0  0  0  0  0  0
  -21.9197   -4.6949   22.3408 C   0  0  0  0  0  0
  -22.7835  -13.5230   21.1865 C   0  0  0  0  0  0
  -22.1659   -4.2130   21.0985 F   0  0  0  0  0  0
  -21.5632   -3.4538   25.7750 F   0  0  0  0  0  0
  -30.0156  -13.3482   20.4322 N   0  0  0  0  0  0
  -26.2961  -12.9343   20.3343 N   0  0  0  0  0  0
  -25.9291  -11.6498   20.5768 N   0  0  0  0  0  0
  -22.0490  -12.8198   22.0426 N   0  0  0  0  0  0
  -25.4270  -15.1902   20.4091 N   0  0  0  0  0  0
  -31.8343  -14.6711   20.1241 O   0  0  0  0  0  0
  -21.6639   -6.8858   21.4236 O   0  0  0  0  0  0
  -22.3513  -14.5539   20.6719 O   0  0  0  0  0  0
  -24.6169  -31.8639   23.2060 C   0  0  0  0  0  0
  -25.9053  -32.4789   23.8371 C   0  0  1  0  0  0
  -27.2338  -27.3787   20.1046 C   0  0  0  0  0  0
  -25.5894  -33.8592   24.2301 N   0  0  0  0  0  0
  -23.4083  -30.4867   21.5453 C   0  0  2  0  0  0
  -24.8570  -28.9444   20.1084 C   0  0  0  0  0  0
  -22.7411  -29.4654   22.4943 C   0  0  0  0  0  0
  -18.0277  -28.1382   22.8503 C   0  0  0  0  0  0
  -24.1487  -36.7306   23.2641 C   0  0  0  0  0  0
  -25.9422  -30.8092   21.3710 C   0  0  0  0  0  0
  -26.0172  -29.4407   20.7139 C   0  0  0  0  0  0
  -27.2036  -28.6640   20.7094 C   0  0  0  0  0  0
  -26.0510  -26.9093   19.4882 C   0  0  0  0  0  0
  -24.8731  -27.6829   19.4889 C   0  0  0  0  0  0
  -23.6195  -29.8158   20.1599 C   0  0  0  0  0  0
  -25.4110  -36.3098   24.0332 C   0  0  1  0  0  0
  -20.5865  -28.3699   23.1296 C   0  0  2  0  0  0
  -20.6769  -26.9416   22.5458 C   0  0  0  0  0  0
  -19.5745  -26.6353   21.5279 C   0  0  0  0  0  0
  -18.1919  -26.7913   22.1673 C   0  0  0  0  0  0
  -19.1525  -28.8868   23.2881 C   0  0  0  0  0  0
  -18.9443  -30.1474   23.8882 C   0  0  0  0  0  0
  -17.6438  -30.6600   24.0547 C   0  0  0  0  0  0
  -25.9043  -34.9461   23.5119 C   0  0  0  0  0  0
  -16.5336  -29.9088   23.6332 C   0  0  0  0  0  0
  -16.7266  -28.6494   23.0369 C   0  0  0  0  0  0
  -26.4471  -31.6597   25.0723 C   0  0  0  0  0  0
  -25.3720  -31.3718   26.1460 C   0  0  0  0  0  0
  -27.0313  -30.3026   24.6163 C   0  0  0  0  0  0
  -27.6041  -32.4327   25.7474 C   0  0  0  0  0  0
  -27.5580  -37.1810   24.8463 C   0  0  0  0  0  0
  -21.4134  -29.3045   22.3670 N   0  0  0  0  0  0
  -26.4299  -37.3781   23.9396 N   0  0  0  0  0  0
  -24.6733  -31.0696   22.0980 N   0  0  0  0  0  0
  -23.4162  -28.8217   23.3019 O   0  0  0  0  0  0
  -28.4027  -26.6281   20.1659 O   0  0  0  0  0  0
  -26.5611  -34.8915   22.4686 O   0  0  0  0  0  0
  -23.5347  -32.1422   23.7427 O   0  0  0  0  0  0
  -28.3063  -18.2211   21.5655 C   0  0  0  0  0  0
  -29.4662  -18.1899   20.8284 C   0  0  0  0  0  0
  -28.9551  -20.4533   20.7042 C   0  0  0  0  0  0
  -30.4024  -17.0112   20.5533 C   0  0  0  0  0  0
  -28.7286  -23.0848   21.0438 C   0  0  0  0  0  0
  -28.5191  -25.3266   19.5277 C   0  0  0  0  0  0
  -27.8391  -24.0810   20.2139 C   0  0  1  0  0  0
  -29.7918  -19.4739   20.3234 N   0  0  0  0  0  0
  -29.1098  -21.8133   20.3708 N   0  0  0  0  0  0
  -29.9286  -15.6302   20.8206 N   0  0  0  0  0  0
  -27.2618  -23.2406   19.2380 O   0  0  0  0  0  0
  -27.6474  -19.8424   21.7122 S   0  0  0  0  0  0
  -31.4653  -12.4165   19.1526 H   0  0  0  0  0  0
  -30.3118  -11.3317   19.8808 H   0  0  0  0  0  0
  -29.7486  -11.7495   17.4589 H   0  0  0  0  0  0
  -29.6586  -13.4666   17.7619 H   0  0  0  0  0  0
  -27.8461  -11.2887   18.8591 H   0  0  0  0  0  0
  -27.3655  -12.5790   17.7915 H   0  0  0  0  0  0
  -27.6792  -14.2476   19.5321 H   0  0  0  0  0  0
  -28.6803  -12.0270   21.3857 H   0  0  0  0  0  0
  -28.4592  -13.6940   21.8424 H   0  0  0  0  0  0
  -25.2752   -9.5684   22.4738 H   0  0  0  0  0  0
  -23.9993   -7.4639   22.7459 H   0  0  0  0  0  0
  -21.0827   -8.8760   19.8954 H   0  0  0  0  0  0
  -22.3677  -10.9652   19.6157 H   0  0  0  0  0  0
  -21.2009   -7.6138   23.9712 H   0  0  0  0  0  0
  -21.1476   -6.0517   25.9082 H   0  0  0  0  0  0
  -22.0604   -2.7591   23.2872 H   0  0  0  0  0  0
  -22.4101  -11.9845   22.4779 H   0  0  0  0  0  0
  -21.1120  -13.1224   22.2677 H   0  0  0  0  0  0
  -24.6553  -15.8418   20.4992 H   0  0  0  0  0  0
  -26.2719  -15.6261   20.0627 H   0  0  0  0  0  0
  -26.7108  -32.5490   23.1116 H   0  0  0  0  0  0
  -25.0023  -33.9753   25.0432 H   0  0  0  0  0  0
  -22.7008  -31.3065   21.4030 H   0  0  0  0  0  0
  -23.3748  -35.9643   23.3315 H   0  0  0  0  0  0
  -24.3585  -36.8919   22.2057 H   0  0  0  0  0  0
  -23.7251  -37.6516   23.6653 H   0  0  0  0  0  0
  -26.0705  -31.5763   20.6061 H   0  0  0  0  0  0
  -26.8241  -30.8557   21.9985 H   0  0  0  0  0  0
  -28.0979  -29.0384   21.1880 H   0  0  0  0  0  0
  -26.0136  -25.9400   19.0139 H   0  0  0  0  0  0
  -23.9819  -27.2996   19.0122 H   0  0  0  0  0  0
  -23.7221  -30.5885   19.3971 H   0  0  0  0  0  0
  -22.7430  -29.2330   19.8690 H   0  0  0  0  0  0
  -25.1298  -36.1970   25.0827 H   0  0  0  0  0  0
  -20.9970  -28.3304   24.1421 H   0  0  0  0  0  0
  -20.5696  -26.2333   23.3688 H   0  0  0  0  0  0
  -21.6631  -26.7441   22.1243 H   0  0  0  0  0  0
  -19.6913  -25.6245   21.1358 H   0  0  0  0  0  0
  -19.6698  -27.3138   20.6778 H   0  0  0  0  0  0
  -17.4184  -26.6601   21.4083 H   0  0  0  0  0  0
  -18.0337  -26.0090   22.9114 H   0  0  0  0  0  0
  -19.7918  -30.7319   24.2208 H   0  0  0  0  0  0
  -17.4971  -31.6298   24.5108 H   0  0  0  0  0  0
  -15.5323  -30.2969   23.7629 H   0  0  0  0  0  0
  -15.8673  -28.0792   22.7101 H   0  0  0  0  0  0
  -24.5895  -30.7071   25.7784 H   0  0  0  0  0  0
  -24.8905  -32.2870   26.4900 H   0  0  0  0  0  0
  -25.8052  -30.8882   27.0225 H   0  0  0  0  0  0
  -26.2874  -29.6763   24.1224 H   0  0  0  0  0  0
  -27.4058  -29.7298   25.4663 H   0  0  0  0  0  0
  -27.8718  -30.4313   23.9340 H   0  0  0  0  0  0
  -27.2662  -33.3616   26.2071 H   0  0  0  0  0  0
  -28.3821  -32.6913   25.0283 H   0  0  0  0  0  0
  -28.0740  -31.8454   26.5374 H   0  0  0  0  0  0
  -28.2611  -38.0095   24.7504 H   0  0  0  0  0  0
  -28.1068  -36.2634   24.6302 H   0  0  0  0  0  0
  -27.2296  -37.1469   25.8866 H   0  0  0  0  0  0
  -20.9301  -29.8734   21.6859 H   0  0  0  0  0  0
  -26.0195  -38.2864   24.1389 H   0  0  0  0  0  0
  -27.8097  -17.4000   22.0657 H   0  0  0  0  0  0
  -31.3212  -17.1621   21.1224 H   0  0  0  0  0  0
  -30.7072  -17.0477   19.5052 H   0  0  0  0  0  0
  -28.1819  -22.8167   21.9499 H   0  0  0  0  0  0
  -29.6274  -23.5931   21.3966 H   0  0  0  0  0  0
  -28.1680  -25.4342   18.5011 H   0  0  0  0  0  0
  -29.5831  -25.1135   19.4166 H   0  0  0  0  0  0
  -27.0337  -24.4505   20.8515 H   0  0  0  0  0  0
  -29.9292  -21.9398   19.7832 H   0  0  0  0  0  0
  -28.9662  -15.4983   21.0898 H   0  0  0  0  0  0
  -27.8104  -22.4533   19.3038 H   0  0  0  0  0  0
  1 25  1  0  0  0
  1 30  2  0  0  0
  1 80  1  0  0  0
  2  3  1  0  0  0
  2 25  1  0  0  0
  2 83  1  0  0  0
  2 84  1  0  0  0
  3  4  1  0  0  0
  3 85  1  0  0  0
  3 86  1  0  0  0
  4  5  1  0  0  0
  4 87  1  0  0  0
  4 88  1  0  0  0
  5  6  1  0  0  0
  5 26  1  0  0  0
  5 89  1  0  0  0
  6 25  1  0  0  0
  6 90  1  0  0  0
  6 91  1  0  0  0
  7  8  2  0  0  0
  7 26  1  0  0  0
  7 29  1  0  0  0
  8  9  1  0  0  0
  8 22  1  0  0  0
  9 10  1  0  0  0
  9 27  2  0  0  0
 10 11  2  0  0  0
 10 15  1  0  0  0
 11 12  1  0  0  0
 11 92  1  0  0  0
 12 13  2  0  0  0
 12 93  1  0  0  0
 13 14  1  0  0  0
 13 31  1  0  0  0
 14 15  2  0  0  0
 14 94  1  0  0  0
 15 95  1  0  0  0
 16 17  2  0  0  0
 16 21  1  0  0  0
 16 31  1  0  0  0
 17 18  1  0  0  0
 17 96  1  0  0  0
 18 19  2  0  0  0
 18 97  1  0  0  0
 19 20  1  0  0  0
 19 24  1  0  0  0
 20 21  2  0  0  0
 20 98  1  0  0  0
 21 23  1  0  0  0
 22 28  1  0  0  0
 22 32  2  0  0  0
 26 27  1  0  0  0
 28 99  1  0  0  0
 28100  1  0  0  0
 29101  1  0  0  0
 29102  1  0  0  0
 33 34  1  0  0  0
 33 66  1  0  0  0
 33 70  2  0  0  0
 34 36  1  0  0  0
 34 59  1  0  0  0
 34103  1  0  0  0
 35 44  2  0  0  0
 35 45  1  0  0  0
 35 68  1  0  0  0
 36 56  1  0  0  0
 36104  1  0  0  0
 37 39  1  0  0  0
 37 47  1  0  0  0
 37 66  1  0  0  0
 37105  1  0  0  0
 38 43  2  0  0  0
 38 46  1  0  0  0
 38 47  1  0  0  0
 39 64  1  0  0  0
 39 67  2  0  0  0
 40 52  1  0  0  0
 40 53  2  0  0  0
 40 58  1  0  0  0
 41106  1  0  0  0
 41107  1  0  0  0
 41108  1  0  0  0
 41 48  1  0  0  0
 42 43  1  0  0  0
 42 66  1  0  0  0
 42109  1  0  0  0
 42110  1  0  0  0
 43 44  1  0  0  0
 44111  1  0  0  0
 45 46  2  0  0  0
 45112  1  0  0  0
 46113  1  0  0  0
 47114  1  0  0  0
 47115  1  0  0  0
 48 56  1  0  0  0
 48 65  1  0  0  0
 48116  1  0  0  0
 49 50  1  0  0  0
 49 53  1  0  0  0
 49 64  1  0  0  0
 49117  1  0  0  0
 50 51  1  0  0  0
 50118  1  0  0  0
 50119  1  0  0  0
 51 52  1  0  0  0
 51120  1  0  0  0
 51121  1  0  0  0
 52122  1  0  0  0
 52123  1  0  0  0
 53 54  1  0  0  0
 54 55  2  0  0  0
 54124  1  0  0  0
 55 57  1  0  0  0
 55125  1  0  0  0
 56 69  2  0  0  0
 57 58  2  0  0  0
 57126  1  0  0  0
 58127  1  0  0  0
 59 60  1  0  0  0
 59 61  1  0  0  0
 59 62  1  0  0  0
 60128  1  0  0  0
 60129  1  0  0  0
 60130  1  0  0  0
 61131  1  0  0  0
 61132  1  0  0  0
 61133  1  0  0  0
 62134  1  0  0  0
 62135  1  0  0  0
 62136  1  0  0  0
 63 65  1  0  0  0
 63137  1  0  0  0
 63138  1  0  0  0
 63139  1  0  0  0
 64140  1  0  0  0
 65141  1  0  0  0
 68 76  1  0  0  0
 71 72  2  0  0  0
 71 82  1  0  0  0
 71142  1  0  0  0
 72 74  1  0  0  0
 72 78  1  0  0  0
 73 78  2  0  0  0
 73 79  1  0  0  0
 73 82  1  0  0  0
 74 80  1  0  0  0
 74143  1  0  0  0
 74144  1  0  0  0
 75 77  1  0  0  0
 75 79  1  0  0  0
 75145  1  0  0  0
 75146  1  0  0  0
 76 77  1  0  0  0
 76147  1  0  0  0
 76148  1  0  0  0
 77 81  1  0  0  0
 77149  1  0  0  0
 79150  1  0  0  0
 80151  1  0  0  0
 81152  1  0  0  0
M  ISO  4   1 100  68 101  76 101  80 100
M  END
> <chiral flag>
0

> <version>
0

> <s_m_source_file>
/data/baiqing/PycharmProjects/Reinvent-master-3.2/result/LINK_invent/BTK/process_docking_weight1_custom_product_contain_oxygen_bond_distance_aromatic_linkinvent_7_9_3/rearranged_h_0193.sdf

> <i_m_source_file_index>
38

> <r_mmod_Potential_Energy-OPLS-2005>
-256.595001220703

> <r_mmod_Stretch_Energy-OPLS-2005>
48.977783203125

> <r_mmod_Bend_Energy-OPLS-2005>
123.672454833984

> <r_mmod_Torsional_Energy-OPLS-2005>
239.216522216797

> <r_mmod_Improper_Torsional_Energy-OPLS-2005>
7.51880645751953

> <r_mmod_Van_der_Waal_Energy-OPLS-2005>
133.392349243164

> <r_mmod_Electrostatic_Energy-OPLS-2005>
-595.460571289062

> <r_mmod_Solvation_Energy-OPLS-2005>
-239.425247192383

> <b_mmod_Minimization_Converged-OPLS-2005>
0

> <r_mmod_RMS_Derivative-OPLS-2005>
2.39066386222839

$$$$
38
                    3D
 Structure written by MMmdl.
151159  0  0  1  0            999 V2000
  -30.6197  -14.7624   20.4307 C   0  0  0  0  0  0
  -30.4277  -12.4585   19.4874 C   0  0  0  0  0  0
  -29.5131  -12.5128   18.2436 C   0  0  0  0  0  0
  -28.0380  -12.3394   18.6515 C   0  0  0  0  0  0
  -27.6417  -13.2396   19.8522 C   0  0  2  0  0  0
  -28.6852  -13.1883   20.9907 C   0  0  0  0  0  0
  -25.2498  -13.8213   20.5704 C   0  0  0  0  0  0
  -24.1799  -13.0445   20.9215 C   0  0  0  0  0  0
  -24.6403  -11.6927   20.8747 C   0  0  0  0  0  0
  -23.9082  -10.4295   21.0405 C   0  0  0  0  0  0
  -24.3628   -9.4210   21.9183 C   0  0  0  0  0  0
  -23.6300   -8.2245   22.0754 C   0  0  0  0  0  0
  -22.4282   -8.0282   21.3543 C   0  0  0  0  0  0
  -21.9920   -9.0259   20.4649 C   0  0  0  0  0  0
  -22.7252  -10.2138   20.3057 C   0  0  0  0  0  0
  -21.6855   -6.0738   22.5279 C   0  0  0  0  0  0
  -21.4019   -6.5643   23.8213 C   0  0  0  0  0  0
  -21.3661   -5.6795   24.9174 C   0  0  0  0  0  0
  -21.6044   -4.3058   24.7222 C   0  0  0  0  0  0
  -21.8818   -3.8148   23.4342 C   0  0  0  0  0  0
  -21.9192   -4.6966   22.3400 C   0  0  0  0  0  0
  -22.7816  -13.5219   21.1862 C   0  0  0  0  0  0
  -22.1661   -4.2152   21.0977 F   0  0  0  0  0  0
  -21.5625   -3.4543   25.7734 F   0  0  0  0  0  0
  -29.9895  -13.5330   20.4128 N   0  0  0  0  0  0
  -26.2939  -12.9440   20.3289 N   0  0  0  0  0  0
  -25.9340  -11.6574   20.5756 N   0  0  0  0  0  0
  -22.0461  -12.8216   22.0420 N   0  0  0  0  0  0
  -25.4163  -15.1941   20.4121 N   0  0  0  0  0  0
  -31.8150  -14.8129   20.1150 O   0  0  0  0  0  0
  -21.6641   -6.8883   21.4242 O   0  0  0  0  0  0
  -22.3505  -14.5524   20.6706 O   0  0  0  0  0  0
  -24.6330  -31.8544   23.1986 C   0  0  0  0  0  0
  -25.9150  -32.4751   23.8335 C   0  0  1  0  0  0
  -27.2131  -27.2411   20.1305 C   0  0  0  0  0  0
  -25.5939  -33.8555   24.2253 N   0  0  0  0  0  0
  -23.4306  -30.4784   21.5417 C   0  0  2  0  0  0
  -24.8779  -28.9280   20.1063 C   0  0  0  0  0  0
  -22.7512  -29.4597   22.4895 C   0  0  0  0  0  0
  -18.0296  -28.1388   22.8476 C   0  0  0  0  0  0
  -24.1489  -36.7285   23.2638 C   0  0  0  0  0  0
  -25.9793  -30.7598   21.3841 C   0  0  0  0  0  0
  -26.0499  -29.3820   20.7240 C   0  0  0  0  0  0
  -27.2189  -28.5504   20.7278 C   0  0  0  0  0  0
  -26.0234  -26.8766   19.4573 C   0  0  0  0  0  0
  -24.8715  -27.6848   19.4600 C   0  0  0  0  0  0
  -23.6502  -29.8169   20.1565 C   0  0  0  0  0  0
  -25.4117  -36.3069   24.0322 C   0  0  1  0  0  0
  -20.5900  -28.3705   23.1253 C   0  0  2  0  0  0
  -20.6783  -26.9420   22.5400 C   0  0  0  0  0  0
  -19.5760  -26.6381   21.5204 C   0  0  0  0  0  0
  -18.1941  -26.7928   22.1617 C   0  0  0  0  0  0
  -19.1549  -28.8864   23.2860 C   0  0  0  0  0  0
  -18.9470  -30.1460   23.8884 C   0  0  0  0  0  0
  -17.6470  -30.6587   24.0562 C   0  0  0  0  0  0
  -25.9061  -34.9439   23.5091 C   0  0  0  0  0  0
  -16.5362  -29.9085   23.6330 C   0  0  0  0  0  0
  -16.7283  -28.6504   23.0349 C   0  0  0  0  0  0
  -26.4507  -31.6581   25.0733 C   0  0  0  0  0  0
  -25.3720  -31.3736   26.1445 C   0  0  0  0  0  0
  -27.0360  -30.2994   24.6238 C   0  0  0  0  0  0
  -27.6055  -32.4325   25.7513 C   0  0  0  0  0  0
  -27.5579  -37.1799   24.8463 C   0  0  0  0  0  0
  -21.4217  -29.3050   22.3642 N   0  0  0  0  0  0
  -26.4291  -37.3768   23.9406 N   0  0  0  0  0  0
  -24.7001  -31.0491   22.0974 N   0  0  0  0  0  0
  -23.4204  -28.8132   23.2996 O   0  0  0  0  0  0
  -28.2850  -26.3116   20.2217 O   0  0  0  0  0  0
  -26.5634  -34.8916   22.4660 O   0  0  0  0  0  0
  -23.5474  -32.1379   23.7265 O   0  0  0  0  0  0
  -29.9793  -19.6043   18.6734 C   0  0  0  0  0  0
  -30.3748  -18.3890   18.1066 C   0  0  0  0  0  0
  -29.5575  -19.6070   20.0032 C   0  0  0  0  0  0
  -29.9585  -17.2272   20.0566 C   0  0  0  0  0  0
  -28.7003  -22.1153   19.9032 C   0  0  0  0  0  0
  -28.0165  -24.8405   19.9719 C   0  0  0  0  0  0
  -28.8959  -23.5935   20.5583 C   0  0  1  0  0  0
  -30.3577  -17.2298   18.7886 N   0  0  0  0  0  0
  -29.5424  -18.3893   20.6789 N   0  0  0  0  0  0
  -29.2056  -20.8680   20.6250 N   0  0  0  0  0  0
  -29.8813  -15.9243   20.6627 N   0  0  0  0  0  0
  -28.5393  -23.4191   21.9202 O   0  0  0  0  0  0
  -31.4716  -12.5643   19.1873 H   0  0  0  0  0  0
  -30.3596  -11.4848   19.9748 H   0  0  0  0  0  0
  -29.7984  -11.7403   17.5285 H   0  0  0  0  0  0
  -29.6440  -13.4669   17.7299 H   0  0  0  0  0  0
  -27.8911  -11.2907   18.9117 H   0  0  0  0  0  0
  -27.3840  -12.5368   17.8011 H   0  0  0  0  0  0
  -27.6327  -14.2599   19.4681 H   0  0  0  0  0  0
  -28.7186  -12.1971   21.4452 H   0  0  0  0  0  0
  -28.4190  -13.8819   21.7896 H   0  0  0  0  0  0
  -25.2773   -9.5690   22.4758 H   0  0  0  0  0  0
  -24.0011   -7.4641   22.7476 H   0  0  0  0  0  0
  -21.0849   -8.8785   19.8956 H   0  0  0  0  0  0
  -22.3711  -10.9678   19.6166 H   0  0  0  0  0  0
  -21.2019   -7.6154   23.9721 H   0  0  0  0  0  0
  -21.1484   -6.0522   25.9078 H   0  0  0  0  0  0
  -22.0594   -2.7610   23.2840 H   0  0  0  0  0  0
  -22.4086  -11.9892   22.4829 H   0  0  0  0  0  0
  -21.1076  -13.1239   22.2614 H   0  0  0  0  0  0
  -24.6433  -15.8420   20.5207 H   0  0  0  0  0  0
  -26.2556  -15.6366   20.0611 H   0  0  0  0  0  0
  -26.7212  -32.5390   23.1071 H   0  0  0  0  0  0
  -25.0081  -33.9689   25.0395 H   0  0  0  0  0  0
  -22.7279  -31.3014   21.3964 H   0  0  0  0  0  0
  -23.3752  -35.9615   23.3299 H   0  0  0  0  0  0
  -24.3578  -36.8914   22.2054 H   0  0  0  0  0  0
  -23.7243  -37.6483   23.6670 H   0  0  0  0  0  0
  -26.1230  -31.5195   20.6146 H   0  0  0  0  0  0
  -26.8555  -30.8066   22.0193 H   0  0  0  0  0  0
  -28.1106  -28.8891   21.2366 H   0  0  0  0  0  0
  -25.9451  -25.9379   18.9301 H   0  0  0  0  0  0
  -23.9791  -27.3375   18.9573 H   0  0  0  0  0  0
  -23.7790  -30.5956   19.4040 H   0  0  0  0  0  0
  -22.7678  -29.2534   19.8477 H   0  0  0  0  0  0
  -25.1299  -36.1915   25.0814 H   0  0  0  0  0  0
  -20.9993  -28.3289   24.1373 H   0  0  0  0  0  0
  -20.5672  -26.2321   23.3610 H   0  0  0  0  0  0
  -21.6653  -26.7435   22.1204 H   0  0  0  0  0  0
  -19.6926  -25.6287   21.1246 H   0  0  0  0  0  0
  -19.6700  -27.3179   20.6722 H   0  0  0  0  0  0
  -17.4209  -26.6663   21.4024 H   0  0  0  0  0  0
  -18.0354  -26.0074   22.9020 H   0  0  0  0  0  0
  -19.7949  -30.7275   24.2252 H   0  0  0  0  0  0
  -17.5028  -31.6264   24.5170 H   0  0  0  0  0  0
  -15.5362  -30.2986   23.7660 H   0  0  0  0  0  0
  -15.8682  -28.0820   22.7070 H   0  0  0  0  0  0
  -24.5901  -30.7081   25.7770 H   0  0  0  0  0  0
  -24.8902  -32.2905   26.4850 H   0  0  0  0  0  0
  -25.8026  -30.8926   27.0236 H   0  0  0  0  0  0
  -26.2951  -29.6734   24.1250 H   0  0  0  0  0  0
  -27.4018  -29.7266   25.4770 H   0  0  0  0  0  0
  -27.8841  -30.4262   23.9507 H   0  0  0  0  0  0
  -27.2662  -33.3631   26.2074 H   0  0  0  0  0  0
  -28.3880  -32.6875   25.0354 H   0  0  0  0  0  0
  -28.0710  -31.8460   26.5444 H   0  0  0  0  0  0
  -28.2591  -38.0101   24.7511 H   0  0  0  0  0  0
  -28.1079  -36.2630   24.6289 H   0  0  0  0  0  0
  -27.2295  -37.1449   25.8866 H   0  0  0  0  0  0
  -20.9408  -29.8783   21.6852 H   0  0  0  0  0  0
  -26.0167  -38.2841   24.1406 H   0  0  0  0  0  0
  -30.0434  -20.4971   18.0716 H   0  0  0  0  0  0
  -30.7169  -18.3431   17.0832 H   0  0  0  0  0  0
  -29.1151  -22.1572   18.8978 H   0  0  0  0  0  0
  -27.6306  -21.9603   19.7558 H   0  0  0  0  0  0
  -26.9921  -24.6170   20.2712 H   0  0  0  0  0  0
  -28.0285  -24.7379   18.8862 H   0  0  0  0  0  0
  -29.9531  -23.8568   20.5019 H   0  0  0  0  0  0
  -28.9550  -20.8342   21.6083 H   0  0  0  0  0  0
  -29.0308  -15.7743   21.1784 H   0  0  0  0  0  0
  -28.7207  -24.2423   22.3648 H   0  0  0  0  0  0
  1 25  1  0  0  0
  1 30  2  0  0  0
  1 81  1  0  0  0
  2  3  1  0  0  0
  2 25  1  0  0  0
  2 83  1  0  0  0
  2 84  1  0  0  0
  3  4  1  0  0  0
  3 85  1  0  0  0
  3 86  1  0  0  0
  4  5  1  0  0  0
  4 87  1  0  0  0
  4 88  1  0  0  0
  5  6  1  0  0  0
  5 26  1  0  0  0
  5 89  1  0  0  0
  6 25  1  0  0  0
  6 90  1  0  0  0
  6 91  1  0  0  0
  7  8  2  0  0  0
  7 26  1  0  0  0
  7 29  1  0  0  0
  8  9  1  0  0  0
  8 22  1  0  0  0
  9 10  1  0  0  0
  9 27  2  0  0  0
 10 11  2  0  0  0
 10 15  1  0  0  0
 11 12  1  0  0  0
 11 92  1  0  0  0
 12 13  2  0  0  0
 12 93  1  0  0  0
 13 14  1  0  0  0
 13 31  1  0  0  0
 14 15  2  0  0  0
 14 94  1  0  0  0
 15 95  1  0  0  0
 16 17  2  0  0  0
 16 21  1  0  0  0
 16 31  1  0  0  0
 17 18  1  0  0  0
 17 96  1  0  0  0
 18 19  2  0  0  0
 18 97  1  0  0  0
 19 20  1  0  0  0
 19 24  1  0  0  0
 20 21  2  0  0  0
 20 98  1  0  0  0
 21 23  1  0  0  0
 22 28  1  0  0  0
 22 32  2  0  0  0
 26 27  1  0  0  0
 28 99  1  0  0  0
 28100  1  0  0  0
 29101  1  0  0  0
 29102  1  0  0  0
 33 34  1  0  0  0
 33 66  1  0  0  0
 33 70  2  0  0  0
 34 36  1  0  0  0
 34 59  1  0  0  0
 34103  1  0  0  0
 35 44  2  0  0  0
 35 45  1  0  0  0
 35 68  1  0  0  0
 36 56  1  0  0  0
 36104  1  0  0  0
 37 39  1  0  0  0
 37 47  1  0  0  0
 37 66  1  0  0  0
 37105  1  0  0  0
 38 43  2  0  0  0
 38 46  1  0  0  0
 38 47  1  0  0  0
 39 64  1  0  0  0
 39 67  2  0  0  0
 40 52  1  0  0  0
 40 53  2  0  0  0
 40 58  1  0  0  0
 41106  1  0  0  0
 41107  1  0  0  0
 41108  1  0  0  0
 41 48  1  0  0  0
 42 43  1  0  0  0
 42 66  1  0  0  0
 42109  1  0  0  0
 42110  1  0  0  0
 43 44  1  0  0  0
 44111  1  0  0  0
 45 46  2  0  0  0
 45112  1  0  0  0
 46113  1  0  0  0
 47114  1  0  0  0
 47115  1  0  0  0
 48 56  1  0  0  0
 48 65  1  0  0  0
 48116  1  0  0  0
 49 50  1  0  0  0
 49 53  1  0  0  0
 49 64  1  0  0  0
 49117  1  0  0  0
 50 51  1  0  0  0
 50118  1  0  0  0
 50119  1  0  0  0
 51 52  1  0  0  0
 51120  1  0  0  0
 51121  1  0  0  0
 52122  1  0  0  0
 52123  1  0  0  0
 53 54  1  0  0  0
 54 55  2  0  0  0
 54124  1  0  0  0
 55 57  1  0  0  0
 55125  1  0  0  0
 56 69  2  0  0  0
 57 58  2  0  0  0
 57126  1  0  0  0
 58127  1  0  0  0
 59 60  1  0  0  0
 59 61  1  0  0  0
 59 62  1  0  0  0
 60128  1  0  0  0
 60129  1  0  0  0
 60130  1  0  0  0
 61131  1  0  0  0
 61132  1  0  0  0
 61133  1  0  0  0
 62134  1  0  0  0
 62135  1  0  0  0
 62136  1  0  0  0
 63 65  1  0  0  0
 63137  1  0  0  0
 63138  1  0  0  0
 63139  1  0  0  0
 64140  1  0  0  0
 65141  1  0  0  0
 68 76  1  0  0  0
 71 72  2  0  0  0
 71 73  1  0  0  0
 71142  1  0  0  0
 72 78  1  0  0  0
 72143  1  0  0  0
 73 79  2  0  0  0
 73 80  1  0  0  0
 74 78  2  0  0  0
 74 79  1  0  0  0
 74 81  1  0  0  0
 75 77  1  0  0  0
 75 80  1  0  0  0
 75144  1  0  0  0
 75145  1  0  0  0
 76 77  1  0  0  0
 76146  1  0  0  0
 76147  1  0  0  0
 77 82  1  0  0  0
 77148  1  0  0  0
 80149  1  0  0  0
 81150  1  0  0  0
 82151  1  0  0  0
M  ISO  4   1 100  68 101  76 101  81 100
M  END
> <chiral flag>
0

> <version>
0

> <s_m_source_file>
/data/baiqing/PycharmProjects/Reinvent-master-3.2/result/LINK_invent/BTK/process_docking_weight1_custom_product_contain_oxygen_bond_distance_aromatic_linkinvent_7_9_3/rearranged_h_0193.sdf

> <i_m_source_file_index>
39

> <r_mmod_Potential_Energy-OPLS-2005>
-357.510467529297

> <r_mmod_Stretch_Energy-OPLS-2005>
132.479614257812

> <r_mmod_Bend_Energy-OPLS-2005>
180.898361206055

> <r_mmod_Torsional_Energy-OPLS-2005>
253.307174682617

> <r_mmod_Improper_Torsional_Energy-OPLS-2005>
5.52607107162476

> <r_mmod_Van_der_Waal_Energy-OPLS-2005>
154.016036987305

> <r_mmod_Electrostatic_Energy-OPLS-2005>
-918.196350097656

> <r_mmod_Solvation_Energy-OPLS-2005>
-263.697723388672

> <b_mmod_Minimization_Converged-OPLS-2005>
0

> <r_mmod_RMS_Derivative-OPLS-2005>
0.625787615776062

$$$$
39
                    3D
 Structure written by MMmdl.
163171  0  0  1  0            999 V2000
  -30.7175  -14.4377   20.6310 C   0  0  0  0  0  0
  -30.4240  -12.3044   19.4176 C   0  0  0  0  0  0
  -29.4920  -12.5162   18.2074 C   0  0  0  0  0  0
  -28.0139  -12.3750   18.6195 C   0  0  0  0  0  0
  -27.6661  -13.2039   19.8855 C   0  0  2  0  0  0
  -28.7045  -12.9551   21.0014 C   0  0  0  0  0  0
  -25.2604  -13.8166   20.5716 C   0  0  0  0  0  0
  -24.1829  -13.0444   20.9158 C   0  0  0  0  0  0
  -24.6380  -11.6912   20.8713 C   0  0  0  0  0  0
  -23.9056  -10.4298   21.0386 C   0  0  0  0  0  0
  -24.3617   -9.4216   21.9167 C   0  0  0  0  0  0
  -23.6299   -8.2247   22.0757 C   0  0  0  0  0  0
  -22.4283   -8.0278   21.3543 C   0  0  0  0  0  0
  -21.9917   -9.0244   20.4635 C   0  0  0  0  0  0
  -22.7239  -10.2128   20.3030 C   0  0  0  0  0  0
  -21.6865   -6.0737   22.5286 C   0  0  0  0  0  0
  -21.4016   -6.5643   23.8216 C   0  0  0  0  0  0
  -21.3649   -5.6797   24.9179 C   0  0  0  0  0  0
  -21.6033   -4.3061   24.7228 C   0  0  0  0  0  0
  -21.8822   -3.8149   23.4352 C   0  0  0  0  0  0
  -21.9201   -4.6966   22.3412 C   0  0  0  0  0  0
  -22.7859  -13.5250   21.1821 C   0  0  0  0  0  0
  -22.1676   -4.2146   21.1000 F   0  0  0  0  0  0
  -21.5613   -3.4551   25.7739 F   0  0  0  0  0  0
  -30.0421  -13.2669   20.4619 N   0  0  0  0  0  0
  -26.3042  -12.9330   20.3432 N   0  0  0  0  0  0
  -25.9310  -11.6487   20.5771 N   0  0  0  0  0  0
  -22.0516  -12.8219   22.0380 N   0  0  0  0  0  0
  -25.4346  -15.1880   20.4177 N   0  0  0  0  0  0
  -31.7865  -14.6784   20.0579 O   0  0  0  0  0  0
  -21.6642   -6.8879   21.4254 O   0  0  0  0  0  0
  -22.3546  -14.5569   20.6693 O   0  0  0  0  0  0
  -24.6158  -31.8688   23.2115 C   0  0  0  0  0  0
  -25.9054  -32.4826   23.8403 C   0  0  1  0  0  0
  -27.2323  -27.4360   20.0722 C   0  0  0  0  0  0
  -25.5914  -33.8625   24.2328 N   0  0  0  0  0  0
  -23.4019  -30.4957   21.5531 C   0  0  2  0  0  0
  -24.8447  -28.9650   20.1128 C   0  0  0  0  0  0
  -22.7406  -29.4672   22.4987 C   0  0  0  0  0  0
  -18.0278  -28.1384   22.8496 C   0  0  0  0  0  0
  -24.1491  -36.7320   23.2631 C   0  0  0  0  0  0
  -25.9316  -30.8333   21.3651 C   0  0  0  0  0  0
  -26.0061  -29.4680   20.7104 C   0  0  0  0  0  0
  -27.1974  -28.7057   20.6973 C   0  0  0  0  0  0
  -26.0399  -26.9410   19.4914 C   0  0  0  0  0  0
  -24.8553  -27.6983   19.5075 C   0  0  0  0  0  0
  -23.6083  -29.8332   20.1655 C   0  0  0  0  0  0
  -25.4113  -36.3111   24.0332 C   0  0  1  0  0  0
  -20.5865  -28.3673   23.1321 C   0  0  2  0  0  0
  -20.6777  -26.9412   22.5423 C   0  0  0  0  0  0
  -19.5756  -26.6390   21.5217 C   0  0  0  0  0  0
  -18.1924  -26.7939   22.1613 C   0  0  0  0  0  0
  -19.1525  -28.8846   23.2905 C   0  0  0  0  0  0
  -18.9452  -30.1453   23.8914 C   0  0  0  0  0  0
  -17.6454  -30.6586   24.0579 C   0  0  0  0  0  0
  -25.9041  -34.9477   23.5120 C   0  0  0  0  0  0
  -16.5347  -29.9089   23.6331 C   0  0  0  0  0  0
  -16.7268  -28.6510   23.0347 C   0  0  0  0  0  0
  -26.4468  -31.6600   25.0730 C   0  0  0  0  0  0
  -25.3719  -31.3716   26.1463 C   0  0  0  0  0  0
  -27.0296  -30.3043   24.6104 C   0  0  0  0  0  0
  -27.6036  -32.4313   25.7512 C   0  0  0  0  0  0
  -27.5594  -37.1806   24.8450 C   0  0  0  0  0  0
  -21.4135  -29.3037   22.3718 N   0  0  0  0  0  0
  -26.4292  -37.3805   23.9413 N   0  0  0  0  0  0
  -24.6682  -31.0797   22.1016 N   0  0  0  0  0  0
  -23.4175  -28.8210   23.3028 O   0  0  0  0  0  0
  -28.4117  -26.7139   20.0975 O   0  0  0  0  0  0
  -26.5592  -34.8929   22.4676 O   0  0  0  0  0  0
  -23.5353  -32.1439   23.7511 O   0  0  0  0  0  0
  -30.9125  -16.9069   23.0647 C   0  0  0  0  0  0
  -31.3360  -18.1995   23.4447 C   0  0  0  0  0  0
  -31.3311  -19.2201   22.4522 C   0  0  0  0  0  0
  -30.5279  -16.6466   21.7393 C   0  0  0  0  0  0
  -30.8781  -18.8816   21.1565 C   0  0  0  0  0  0
  -31.7803  -18.4355   24.8444 C   0  0  0  0  0  0
  -29.7554  -24.7447   19.4849 C   0  0  0  0  0  0
  -29.2099  -23.3083   19.7167 C   0  0  0  0  0  0
  -29.7715  -20.7918   20.1303 C   0  0  0  0  0  0
  -28.6959  -25.7811   19.0458 C   0  0  0  0  0  0
  -30.3040  -22.2436   19.9843 C   0  0  1  0  0  0
  -30.4772  -17.6398   20.8155 N   0  0  0  0  0  0
  -31.8877  -17.5412   25.7381 N   0  0  0  0  0  0
  -31.7706  -20.5310   22.7015 N   0  0  0  0  0  0
  -30.1289  -15.3158   21.4626 N   0  0  0  0  0  0
  -30.8788  -19.8338   20.1295 N   0  0  0  0  0  0
  -31.2218  -22.2371   18.9019 O   0  0  0  0  0  0
  -31.4678  -12.4102   19.1164 H   0  0  0  0  0  0
  -30.3283  -11.2872   19.7994 H   0  0  0  0  0  0
  -29.7290  -11.8004   17.4185 H   0  0  0  0  0  0
  -29.6610  -13.5069   17.7827 H   0  0  0  0  0  0
  -27.8202  -11.3186   18.8037 H   0  0  0  0  0  0
  -27.3645  -12.6622   17.7915 H   0  0  0  0  0  0
  -27.7209  -14.2571   19.6098 H   0  0  0  0  0  0
  -28.6769  -11.9100   21.3134 H   0  0  0  0  0  0
  -28.4503  -13.5238   21.8960 H   0  0  0  0  0  0
  -25.2771   -9.5719   22.4727 H   0  0  0  0  0  0
  -24.0013   -7.4655   22.7495 H   0  0  0  0  0  0
  -21.0848   -8.8754   19.8943 H   0  0  0  0  0  0
  -22.3687  -10.9659   19.6124 H   0  0  0  0  0  0
  -21.2007   -7.6147   23.9722 H   0  0  0  0  0  0
  -21.1469   -6.0522   25.9077 H   0  0  0  0  0  0
  -22.0600   -2.7606   23.2864 H   0  0  0  0  0  0
  -22.4181  -11.9884   22.4728 H   0  0  0  0  0  0
  -21.1117  -13.1191   22.2585 H   0  0  0  0  0  0
  -24.6719  -15.8492   20.5203 H   0  0  0  0  0  0
  -26.2972  -15.6271   20.1193 H   0  0  0  0  0  0
  -26.7125  -32.5539   23.1171 H   0  0  0  0  0  0
  -25.0109  -33.9795   25.0504 H   0  0  0  0  0  0
  -22.6915  -31.3131   21.4177 H   0  0  0  0  0  0
  -23.3760  -35.9641   23.3258 H   0  0  0  0  0  0
  -24.3594  -36.8976   22.2052 H   0  0  0  0  0  0
  -23.7222  -37.6507   23.6672 H   0  0  0  0  0  0
  -26.0422  -31.5996   20.5965 H   0  0  0  0  0  0
  -26.8205  -30.8857   21.9824 H   0  0  0  0  0  0
  -28.0949  -29.0909   21.1617 H   0  0  0  0  0  0
  -25.9780  -25.9626   19.0434 H   0  0  0  0  0  0
  -23.9565  -27.2989   19.0586 H   0  0  0  0  0  0
  -23.7177  -30.6105   19.4082 H   0  0  0  0  0  0
  -22.7302  -29.2563   19.8689 H   0  0  0  0  0  0
  -25.1282  -36.1977   25.0824 H   0  0  0  0  0  0
  -20.9967  -28.3247   24.1439 H   0  0  0  0  0  0
  -20.5709  -26.2275   23.3604 H   0  0  0  0  0  0
  -21.6649  -26.7474   22.1201 H   0  0  0  0  0  0
  -19.6923  -25.6301   21.1248 H   0  0  0  0  0  0
  -19.6708  -27.3205   20.6755 H   0  0  0  0  0  0
  -17.4212  -26.6714   21.3993 H   0  0  0  0  0  0
  -18.0300  -26.0067   22.8988 H   0  0  0  0  0  0
  -19.7922  -30.7272   24.2285 H   0  0  0  0  0  0
  -17.5006  -31.6267   24.5176 H   0  0  0  0  0  0
  -15.5349  -30.2998   23.7651 H   0  0  0  0  0  0
  -15.8664  -28.0845   22.7040 H   0  0  0  0  0  0
  -24.5915  -30.7035   25.7800 H   0  0  0  0  0  0
  -24.8882  -32.2876   26.4868 H   0  0  0  0  0  0
  -25.8062  -30.8925   27.0245 H   0  0  0  0  0  0
  -26.2846  -29.6819   24.1136 H   0  0  0  0  0  0
  -27.4034  -29.7267   25.4568 H   0  0  0  0  0  0
  -27.8692  -30.4352   23.9274 H   0  0  0  0  0  0
  -27.2646  -33.3606   26.2107 H   0  0  0  0  0  0
  -28.3857  -32.6880   25.0353 H   0  0  0  0  0  0
  -28.0687  -31.8419   26.5425 H   0  0  0  0  0  0
  -28.2566  -38.0152   24.7570 H   0  0  0  0  0  0
  -28.1138  -36.2684   24.6183 H   0  0  0  0  0  0
  -27.2319  -37.1346   25.8852 H   0  0  0  0  0  0
  -20.9288  -29.8750   21.6938 H   0  0  0  0  0  0
  -26.0176  -38.2874   24.1456 H   0  0  0  0  0  0
  -30.9050  -16.0991   23.7816 H   0  0  0  0  0  0
  -32.0349  -19.4665   25.1020 H   0  0  0  0  0  0
  -30.5070  -24.7055   18.6964 H   0  0  0  0  0  0
  -30.2822  -25.0978   20.3713 H   0  0  0  0  0  0
  -28.6202  -23.0019   18.8517 H   0  0  0  0  0  0
  -28.5164  -23.3249   20.5585 H   0  0  0  0  0  0
  -29.1075  -20.5450   19.3012 H   0  0  0  0  0  0
  -29.1743  -20.7026   21.0400 H   0  0  0  0  0  0
  -27.8355  -25.2479   18.6512 H   0  0  0  0  0  0
  -29.0889  -26.3640   18.2115 H   0  0  0  0  0  0
  -30.8475  -22.5295   20.8858 H   0  0  0  0  0  0
  -31.6253  -16.6364   25.3638 H   0  0  0  0  0  0
  -32.2968  -20.7575   23.5390 H   0  0  0  0  0  0
  -31.9329  -21.1686   21.9322 H   0  0  0  0  0  0
  -29.3345  -14.9664   21.9745 H   0  0  0  0  0  0
  -31.7283  -20.3865   20.1554 H   0  0  0  0  0  0
  -30.7832  -21.8413   18.1551 H   0  0  0  0  0  0
  1 25  1  0  0  0
  1 30  2  0  0  0
  1 85  1  0  0  0
  2  3  1  0  0  0
  2 25  1  0  0  0
  2 88  1  0  0  0
  2 89  1  0  0  0
  3  4  1  0  0  0
  3 90  1  0  0  0
  3 91  1  0  0  0
  4  5  1  0  0  0
  4 92  1  0  0  0
  4 93  1  0  0  0
  5  6  1  0  0  0
  5 26  1  0  0  0
  5 94  1  0  0  0
  6 25  1  0  0  0
  6 95  1  0  0  0
  6 96  1  0  0  0
  7  8  2  0  0  0
  7 26  1  0  0  0
  7 29  1  0  0  0
  8  9  1  0  0  0
  8 22  1  0  0  0
  9 10  1  0  0  0
  9 27  2  0  0  0
 10 11  2  0  0  0
 10 15  1  0  0  0
 11 12  1  0  0  0
 11 97  1  0  0  0
 12 13  2  0  0  0
 12 98  1  0  0  0
 13 14  1  0  0  0
 13 31  1  0  0  0
 14 15  2  0  0  0
 14 99  1  0  0  0
 15100  1  0  0  0
 16 17  2  0  0  0
 16 21  1  0  0  0
 16 31  1  0  0  0
 17 18  1  0  0  0
 17101  1  0  0  0
 18 19  2  0  0  0
 18102  1  0  0  0
 19 20  1  0  0  0
 19 24  1  0  0  0
 20 21  2  0  0  0
 20103  1  0  0  0
 21 23  1  0  0  0
 22 28  1  0  0  0
 22 32  2  0  0  0
 26 27  1  0  0  0
 28104  1  0  0  0
 28105  1  0  0  0
 29106  1  0  0  0
 29107  1  0  0  0
 33 34  1  0  0  0
 33 66  1  0  0  0
 33 70  2  0  0  0
 34 36  1  0  0  0
 34 59  1  0  0  0
 34108  1  0  0  0
 35 44  2  0  0  0
 35 45  1  0  0  0
 35 68  1  0  0  0
 36 56  1  0  0  0
 36109  1  0  0  0
 37 39  1  0  0  0
 37 47  1  0  0  0
 37 66  1  0  0  0
 37110  1  0  0  0
 38 43  2  0  0  0
 38 46  1  0  0  0
 38 47  1  0  0  0
 39 64  1  0  0  0
 39 67  2  0  0  0
 40 52  1  0  0  0
 40 53  2  0  0  0
 40 58  1  0  0  0
 41111  1  0  0  0
 41112  1  0  0  0
 41113  1  0  0  0
 41 48  1  0  0  0
 42 43  1  0  0  0
 42 66  1  0  0  0
 42114  1  0  0  0
 42115  1  0  0  0
 43 44  1  0  0  0
 44116  1  0  0  0
 45 46  2  0  0  0
 45117  1  0  0  0
 46118  1  0  0  0
 47119  1  0  0  0
 47120  1  0  0  0
 48 56  1  0  0  0
 48 65  1  0  0  0
 48121  1  0  0  0
 49 50  1  0  0  0
 49 53  1  0  0  0
 49 64  1  0  0  0
 49122  1  0  0  0
 50 51  1  0  0  0
 50123  1  0  0  0
 50124  1  0  0  0
 51 52  1  0  0  0
 51125  1  0  0  0
 51126  1  0  0  0
 52127  1  0  0  0
 52128  1  0  0  0
 53 54  1  0  0  0
 54 55  2  0  0  0
 54129  1  0  0  0
 55 57  1  0  0  0
 55130  1  0  0  0
 56 69  2  0  0  0
 57 58  2  0  0  0
 57131  1  0  0  0
 58132  1  0  0  0
 59 60  1  0  0  0
 59 61  1  0  0  0
 59 62  1  0  0  0
 60133  1  0  0  0
 60134  1  0  0  0
 60135  1  0  0  0
 61136  1  0  0  0
 61137  1  0  0  0
 61138  1  0  0  0
 62139  1  0  0  0
 62140  1  0  0  0
 62141  1  0  0  0
 63 65  1  0  0  0
 63142  1  0  0  0
 63143  1  0  0  0
 63144  1  0  0  0
 64145  1  0  0  0
 65146  1  0  0  0
 68 80  1  0  0  0
 71 72  2  0  0  0
 71 74  1  0  0  0
 71147  1  0  0  0
 72 73  1  0  0  0
 72 76  1  0  0  0
 73 75  2  0  0  0
 73 84  1  0  0  0
 74 82  2  0  0  0
 74 85  1  0  0  0
 75 82  1  0  0  0
 75 86  1  0  0  0
 76 83  2  0  0  0
 76148  1  0  0  0
 77 78  1  0  0  0
 77 80  1  0  0  0
 77149  1  0  0  0
 77150  1  0  0  0
 78 81  1  0  0  0
 78151  1  0  0  0
 78152  1  0  0  0
 79 81  1  0  0  0
 79 86  1  0  0  0
 79153  1  0  0  0
 79154  1  0  0  0
 80155  1  0  0  0
 80156  1  0  0  0
 81 87  1  0  0  0
 81157  1  0  0  0
 83158  1  0  0  0
 84159  1  0  0  0
 84160  1  0  0  0
 85161  1  0  0  0
 86162  1  0  0  0
 87163  1  0  0  0
M  ISO  4   1 100  68 101  80 101  85 100
M  END
> <chiral flag>
0

> <version>
0

> <s_m_source_file>
/data/baiqing/PycharmProjects/Reinvent-master-3.2/result/LINK_invent/BTK/process_docking_weight1_custom_product_contain_oxygen_bond_distance_aromatic_linkinvent_7_9_3/rearranged_h_0193.sdf

> <i_m_source_file_index>
40

> <r_mmod_Potential_Energy-OPLS-2005>
-313.5234375

> <r_mmod_Stretch_Energy-OPLS-2005>
38.0817451477051

> <r_mmod_Bend_Energy-OPLS-2005>
110.076370239258

> <r_mmod_Torsional_Energy-OPLS-2005>
287.227020263672

> <r_mmod_Improper_Torsional_Energy-OPLS-2005>
9.87981414794922

> <r_mmod_Van_der_Waal_Energy-OPLS-2005>
174.174865722656

> <r_mmod_Electrostatic_Energy-OPLS-2005>
-665.258483886719

> <r_mmod_Solvation_Energy-OPLS-2005>
-277.858459472656

> <b_mmod_Minimization_Converged-OPLS-2005>
0

> <r_mmod_RMS_Derivative-OPLS-2005>
1.89969253540039

$$$$
40
                    3D
 Structure written by MMmdl.
162170  0  0  1  0            999 V2000
  -30.6529  -14.5360   20.5053 C   0  0  0  0  0  0
  -30.4229  -12.3221   19.4550 C   0  0  0  0  0  0
  -29.5107  -12.5065   18.2219 C   0  0  0  0  0  0
  -28.0229  -12.3775   18.6123 C   0  0  0  0  0  0
  -27.6552  -13.2142   19.8683 C   0  0  2  0  0  0
  -28.6922  -13.0244   20.9995 C   0  0  0  0  0  0
  -25.2554  -13.8177   20.5694 C   0  0  0  0  0  0
  -24.1813  -13.0441   20.9175 C   0  0  0  0  0  0
  -24.6375  -11.6913   20.8712 C   0  0  0  0  0  0
  -23.9047  -10.4296   21.0393 C   0  0  0  0  0  0
  -24.3604   -9.4218   21.9175 C   0  0  0  0  0  0
  -23.6288   -8.2250   22.0747 C   0  0  0  0  0  0
  -22.4269   -8.0281   21.3538 C   0  0  0  0  0  0
  -21.9888   -9.0252   20.4641 C   0  0  0  0  0  0
  -22.7212  -10.2137   20.3043 C   0  0  0  0  0  0
  -21.6862   -6.0727   22.5279 C   0  0  0  0  0  0
  -21.4021   -6.5633   23.8209 C   0  0  0  0  0  0
  -21.3666   -5.6789   24.9171 C   0  0  0  0  0  0
  -21.6037   -4.3050   24.7227 C   0  0  0  0  0  0
  -21.8824   -3.8140   23.4352 C   0  0  0  0  0  0
  -21.9195   -4.6953   22.3404 C   0  0  0  0  0  0
  -22.7830  -13.5251   21.1819 C   0  0  0  0  0  0
  -22.1664   -4.2144   21.0984 F   0  0  0  0  0  0
  -21.5621   -3.4533   25.7738 F   0  0  0  0  0  0
  -30.0229  -13.3299   20.4518 N   0  0  0  0  0  0
  -26.2982  -12.9362   20.3301 N   0  0  0  0  0  0
  -25.9303  -11.6519   20.5721 N   0  0  0  0  0  0
  -22.0466  -12.8265   22.0393 N   0  0  0  0  0  0
  -25.4270  -15.1898   20.4118 N   0  0  0  0  0  0
  -31.8103  -14.6928   20.1071 O   0  0  0  0  0  0
  -21.6638   -6.8874   21.4245 O   0  0  0  0  0  0
  -22.3537  -14.5559   20.6644 O   0  0  0  0  0  0
  -24.6199  -31.8661   23.2057 C   0  0  0  0  0  0
  -25.9078  -32.4808   23.8375 C   0  0  1  0  0  0
  -27.2254  -27.3842   20.1030 C   0  0  0  0  0  0
  -25.5926  -33.8615   24.2328 N   0  0  0  0  0  0
  -23.4082  -30.4893   21.5478 C   0  0  2  0  0  0
  -24.8489  -28.9445   20.1125 C   0  0  0  0  0  0
  -22.7427  -29.4670   22.4971 C   0  0  0  0  0  0
  -18.0286  -28.1371   22.8497 C   0  0  0  0  0  0
  -24.1475  -36.7296   23.2637 C   0  0  0  0  0  0
  -25.9396  -30.8158   21.3617 C   0  0  0  0  0  0
  -26.0095  -29.4449   20.7110 C   0  0  0  0  0  0
  -27.1958  -28.6726   20.7017 C   0  0  0  0  0  0
  -26.0386  -26.9020   19.5096 C   0  0  0  0  0  0
  -24.8597  -27.6735   19.5105 C   0  0  0  0  0  0
  -23.6152  -29.8177   20.1627 C   0  0  0  0  0  0
  -25.4098  -36.3113   24.0351 C   0  0  1  0  0  0
  -20.5874  -28.3684   23.1285 C   0  0  2  0  0  0
  -20.6774  -26.9410   22.5401 C   0  0  0  0  0  0
  -19.5753  -26.6383   21.5199 C   0  0  0  0  0  0
  -18.1936  -26.7919   22.1618 C   0  0  0  0  0  0
  -19.1536  -28.8846   23.2892 C   0  0  0  0  0  0
  -18.9454  -30.1440   23.8910 C   0  0  0  0  0  0
  -17.6457  -30.6577   24.0571 C   0  0  0  0  0  0
  -25.9026  -34.9479   23.5134 C   0  0  0  0  0  0
  -16.5352  -29.9080   23.6328 C   0  0  0  0  0  0
  -16.7279  -28.6493   23.0374 C   0  0  0  0  0  0
  -26.4486  -31.6611   25.0736 C   0  0  0  0  0  0
  -25.3739  -31.3737   26.1483 C   0  0  0  0  0  0
  -27.0328  -30.3052   24.6142 C   0  0  0  0  0  0
  -27.6071  -32.4332   25.7506 C   0  0  0  0  0  0
  -27.5585  -37.1798   24.8474 C   0  0  0  0  0  0
  -21.4155  -29.3058   22.3696 N   0  0  0  0  0  0
  -26.4282  -37.3803   23.9434 N   0  0  0  0  0  0
  -24.6751  -31.0729   22.0969 N   0  0  0  0  0  0
  -23.4188  -28.8209   23.3037 O   0  0  0  0  0  0
  -28.4040  -26.6518   20.1680 O   0  0  0  0  0  0
  -26.5578  -34.8947   22.4687 O   0  0  0  0  0  0
  -23.5378  -32.1447   23.7414 O   0  0  0  0  0  0
  -30.2864  -18.5018   21.9508 C   0  0  0  0  0  0
  -29.7811  -18.1799   20.7160 C   0  0  0  0  0  0
  -29.2056  -20.4205   20.8182 C   0  0  0  0  0  0
  -28.5669  -23.3147   22.2792 C   0  0  0  0  0  0
  -27.1786  -22.9349   24.4222 C   0  0  0  0  0  0
  -28.5906  -25.6172   17.9376 C   0  0  0  0  0  0
  -29.9216  -16.8632   19.9643 C   0  0  0  0  0  0
  -27.3439  -22.6425   22.9199 C   0  0  0  0  0  0
  -27.9415  -24.0721   19.9217 C   0  0  0  0  0  0
  -28.8086  -23.0704   20.7771 C   0  0  2  0  0  0
  -28.6438  -25.4056   19.4610 C   0  0  2  0  0  0
  -29.1375  -19.2827   20.1083 N   0  0  0  0  0  0
  -28.6620  -21.6451   20.3925 N   0  0  0  0  0  0
  -29.8471  -15.5994   20.7356 N   0  0  0  0  0  0
  -29.3260  -24.0082   22.9584 O   0  0  0  0  0  0
  -30.0633  -20.1949   22.3423 S   0  0  0  0  0  0
  -31.4722  -12.4155   19.1695 H   0  0  0  0  0  0
  -30.3153  -11.3191   19.8723 H   0  0  0  0  0  0
  -29.7639  -11.7721   17.4572 H   0  0  0  0  0  0
  -29.6923  -13.4875   17.7777 H   0  0  0  0  0  0
  -27.8136  -11.3224   18.7908 H   0  0  0  0  0  0
  -27.3955  -12.6725   17.7700 H   0  0  0  0  0  0
  -27.6850  -14.2580   19.5604 H   0  0  0  0  0  0
  -28.6694  -11.9980   21.3677 H   0  0  0  0  0  0
  -28.4524  -13.6550   21.8567 H   0  0  0  0  0  0
  -25.2758   -9.5708   22.4728 H   0  0  0  0  0  0
  -24.0005   -7.4648   22.7458 H   0  0  0  0  0  0
  -21.0817   -8.8753   19.8957 H   0  0  0  0  0  0
  -22.3659  -10.9656   19.6132 H   0  0  0  0  0  0
  -21.2021   -7.6136   23.9715 H   0  0  0  0  0  0
  -21.1479   -6.0511   25.9076 H   0  0  0  0  0  0
  -22.0597   -2.7600   23.2845 H   0  0  0  0  0  0
  -22.4081  -11.9963   22.4854 H   0  0  0  0  0  0
  -21.1058  -13.1283   22.2527 H   0  0  0  0  0  0
  -24.6582  -15.8436   20.5150 H   0  0  0  0  0  0
  -26.2761  -15.6306   20.0833 H   0  0  0  0  0  0
  -26.7162  -32.5503   23.1146 H   0  0  0  0  0  0
  -25.0157  -33.9774   25.0532 H   0  0  0  0  0  0
  -22.7000  -31.3084   21.4052 H   0  0  0  0  0  0
  -23.3750  -35.9611   23.3304 H   0  0  0  0  0  0
  -24.3552  -36.8894   22.2043 H   0  0  0  0  0  0
  -23.7209  -37.6503   23.6630 H   0  0  0  0  0  0
  -26.0524  -31.5744   20.5853 H   0  0  0  0  0  0
  -26.8299  -30.8724   21.9771 H   0  0  0  0  0  0
  -28.0931  -29.0573   21.1649 H   0  0  0  0  0  0
  -25.9932  -25.9200   19.0648 H   0  0  0  0  0  0
  -23.9617  -27.2755   19.0597 H   0  0  0  0  0  0
  -23.7274  -30.5896   19.4014 H   0  0  0  0  0  0
  -22.7378  -29.2397   19.8689 H   0  0  0  0  0  0
  -25.1262  -36.1979   25.0841 H   0  0  0  0  0  0
  -20.9985  -28.3248   24.1398 H   0  0  0  0  0  0
  -20.5648  -26.2298   23.3596 H   0  0  0  0  0  0
  -21.6646  -26.7429   22.1205 H   0  0  0  0  0  0
  -19.6904  -25.6290   21.1237 H   0  0  0  0  0  0
  -19.6680  -27.3178   20.6709 H   0  0  0  0  0  0
  -17.4204  -26.6688   21.4022 H   0  0  0  0  0  0
  -18.0331  -26.0034   22.8984 H   0  0  0  0  0  0
  -19.7935  -30.7251   24.2284 H   0  0  0  0  0  0
  -17.5026  -31.6259   24.5158 H   0  0  0  0  0  0
  -15.5362  -30.3007   23.7620 H   0  0  0  0  0  0
  -15.8677  -28.0808   22.7102 H   0  0  0  0  0  0
  -24.5905  -30.7095   25.7829 H   0  0  0  0  0  0
  -24.8936  -32.2896   26.4937 H   0  0  0  0  0  0
  -25.8068  -30.8913   27.0253 H   0  0  0  0  0  0
  -26.2890  -29.6822   24.1164 H   0  0  0  0  0  0
  -27.4063  -29.7301   25.4626 H   0  0  0  0  0  0
  -27.8739  -30.4390   23.9332 H   0  0  0  0  0  0
  -27.2703  -33.3630   26.2110 H   0  0  0  0  0  0
  -28.3858  -32.6895   25.0310 H   0  0  0  0  0  0
  -28.0764  -31.8442   26.5401 H   0  0  0  0  0  0
  -28.2608  -38.0093   24.7530 H   0  0  0  0  0  0
  -28.1067  -36.2630   24.6266 H   0  0  0  0  0  0
  -27.2303  -37.1415   25.8875 H   0  0  0  0  0  0
  -20.9308  -29.8777   21.6906 H   0  0  0  0  0  0
  -26.0175  -38.2877   24.1456 H   0  0  0  0  0  0
  -30.8241  -17.8544   22.6298 H   0  0  0  0  0  0
  -26.3879  -22.3207   24.8528 H   0  0  0  0  0  0
  -26.9177  -23.9793   24.5913 H   0  0  0  0  0  0
  -28.0931  -22.7203   24.9780 H   0  0  0  0  0  0
  -29.0456  -24.7724   17.4201 H   0  0  0  0  0  0
  -29.1448  -26.5101   17.6471 H   0  0  0  0  0  0
  -27.5757  -25.7155   17.5553 H   0  0  0  0  0  0
  -29.1380  -16.8034   19.2083 H   0  0  0  0  0  0
  -30.8479  -16.8972   19.3897 H   0  0  0  0  0  0
  -27.4435  -21.5672   22.7763 H   0  0  0  0  0  0
  -26.4488  -22.9473   22.3790 H   0  0  0  0  0  0
  -27.0048  -24.3060   20.4284 H   0  0  0  0  0  0
  -27.6245  -23.5418   19.0245 H   0  0  0  0  0  0
  -29.8582  -23.2912   20.5806 H   0  0  0  0  0  0
  -29.7054  -25.2450   19.6534 H   0  0  0  0  0  0
  -28.1516  -21.5260   19.5267 H   0  0  0  0  0  0
  -28.9397  -15.3827   21.1177 H   0  0  0  0  0  0
  1 25  1  0  0  0
  1 30  2  0  0  0
  1 84  1  0  0  0
  2  3  1  0  0  0
  2 25  1  0  0  0
  2 87  1  0  0  0
  2 88  1  0  0  0
  3  4  1  0  0  0
  3 89  1  0  0  0
  3 90  1  0  0  0
  4  5  1  0  0  0
  4 91  1  0  0  0
  4 92  1  0  0  0
  5  6  1  0  0  0
  5 26  1  0  0  0
  5 93  1  0  0  0
  6 25  1  0  0  0
  6 94  1  0  0  0
  6 95  1  0  0  0
  7  8  2  0  0  0
  7 26  1  0  0  0
  7 29  1  0  0  0
  8  9  1  0  0  0
  8 22  1  0  0  0
  9 10  1  0  0  0
  9 27  2  0  0  0
 10 11  2  0  0  0
 10 15  1  0  0  0
 11 12  1  0  0  0
 11 96  1  0  0  0
 12 13  2  0  0  0
 12 97  1  0  0  0
 13 14  1  0  0  0
 13 31  1  0  0  0
 14 15  2  0  0  0
 14 98  1  0  0  0
 15 99  1  0  0  0
 16 17  2  0  0  0
 16 21  1  0  0  0
 16 31  1  0  0  0
 17 18  1  0  0  0
 17100  1  0  0  0
 18 19  2  0  0  0
 18101  1  0  0  0
 19 20  1  0  0  0
 19 24  1  0  0  0
 20 21  2  0  0  0
 20102  1  0  0  0
 21 23  1  0  0  0
 22 28  1  0  0  0
 22 32  2  0  0  0
 26 27  1  0  0  0
 28103  1  0  0  0
 28104  1  0  0  0
 29105  1  0  0  0
 29106  1  0  0  0
 33 34  1  0  0  0
 33 66  1  0  0  0
 33 70  2  0  0  0
 34 36  1  0  0  0
 34 59  1  0  0  0
 34107  1  0  0  0
 35 44  2  0  0  0
 35 45  1  0  0  0
 35 68  1  0  0  0
 36 56  1  0  0  0
 36108  1  0  0  0
 37 39  1  0  0  0
 37 47  1  0  0  0
 37 66  1  0  0  0
 37109  1  0  0  0
 38 43  2  0  0  0
 38 46  1  0  0  0
 38 47  1  0  0  0
 39 64  1  0  0  0
 39 67  2  0  0  0
 40 52  1  0  0  0
 40 53  2  0  0  0
 40 58  1  0  0  0
 41110  1  0  0  0
 41111  1  0  0  0
 41112  1  0  0  0
 41 48  1  0  0  0
 42 43  1  0  0  0
 42 66  1  0  0  0
 42113  1  0  0  0
 42114  1  0  0  0
 43 44  1  0  0  0
 44115  1  0  0  0
 45 46  2  0  0  0
 45116  1  0  0  0
 46117  1  0  0  0
 47118  1  0  0  0
 47119  1  0  0  0
 48 56  1  0  0  0
 48 65  1  0  0  0
 48120  1  0  0  0
 49 50  1  0  0  0
 49 53  1  0  0  0
 49 64  1  0  0  0
 49121  1  0  0  0
 50 51  1  0  0  0
 50122  1  0  0  0
 50123  1  0  0  0
 51 52  1  0  0  0
 51124  1  0  0  0
 51125  1  0  0  0
 52126  1  0  0  0
 52127  1  0  0  0
 53 54  1  0  0  0
 54 55  2  0  0  0
 54128  1  0  0  0
 55 57  1  0  0  0
 55129  1  0  0  0
 56 69  2  0  0  0
 57 58  2  0  0  0
 57130  1  0  0  0
 58131  1  0  0  0
 59 60  1  0  0  0
 59 61  1  0  0  0
 59 62  1  0  0  0
 60132  1  0  0  0
 60133  1  0  0  0
 60134  1  0  0  0
 61135  1  0  0  0
 61136  1  0  0  0
 61137  1  0  0  0
 62138  1  0  0  0
 62139  1  0  0  0
 62140  1  0  0  0
 63 65  1  0  0  0
 63141  1  0  0  0
 63142  1  0  0  0
 63143  1  0  0  0
 64144  1  0  0  0
 65145  1  0  0  0
 68 81  1  0  0  0
 71 72  2  0  0  0
 71 86  1  0  0  0
 71146  1  0  0  0
 72 77  1  0  0  0
 72 82  1  0  0  0
 73 82  2  0  0  0
 73 83  1  0  0  0
 73 86  1  0  0  0
 74 78  1  0  0  0
 74 80  1  0  0  0
 74 85  2  0  0  0
 75 78  1  0  0  0
 75147  1  0  0  0
 75148  1  0  0  0
 75149  1  0  0  0
 76150  1  0  0  0
 76151  1  0  0  0
 76152  1  0  0  0
 76 81  1  0  0  0
 77 84  1  0  0  0
 77153  1  0  0  0
 77154  1  0  0  0
 78155  1  0  0  0
 78156  1  0  0  0
 79 81  1  0  0  0
 79157  1  0  0  0
 79158  1  0  0  0
 79 80  1  0  0  0
 80 83  1  0  0  0
 80159  1  0  0  0
 81160  1  0  0  0
 83161  1  0  0  0
 84162  1  0  0  0
M  ISO  4   1 100  68 101  81 101  84 100
M  END
> <chiral flag>
0

> <version>
0

> <s_m_source_file>
/data/baiqing/PycharmProjects/Reinvent-master-3.2/result/LINK_invent/BTK/process_docking_weight1_custom_product_contain_oxygen_bond_distance_aromatic_linkinvent_7_9_3/rearranged_h_0193.sdf

> <i_m_source_file_index>
41

> <r_mmod_Potential_Energy-OPLS-2005>
-217.844161987305

> <r_mmod_Stretch_Energy-OPLS-2005>
47.3572082519531

> <r_mmod_Bend_Energy-OPLS-2005>
133.425064086914

> <r_mmod_Torsional_Energy-OPLS-2005>
216.888900756836

> <r_mmod_Improper_Torsional_Energy-OPLS-2005>
9.82740497589111

> <r_mmod_Van_der_Waal_Energy-OPLS-2005>
121.823432922363

> <r_mmod_Electrostatic_Energy-OPLS-2005>
-535.742980957031

> <r_mmod_Solvation_Energy-OPLS-2005>
-235.204528808594

> <b_mmod_Minimization_Converged-OPLS-2005>
0

> <r_mmod_RMS_Derivative-OPLS-2005>
2.80702638626099

$$$$
41
                    3D
 Structure written by MMmdl.
159167  0  0  1  0            999 V2000
  -30.6065  -14.8134   20.3814 C   0  0  0  0  0  0
  -30.4248  -12.4817   19.4903 C   0  0  0  0  0  0
  -29.5250  -12.5025   18.2352 C   0  0  0  0  0  0
  -28.0462  -12.3244   18.6433 C   0  0  0  0  0  0
  -27.6363  -13.2389   19.8303 C   0  0  2  0  0  0
  -28.6786  -13.2287   20.9708 C   0  0  0  0  0  0
  -25.2508  -13.8188   20.5685 C   0  0  0  0  0  0
  -24.1804  -13.0436   20.9184 C   0  0  0  0  0  0
  -24.6406  -11.6919   20.8684 C   0  0  0  0  0  0
  -23.9052  -10.4293   21.0355 C   0  0  0  0  0  0
  -24.3607   -9.4217   21.9153 C   0  0  0  0  0  0
  -23.6308   -8.2234   22.0739 C   0  0  0  0  0  0
  -22.4308   -8.0230   21.3500 C   0  0  0  0  0  0
  -21.9900   -9.0205   20.4628 C   0  0  0  0  0  0
  -22.7214  -10.2107   20.3015 C   0  0  0  0  0  0
  -21.6885   -6.0688   22.5249 C   0  0  0  0  0  0
  -21.4012   -6.5606   23.8176 C   0  0  0  0  0  0
  -21.3671   -5.6765   24.9143 C   0  0  0  0  0  0
  -21.6057   -4.3027   24.7211 C   0  0  0  0  0  0
  -21.8827   -3.8099   23.4344 C   0  0  0  0  0  0
  -21.9186   -4.6900   22.3388 C   0  0  0  0  0  0
  -22.7837  -13.5214   21.1871 C   0  0  0  0  0  0
  -22.1655   -4.2113   21.0951 F   0  0  0  0  0  0
  -21.5667   -3.4519   25.7702 F   0  0  0  0  0  0
  -29.9725  -13.5845   20.3761 N   0  0  0  0  0  0
  -26.2917  -12.9419   20.3125 N   0  0  0  0  0  0
  -25.9320  -11.6559   20.5627 N   0  0  0  0  0  0
  -22.0458  -12.8183   22.0417 N   0  0  0  0  0  0
  -25.4223  -15.1884   20.4074 N   0  0  0  0  0  0
  -31.8256  -14.8067   20.1790 O   0  0  0  0  0  0
  -21.6644   -6.8842   21.4220 O   0  0  0  0  0  0
  -22.3500  -14.5533   20.6725 O   0  0  0  0  0  0
  -24.6292  -31.8586   23.1992 C   0  0  0  0  0  0
  -25.9142  -32.4754   23.8332 C   0  0  1  0  0  0
  -27.2140  -27.2754   20.0935 C   0  0  0  0  0  0
  -25.5946  -33.8560   24.2253 N   0  0  0  0  0  0
  -23.4215  -30.4779   21.5454 C   0  0  2  0  0  0
  -24.8669  -28.9209   20.1169 C   0  0  0  0  0  0
  -22.7465  -29.4606   22.4951 C   0  0  0  0  0  0
  -18.0267  -28.1355   22.8478 C   0  0  0  0  0  0
  -24.1487  -36.7289   23.2625 C   0  0  0  0  0  0
  -25.9687  -30.7699   21.3771 C   0  0  0  0  0  0
  -26.0434  -29.3922   20.7172 C   0  0  0  0  0  0
  -27.2223  -28.5824   20.6920 C   0  0  0  0  0  0
  -26.0166  -26.8650   19.4808 C   0  0  0  0  0  0
  -24.8550  -27.6639   19.4936 C   0  0  0  0  0  0
  -23.6396  -29.8123   20.1631 C   0  0  0  0  0  0
  -25.4117  -36.3080   24.0312 C   0  0  1  0  0  0
  -20.5865  -28.3677   23.1269 C   0  0  2  0  0  0
  -20.6776  -26.9408   22.5408 C   0  0  0  0  0  0
  -19.5768  -26.6359   21.5206 C   0  0  0  0  0  0
  -18.1930  -26.7888   22.1601 C   0  0  0  0  0  0
  -19.1526  -28.8831   23.2866 C   0  0  0  0  0  0
  -18.9451  -30.1429   23.8874 C   0  0  0  0  0  0
  -17.6466  -30.6570   24.0543 C   0  0  0  0  0  0
  -25.9074  -34.9440   23.5088 C   0  0  0  0  0  0
  -16.5355  -29.9074   23.6336 C   0  0  0  0  0  0
  -16.7253  -28.6487   23.0364 C   0  0  0  0  0  0
  -26.4506  -31.6567   25.0696 C   0  0  0  0  0  0
  -25.3738  -31.3739   26.1423 C   0  0  0  0  0  0
  -27.0318  -30.2962   24.6169 C   0  0  0  0  0  0
  -27.6026  -32.4304   25.7499 C   0  0  0  0  0  0
  -27.5592  -37.1800   24.8457 C   0  0  0  0  0  0
  -21.4167  -29.3046   22.3691 N   0  0  0  0  0  0
  -26.4294  -37.3789   23.9404 N   0  0  0  0  0  0
  -24.6935  -31.0512   22.0991 N   0  0  0  0  0  0
  -23.4179  -28.8145   23.3051 O   0  0  0  0  0  0
  -28.3215  -26.4035   20.0504 O   0  0  0  0  0  0
  -26.5632  -34.8926   22.4647 O   0  0  0  0  0  0
  -23.5453  -32.1394   23.7310 O   0  0  0  0  0  0
  -31.5289  -17.7778   19.7686 C   0  0  0  0  0  0
  -31.8887  -19.0948   19.4546 C   0  0  0  0  0  0
  -30.1967  -17.4478   20.0950 C   0  0  0  0  0  0
  -29.7518  -19.8241   19.7639 C   0  0  0  0  0  0
  -33.3059  -19.4406   19.0299 C   0  0  0  0  0  0
  -29.8767  -24.0601   18.7847 C   0  0  0  0  0  0
  -27.4528  -23.5230   18.4142 C   0  0  0  0  0  0
  -28.7436  -22.2404   20.2708 C   0  0  0  0  0  0
  -28.1669  -24.9528   20.4369 C   0  0  0  0  0  0
  -28.5572  -23.6824   19.4881 C   0  0  0  0  0  0
  -31.0019  -20.1021   19.4581 N   0  0  0  0  0  0
  -29.3136  -18.5491   20.0630 N   0  0  0  0  0  0
  -29.8549  -16.0052   20.3938 N   0  0  0  0  0  0
  -28.8832  -20.9360   19.4965 N   0  0  0  0  0  0
  -31.4745  -12.5892   19.2020 H   0  0  0  0  0  0
  -30.3489  -11.5198   19.9977 H   0  0  0  0  0  0
  -29.8346  -11.7093   17.5529 H   0  0  0  0  0  0
  -29.6637  -13.4376   17.6882 H   0  0  0  0  0  0
  -27.9209  -11.2792   18.9277 H   0  0  0  0  0  0
  -27.3978  -12.4807   17.7815 H   0  0  0  0  0  0
  -27.6123  -14.2538   19.4326 H   0  0  0  0  0  0
  -28.7250  -12.2462   21.4452 H   0  0  0  0  0  0
  -28.4015  -13.9364   21.7505 H   0  0  0  0  0  0
  -25.2760   -9.5718   22.4725 H   0  0  0  0  0  0
  -24.0008   -7.4648   22.7487 H   0  0  0  0  0  0
  -21.0820   -8.8718   19.8970 H   0  0  0  0  0  0
  -22.3646  -10.9624   19.6104 H   0  0  0  0  0  0
  -21.2006   -7.6133   23.9664 H   0  0  0  0  0  0
  -21.1513   -6.0492   25.9037 H   0  0  0  0  0  0
  -22.0613   -2.7572   23.2820 H   0  0  0  0  0  0
  -22.4020  -11.9868   22.4869 H   0  0  0  0  0  0
  -21.1047  -13.1221   22.2575 H   0  0  0  0  0  0
  -24.6724  -15.8559   20.5441 H   0  0  0  0  0  0
  -26.2668  -15.6143   20.0512 H   0  0  0  0  0  0
  -26.7175  -32.5403   23.1051 H   0  0  0  0  0  0
  -25.0144  -33.9727   25.0426 H   0  0  0  0  0  0
  -22.7182  -31.3016   21.4004 H   0  0  0  0  0  0
  -23.3787  -35.9598   23.3267 H   0  0  0  0  0  0
  -24.3591  -36.8953   22.2062 H   0  0  0  0  0  0
  -23.7221  -37.6458   23.6680 H   0  0  0  0  0  0
  -26.1036  -31.5368   20.6125 H   0  0  0  0  0  0
  -26.8469  -30.8160   22.0100 H   0  0  0  0  0  0
  -28.1272  -28.9456   21.1597 H   0  0  0  0  0  0
  -25.9727  -25.9106   18.9800 H   0  0  0  0  0  0
  -23.9557  -27.2970   19.0162 H   0  0  0  0  0  0
  -23.7698  -30.5879   19.4071 H   0  0  0  0  0  0
  -22.7545  -29.2490   19.8565 H   0  0  0  0  0  0
  -25.1306  -36.1922   25.0807 H   0  0  0  0  0  0
  -20.9935  -28.3259   24.1394 H   0  0  0  0  0  0
  -20.5676  -26.2300   23.3609 H   0  0  0  0  0  0
  -21.6644  -26.7455   22.1200 H   0  0  0  0  0  0
  -19.6948  -25.6270   21.1248 H   0  0  0  0  0  0
  -19.6693  -27.3149   20.6718 H   0  0  0  0  0  0
  -17.4208  -26.6620   21.3989 H   0  0  0  0  0  0
  -18.0334  -26.0003   22.8976 H   0  0  0  0  0  0
  -19.7940  -30.7221   24.2235 H   0  0  0  0  0  0
  -17.5038  -31.6250   24.5142 H   0  0  0  0  0  0
  -15.5352  -30.2985   23.7656 H   0  0  0  0  0  0
  -15.8635  -28.0792   22.7108 H   0  0  0  0  0  0
  -24.5877  -30.7110   25.7788 H   0  0  0  0  0  0
  -24.8970  -32.2927   26.4847 H   0  0  0  0  0  0
  -25.8063  -30.8918   27.0205 H   0  0  0  0  0  0
  -26.2872  -29.6721   24.1189 H   0  0  0  0  0  0
  -27.3993  -29.7189   25.4678 H   0  0  0  0  0  0
  -27.8779  -30.4211   23.9392 H   0  0  0  0  0  0
  -27.2586  -33.3595   26.2070 H   0  0  0  0  0  0
  -28.3867  -32.6891   25.0362 H   0  0  0  0  0  0
  -28.0659  -31.8432   26.5450 H   0  0  0  0  0  0
  -28.2571  -38.0140   24.7542 H   0  0  0  0  0  0
  -28.1108  -36.2652   24.6206 H   0  0  0  0  0  0
  -27.2297  -37.1368   25.8858 H   0  0  0  0  0  0
  -20.9345  -29.8810   21.6925 H   0  0  0  0  0  0
  -26.0160  -38.2852   24.1445 H   0  0  0  0  0  0
  -32.3032  -17.0277   19.7217 H   0  0  0  0  0  0
  -33.9340  -18.5512   18.9712 H   0  0  0  0  0  0
  -33.7633  -20.1296   19.7405 H   0  0  0  0  0  0
  -33.3096  -19.9100   18.0450 H   0  0  0  0  0  0
  -30.0842  -23.4267   17.9222 H   0  0  0  0  0  0
  -30.7241  -23.9855   19.4648 H   0  0  0  0  0  0
  -29.8550  -25.0889   18.4144 H   0  0  0  0  0  0
  -27.6573  -22.6900   17.7385 H   0  0  0  0  0  0
  -27.3507  -24.4185   17.7932 H   0  0  0  0  0  0
  -26.4811  -23.3291   18.8741 H   0  0  0  0  0  0
  -27.8569  -22.1071   20.8901 H   0  0  0  0  0  0
  -29.5716  -22.3088   20.9759 H   0  0  0  0  0  0
  -28.7905  -24.8570   21.3266 H   0  0  0  0  0  0
  -27.1555  -24.7993   20.8094 H   0  0  0  0  0  0
  -28.8732  -15.8563   20.5801 H   0  0  0  0  0  0
  -29.0975  -21.2578   18.5607 H   0  0  0  0  0  0
  1 25  1  0  0  0
  1 30  2  0  0  0
  1 83  1  0  0  0
  2  3  1  0  0  0
  2 25  1  0  0  0
  2 85  1  0  0  0
  2 86  1  0  0  0
  3  4  1  0  0  0
  3 87  1  0  0  0
  3 88  1  0  0  0
  4  5  1  0  0  0
  4 89  1  0  0  0
  4 90  1  0  0  0
  5  6  1  0  0  0
  5 26  1  0  0  0
  5 91  1  0  0  0
  6 25  1  0  0  0
  6 92  1  0  0  0
  6 93  1  0  0  0
  7  8  2  0  0  0
  7 26  1  0  0  0
  7 29  1  0  0  0
  8  9  1  0  0  0
  8 22  1  0  0  0
  9 10  1  0  0  0
  9 27  2  0  0  0
 10 11  2  0  0  0
 10 15  1  0  0  0
 11 12  1  0  0  0
 11 94  1  0  0  0
 12 13  2  0  0  0
 12 95  1  0  0  0
 13 14  1  0  0  0
 13 31  1  0  0  0
 14 15  2  0  0  0
 14 96  1  0  0  0
 15 97  1  0  0  0
 16 17  2  0  0  0
 16 21  1  0  0  0
 16 31  1  0  0  0
 17 18  1  0  0  0
 17 98  1  0  0  0
 18 19  2  0  0  0
 18 99  1  0  0  0
 19 20  1  0  0  0
 19 24  1  0  0  0
 20 21  2  0  0  0
 20100  1  0  0  0
 21 23  1  0  0  0
 22 28  1  0  0  0
 22 32  2  0  0  0
 26 27  1  0  0  0
 28101  1  0  0  0
 28102  1  0  0  0
 29103  1  0  0  0
 29104  1  0  0  0
 33 34  1  0  0  0
 33 66  1  0  0  0
 33 70  2  0  0  0
 34 36  1  0  0  0
 34 59  1  0  0  0
 34105  1  0  0  0
 35 44  2  0  0  0
 35 45  1  0  0  0
 35 68  1  0  0  0
 36 56  1  0  0  0
 36106  1  0  0  0
 37 39  1  0  0  0
 37 47  1  0  0  0
 37 66  1  0  0  0
 37107  1  0  0  0
 38 43  2  0  0  0
 38 46  1  0  0  0
 38 47  1  0  0  0
 39 64  1  0  0  0
 39 67  2  0  0  0
 40 52  1  0  0  0
 40 53  2  0  0  0
 40 58  1  0  0  0
 41108  1  0  0  0
 41109  1  0  0  0
 41110  1  0  0  0
 41 48  1  0  0  0
 42 43  1  0  0  0
 42 66  1  0  0  0
 42111  1  0  0  0
 42112  1  0  0  0
 43 44  1  0  0  0
 44113  1  0  0  0
 45 46  2  0  0  0
 45114  1  0  0  0
 46115  1  0  0  0
 47116  1  0  0  0
 47117  1  0  0  0
 48 56  1  0  0  0
 48 65  1  0  0  0
 48118  1  0  0  0
 49 50  1  0  0  0
 49 53  1  0  0  0
 49 64  1  0  0  0
 49119  1  0  0  0
 50 51  1  0  0  0
 50120  1  0  0  0
 50121  1  0  0  0
 51 52  1  0  0  0
 51122  1  0  0  0
 51123  1  0  0  0
 52124  1  0  0  0
 52125  1  0  0  0
 53 54  1  0  0  0
 54 55  2  0  0  0
 54126  1  0  0  0
 55 57  1  0  0  0
 55127  1  0  0  0
 56 69  2  0  0  0
 57 58  2  0  0  0
 57128  1  0  0  0
 58129  1  0  0  0
 59 60  1  0  0  0
 59 61  1  0  0  0
 59 62  1  0  0  0
 60130  1  0  0  0
 60131  1  0  0  0
 60132  1  0  0  0
 61133  1  0  0  0
 61134  1  0  0  0
 61135  1  0  0  0
 62136  1  0  0  0
 62137  1  0  0  0
 62138  1  0  0  0
 63 65  1  0  0  0
 63139  1  0  0  0
 63140  1  0  0  0
 63141  1  0  0  0
 64142  1  0  0  0
 65143  1  0  0  0
 68 79  1  0  0  0
 71 72  2  0  0  0
 71 73  1  0  0  0
 71144  1  0  0  0
 72 75  1  0  0  0
 72 81  1  0  0  0
 73 82  2  0  0  0
 73 83  1  0  0  0
 74 81  2  0  0  0
 74 82  1  0  0  0
 74 84  1  0  0  0
 75145  1  0  0  0
 75146  1  0  0  0
 75147  1  0  0  0
 76148  1  0  0  0
 76149  1  0  0  0
 76150  1  0  0  0
 76 80  1  0  0  0
 77 80  1  0  0  0
 77151  1  0  0  0
 77152  1  0  0  0
 77153  1  0  0  0
 78 80  1  0  0  0
 78 84  1  0  0  0
 78154  1  0  0  0
 78155  1  0  0  0
 79 80  1  0  0  0
 79156  1  0  0  0
 79157  1  0  0  0
 83158  1  0  0  0
 84159  1  0  0  0
M  ISO  4   1 100  68 101  79 101  83 100
M  END
> <chiral flag>
0

> <version>
0

> <s_m_source_file>
/data/baiqing/PycharmProjects/Reinvent-master-3.2/result/LINK_invent/BTK/process_docking_weight1_custom_product_contain_oxygen_bond_distance_aromatic_linkinvent_7_9_3/rearranged_h_0193.sdf

> <i_m_source_file_index>
42

> <r_mmod_Potential_Energy-OPLS-2005>
-235.720825195312

> <r_mmod_Stretch_Energy-OPLS-2005>
148.969741821289

> <r_mmod_Bend_Energy-OPLS-2005>
202.648651123047

> <r_mmod_Torsional_Energy-OPLS-2005>
282.368560791016

> <r_mmod_Improper_Torsional_Energy-OPLS-2005>
12.1819362640381

> <r_mmod_Van_der_Waal_Energy-OPLS-2005>
144.64875793457

> <r_mmod_Electrostatic_Energy-OPLS-2005>
-897.106323242188

> <r_mmod_Solvation_Energy-OPLS-2005>
-228.405639648438

> <b_mmod_Minimization_Converged-OPLS-2005>
0

> <r_mmod_RMS_Derivative-OPLS-2005>
7.07541847229004

$$$$
42
                    3D
 Structure written by MMmdl.
158166  0  0  1  0            999 V2000
  -30.6286  -14.5878   20.5495 C   0  0  0  0  0  0
  -30.4440  -12.3756   19.4301 C   0  0  0  0  0  0
  -29.5041  -12.5025   18.2112 C   0  0  0  0  0  0
  -28.0297  -12.3356   18.6312 C   0  0  0  0  0  0
  -27.6587  -13.1990   19.8658 C   0  0  2  0  0  0
  -28.7041  -13.0222   20.9895 C   0  0  0  0  0  0
  -25.2620  -13.8132   20.5696 C   0  0  0  0  0  0
  -24.1856  -13.0416   20.9191 C   0  0  0  0  0  0
  -24.6387  -11.6882   20.8741 C   0  0  0  0  0  0
  -23.9049  -10.4273   21.0411 C   0  0  0  0  0  0
  -24.3605   -9.4190   21.9186 C   0  0  0  0  0  0
  -23.6279   -8.2233   22.0759 C   0  0  0  0  0  0
  -22.4270   -8.0275   21.3539 C   0  0  0  0  0  0
  -21.9896   -9.0249   20.4651 C   0  0  0  0  0  0
  -22.7224  -10.2121   20.3059 C   0  0  0  0  0  0
  -21.6851   -6.0728   22.5270 C   0  0  0  0  0  0
  -21.4010   -6.5640   23.8202 C   0  0  0  0  0  0
  -21.3660   -5.6799   24.9169 C   0  0  0  0  0  0
  -21.6051   -4.3063   24.7226 C   0  0  0  0  0  0
  -21.8824   -3.8143   23.4352 C   0  0  0  0  0  0
  -21.9191   -4.6954   22.3399 C   0  0  0  0  0  0
  -22.7884  -13.5239   21.1858 C   0  0  0  0  0  0
  -22.1667   -4.2152   21.0973 F   0  0  0  0  0  0
  -21.5626   -3.4541   25.7735 F   0  0  0  0  0  0
  -30.0194  -13.3705   20.4293 N   0  0  0  0  0  0
  -26.3015  -12.9275   20.3320 N   0  0  0  0  0  0
  -25.9309  -11.6450   20.5755 N   0  0  0  0  0  0
  -22.0516  -12.8215   22.0404 N   0  0  0  0  0  0
  -25.4318  -15.1852   20.4138 N   0  0  0  0  0  0
  -31.7907  -14.7836   20.1752 O   0  0  0  0  0  0
  -21.6635   -6.8869   21.4235 O   0  0  0  0  0  0
  -22.3577  -14.5549   20.6716 O   0  0  0  0  0  0
  -24.6192  -31.8651   23.2040 C   0  0  0  0  0  0
  -25.9069  -32.4787   23.8357 C   0  0  1  0  0  0
  -27.2288  -27.3818   20.1209 C   0  0  0  0  0  0
  -25.5939  -33.8593   24.2306 N   0  0  0  0  0  0
  -23.4097  -30.4860   21.5419 C   0  0  2  0  0  0
  -24.8566  -28.9417   20.1116 C   0  0  0  0  0  0
  -22.7434  -29.4662   22.4941 C   0  0  0  0  0  0
  -18.0306  -28.1369   22.8433 C   0  0  0  0  0  0
  -24.1525  -36.7330   23.2623 C   0  0  0  0  0  0
  -25.9416  -30.8152   21.3632 C   0  0  0  0  0  0
  -26.0185  -29.4447   20.7114 C   0  0  0  0  0  0
  -27.2101  -28.6763   20.7036 C   0  0  0  0  0  0
  -26.0505  -26.9037   19.5106 C   0  0  0  0  0  0
  -24.8711  -27.6757   19.5020 C   0  0  0  0  0  0
  -23.6194  -29.8106   20.1588 C   0  0  0  0  0  0
  -25.4136  -36.3103   24.0329 C   0  0  1  0  0  0
  -20.5889  -28.3679   23.1260 C   0  0  2  0  0  0
  -20.6816  -26.9410   22.5380 C   0  0  0  0  0  0
  -19.5812  -26.6364   21.5168 C   0  0  0  0  0  0
  -18.1981  -26.7910   22.1566 C   0  0  0  0  0  0
  -19.1550  -28.8835   23.2847 C   0  0  0  0  0  0
  -18.9468  -30.1428   23.8876 C   0  0  0  0  0  0
  -17.6468  -30.6562   24.0540 C   0  0  0  0  0  0
  -25.9043  -34.9460   23.5103 C   0  0  0  0  0  0
  -16.5365  -29.9071   23.6282 C   0  0  0  0  0  0
  -16.7287  -28.6495   23.0282 C   0  0  0  0  0  0
  -26.4477  -31.6589   25.0710 C   0  0  0  0  0  0
  -25.3703  -31.3721   26.1430 C   0  0  0  0  0  0
  -27.0321  -30.3031   24.6099 C   0  0  0  0  0  0
  -27.6058  -32.4317   25.7464 C   0  0  0  0  0  0
  -27.5608  -37.1821   24.8445 C   0  0  0  0  0  0
  -21.4165  -29.3063   22.3680 N   0  0  0  0  0  0
  -26.4326  -37.3775   23.9380 N   0  0  0  0  0  0
  -24.6749  -31.0710   22.0940 N   0  0  0  0  0  0
  -23.4180  -28.8186   23.2992 O   0  0  0  0  0  0
  -28.3867  -26.6212   20.1270 O   0  0  0  0  0  0
  -26.5572  -34.8892   22.4648 O   0  0  0  0  0  0
  -23.5371  -32.1451   23.7379 O   0  0  0  0  0  0
  -30.3334  -17.2887   22.6034 C   0  0  0  0  0  0
  -29.9669  -19.6554   22.1521 C   0  0  0  0  0  0
  -30.3195  -18.6293   23.0506 C   0  0  0  0  0  0
  -29.9909  -16.9750   21.2663 C   0  0  0  0  0  0
  -29.6147  -19.3408   20.8221 C   0  0  0  0  0  0
  -28.2610  -24.1804   19.4238 C   0  0  0  0  0  0
  -28.5722  -21.6113   20.2220 C   0  0  0  0  0  0
  -28.3143  -25.2353   20.5743 C   0  0  0  0  0  0
  -29.1539  -22.8802   19.4986 C   0  0  1  0  0  0
  -29.6449  -18.0191   20.4454 N   0  3  0  0  0  0
  -30.6355  -18.9407   24.3792 N   0  0  0  0  0  0
  -29.7749  -15.6007   20.8791 N   0  0  0  0  0  0
  -29.2518  -20.3348   19.8759 N   0  0  0  0  0  0
  -29.3771  -22.5129   18.1433 O   0  0  0  0  0  0
  -31.4819  -12.5189   19.1249 H   0  0  0  0  0  0
  -30.3920  -11.3715   19.8517 H   0  0  0  0  0  0
  -29.7627  -11.7549   17.4601 H   0  0  0  0  0  0
  -29.6426  -13.4736   17.7351 H   0  0  0  0  0  0
  -27.8704  -11.2800   18.8579 H   0  0  0  0  0  0
  -27.3695  -12.5680   17.7949 H   0  0  0  0  0  0
  -27.6877  -14.2365   19.5347 H   0  0  0  0  0  0
  -28.7159  -11.9933   21.3516 H   0  0  0  0  0  0
  -28.4547  -13.6338   21.8569 H   0  0  0  0  0  0
  -25.2749   -9.5680   22.4758 H   0  0  0  0  0  0
  -24.0004   -7.4628   22.7474 H   0  0  0  0  0  0
  -21.0836   -8.8761   19.8946 H   0  0  0  0  0  0
  -22.3687  -10.9664   19.6177 H   0  0  0  0  0  0
  -21.2002   -7.6151   23.9711 H   0  0  0  0  0  0
  -21.1481   -6.0524   25.9075 H   0  0  0  0  0  0
  -22.0602   -2.7610   23.2843 H   0  0  0  0  0  0
  -22.4143  -11.9863   22.4754 H   0  0  0  0  0  0
  -21.1133  -13.1236   22.2635 H   0  0  0  0  0  0
  -24.6566  -15.8300   20.5291 H   0  0  0  0  0  0
  -26.2718  -15.6337   20.0698 H   0  0  0  0  0  0
  -26.7117  -32.5481   23.1098 H   0  0  0  0  0  0
  -25.0192  -33.9751   25.0515 H   0  0  0  0  0  0
  -22.6985  -31.3014   21.3952 H   0  0  0  0  0  0
  -23.3769  -35.9671   23.3278 H   0  0  0  0  0  0
  -24.3634  -36.8965   22.2032 H   0  0  0  0  0  0
  -23.7307  -37.6540   23.6662 H   0  0  0  0  0  0
  -26.0541  -31.5744   20.5900 H   0  0  0  0  0  0
  -26.8292  -30.8749   21.9815 H   0  0  0  0  0  0
  -28.1075  -29.0623   21.1681 H   0  0  0  0  0  0
  -26.0314  -25.9337   19.0346 H   0  0  0  0  0  0
  -23.9827  -27.2841   19.0266 H   0  0  0  0  0  0
  -23.7239  -30.5788   19.3928 H   0  0  0  0  0  0
  -22.7443  -29.2282   19.8640 H   0  0  0  0  0  0
  -25.1316  -36.1955   25.0824 H   0  0  0  0  0  0
  -20.9956  -28.3263   24.1394 H   0  0  0  0  0  0
  -20.5729  -26.2293   23.3580 H   0  0  0  0  0  0
  -21.6695  -26.7504   22.1173 H   0  0  0  0  0  0
  -19.6995  -25.6267   21.1236 H   0  0  0  0  0  0
  -19.6759  -27.3129   20.6655 H   0  0  0  0  0  0
  -17.4261  -26.6591   21.3965 H   0  0  0  0  0  0
  -18.0423  -26.0062   22.8971 H   0  0  0  0  0  0
  -19.7950  -30.7219   24.2262 H   0  0  0  0  0  0
  -17.5041  -31.6230   24.5168 H   0  0  0  0  0  0
  -15.5372  -30.2956   23.7635 H   0  0  0  0  0  0
  -15.8689  -28.0820   22.6962 H   0  0  0  0  0  0
  -24.5893  -30.7037   25.7787 H   0  0  0  0  0  0
  -24.8840  -32.2873   26.4816 H   0  0  0  0  0  0
  -25.8015  -30.8944   27.0243 H   0  0  0  0  0  0
  -26.2875  -29.6765   24.1158 H   0  0  0  0  0  0
  -27.4121  -29.7287   25.4565 H   0  0  0  0  0  0
  -27.8706  -30.4385   23.9252 H   0  0  0  0  0  0
  -27.2715  -33.3638   26.2033 H   0  0  0  0  0  0
  -28.3872  -32.6836   25.0284 H   0  0  0  0  0  0
  -28.0722  -31.8433   26.5383 H   0  0  0  0  0  0
  -28.2591  -38.0146   24.7521 H   0  0  0  0  0  0
  -28.1158  -36.2676   24.6270 H   0  0  0  0  0  0
  -27.2318  -37.1457   25.8845 H   0  0  0  0  0  0
  -20.9343  -29.8817   21.6915 H   0  0  0  0  0  0
  -26.0210  -38.2862   24.1351 H   0  0  0  0  0  0
  -30.5666  -16.4973   23.3023 H   0  0  0  0  0  0
  -29.9744  -20.6811   22.4853 H   0  0  0  0  0  0
  -28.5610  -24.7346   18.5323 H   0  0  0  0  0  0
  -27.2225  -23.8997   19.2446 H   0  0  0  0  0  0
  -27.5310  -21.4972   19.9170 H   0  0  0  0  0  0
  -28.5430  -21.7747   21.2977 H   0  0  0  0  0  0
  -27.4717  -25.0888   21.2536 H   0  0  0  0  0  0
  -29.2016  -25.0620   21.1825 H   0  0  0  0  0  0
  -30.1244  -23.1348   19.9258 H   0  0  0  0  0  0
  -29.3713  -17.7955   19.4865 H   0  0  0  0  0  0
  -30.5407  -18.1967   25.0616 H   0  0  0  0  0  0
  -30.2916  -19.8227   24.7441 H   0  0  0  0  0  0
  -28.8397  -15.2643   21.0451 H   0  0  0  0  0  0
  -29.0664  -20.0180   18.9365 H   0  0  0  0  0  0
  -30.2013  -22.0358   18.1016 H   0  0  0  0  0  0
  1 25  1  0  0  0
  1 30  2  0  0  0
  1 82  1  0  0  0
  2  3  1  0  0  0
  2 25  1  0  0  0
  2 85  1  0  0  0
  2 86  1  0  0  0
  3  4  1  0  0  0
  3 87  1  0  0  0
  3 88  1  0  0  0
  4  5  1  0  0  0
  4 89  1  0  0  0
  4 90  1  0  0  0
  5  6  1  0  0  0
  5 26  1  0  0  0
  5 91  1  0  0  0
  6 25  1  0  0  0
  6 92  1  0  0  0
  6 93  1  0  0  0
  7  8  2  0  0  0
  7 26  1  0  0  0
  7 29  1  0  0  0
  8  9  1  0  0  0
  8 22  1  0  0  0
  9 10  1  0  0  0
  9 27  2  0  0  0
 10 11  2  0  0  0
 10 15  1  0  0  0
 11 12  1  0  0  0
 11 94  1  0  0  0
 12 13  2  0  0  0
 12 95  1  0  0  0
 13 14  1  0  0  0
 13 31  1  0  0  0
 14 15  2  0  0  0
 14 96  1  0  0  0
 15 97  1  0  0  0
 16 17  2  0  0  0
 16 21  1  0  0  0
 16 31  1  0  0  0
 17 18  1  0  0  0
 17 98  1  0  0  0
 18 19  2  0  0  0
 18 99  1  0  0  0
 19 20  1  0  0  0
 19 24  1  0  0  0
 20 21  2  0  0  0
 20100  1  0  0  0
 21 23  1  0  0  0
 22 28  1  0  0  0
 22 32  2  0  0  0
 26 27  1  0  0  0
 28101  1  0  0  0
 28102  1  0  0  0
 29103  1  0  0  0
 29104  1  0  0  0
 33 34  1  0  0  0
 33 66  1  0  0  0
 33 70  2  0  0  0
 34 36  1  0  0  0
 34 59  1  0  0  0
 34105  1  0  0  0
 35 44  2  0  0  0
 35 45  1  0  0  0
 35 68  1  0  0  0
 36 56  1  0  0  0
 36106  1  0  0  0
 37 39  1  0  0  0
 37 47  1  0  0  0
 37 66  1  0  0  0
 37107  1  0  0  0
 38 43  2  0  0  0
 38 46  1  0  0  0
 38 47  1  0  0  0
 39 64  1  0  0  0
 39 67  2  0  0  0
 40 52  1  0  0  0
 40 53  2  0  0  0
 40 58  1  0  0  0
 41108  1  0  0  0
 41109  1  0  0  0
 41110  1  0  0  0
 41 48  1  0  0  0
 42 43  1  0  0  0
 42 66  1  0  0  0
 42111  1  0  0  0
 42112  1  0  0  0
 43 44  1  0  0  0
 44113  1  0  0  0
 45 46  2  0  0  0
 45114  1  0  0  0
 46115  1  0  0  0
 47116  1  0  0  0
 47117  1  0  0  0
 48 56  1  0  0  0
 48 65  1  0  0  0
 48118  1  0  0  0
 49 50  1  0  0  0
 49 53  1  0  0  0
 49 64  1  0  0  0
 49119  1  0  0  0
 50 51  1  0  0  0
 50120  1  0  0  0
 50121  1  0  0  0
 51 52  1  0  0  0
 51122  1  0  0  0
 51123  1  0  0  0
 52124  1  0  0  0
 52125  1  0  0  0
 53 54  1  0  0  0
 54 55  2  0  0  0
 54126  1  0  0  0
 55 57  1  0  0  0
 55127  1  0  0  0
 56 69  2  0  0  0
 57 58  2  0  0  0
 57128  1  0  0  0
 58129  1  0  0  0
 59 60  1  0  0  0
 59 61  1  0  0  0
 59 62  1  0  0  0
 60130  1  0  0  0
 60131  1  0  0  0
 60132  1  0  0  0
 61133  1  0  0  0
 61134  1  0  0  0
 61135  1  0  0  0
 62136  1  0  0  0
 62137  1  0  0  0
 62138  1  0  0  0
 63 65  1  0  0  0
 63139  1  0  0  0
 63140  1  0  0  0
 63141  1  0  0  0
 64142  1  0  0  0
 65143  1  0  0  0
 68 78  1  0  0  0
 71 73  2  0  0  0
 71 74  1  0  0  0
 71144  1  0  0  0
 72 73  1  0  0  0
 72 75  2  0  0  0
 72145  1  0  0  0
 73 81  1  0  0  0
 74 80  2  0  0  0
 74 82  1  0  0  0
 75 80  1  0  0  0
 75 83  1  0  0  0
 76 78  1  0  0  0
 76 79  1  0  0  0
 76146  1  0  0  0
 76147  1  0  0  0
 77 79  1  0  0  0
 77 83  1  0  0  0
 77148  1  0  0  0
 77149  1  0  0  0
 78150  1  0  0  0
 78151  1  0  0  0
 79 84  1  0  0  0
 79152  1  0  0  0
 80153  1  0  0  0
 81154  1  0  0  0
 81155  1  0  0  0
 82156  1  0  0  0
 83157  1  0  0  0
 84158  1  0  0  0
M  CHG  1  80   1
M  ISO  4   1 100  68 101  78 101  82 100
M  END
> <chiral flag>
0

> <version>
0

> <s_m_source_file>
/data/baiqing/PycharmProjects/Reinvent-master-3.2/result/LINK_invent/BTK/process_docking_weight1_custom_product_contain_oxygen_bond_distance_aromatic_linkinvent_7_9_3/rearranged_h_0193.sdf

> <i_m_source_file_index>
43

> <r_mmod_Potential_Energy-OPLS-2005>
-29.0143260955811

> <r_mmod_Stretch_Energy-OPLS-2005>
55.0950508117676

> <r_mmod_Bend_Energy-OPLS-2005>
128.880554199219

> <r_mmod_Torsional_Energy-OPLS-2005>
295.789001464844

> <r_mmod_Improper_Torsional_Energy-OPLS-2005>
13.1569061279297

> <r_mmod_Van_der_Waal_Energy-OPLS-2005>
145.444290161133

> <r_mmod_Electrostatic_Energy-OPLS-2005>
-229.352416992188

> <r_mmod_Solvation_Energy-OPLS-2005>
-467.461059570312

> <b_mmod_Minimization_Converged-OPLS-2005>
0

> <r_mmod_RMS_Derivative-OPLS-2005>
3.11732602119446

$$$$
43
                    3D
 Structure written by MMmdl.
153161  0  0  1  0            999 V2000
  -30.7406  -14.5062   20.5199 C   0  0  0  0  0  0
  -30.4138  -12.3062   19.4648 C   0  0  0  0  0  0
  -29.5039  -12.4721   18.2300 C   0  0  0  0  0  0
  -28.0281  -12.3275   18.6431 C   0  0  0  0  0  0
  -27.6577  -13.2170   19.8594 C   0  0  2  0  0  0
  -28.6983  -13.0922   20.9976 C   0  0  0  0  0  0
  -25.2579  -13.8178   20.5696 C   0  0  0  0  0  0
  -24.1838  -13.0454   20.9194 C   0  0  0  0  0  0
  -24.6421  -11.6917   20.8747 C   0  0  0  0  0  0
  -23.9084  -10.4298   21.0403 C   0  0  0  0  0  0
  -24.3618   -9.4216   21.9192 C   0  0  0  0  0  0
  -23.6299   -8.2246   22.0766 C   0  0  0  0  0  0
  -22.4281   -8.0274   21.3542 C   0  0  0  0  0  0
  -21.9920   -9.0248   20.4633 C   0  0  0  0  0  0
  -22.7259  -10.2138   20.3045 C   0  0  0  0  0  0
  -21.6851   -6.0736   22.5279 C   0  0  0  0  0  0
  -21.4021   -6.5642   23.8217 C   0  0  0  0  0  0
  -21.3664   -5.6794   24.9174 C   0  0  0  0  0  0
  -21.6040   -4.3060   24.7221 C   0  0  0  0  0  0
  -21.8820   -3.8150   23.4350 C   0  0  0  0  0  0
  -21.9196   -4.6964   22.3399 C   0  0  0  0  0  0
  -22.7857  -13.5231   21.1843 C   0  0  0  0  0  0
  -22.1660   -4.2148   21.0980 F   0  0  0  0  0  0
  -21.5629   -3.4539   25.7739 F   0  0  0  0  0  0
  -30.0289  -13.3508   20.4313 N   0  0  0  0  0  0
  -26.3015  -12.9379   20.3293 N   0  0  0  0  0  0
  -25.9348  -11.6530   20.5761 N   0  0  0  0  0  0
  -22.0479  -12.8178   22.0377 N   0  0  0  0  0  0
  -25.4252  -15.1905   20.4066 N   0  0  0  0  0  0
  -31.8976  -14.5933   20.1082 O   0  0  0  0  0  0
  -21.6644   -6.8877   21.4244 O   0  0  0  0  0  0
  -22.3556  -14.5545   20.6724 O   0  0  0  0  0  0
  -24.6199  -31.8719   23.2116 C   0  0  0  0  0  0
  -25.9099  -32.4836   23.8396 C   0  0  1  0  0  0
  -27.2095  -27.4258   20.0799 C   0  0  0  0  0  0
  -25.6004  -33.8625   24.2374 N   0  0  0  0  0  0
  -23.4026  -30.5019   21.5568 C   0  0  2  0  0  0
  -24.8414  -28.9848   20.1062 C   0  0  0  0  0  0
  -22.7422  -29.4680   22.5012 C   0  0  0  0  0  0
  -18.0282  -28.1377   22.8494 C   0  0  0  0  0  0
  -24.1457  -36.7295   23.2626 C   0  0  0  0  0  0
  -25.9345  -30.8413   21.3573 C   0  0  0  0  0  0
  -26.0099  -29.4768   20.7020 C   0  0  0  0  0  0
  -27.1992  -28.7037   20.6877 C   0  0  0  0  0  0
  -26.0252  -26.9830   19.4398 C   0  0  0  0  0  0
  -24.8473  -27.7391   19.4698 C   0  0  0  0  0  0
  -23.6069  -29.8492   20.1668 C   0  0  0  0  0  0
  -25.4069  -36.3100   24.0349 C   0  0  1  0  0  0
  -20.5889  -28.3630   23.1317 C   0  0  2  0  0  0
  -20.6780  -26.9392   22.5358 C   0  0  0  0  0  0
  -19.5733  -26.6445   21.5161 C   0  0  0  0  0  0
  -18.1917  -26.7936   22.1595 C   0  0  0  0  0  0
  -19.1536  -28.8818   23.2893 C   0  0  0  0  0  0
  -18.9464  -30.1441   23.8867 C   0  0  0  0  0  0
  -17.6451  -30.6562   24.0584 C   0  0  0  0  0  0
  -25.9039  -34.9472   23.5141 C   0  0  0  0  0  0
  -16.5337  -29.9048   23.6384 C   0  0  0  0  0  0
  -16.7278  -28.6499   23.0362 C   0  0  0  0  0  0
  -26.4504  -31.6579   25.0695 C   0  0  0  0  0  0
  -25.3794  -31.3667   26.1472 C   0  0  0  0  0  0
  -27.0339  -30.3050   24.5984 C   0  0  0  0  0  0
  -27.6104  -32.4261   25.7470 C   0  0  0  0  0  0
  -27.5549  -37.1754   24.8488 C   0  0  0  0  0  0
  -21.4145  -29.3011   22.3721 N   0  0  0  0  0  0
  -26.4260  -37.3798   23.9452 N   0  0  0  0  0  0
  -24.6727  -31.0836   22.1021 N   0  0  0  0  0  0
  -23.4195  -28.8207   23.3049 O   0  0  0  0  0  0
  -28.3390  -26.6167   20.1431 O   0  0  0  0  0  0
  -26.5539  -34.8917   22.4648 O   0  0  0  0  0  0
  -23.5399  -32.1463   23.7532 O   0  0  0  0  0  0
  -28.4253  -18.1902   21.1185 C   0  0  0  0  0  0
  -29.7690  -18.1639   20.8370 C   0  0  0  0  0  0
  -29.3881  -20.4252   20.7000 C   0  0  0  0  0  0
  -28.8998  -22.7611   20.0939 C   0  0  0  0  0  0
  -27.4277  -25.0213   21.7670 C   0  0  0  0  0  0
  -30.6793  -16.9610   20.7107 C   0  0  0  0  0  0
  -29.3137  -24.2544   20.1919 C   0  0  0  0  0  0
  -28.0861  -25.2025   20.3751 C   0  0  2  0  0  0
  -30.3054  -19.4510   20.6229 N   0  0  0  0  0  0
  -29.7400  -21.7956   20.5162 N   0  0  0  0  0  0
  -30.0814  -15.6231   20.8880 N   0  0  0  0  0  0
  -27.8139  -22.4863   19.5761 O   0  0  0  0  0  0
  -27.7785  -19.8131   21.0973 S   0  0  0  0  0  0
  -31.4670  -12.3618   19.1760 H   0  0  0  0  0  0
  -30.2817  -11.3197   19.9108 H   0  0  0  0  0  0
  -29.7586  -11.7262   17.4744 H   0  0  0  0  0  0
  -29.6735  -13.4473   17.7714 H   0  0  0  0  0  0
  -27.8660  -11.2784   18.8944 H   0  0  0  0  0  0
  -27.3766  -12.5395   17.7963 H   0  0  0  0  0  0
  -27.6774  -14.2442   19.5002 H   0  0  0  0  0  0
  -28.6714  -12.0992   21.4462 H   0  0  0  0  0  0
  -28.4678  -13.7916   21.8006 H   0  0  0  0  0  0
  -25.2757   -9.5701   22.4770 H   0  0  0  0  0  0
  -23.9999   -7.4652   22.7498 H   0  0  0  0  0  0
  -21.0854   -8.8758   19.8933 H   0  0  0  0  0  0
  -22.3714  -10.9659   19.6136 H   0  0  0  0  0  0
  -21.2018   -7.6148   23.9716 H   0  0  0  0  0  0
  -21.1485   -6.0526   25.9081 H   0  0  0  0  0  0
  -22.0596   -2.7603   23.2846 H   0  0  0  0  0  0
  -22.4069  -11.9802   22.4685 H   0  0  0  0  0  0
  -21.1095  -13.1187   22.2537 H   0  0  0  0  0  0
  -24.6496  -15.8357   20.5072 H   0  0  0  0  0  0
  -26.2484  -15.6203   20.0040 H   0  0  0  0  0  0
  -26.7166  -32.5564   23.1163 H   0  0  0  0  0  0
  -25.0298  -33.9819   25.0616 H   0  0  0  0  0  0
  -22.6921  -31.3189   21.4258 H   0  0  0  0  0  0
  -23.3757  -35.9615   23.3308 H   0  0  0  0  0  0
  -24.3551  -36.8892   22.2045 H   0  0  0  0  0  0
  -23.7201  -37.6475   23.6638 H   0  0  0  0  0  0
  -26.0251  -31.6078   20.5841 H   0  0  0  0  0  0
  -26.8310  -30.9083   21.9613 H   0  0  0  0  0  0
  -28.0928  -29.0737   21.1697 H   0  0  0  0  0  0
  -25.9663  -26.0554   18.8942 H   0  0  0  0  0  0
  -23.9573  -27.3621   18.9867 H   0  0  0  0  0  0
  -23.7022  -30.6292   19.4115 H   0  0  0  0  0  0
  -22.7288  -29.2710   19.8751 H   0  0  0  0  0  0
  -25.1240  -36.1949   25.0860 H   0  0  0  0  0  0
  -20.9981  -28.3173   24.1435 H   0  0  0  0  0  0
  -20.5727  -26.2211   23.3522 H   0  0  0  0  0  0
  -21.6636  -26.7485   22.1079 H   0  0  0  0  0  0
  -19.6890  -25.6394   21.1105 H   0  0  0  0  0  0
  -19.6663  -27.3345   20.6760 H   0  0  0  0  0  0
  -17.4206  -26.6776   21.3980 H   0  0  0  0  0  0
  -18.0255  -26.0046   22.8943 H   0  0  0  0  0  0
  -19.7930  -30.7310   24.2192 H   0  0  0  0  0  0
  -17.4990  -31.6235   24.5187 H   0  0  0  0  0  0
  -15.5313  -30.2912   23.7740 H   0  0  0  0  0  0
  -15.8696  -28.0813   22.7029 H   0  0  0  0  0  0
  -24.6005  -30.6984   25.7783 H   0  0  0  0  0  0
  -24.8964  -32.2812   26.4914 H   0  0  0  0  0  0
  -25.8187  -30.8829   27.0214 H   0  0  0  0  0  0
  -26.2834  -29.6791   24.1144 H   0  0  0  0  0  0
  -27.4238  -29.7285   25.4374 H   0  0  0  0  0  0
  -27.8615  -30.4401   23.9024 H   0  0  0  0  0  0
  -27.2813  -33.3602   26.2010 H   0  0  0  0  0  0
  -28.3958  -32.6734   25.0333 H   0  0  0  0  0  0
  -28.0732  -31.8410   26.5404 H   0  0  0  0  0  0
  -28.2595  -38.0006   24.7530 H   0  0  0  0  0  0
  -28.0989  -36.2547   24.6341 H   0  0  0  0  0  0
  -27.2267  -37.1473   25.8883 H   0  0  0  0  0  0
  -20.9311  -29.8737   21.6953 H   0  0  0  0  0  0
  -26.0144  -38.2867   24.1514 H   0  0  0  0  0  0
  -27.7684  -17.3602   21.3298 H   0  0  0  0  0  0
  -27.1283  -23.9877   21.9345 H   0  0  0  0  0  0
  -26.5232  -25.6226   21.8841 H   0  0  0  0  0  0
  -28.1162  -25.2982   22.5659 H   0  0  0  0  0  0
  -31.5168  -17.0626   21.4020 H   0  0  0  0  0  0
  -31.1192  -16.9998   19.7115 H   0  0  0  0  0  0
  -29.8355  -24.5095   19.2691 H   0  0  0  0  0  0
  -30.0169  -24.4028   21.0107 H   0  0  0  0  0  0
  -27.3851  -24.8564   19.6273 H   0  0  0  0  0  0
  -30.6936  -22.0623   20.7329 H   0  0  0  0  0  0
  -29.1242  -15.5506   21.1857 H   0  0  0  0  0  0
  1 25  1  0  0  0
  1 30  2  0  0  0
  1 81  1  0  0  0
  2  3  1  0  0  0
  2 25  1  0  0  0
  2 84  1  0  0  0
  2 85  1  0  0  0
  3  4  1  0  0  0
  3 86  1  0  0  0
  3 87  1  0  0  0
  4  5  1  0  0  0
  4 88  1  0  0  0
  4 89  1  0  0  0
  5  6  1  0  0  0
  5 26  1  0  0  0
  5 90  1  0  0  0
  6 25  1  0  0  0
  6 91  1  0  0  0
  6 92  1  0  0  0
  7  8  2  0  0  0
  7 26  1  0  0  0
  7 29  1  0  0  0
  8  9  1  0  0  0
  8 22  1  0  0  0
  9 10  1  0  0  0
  9 27  2  0  0  0
 10 11  2  0  0  0
 10 15  1  0  0  0
 11 12  1  0  0  0
 11 93  1  0  0  0
 12 13  2  0  0  0
 12 94  1  0  0  0
 13 14  1  0  0  0
 13 31  1  0  0  0
 14 15  2  0  0  0
 14 95  1  0  0  0
 15 96  1  0  0  0
 16 17  2  0  0  0
 16 21  1  0  0  0
 16 31  1  0  0  0
 17 18  1  0  0  0
 17 97  1  0  0  0
 18 19  2  0  0  0
 18 98  1  0  0  0
 19 20  1  0  0  0
 19 24  1  0  0  0
 20 21  2  0  0  0
 20 99  1  0  0  0
 21 23  1  0  0  0
 22 28  1  0  0  0
 22 32  2  0  0  0
 26 27  1  0  0  0
 28100  1  0  0  0
 28101  1  0  0  0
 29102  1  0  0  0
 29103  1  0  0  0
 33 34  1  0  0  0
 33 66  1  0  0  0
 33 70  2  0  0  0
 34 36  1  0  0  0
 34 59  1  0  0  0
 34104  1  0  0  0
 35 44  2  0  0  0
 35 45  1  0  0  0
 35 68  1  0  0  0
 36 56  1  0  0  0
 36105  1  0  0  0
 37 39  1  0  0  0
 37 47  1  0  0  0
 37 66  1  0  0  0
 37106  1  0  0  0
 38 43  2  0  0  0
 38 46  1  0  0  0
 38 47  1  0  0  0
 39 64  1  0  0  0
 39 67  2  0  0  0
 40 52  1  0  0  0
 40 53  2  0  0  0
 40 58  1  0  0  0
 41107  1  0  0  0
 41108  1  0  0  0
 41109  1  0  0  0
 41 48  1  0  0  0
 42 43  1  0  0  0
 42 66  1  0  0  0
 42110  1  0  0  0
 42111  1  0  0  0
 43 44  1  0  0  0
 44112  1  0  0  0
 45 46  2  0  0  0
 45113  1  0  0  0
 46114  1  0  0  0
 47115  1  0  0  0
 47116  1  0  0  0
 48 56  1  0  0  0
 48 65  1  0  0  0
 48117  1  0  0  0
 49 50  1  0  0  0
 49 53  1  0  0  0
 49 64  1  0  0  0
 49118  1  0  0  0
 50 51  1  0  0  0
 50119  1  0  0  0
 50120  1  0  0  0
 51 52  1  0  0  0
 51121  1  0  0  0
 51122  1  0  0  0
 52123  1  0  0  0
 52124  1  0  0  0
 53 54  1  0  0  0
 54 55  2  0  0  0
 54125  1  0  0  0
 55 57  1  0  0  0
 55126  1  0  0  0
 56 69  2  0  0  0
 57 58  2  0  0  0
 57127  1  0  0  0
 58128  1  0  0  0
 59 60  1  0  0  0
 59 61  1  0  0  0
 59 62  1  0  0  0
 60129  1  0  0  0
 60130  1  0  0  0
 60131  1  0  0  0
 61132  1  0  0  0
 61133  1  0  0  0
 61134  1  0  0  0
 62135  1  0  0  0
 62136  1  0  0  0
 62137  1  0  0  0
 63 65  1  0  0  0
 63138  1  0  0  0
 63139  1  0  0  0
 63140  1  0  0  0
 64141  1  0  0  0
 65142  1  0  0  0
 68 78  1  0  0  0
 71 72  2  0  0  0
 71 83  1  0  0  0
 71143  1  0  0  0
 72 76  1  0  0  0
 72 79  1  0  0  0
 73 79  2  0  0  0
 73 80  1  0  0  0
 73 83  1  0  0  0
 74 77  1  0  0  0
 74 80  1  0  0  0
 74 82  2  0  0  0
 75144  1  0  0  0
 75145  1  0  0  0
 75146  1  0  0  0
 75 78  1  0  0  0
 76 81  1  0  0  0
 76147  1  0  0  0
 76148  1  0  0  0
 77 78  1  0  0  0
 77149  1  0  0  0
 77150  1  0  0  0
 78151  1  0  0  0
 80152  1  0  0  0
 81153  1  0  0  0
M  ISO  4   1 100  68 101  78 101  81 100
M  END
> <chiral flag>
0

> <version>
0

> <s_m_source_file>
/data/baiqing/PycharmProjects/Reinvent-master-3.2/result/LINK_invent/BTK/process_docking_weight1_custom_product_contain_oxygen_bond_distance_aromatic_linkinvent_7_9_3/rearranged_h_0193.sdf

> <i_m_source_file_index>
44

> <r_mmod_Potential_Energy-OPLS-2005>
-246.690048217773

> <r_mmod_Stretch_Energy-OPLS-2005>
40.6743431091309

> <r_mmod_Bend_Energy-OPLS-2005>
100.595634460449

> <r_mmod_Torsional_Energy-OPLS-2005>
202.216873168945

> <r_mmod_Improper_Torsional_Energy-OPLS-2005>
4.95717620849609

> <r_mmod_Van_der_Waal_Energy-OPLS-2005>
149.421035766602

> <r_mmod_Electrostatic_Energy-OPLS-2005>
-534.807922363281

> <r_mmod_Solvation_Energy-OPLS-2005>
-235.324279785156

> <b_mmod_Minimization_Converged-OPLS-2005>
0

> <r_mmod_RMS_Derivative-OPLS-2005>
5.51196002960205

$$$$
44
                    3D
 Structure written by MMmdl.
156164  0  0  1  0            999 V2000
  -30.6832  -14.5409   20.5353 C   0  0  0  0  0  0
  -30.4237  -12.3399   19.4331 C   0  0  0  0  0  0
  -29.4964  -12.5037   18.2104 C   0  0  0  0  0  0
  -28.0182  -12.3613   18.6241 C   0  0  0  0  0  0
  -27.6575  -13.2099   19.8731 C   0  0  2  0  0  0
  -28.7043  -13.0386   20.9966 C   0  0  0  0  0  0
  -25.2609  -13.8192   20.5699 C   0  0  0  0  0  0
  -24.1863  -13.0466   20.9202 C   0  0  0  0  0  0
  -24.6411  -11.6926   20.8762 C   0  0  0  0  0  0
  -23.9078  -10.4312   21.0430 C   0  0  0  0  0  0
  -24.3627   -9.4216   21.9199 C   0  0  0  0  0  0
  -23.6298   -8.2250   22.0756 C   0  0  0  0  0  0
  -22.4277   -8.0297   21.3552 C   0  0  0  0  0  0
  -21.9924   -9.0272   20.4654 C   0  0  0  0  0  0
  -22.7255  -10.2151   20.3073 C   0  0  0  0  0  0
  -21.6855   -6.0747   22.5280 C   0  0  0  0  0  0
  -21.4016   -6.5648   23.8213 C   0  0  0  0  0  0
  -21.3656   -5.6800   24.9175 C   0  0  0  0  0  0
  -21.6045   -4.3061   24.7228 C   0  0  0  0  0  0
  -21.8818   -3.8155   23.4347 C   0  0  0  0  0  0
  -21.9192   -4.6976   22.3403 C   0  0  0  0  0  0
  -22.7885  -13.5259   21.1850 C   0  0  0  0  0  0
  -22.1665   -4.2171   21.0981 F   0  0  0  0  0  0
  -21.5624   -3.4533   25.7734 F   0  0  0  0  0  0
  -30.0232  -13.3515   20.4270 N   0  0  0  0  0  0
  -26.3026  -12.9340   20.3389 N   0  0  0  0  0  0
  -25.9336  -11.6501   20.5792 N   0  0  0  0  0  0
  -22.0534  -12.8236   22.0403 N   0  0  0  0  0  0
  -25.4360  -15.1905   20.4042 N   0  0  0  0  0  0
  -31.8374  -14.6885   20.1264 O   0  0  0  0  0  0
  -21.6643   -6.8891   21.4242 O   0  0  0  0  0  0
  -22.3563  -14.5559   20.6695 O   0  0  0  0  0  0
  -24.6197  -31.8640   23.2060 C   0  0  0  0  0  0
  -25.9064  -32.4807   23.8374 C   0  0  1  0  0  0
  -27.2301  -27.3778   20.1136 C   0  0  0  0  0  0
  -25.5907  -33.8607   24.2304 N   0  0  0  0  0  0
  -23.4109  -30.4865   21.5479 C   0  0  2  0  0  0
  -24.8587  -28.9458   20.1154 C   0  0  0  0  0  0
  -22.7439  -29.4631   22.4961 C   0  0  0  0  0  0
  -18.0278  -28.1381   22.8485 C   0  0  0  0  0  0
  -24.1491  -36.7309   23.2637 C   0  0  0  0  0  0
  -25.9454  -30.8136   21.3672 C   0  0  0  0  0  0
  -26.0223  -29.4430   20.7156 C   0  0  0  0  0  0
  -27.2133  -28.6694   20.7053 C   0  0  0  0  0  0
  -26.0487  -26.9163   19.4932 C   0  0  0  0  0  0
  -24.8695  -27.6850   19.4971 C   0  0  0  0  0  0
  -23.6231  -29.8186   20.1634 C   0  0  0  0  0  0
  -25.4112  -36.3100   24.0332 C   0  0  1  0  0  0
  -20.5875  -28.3673   23.1308 C   0  0  2  0  0  0
  -20.6773  -26.9404   22.5416 C   0  0  0  0  0  0
  -19.5753  -26.6383   21.5217 C   0  0  0  0  0  0
  -18.1930  -26.7927   22.1621 C   0  0  0  0  0  0
  -19.1529  -28.8844   23.2896 C   0  0  0  0  0  0
  -18.9454  -30.1453   23.8905 C   0  0  0  0  0  0
  -17.6452  -30.6586   24.0566 C   0  0  0  0  0  0
  -25.9037  -34.9466   23.5113 C   0  0  0  0  0  0
  -16.5344  -29.9086   23.6328 C   0  0  0  0  0  0
  -16.7266  -28.6506   23.0343 C   0  0  0  0  0  0
  -26.4477  -31.6599   25.0717 C   0  0  0  0  0  0
  -25.3734  -31.3714   26.1461 C   0  0  0  0  0  0
  -27.0310  -30.3037   24.6112 C   0  0  0  0  0  0
  -27.6043  -32.4330   25.7485 C   0  0  0  0  0  0
  -27.5582  -37.1810   24.8461 C   0  0  0  0  0  0
  -21.4160  -29.3037   22.3711 N   0  0  0  0  0  0
  -26.4295  -37.3788   23.9404 N   0  0  0  0  0  0
  -24.6774  -31.0698   22.0985 N   0  0  0  0  0  0
  -23.4185  -28.8167   23.3021 O   0  0  0  0  0  0
  -28.3768  -26.5931   20.1097 O   0  0  0  0  0  0
  -26.5596  -34.8922   22.4673 O   0  0  0  0  0  0
  -23.5376  -32.1408   23.7425 O   0  0  0  0  0  0
  -29.5256  -18.0946   20.3588 C   0  0  0  0  0  0
  -28.5321  -17.9335   19.4091 C   0  0  0  0  0  0
  -28.9487  -20.3176   19.9731 C   0  0  0  0  0  0
  -31.0258  -22.5565   21.0325 C   0  0  0  0  0  0
  -30.3955  -17.0198   21.0324 C   0  0  0  0  0  0
  -29.3889  -24.2627   20.0678 C   0  0  0  0  0  0
  -28.2411  -25.2078   20.5536 C   0  0  0  0  0  0
  -29.5397  -22.8455   20.7582 C   0  0  1  0  0  0
  -29.7318  -19.4681   20.6684 N   0  0  0  0  0  0
  -28.0560  -16.7688   18.8138 N   0  0  0  0  0  0
  -28.9358  -21.7318   19.9987 N   0  0  0  0  0  0
  -29.9520  -15.6012   20.9512 N   0  0  0  0  0  0
  -27.8538  -19.4631   18.8958 S   0  0  0  0  0  0
  -31.4677  -12.4389   19.1313 H   0  0  0  0  0  0
  -30.3284  -11.3379   19.8548 H   0  0  0  0  0  0
  -29.7418  -11.7646   17.4462 H   0  0  0  0  0  0
  -29.6588  -13.4807   17.7518 H   0  0  0  0  0  0
  -27.8304  -11.3063   18.8256 H   0  0  0  0  0  0
  -27.3678  -12.6303   17.7911 H   0  0  0  0  0  0
  -27.6841  -14.2500   19.5578 H   0  0  0  0  0  0
  -28.6991  -12.0163   21.3758 H   0  0  0  0  0  0
  -28.4675  -13.6722   21.8525 H   0  0  0  0  0  0
  -25.2774   -9.5677   22.4773 H   0  0  0  0  0  0
  -24.0016   -7.4628   22.7455 H   0  0  0  0  0  0
  -21.0867   -8.8788   19.8945 H   0  0  0  0  0  0
  -22.3724  -10.9693   19.6181 H   0  0  0  0  0  0
  -21.2016   -7.6158   23.9719 H   0  0  0  0  0  0
  -21.1478   -6.0536   25.9078 H   0  0  0  0  0  0
  -22.0601   -2.7621   23.2837 H   0  0  0  0  0  0
  -22.4157  -11.9892   22.4784 H   0  0  0  0  0  0
  -21.1154  -13.1250   22.2617 H   0  0  0  0  0  0
  -24.6656  -15.8438   20.4837 H   0  0  0  0  0  0
  -26.2774  -15.6198   20.0248 H   0  0  0  0  0  0
  -26.7132  -32.5506   23.1133 H   0  0  0  0  0  0
  -25.0091  -33.9769   25.0474 H   0  0  0  0  0  0
  -22.7026  -31.3057   21.4058 H   0  0  0  0  0  0
  -23.3753  -35.9641   23.3304 H   0  0  0  0  0  0
  -24.3583  -36.8922   22.2049 H   0  0  0  0  0  0
  -23.7247  -37.6515   23.6652 H   0  0  0  0  0  0
  -26.0630  -31.5766   20.5965 H   0  0  0  0  0  0
  -26.8314  -30.8692   21.9875 H   0  0  0  0  0  0
  -28.1115  -29.0483   21.1719 H   0  0  0  0  0  0
  -26.0298  -25.9597   18.9922 H   0  0  0  0  0  0
  -23.9791  -27.3013   19.0186 H   0  0  0  0  0  0
  -23.7371  -30.5945   19.4060 H   0  0  0  0  0  0
  -22.7459  -29.2426   19.8626 H   0  0  0  0  0  0
  -25.1295  -36.1962   25.0828 H   0  0  0  0  0  0
  -20.9969  -28.3242   24.1427 H   0  0  0  0  0  0
  -20.5694  -26.2272   23.3602 H   0  0  0  0  0  0
  -21.6641  -26.7448   22.1197 H   0  0  0  0  0  0
  -19.6916  -25.6295   21.1247 H   0  0  0  0  0  0
  -19.6706  -27.3197   20.6753 H   0  0  0  0  0  0
  -17.4200  -26.6678   21.4022 H   0  0  0  0  0  0
  -18.0325  -26.0072   22.9018 H   0  0  0  0  0  0
  -19.7929  -30.7277   24.2270 H   0  0  0  0  0  0
  -17.5003  -31.6268   24.5168 H   0  0  0  0  0  0
  -15.5345  -30.2989   23.7652 H   0  0  0  0  0  0
  -15.8665  -28.0837   22.7037 H   0  0  0  0  0  0
  -24.5900  -30.7073   25.7791 H   0  0  0  0  0  0
  -24.8936  -32.2873   26.4918 H   0  0  0  0  0  0
  -25.8080  -30.8869   27.0214 H   0  0  0  0  0  0
  -26.2856  -29.6806   24.1154 H   0  0  0  0  0  0
  -27.4063  -29.7270   25.4576 H   0  0  0  0  0  0
  -27.8700  -30.4354   23.9276 H   0  0  0  0  0  0
  -27.2648  -33.3624   26.2075 H   0  0  0  0  0  0
  -28.3842  -32.6909   25.0306 H   0  0  0  0  0  0
  -28.0721  -31.8451   26.5394 H   0  0  0  0  0  0
  -28.2595  -38.0112   24.7511 H   0  0  0  0  0  0
  -28.1086  -36.2643   24.6289 H   0  0  0  0  0  0
  -27.2297  -37.1457   25.8864 H   0  0  0  0  0  0
  -20.9321  -29.8757   21.6933 H   0  0  0  0  0  0
  -26.0186  -38.2865   24.1413 H   0  0  0  0  0  0
  -31.4642  -23.3329   21.6608 H   0  0  0  0  0  0
  -31.6057  -22.5130   20.1099 H   0  0  0  0  0  0
  -31.1669  -21.6135   21.5610 H   0  0  0  0  0  0
  -30.4923  -17.2497   22.0933 H   0  0  0  0  0  0
  -31.4075  -17.1081   20.6364 H   0  0  0  0  0  0
  -30.3072  -24.8224   20.2493 H   0  0  0  0  0  0
  -29.3488  -24.1565   18.9832 H   0  0  0  0  0  0
  -28.2451  -25.2261   21.6434 H   0  0  0  0  0  0
  -27.2911  -24.7574   20.2695 H   0  0  0  0  0  0
  -29.0377  -22.8843   21.7273 H   0  0  0  0  0  0
  -28.7293  -16.0204   18.6957 H   0  0  0  0  0  0
  -27.4982  -16.8772   17.9716 H   0  0  0  0  0  0
  -28.2420  -22.0755   19.3411 H   0  0  0  0  0  0
  -28.9906  -15.4237   21.2005 H   0  0  0  0  0  0
  1 25  1  0  0  0
  1 30  2  0  0  0
  1 82  1  0  0  0
  2  3  1  0  0  0
  2 25  1  0  0  0
  2 84  1  0  0  0
  2 85  1  0  0  0
  3  4  1  0  0  0
  3 86  1  0  0  0
  3 87  1  0  0  0
  4  5  1  0  0  0
  4 88  1  0  0  0
  4 89  1  0  0  0
  5  6  1  0  0  0
  5 26  1  0  0  0
  5 90  1  0  0  0
  6 25  1  0  0  0
  6 91  1  0  0  0
  6 92  1  0  0  0
  7  8  2  0  0  0
  7 26  1  0  0  0
  7 29  1  0  0  0
  8  9  1  0  0  0
  8 22  1  0  0  0
  9 10  1  0  0  0
  9 27  2  0  0  0
 10 11  2  0  0  0
 10 15  1  0  0  0
 11 12  1  0  0  0
 11 93  1  0  0  0
 12 13  2  0  0  0
 12 94  1  0  0  0
 13 14  1  0  0  0
 13 31  1  0  0  0
 14 15  2  0  0  0
 14 95  1  0  0  0
 15 96  1  0  0  0
 16 17  2  0  0  0
 16 21  1  0  0  0
 16 31  1  0  0  0
 17 18  1  0  0  0
 17 97  1  0  0  0
 18 19  2  0  0  0
 18 98  1  0  0  0
 19 20  1  0  0  0
 19 24  1  0  0  0
 20 21  2  0  0  0
 20 99  1  0  0  0
 21 23  1  0  0  0
 22 28  1  0  0  0
 22 32  2  0  0  0
 26 27  1  0  0  0
 28100  1  0  0  0
 28101  1  0  0  0
 29102  1  0  0  0
 29103  1  0  0  0
 33 34  1  0  0  0
 33 66  1  0  0  0
 33 70  2  0  0  0
 34 36  1  0  0  0
 34 59  1  0  0  0
 34104  1  0  0  0
 35 44  2  0  0  0
 35 45  1  0  0  0
 35 68  1  0  0  0
 36 56  1  0  0  0
 36105  1  0  0  0
 37 39  1  0  0  0
 37 47  1  0  0  0
 37 66  1  0  0  0
 37106  1  0  0  0
 38 43  2  0  0  0
 38 46  1  0  0  0
 38 47  1  0  0  0
 39 64  1  0  0  0
 39 67  2  0  0  0
 40 52  1  0  0  0
 40 53  2  0  0  0
 40 58  1  0  0  0
 41107  1  0  0  0
 41108  1  0  0  0
 41109  1  0  0  0
 41 48  1  0  0  0
 42 43  1  0  0  0
 42 66  1  0  0  0
 42110  1  0  0  0
 42111  1  0  0  0
 43 44  1  0  0  0
 44112  1  0  0  0
 45 46  2  0  0  0
 45113  1  0  0  0
 46114  1  0  0  0
 47115  1  0  0  0
 47116  1  0  0  0
 48 56  1  0  0  0
 48 65  1  0  0  0
 48117  1  0  0  0
 49 50  1  0  0  0
 49 53  1  0  0  0
 49 64  1  0  0  0
 49118  1  0  0  0
 50 51  1  0  0  0
 50119  1  0  0  0
 50120  1  0  0  0
 51 52  1  0  0  0
 51121  1  0  0  0
 51122  1  0  0  0
 52123  1  0  0  0
 52124  1  0  0  0
 53 54  1  0  0  0
 54 55  2  0  0  0
 54125  1  0  0  0
 55 57  1  0  0  0
 55126  1  0  0  0
 56 69  2  0  0  0
 57 58  2  0  0  0
 57127  1  0  0  0
 58128  1  0  0  0
 59 60  1  0  0  0
 59 61  1  0  0  0
 59 62  1  0  0  0
 60129  1  0  0  0
 60130  1  0  0  0
 60131  1  0  0  0
 61132  1  0  0  0
 61133  1  0  0  0
 61134  1  0  0  0
 62135  1  0  0  0
 62136  1  0  0  0
 62137  1  0  0  0
 63 65  1  0  0  0
 63138  1  0  0  0
 63139  1  0  0  0
 63140  1  0  0  0
 64141  1  0  0  0
 65142  1  0  0  0
 68 77  1  0  0  0
 71 72  2  0  0  0
 71 75  1  0  0  0
 71 79  1  0  0  0
 72 80  1  0  0  0
 72 83  1  0  0  0
 73 79  2  0  0  0
 73 81  1  0  0  0
 73 83  1  0  0  0
 74143  1  0  0  0
 74144  1  0  0  0
 74145  1  0  0  0
 74 78  1  0  0  0
 75 82  1  0  0  0
 75146  1  0  0  0
 75147  1  0  0  0
 76 77  1  0  0  0
 76 78  1  0  0  0
 76148  1  0  0  0
 76149  1  0  0  0
 77150  1  0  0  0
 77151  1  0  0  0
 78 81  1  0  0  0
 78152  1  0  0  0
 80153  1  0  0  0
 80154  1  0  0  0
 81155  1  0  0  0
 82156  1  0  0  0
M  ISO  4   1 100  68 101  77 101  82 100
M  END
> <chiral flag>
0

> <version>
0

> <s_m_source_file>
/data/baiqing/PycharmProjects/Reinvent-master-3.2/result/LINK_invent/BTK/process_docking_weight1_custom_product_contain_oxygen_bond_distance_aromatic_linkinvent_7_9_3/rearranged_h_0193.sdf

> <i_m_source_file_index>
45

> <r_mmod_Potential_Energy-OPLS-2005>
-87.0715713500977

> <r_mmod_Stretch_Energy-OPLS-2005>
51.2752647399902

> <r_mmod_Bend_Energy-OPLS-2005>
113.222450256348

> <r_mmod_Torsional_Energy-OPLS-2005>
214.623687744141

> <r_mmod_Improper_Torsional_Energy-OPLS-2005>
8.61322975158691

> <r_mmod_Van_der_Waal_Energy-OPLS-2005>
121.181983947754

> <r_mmod_Electrostatic_Energy-OPLS-2005>
-399.950286865234

> <r_mmod_Solvation_Energy-OPLS-2005>
-219.719314575195

> <b_mmod_Minimization_Converged-OPLS-2005>
0

> <r_mmod_RMS_Derivative-OPLS-2005>
1.35591697692871

$$$$
45
                    3D
 Structure written by MMmdl.
155163  0  0  1  0            999 V2000
  -30.7096  -14.5238   20.5470 C   0  0  0  0  0  0
  -30.4152  -12.3343   19.4407 C   0  0  0  0  0  0
  -29.4957  -12.4996   18.2145 C   0  0  0  0  0  0
  -28.0190  -12.3512   18.6294 C   0  0  0  0  0  0
  -27.6532  -13.2164   19.8658 C   0  0  2  0  0  0
  -28.6953  -13.0558   20.9948 C   0  0  0  0  0  0
  -25.2550  -13.8166   20.5703 C   0  0  0  0  0  0
  -24.1807  -13.0429   20.9190 C   0  0  0  0  0  0
  -24.6374  -11.6903   20.8740 C   0  0  0  0  0  0
  -23.9048  -10.4281   21.0394 C   0  0  0  0  0  0
  -24.3601   -9.4202   21.9180 C   0  0  0  0  0  0
  -23.6282   -8.2236   22.0748 C   0  0  0  0  0  0
  -22.4266   -8.0271   21.3537 C   0  0  0  0  0  0
  -21.9895   -9.0242   20.4640 C   0  0  0  0  0  0
  -22.7219  -10.2126   20.3046 C   0  0  0  0  0  0
  -21.6851   -6.0731   22.5275 C   0  0  0  0  0  0
  -21.4009   -6.5635   23.8206 C   0  0  0  0  0  0
  -21.3659   -5.6789   24.9170 C   0  0  0  0  0  0
  -21.6038   -4.3052   24.7224 C   0  0  0  0  0  0
  -21.8818   -3.8142   23.4348 C   0  0  0  0  0  0
  -21.9187   -4.6956   22.3404 C   0  0  0  0  0  0
  -22.7831  -13.5227   21.1851 C   0  0  0  0  0  0
  -22.1661   -4.2145   21.0981 F   0  0  0  0  0  0
  -21.5630   -3.4537   25.7739 F   0  0  0  0  0  0
  -30.0187  -13.3536   20.4296 N   0  0  0  0  0  0
  -26.2978  -12.9359   20.3337 N   0  0  0  0  0  0
  -25.9305  -11.6509   20.5753 N   0  0  0  0  0  0
  -22.0474  -12.8217   22.0401 N   0  0  0  0  0  0
  -25.4271  -15.1879   20.4143 N   0  0  0  0  0  0
  -31.8591  -14.6418   20.1176 O   0  0  0  0  0  0
  -21.6631   -6.8871   21.4237 O   0  0  0  0  0  0
  -22.3526  -14.5548   20.6718 O   0  0  0  0  0  0
  -24.6186  -31.8659   23.2068 C   0  0  0  0  0  0
  -25.9070  -32.4808   23.8375 C   0  0  1  0  0  0
  -27.2247  -27.3970   20.1110 C   0  0  0  0  0  0
  -25.5919  -33.8606   24.2310 N   0  0  0  0  0  0
  -23.4076  -30.4904   21.5476 C   0  0  2  0  0  0
  -24.8529  -28.9517   20.1146 C   0  0  0  0  0  0
  -22.7426  -29.4661   22.4964 C   0  0  0  0  0  0
  -18.0281  -28.1371   22.8495 C   0  0  0  0  0  0
  -24.1485  -36.7309   23.2637 C   0  0  0  0  0  0
  -25.9404  -30.8212   21.3654 C   0  0  0  0  0  0
  -26.0166  -29.4533   20.7120 C   0  0  0  0  0  0
  -27.2091  -28.6864   20.7015 C   0  0  0  0  0  0
  -26.0465  -26.9250   19.4951 C   0  0  0  0  0  0
  -24.8643  -27.6885   19.5002 C   0  0  0  0  0  0
  -23.6174  -29.8234   20.1624 C   0  0  0  0  0  0
  -25.4105  -36.3104   24.0339 C   0  0  1  0  0  0
  -20.5875  -28.3672   23.1301 C   0  0  2  0  0  0
  -20.6769  -26.9405   22.5410 C   0  0  0  0  0  0
  -19.5744  -26.6385   21.5210 C   0  0  0  0  0  0
  -18.1927  -26.7921   22.1624 C   0  0  0  0  0  0
  -19.1531  -28.8835   23.2899 C   0  0  0  0  0  0
  -18.9458  -30.1443   23.8910 C   0  0  0  0  0  0
  -17.6460  -30.6581   24.0568 C   0  0  0  0  0  0
  -25.9038  -34.9469   23.5120 C   0  0  0  0  0  0
  -16.5349  -29.9084   23.6323 C   0  0  0  0  0  0
  -16.7272  -28.6496   23.0353 C   0  0  0  0  0  0
  -26.4483  -31.6593   25.0713 C   0  0  0  0  0  0
  -25.3746  -31.3712   26.1458 C   0  0  0  0  0  0
  -27.0307  -30.3031   24.6101 C   0  0  0  0  0  0
  -27.6051  -32.4310   25.7484 C   0  0  0  0  0  0
  -27.5578  -37.1809   24.8465 C   0  0  0  0  0  0
  -21.4149  -29.3041   22.3702 N   0  0  0  0  0  0
  -26.4289  -37.3794   23.9411 N   0  0  0  0  0  0
  -24.6739  -31.0736   22.0984 N   0  0  0  0  0  0
  -23.4182  -28.8212   23.3027 O   0  0  0  0  0  0
  -28.3576  -26.6010   20.1303 O   0  0  0  0  0  0
  -26.5591  -34.8928   22.4679 O   0  0  0  0  0  0
  -23.5370  -32.1421   23.7448 O   0  0  0  0  0  0
  -29.7239  -18.1456   20.9367 C   0  0  0  0  0  0
  -28.0669  -19.3849   20.9904 C   0  0  0  0  0  0
  -30.6523  -16.9583   21.1040 C   0  0  0  0  0  0
  -28.6813  -22.6984   20.6768 C   0  0  0  0  0  0
  -29.0752  -21.4519   19.8103 C   0  0  0  0  0  0
  -28.1957  -25.2985   20.7573 C   0  0  0  0  0  0
  -28.5786  -24.0531   19.8856 C   0  0  2  0  0  0
  -28.4125  -18.1459   21.3278 N   0  0  0  0  0  0
  -30.1551  -19.3045   20.4139 N   0  0  0  0  0  0
  -29.0599  -20.1195   20.4606 N   0  0  0  0  0  0
  -26.7932  -19.8881   21.1280 N   0  0  0  0  0  0
  -30.0483  -15.6062   21.0138 N   0  0  0  0  0  0
  -27.5756  -23.8780   18.8976 O   0  0  0  0  0  0
  -31.4614  -12.4199   19.1415 H   0  0  0  0  0  0
  -30.3100  -11.3363   19.8684 H   0  0  0  0  0  0
  -29.7465  -11.7609   17.4521 H   0  0  0  0  0  0
  -29.6588  -13.4775   17.7585 H   0  0  0  0  0  0
  -27.8480  -11.2978   18.8554 H   0  0  0  0  0  0
  -27.3643  -12.5934   17.7919 H   0  0  0  0  0  0
  -27.6805  -14.2555   19.5371 H   0  0  0  0  0  0
  -28.6808  -12.0375   21.3854 H   0  0  0  0  0  0
  -28.4567  -13.7024   21.8402 H   0  0  0  0  0  0
  -25.2744   -9.5693   22.4751 H   0  0  0  0  0  0
  -23.9997   -7.4632   22.7464 H   0  0  0  0  0  0
  -21.0827   -8.8747   19.8955 H   0  0  0  0  0  0
  -22.3666  -10.9661   19.6152 H   0  0  0  0  0  0
  -21.2005   -7.6141   23.9711 H   0  0  0  0  0  0
  -21.1484   -6.0516   25.9072 H   0  0  0  0  0  0
  -22.0602   -2.7606   23.2843 H   0  0  0  0  0  0
  -22.4097  -11.9883   22.4796 H   0  0  0  0  0  0
  -21.1082  -13.1227   22.2593 H   0  0  0  0  0  0
  -24.6655  -15.8449   20.5376 H   0  0  0  0  0  0
  -26.2922  -15.6347   20.1365 H   0  0  0  0  0  0
  -26.7142  -32.5511   23.1136 H   0  0  0  0  0  0
  -25.0103  -33.9760   25.0478 H   0  0  0  0  0  0
  -22.6979  -31.3088   21.4079 H   0  0  0  0  0  0
  -23.3746  -35.9645   23.3308 H   0  0  0  0  0  0
  -24.3579  -36.8911   22.2049 H   0  0  0  0  0  0
  -23.7239  -37.6521   23.6637 H   0  0  0  0  0  0
  -26.0577  -31.5855   20.5953 H   0  0  0  0  0  0
  -26.8259  -30.8724   21.9872 H   0  0  0  0  0  0
  -28.1050  -29.0688   21.1700 H   0  0  0  0  0  0
  -26.0357  -25.9605   19.0106 H   0  0  0  0  0  0
  -23.9720  -27.2972   19.0310 H   0  0  0  0  0  0
  -23.7318  -30.5981   19.4031 H   0  0  0  0  0  0
  -22.7390  -29.2479   19.8644 H   0  0  0  0  0  0
  -25.1287  -36.1969   25.0835 H   0  0  0  0  0  0
  -20.9979  -28.3243   24.1417 H   0  0  0  0  0  0
  -20.5664  -26.2291   23.3604 H   0  0  0  0  0  0
  -21.6642  -26.7437   22.1212 H   0  0  0  0  0  0
  -19.6905  -25.6300   21.1230 H   0  0  0  0  0  0
  -19.6676  -27.3197   20.6741 H   0  0  0  0  0  0
  -17.4199  -26.6678   21.4023 H   0  0  0  0  0  0
  -18.0330  -26.0050   22.9008 H   0  0  0  0  0  0
  -19.7936  -30.7261   24.2281 H   0  0  0  0  0  0
  -17.5015  -31.6265   24.5168 H   0  0  0  0  0  0
  -15.5350  -30.2995   23.7632 H   0  0  0  0  0  0
  -15.8675  -28.0821   22.7057 H   0  0  0  0  0  0
  -24.5914  -30.7059   25.7801 H   0  0  0  0  0  0
  -24.8942  -32.2875   26.4900 H   0  0  0  0  0  0
  -25.8099  -30.8888   27.0219 H   0  0  0  0  0  0
  -26.2851  -29.6798   24.1146 H   0  0  0  0  0  0
  -27.4064  -29.7258   25.4561 H   0  0  0  0  0  0
  -27.8696  -30.4342   23.9260 H   0  0  0  0  0  0
  -27.2658  -33.3594   26.2087 H   0  0  0  0  0  0
  -28.3851  -32.6890   25.0311 H   0  0  0  0  0  0
  -28.0728  -31.8422   26.5382 H   0  0  0  0  0  0
  -28.2609  -38.0093   24.7511 H   0  0  0  0  0  0
  -28.1061  -36.2629   24.6295 H   0  0  0  0  0  0
  -27.2297  -37.1476   25.8868 H   0  0  0  0  0  0
  -20.9302  -29.8780   21.6938 H   0  0  0  0  0  0
  -26.0179  -38.2879   24.1401 H   0  0  0  0  0  0
  -31.1542  -17.0477   22.0685 H   0  0  0  0  0  0
  -31.4387  -17.0636   20.3545 H   0  0  0  0  0  0
  -29.4175  -22.8116   21.4736 H   0  0  0  0  0  0
  -27.7350  -22.5092   21.1832 H   0  0  0  0  0  0
  -30.0669  -21.6166   19.3875 H   0  0  0  0  0  0
  -28.4004  -21.3800   18.9573 H   0  0  0  0  0  0
  -28.8585  -25.3134   21.6233 H   0  0  0  0  0  0
  -27.1987  -25.1686   21.1822 H   0  0  0  0  0  0
  -29.5334  -24.2474   19.3949 H   0  0  0  0  0  0
  -26.0274  -19.3214   21.4669 H   0  0  0  0  0  0
  -26.5502  -20.8045   20.7746 H   0  0  0  0  0  0
  -29.0851  -15.5160   21.2986 H   0  0  0  0  0  0
  -26.7397  -23.7852   19.3422 H   0  0  0  0  0  0
  1 25  1  0  0  0
  1 30  2  0  0  0
  1 82  1  0  0  0
  2  3  1  0  0  0
  2 25  1  0  0  0
  2 84  1  0  0  0
  2 85  1  0  0  0
  3  4  1  0  0  0
  3 86  1  0  0  0
  3 87  1  0  0  0
  4  5  1  0  0  0
  4 88  1  0  0  0
  4 89  1  0  0  0
  5  6  1  0  0  0
  5 26  1  0  0  0
  5 90  1  0  0  0
  6 25  1  0  0  0
  6 91  1  0  0  0
  6 92  1  0  0  0
  7  8  2  0  0  0
  7 26  1  0  0  0
  7 29  1  0  0  0
  8  9  1  0  0  0
  8 22  1  0  0  0
  9 10  1  0  0  0
  9 27  2  0  0  0
 10 11  2  0  0  0
 10 15  1  0  0  0
 11 12  1  0  0  0
 11 93  1  0  0  0
 12 13  2  0  0  0
 12 94  1  0  0  0
 13 14  1  0  0  0
 13 31  1  0  0  0
 14 15  2  0  0  0
 14 95  1  0  0  0
 15 96  1  0  0  0
 16 17  2  0  0  0
 16 21  1  0  0  0
 16 31  1  0  0  0
 17 18  1  0  0  0
 17 97  1  0  0  0
 18 19  2  0  0  0
 18 98  1  0  0  0
 19 20  1  0  0  0
 19 24  1  0  0  0
 20 21  2  0  0  0
 20 99  1  0  0  0
 21 23  1  0  0  0
 22 28  1  0  0  0
 22 32  2  0  0  0
 26 27  1  0  0  0
 28100  1  0  0  0
 28101  1  0  0  0
 29102  1  0  0  0
 29103  1  0  0  0
 33 34  1  0  0  0
 33 66  1  0  0  0
 33 70  2  0  0  0
 34 36  1  0  0  0
 34 59  1  0  0  0
 34104  1  0  0  0
 35 44  2  0  0  0
 35 45  1  0  0  0
 35 68  1  0  0  0
 36 56  1  0  0  0
 36105  1  0  0  0
 37 39  1  0  0  0
 37 47  1  0  0  0
 37 66  1  0  0  0
 37106  1  0  0  0
 38 43  2  0  0  0
 38 46  1  0  0  0
 38 47  1  0  0  0
 39 64  1  0  0  0
 39 67  2  0  0  0
 40 52  1  0  0  0
 40 53  2  0  0  0
 40 58  1  0  0  0
 41107  1  0  0  0
 41108  1  0  0  0
 41109  1  0  0  0
 41 48  1  0  0  0
 42 43  1  0  0  0
 42 66  1  0  0  0
 42110  1  0  0  0
 42111  1  0  0  0
 43 44  1  0  0  0
 44112  1  0  0  0
 45 46  2  0  0  0
 45113  1  0  0  0
 46114  1  0  0  0
 47115  1  0  0  0
 47116  1  0  0  0
 48 56  1  0  0  0
 48 65  1  0  0  0
 48117  1  0  0  0
 49 50  1  0  0  0
 49 53  1  0  0  0
 49 64  1  0  0  0
 49118  1  0  0  0
 50 51  1  0  0  0
 50119  1  0  0  0
 50120  1  0  0  0
 51 52  1  0  0  0
 51121  1  0  0  0
 51122  1  0  0  0
 52123  1  0  0  0
 52124  1  0  0  0
 53 54  1  0  0  0
 54 55  2  0  0  0
 54125  1  0  0  0
 55 57  1  0  0  0
 55126  1  0  0  0
 56 69  2  0  0  0
 57 58  2  0  0  0
 57127  1  0  0  0
 58128  1  0  0  0
 59 60  1  0  0  0
 59 61  1  0  0  0
 59 62  1  0  0  0
 60129  1  0  0  0
 60130  1  0  0  0
 60131  1  0  0  0
 61132  1  0  0  0
 61133  1  0  0  0
 61134  1  0  0  0
 62135  1  0  0  0
 62136  1  0  0  0
 62137  1  0  0  0
 63 65  1  0  0  0
 63138  1  0  0  0
 63139  1  0  0  0
 63140  1  0  0  0
 64141  1  0  0  0
 65142  1  0  0  0
 68 76  1  0  0  0
 71 73  1  0  0  0
 71 78  1  0  0  0
 71 79  2  0  0  0
 72 78  2  0  0  0
 72 80  1  0  0  0
 72 81  1  0  0  0
 73 82  1  0  0  0
 73143  1  0  0  0
 73144  1  0  0  0
 74 75  1  0  0  0
 74 77  1  0  0  0
 74145  1  0  0  0
 74146  1  0  0  0
 75 80  1  0  0  0
 75147  1  0  0  0
 75148  1  0  0  0
 76 77  1  0  0  0
 76149  1  0  0  0
 76150  1  0  0  0
 77 83  1  0  0  0
 77151  1  0  0  0
 79 80  1  0  0  0
 81152  1  0  0  0
 81153  1  0  0  0
 82154  1  0  0  0
 83155  1  0  0  0
M  ISO  4   1 100  68 101  76 101  82 100
M  END
> <chiral flag>
0

> <version>
0

> <s_m_source_file>
/data/baiqing/PycharmProjects/Reinvent-master-3.2/result/LINK_invent/BTK/process_docking_weight1_custom_product_contain_oxygen_bond_distance_aromatic_linkinvent_7_9_3/rearranged_h_0193.sdf

> <i_m_source_file_index>
46

> <r_mmod_Potential_Energy-OPLS-2005>
-301.461273193359

> <r_mmod_Stretch_Energy-OPLS-2005>
46.4296875

> <r_mmod_Bend_Energy-OPLS-2005>
116.126274108887

> <r_mmod_Torsional_Energy-OPLS-2005>
231.94172668457

> <r_mmod_Improper_Torsional_Energy-OPLS-2005>
3.97357034683228

> <r_mmod_Van_der_Waal_Energy-OPLS-2005>
125.954147338867

> <r_mmod_Electrostatic_Energy-OPLS-2005>
-605.100708007812

> <r_mmod_Solvation_Energy-OPLS-2005>
-243.207336425781

> <b_mmod_Minimization_Converged-OPLS-2005>
0

> <r_mmod_RMS_Derivative-OPLS-2005>
1.59567153453827

$$$$
46
                    3D
 Structure written by MMmdl.
155163  0  0  1  0            999 V2000
  -30.5713  -14.6775   20.4948 C   0  0  0  0  0  0
  -30.4368  -12.4161   19.4513 C   0  0  0  0  0  0
  -29.5099  -12.5307   18.2181 C   0  0  0  0  0  0
  -28.0295  -12.3638   18.6220 C   0  0  0  0  0  0
  -27.6491  -13.2195   19.8595 C   0  0  2  0  0  0
  -28.6903  -13.0579   20.9896 C   0  0  0  0  0  0
  -25.2536  -13.8168   20.5659 C   0  0  0  0  0  0
  -24.1803  -13.0438   20.9187 C   0  0  0  0  0  0
  -24.6370  -11.6906   20.8705 C   0  0  0  0  0  0
  -23.9047  -10.4291   21.0381 C   0  0  0  0  0  0
  -24.3607   -9.4212   21.9169 C   0  0  0  0  0  0
  -23.6304   -8.2238   22.0736 C   0  0  0  0  0  0
  -22.4288   -8.0266   21.3540 C   0  0  0  0  0  0
  -21.9905   -9.0229   20.4645 C   0  0  0  0  0  0
  -22.7212  -10.2119   20.3050 C   0  0  0  0  0  0
  -21.6856   -6.0736   22.5290 C   0  0  0  0  0  0
  -21.4002   -6.5638   23.8223 C   0  0  0  0  0  0
  -21.3659   -5.6791   24.9178 C   0  0  0  0  0  0
  -21.6047   -4.3055   24.7225 C   0  0  0  0  0  0
  -21.8820   -3.8148   23.4344 C   0  0  0  0  0  0
  -21.9181   -4.6963   22.3400 C   0  0  0  0  0  0
  -22.7833  -13.5238   21.1849 C   0  0  0  0  0  0
  -22.1670   -4.2150   21.0982 F   0  0  0  0  0  0
  -21.5628   -3.4532   25.7733 F   0  0  0  0  0  0
  -30.0001  -13.4284   20.4356 N   0  0  0  0  0  0
  -26.2950  -12.9364   20.3257 N   0  0  0  0  0  0
  -25.9294  -11.6514   20.5681 N   0  0  0  0  0  0
  -22.0468  -12.8239   22.0406 N   0  0  0  0  0  0
  -25.4252  -15.1874   20.4053 N   0  0  0  0  0  0
  -31.7332  -14.8501   20.1082 O   0  0  0  0  0  0
  -21.6650   -6.8865   21.4252 O   0  0  0  0  0  0
  -22.3521  -14.5554   20.6698 O   0  0  0  0  0  0
  -24.6272  -31.8602   23.1993 C   0  0  0  0  0  0
  -25.9122  -32.4781   23.8329 C   0  0  1  0  0  0
  -27.2242  -27.3189   20.1356 C   0  0  0  0  0  0
  -25.5931  -33.8572   24.2257 N   0  0  0  0  0  0
  -23.4212  -30.4815   21.5416 C   0  0  2  0  0  0
  -24.8668  -28.9243   20.1180 C   0  0  0  0  0  0
  -22.7478  -29.4638   22.4943 C   0  0  0  0  0  0
  -18.0291  -28.1391   22.8490 C   0  0  0  0  0  0
  -24.1489  -36.7301   23.2639 C   0  0  0  0  0  0
  -25.9598  -30.7923   21.3651 C   0  0  0  0  0  0
  -26.0351  -29.4157   20.7160 C   0  0  0  0  0  0
  -27.2205  -28.6253   20.7119 C   0  0  0  0  0  0
  -26.0367  -26.8683   19.5253 C   0  0  0  0  0  0
  -24.8681  -27.6550   19.5151 C   0  0  0  0  0  0
  -23.6364  -29.8080   20.1598 C   0  0  0  0  0  0
  -25.4115  -36.3086   24.0328 C   0  0  1  0  0  0
  -20.5891  -28.3701   23.1285 C   0  0  2  0  0  0
  -20.6783  -26.9424   22.5412 C   0  0  0  0  0  0
  -19.5753  -26.6380   21.5219 C   0  0  0  0  0  0
  -18.1935  -26.7939   22.1628 C   0  0  0  0  0  0
  -19.1544  -28.8858   23.2882 C   0  0  0  0  0  0
  -18.9465  -30.1467   23.8895 C   0  0  0  0  0  0
  -17.6463  -30.6592   24.0569 C   0  0  0  0  0  0
  -25.9051  -34.9456   23.5089 C   0  0  0  0  0  0
  -16.5355  -29.9094   23.6329 C   0  0  0  0  0  0
  -16.7272  -28.6510   23.0344 C   0  0  0  0  0  0
  -26.4473  -31.6604   25.0718 C   0  0  0  0  0  0
  -25.3692  -31.3758   26.1439 C   0  0  0  0  0  0
  -27.0317  -30.3042   24.6158 C   0  0  0  0  0  0
  -27.6025  -32.4340   25.7491 C   0  0  0  0  0  0
  -27.5584  -37.1810   24.8459 C   0  0  0  0  0  0
  -21.4195  -29.3056   22.3670 N   0  0  0  0  0  0
  -26.4286  -37.3791   23.9415 N   0  0  0  0  0  0
  -24.6885  -31.0611   22.0937 N   0  0  0  0  0  0
  -23.4196  -28.8199   23.3038 O   0  0  0  0  0  0
  -28.3426  -26.4835   20.1291 O   0  0  0  0  0  0
  -26.5607  -34.8934   22.4647 O   0  0  0  0  0  0
  -23.5437  -32.1386   23.7337 O   0  0  0  0  0  0
  -29.5723  -19.2752   21.4822 C   0  0  0  0  0  0
  -29.1526  -19.8386   20.2448 C   0  0  0  0  0  0
  -29.0216  -18.8390   19.2493 C   0  0  0  0  0  0
  -29.6997  -17.0963   20.6266 C   0  0  0  0  0  0
  -30.3187  -22.6331   21.3433 C   0  0  0  0  0  0
  -28.5039  -23.8110   19.9657 C   0  0  0  0  0  0
  -28.2407  -25.1585   20.7855 C   0  0  0  0  0  0
  -28.9055  -22.4642   20.7545 C   0  0  1  0  0  0
  -29.8205  -17.9385   21.6639 N   0  0  0  0  0  0
  -29.2741  -17.5176   19.4282 N   0  0  0  0  0  0
  -28.5591  -19.2057   17.9923 N   0  0  0  0  0  0
  -28.8335  -21.2163   19.9245 N   0  0  0  0  0  0
  -29.7417  -15.7065   20.8881 N   0  0  0  0  0  0
  -31.4793  -12.5482   19.1570 H   0  0  0  0  0  0
  -30.3743  -11.4168   19.8835 H   0  0  0  0  0  0
  -29.7827  -11.7857   17.4696 H   0  0  0  0  0  0
  -29.6509  -13.5034   17.7428 H   0  0  0  0  0  0
  -27.8606  -11.3093   18.8354 H   0  0  0  0  0  0
  -27.3806  -12.6097   17.7788 H   0  0  0  0  0  0
  -27.6708  -14.2582   19.5306 H   0  0  0  0  0  0
  -28.7070  -12.0263   21.3460 H   0  0  0  0  0  0
  -28.4275  -13.6642   21.8562 H   0  0  0  0  0  0
  -25.2747   -9.5717   22.4734 H   0  0  0  0  0  0
  -24.0028   -7.4631   22.7447 H   0  0  0  0  0  0
  -21.0838   -8.8734   19.8946 H   0  0  0  0  0  0
  -22.3653  -10.9654   19.6157 H   0  0  0  0  0  0
  -21.2012   -7.6144   23.9735 H   0  0  0  0  0  0
  -21.1479   -6.0510   25.9087 H   0  0  0  0  0  0
  -22.0596   -2.7602   23.2836 H   0  0  0  0  0  0
  -22.4079  -11.9936   22.4870 H   0  0  0  0  0  0
  -21.1068  -13.1256   22.2555 H   0  0  0  0  0  0
  -24.6479  -15.8334   20.4916 H   0  0  0  0  0  0
  -26.2507  -15.6146   20.0062 H   0  0  0  0  0  0
  -26.7203  -32.5444   23.1090 H   0  0  0  0  0  0
  -25.0110  -33.9690   25.0424 H   0  0  0  0  0  0
  -22.7139  -31.3003   21.3940 H   0  0  0  0  0  0
  -23.3763  -35.9622   23.3281 H   0  0  0  0  0  0
  -24.3598  -36.8941   22.2061 H   0  0  0  0  0  0
  -23.7216  -37.6488   23.6666 H   0  0  0  0  0  0
  -26.0794  -31.5477   20.5878 H   0  0  0  0  0  0
  -26.8445  -30.8504   21.9878 H   0  0  0  0  0  0
  -28.1241  -28.9971   21.1746 H   0  0  0  0  0  0
  -26.0122  -25.8911   19.0646 H   0  0  0  0  0  0
  -23.9702  -27.2663   19.0543 H   0  0  0  0  0  0
  -23.7601  -30.5767   19.3958 H   0  0  0  0  0  0
  -22.7559  -29.2374   19.8609 H   0  0  0  0  0  0
  -25.1295  -36.1942   25.0820 H   0  0  0  0  0  0
  -20.9985  -28.3293   24.1408 H   0  0  0  0  0  0
  -20.5724  -26.2318   23.3623 H   0  0  0  0  0  0
  -21.6651  -26.7485   22.1193 H   0  0  0  0  0  0
  -19.6925  -25.6286   21.1261 H   0  0  0  0  0  0
  -19.6693  -27.3182   20.6742 H   0  0  0  0  0  0
  -17.4219  -26.6691   21.4012 H   0  0  0  0  0  0
  -18.0333  -26.0076   22.9017 H   0  0  0  0  0  0
  -19.7933  -30.7282   24.2270 H   0  0  0  0  0  0
  -17.5013  -31.6273   24.5168 H   0  0  0  0  0  0
  -15.5358  -30.2992   23.7643 H   0  0  0  0  0  0
  -15.8680  -28.0830   22.7051 H   0  0  0  0  0  0
  -24.5838  -30.7149   25.7753 H   0  0  0  0  0  0
  -24.8915  -32.2936   26.4876 H   0  0  0  0  0  0
  -25.7994  -30.8905   27.0207 H   0  0  0  0  0  0
  -26.2891  -29.6813   24.1165 H   0  0  0  0  0  0
  -27.4013  -29.7288   25.4652 H   0  0  0  0  0  0
  -27.8747  -30.4354   23.9376 H   0  0  0  0  0  0
  -27.2627  -33.3636   26.2063 H   0  0  0  0  0  0
  -28.3830  -32.6913   25.0320 H   0  0  0  0  0  0
  -28.0695  -31.8475   26.5410 H   0  0  0  0  0  0
  -28.2584  -38.0126   24.7548 H   0  0  0  0  0  0
  -28.1090  -36.2662   24.6225 H   0  0  0  0  0  0
  -27.2313  -37.1400   25.8862 H   0  0  0  0  0  0
  -20.9391  -29.8768   21.6864 H   0  0  0  0  0  0
  -26.0172  -38.2866   24.1424 H   0  0  0  0  0  0
  -29.6772  -19.8917   22.3622 H   0  0  0  0  0  0
  -30.3151  -23.3546   22.1611 H   0  0  0  0  0  0
  -31.0265  -22.9889   20.5925 H   0  0  0  0  0  0
  -30.7305  -21.7160   21.7541 H   0  0  0  0  0  0
  -29.2805  -24.0124   19.2271 H   0  0  0  0  0  0
  -27.6028  -23.6252   19.3786 H   0  0  0  0  0  0
  -28.9756  -25.2041   21.5891 H   0  0  0  0  0  0
  -27.2795  -25.0680   21.2920 H   0  0  0  0  0  0
  -28.1982  -22.3356   21.5778 H   0  0  0  0  0  0
  -28.7064  -20.1720   17.7369 H   0  0  0  0  0  0
  -28.7055  -18.5543   17.2346 H   0  0  0  0  0  0
  -28.2833  -21.3086   19.0733 H   0  0  0  0  0  0
  -28.8835  -15.3649   21.2859 H   0  0  0  0  0  0
  1 25  1  0  0  0
  1 30  2  0  0  0
  1 83  1  0  0  0
  2  3  1  0  0  0
  2 25  1  0  0  0
  2 84  1  0  0  0
  2 85  1  0  0  0
  3  4  1  0  0  0
  3 86  1  0  0  0
  3 87  1  0  0  0
  4  5  1  0  0  0
  4 88  1  0  0  0
  4 89  1  0  0  0
  5  6  1  0  0  0
  5 26  1  0  0  0
  5 90  1  0  0  0
  6 25  1  0  0  0
  6 91  1  0  0  0
  6 92  1  0  0  0
  7  8  2  0  0  0
  7 26  1  0  0  0
  7 29  1  0  0  0
  8  9  1  0  0  0
  8 22  1  0  0  0
  9 10  1  0  0  0
  9 27  2  0  0  0
 10 11  2  0  0  0
 10 15  1  0  0  0
 11 12  1  0  0  0
 11 93  1  0  0  0
 12 13  2  0  0  0
 12 94  1  0  0  0
 13 14  1  0  0  0
 13 31  1  0  0  0
 14 15  2  0  0  0
 14 95  1  0  0  0
 15 96  1  0  0  0
 16 17  2  0  0  0
 16 21  1  0  0  0
 16 31  1  0  0  0
 17 18  1  0  0  0
 17 97  1  0  0  0
 18 19  2  0  0  0
 18 98  1  0  0  0
 19 20  1  0  0  0
 19 24  1  0  0  0
 20 21  2  0  0  0
 20 99  1  0  0  0
 21 23  1  0  0  0
 22 28  1  0  0  0
 22 32  2  0  0  0
 26 27  1  0  0  0
 28100  1  0  0  0
 28101  1  0  0  0
 29102  1  0  0  0
 29103  1  0  0  0
 33 34  1  0  0  0
 33 66  1  0  0  0
 33 70  2  0  0  0
 34 36  1  0  0  0
 34 59  1  0  0  0
 34104  1  0  0  0
 35 44  2  0  0  0
 35 45  1  0  0  0
 35 68  1  0  0  0
 36 56  1  0  0  0
 36105  1  0  0  0
 37 39  1  0  0  0
 37 47  1  0  0  0
 37 66  1  0  0  0
 37106  1  0  0  0
 38 43  2  0  0  0
 38 46  1  0  0  0
 38 47  1  0  0  0
 39 64  1  0  0  0
 39 67  2  0  0  0
 40 52  1  0  0  0
 40 53  2  0  0  0
 40 58  1  0  0  0
 41107  1  0  0  0
 41108  1  0  0  0
 41109  1  0  0  0
 41 48  1  0  0  0
 42 43  1  0  0  0
 42 66  1  0  0  0
 42110  1  0  0  0
 42111  1  0  0  0
 43 44  1  0  0  0
 44112  1  0  0  0
 45 46  2  0  0  0
 45113  1  0  0  0
 46114  1  0  0  0
 47115  1  0  0  0
 47116  1  0  0  0
 48 56  1  0  0  0
 48 65  1  0  0  0
 48117  1  0  0  0
 49 50  1  0  0  0
 49 53  1  0  0  0
 49 64  1  0  0  0
 49118  1  0  0  0
 50 51  1  0  0  0
 50119  1  0  0  0
 50120  1  0  0  0
 51 52  1  0  0  0
 51121  1  0  0  0
 51122  1  0  0  0
 52123  1  0  0  0
 52124  1  0  0  0
 53 54  1  0  0  0
 54 55  2  0  0  0
 54125  1  0  0  0
 55 57  1  0  0  0
 55126  1  0  0  0
 56 69  2  0  0  0
 57 58  2  0  0  0
 57127  1  0  0  0
 58128  1  0  0  0
 59 60  1  0  0  0
 59 61  1  0  0  0
 59 62  1  0  0  0
 60129  1  0  0  0
 60130  1  0  0  0
 60131  1  0  0  0
 61132  1  0  0  0
 61133  1  0  0  0
 61134  1  0  0  0
 62135  1  0  0  0
 62136  1  0  0  0
 62137  1  0  0  0
 63 65  1  0  0  0
 63138  1  0  0  0
 63139  1  0  0  0
 63140  1  0  0  0
 64141  1  0  0  0
 65142  1  0  0  0
 68 77  1  0  0  0
 71 72  2  0  0  0
 71 79  1  0  0  0
 71143  1  0  0  0
 72 73  1  0  0  0
 72 82  1  0  0  0
 73 80  2  0  0  0
 73 81  1  0  0  0
 74 79  2  0  0  0
 74 80  1  0  0  0
 74 83  1  0  0  0
 75144  1  0  0  0
 75145  1  0  0  0
 75146  1  0  0  0
 75 78  1  0  0  0
 76 77  1  0  0  0
 76 78  1  0  0  0
 76147  1  0  0  0
 76148  1  0  0  0
 77149  1  0  0  0
 77150  1  0  0  0
 78 82  1  0  0  0
 78151  1  0  0  0
 81152  1  0  0  0
 81153  1  0  0  0
 82154  1  0  0  0
 83155  1  0  0  0
M  ISO  4   1 100  68 101  77 101  83 100
M  END
> <chiral flag>
0

> <version>
0

> <s_m_source_file>
/data/baiqing/PycharmProjects/Reinvent-master-3.2/result/LINK_invent/BTK/process_docking_weight1_custom_product_contain_oxygen_bond_distance_aromatic_linkinvent_7_9_3/rearranged_h_0193.sdf

> <i_m_source_file_index>
47

> <r_mmod_Potential_Energy-OPLS-2005>
-385.035919189453

> <r_mmod_Stretch_Energy-OPLS-2005>
82.4156951904297

> <r_mmod_Bend_Energy-OPLS-2005>
170.327072143555

> <r_mmod_Torsional_Energy-OPLS-2005>
257.573852539062

> <r_mmod_Improper_Torsional_Energy-OPLS-2005>
10.0493698120117

> <r_mmod_Van_der_Waal_Energy-OPLS-2005>
145.269943237305

> <r_mmod_Electrostatic_Energy-OPLS-2005>
-867.243591308594

> <r_mmod_Solvation_Energy-OPLS-2005>
-237.451019287109

> <b_mmod_Minimization_Converged-OPLS-2005>
0

> <r_mmod_RMS_Derivative-OPLS-2005>
3.25726366043091

$$$$
47
                    3D
 Structure written by MMmdl.
157165  0  0  1  0            999 V2000
  -30.7132  -14.5069   20.5819 C   0  0  0  0  0  0
  -30.4139  -12.3398   19.4178 C   0  0  0  0  0  0
  -29.4817  -12.5038   18.2016 C   0  0  0  0  0  0
  -28.0097  -12.3493   18.6234 C   0  0  0  0  0  0
  -27.6524  -13.2056   19.8647 C   0  0  2  0  0  0
  -28.6969  -13.0366   20.9889 C   0  0  0  0  0  0
  -25.2585  -13.8171   20.5688 C   0  0  0  0  0  0
  -24.1831  -13.0451   20.9154 C   0  0  0  0  0  0
  -24.6371  -11.6905   20.8731 C   0  0  0  0  0  0
  -23.9033  -10.4298   21.0408 C   0  0  0  0  0  0
  -24.3589   -9.4212   21.9180 C   0  0  0  0  0  0
  -23.6279   -8.2240   22.0746 C   0  0  0  0  0  0
  -22.4269   -8.0263   21.3535 C   0  0  0  0  0  0
  -21.9890   -9.0241   20.4647 C   0  0  0  0  0  0
  -22.7205  -10.2132   20.3063 C   0  0  0  0  0  0
  -21.6861   -6.0713   22.5267 C   0  0  0  0  0  0
  -21.4019   -6.5626   23.8192 C   0  0  0  0  0  0
  -21.3652   -5.6780   24.9158 C   0  0  0  0  0  0
  -21.6045   -4.3042   24.7222 C   0  0  0  0  0  0
  -21.8829   -3.8129   23.4348 C   0  0  0  0  0  0
  -21.9205   -4.6942   22.3400 C   0  0  0  0  0  0
  -22.7863  -13.5247   21.1832 C   0  0  0  0  0  0
  -22.1678   -4.2118   21.0981 F   0  0  0  0  0  0
  -21.5614   -3.4538   25.7741 F   0  0  0  0  0  0
  -30.0189  -13.3432   20.4223 N   0  0  0  0  0  0
  -26.2987  -12.9315   20.3343 N   0  0  0  0  0  0
  -25.9292  -11.6474   20.5771 N   0  0  0  0  0  0
  -22.0530  -12.8246   22.0408 N   0  0  0  0  0  0
  -25.4406  -15.1895   20.4142 N   0  0  0  0  0  0
  -31.8415  -14.6687   20.1076 O   0  0  0  0  0  0
  -21.6642   -6.8857   21.4231 O   0  0  0  0  0  0
  -22.3526  -14.5542   20.6671 O   0  0  0  0  0  0
  -24.6170  -31.8642   23.2071 C   0  0  0  0  0  0
  -25.9043  -32.4795   23.8369 C   0  0  1  0  0  0
  -27.2285  -27.3918   20.0954 C   0  0  0  0  0  0
  -25.5875  -33.8600   24.2296 N   0  0  0  0  0  0
  -23.4059  -30.4853   21.5514 C   0  0  2  0  0  0
  -24.8478  -28.9443   20.1164 C   0  0  0  0  0  0
  -22.7422  -29.4624   22.5010 C   0  0  0  0  0  0
  -18.0268  -28.1316   22.8562 C   0  0  0  0  0  0
  -24.1480  -36.7319   23.2641 C   0  0  0  0  0  0
  -25.9376  -30.8158   21.3626 C   0  0  0  0  0  0
  -26.0106  -29.4470   20.7103 C   0  0  0  0  0  0
  -27.1999  -28.6773   20.6959 C   0  0  0  0  0  0
  -26.0371  -26.9038   19.5103 C   0  0  0  0  0  0
  -24.8572  -27.6740   19.5152 C   0  0  0  0  0  0
  -23.6135  -29.8177   20.1662 C   0  0  0  0  0  0
  -25.4107  -36.3117   24.0339 C   0  0  1  0  0  0
  -20.5867  -28.3613   23.1354 C   0  0  2  0  0  0
  -20.6733  -26.9325   22.5493 C   0  0  0  0  0  0
  -19.5721  -26.6373   21.5249 C   0  0  0  0  0  0
  -18.1904  -26.7865   22.1688 C   0  0  0  0  0  0
  -19.1531  -28.8790   23.2928 C   0  0  0  0  0  0
  -18.9468  -30.1383   23.8982 C   0  0  0  0  0  0
  -17.6475  -30.6490   24.0716 C   0  0  0  0  0  0
  -25.9027  -34.9470   23.5128 C   0  0  0  0  0  0
  -16.5353  -29.8980   23.6527 C   0  0  0  0  0  0
  -16.7268  -28.6418   23.0508 C   0  0  0  0  0  0
  -26.4450  -31.6589   25.0715 C   0  0  0  0  0  0
  -25.3708  -31.3706   26.1465 C   0  0  0  0  0  0
  -27.0289  -30.3036   24.6096 C   0  0  0  0  0  0
  -27.6017  -32.4336   25.7464 C   0  0  0  0  0  0
  -27.5587  -37.1817   24.8469 C   0  0  0  0  0  0
  -21.4159  -29.2948   22.3725 N   0  0  0  0  0  0
  -26.4302  -37.3802   23.9412 N   0  0  0  0  0  0
  -24.6724  -31.0700   22.0996 N   0  0  0  0  0  0
  -23.4182  -28.8212   23.3103 O   0  0  0  0  0  0
  -28.4119  -26.6680   20.1202 O   0  0  0  0  0  0
  -26.5608  -34.8929   22.4697 O   0  0  0  0  0  0
  -23.5357  -32.1421   23.7444 O   0  0  0  0  0  0
  -28.2531  -17.9650   19.3423 C   0  0  0  0  0  0
  -29.0234  -18.9800   19.8730 C   0  0  0  0  0  0
  -29.5965  -16.6880   20.6798 C   0  0  0  0  0  0
  -27.1399  -18.1302   18.3523 C   0  0  0  0  0  0
  -27.1919  -21.2019   20.9046 C   0  0  0  0  0  0
  -28.2866  -24.1203   20.2958 C   0  0  0  0  0  0
  -28.7138  -22.7959   19.5805 C   0  0  0  0  0  0
  -28.5505  -25.3992   19.4389 C   0  0  0  0  0  0
  -28.6119  -21.4419   20.3633 C   0  0  2  0  0  0
  -28.5867  -16.6769   19.8013 N   0  0  0  0  0  0
  -29.0154  -20.3378   19.4797 N   0  0  0  0  0  0
  -30.1268  -15.5018   21.2793 N   0  0  0  0  0  0
  -30.1532  -18.3329   21.0530 S   0  0  0  0  0  0
  -31.4557  -12.4384   19.1074 H   0  0  0  0  0  0
  -30.3215  -11.3370   19.8354 H   0  0  0  0  0  0
  -29.7250  -11.7670   17.4358 H   0  0  0  0  0  0
  -29.6339  -13.4835   17.7435 H   0  0  0  0  0  0
  -27.8381  -11.2957   18.8438 H   0  0  0  0  0  0
  -27.3494  -12.5977   17.7919 H   0  0  0  0  0  0
  -27.6770  -14.2415   19.5355 H   0  0  0  0  0  0
  -28.6867  -12.0178   21.3782 H   0  0  0  0  0  0
  -28.4515  -13.6784   21.8367 H   0  0  0  0  0  0
  -25.2735   -9.5693   22.4747 H   0  0  0  0  0  0
  -23.9985   -7.4640   22.7466 H   0  0  0  0  0  0
  -21.0807   -8.8773   19.8956 H   0  0  0  0  0  0
  -22.3658  -10.9672   19.6175 H   0  0  0  0  0  0
  -21.2015   -7.6136   23.9689 H   0  0  0  0  0  0
  -21.1461   -6.0514   25.9058 H   0  0  0  0  0  0
  -22.0623   -2.7594   23.2867 H   0  0  0  0  0  0
  -22.4157  -11.9889   22.4759 H   0  0  0  0  0  0
  -21.1154  -13.1272   22.2646 H   0  0  0  0  0  0
  -24.6957  -15.8639   20.5470 H   0  0  0  0  0  0
  -26.3267  -15.6174   20.1672 H   0  0  0  0  0  0
  -26.7119  -32.5484   23.1132 H   0  0  0  0  0  0
  -25.0013  -33.9757   25.0436 H   0  0  0  0  0  0
  -22.6977  -31.3036   21.4140 H   0  0  0  0  0  0
  -23.3744  -35.9652   23.3317 H   0  0  0  0  0  0
  -24.3569  -36.8917   22.2051 H   0  0  0  0  0  0
  -23.7224  -37.6527   23.6645 H   0  0  0  0  0  0
  -26.0513  -31.5765   20.5889 H   0  0  0  0  0  0
  -26.8265  -30.8735   21.9785 H   0  0  0  0  0  0
  -28.0996  -29.0610   21.1552 H   0  0  0  0  0  0
  -25.9884  -25.9218   19.0633 H   0  0  0  0  0  0
  -23.9566  -27.2770   19.0648 H   0  0  0  0  0  0
  -23.7265  -30.5941   19.4099 H   0  0  0  0  0  0
  -22.7346  -29.2427   19.8683 H   0  0  0  0  0  0
  -25.1285  -36.2000   25.0837 H   0  0  0  0  0  0
  -20.9948  -28.3200   24.1479 H   0  0  0  0  0  0
  -20.5551  -26.2224   23.3700 H   0  0  0  0  0  0
  -21.6632  -26.7312   22.1385 H   0  0  0  0  0  0
  -19.6876  -25.6340   21.1145 H   0  0  0  0  0  0
  -19.6659  -27.3301   20.6873 H   0  0  0  0  0  0
  -17.4139  -26.6604   21.4121 H   0  0  0  0  0  0
  -18.0334  -25.9970   22.9062 H   0  0  0  0  0  0
  -19.7955  -30.7148   24.2422 H   0  0  0  0  0  0
  -17.5038  -31.6130   24.5426 H   0  0  0  0  0  0
  -15.5348  -30.2807   23.8016 H   0  0  0  0  0  0
  -15.8671  -28.0672   22.7343 H   0  0  0  0  0  0
  -24.5861  -30.7073   25.7803 H   0  0  0  0  0  0
  -24.8910  -32.2864   26.4934 H   0  0  0  0  0  0
  -25.8039  -30.8853   27.0215 H   0  0  0  0  0  0
  -26.2840  -29.6797   24.1134 H   0  0  0  0  0  0
  -27.4062  -29.7271   25.4547 H   0  0  0  0  0  0
  -27.8666  -30.4378   23.9246 H   0  0  0  0  0  0
  -27.2619  -33.3630   26.2055 H   0  0  0  0  0  0
  -28.3784  -32.6912   25.0252 H   0  0  0  0  0  0
  -28.0727  -31.8456   26.5355 H   0  0  0  0  0  0
  -28.2623  -38.0098   24.7509 H   0  0  0  0  0  0
  -28.1063  -36.2632   24.6307 H   0  0  0  0  0  0
  -27.2301  -37.1484   25.8870 H   0  0  0  0  0  0
  -20.9315  -29.8559   21.6862 H   0  0  0  0  0  0
  -26.0195  -38.2888   24.1400 H   0  0  0  0  0  0
  -26.2181  -18.4194   18.8577 H   0  0  0  0  0  0
  -27.3633  -18.9076   17.6207 H   0  0  0  0  0  0
  -26.9411  -17.2112   17.8025 H   0  0  0  0  0  0
  -26.4517  -21.1804   20.1031 H   0  0  0  0  0  0
  -26.8977  -21.9858   21.6023 H   0  0  0  0  0  0
  -27.1209  -20.2585   21.4480 H   0  0  0  0  0  0
  -28.8266  -24.2023   21.2391 H   0  0  0  0  0  0
  -27.2274  -24.0797   20.5517 H   0  0  0  0  0  0
  -29.7502  -22.9128   19.2595 H   0  0  0  0  0  0
  -28.1321  -22.7159   18.6602 H   0  0  0  0  0  0
  -27.9889  -25.3702   18.5060 H   0  0  0  0  0  0
  -29.5925  -25.3652   19.1206 H   0  0  0  0  0  0
  -29.3061  -21.4710   21.2061 H   0  0  0  0  0  0
  -28.7105  -20.4729   18.5201 H   0  0  0  0  0  0
  -30.7290  -15.7576   22.0474 H   0  0  0  0  0  0
  1 25  1  0  0  0
  1 30  2  0  0  0
  1 82  1  0  0  0
  2  3  1  0  0  0
  2 25  1  0  0  0
  2 84  1  0  0  0
  2 85  1  0  0  0
  3  4  1  0  0  0
  3 86  1  0  0  0
  3 87  1  0  0  0
  4  5  1  0  0  0
  4 88  1  0  0  0
  4 89  1  0  0  0
  5  6  1  0  0  0
  5 26  1  0  0  0
  5 90  1  0  0  0
  6 25  1  0  0  0
  6 91  1  0  0  0
  6 92  1  0  0  0
  7  8  2  0  0  0
  7 26  1  0  0  0
  7 29  1  0  0  0
  8  9  1  0  0  0
  8 22  1  0  0  0
  9 10  1  0  0  0
  9 27  2  0  0  0
 10 11  2  0  0  0
 10 15  1  0  0  0
 11 12  1  0  0  0
 11 93  1  0  0  0
 12 13  2  0  0  0
 12 94  1  0  0  0
 13 14  1  0  0  0
 13 31  1  0  0  0
 14 15  2  0  0  0
 14 95  1  0  0  0
 15 96  1  0  0  0
 16 17  2  0  0  0
 16 21  1  0  0  0
 16 31  1  0  0  0
 17 18  1  0  0  0
 17 97  1  0  0  0
 18 19  2  0  0  0
 18 98  1  0  0  0
 19 20  1  0  0  0
 19 24  1  0  0  0
 20 21  2  0  0  0
 20 99  1  0  0  0
 21 23  1  0  0  0
 22 28  1  0  0  0
 22 32  2  0  0  0
 26 27  1  0  0  0
 28100  1  0  0  0
 28101  1  0  0  0
 29102  1  0  0  0
 29103  1  0  0  0
 33 34  1  0  0  0
 33 66  1  0  0  0
 33 70  2  0  0  0
 34 36  1  0  0  0
 34 59  1  0  0  0
 34104  1  0  0  0
 35 44  2  0  0  0
 35 45  1  0  0  0
 35 68  1  0  0  0
 36 56  1  0  0  0
 36105  1  0  0  0
 37 39  1  0  0  0
 37 47  1  0  0  0
 37 66  1  0  0  0
 37106  1  0  0  0
 38 43  2  0  0  0
 38 46  1  0  0  0
 38 47  1  0  0  0
 39 64  1  0  0  0
 39 67  2  0  0  0
 40 52  1  0  0  0
 40 53  2  0  0  0
 40 58  1  0  0  0
 41107  1  0  0  0
 41108  1  0  0  0
 41109  1  0  0  0
 41 48  1  0  0  0
 42 43  1  0  0  0
 42 66  1  0  0  0
 42110  1  0  0  0
 42111  1  0  0  0
 43 44  1  0  0  0
 44112  1  0  0  0
 45 46  2  0  0  0
 45113  1  0  0  0
 46114  1  0  0  0
 47115  1  0  0  0
 47116  1  0  0  0
 48 56  1  0  0  0
 48 65  1  0  0  0
 48117  1  0  0  0
 49 50  1  0  0  0
 49 53  1  0  0  0
 49 64  1  0  0  0
 49118  1  0  0  0
 50 51  1  0  0  0
 50119  1  0  0  0
 50120  1  0  0  0
 51 52  1  0  0  0
 51121  1  0  0  0
 51122  1  0  0  0
 52123  1  0  0  0
 52124  1  0  0  0
 53 54  1  0  0  0
 54 55  2  0  0  0
 54125  1  0  0  0
 55 57  1  0  0  0
 55126  1  0  0  0
 56 69  2  0  0  0
 57 58  2  0  0  0
 57127  1  0  0  0
 58128  1  0  0  0
 59 60  1  0  0  0
 59 61  1  0  0  0
 59 62  1  0  0  0
 60129  1  0  0  0
 60130  1  0  0  0
 60131  1  0  0  0
 61132  1  0  0  0
 61133  1  0  0  0
 61134  1  0  0  0
 62135  1  0  0  0
 62136  1  0  0  0
 62137  1  0  0  0
 63 65  1  0  0  0
 63138  1  0  0  0
 63139  1  0  0  0
 63140  1  0  0  0
 64141  1  0  0  0
 65142  1  0  0  0
 68 78  1  0  0  0
 71 72  2  0  0  0
 71 74  1  0  0  0
 71 80  1  0  0  0
 72 81  1  0  0  0
 72 83  1  0  0  0
 73 80  2  0  0  0
 73 82  1  0  0  0
 73 83  1  0  0  0
 74143  1  0  0  0
 74144  1  0  0  0
 74145  1  0  0  0
 75146  1  0  0  0
 75147  1  0  0  0
 75148  1  0  0  0
 75 79  1  0  0  0
 76 77  1  0  0  0
 76 78  1  0  0  0
 76149  1  0  0  0
 76150  1  0  0  0
 77 79  1  0  0  0
 77151  1  0  0  0
 77152  1  0  0  0
 78153  1  0  0  0
 78154  1  0  0  0
 79 81  1  0  0  0
 79155  1  0  0  0
 81156  1  0  0  0
 82157  1  0  0  0
M  ISO  4   1 100  68 101  78 101  82 100
M  END
> <chiral flag>
0

> <version>
0

> <s_m_source_file>
/data/baiqing/PycharmProjects/Reinvent-master-3.2/result/LINK_invent/BTK/process_docking_weight1_custom_product_contain_oxygen_bond_distance_aromatic_linkinvent_7_9_3/rearranged_h_0193.sdf

> <i_m_source_file_index>
48

> <r_mmod_Potential_Energy-OPLS-2005>
-69.8243179321289

> <r_mmod_Stretch_Energy-OPLS-2005>
42.1367607116699

> <r_mmod_Bend_Energy-OPLS-2005>
126.924026489258

> <r_mmod_Torsional_Energy-OPLS-2005>
257.764190673828

> <r_mmod_Improper_Torsional_Energy-OPLS-2005>
9.7344274520874

> <r_mmod_Van_der_Waal_Energy-OPLS-2005>
113.737365722656

> <r_mmod_Electrostatic_Energy-OPLS-2005>
-432.410461425781

> <r_mmod_Solvation_Energy-OPLS-2005>
-206.898681640625

> <b_mmod_Minimization_Converged-OPLS-2005>
0

> <r_mmod_RMS_Derivative-OPLS-2005>
2.48579454421997

$$$$
48
                    3D
 Structure written by MMmdl.
165173  0  0  1  0            999 V2000
  -30.6478  -14.5973   20.4750 C   0  0  0  0  0  0
  -30.4236  -12.3570   19.4648 C   0  0  0  0  0  0
  -29.5081  -12.5005   18.2293 C   0  0  0  0  0  0
  -28.0262  -12.3583   18.6301 C   0  0  0  0  0  0
  -27.6525  -13.2221   19.8655 C   0  0  2  0  0  0
  -28.6936  -13.0780   20.9995 C   0  0  0  0  0  0
  -25.2547  -13.8190   20.5677 C   0  0  0  0  0  0
  -24.1825  -13.0446   20.9187 C   0  0  0  0  0  0
  -24.6407  -11.6921   20.8746 C   0  0  0  0  0  0
  -23.9081  -10.4299   21.0410 C   0  0  0  0  0  0
  -24.3634   -9.4214   21.9185 C   0  0  0  0  0  0
  -23.6308   -8.2247   22.0751 C   0  0  0  0  0  0
  -22.4288   -8.0287   21.3541 C   0  0  0  0  0  0
  -21.9926   -9.0265   20.4646 C   0  0  0  0  0  0
  -22.7256  -10.2144   20.3056 C   0  0  0  0  0  0
  -21.6857   -6.0747   22.5282 C   0  0  0  0  0  0
  -21.4017   -6.5646   23.8219 C   0  0  0  0  0  0
  -21.3660   -5.6793   24.9177 C   0  0  0  0  0  0
  -21.6041   -4.3057   24.7222 C   0  0  0  0  0  0
  -21.8820   -3.8153   23.4344 C   0  0  0  0  0  0
  -21.9193   -4.6973   22.3401 C   0  0  0  0  0  0
  -22.7845  -13.5232   21.1847 C   0  0  0  0  0  0
  -22.1657   -4.2164   21.0979 F   0  0  0  0  0  0
  -21.5631   -3.4533   25.7730 F   0  0  0  0  0  0
  -30.0145  -13.3871   20.4389 N   0  0  0  0  0  0
  -26.2984  -12.9384   20.3328 N   0  0  0  0  0  0
  -25.9337  -11.6535   20.5766 N   0  0  0  0  0  0
  -22.0484  -12.8232   22.0406 N   0  0  0  0  0  0
  -25.4235  -15.1915   20.4101 N   0  0  0  0  0  0
  -31.8252  -14.7171   20.1225 O   0  0  0  0  0  0
  -21.6643   -6.8892   21.4245 O   0  0  0  0  0  0
  -22.3533  -14.5535   20.6694 O   0  0  0  0  0  0
  -24.6205  -31.8619   23.2037 C   0  0  0  0  0  0
  -25.9074  -32.4784   23.8357 C   0  0  1  0  0  0
  -27.2271  -27.3535   20.1120 C   0  0  0  0  0  0
  -25.5902  -33.8586   24.2278 N   0  0  0  0  0  0
  -23.4119  -30.4846   21.5445 C   0  0  2  0  0  0
  -24.8567  -28.9371   20.1097 C   0  0  0  0  0  0
  -22.7438  -29.4637   22.4945 C   0  0  0  0  0  0
  -18.0280  -28.1389   22.8489 C   0  0  0  0  0  0
  -24.1484  -36.7297   23.2641 C   0  0  0  0  0  0
  -25.9474  -30.8006   21.3706 C   0  0  0  0  0  0
  -26.0190  -29.4294   20.7147 C   0  0  0  0  0  0
  -27.2013  -28.6439   20.7130 C   0  0  0  0  0  0
  -26.0431  -26.8915   19.4964 C   0  0  0  0  0  0
  -24.8677  -27.6712   19.4965 C   0  0  0  0  0  0
  -23.6238  -29.8153   20.1593 C   0  0  0  0  0  0
  -25.4111  -36.3088   24.0331 C   0  0  1  0  0  0
  -20.5872  -28.3687   23.1295 C   0  0  2  0  0  0
  -20.6769  -26.9416   22.5412 C   0  0  0  0  0  0
  -19.5745  -26.6390   21.5212 C   0  0  0  0  0  0
  -18.1925  -26.7935   22.1626 C   0  0  0  0  0  0
  -19.1529  -28.8855   23.2890 C   0  0  0  0  0  0
  -18.9458  -30.1459   23.8906 C   0  0  0  0  0  0
  -17.6458  -30.6596   24.0567 C   0  0  0  0  0  0
  -25.9045  -34.9457   23.5107 C   0  0  0  0  0  0
  -16.5349  -29.9096   23.6330 C   0  0  0  0  0  0
  -16.7267  -28.6513   23.0348 C   0  0  0  0  0  0
  -26.4472  -31.6597   25.0726 C   0  0  0  0  0  0
  -25.3712  -31.3729   26.1456 C   0  0  0  0  0  0
  -27.0324  -30.3030   24.6178 C   0  0  0  0  0  0
  -27.6035  -32.4335   25.7491 C   0  0  0  0  0  0
  -27.5578  -37.1805   24.8464 C   0  0  0  0  0  0
  -21.4159  -29.3039   22.3686 N   0  0  0  0  0  0
  -26.4290  -37.3781   23.9406 N   0  0  0  0  0  0
  -24.6781  -31.0658   22.0969 N   0  0  0  0  0  0
  -23.4178  -28.8197   23.3027 O   0  0  0  0  0  0
  -28.3846  -26.5822   20.1843 O   0  0  0  0  0  0
  -26.5620  -34.8922   22.4675 O   0  0  0  0  0  0
  -23.5383  -32.1404   23.7395 O   0  0  0  0  0  0
  -30.2489  -16.7848   18.5389 C   0  0  0  0  0  0
  -29.5373  -18.9198   18.0245 C   0  0  0  0  0  0
  -29.8347  -16.9117   19.8921 C   0  0  0  0  0  0
  -29.1586  -19.1467   19.3838 C   0  0  0  0  0  0
  -28.2505  -19.3437   15.8795 C   0  0  0  0  0  0
  -30.5749  -20.3336   16.1734 C   0  0  0  0  0  0
  -30.1518  -22.7489   18.8166 C   0  0  0  0  0  0
  -28.2438  -23.9229   20.1669 C   0  0  0  0  0  0
  -29.0713  -21.3430   20.6935 C   0  0  0  0  0  0
  -28.5554  -25.3193   19.4697 C   0  0  0  0  0  0
  -29.2758  -19.9040   16.8791 C   0  0  0  0  0  0
  -29.3790  -22.8078   20.1443 C   0  0  1  0  0  0
  -30.1044  -17.7612   17.6244 N   0  0  0  0  0  0
  -29.3101  -18.1287   20.3062 N   0  0  0  0  0  0
  -29.8748  -15.7032   20.7056 N   0  0  0  0  0  0
  -28.5061  -20.3655   19.7370 N   0  0  0  0  0  0
  -31.4708  -12.4512   19.1720 H   0  0  0  0  0  0
  -30.3249  -11.3628   19.9038 H   0  0  0  0  0  0
  -29.7677  -11.7512   17.4803 H   0  0  0  0  0  0
  -29.6705  -13.4720   17.7589 H   0  0  0  0  0  0
  -27.8430  -11.3053   18.8456 H   0  0  0  0  0  0
  -27.3818  -12.6101   17.7860 H   0  0  0  0  0  0
  -27.6708  -14.2590   19.5298 H   0  0  0  0  0  0
  -28.6883  -12.0633   21.4006 H   0  0  0  0  0  0
  -28.4520  -13.7349   21.8365 H   0  0  0  0  0  0
  -25.2783   -9.5691   22.4761 H   0  0  0  0  0  0
  -24.0019   -7.4639   22.7473 H   0  0  0  0  0  0
  -21.0850   -8.8795   19.8959 H   0  0  0  0  0  0
  -22.3717  -10.9688   19.6167 H   0  0  0  0  0  0
  -21.2008   -7.6154   23.9731 H   0  0  0  0  0  0
  -21.1479   -6.0517   25.9084 H   0  0  0  0  0  0
  -22.0597   -2.7614   23.2834 H   0  0  0  0  0  0
  -22.4083  -11.9893   22.4806 H   0  0  0  0  0  0
  -21.1107  -13.1274   22.2605 H   0  0  0  0  0  0
  -24.6535  -15.8418   20.5228 H   0  0  0  0  0  0
  -26.2742  -15.6388   20.0934 H   0  0  0  0  0  0
  -26.7143  -32.5459   23.1107 H   0  0  0  0  0  0
  -25.0027  -33.9737   25.0409 H   0  0  0  0  0  0
  -22.7046  -31.3043   21.4018 H   0  0  0  0  0  0
  -23.3747  -35.9629   23.3307 H   0  0  0  0  0  0
  -24.3573  -36.8915   22.2053 H   0  0  0  0  0  0
  -23.7239  -37.6501   23.6661 H   0  0  0  0  0  0
  -26.0769  -31.5658   20.6039 H   0  0  0  0  0  0
  -26.8286  -30.8464   21.9994 H   0  0  0  0  0  0
  -28.0945  -29.0148   21.1957 H   0  0  0  0  0  0
  -26.0013  -25.9151   19.0368 H   0  0  0  0  0  0
  -23.9709  -27.2847   19.0311 H   0  0  0  0  0  0
  -23.7412  -30.5901   19.4007 H   0  0  0  0  0  0
  -22.7442  -29.2429   19.8591 H   0  0  0  0  0  0
  -25.1294  -36.1938   25.0827 H   0  0  0  0  0  0
  -20.9970  -28.3259   24.1412 H   0  0  0  0  0  0
  -20.5669  -26.2298   23.3607 H   0  0  0  0  0  0
  -21.6639  -26.7454   22.1202 H   0  0  0  0  0  0
  -19.6906  -25.6299   21.1245 H   0  0  0  0  0  0
  -19.6685  -27.3197   20.6739 H   0  0  0  0  0  0
  -17.4193  -26.6677   21.4032 H   0  0  0  0  0  0
  -18.0335  -26.0080   22.9028 H   0  0  0  0  0  0
  -19.7934  -30.7270   24.2278 H   0  0  0  0  0  0
  -17.5018  -31.6277   24.5164 H   0  0  0  0  0  0
  -15.5352  -30.3001   23.7659 H   0  0  0  0  0  0
  -15.8666  -28.0842   22.7056 H   0  0  0  0  0  0
  -24.5872  -30.7101   25.7777 H   0  0  0  0  0  0
  -24.8919  -32.2894   26.4907 H   0  0  0  0  0  0
  -25.8031  -30.8878   27.0217 H   0  0  0  0  0  0
  -26.2907  -29.6783   24.1189 H   0  0  0  0  0  0
  -27.4010  -29.7284   25.4685 H   0  0  0  0  0  0
  -27.8773  -30.4327   23.9412 H   0  0  0  0  0  0
  -27.2645  -33.3627   26.2084 H   0  0  0  0  0  0
  -28.3831  -32.6913   25.0310 H   0  0  0  0  0  0
  -28.0721  -31.8456   26.5391 H   0  0  0  0  0  0
  -28.2596  -38.0103   24.7510 H   0  0  0  0  0  0
  -28.1074  -36.2633   24.6289 H   0  0  0  0  0  0
  -27.2298  -37.1455   25.8869 H   0  0  0  0  0  0
  -20.9330  -29.8747   21.6892 H   0  0  0  0  0  0
  -26.0172  -38.2857   24.1405 H   0  0  0  0  0  0
  -30.6414  -15.8631   18.1355 H   0  0  0  0  0  0
  -27.3180  -19.0841   16.3820 H   0  0  0  0  0  0
  -28.6213  -18.4453   15.3859 H   0  0  0  0  0  0
  -28.0171  -20.0738   15.1036 H   0  0  0  0  0  0
  -31.2918  -20.7547   16.8772 H   0  0  0  0  0  0
  -30.3771  -21.0916   15.4154 H   0  0  0  0  0  0
  -31.0611  -19.4923   15.6793 H   0  0  0  0  0  0
  -30.8144  -23.6049   18.6922 H   0  0  0  0  0  0
  -29.4804  -22.7375   17.9606 H   0  0  0  0  0  0
  -30.7919  -21.8686   18.7804 H   0  0  0  0  0  0
  -27.3463  -23.5101   19.7045 H   0  0  0  0  0  0
  -27.9668  -24.1071   21.2050 H   0  0  0  0  0  0
  -28.4037  -21.4100   21.5543 H   0  0  0  0  0  0
  -29.9996  -20.9198   21.0819 H   0  0  0  0  0  0
  -28.0769  -25.3609   18.4910 H   0  0  0  0  0  0
  -29.6164  -25.3414   19.2341 H   0  0  0  0  0  0
  -28.8197  -20.8028   17.2801 H   0  0  0  0  0  0
  -30.1060  -23.1885   20.8639 H   0  0  0  0  0  0
  -29.0483  -15.5405   21.2579 H   0  0  0  0  0  0
  -28.1485  -20.8453   18.9182 H   0  0  0  0  0  0
  1 25  1  0  0  0
  1 30  2  0  0  0
  1 85  1  0  0  0
  2  3  1  0  0  0
  2 25  1  0  0  0
  2 87  1  0  0  0
  2 88  1  0  0  0
  3  4  1  0  0  0
  3 89  1  0  0  0
  3 90  1  0  0  0
  4  5  1  0  0  0
  4 91  1  0  0  0
  4 92  1  0  0  0
  5  6  1  0  0  0
  5 26  1  0  0  0
  5 93  1  0  0  0
  6 25  1  0  0  0
  6 94  1  0  0  0
  6 95  1  0  0  0
  7  8  2  0  0  0
  7 26  1  0  0  0
  7 29  1  0  0  0
  8  9  1  0  0  0
  8 22  1  0  0  0
  9 10  1  0  0  0
  9 27  2  0  0  0
 10 11  2  0  0  0
 10 15  1  0  0  0
 11 12  1  0  0  0
 11 96  1  0  0  0
 12 13  2  0  0  0
 12 97  1  0  0  0
 13 14  1  0  0  0
 13 31  1  0  0  0
 14 15  2  0  0  0
 14 98  1  0  0  0
 15 99  1  0  0  0
 16 17  2  0  0  0
 16 21  1  0  0  0
 16 31  1  0  0  0
 17 18  1  0  0  0
 17100  1  0  0  0
 18 19  2  0  0  0
 18101  1  0  0  0
 19 20  1  0  0  0
 19 24  1  0  0  0
 20 21  2  0  0  0
 20102  1  0  0  0
 21 23  1  0  0  0
 22 28  1  0  0  0
 22 32  2  0  0  0
 26 27  1  0  0  0
 28103  1  0  0  0
 28104  1  0  0  0
 29105  1  0  0  0
 29106  1  0  0  0
 33 34  1  0  0  0
 33 66  1  0  0  0
 33 70  2  0  0  0
 34 36  1  0  0  0
 34 59  1  0  0  0
 34107  1  0  0  0
 35 44  2  0  0  0
 35 45  1  0  0  0
 35 68  1  0  0  0
 36 56  1  0  0  0
 36108  1  0  0  0
 37 39  1  0  0  0
 37 47  1  0  0  0
 37 66  1  0  0  0
 37109  1  0  0  0
 38 43  2  0  0  0
 38 46  1  0  0  0
 38 47  1  0  0  0
 39 64  1  0  0  0
 39 67  2  0  0  0
 40 52  1  0  0  0
 40 53  2  0  0  0
 40 58  1  0  0  0
 41110  1  0  0  0
 41111  1  0  0  0
 41112  1  0  0  0
 41 48  1  0  0  0
 42 43  1  0  0  0
 42 66  1  0  0  0
 42113  1  0  0  0
 42114  1  0  0  0
 43 44  1  0  0  0
 44115  1  0  0  0
 45 46  2  0  0  0
 45116  1  0  0  0
 46117  1  0  0  0
 47118  1  0  0  0
 47119  1  0  0  0
 48 56  1  0  0  0
 48 65  1  0  0  0
 48120  1  0  0  0
 49 50  1  0  0  0
 49 53  1  0  0  0
 49 64  1  0  0  0
 49121  1  0  0  0
 50 51  1  0  0  0
 50122  1  0  0  0
 50123  1  0  0  0
 51 52  1  0  0  0
 51124  1  0  0  0
 51125  1  0  0  0
 52126  1  0  0  0
 52127  1  0  0  0
 53 54  1  0  0  0
 54 55  2  0  0  0
 54128  1  0  0  0
 55 57  1  0  0  0
 55129  1  0  0  0
 56 69  2  0  0  0
 57 58  2  0  0  0
 57130  1  0  0  0
 58131  1  0  0  0
 59 60  1  0  0  0
 59 61  1  0  0  0
 59 62  1  0  0  0
 60132  1  0  0  0
 60133  1  0  0  0
 60134  1  0  0  0
 61135  1  0  0  0
 61136  1  0  0  0
 61137  1  0  0  0
 62138  1  0  0  0
 62139  1  0  0  0
 62140  1  0  0  0
 63 65  1  0  0  0
 63141  1  0  0  0
 63142  1  0  0  0
 63143  1  0  0  0
 64144  1  0  0  0
 65145  1  0  0  0
 68 80  1  0  0  0
 71 73  2  0  0  0
 71 83  1  0  0  0
 71146  1  0  0  0
 72 74  1  0  0  0
 72 81  1  0  0  0
 72 83  2  0  0  0
 73 84  1  0  0  0
 73 85  1  0  0  0
 74 84  2  0  0  0
 74 86  1  0  0  0
 75147  1  0  0  0
 75148  1  0  0  0
 75149  1  0  0  0
 75 81  1  0  0  0
 76 81  1  0  0  0
 76150  1  0  0  0
 76151  1  0  0  0
 76152  1  0  0  0
 77153  1  0  0  0
 77154  1  0  0  0
 77155  1  0  0  0
 77 82  1  0  0  0
 78 80  1  0  0  0
 78 82  1  0  0  0
 78156  1  0  0  0
 78157  1  0  0  0
 79 82  1  0  0  0
 79 86  1  0  0  0
 79158  1  0  0  0
 79159  1  0  0  0
 80160  1  0  0  0
 80161  1  0  0  0
 81162  1  0  0  0
 82163  1  0  0  0
 85164  1  0  0  0
 86165  1  0  0  0
M  ISO  4   1 100  68 101  80 101  85 100
M  END
> <chiral flag>
0

> <version>
0

> <s_m_source_file>
/data/baiqing/PycharmProjects/Reinvent-master-3.2/result/LINK_invent/BTK/process_docking_weight1_custom_product_contain_oxygen_bond_distance_aromatic_linkinvent_7_9_3/rearranged_h_0193.sdf

> <i_m_source_file_index>
49

> <r_mmod_Potential_Energy-OPLS-2005>
85.2919769287109

> <r_mmod_Stretch_Energy-OPLS-2005>
73.7548370361328

> <r_mmod_Bend_Energy-OPLS-2005>
156.476821899414

> <r_mmod_Torsional_Energy-OPLS-2005>
267.972259521484

> <r_mmod_Improper_Torsional_Energy-OPLS-2005>
11.5120611190796

> <r_mmod_Van_der_Waal_Energy-OPLS-2005>
151.794387817383

> <r_mmod_Electrostatic_Energy-OPLS-2005>
-391.423736572266

> <r_mmod_Solvation_Energy-OPLS-2005>
-221.046691894531

> <b_mmod_Minimization_Converged-OPLS-2005>
0

> <r_mmod_RMS_Derivative-OPLS-2005>
1.20260798931122

$$$$
49
                    3D
 Structure written by MMmdl.
160168  0  0  1  0            999 V2000
  -30.6877  -14.4721   20.5800 C   0  0  0  0  0  0
  -30.4270  -12.3087   19.4176 C   0  0  0  0  0  0
  -29.4946  -12.5051   18.2037 C   0  0  0  0  0  0
  -28.0146  -12.3684   18.6141 C   0  0  0  0  0  0
  -27.6620  -13.2019   19.8749 C   0  0  2  0  0  0
  -28.7033  -12.9675   20.9929 C   0  0  0  0  0  0
  -25.2595  -13.8149   20.5668 C   0  0  0  0  0  0
  -24.1838  -13.0437   20.9180 C   0  0  0  0  0  0
  -24.6379  -11.6901   20.8736 C   0  0  0  0  0  0
  -23.9046  -10.4286   21.0406 C   0  0  0  0  0  0
  -24.3603   -9.4203   21.9181 C   0  0  0  0  0  0
  -23.6281   -8.2240   22.0753 C   0  0  0  0  0  0
  -22.4268   -8.0276   21.3543 C   0  0  0  0  0  0
  -21.9899   -9.0248   20.4646 C   0  0  0  0  0  0
  -22.7221  -10.2127   20.3050 C   0  0  0  0  0  0
  -21.6853   -6.0731   22.5276 C   0  0  0  0  0  0
  -21.4014   -6.5632   23.8208 C   0  0  0  0  0  0
  -21.3659   -5.6785   24.9171 C   0  0  0  0  0  0
  -21.6044   -4.3049   24.7226 C   0  0  0  0  0  0
  -21.8821   -3.8144   23.4342 C   0  0  0  0  0  0
  -21.9193   -4.6958   22.3401 C   0  0  0  0  0  0
  -22.7861  -13.5239   21.1845 C   0  0  0  0  0  0
  -22.1662   -4.2138   21.0981 F   0  0  0  0  0  0
  -21.5629   -3.4536   25.7740 F   0  0  0  0  0  0
  -30.0349  -13.2850   20.4462 N   0  0  0  0  0  0
  -26.3018  -12.9305   20.3345 N   0  0  0  0  0  0
  -25.9302  -11.6475   20.5761 N   0  0  0  0  0  0
  -22.0494  -12.8234   22.0400 N   0  0  0  0  0  0
  -25.4323  -15.1865   20.4039 N   0  0  0  0  0  0
  -31.8126  -14.6629   20.1064 O   0  0  0  0  0  0
  -21.6637   -6.8872   21.4235 O   0  0  0  0  0  0
  -22.3549  -14.5553   20.6702 O   0  0  0  0  0  0
  -24.6131  -31.8678   23.2080 C   0  0  0  0  0  0
  -25.9018  -32.4818   23.8384 C   0  0  1  0  0  0
  -27.2358  -27.4381   20.1169 C   0  0  0  0  0  0
  -25.5880  -33.8610   24.2324 N   0  0  0  0  0  0
  -23.4027  -30.4895   21.5475 C   0  0  2  0  0  0
  -24.8521  -28.9530   20.1167 C   0  0  0  0  0  0
  -22.7411  -29.4656   22.4978 C   0  0  0  0  0  0
  -18.0289  -28.1405   22.8498 C   0  0  0  0  0  0
  -24.1487  -36.7305   23.2643 C   0  0  0  0  0  0
  -25.9282  -30.8383   21.3590 C   0  0  0  0  0  0
  -26.0086  -29.4701   20.7135 C   0  0  0  0  0  0
  -27.2072  -28.7217   20.7091 C   0  0  0  0  0  0
  -26.0697  -26.9339   19.5090 C   0  0  0  0  0  0
  -24.8751  -27.6822   19.5118 C   0  0  0  0  0  0
  -23.6114  -29.8173   20.1634 C   0  0  0  0  0  0
  -25.4106  -36.3098   24.0348 C   0  0  1  0  0  0
  -20.5874  -28.3672   23.1327 C   0  0  2  0  0  0
  -20.6778  -26.9408   22.5429 C   0  0  0  0  0  0
  -19.5758  -26.6407   21.5222 C   0  0  0  0  0  0
  -18.1933  -26.7949   22.1626 C   0  0  0  0  0  0
  -19.1539  -28.8854   23.2909 C   0  0  0  0  0  0
  -18.9466  -30.1461   23.8918 C   0  0  0  0  0  0
  -17.6471  -30.6604   24.0580 C   0  0  0  0  0  0
  -25.9033  -34.9467   23.5134 C   0  0  0  0  0  0
  -16.5356  -29.9108   23.6336 C   0  0  0  0  0  0
  -16.7279  -28.6531   23.0352 C   0  0  0  0  0  0
  -26.4451  -31.6599   25.0703 C   0  0  0  0  0  0
  -25.3724  -31.3733   26.1464 C   0  0  0  0  0  0
  -27.0280  -30.3047   24.6051 C   0  0  0  0  0  0
  -27.6026  -32.4319   25.7471 C   0  0  0  0  0  0
  -27.5578  -37.1802   24.8465 C   0  0  0  0  0  0
  -21.4138  -29.3031   22.3719 N   0  0  0  0  0  0
  -26.4289  -37.3784   23.9413 N   0  0  0  0  0  0
  -24.6659  -31.0795   22.0969 N   0  0  0  0  0  0
  -23.4179  -28.8217   23.3038 O   0  0  0  0  0  0
  -28.3906  -26.6882   20.0640 O   0  0  0  0  0  0
  -26.5593  -34.8920   22.4691 O   0  0  0  0  0  0
  -23.5327  -32.1424   23.7479 O   0  0  0  0  0  0
  -31.3909  -18.8239   20.9769 C   0  0  0  0  0  0
  -29.0955  -17.6315   21.7209 C   0  0  0  0  0  0
  -30.3224  -19.5789   21.5191 C   0  0  0  0  0  0
  -30.1709  -16.8539   21.2127 C   0  0  0  0  0  0
  -27.9015  -26.0507   22.4545 C   0  0  0  0  0  0
  -30.2055  -26.3770   21.4990 C   0  0  0  0  0  0
  -30.4760  -21.0721   21.8231 C   0  0  0  0  0  0
  -28.7814  -24.3834   20.7152 C   0  0  0  0  0  0
  -29.5268  -23.3641   21.6298 C   0  0  0  0  0  0
  -28.7842  -25.8742   21.1936 C   0  0  0  0  0  0
  -29.1578  -18.9812   21.8742 N   0  0  0  0  0  0
  -31.3161  -17.4768   20.8242 N   0  0  0  0  0  0
  -29.9565  -15.4449   21.1593 N   0  0  0  0  0  0
  -29.4680  -21.9457   21.1720 N   0  3  0  0  0  0
  -31.4696  -12.4169   19.1147 H   0  0  0  0  0  0
  -30.3362  -11.2955   19.8117 H   0  0  0  0  0  0
  -29.7337  -11.7792   17.4254 H   0  0  0  0  0  0
  -29.6617  -13.4892   17.7631 H   0  0  0  0  0  0
  -27.8204  -11.3119   18.8037 H   0  0  0  0  0  0
  -27.3652  -12.6499   17.7838 H   0  0  0  0  0  0
  -27.7092  -14.2516   19.5847 H   0  0  0  0  0  0
  -28.6809  -11.9245   21.3130 H   0  0  0  0  0  0
  -28.4591  -13.5449   21.8856 H   0  0  0  0  0  0
  -25.2754   -9.5683   22.4745 H   0  0  0  0  0  0
  -23.9994   -7.4634   22.7469 H   0  0  0  0  0  0
  -21.0833   -8.8763   19.8950 H   0  0  0  0  0  0
  -22.3684  -10.9663   19.6152 H   0  0  0  0  0  0
  -21.2006   -7.6141   23.9707 H   0  0  0  0  0  0
  -21.1479   -6.0519   25.9074 H   0  0  0  0  0  0
  -22.0601   -2.7602   23.2848 H   0  0  0  0  0  0
  -22.4106  -11.9886   22.4778 H   0  0  0  0  0  0
  -21.1109  -13.1258   22.2602 H   0  0  0  0  0  0
  -24.6602  -15.8385   20.4939 H   0  0  0  0  0  0
  -26.2690  -15.6155   20.0302 H   0  0  0  0  0  0
  -26.7094  -32.5543   23.1159 H   0  0  0  0  0  0
  -25.0021  -33.9778   25.0458 H   0  0  0  0  0  0
  -22.6913  -31.3057   21.4065 H   0  0  0  0  0  0
  -23.3739  -35.9646   23.3321 H   0  0  0  0  0  0
  -24.3598  -36.8898   22.2055 H   0  0  0  0  0  0
  -23.7245  -37.6520   23.6644 H   0  0  0  0  0  0
  -26.0374  -31.6017   20.5871 H   0  0  0  0  0  0
  -26.8159  -30.8938   21.9761 H   0  0  0  0  0  0
  -28.1032  -29.1207   21.1623 H   0  0  0  0  0  0
  -26.0884  -25.9609   19.0380 H   0  0  0  0  0  0
  -23.9854  -27.2805   19.0488 H   0  0  0  0  0  0
  -23.7165  -30.5892   19.3999 H   0  0  0  0  0  0
  -22.7374  -29.2320   19.8724 H   0  0  0  0  0  0
  -25.1286  -36.1954   25.0844 H   0  0  0  0  0  0
  -20.9980  -28.3236   24.1443 H   0  0  0  0  0  0
  -20.5694  -26.2268   23.3612 H   0  0  0  0  0  0
  -21.6647  -26.7469   22.1205 H   0  0  0  0  0  0
  -19.6912  -25.6323   21.1243 H   0  0  0  0  0  0
  -19.6710  -27.3231   20.6764 H   0  0  0  0  0  0
  -17.4209  -26.6715   21.4024 H   0  0  0  0  0  0
  -18.0322  -26.0099   22.9033 H   0  0  0  0  0  0
  -19.7945  -30.7282   24.2285 H   0  0  0  0  0  0
  -17.5028  -31.6285   24.5194 H   0  0  0  0  0  0
  -15.5359  -30.3023   23.7654 H   0  0  0  0  0  0
  -15.8681  -28.0867   22.7041 H   0  0  0  0  0  0
  -24.5861  -30.7122   25.7809 H   0  0  0  0  0  0
  -24.8964  -32.2909   26.4930 H   0  0  0  0  0  0
  -25.8076  -30.8884   27.0209 H   0  0  0  0  0  0
  -26.2826  -29.6823   24.1086 H   0  0  0  0  0  0
  -27.4058  -29.7263   25.4491 H   0  0  0  0  0  0
  -27.8650  -30.4402   23.9197 H   0  0  0  0  0  0
  -27.2642  -33.3611   26.2078 H   0  0  0  0  0  0
  -28.3820  -32.6899   25.0286 H   0  0  0  0  0  0
  -28.0701  -31.8419   26.5369 H   0  0  0  0  0  0
  -28.2595  -38.0096   24.7505 H   0  0  0  0  0  0
  -28.1075  -36.2628   24.6299 H   0  0  0  0  0  0
  -27.2305  -37.1456   25.8870 H   0  0  0  0  0  0
  -20.9293  -29.8739   21.6933 H   0  0  0  0  0  0
  -26.0178  -38.2866   24.1402 H   0  0  0  0  0  0
  -32.3247  -19.2915   20.6988 H   0  0  0  0  0  0
  -28.1708  -17.1619   22.0272 H   0  0  0  0  0  0
  -28.2788  -25.4666   23.2934 H   0  0  0  0  0  0
  -26.8728  -25.7327   22.2780 H   0  0  0  0  0  0
  -27.8786  -27.0858   22.7946 H   0  0  0  0  0  0
  -30.8798  -26.1969   20.6609 H   0  0  0  0  0  0
  -30.6295  -25.8950   22.3800 H   0  0  0  0  0  0
  -30.2094  -27.4504   21.6931 H   0  0  0  0  0  0
  -31.4765  -21.3970   21.5335 H   0  0  0  0  0  0
  -30.4149  -21.1937   22.9051 H   0  0  0  0  0  0
  -27.7483  -24.0604   20.5793 H   0  0  0  0  0  0
  -29.2357  -24.3384   19.7244 H   0  0  0  0  0  0
  -29.1350  -23.4111   22.6465 H   0  0  0  0  0  0
  -30.5756  -23.6559   21.6925 H   0  0  0  0  0  0
  -29.0633  -15.1363   21.5084 H   0  0  0  0  0  0
  -28.5602  -21.5583   21.3748 H   0  0  0  0  0  0
  -29.6109  -21.8941   20.1776 H   0  0  0  0  0  0
  1 25  1  0  0  0
  1 30  2  0  0  0
  1 83  1  0  0  0
  2  3  1  0  0  0
  2 25  1  0  0  0
  2 85  1  0  0  0
  2 86  1  0  0  0
  3  4  1  0  0  0
  3 87  1  0  0  0
  3 88  1  0  0  0
  4  5  1  0  0  0
  4 89  1  0  0  0
  4 90  1  0  0  0
  5  6  1  0  0  0
  5 26  1  0  0  0
  5 91  1  0  0  0
  6 25  1  0  0  0
  6 92  1  0  0  0
  6 93  1  0  0  0
  7  8  2  0  0  0
  7 26  1  0  0  0
  7 29  1  0  0  0
  8  9  1  0  0  0
  8 22  1  0  0  0
  9 10  1  0  0  0
  9 27  2  0  0  0
 10 11  2  0  0  0
 10 15  1  0  0  0
 11 12  1  0  0  0
 11 94  1  0  0  0
 12 13  2  0  0  0
 12 95  1  0  0  0
 13 14  1  0  0  0
 13 31  1  0  0  0
 14 15  2  0  0  0
 14 96  1  0  0  0
 15 97  1  0  0  0
 16 17  2  0  0  0
 16 21  1  0  0  0
 16 31  1  0  0  0
 17 18  1  0  0  0
 17 98  1  0  0  0
 18 19  2  0  0  0
 18 99  1  0  0  0
 19 20  1  0  0  0
 19 24  1  0  0  0
 20 21  2  0  0  0
 20100  1  0  0  0
 21 23  1  0  0  0
 22 28  1  0  0  0
 22 32  2  0  0  0
 26 27  1  0  0  0
 28101  1  0  0  0
 28102  1  0  0  0
 29103  1  0  0  0
 29104  1  0  0  0
 33 34  1  0  0  0
 33 66  1  0  0  0
 33 70  2  0  0  0
 34 36  1  0  0  0
 34 59  1  0  0  0
 34105  1  0  0  0
 35 44  2  0  0  0
 35 45  1  0  0  0
 35 68  1  0  0  0
 36 56  1  0  0  0
 36106  1  0  0  0
 37 39  1  0  0  0
 37 47  1  0  0  0
 37 66  1  0  0  0
 37107  1  0  0  0
 38 43  2  0  0  0
 38 46  1  0  0  0
 38 47  1  0  0  0
 39 64  1  0  0  0
 39 67  2  0  0  0
 40 52  1  0  0  0
 40 53  2  0  0  0
 40 58  1  0  0  0
 41108  1  0  0  0
 41109  1  0  0  0
 41110  1  0  0  0
 41 48  1  0  0  0
 42 43  1  0  0  0
 42 66  1  0  0  0
 42111  1  0  0  0
 42112  1  0  0  0
 43 44  1  0  0  0
 44113  1  0  0  0
 45 46  2  0  0  0
 45114  1  0  0  0
 46115  1  0  0  0
 47116  1  0  0  0
 47117  1  0  0  0
 48 56  1  0  0  0
 48 65  1  0  0  0
 48118  1  0  0  0
 49 50  1  0  0  0
 49 53  1  0  0  0
 49 64  1  0  0  0
 49119  1  0  0  0
 50 51  1  0  0  0
 50120  1  0  0  0
 50121  1  0  0  0
 51 52  1  0  0  0
 51122  1  0  0  0
 51123  1  0  0  0
 52124  1  0  0  0
 52125  1  0  0  0
 53 54  1  0  0  0
 54 55  2  0  0  0
 54126  1  0  0  0
 55 57  1  0  0  0
 55127  1  0  0  0
 56 69  2  0  0  0
 57 58  2  0  0  0
 57128  1  0  0  0
 58129  1  0  0  0
 59 60  1  0  0  0
 59 61  1  0  0  0
 59 62  1  0  0  0
 60130  1  0  0  0
 60131  1  0  0  0
 60132  1  0  0  0
 61133  1  0  0  0
 61134  1  0  0  0
 61135  1  0  0  0
 62136  1  0  0  0
 62137  1  0  0  0
 62138  1  0  0  0
 63 65  1  0  0  0
 63139  1  0  0  0
 63140  1  0  0  0
 63141  1  0  0  0
 64142  1  0  0  0
 65143  1  0  0  0
 68 80  1  0  0  0
 71 73  2  0  0  0
 71 82  1  0  0  0
 71144  1  0  0  0
 72 74  1  0  0  0
 72 81  2  0  0  0
 72145  1  0  0  0
 73 77  1  0  0  0
 73 81  1  0  0  0
 74 82  2  0  0  0
 74 83  1  0  0  0
 75146  1  0  0  0
 75147  1  0  0  0
 75148  1  0  0  0
 75 80  1  0  0  0
 76 80  1  0  0  0
 76149  1  0  0  0
 76150  1  0  0  0
 76151  1  0  0  0
 77 84  1  0  0  0
 77152  1  0  0  0
 77153  1  0  0  0
 78 79  1  0  0  0
 78 80  1  0  0  0
 78154  1  0  0  0
 78155  1  0  0  0
 79 84  1  0  0  0
 79156  1  0  0  0
 79157  1  0  0  0
 83158  1  0  0  0
 84159  1  0  0  0
 84160  1  0  0  0
M  CHG  1  84   1
M  ISO  4   1 100  68 101  80 101  83 100
M  END
> <chiral flag>
0

> <version>
0

> <s_m_source_file>
/data/baiqing/PycharmProjects/Reinvent-master-3.2/result/LINK_invent/BTK/process_docking_weight1_custom_product_contain_oxygen_bond_distance_aromatic_linkinvent_7_9_3/rearranged_h_0193.sdf

> <i_m_source_file_index>
50

> <r_mmod_Potential_Energy-OPLS-2005>
-254.506408691406

> <r_mmod_Stretch_Energy-OPLS-2005>
41.343994140625

> <r_mmod_Bend_Energy-OPLS-2005>
108.832237243652

> <r_mmod_Torsional_Energy-OPLS-2005>
227.396850585938

> <r_mmod_Improper_Torsional_Energy-OPLS-2005>
3.58520460128784

> <r_mmod_Van_der_Waal_Energy-OPLS-2005>
156.161499023438

> <r_mmod_Electrostatic_Energy-OPLS-2005>
-304.465484619141

> <r_mmod_Solvation_Energy-OPLS-2005>
-498.648895263672

> <b_mmod_Minimization_Converged-OPLS-2005>
0

> <r_mmod_RMS_Derivative-OPLS-2005>
1.75771224498749

$$$$
50
                    3D
 Structure written by MMmdl.
152160  0  0  1  0            999 V2000
  -30.6168  -14.6355   20.5157 C   0  0  0  0  0  0
  -30.4693  -12.3892   19.4571 C   0  0  0  0  0  0
  -29.5399  -12.5162   18.2283 C   0  0  0  0  0  0
  -28.0491  -12.3825   18.6168 C   0  0  0  0  0  0
  -27.6703  -13.2142   19.8697 C   0  0  2  0  0  0
  -28.7159  -13.0243   20.9948 C   0  0  0  0  0  0
  -25.2668  -13.8144   20.5667 C   0  0  0  0  0  0
  -24.1907  -13.0400   20.9170 C   0  0  0  0  0  0
  -24.6443  -11.6885   20.8727 C   0  0  0  0  0  0
  -23.9071  -10.4284   21.0429 C   0  0  0  0  0  0
  -24.3625   -9.4193   21.9196 C   0  0  0  0  0  0
  -23.6297   -8.2235   22.0738 C   0  0  0  0  0  0
  -22.4280   -8.0279   21.3546 C   0  0  0  0  0  0
  -21.9939   -9.0275   20.4654 C   0  0  0  0  0  0
  -22.7288  -10.2136   20.3065 C   0  0  0  0  0  0
  -21.6823   -6.0783   22.5336 C   0  0  0  0  0  0
  -21.3993   -6.5668   23.8297 C   0  0  0  0  0  0
  -21.3637   -5.6795   24.9226 C   0  0  0  0  0  0
  -21.6043   -4.3068   24.7239 C   0  0  0  0  0  0
  -21.8817   -3.8176   23.4354 C   0  0  0  0  0  0
  -21.9172   -4.7005   22.3419 C   0  0  0  0  0  0
  -22.7955  -13.5279   21.1849 C   0  0  0  0  0  0
  -22.1653   -4.2212   21.0992 F   0  0  0  0  0  0
  -21.5605   -3.4524   25.7727 F   0  0  0  0  0  0
  -30.0340  -13.3949   20.4468 N   0  0  0  0  0  0
  -26.3080  -12.9314   20.3269 N   0  0  0  0  0  0
  -25.9373  -11.6468   20.5660 N   0  0  0  0  0  0
  -22.0440  -12.8304   22.0303 N   0  0  0  0  0  0
  -25.4276  -15.1875   20.4160 N   0  0  0  0  0  0
  -31.7584  -14.8369   20.0937 O   0  0  0  0  0  0
  -21.6565   -6.8930   21.4313 O   0  0  0  0  0  0
  -22.3695  -14.5609   20.6694 O   0  0  0  0  0  0
  -24.6272  -31.8596   23.1993 C   0  0  0  0  0  0
  -25.9104  -32.4780   23.8321 C   0  0  1  0  0  0
  -27.2643  -27.3486   20.0497 C   0  0  0  0  0  0
  -25.5933  -33.8569   24.2269 N   0  0  0  0  0  0
  -23.4183  -30.4819   21.5454 C   0  0  2  0  0  0
  -24.8647  -28.9254   20.1144 C   0  0  0  0  0  0
  -22.7454  -29.4647   22.4987 C   0  0  0  0  0  0
  -18.0275  -28.1415   22.8488 C   0  0  0  0  0  0
  -24.1479  -36.7270   23.2643 C   0  0  0  0  0  0
  -25.9546  -30.7941   21.3601 C   0  0  0  0  0  0
  -26.0329  -29.4152   20.7105 C   0  0  0  0  0  0
  -27.2241  -28.6300   20.6797 C   0  0  0  0  0  0
  -26.0666  -26.9079   19.4311 C   0  0  0  0  0  0
  -24.8807  -27.6736   19.4792 C   0  0  0  0  0  0
  -23.6278  -29.8011   20.1671 C   0  0  0  0  0  0
  -25.4098  -36.3060   24.0332 C   0  0  1  0  0  0
  -20.5880  -28.3698   23.1338 C   0  0  2  0  0  0
  -20.6760  -26.9435   22.5456 C   0  0  0  0  0  0
  -19.5751  -26.6408   21.5238 C   0  0  0  0  0  0
  -18.1923  -26.7964   22.1633 C   0  0  0  0  0  0
  -19.1531  -28.8867   23.2901 C   0  0  0  0  0  0
  -18.9459  -30.1480   23.8916 C   0  0  0  0  0  0
  -17.6460  -30.6610   24.0592 C   0  0  0  0  0  0
  -25.9043  -34.9439   23.5089 C   0  0  0  0  0  0
  -16.5348  -29.9119   23.6346 C   0  0  0  0  0  0
  -16.7265  -28.6553   23.0341 C   0  0  0  0  0  0
  -26.4492  -31.6559   25.0659 C   0  0  0  0  0  0
  -25.3709  -31.3701   26.1374 C   0  0  0  0  0  0
  -27.0322  -30.2995   24.6044 C   0  0  0  0  0  0
  -27.6060  -32.4280   25.7439 C   0  0  0  0  0  0
  -27.5568  -37.1802   24.8452 C   0  0  0  0  0  0
  -21.4169  -29.3044   22.3711 N   0  0  0  0  0  0
  -26.4265  -37.3770   23.9408 N   0  0  0  0  0  0
  -24.6862  -31.0593   22.0950 N   0  0  0  0  0  0
  -23.4160  -28.8235   23.3104 O   0  0  0  0  0  0
  -28.4499  -26.5910   20.0696 O   0  0  0  0  0  0
  -26.5631  -34.8933   22.4670 O   0  0  0  0  0  0
  -23.5439  -32.1415   23.7345 O   0  0  0  0  0  0
  -30.2284  -19.2331   20.4473 C   0  0  0  0  0  0
  -29.7798  -17.0676   20.9651 C   0  0  0  0  0  0
  -29.7928  -22.8126   19.5340 C   0  0  0  0  0  0
  -32.4276  -20.4614   20.2319 C   0  0  0  0  0  0
  -29.4701  -24.2021   20.2128 C   0  0  0  0  0  0
  -28.6246  -25.2811   19.4057 C   0  0  0  0  0  0
  -30.9328  -20.4913   19.8429 C   0  0  2  0  0  0
  -30.5030  -17.9249   20.1853 N   0  0  0  0  0  0
  -28.8825  -17.6272   21.7977 N   0  0  0  0  0  0
  -29.7920  -15.6189   20.9773 N   0  0  0  0  0  0
  -30.3913  -21.8295   20.2666 N   0  0  0  0  0  0
  -29.5183  -22.6401   18.3441 O   0  0  0  0  0  0
  -28.9867  -19.3156   21.6786 S   0  0  0  0  0  0
  -31.5108  -12.5375   19.1605 H   0  0  0  0  0  0
  -30.4241  -11.3855   19.8862 H   0  0  0  0  0  0
  -29.8087  -11.7703   17.4799 H   0  0  0  0  0  0
  -29.7043  -13.4889   17.7596 H   0  0  0  0  0  0
  -27.8408  -11.3244   18.7831 H   0  0  0  0  0  0
  -27.4282  -12.6854   17.7751 H   0  0  0  0  0  0
  -27.7090  -14.2581   19.5529 H   0  0  0  0  0  0
  -28.7364  -11.9848   21.3310 H   0  0  0  0  0  0
  -28.4517  -13.6086   21.8804 H   0  0  0  0  0  0
  -25.2762   -9.5627   22.4797 H   0  0  0  0  0  0
  -24.0001   -7.4595   22.7448 H   0  0  0  0  0  0
  -21.0860   -8.8825   19.8982 H   0  0  0  0  0  0
  -22.3770  -10.9677   19.6158 H   0  0  0  0  0  0
  -21.1979   -7.6184   23.9835 H   0  0  0  0  0  0
  -21.1483   -6.0487   25.9142 H   0  0  0  0  0  0
  -22.0612   -2.7639   23.2808 H   0  0  0  0  0  0
  -22.3864  -11.9884   22.4729 H   0  0  0  0  0  0
  -21.1066  -13.1457   22.2389 H   0  0  0  0  0  0
  -24.6430  -15.8169   20.5483 H   0  0  0  0  0  0
  -26.2570  -15.6612   20.0771 H   0  0  0  0  0  0
  -26.7164  -32.5492   23.1072 H   0  0  0  0  0  0
  -24.9999  -33.9708   25.0361 H   0  0  0  0  0  0
  -22.7147  -31.3034   21.3988 H   0  0  0  0  0  0
  -23.3738  -35.9603   23.3305 H   0  0  0  0  0  0
  -24.3573  -36.8888   22.2057 H   0  0  0  0  0  0
  -23.7237  -37.6474   23.6671 H   0  0  0  0  0  0
  -26.0541  -31.5502   20.5792 H   0  0  0  0  0  0
  -26.8483  -30.8692   21.9682 H   0  0  0  0  0  0
  -28.1252  -29.0074   21.1445 H   0  0  0  0  0  0
  -26.0204  -25.9750   18.8930 H   0  0  0  0  0  0
  -23.9766  -27.3021   19.0142 H   0  0  0  0  0  0
  -23.7401  -30.5676   19.4001 H   0  0  0  0  0  0
  -22.7469  -29.2231   19.8844 H   0  0  0  0  0  0
  -25.1286  -36.1878   25.0823 H   0  0  0  0  0  0
  -20.9974  -28.3269   24.1458 H   0  0  0  0  0  0
  -20.5657  -26.2315   23.3642 H   0  0  0  0  0  0
  -21.6642  -26.7478   22.1290 H   0  0  0  0  0  0
  -19.6920  -25.6310   21.1297 H   0  0  0  0  0  0
  -19.6714  -27.3204   20.6754 H   0  0  0  0  0  0
  -17.4218  -26.6739   21.4008 H   0  0  0  0  0  0
  -18.0291  -26.0100   22.9020 H   0  0  0  0  0  0
  -19.7925  -30.7298   24.2281 H   0  0  0  0  0  0
  -17.5014  -31.6288   24.5214 H   0  0  0  0  0  0
  -15.5345  -30.3030   23.7662 H   0  0  0  0  0  0
  -15.8669  -28.0894   22.7002 H   0  0  0  0  0  0
  -24.5913  -30.7020   25.7699 H   0  0  0  0  0  0
  -24.8858  -32.2869   26.4743 H   0  0  0  0  0  0
  -25.8023  -30.8927   27.0179 H   0  0  0  0  0  0
  -26.2878  -29.6759   24.1086 H   0  0  0  0  0  0
  -27.4075  -29.7225   25.4503 H   0  0  0  0  0  0
  -27.8714  -30.4310   23.9204 H   0  0  0  0  0  0
  -27.2696  -33.3623   26.1965 H   0  0  0  0  0  0
  -28.3912  -32.6768   25.0276 H   0  0  0  0  0  0
  -28.0669  -31.8399   26.5395 H   0  0  0  0  0  0
  -28.2584  -38.0105   24.7501 H   0  0  0  0  0  0
  -28.1072  -36.2640   24.6253 H   0  0  0  0  0  0
  -27.2320  -37.1429   25.8869 H   0  0  0  0  0  0
  -20.9337  -29.8675   21.6862 H   0  0  0  0  0  0
  -26.0128  -38.2835   24.1410 H   0  0  0  0  0  0
  -32.8990  -19.5203   19.9391 H   0  0  0  0  0  0
  -32.5727  -20.5556   21.3105 H   0  0  0  0  0  0
  -32.9893  -21.2650   19.7484 H   0  0  0  0  0  0
  -30.4271  -24.6439   20.4972 H   0  0  0  0  0  0
  -28.9691  -23.9967   21.1572 H   0  0  0  0  0  0
  -27.6841  -24.8120   19.1286 H   0  0  0  0  0  0
  -29.1488  -25.4725   18.4653 H   0  0  0  0  0  0
  -30.8825  -20.4027   18.7572 H   0  0  0  0  0  0
  -28.9674  -15.2399   21.4110 H   0  0  0  0  0  0
  -30.6031  -22.0789   21.2242 H   0  0  0  0  0  0
  1 25  1  0  0  0
  1 30  2  0  0  0
  1 80  1  0  0  0
  2  3  1  0  0  0
  2 25  1  0  0  0
  2 84  1  0  0  0
  2 85  1  0  0  0
  3  4  1  0  0  0
  3 86  1  0  0  0
  3 87  1  0  0  0
  4  5  1  0  0  0
  4 88  1  0  0  0
  4 89  1  0  0  0
  5  6  1  0  0  0
  5 26  1  0  0  0
  5 90  1  0  0  0
  6 25  1  0  0  0
  6 91  1  0  0  0
  6 92  1  0  0  0
  7  8  2  0  0  0
  7 26  1  0  0  0
  7 29  1  0  0  0
  8  9  1  0  0  0
  8 22  1  0  0  0
  9 10  1  0  0  0
  9 27  2  0  0  0
 10 11  2  0  0  0
 10 15  1  0  0  0
 11 12  1  0  0  0
 11 93  1  0  0  0
 12 13  2  0  0  0
 12 94  1  0  0  0
 13 14  1  0  0  0
 13 31  1  0  0  0
 14 15  2  0  0  0
 14 95  1  0  0  0
 15 96  1  0  0  0
 16 17  2  0  0  0
 16 21  1  0  0  0
 16 31  1  0  0  0
 17 18  1  0  0  0
 17 97  1  0  0  0
 18 19  2  0  0  0
 18 98  1  0  0  0
 19 20  1  0  0  0
 19 24  1  0  0  0
 20 21  2  0  0  0
 20 99  1  0  0  0
 21 23  1  0  0  0
 22 28  1  0  0  0
 22 32  2  0  0  0
 26 27  1  0  0  0
 28100  1  0  0  0
 28101  1  0  0  0
 29102  1  0  0  0
 29103  1  0  0  0
 33 34  1  0  0  0
 33 66  1  0  0  0
 33 70  2  0  0  0
 34 36  1  0  0  0
 34 59  1  0  0  0
 34104  1  0  0  0
 35 44  2  0  0  0
 35 45  1  0  0  0
 35 68  1  0  0  0
 36 56  1  0  0  0
 36105  1  0  0  0
 37 39  1  0  0  0
 37 47  1  0  0  0
 37 66  1  0  0  0
 37106  1  0  0  0
 38 43  2  0  0  0
 38 46  1  0  0  0
 38 47  1  0  0  0
 39 64  1  0  0  0
 39 67  2  0  0  0
 40 52  1  0  0  0
 40 53  2  0  0  0
 40 58  1  0  0  0
 41107  1  0  0  0
 41108  1  0  0  0
 41109  1  0  0  0
 41 48  1  0  0  0
 42 43  1  0  0  0
 42 66  1  0  0  0
 42110  1  0  0  0
 42111  1  0  0  0
 43 44  1  0  0  0
 44112  1  0  0  0
 45 46  2  0  0  0
 45113  1  0  0  0
 46114  1  0  0  0
 47115  1  0  0  0
 47116  1  0  0  0
 48 56  1  0  0  0
 48 65  1  0  0  0
 48117  1  0  0  0
 49 50  1  0  0  0
 49 53  1  0  0  0
 49 64  1  0  0  0
 49118  1  0  0  0
 50 51  1  0  0  0
 50119  1  0  0  0
 50120  1  0  0  0
 51 52  1  0  0  0
 51121  1  0  0  0
 51122  1  0  0  0
 52123  1  0  0  0
 52124  1  0  0  0
 53 54  1  0  0  0
 54 55  2  0  0  0
 54125  1  0  0  0
 55 57  1  0  0  0
 55126  1  0  0  0
 56 69  2  0  0  0
 57 58  2  0  0  0
 57127  1  0  0  0
 58128  1  0  0  0
 59 60  1  0  0  0
 59 61  1  0  0  0
 59 62  1  0  0  0
 60129  1  0  0  0
 60130  1  0  0  0
 60131  1  0  0  0
 61132  1  0  0  0
 61133  1  0  0  0
 61134  1  0  0  0
 62135  1  0  0  0
 62136  1  0  0  0
 62137  1  0  0  0
 63 65  1  0  0  0
 63138  1  0  0  0
 63139  1  0  0  0
 63140  1  0  0  0
 64141  1  0  0  0
 65142  1  0  0  0
 68 76  1  0  0  0
 71 77  1  0  0  0
 71 78  2  0  0  0
 71 83  1  0  0  0
 72 78  1  0  0  0
 72 79  2  0  0  0
 72 80  1  0  0  0
 73 75  1  0  0  0
 73 81  1  0  0  0
 73 82  2  0  0  0
 74143  1  0  0  0
 74144  1  0  0  0
 74145  1  0  0  0
 74 77  1  0  0  0
 75 76  1  0  0  0
 75146  1  0  0  0
 75147  1  0  0  0
 76148  1  0  0  0
 76149  1  0  0  0
 77 81  1  0  0  0
 77150  1  0  0  0
 79 83  1  0  0  0
 80151  1  0  0  0
 81152  1  0  0  0
M  ISO  4   1 100  68 101  76 101  80 100
M  END
> <chiral flag>
0

> <version>
0

> <s_m_source_file>
/data/baiqing/PycharmProjects/Reinvent-master-3.2/result/LINK_invent/BTK/process_docking_weight1_custom_product_contain_oxygen_bond_distance_aromatic_linkinvent_7_9_3/rearranged_h_0193.sdf

> <i_m_source_file_index>
51

> <r_mmod_Potential_Energy-OPLS-2005>
-151.721405029297

> <r_mmod_Stretch_Energy-OPLS-2005>
74.2669296264648

> <r_mmod_Bend_Energy-OPLS-2005>
171.264434814453

> <r_mmod_Torsional_Energy-OPLS-2005>
178.579895019531

> <r_mmod_Improper_Torsional_Energy-OPLS-2005>
3.26759934425354

> <r_mmod_Van_der_Waal_Energy-OPLS-2005>
117.002799987793

> <r_mmod_Electrostatic_Energy-OPLS-2005>
-492.691192626953

> <r_mmod_Solvation_Energy-OPLS-2005>
-243.123428344727

> <b_mmod_Minimization_Converged-OPLS-2005>
0

> <r_mmod_RMS_Derivative-OPLS-2005>
8.16352367401123

$$$$
51
                    3D
 Structure written by MMmdl.
150158  0  0  1  0            999 V2000
  -30.6164  -14.7594   20.4496 C   0  0  0  0  0  0
  -30.4275  -12.4615   19.4831 C   0  0  0  0  0  0
  -29.5096  -12.5092   18.2413 C   0  0  0  0  0  0
  -28.0359  -12.3328   18.6528 C   0  0  0  0  0  0
  -27.6397  -13.2360   19.8517 C   0  0  2  0  0  0
  -28.6831  -13.1834   20.9900 C   0  0  0  0  0  0
  -25.2497  -13.8203   20.5716 C   0  0  0  0  0  0
  -24.1795  -13.0440   20.9219 C   0  0  0  0  0  0
  -24.6391  -11.6918   20.8751 C   0  0  0  0  0  0
  -23.9076  -10.4289   21.0399 C   0  0  0  0  0  0
  -24.3628   -9.4206   21.9180 C   0  0  0  0  0  0
  -23.6301   -8.2242   22.0752 C   0  0  0  0  0  0
  -22.4281   -8.0280   21.3543 C   0  0  0  0  0  0
  -21.9919   -9.0251   20.4645 C   0  0  0  0  0  0
  -22.7245  -10.2129   20.3051 C   0  0  0  0  0  0
  -21.6857   -6.0738   22.5281 C   0  0  0  0  0  0
  -21.4012   -6.5641   23.8215 C   0  0  0  0  0  0
  -21.3661   -5.6795   24.9180 C   0  0  0  0  0  0
  -21.6042   -4.3058   24.7230 C   0  0  0  0  0  0
  -21.8819   -3.8150   23.4350 C   0  0  0  0  0  0
  -21.9192   -4.6965   22.3405 C   0  0  0  0  0  0
  -22.7816  -13.5215   21.1881 C   0  0  0  0  0  0
  -22.1662   -4.2152   21.0983 F   0  0  0  0  0  0
  -21.5631   -3.4540   25.7742 F   0  0  0  0  0  0
  -29.9844  -13.5333   20.4090 N   0  0  0  0  0  0
  -26.2926  -12.9422   20.3288 N   0  0  0  0  0  0
  -25.9323  -11.6556   20.5758 N   0  0  0  0  0  0
  -22.0468  -12.8191   22.0430 N   0  0  0  0  0  0
  -25.4160  -15.1935   20.4122 N   0  0  0  0  0  0
  -31.7987  -14.8387   20.1060 O   0  0  0  0  0  0
  -21.6643   -6.8875   21.4242 O   0  0  0  0  0  0
  -22.3494  -14.5522   20.6732 O   0  0  0  0  0  0
  -24.6327  -31.8531   23.1979 C   0  0  0  0  0  0
  -25.9137  -32.4749   23.8326 C   0  0  1  0  0  0
  -27.2172  -27.2393   20.1184 C   0  0  0  0  0  0
  -25.5922  -33.8556   24.2244 N   0  0  0  0  0  0
  -23.4317  -30.4762   21.5415 C   0  0  2  0  0  0
  -24.8795  -28.9274   20.1043 C   0  0  0  0  0  0
  -22.7522  -29.4576   22.4898 C   0  0  0  0  0  0
  -18.0291  -28.1393   22.8490 C   0  0  0  0  0  0
  -24.1484  -36.7270   23.2641 C   0  0  0  0  0  0
  -25.9807  -30.7559   21.3865 C   0  0  0  0  0  0
  -26.0504  -29.3783   20.7255 C   0  0  0  0  0  0
  -27.2179  -28.5446   20.7267 C   0  0  0  0  0  0
  -26.0276  -26.8809   19.4409 C   0  0  0  0  0  0
  -24.8764  -27.6899   19.4483 C   0  0  0  0  0  0
  -23.6517  -29.8156   20.1558 C   0  0  0  0  0  0
  -25.4113  -36.3067   24.0328 C   0  0  1  0  0  0
  -20.5898  -28.3701   23.1269 C   0  0  2  0  0  0
  -20.6775  -26.9415   22.5410 C   0  0  0  0  0  0
  -19.5747  -26.6387   21.5218 C   0  0  0  0  0  0
  -18.1929  -26.7931   22.1633 C   0  0  0  0  0  0
  -19.1547  -28.8866   23.2876 C   0  0  0  0  0  0
  -18.9467  -30.1464   23.8900 C   0  0  0  0  0  0
  -17.6466  -30.6594   24.0567 C   0  0  0  0  0  0
  -25.9059  -34.9440   23.5091 C   0  0  0  0  0  0
  -16.5357  -29.9096   23.6327 C   0  0  0  0  0  0
  -16.7277  -28.6513   23.0350 C   0  0  0  0  0  0
  -26.4498  -31.6584   25.0726 C   0  0  0  0  0  0
  -25.3706  -31.3737   26.1436 C   0  0  0  0  0  0
  -27.0350  -30.2996   24.6232 C   0  0  0  0  0  0
  -27.6056  -32.4329   25.7484 C   0  0  0  0  0  0
  -27.5579  -37.1784   24.8466 C   0  0  0  0  0  0
  -21.4221  -29.3046   22.3660 N   0  0  0  0  0  0
  -26.4283  -37.3772   23.9421 N   0  0  0  0  0  0
  -24.7006  -31.0474   22.0973 N   0  0  0  0  0  0
  -23.4217  -28.8100   23.2990 O   0  0  0  0  0  0
  -28.3032  -26.3242   20.2138 O   0  0  0  0  0  0
  -26.5645  -34.8920   22.4670 O   0  0  0  0  0  0
  -23.5468  -32.1362   23.7254 O   0  0  0  0  0  0
  -29.6239  -18.6988   20.6425 C   0  0  0  0  0  0
  -29.1203  -20.9698   20.5457 C   0  0  0  0  0  0
  -28.6450  -24.8699   18.3083 C   0  0  0  0  0  0
  -30.2687  -17.3202   20.1500 C   0  0  0  0  0  0
  -28.9042  -23.6511   20.5867 C   0  0  0  0  0  0
  -28.1892  -24.8764   19.7772 C   0  0  1  0  0  0
  -29.5490  -19.8577   19.8828 N   0  0  0  0  0  0
  -29.1907  -18.8813   21.9099 N   0  0  0  0  0  0
  -28.9505  -22.2734   19.9325 N   0  0  0  0  0  0
  -29.8728  -15.9187   20.6313 N   0  0  0  0  0  0
  -28.7592  -20.5222   22.1887 S   0  0  0  0  0  0
  -31.4698  -12.5760   19.1813 H   0  0  0  0  0  0
  -30.3664  -11.4872   19.9710 H   0  0  0  0  0  0
  -29.7941  -11.7336   17.5292 H   0  0  0  0  0  0
  -29.6361  -13.4616   17.7238 H   0  0  0  0  0  0
  -27.8944  -11.2844   18.9183 H   0  0  0  0  0  0
  -27.3790  -12.5207   17.8024 H   0  0  0  0  0  0
  -27.6298  -14.2556   19.4660 H   0  0  0  0  0  0
  -28.7195  -12.1900   21.4393 H   0  0  0  0  0  0
  -28.4170  -13.8739   21.7919 H   0  0  0  0  0  0
  -25.2769   -9.5691   22.4758 H   0  0  0  0  0  0
  -24.0017   -7.4633   22.7467 H   0  0  0  0  0  0
  -21.0853   -8.8758   19.8950 H   0  0  0  0  0  0
  -22.3693  -10.9667   19.6165 H   0  0  0  0  0  0
  -21.1998   -7.6146   23.9723 H   0  0  0  0  0  0
  -21.1487   -6.0523   25.9083 H   0  0  0  0  0  0
  -22.0596   -2.7613   23.2850 H   0  0  0  0  0  0
  -22.4093  -11.9854   22.4809 H   0  0  0  0  0  0
  -21.1079  -13.1203   22.2635 H   0  0  0  0  0  0
  -24.6452  -15.8431   20.5256 H   0  0  0  0  0  0
  -26.2535  -15.6342   20.0549 H   0  0  0  0  0  0
  -26.7202  -32.5389   23.1062 H   0  0  0  0  0  0
  -25.0048  -33.9688   25.0375 H   0  0  0  0  0  0
  -22.7294  -31.2997   21.3967 H   0  0  0  0  0  0
  -23.3761  -35.9584   23.3288 H   0  0  0  0  0  0
  -24.3574  -36.8905   22.2058 H   0  0  0  0  0  0
  -23.7217  -37.6458   23.6673 H   0  0  0  0  0  0
  -26.1283  -31.5156   20.6178 H   0  0  0  0  0  0
  -26.8553  -30.8004   22.0235 H   0  0  0  0  0  0
  -28.1101  -28.8794   21.2369 H   0  0  0  0  0  0
  -25.9432  -25.9561   18.8934 H   0  0  0  0  0  0
  -23.9879  -27.3518   18.9326 H   0  0  0  0  0  0
  -23.7786  -30.5948   19.4030 H   0  0  0  0  0  0
  -22.7699  -29.2516   19.8479 H   0  0  0  0  0  0
  -25.1291  -36.1906   25.0818 H   0  0  0  0  0  0
  -20.9994  -28.3271   24.1388 H   0  0  0  0  0  0
  -20.5671  -26.2309   23.3615 H   0  0  0  0  0  0
  -21.6637  -26.7428   22.1202 H   0  0  0  0  0  0
  -19.6902  -25.6301   21.1245 H   0  0  0  0  0  0
  -19.6676  -27.3204   20.6753 H   0  0  0  0  0  0
  -17.4191  -26.6682   21.4041 H   0  0  0  0  0  0
  -18.0325  -26.0075   22.9034 H   0  0  0  0  0  0
  -19.7943  -30.7282   24.2267 H   0  0  0  0  0  0
  -17.5020  -31.6272   24.5171 H   0  0  0  0  0  0
  -15.5360  -30.3006   23.7644 H   0  0  0  0  0  0
  -15.8674  -28.0840   22.7060 H   0  0  0  0  0  0
  -24.5897  -30.7073   25.7753 H   0  0  0  0  0  0
  -24.8880  -32.2908   26.4829 H   0  0  0  0  0  0
  -25.8007  -30.8934   27.0234 H   0  0  0  0  0  0
  -26.2943  -29.6741   24.1242 H   0  0  0  0  0  0
  -27.4010  -29.7263   25.4760 H   0  0  0  0  0  0
  -27.8828  -30.4266   23.9495 H   0  0  0  0  0  0
  -27.2675  -33.3647   26.2028 H   0  0  0  0  0  0
  -28.3867  -32.6863   25.0301 H   0  0  0  0  0  0
  -28.0720  -31.8477   26.5417 H   0  0  0  0  0  0
  -28.2582  -38.0099   24.7546 H   0  0  0  0  0  0
  -28.1087  -36.2634   24.6243 H   0  0  0  0  0  0
  -27.2303  -37.1371   25.8870 H   0  0  0  0  0  0
  -20.9408  -29.8800   21.6893 H   0  0  0  0  0  0
  -26.0155  -38.2834   24.1458 H   0  0  0  0  0  0
  -28.4663  -23.9050   17.8346 H   0  0  0  0  0  0
  -29.7109  -25.0855   18.2282 H   0  0  0  0  0  0
  -28.1114  -25.6147   17.7185 H   0  0  0  0  0  0
  -31.3387  -17.4295   20.3286 H   0  0  0  0  0  0
  -30.1673  -17.3091   19.0644 H   0  0  0  0  0  0
  -28.4345  -23.5592   21.5675 H   0  0  0  0  0  0
  -29.9375  -23.9401   20.7855 H   0  0  0  0  0  0
  -27.1432  -24.5826   19.8090 H   0  0  0  0  0  0
  -29.1241  -22.2958   18.9326 H   0  0  0  0  0  0
  -28.9158  -15.8089   20.9289 H   0  0  0  0  0  0
  1 25  1  0  0  0
  1 30  2  0  0  0
  1 80  1  0  0  0
  2  3  1  0  0  0
  2 25  1  0  0  0
  2 82  1  0  0  0
  2 83  1  0  0  0
  3  4  1  0  0  0
  3 84  1  0  0  0
  3 85  1  0  0  0
  4  5  1  0  0  0
  4 86  1  0  0  0
  4 87  1  0  0  0
  5  6  1  0  0  0
  5 26  1  0  0  0
  5 88  1  0  0  0
  6 25  1  0  0  0
  6 89  1  0  0  0
  6 90  1  0  0  0
  7  8  2  0  0  0
  7 26  1  0  0  0
  7 29  1  0  0  0
  8  9  1  0  0  0
  8 22  1  0  0  0
  9 10  1  0  0  0
  9 27  2  0  0  0
 10 11  2  0  0  0
 10 15  1  0  0  0
 11 12  1  0  0  0
 11 91  1  0  0  0
 12 13  2  0  0  0
 12 92  1  0  0  0
 13 14  1  0  0  0
 13 31  1  0  0  0
 14 15  2  0  0  0
 14 93  1  0  0  0
 15 94  1  0  0  0
 16 17  2  0  0  0
 16 21  1  0  0  0
 16 31  1  0  0  0
 17 18  1  0  0  0
 17 95  1  0  0  0
 18 19  2  0  0  0
 18 96  1  0  0  0
 19 20  1  0  0  0
 19 24  1  0  0  0
 20 21  2  0  0  0
 20 97  1  0  0  0
 21 23  1  0  0  0
 22 28  1  0  0  0
 22 32  2  0  0  0
 26 27  1  0  0  0
 28 98  1  0  0  0
 28 99  1  0  0  0
 29100  1  0  0  0
 29101  1  0  0  0
 33 34  1  0  0  0
 33 66  1  0  0  0
 33 70  2  0  0  0
 34 36  1  0  0  0
 34 59  1  0  0  0
 34102  1  0  0  0
 35 44  2  0  0  0
 35 45  1  0  0  0
 35 68  1  0  0  0
 36 56  1  0  0  0
 36103  1  0  0  0
 37 39  1  0  0  0
 37 47  1  0  0  0
 37 66  1  0  0  0
 37104  1  0  0  0
 38 43  2  0  0  0
 38 46  1  0  0  0
 38 47  1  0  0  0
 39 64  1  0  0  0
 39 67  2  0  0  0
 40 52  1  0  0  0
 40 53  2  0  0  0
 40 58  1  0  0  0
 41105  1  0  0  0
 41106  1  0  0  0
 41107  1  0  0  0
 41 48  1  0  0  0
 42 43  1  0  0  0
 42 66  1  0  0  0
 42108  1  0  0  0
 42109  1  0  0  0
 43 44  1  0  0  0
 44110  1  0  0  0
 45 46  2  0  0  0
 45111  1  0  0  0
 46112  1  0  0  0
 47113  1  0  0  0
 47114  1  0  0  0
 48 56  1  0  0  0
 48 65  1  0  0  0
 48115  1  0  0  0
 49 50  1  0  0  0
 49 53  1  0  0  0
 49 64  1  0  0  0
 49116  1  0  0  0
 50 51  1  0  0  0
 50117  1  0  0  0
 50118  1  0  0  0
 51 52  1  0  0  0
 51119  1  0  0  0
 51120  1  0  0  0
 52121  1  0  0  0
 52122  1  0  0  0
 53 54  1  0  0  0
 54 55  2  0  0  0
 54123  1  0  0  0
 55 57  1  0  0  0
 55124  1  0  0  0
 56 69  2  0  0  0
 57 58  2  0  0  0
 57125  1  0  0  0
 58126  1  0  0  0
 59 60  1  0  0  0
 59 61  1  0  0  0
 59 62  1  0  0  0
 60127  1  0  0  0
 60128  1  0  0  0
 60129  1  0  0  0
 61130  1  0  0  0
 61131  1  0  0  0
 61132  1  0  0  0
 62133  1  0  0  0
 62134  1  0  0  0
 62135  1  0  0  0
 63 65  1  0  0  0
 63136  1  0  0  0
 63137  1  0  0  0
 63138  1  0  0  0
 64139  1  0  0  0
 65140  1  0  0  0
 68 76  1  0  0  0
 71 74  1  0  0  0
 71 77  1  0  0  0
 71 78  2  0  0  0
 72 77  2  0  0  0
 72 79  1  0  0  0
 72 81  1  0  0  0
 73141  1  0  0  0
 73142  1  0  0  0
 73143  1  0  0  0
 73 76  1  0  0  0
 74 80  1  0  0  0
 74144  1  0  0  0
 74145  1  0  0  0
 75 76  1  0  0  0
 75 79  1  0  0  0
 75146  1  0  0  0
 75147  1  0  0  0
 76148  1  0  0  0
 78 81  1  0  0  0
 79149  1  0  0  0
 80150  1  0  0  0
M  ISO  4   1 100  68 101  76 101  80 100
M  END
> <chiral flag>
0

> <version>
0

> <s_m_source_file>
/data/baiqing/PycharmProjects/Reinvent-master-3.2/result/LINK_invent/BTK/process_docking_weight1_custom_product_contain_oxygen_bond_distance_aromatic_linkinvent_7_9_3/rearranged_h_0193.sdf

> <i_m_source_file_index>
52

> <r_mmod_Potential_Energy-OPLS-2005>
12.087574005127

> <r_mmod_Stretch_Energy-OPLS-2005>
128.057373046875

> <r_mmod_Bend_Energy-OPLS-2005>
203.228652954102

> <r_mmod_Torsional_Energy-OPLS-2005>
203.752288818359

> <r_mmod_Improper_Torsional_Energy-OPLS-2005>
7.1760458946228

> <r_mmod_Van_der_Waal_Energy-OPLS-2005>
121.40803527832

> <r_mmod_Electrostatic_Energy-OPLS-2005>
-521.630676269531

> <r_mmod_Solvation_Energy-OPLS-2005>
-226.752990722656

> <b_mmod_Minimization_Converged-OPLS-2005>
0

> <r_mmod_RMS_Derivative-OPLS-2005>
1.2512195110321

$$$$
52
                    3D
 Structure written by MMmdl.
163171  0  0  1  0            999 V2000
  -30.5894  -14.7807   20.5253 C   0  0  0  0  0  0
  -30.4432  -12.4846   19.4931 C   0  0  0  0  0  0
  -29.5209  -12.5295   18.2506 C   0  0  0  0  0  0
  -28.0460  -12.3429   18.6553 C   0  0  0  0  0  0
  -27.6509  -13.2315   19.8608 C   0  0  2  0  0  0
  -28.6912  -13.1371   20.9989 C   0  0  0  0  0  0
  -25.2551  -13.8170   20.5696 C   0  0  0  0  0  0
  -24.1857  -13.0453   20.9280 C   0  0  0  0  0  0
  -24.6450  -11.6921   20.8846 C   0  0  0  0  0  0
  -23.9137  -10.4302   21.0493 C   0  0  0  0  0  0
  -24.3685   -9.4189   21.9237 C   0  0  0  0  0  0
  -23.6329   -8.2238   22.0775 C   0  0  0  0  0  0
  -22.4288   -8.0318   21.3575 C   0  0  0  0  0  0
  -21.9979   -9.0305   20.4674 C   0  0  0  0  0  0
  -22.7356  -10.2160   20.3085 C   0  0  0  0  0  0
  -21.6843   -6.0778   22.5302 C   0  0  0  0  0  0
  -21.4010   -6.5674   23.8255 C   0  0  0  0  0  0
  -21.3638   -5.6822   24.9195 C   0  0  0  0  0  0
  -21.6036   -4.3088   24.7235 C   0  0  0  0  0  0
  -21.8808   -3.8191   23.4353 C   0  0  0  0  0  0
  -21.9190   -4.7002   22.3424 C   0  0  0  0  0  0
  -22.7881  -13.5246   21.1916 C   0  0  0  0  0  0
  -22.1672   -4.2214   21.0998 F   0  0  0  0  0  0
  -21.5595   -3.4546   25.7733 F   0  0  0  0  0  0
  -29.9956  -13.5308   20.4445 N   0  0  0  0  0  0
  -26.2981  -12.9403   20.3312 N   0  0  0  0  0  0
  -25.9368  -11.6551   20.5825 N   0  0  0  0  0  0
  -22.0486  -12.8230   22.0442 N   0  0  0  0  0  0
  -25.4278  -15.1901   20.4042 N   0  0  0  0  0  0
  -31.7433  -14.9319   20.1082 O   0  0  0  0  0  0
  -21.6640   -6.8911   21.4265 O   0  0  0  0  0  0
  -22.3600  -14.5559   20.6757 O   0  0  0  0  0  0
  -24.6339  -31.8486   23.1914 C   0  0  0  0  0  0
  -25.9117  -32.4734   23.8324 C   0  0  1  0  0  0
  -27.2507  -27.2202   20.1999 C   0  0  0  0  0  0
  -25.5944  -33.8545   24.2263 N   0  0  0  0  0  0
  -23.4300  -30.4596   21.5396 C   0  0  2  0  0  0
  -24.8924  -28.8859   20.1400 C   0  0  0  0  0  0
  -22.7552  -29.4513   22.4977 C   0  0  0  0  0  0
  -18.0291  -28.1400   22.8470 C   0  0  0  0  0  0
  -24.1573  -36.7073   23.2670 C   0  0  0  0  0  0
  -25.9869  -30.7544   21.3732 C   0  0  0  0  0  0
  -26.0672  -29.3655   20.7391 C   0  0  0  0  0  0
  -27.2563  -28.5531   20.7401 C   0  0  0  0  0  0
  -26.0556  -26.8121   19.5803 C   0  0  0  0  0  0
  -24.8950  -27.6124   19.5512 C   0  0  0  0  0  0
  -23.6528  -29.7680   20.1702 C   0  0  0  0  0  0
  -25.4205  -36.3020   24.0400 C   0  0  1  0  0  0
  -20.5919  -28.3642   23.1309 C   0  0  2  0  0  0
  -20.6760  -26.9343   22.5471 C   0  0  0  0  0  0
  -19.5728  -26.6364   21.5282 C   0  0  0  0  0  0
  -18.1888  -26.7920   22.1678 C   0  0  0  0  0  0
  -19.1551  -28.8855   23.2848 C   0  0  0  0  0  0
  -18.9511  -30.1470   23.8878 C   0  0  0  0  0  0
  -17.6499  -30.6587   24.0589 C   0  0  0  0  0  0
  -25.9160  -34.9417   23.5128 C   0  0  0  0  0  0
  -16.5387  -29.9113   23.6310 C   0  0  0  0  0  0
  -16.7264  -28.6548   23.0264 C   0  0  0  0  0  0
  -26.4429  -31.6530   25.0716 C   0  0  0  0  0  0
  -25.3645  -31.3688   26.1437 C   0  0  0  0  0  0
  -27.0160  -30.2959   24.6093 C   0  0  0  0  0  0
  -27.6027  -32.4168   25.7548 C   0  0  0  0  0  0
  -27.5612  -37.1671   24.8544 C   0  0  0  0  0  0
  -21.4257  -29.2950   22.3711 N   0  0  0  0  0  0
  -26.4373  -37.3711   23.9450 N   0  0  0  0  0  0
  -24.7030  -31.0437   22.0889 N   0  0  0  0  0  0
  -23.4274  -28.8038   23.3020 O   0  0  0  0  0  0
  -28.3604  -26.3611   19.9908 O   0  0  0  0  0  0
  -26.5783  -34.8906   22.4744 O   0  0  0  0  0  0
  -23.5473  -32.1338   23.7211 O   0  0  0  0  0  0
  -30.4653  -18.1078   19.9476 C   0  0  0  0  0  0
  -29.8801  -17.2631   20.8823 C   0  0  0  0  0  0
  -29.4500  -19.9072   21.1098 C   0  0  0  0  0  0
  -29.0792  -21.3605   21.6084 C   0  0  0  0  0  0
  -24.9619  -23.6441   23.3721 C   0  0  0  0  0  0
  -26.0921  -23.3637   20.4367 C   0  0  0  0  0  0
  -29.6698  -26.0507   21.9847 C   0  0  0  0  0  0
  -26.4039  -23.2734   22.9797 C   0  0  0  0  0  0
  -26.8782  -23.8976   21.6432 C   0  0  1  0  0  0
  -28.4129  -23.8178   21.4145 C   0  0  2  0  0  0
  -28.9801  -25.2738   20.8504 C   0  0  2  0  0  0
  -30.2158  -19.5179   20.0696 N   0  0  0  0  0  0
  -28.8818  -22.4422   20.8376 N   0  0  0  0  0  0
  -29.0122  -21.3835   22.9897 N   0  0  0  0  0  0
  -29.8171  -15.8478   20.9859 N   0  0  0  0  0  0
  -29.0060  -18.3754   21.9947 S   0  0  0  0  0  0
  -31.4850  -12.6153   19.1972 H   0  0  0  0  0  0
  -30.3983  -11.5051   19.9728 H   0  0  0  0  0  0
  -29.8254  -11.7564   17.5434 H   0  0  0  0  0  0
  -29.6365  -13.4830   17.7342 H   0  0  0  0  0  0
  -27.9145  -11.2942   18.9195 H   0  0  0  0  0  0
  -27.3841  -12.5404   17.8102 H   0  0  0  0  0  0
  -27.6623  -14.2583   19.4930 H   0  0  0  0  0  0
  -28.7287  -12.1195   21.3949 H   0  0  0  0  0  0
  -28.4047  -13.7726   21.8366 H   0  0  0  0  0  0
  -25.2812   -9.5609   22.4841 H   0  0  0  0  0  0
  -24.0026   -7.4582   22.7457 H   0  0  0  0  0  0
  -21.0930   -8.8857   19.8960 H   0  0  0  0  0  0
  -22.3888  -10.9702   19.6184 H   0  0  0  0  0  0
  -21.2025   -7.6187   23.9797 H   0  0  0  0  0  0
  -21.1456   -6.0535   25.9122 H   0  0  0  0  0  0
  -22.0604   -2.7652   23.2852 H   0  0  0  0  0  0
  -22.4087  -11.9856   22.4765 H   0  0  0  0  0  0
  -21.1081  -13.1234   22.2592 H   0  0  0  0  0  0
  -24.6522  -15.8350   20.4840 H   0  0  0  0  0  0
  -26.2507  -15.6101   19.9890 H   0  0  0  0  0  0
  -26.7183  -32.5374   23.1083 H   0  0  0  0  0  0
  -24.9996  -33.9729   25.0323 H   0  0  0  0  0  0
  -22.7188  -31.2732   21.3718 H   0  0  0  0  0  0
  -23.4007  -35.9233   23.3413 H   0  0  0  0  0  0
  -24.3648  -36.8565   22.2060 H   0  0  0  0  0  0
  -23.7170  -37.6236   23.6621 H   0  0  0  0  0  0
  -26.1342  -31.5000   20.5894 H   0  0  0  0  0  0
  -26.8654  -30.8145   22.0030 H   0  0  0  0  0  0
  -28.1743  -28.9463   21.1526 H   0  0  0  0  0  0
  -26.0261  -25.8342   19.1246 H   0  0  0  0  0  0
  -24.0005  -27.2194   19.0892 H   0  0  0  0  0  0
  -23.7729  -30.5363   19.4071 H   0  0  0  0  0  0
  -22.7662  -29.1966   19.8721 H   0  0  0  0  0  0
  -25.1406  -36.1854   25.0895 H   0  0  0  0  0  0
  -20.9978  -28.3248   24.1465 H   0  0  0  0  0  0
  -20.5688  -26.2218   23.3666 H   0  0  0  0  0  0
  -21.6606  -26.7352   22.1271 H   0  0  0  0  0  0
  -19.6862  -25.6307   21.1224 H   0  0  0  0  0  0
  -19.6729  -27.3266   20.6909 H   0  0  0  0  0  0
  -17.4175  -26.6716   21.4060 H   0  0  0  0  0  0
  -18.0222  -26.0132   22.9137 H   0  0  0  0  0  0
  -19.8000  -30.7265   24.2231 H   0  0  0  0  0  0
  -17.5078  -31.6230   24.5273 H   0  0  0  0  0  0
  -15.5381  -30.3034   23.7631 H   0  0  0  0  0  0
  -15.8669  -28.0933   22.6879 H   0  0  0  0  0  0
  -24.5903  -30.6885   25.7848 H   0  0  0  0  0  0
  -24.8726  -32.2826   26.4781 H   0  0  0  0  0  0
  -25.8053  -30.8996   27.0245 H   0  0  0  0  0  0
  -26.2641  -29.6852   24.1073 H   0  0  0  0  0  0
  -27.3835  -29.7022   25.4460 H   0  0  0  0  0  0
  -27.8574  -30.4327   23.9315 H   0  0  0  0  0  0
  -27.2740  -33.3515   26.2098 H   0  0  0  0  0  0
  -28.3981  -32.6582   25.0480 H   0  0  0  0  0  0
  -28.0513  -31.8206   26.5516 H   0  0  0  0  0  0
  -28.2686  -37.9918   24.7629 H   0  0  0  0  0  0
  -28.1096  -36.2471   24.6436 H   0  0  0  0  0  0
  -27.2305  -37.1283   25.8940 H   0  0  0  0  0  0
  -20.9479  -29.8651   21.6901 H   0  0  0  0  0  0
  -26.0292  -38.2815   24.1400 H   0  0  0  0  0  0
  -31.0629  -17.7871   19.1035 H   0  0  0  0  0  0
  -24.2338  -23.2519   22.6590 H   0  0  0  0  0  0
  -24.8086  -24.7245   23.4285 H   0  0  0  0  0  0
  -24.7160  -23.2218   24.3484 H   0  0  0  0  0  0
  -25.1434  -23.8902   20.3404 H   0  0  0  0  0  0
  -25.8860  -22.2975   20.5184 H   0  0  0  0  0  0
  -26.6490  -23.5054   19.5120 H   0  0  0  0  0  0
  -28.9602  -26.2829   22.7800 H   0  0  0  0  0  0
  -30.4890  -25.4744   22.4180 H   0  0  0  0  0  0
  -30.0958  -26.9903   21.6282 H   0  0  0  0  0  0
  -27.0704  -23.5873   23.7858 H   0  0  0  0  0  0
  -26.4877  -22.1875   22.9394 H   0  0  0  0  0  0
  -26.6472  -24.9601   21.7271 H   0  0  0  0  0  0
  -28.8283  -23.8341   22.4214 H   0  0  0  0  0  0
  -29.7927  -24.9601   20.1980 H   0  0  0  0  0  0
  -29.2463  -20.5959   23.5860 H   0  0  0  0  0  0
  -28.8118  -22.2012   23.5448 H   0  0  0  0  0  0
  -28.9673  -15.5190   21.4170 H   0  0  0  0  0  0
  1 25  1  0  0  0
  1 30  2  0  0  0
  1 85  1  0  0  0
  2  3  1  0  0  0
  2 25  1  0  0  0
  2 87  1  0  0  0
  2 88  1  0  0  0
  3  4  1  0  0  0
  3 89  1  0  0  0
  3 90  1  0  0  0
  4  5  1  0  0  0
  4 91  1  0  0  0
  4 92  1  0  0  0
  5  6  1  0  0  0
  5 26  1  0  0  0
  5 93  1  0  0  0
  6 25  1  0  0  0
  6 94  1  0  0  0
  6 95  1  0  0  0
  7  8  2  0  0  0
  7 26  1  0  0  0
  7 29  1  0  0  0
  8  9  1  0  0  0
  8 22  1  0  0  0
  9 10  1  0  0  0
  9 27  2  0  0  0
 10 11  2  0  0  0
 10 15  1  0  0  0
 11 12  1  0  0  0
 11 96  1  0  0  0
 12 13  2  0  0  0
 12 97  1  0  0  0
 13 14  1  0  0  0
 13 31  1  0  0  0
 14 15  2  0  0  0
 14 98  1  0  0  0
 15 99  1  0  0  0
 16 17  2  0  0  0
 16 21  1  0  0  0
 16 31  1  0  0  0
 17 18  1  0  0  0
 17100  1  0  0  0
 18 19  2  0  0  0
 18101  1  0  0  0
 19 20  1  0  0  0
 19 24  1  0  0  0
 20 21  2  0  0  0
 20102  1  0  0  0
 21 23  1  0  0  0
 22 28  1  0  0  0
 22 32  2  0  0  0
 26 27  1  0  0  0
 28103  1  0  0  0
 28104  1  0  0  0
 29105  1  0  0  0
 29106  1  0  0  0
 33 34  1  0  0  0
 33 66  1  0  0  0
 33 70  2  0  0  0
 34 36  1  0  0  0
 34 59  1  0  0  0
 34107  1  0  0  0
 35 44  2  0  0  0
 35 45  1  0  0  0
 35 68  1  0  0  0
 36 56  1  0  0  0
 36108  1  0  0  0
 37 39  1  0  0  0
 37 47  1  0  0  0
 37 66  1  0  0  0
 37109  1  0  0  0
 38 43  2  0  0  0
 38 46  1  0  0  0
 38 47  1  0  0  0
 39 64  1  0  0  0
 39 67  2  0  0  0
 40 52  1  0  0  0
 40 53  2  0  0  0
 40 58  1  0  0  0
 41110  1  0  0  0
 41111  1  0  0  0
 41112  1  0  0  0
 41 48  1  0  0  0
 42 43  1  0  0  0
 42 66  1  0  0  0
 42113  1  0  0  0
 42114  1  0  0  0
 43 44  1  0  0  0
 44115  1  0  0  0
 45 46  2  0  0  0
 45116  1  0  0  0
 46117  1  0  0  0
 47118  1  0  0  0
 47119  1  0  0  0
 48 56  1  0  0  0
 48 65  1  0  0  0
 48120  1  0  0  0
 49 50  1  0  0  0
 49 53  1  0  0  0
 49 64  1  0  0  0
 49121  1  0  0  0
 50 51  1  0  0  0
 50122  1  0  0  0
 50123  1  0  0  0
 51 52  1  0  0  0
 51124  1  0  0  0
 51125  1  0  0  0
 52126  1  0  0  0
 52127  1  0  0  0
 53 54  1  0  0  0
 54 55  2  0  0  0
 54128  1  0  0  0
 55 57  1  0  0  0
 55129  1  0  0  0
 56 69  2  0  0  0
 57 58  2  0  0  0
 57130  1  0  0  0
 58131  1  0  0  0
 59 60  1  0  0  0
 59 61  1  0  0  0
 59 62  1  0  0  0
 60132  1  0  0  0
 60133  1  0  0  0
 60134  1  0  0  0
 61135  1  0  0  0
 61136  1  0  0  0
 61137  1  0  0  0
 62138  1  0  0  0
 62139  1  0  0  0
 62140  1  0  0  0
 63 65  1  0  0  0
 63141  1  0  0  0
 63142  1  0  0  0
 63143  1  0  0  0
 64144  1  0  0  0
 65145  1  0  0  0
 68 81  1  0  0  0
 71 72  2  0  0  0
 71 82  1  0  0  0
 71146  1  0  0  0
 72 85  1  0  0  0
 72 86  1  0  0  0
 73 74  1  0  0  0
 73 82  2  0  0  0
 73 86  1  0  0  0
 74 83  2  0  0  0
 74 84  1  0  0  0
 75 78  1  0  0  0
 75147  1  0  0  0
 75148  1  0  0  0
 75149  1  0  0  0
 76150  1  0  0  0
 76151  1  0  0  0
 76152  1  0  0  0
 76 79  1  0  0  0
 77153  1  0  0  0
 77154  1  0  0  0
 77155  1  0  0  0
 77 81  1  0  0  0
 78 79  1  0  0  0
 78156  1  0  0  0
 78157  1  0  0  0
 79 80  1  0  0  0
 79158  1  0  0  0
 80 81  1  0  0  0
 80 83  1  0  0  0
 80159  1  0  0  0
 81160  1  0  0  0
 84161  1  0  0  0
 84162  1  0  0  0
 85163  1  0  0  0
M  ISO  4   1 100  68 101  81 101  85 100
M  END
> <chiral flag>
0

> <version>
0

> <s_m_source_file>
/data/baiqing/PycharmProjects/Reinvent-master-3.2/result/LINK_invent/BTK/process_docking_weight1_custom_product_contain_oxygen_bond_distance_aromatic_linkinvent_7_9_3/rearranged_h_0193.sdf

> <i_m_source_file_index>
53

> <r_mmod_Potential_Energy-OPLS-2005>
289.588470458984

> <r_mmod_Stretch_Energy-OPLS-2005>
165.74853515625

> <r_mmod_Bend_Energy-OPLS-2005>
298.060028076172

> <r_mmod_Torsional_Energy-OPLS-2005>
285.107147216797

> <r_mmod_Improper_Torsional_Energy-OPLS-2005>
5.42191934585571

> <r_mmod_Van_der_Waal_Energy-OPLS-2005>
109.684875488281

> <r_mmod_Electrostatic_Energy-OPLS-2005>
-429.167388916016

> <r_mmod_Solvation_Energy-OPLS-2005>
-241.969192504883

> <b_mmod_Minimization_Converged-OPLS-2005>
0

> <r_mmod_RMS_Derivative-OPLS-2005>
7.75438833236694

$$$$
53
                    3D
 Structure written by MMmdl.
164172  0  0  1  0            999 V2000
  -30.6762  -14.5293   20.5027 C   0  0  0  0  0  0
  -30.4240  -12.3180   19.4625 C   0  0  0  0  0  0
  -29.5090  -12.4733   18.2287 C   0  0  0  0  0  0
  -28.0296  -12.3318   18.6379 C   0  0  0  0  0  0
  -27.6550  -13.2116   19.8624 C   0  0  2  0  0  0
  -28.6912  -13.0550   20.9993 C   0  0  0  0  0  0
  -25.2567  -13.8174   20.5654 C   0  0  0  0  0  0
  -24.1820  -13.0451   20.9164 C   0  0  0  0  0  0
  -24.6382  -11.6922   20.8732 C   0  0  0  0  0  0
  -23.9044  -10.4311   21.0394 C   0  0  0  0  0  0
  -24.3608   -9.4222   21.9155 C   0  0  0  0  0  0
  -23.6290   -8.2253   22.0738 C   0  0  0  0  0  0
  -22.4271   -8.0275   21.3531 C   0  0  0  0  0  0
  -21.9906   -9.0254   20.4641 C   0  0  0  0  0  0
  -22.7227  -10.2130   20.3049 C   0  0  0  0  0  0
  -21.6859   -6.0737   22.5281 C   0  0  0  0  0  0
  -21.4023   -6.5631   23.8212 C   0  0  0  0  0  0
  -21.3658   -5.6775   24.9173 C   0  0  0  0  0  0
  -21.6043   -4.3040   24.7213 C   0  0  0  0  0  0
  -21.8821   -3.8133   23.4337 C   0  0  0  0  0  0
  -21.9194   -4.6967   22.3399 C   0  0  0  0  0  0
  -22.7848  -13.5261   21.1822 C   0  0  0  0  0  0
  -22.1652   -4.2153   21.0976 F   0  0  0  0  0  0
  -21.5631   -3.4520   25.7720 F   0  0  0  0  0  0
  -30.0171  -13.3415   20.4404 N   0  0  0  0  0  0
  -26.2991  -12.9352   20.3301 N   0  0  0  0  0  0
  -25.9306  -11.6510   20.5748 N   0  0  0  0  0  0
  -22.0466  -12.8284   22.0394 N   0  0  0  0  0  0
  -25.4261  -15.1891   20.4077 N   0  0  0  0  0  0
  -31.8567  -14.6366   20.1653 O   0  0  0  0  0  0
  -21.6627   -6.8874   21.4243 O   0  0  0  0  0  0
  -22.3529  -14.5558   20.6654 O   0  0  0  0  0  0
  -24.6163  -31.8691   23.2121 C   0  0  0  0  0  0
  -25.9039  -32.4831   23.8424 C   0  0  1  0  0  0
  -27.2156  -27.4055   20.1045 C   0  0  0  0  0  0
  -25.5875  -33.8635   24.2316 N   0  0  0  0  0  0
  -23.4036  -30.4942   21.5570 C   0  0  2  0  0  0
  -24.8466  -28.9715   20.1105 C   0  0  0  0  0  0
  -22.7411  -29.4651   22.5022 C   0  0  0  0  0  0
  -18.0263  -28.1380   22.8487 C   0  0  0  0  0  0
  -24.1485  -36.7325   23.2641 C   0  0  0  0  0  0
  -25.9372  -30.8271   21.3711 C   0  0  0  0  0  0
  -26.0130  -29.4659   20.7076 C   0  0  0  0  0  0
  -27.2026  -28.6948   20.6947 C   0  0  0  0  0  0
  -26.0306  -26.9500   19.4752 C   0  0  0  0  0  0
  -24.8549  -27.7170   19.4862 C   0  0  0  0  0  0
  -23.6086  -29.8354   20.1691 C   0  0  0  0  0  0
  -25.4110  -36.3122   24.0332 C   0  0  1  0  0  0
  -20.5843  -28.3657   23.1320 C   0  0  2  0  0  0
  -20.6742  -26.9395   22.5421 C   0  0  0  0  0  0
  -19.5733  -26.6381   21.5213 C   0  0  0  0  0  0
  -18.1916  -26.7929   22.1618 C   0  0  0  0  0  0
  -19.1508  -28.8840   23.2888 C   0  0  0  0  0  0
  -18.9438  -30.1440   23.8893 C   0  0  0  0  0  0
  -17.6445  -30.6579   24.0557 C   0  0  0  0  0  0
  -25.9038  -34.9483   23.5129 C   0  0  0  0  0  0
  -16.5336  -29.9073   23.6331 C   0  0  0  0  0  0
  -16.7253  -28.6492   23.0356 C   0  0  0  0  0  0
  -26.4432  -31.6634   25.0775 C   0  0  0  0  0  0
  -25.3675  -31.3787   26.1518 C   0  0  0  0  0  0
  -27.0254  -30.3059   24.6205 C   0  0  0  0  0  0
  -27.6014  -32.4359   25.7513 C   0  0  0  0  0  0
  -27.5585  -37.1815   24.8452 C   0  0  0  0  0  0
  -21.4137  -29.3017   22.3729 N   0  0  0  0  0  0
  -26.4297  -37.3808   23.9410 N   0  0  0  0  0  0
  -24.6710  -31.0765   22.1048 N   0  0  0  0  0  0
  -23.4168  -28.8193   23.3076 O   0  0  0  0  0  0
  -28.3477  -26.6061   20.1631 O   0  0  0  0  0  0
  -26.5619  -34.8931   22.4698 O   0  0  0  0  0  0
  -23.5348  -32.1438   23.7491 O   0  0  0  0  0  0
  -27.9996  -19.9797   21.1719 C   0  0  0  0  0  0
  -29.2384  -20.4281   20.7784 C   0  0  0  0  0  0
  -29.5631  -18.1537   20.5148 C   0  0  0  0  0  0
  -28.8867  -22.7675   20.6352 C   0  0  0  0  0  0
  -30.2984  -24.4700   19.3536 C   0  0  0  0  0  0
  -30.2985  -17.7833   16.1236 C   0  0  0  0  0  0
  -32.2734  -16.8537   17.3903 C   0  0  0  0  0  0
  -29.9531  -16.7853   18.4322 C   0  0  0  0  0  0
  -28.0871  -25.1894   20.3574 C   0  0  0  0  0  0
  -30.2494  -16.9118   19.9522 C   0  0  2  0  0  0
  -29.3184  -24.2544   20.5204 C   0  0  1  0  0  0
  -30.9155  -17.5688   17.5149 C   0  0  0  0  0  0
  -30.1149  -19.3820   20.4493 N   0  0  0  0  0  0
  -29.6894  -21.7669   20.6949 N   0  0  0  0  0  0
  -29.9005  -15.6353   20.6278 N   0  0  0  0  0  0
  -27.8885  -18.2290   21.0749 S   0  0  0  0  0  0
  -31.4728  -12.4106   19.1706 H   0  0  0  0  0  0
  -30.3225  -11.3253   19.9031 H   0  0  0  0  0  0
  -29.7670  -11.7210   17.4819 H   0  0  0  0  0  0
  -29.6706  -13.4412   17.7536 H   0  0  0  0  0  0
  -27.8596  -11.2826   18.8815 H   0  0  0  0  0  0
  -27.3791  -12.5555   17.7912 H   0  0  0  0  0  0
  -27.6818  -14.2455   19.5183 H   0  0  0  0  0  0
  -28.6731  -12.0409   21.4005 H   0  0  0  0  0  0
  -28.4582  -13.7153   21.8371 H   0  0  0  0  0  0
  -25.2759   -9.5703   22.4707 H   0  0  0  0  0  0
  -23.9999   -7.4665   22.7476 H   0  0  0  0  0  0
  -21.0816   -8.8772   19.8978 H   0  0  0  0  0  0
  -22.3670  -10.9651   19.6146 H   0  0  0  0  0  0
  -21.2016   -7.6138   23.9734 H   0  0  0  0  0  0
  -21.1474   -6.0488   25.9079 H   0  0  0  0  0  0
  -22.0605   -2.7597   23.2823 H   0  0  0  0  0  0
  -22.4042  -11.9963   22.4842 H   0  0  0  0  0  0
  -21.1093  -13.1331   22.2587 H   0  0  0  0  0  0
  -24.6595  -15.8410   20.5301 H   0  0  0  0  0  0
  -26.2683  -15.6304   20.0631 H   0  0  0  0  0  0
  -26.7118  -32.5522   23.1195 H   0  0  0  0  0  0
  -24.9963  -33.9802   25.0418 H   0  0  0  0  0  0
  -22.6934  -31.3135   21.4256 H   0  0  0  0  0  0
  -23.3739  -35.9664   23.3314 H   0  0  0  0  0  0
  -24.3577  -36.8942   22.2054 H   0  0  0  0  0  0
  -23.7234  -37.6530   23.6655 H   0  0  0  0  0  0
  -26.0599  -31.6021   20.6128 H   0  0  0  0  0  0
  -26.8196  -30.8681   21.9989 H   0  0  0  0  0  0
  -28.1004  -29.0706   21.1666 H   0  0  0  0  0  0
  -25.9791  -26.0044   18.9601 H   0  0  0  0  0  0
  -23.9636  -27.3349   19.0069 H   0  0  0  0  0  0
  -23.7112  -30.6132   19.4131 H   0  0  0  0  0  0
  -22.7309  -29.2561   19.8749 H   0  0  0  0  0  0
  -25.1290  -36.2001   25.0827 H   0  0  0  0  0  0
  -20.9915  -28.3215   24.1451 H   0  0  0  0  0  0
  -20.5643  -26.2267   23.3598 H   0  0  0  0  0  0
  -21.6621  -26.7451   22.1232 H   0  0  0  0  0  0
  -19.6890  -25.6293   21.1245 H   0  0  0  0  0  0
  -19.6679  -27.3181   20.6740 H   0  0  0  0  0  0
  -17.4188  -26.6660   21.4023 H   0  0  0  0  0  0
  -18.0312  -26.0060   22.9000 H   0  0  0  0  0  0
  -19.7920  -30.7245   24.2260 H   0  0  0  0  0  0
  -17.5014  -31.6273   24.5145 H   0  0  0  0  0  0
  -15.5337  -30.2982   23.7672 H   0  0  0  0  0  0
  -15.8650  -28.0817   22.7091 H   0  0  0  0  0  0
  -24.5810  -30.7174   25.7857 H   0  0  0  0  0  0
  -24.8901  -32.2967   26.4963 H   0  0  0  0  0  0
  -25.7990  -30.8944   27.0287 H   0  0  0  0  0  0
  -26.2833  -29.6854   24.1165 H   0  0  0  0  0  0
  -27.3868  -29.7277   25.4719 H   0  0  0  0  0  0
  -27.8742  -30.4346   23.9479 H   0  0  0  0  0  0
  -27.2636  -33.3633   26.2153 H   0  0  0  0  0  0
  -28.3772  -32.6978   25.0307 H   0  0  0  0  0  0
  -28.0747  -31.8463   26.5371 H   0  0  0  0  0  0
  -28.2615  -38.0103   24.7510 H   0  0  0  0  0  0
  -28.1067  -36.2635   24.6265 H   0  0  0  0  0  0
  -27.2305  -37.1471   25.8855 H   0  0  0  0  0  0
  -20.9296  -29.8732   21.6947 H   0  0  0  0  0  0
  -26.0177  -38.2891   24.1402 H   0  0  0  0  0  0
  -27.1364  -20.5471   21.4987 H   0  0  0  0  0  0
  -27.8019  -22.6322   20.6498 H   0  0  0  0  0  0
  -31.1703  -23.8196   19.4263 H   0  0  0  0  0  0
  -30.6623  -25.4983   19.3387 H   0  0  0  0  0  0
  -29.8141  -24.2831   18.3943 H   0  0  0  0  0  0
  -30.9949  -18.2944   15.4597 H   0  0  0  0  0  0
  -29.3986  -18.3969   16.1775 H   0  0  0  0  0  0
  -30.0219  -16.8396   15.6528 H   0  0  0  0  0  0
  -32.9377  -17.3777   16.7034 H   0  0  0  0  0  0
  -32.1514  -15.8355   17.0178 H   0  0  0  0  0  0
  -32.7886  -16.7841   18.3470 H   0  0  0  0  0  0
  -28.9183  -17.0832   18.2508 H   0  0  0  0  0  0
  -29.9974  -15.7440   18.1149 H   0  0  0  0  0  0
  -27.5311  -24.7902   19.5120 H   0  0  0  0  0  0
  -27.4514  -25.0832   21.2399 H   0  0  0  0  0  0
  -31.3174  -17.0705   20.1075 H   0  0  0  0  0  0
  -29.8315  -24.5187   21.4451 H   0  0  0  0  0  0
  -31.0857  -18.5543   17.9481 H   0  0  0  0  0  0
  -28.9414  -15.5024   20.9056 H   0  0  0  0  0  0
  1 25  1  0  0  0
  1 30  2  0  0  0
  1 85  1  0  0  0
  2  3  1  0  0  0
  2 25  1  0  0  0
  2 87  1  0  0  0
  2 88  1  0  0  0
  3  4  1  0  0  0
  3 89  1  0  0  0
  3 90  1  0  0  0
  4  5  1  0  0  0
  4 91  1  0  0  0
  4 92  1  0  0  0
  5  6  1  0  0  0
  5 26  1  0  0  0
  5 93  1  0  0  0
  6 25  1  0  0  0
  6 94  1  0  0  0
  6 95  1  0  0  0
  7  8  2  0  0  0
  7 26  1  0  0  0
  7 29  1  0  0  0
  8  9  1  0  0  0
  8 22  1  0  0  0
  9 10  1  0  0  0
  9 27  2  0  0  0
 10 11  2  0  0  0
 10 15  1  0  0  0
 11 12  1  0  0  0
 11 96  1  0  0  0
 12 13  2  0  0  0
 12 97  1  0  0  0
 13 14  1  0  0  0
 13 31  1  0  0  0
 14 15  2  0  0  0
 14 98  1  0  0  0
 15 99  1  0  0  0
 16 17  2  0  0  0
 16 21  1  0  0  0
 16 31  1  0  0  0
 17 18  1  0  0  0
 17100  1  0  0  0
 18 19  2  0  0  0
 18101  1  0  0  0
 19 20  1  0  0  0
 19 24  1  0  0  0
 20 21  2  0  0  0
 20102  1  0  0  0
 21 23  1  0  0  0
 22 28  1  0  0  0
 22 32  2  0  0  0
 26 27  1  0  0  0
 28103  1  0  0  0
 28104  1  0  0  0
 29105  1  0  0  0
 29106  1  0  0  0
 33 34  1  0  0  0
 33 66  1  0  0  0
 33 70  2  0  0  0
 34 36  1  0  0  0
 34 59  1  0  0  0
 34107  1  0  0  0
 35 44  2  0  0  0
 35 45  1  0  0  0
 35 68  1  0  0  0
 36 56  1  0  0  0
 36108  1  0  0  0
 37 39  1  0  0  0
 37 47  1  0  0  0
 37 66  1  0  0  0
 37109  1  0  0  0
 38 43  2  0  0  0
 38 46  1  0  0  0
 38 47  1  0  0  0
 39 64  1  0  0  0
 39 67  2  0  0  0
 40 52  1  0  0  0
 40 53  2  0  0  0
 40 58  1  0  0  0
 41110  1  0  0  0
 41111  1  0  0  0
 41112  1  0  0  0
 41 48  1  0  0  0
 42 43  1  0  0  0
 42 66  1  0  0  0
 42113  1  0  0  0
 42114  1  0  0  0
 43 44  1  0  0  0
 44115  1  0  0  0
 45 46  2  0  0  0
 45116  1  0  0  0
 46117  1  0  0  0
 47118  1  0  0  0
 47119  1  0  0  0
 48 56  1  0  0  0
 48 65  1  0  0  0
 48120  1  0  0  0
 49 50  1  0  0  0
 49 53  1  0  0  0
 49 64  1  0  0  0
 49121  1  0  0  0
 50 51  1  0  0  0
 50122  1  0  0  0
 50123  1  0  0  0
 51 52  1  0  0  0
 51124  1  0  0  0
 51125  1  0  0  0
 52126  1  0  0  0
 52127  1  0  0  0
 53 54  1  0  0  0
 54 55  2  0  0  0
 54128  1  0  0  0
 55 57  1  0  0  0
 55129  1  0  0  0
 56 69  2  0  0  0
 57 58  2  0  0  0
 57130  1  0  0  0
 58131  1  0  0  0
 59 60  1  0  0  0
 59 61  1  0  0  0
 59 62  1  0  0  0
 60132  1  0  0  0
 60133  1  0  0  0
 60134  1  0  0  0
 61135  1  0  0  0
 61136  1  0  0  0
 61137  1  0  0  0
 62138  1  0  0  0
 62139  1  0  0  0
 62140  1  0  0  0
 63 65  1  0  0  0
 63141  1  0  0  0
 63142  1  0  0  0
 63143  1  0  0  0
 64144  1  0  0  0
 65145  1  0  0  0
 68 79  1  0  0  0
 71 72  2  0  0  0
 71 86  1  0  0  0
 71146  1  0  0  0
 72 83  1  0  0  0
 72 84  1  0  0  0
 73 80  1  0  0  0
 73 83  2  0  0  0
 73 86  1  0  0  0
 74 81  1  0  0  0
 74 84  2  0  0  0
 74147  1  0  0  0
 75148  1  0  0  0
 75149  1  0  0  0
 75150  1  0  0  0
 75 81  1  0  0  0
 76151  1  0  0  0
 76152  1  0  0  0
 76153  1  0  0  0
 76 82  1  0  0  0
 77 82  1  0  0  0
 77154  1  0  0  0
 77155  1  0  0  0
 77156  1  0  0  0
 78 82  1  0  0  0
 78157  1  0  0  0
 78158  1  0  0  0
 78 80  1  0  0  0
 79 81  1  0  0  0
 79159  1  0  0  0
 79160  1  0  0  0
 80 85  1  0  0  0
 80161  1  0  0  0
 81162  1  0  0  0
 82163  1  0  0  0
 85164  1  0  0  0
M  ISO  4   1 100  68 101  79 101  85 100
M  END
> <chiral flag>
0

> <version>
0

> <s_m_source_file>
/data/baiqing/PycharmProjects/Reinvent-master-3.2/result/LINK_invent/BTK/process_docking_weight1_custom_product_contain_oxygen_bond_distance_aromatic_linkinvent_7_9_3/rearranged_h_0193.sdf

> <i_m_source_file_index>
54

> <r_mmod_Potential_Energy-OPLS-2005>
-132.351669311523

> <r_mmod_Stretch_Energy-OPLS-2005>
44.8984375

> <r_mmod_Bend_Energy-OPLS-2005>
115.65852355957

> <r_mmod_Torsional_Energy-OPLS-2005>
215.023818969727

> <r_mmod_Improper_Torsional_Energy-OPLS-2005>
10.4178647994995

> <r_mmod_Van_der_Waal_Energy-OPLS-2005>
131.109466552734

> <r_mmod_Electrostatic_Energy-OPLS-2005>
-454.573486328125

> <r_mmod_Solvation_Energy-OPLS-2005>
-221.322067260742

> <b_mmod_Minimization_Converged-OPLS-2005>
0

> <r_mmod_RMS_Derivative-OPLS-2005>
3.24640774726868

$$$$
54
                    3D
 Structure written by MMmdl.
156164  0  0  1  0            999 V2000
  -30.7341  -14.4779   20.5687 C   0  0  0  0  0  0
  -30.4147  -12.3087   19.4333 C   0  0  0  0  0  0
  -29.4931  -12.4978   18.2123 C   0  0  0  0  0  0
  -28.0165  -12.3572   18.6269 C   0  0  0  0  0  0
  -27.6600  -13.2125   19.8723 C   0  0  2  0  0  0
  -28.7033  -13.0266   20.9990 C   0  0  0  0  0  0
  -25.2580  -13.8178   20.5688 C   0  0  0  0  0  0
  -24.1837  -13.0444   20.9182 C   0  0  0  0  0  0
  -24.6400  -11.6914   20.8738 C   0  0  0  0  0  0
  -23.9067  -10.4294   21.0406 C   0  0  0  0  0  0
  -24.3614   -9.4209   21.9188 C   0  0  0  0  0  0
  -23.6288   -8.2245   22.0756 C   0  0  0  0  0  0
  -22.4273   -8.0281   21.3543 C   0  0  0  0  0  0
  -21.9909   -9.0256   20.4645 C   0  0  0  0  0  0
  -22.7238  -10.2135   20.3057 C   0  0  0  0  0  0
  -21.6854   -6.0734   22.5279 C   0  0  0  0  0  0
  -21.4015   -6.5639   23.8212 C   0  0  0  0  0  0
  -21.3657   -5.6794   24.9175 C   0  0  0  0  0  0
  -21.6045   -4.3055   24.7227 C   0  0  0  0  0  0
  -21.8818   -3.8145   23.4349 C   0  0  0  0  0  0
  -21.9192   -4.6963   22.3402 C   0  0  0  0  0  0
  -22.7858  -13.5236   21.1841 C   0  0  0  0  0  0
  -22.1660   -4.2144   21.0981 F   0  0  0  0  0  0
  -21.5628   -3.4538   25.7740 F   0  0  0  0  0  0
  -30.0351  -13.3146   20.4407 N   0  0  0  0  0  0
  -26.3020  -12.9356   20.3368 N   0  0  0  0  0  0
  -25.9331  -11.6511   20.5779 N   0  0  0  0  0  0
  -22.0498  -12.8227   22.0397 N   0  0  0  0  0  0
  -25.4305  -15.1894   20.4084 N   0  0  0  0  0  0
  -31.8618  -14.6102   20.0842 O   0  0  0  0  0  0
  -21.6638   -6.8878   21.4241 O   0  0  0  0  0  0
  -22.3543  -14.5544   20.6696 O   0  0  0  0  0  0
  -24.6175  -31.8688   23.2121 C   0  0  0  0  0  0
  -25.9067  -32.4832   23.8408 C   0  0  1  0  0  0
  -27.2230  -27.4128   20.0937 C   0  0  0  0  0  0
  -25.5914  -33.8631   24.2334 N   0  0  0  0  0  0
  -23.4058  -30.4953   21.5547 C   0  0  2  0  0  0
  -24.8502  -28.9716   20.1087 C   0  0  0  0  0  0
  -22.7432  -29.4661   22.4987 C   0  0  0  0  0  0
  -18.0278  -28.1370   22.8486 C   0  0  0  0  0  0
  -24.1492  -36.7313   23.2635 C   0  0  0  0  0  0
  -25.9396  -30.8267   21.3718 C   0  0  0  0  0  0
  -26.0152  -29.4642   20.7105 C   0  0  0  0  0  0
  -27.2055  -28.6940   20.6998 C   0  0  0  0  0  0
  -26.0376  -26.9606   19.4605 C   0  0  0  0  0  0
  -24.8580  -27.7203   19.4784 C   0  0  0  0  0  0
  -23.6139  -29.8388   20.1658 C   0  0  0  0  0  0
  -25.4113  -36.3117   24.0332 C   0  0  1  0  0  0
  -20.5871  -28.3672   23.1299 C   0  0  2  0  0  0
  -20.6776  -26.9407   22.5403 C   0  0  0  0  0  0
  -19.5755  -26.6381   21.5205 C   0  0  0  0  0  0
  -18.1932  -26.7920   22.1611 C   0  0  0  0  0  0
  -19.1526  -28.8833   23.2896 C   0  0  0  0  0  0
  -18.9456  -30.1432   23.8910 C   0  0  0  0  0  0
  -17.6461  -30.6584   24.0553 C   0  0  0  0  0  0
  -25.9036  -34.9483   23.5129 C   0  0  0  0  0  0
  -16.5351  -29.9084   23.6321 C   0  0  0  0  0  0
  -16.7265  -28.6496   23.0347 C   0  0  0  0  0  0
  -26.4480  -31.6606   25.0738 C   0  0  0  0  0  0
  -25.3733  -31.3715   26.1476 C   0  0  0  0  0  0
  -27.0315  -30.3047   24.6129 C   0  0  0  0  0  0
  -27.6058  -32.4322   25.7500 C   0  0  0  0  0  0
  -27.5585  -37.1814   24.8463 C   0  0  0  0  0  0
  -21.4157  -29.3038   22.3713 N   0  0  0  0  0  0
  -26.4300  -37.3796   23.9399 N   0  0  0  0  0  0
  -24.6726  -31.0763   22.1045 N   0  0  0  0  0  0
  -23.4195  -28.8192   23.3028 O   0  0  0  0  0  0
  -28.3566  -26.6102   20.1528 O   0  0  0  0  0  0
  -26.5598  -34.8930   22.4692 O   0  0  0  0  0  0
  -23.5358  -32.1463   23.7485 O   0  0  0  0  0  0
  -31.8140  -17.3063   21.3531 C   0  0  0  0  0  0
  -29.5145  -17.9305   21.0431 C   0  0  0  0  0  0
  -32.1317  -18.6746   21.3713 C   0  0  0  0  0  0
  -30.4754  -16.9002   21.1621 C   0  0  0  0  0  0
  -29.9163  -19.2941   21.0696 C   0  0  0  0  0  0
  -28.8923  -20.4042   20.9179 C   0  0  0  0  0  0
  -27.8986  -22.9961   22.5692 C   0  0  0  0  0  0
  -29.1455  -24.2030   20.6887 C   0  0  0  0  0  0
  -28.0806  -25.1883   20.1338 C   0  0  0  0  0  0
  -28.4729  -22.8656   21.1441 C   0  0  1  0  0  0
  -31.2136  -19.6505   21.2300 N   0  0  0  0  0  0
  -30.0730  -15.5199   21.1233 N   0  0  0  0  0  0
  -29.3352  -21.6701   21.0819 N   0  0  0  0  0  0
  -27.7070  -20.1416   20.6888 O   0  0  0  0  0  0
  -31.4610  -12.3832   19.1314 H   0  0  0  0  0  0
  -30.2997  -11.3053   19.8463 H   0  0  0  0  0  0
  -29.7340  -11.7649   17.4410 H   0  0  0  0  0  0
  -29.6621  -13.4792   17.7659 H   0  0  0  0  0  0
  -27.8356  -11.3030   18.8398 H   0  0  0  0  0  0
  -27.3623  -12.6143   17.7930 H   0  0  0  0  0  0
  -27.6958  -14.2552   19.5547 H   0  0  0  0  0  0
  -28.6786  -12.0030   21.3760 H   0  0  0  0  0  0
  -28.4655  -13.6587   21.8551 H   0  0  0  0  0  0
  -25.2760   -9.5682   22.4759 H   0  0  0  0  0  0
  -23.9994   -7.4640   22.7480 H   0  0  0  0  0  0
  -21.0843   -8.8780   19.8952 H   0  0  0  0  0  0
  -22.3704  -10.9674   19.6161 H   0  0  0  0  0  0
  -21.2011   -7.6147   23.9712 H   0  0  0  0  0  0
  -21.1480   -6.0524   25.9075 H   0  0  0  0  0  0
  -22.0600   -2.7606   23.2852 H   0  0  0  0  0  0
  -22.4106  -11.9880   22.4773 H   0  0  0  0  0  0
  -21.1118  -13.1255   22.2604 H   0  0  0  0  0  0
  -24.6647  -15.8459   20.5136 H   0  0  0  0  0  0
  -26.2811  -15.6258   20.0754 H   0  0  0  0  0  0
  -26.7143  -32.5533   23.1168 H   0  0  0  0  0  0
  -25.0081  -33.9799   25.0494 H   0  0  0  0  0  0
  -22.6944  -31.3133   21.4205 H   0  0  0  0  0  0
  -23.3757  -35.9643   23.3309 H   0  0  0  0  0  0
  -24.3590  -36.8914   22.2047 H   0  0  0  0  0  0
  -23.7246  -37.6520   23.6648 H   0  0  0  0  0  0
  -26.0606  -31.5968   20.6090 H   0  0  0  0  0  0
  -26.8238  -30.8726   21.9954 H   0  0  0  0  0  0
  -28.0993  -29.0643   21.1825 H   0  0  0  0  0  0
  -25.9897  -26.0089   18.9518 H   0  0  0  0  0  0
  -23.9662  -27.3387   19.0007 H   0  0  0  0  0  0
  -23.7242  -30.6200   19.4126 H   0  0  0  0  0  0
  -22.7369  -29.2625   19.8660 H   0  0  0  0  0  0
  -25.1293  -36.1986   25.0823 H   0  0  0  0  0  0
  -20.9957  -28.3241   24.1421 H   0  0  0  0  0  0
  -20.5691  -26.2277   23.3588 H   0  0  0  0  0  0
  -21.6648  -26.7462   22.1185 H   0  0  0  0  0  0
  -19.6921  -25.6299   21.1222 H   0  0  0  0  0  0
  -19.6689  -27.3192   20.6737 H   0  0  0  0  0  0
  -17.4198  -26.6651   21.4016 H   0  0  0  0  0  0
  -18.0344  -26.0056   22.9001 H   0  0  0  0  0  0
  -19.7933  -30.7236   24.2289 H   0  0  0  0  0  0
  -17.5023  -31.6263   24.5156 H   0  0  0  0  0  0
  -15.5353  -30.2989   23.7646 H   0  0  0  0  0  0
  -15.8661  -28.0822   22.7058 H   0  0  0  0  0  0
  -24.5905  -30.7062   25.7806 H   0  0  0  0  0  0
  -24.8921  -32.2868   26.4931 H   0  0  0  0  0  0
  -25.8071  -30.8875   27.0237 H   0  0  0  0  0  0
  -26.2868  -29.6807   24.1170 H   0  0  0  0  0  0
  -27.4069  -29.7284   25.4596 H   0  0  0  0  0  0
  -27.8713  -30.4357   23.9299 H   0  0  0  0  0  0
  -27.2687  -33.3615   26.2107 H   0  0  0  0  0  0
  -28.3857  -32.6891   25.0318 H   0  0  0  0  0  0
  -28.0745  -31.8426   26.5392 H   0  0  0  0  0  0
  -28.2608  -38.0108   24.7524 H   0  0  0  0  0  0
  -28.1079  -36.2644   24.6284 H   0  0  0  0  0  0
  -27.2303  -37.1454   25.8865 H   0  0  0  0  0  0
  -20.9317  -29.8771   21.6943 H   0  0  0  0  0  0
  -26.0194  -38.2874   24.1405 H   0  0  0  0  0  0
  -32.6112  -16.5873   21.4775 H   0  0  0  0  0  0
  -28.4681  -17.6902   20.9126 H   0  0  0  0  0  0
  -33.1539  -18.9971   21.5037 H   0  0  0  0  0  0
  -27.2424  -23.8604   22.6683 H   0  0  0  0  0  0
  -28.6930  -23.1079   23.3087 H   0  0  0  0  0  0
  -27.3111  -22.1191   22.8456 H   0  0  0  0  0  0
  -29.6732  -24.6534   21.5304 H   0  0  0  0  0  0
  -29.8956  -24.0240   19.9177 H   0  0  0  0  0  0
  -27.1710  -25.0166   20.7111 H   0  0  0  0  0  0
  -27.8585  -24.8842   19.1103 H   0  0  0  0  0  0
  -27.6391  -22.6853   20.4614 H   0  0  0  0  0  0
  -29.1245  -15.3207   21.3993 H   0  0  0  0  0  0
  -30.3295  -21.7462   21.2624 H   0  0  0  0  0  0
  1 25  1  0  0  0
  1 30  2  0  0  0
  1 82  1  0  0  0
  2  3  1  0  0  0
  2 25  1  0  0  0
  2 85  1  0  0  0
  2 86  1  0  0  0
  3  4  1  0  0  0
  3 87  1  0  0  0
  3 88  1  0  0  0
  4  5  1  0  0  0
  4 89  1  0  0  0
  4 90  1  0  0  0
  5  6  1  0  0  0
  5 26  1  0  0  0
  5 91  1  0  0  0
  6 25  1  0  0  0
  6 92  1  0  0  0
  6 93  1  0  0  0
  7  8  2  0  0  0
  7 26  1  0  0  0
  7 29  1  0  0  0
  8  9  1  0  0  0
  8 22  1  0  0  0
  9 10  1  0  0  0
  9 27  2  0  0  0
 10 11  2  0  0  0
 10 15  1  0  0  0
 11 12  1  0  0  0
 11 94  1  0  0  0
 12 13  2  0  0  0
 12 95  1  0  0  0
 13 14  1  0  0  0
 13 31  1  0  0  0
 14 15  2  0  0  0
 14 96  1  0  0  0
 15 97  1  0  0  0
 16 17  2  0  0  0
 16 21  1  0  0  0
 16 31  1  0  0  0
 17 18  1  0  0  0
 17 98  1  0  0  0
 18 19  2  0  0  0
 18 99  1  0  0  0
 19 20  1  0  0  0
 19 24  1  0  0  0
 20 21  2  0  0  0
 20100  1  0  0  0
 21 23  1  0  0  0
 22 28  1  0  0  0
 22 32  2  0  0  0
 26 27  1  0  0  0
 28101  1  0  0  0
 28102  1  0  0  0
 29103  1  0  0  0
 29104  1  0  0  0
 33 34  1  0  0  0
 33 66  1  0  0  0
 33 70  2  0  0  0
 34 36  1  0  0  0
 34 59  1  0  0  0
 34105  1  0  0  0
 35 44  2  0  0  0
 35 45  1  0  0  0
 35 68  1  0  0  0
 36 56  1  0  0  0
 36106  1  0  0  0
 37 39  1  0  0  0
 37 47  1  0  0  0
 37 66  1  0  0  0
 37107  1  0  0  0
 38 43  2  0  0  0
 38 46  1  0  0  0
 38 47  1  0  0  0
 39 64  1  0  0  0
 39 67  2  0  0  0
 40 52  1  0  0  0
 40 53  2  0  0  0
 40 58  1  0  0  0
 41108  1  0  0  0
 41109  1  0  0  0
 41110  1  0  0  0
 41 48  1  0  0  0
 42 43  1  0  0  0
 42 66  1  0  0  0
 42111  1  0  0  0
 42112  1  0  0  0
 43 44  1  0  0  0
 44113  1  0  0  0
 45 46  2  0  0  0
 45114  1  0  0  0
 46115  1  0  0  0
 47116  1  0  0  0
 47117  1  0  0  0
 48 56  1  0  0  0
 48 65  1  0  0  0
 48118  1  0  0  0
 49 50  1  0  0  0
 49 53  1  0  0  0
 49 64  1  0  0  0
 49119  1  0  0  0
 50 51  1  0  0  0
 50120  1  0  0  0
 50121  1  0  0  0
 51 52  1  0  0  0
 51122  1  0  0  0
 51123  1  0  0  0
 52124  1  0  0  0
 52125  1  0  0  0
 53 54  1  0  0  0
 54 55  2  0  0  0
 54126  1  0  0  0
 55 57  1  0  0  0
 55127  1  0  0  0
 56 69  2  0  0  0
 57 58  2  0  0  0
 57128  1  0  0  0
 58129  1  0  0  0
 59 60  1  0  0  0
 59 61  1  0  0  0
 59 62  1  0  0  0
 60130  1  0  0  0
 60131  1  0  0  0
 60132  1  0  0  0
 61133  1  0  0  0
 61134  1  0  0  0
 61135  1  0  0  0
 62136  1  0  0  0
 62137  1  0  0  0
 62138  1  0  0  0
 63 65  1  0  0  0
 63139  1  0  0  0
 63140  1  0  0  0
 63141  1  0  0  0
 64142  1  0  0  0
 65143  1  0  0  0
 68 79  1  0  0  0
 71 73  2  0  0  0
 71 74  1  0  0  0
 71144  1  0  0  0
 72 74  2  0  0  0
 72 75  1  0  0  0
 72145  1  0  0  0
 73 81  1  0  0  0
 73146  1  0  0  0
 74 82  1  0  0  0
 75 76  1  0  0  0
 75 81  2  0  0  0
 76 83  1  0  0  0
 76 84  2  0  0  0
 77147  1  0  0  0
 77148  1  0  0  0
 77149  1  0  0  0
 77 80  1  0  0  0
 78 79  1  0  0  0
 78 80  1  0  0  0
 78150  1  0  0  0
 78151  1  0  0  0
 79152  1  0  0  0
 79153  1  0  0  0
 80 83  1  0  0  0
 80154  1  0  0  0
 82155  1  0  0  0
 83156  1  0  0  0
M  ISO  4   1 100  68 101  79 101  82 100
M  END
> <chiral flag>
0

> <version>
0

> <s_m_source_file>
/data/baiqing/PycharmProjects/Reinvent-master-3.2/result/LINK_invent/BTK/process_docking_weight1_custom_product_contain_oxygen_bond_distance_aromatic_linkinvent_7_9_3/rearranged_h_0193.sdf

> <i_m_source_file_index>
55

> <r_mmod_Potential_Energy-OPLS-2005>
-168.316055297852

> <r_mmod_Stretch_Energy-OPLS-2005>
43.2977600097656

> <r_mmod_Bend_Energy-OPLS-2005>
102.343482971191

> <r_mmod_Torsional_Energy-OPLS-2005>
235.53825378418

> <r_mmod_Improper_Torsional_Energy-OPLS-2005>
3.66288709640503

> <r_mmod_Van_der_Waal_Energy-OPLS-2005>
174.975479125977

> <r_mmod_Electrostatic_Energy-OPLS-2005>
-521.3466796875

> <r_mmod_Solvation_Energy-OPLS-2005>
-225.371871948242

> <b_mmod_Minimization_Converged-OPLS-2005>
0

> <r_mmod_RMS_Derivative-OPLS-2005>
1.17232036590576

$$$$
55
                    3D
 Structure written by MMmdl.
160168  0  0  1  0            999 V2000
  -30.7209  -14.4789   20.5725 C   0  0  0  0  0  0
  -30.4112  -12.3041   19.4408 C   0  0  0  0  0  0
  -29.4966  -12.5134   18.2176 C   0  0  0  0  0  0
  -28.0166  -12.3806   18.6227 C   0  0  0  0  0  0
  -27.6623  -13.2173   19.8816 C   0  0  2  0  0  0
  -28.7017  -13.0200   21.0096 C   0  0  0  0  0  0
  -25.2584  -13.8195   20.5716 C   0  0  0  0  0  0
  -24.1853  -13.0473   20.9196 C   0  0  0  0  0  0
  -24.6420  -11.6937   20.8764 C   0  0  0  0  0  0
  -23.9100  -10.4318   21.0432 C   0  0  0  0  0  0
  -24.3635   -9.4219   21.9208 C   0  0  0  0  0  0
  -23.6301   -8.2270   22.0779 C   0  0  0  0  0  0
  -22.4286   -8.0318   21.3564 C   0  0  0  0  0  0
  -21.9949   -9.0289   20.4644 C   0  0  0  0  0  0
  -22.7283  -10.2169   20.3062 C   0  0  0  0  0  0
  -21.6850   -6.0773   22.5275 C   0  0  0  0  0  0
  -21.4006   -6.5658   23.8214 C   0  0  0  0  0  0
  -21.3658   -5.6813   24.9176 C   0  0  0  0  0  0
  -21.6051   -4.3078   24.7215 C   0  0  0  0  0  0
  -21.8820   -3.8176   23.4333 C   0  0  0  0  0  0
  -21.9194   -4.7006   22.3396 C   0  0  0  0  0  0
  -22.7869  -13.5238   21.1868 C   0  0  0  0  0  0
  -22.1661   -4.2194   21.0973 F   0  0  0  0  0  0
  -21.5635   -3.4552   25.7718 F   0  0  0  0  0  0
  -30.0326  -13.3088   20.4533 N   0  0  0  0  0  0
  -26.3031  -12.9392   20.3407 N   0  0  0  0  0  0
  -25.9348  -11.6540   20.5806 N   0  0  0  0  0  0
  -22.0509  -12.8208   22.0384 N   0  0  0  0  0  0
  -25.4292  -15.1923   20.4108 N   0  0  0  0  0  0
  -31.8592  -14.5952   20.1110 O   0  0  0  0  0  0
  -21.6645   -6.8923   21.4244 O   0  0  0  0  0  0
  -22.3569  -14.5570   20.6738 O   0  0  0  0  0  0
  -24.6115  -31.8697   23.2075 C   0  0  0  0  0  0
  -25.9004  -32.4841   23.8401 C   0  0  1  0  0  0
  -27.2477  -27.4340   20.1072 C   0  0  0  0  0  0
  -25.5875  -33.8646   24.2315 N   0  0  0  0  0  0
  -23.4006  -30.4898   21.5449 C   0  0  2  0  0  0
  -24.8508  -28.9453   20.1184 C   0  0  0  0  0  0
  -22.7354  -29.4696   22.4954 C   0  0  0  0  0  0
  -18.0259  -28.1359   22.8526 C   0  0  0  0  0  0
  -24.1481  -36.7316   23.2629 C   0  0  0  0  0  0
  -25.9258  -30.8338   21.3600 C   0  0  0  0  0  0
  -26.0064  -29.4648   20.7130 C   0  0  0  0  0  0
  -27.2019  -28.7141   20.7063 C   0  0  0  0  0  0
  -26.0729  -26.9228   19.5118 C   0  0  0  0  0  0
  -24.8790  -27.6734   19.5169 C   0  0  0  0  0  0
  -23.6096  -29.8081   20.1650 C   0  0  0  0  0  0
  -25.4119  -36.3139   24.0323 C   0  0  1  0  0  0
  -20.5841  -28.3706   23.1290 C   0  0  2  0  0  0
  -20.6761  -26.9444   22.5415 C   0  0  0  0  0  0
  -19.5746  -26.6389   21.5215 C   0  0  0  0  0  0
  -18.1913  -26.7902   22.1622 C   0  0  0  0  0  0
  -19.1509  -28.8843   23.2905 C   0  0  0  0  0  0
  -18.9454  -30.1433   23.8945 C   0  0  0  0  0  0
  -17.6477  -30.6599   24.0592 C   0  0  0  0  0  0
  -25.9068  -34.9501   23.5132 C   0  0  0  0  0  0
  -16.5362  -29.9130   23.6306 C   0  0  0  0  0  0
  -16.7258  -28.6491   23.0423 C   0  0  0  0  0  0
  -26.4438  -31.6619   25.0735 C   0  0  0  0  0  0
  -25.3674  -31.3670   26.1450 C   0  0  0  0  0  0
  -27.0320  -30.3090   24.6107 C   0  0  0  0  0  0
  -27.6034  -32.4335   25.7492 C   0  0  0  0  0  0
  -27.5604  -37.1764   24.8426 C   0  0  0  0  0  0
  -21.4089  -29.3082   22.3673 N   0  0  0  0  0  0
  -26.4278  -37.3859   23.9445 N   0  0  0  0  0  0
  -24.6638  -31.0782   22.0975 N   0  0  0  0  0  0
  -23.4092  -28.8255   23.3048 O   0  0  0  0  0  0
  -28.4495  -26.7549   20.1597 O   0  0  0  0  0  0
  -26.5657  -34.8945   22.4716 O   0  0  0  0  0  0
  -23.5306  -32.1473   23.7461 O   0  0  0  0  0  0
  -31.6151  -18.7535   20.4063 C   0  0  0  0  0  0
  -30.4387  -19.4211   20.6696 C   0  0  0  0  0  0
  -30.3514  -16.9314   20.9773 C   0  0  0  0  0  0
  -32.8908  -19.3507   19.8989 C   0  0  0  0  0  0
  -28.0418  -24.6830   21.9975 C   0  0  0  0  0  0
  -29.4056  -21.6697   22.5701 C   0  0  0  0  0  0
  -29.4197  -23.1226   20.4196 C   0  0  0  0  0  0
  -28.6204  -25.4369   19.6124 C   0  0  0  0  0  0
  -28.3031  -24.2215   20.5501 C   0  0  2  0  0  0
  -29.2446  -21.6876   21.0360 C   0  0  1  0  0  0
  -31.5580  -17.3723   20.6064 N   0  0  0  0  0  0
  -30.2620  -20.8055   20.4455 N   0  0  0  0  0  0
  -30.0365  -15.5299   21.0919 N   0  0  0  0  0  0
  -29.2113  -18.2797   21.2313 S   0  0  0  0  0  0
  -31.4589  -12.3709   19.1412 H   0  0  0  0  0  0
  -30.2817  -11.2982   19.8424 H   0  0  0  0  0  0
  -29.7373  -11.7944   17.4321 H   0  0  0  0  0  0
  -29.6765  -13.5034   17.7940 H   0  0  0  0  0  0
  -27.8147  -11.3246   18.8059 H   0  0  0  0  0  0
  -27.3771  -12.6726   17.7908 H   0  0  0  0  0  0
  -27.7044  -14.2657   19.5874 H   0  0  0  0  0  0
  -28.6698  -11.9960   21.3844 H   0  0  0  0  0  0
  -28.4669  -13.6525   21.8670 H   0  0  0  0  0  0
  -25.2765   -9.5705   22.4801 H   0  0  0  0  0  0
  -24.0003   -7.4672   22.7510 H   0  0  0  0  0  0
  -21.0902   -8.8814   19.8932 H   0  0  0  0  0  0
  -22.3741  -10.9729   19.6184 H   0  0  0  0  0  0
  -21.1983   -7.6170   23.9718 H   0  0  0  0  0  0
  -21.1485   -6.0550   25.9085 H   0  0  0  0  0  0
  -22.0604   -2.7639   23.2817 H   0  0  0  0  0  0
  -22.4109  -11.9809   22.4689 H   0  0  0  0  0  0
  -21.1132  -13.1226   22.2614 H   0  0  0  0  0  0
  -24.6568  -15.8426   20.5052 H   0  0  0  0  0  0
  -26.2726  -15.6294   20.0635 H   0  0  0  0  0  0
  -26.7070  -32.5568   23.1175 H   0  0  0  0  0  0
  -24.9984  -33.9853   25.0424 H   0  0  0  0  0  0
  -22.6937  -31.3080   21.3945 H   0  0  0  0  0  0
  -23.3835  -35.9545   23.3186 H   0  0  0  0  0  0
  -24.3558  -36.9108   22.2065 H   0  0  0  0  0  0
  -23.7112  -37.6419   23.6752 H   0  0  0  0  0  0
  -26.0262  -31.5958   20.5865 H   0  0  0  0  0  0
  -26.8145  -30.8984   21.9754 H   0  0  0  0  0  0
  -28.0934  -29.1111   21.1696 H   0  0  0  0  0  0
  -26.0602  -25.9442   19.0566 H   0  0  0  0  0  0
  -23.9854  -27.2618   19.0658 H   0  0  0  0  0  0
  -23.7138  -30.5727   19.3959 H   0  0  0  0  0  0
  -22.7370  -29.2184   19.8760 H   0  0  0  0  0  0
  -25.1267  -36.2007   25.0811 H   0  0  0  0  0  0
  -20.9965  -28.3342   24.1400 H   0  0  0  0  0  0
  -20.5694  -26.2359   23.3626 H   0  0  0  0  0  0
  -21.6634  -26.7499   22.1225 H   0  0  0  0  0  0
  -19.6965  -25.6306   21.1251 H   0  0  0  0  0  0
  -19.6666  -27.3189   20.6726 H   0  0  0  0  0  0
  -17.4200  -26.6710   21.3993 H   0  0  0  0  0  0
  -18.0305  -25.9966   22.8938 H   0  0  0  0  0  0
  -19.7957  -30.7190   24.2360 H   0  0  0  0  0  0
  -17.5071  -31.6275   24.5220 H   0  0  0  0  0  0
  -15.5378  -30.3114   23.7544 H   0  0  0  0  0  0
  -15.8635  -28.0795   22.7225 H   0  0  0  0  0  0
  -24.5864  -30.7047   25.7696 H   0  0  0  0  0  0
  -24.8829  -32.2803   26.4906 H   0  0  0  0  0  0
  -25.7984  -30.8778   27.0196 H   0  0  0  0  0  0
  -26.2887  -29.6801   24.1208 H   0  0  0  0  0  0
  -27.4186  -29.7368   25.4549 H   0  0  0  0  0  0
  -27.8648  -30.4462   23.9212 H   0  0  0  0  0  0
  -27.2720  -33.3697   26.1996 H   0  0  0  0  0  0
  -28.3865  -32.6796   25.0304 H   0  0  0  0  0  0
  -28.0659  -31.8480   26.5459 H   0  0  0  0  0  0
  -28.2480  -38.0201   24.7783 H   0  0  0  0  0  0
  -28.1259  -36.2773   24.5920 H   0  0  0  0  0  0
  -27.2333  -37.1021   25.8809 H   0  0  0  0  0  0
  -20.9259  -29.8805   21.6879 H   0  0  0  0  0  0
  -26.0177  -38.2896   24.1653 H   0  0  0  0  0  0
  -33.2925  -20.0768   20.6042 H   0  0  0  0  0  0
  -32.7326  -19.8625   18.9499 H   0  0  0  0  0  0
  -33.6562  -18.5916   19.7352 H   0  0  0  0  0  0
  -27.5109  -23.9239   22.5663 H   0  0  0  0  0  0
  -27.3780  -25.5457   22.0390 H   0  0  0  0  0  0
  -28.9669  -24.9468   22.5127 H   0  0  0  0  0  0
  -28.8569  -22.4468   23.0865 H   0  0  0  0  0  0
  -30.4471  -21.8047   22.8639 H   0  0  0  0  0  0
  -29.0491  -20.7330   22.9959 H   0  0  0  0  0  0
  -30.3635  -23.5410   20.7741 H   0  0  0  0  0  0
  -29.5670  -22.9925   19.3453 H   0  0  0  0  0  0
  -28.1331  -25.3342   18.6425 H   0  0  0  0  0  0
  -29.6858  -25.4134   19.3789 H   0  0  0  0  0  0
  -27.3670  -23.7898   20.1934 H   0  0  0  0  0  0
  -28.2579  -21.3089   20.7611 H   0  0  0  0  0  0
  -31.0395  -21.2852   19.9984 H   0  0  0  0  0  0
  -29.1156  -15.3108   21.4370 H   0  0  0  0  0  0
  1 25  1  0  0  0
  1 30  2  0  0  0
  1 83  1  0  0  0
  2  3  1  0  0  0
  2 25  1  0  0  0
  2 85  1  0  0  0
  2 86  1  0  0  0
  3  4  1  0  0  0
  3 87  1  0  0  0
  3 88  1  0  0  0
  4  5  1  0  0  0
  4 89  1  0  0  0
  4 90  1  0  0  0
  5  6  1  0  0  0
  5 26  1  0  0  0
  5 91  1  0  0  0
  6 25  1  0  0  0
  6 92  1  0  0  0
  6 93  1  0  0  0
  7  8  2  0  0  0
  7 26  1  0  0  0
  7 29  1  0  0  0
  8  9  1  0  0  0
  8 22  1  0  0  0
  9 10  1  0  0  0
  9 27  2  0  0  0
 10 11  2  0  0  0
 10 15  1  0  0  0
 11 12  1  0  0  0
 11 94  1  0  0  0
 12 13  2  0  0  0
 12 95  1  0  0  0
 13 14  1  0  0  0
 13 31  1  0  0  0
 14 15  2  0  0  0
 14 96  1  0  0  0
 15 97  1  0  0  0
 16 17  2  0  0  0
 16 21  1  0  0  0
 16 31  1  0  0  0
 17 18  1  0  0  0
 17 98  1  0  0  0
 18 19  2  0  0  0
 18 99  1  0  0  0
 19 20  1  0  0  0
 19 24  1  0  0  0
 20 21  2  0  0  0
 20100  1  0  0  0
 21 23  1  0  0  0
 22 28  1  0  0  0
 22 32  2  0  0  0
 26 27  1  0  0  0
 28101  1  0  0  0
 28102  1  0  0  0
 29103  1  0  0  0
 29104  1  0  0  0
 33 34  1  0  0  0
 33 66  1  0  0  0
 33 70  2  0  0  0
 34 36  1  0  0  0
 34 59  1  0  0  0
 34105  1  0  0  0
 35 44  2  0  0  0
 35 45  1  0  0  0
 35 68  1  0  0  0
 36 56  1  0  0  0
 36106  1  0  0  0
 37 39  1  0  0  0
 37 47  1  0  0  0
 37 66  1  0  0  0
 37107  1  0  0  0
 38 43  2  0  0  0
 38 46  1  0  0  0
 38 47  1  0  0  0
 39 64  1  0  0  0
 39 67  2  0  0  0
 40 52  1  0  0  0
 40 53  2  0  0  0
 40 58  1  0  0  0
 41108  1  0  0  0
 41109  1  0  0  0
 41110  1  0  0  0
 41 48  1  0  0  0
 42 43  1  0  0  0
 42 66  1  0  0  0
 42111  1  0  0  0
 42112  1  0  0  0
 43 44  1  0  0  0
 44113  1  0  0  0
 45 46  2  0  0  0
 45114  1  0  0  0
 46115  1  0  0  0
 47116  1  0  0  0
 47117  1  0  0  0
 48 56  1  0  0  0
 48 65  1  0  0  0
 48118  1  0  0  0
 49 50  1  0  0  0
 49 53  1  0  0  0
 49 64  1  0  0  0
 49119  1  0  0  0
 50 51  1  0  0  0
 50120  1  0  0  0
 50121  1  0  0  0
 51 52  1  0  0  0
 51122  1  0  0  0
 51123  1  0  0  0
 52124  1  0  0  0
 52125  1  0  0  0
 53 54  1  0  0  0
 54 55  2  0  0  0
 54126  1  0  0  0
 55 57  1  0  0  0
 55127  1  0  0  0
 56 69  2  0  0  0
 57 58  2  0  0  0
 57128  1  0  0  0
 58129  1  0  0  0
 59 60  1  0  0  0
 59 61  1  0  0  0
 59 62  1  0  0  0
 60130  1  0  0  0
 60131  1  0  0  0
 60132  1  0  0  0
 61133  1  0  0  0
 61134  1  0  0  0
 61135  1  0  0  0
 62136  1  0  0  0
 62137  1  0  0  0
 62138  1  0  0  0
 63 65  1  0  0  0
 63139  1  0  0  0
 63140  1  0  0  0
 63141  1  0  0  0
 64142  1  0  0  0
 65143  1  0  0  0
 68 78  1  0  0  0
 71 72  2  0  0  0
 71 74  1  0  0  0
 71 81  1  0  0  0
 72 82  1  0  0  0
 72 84  1  0  0  0
 73 81  2  0  0  0
 73 83  1  0  0  0
 73 84  1  0  0  0
 74144  1  0  0  0
 74145  1  0  0  0
 74146  1  0  0  0
 75147  1  0  0  0
 75148  1  0  0  0
 75149  1  0  0  0
 75 79  1  0  0  0
 76150  1  0  0  0
 76151  1  0  0  0
 76152  1  0  0  0
 76 80  1  0  0  0
 77 79  1  0  0  0
 77 80  1  0  0  0
 77153  1  0  0  0
 77154  1  0  0  0
 78 79  1  0  0  0
 78155  1  0  0  0
 78156  1  0  0  0
 79157  1  0  0  0
 80 82  1  0  0  0
 80158  1  0  0  0
 82159  1  0  0  0
 83160  1  0  0  0
M  ISO  4   1 100  68 101  78 101  83 100
M  END
> <chiral flag>
0

> <version>
0

> <s_m_source_file>
/data/baiqing/PycharmProjects/Reinvent-master-3.2/result/LINK_invent/BTK/process_docking_weight1_custom_product_contain_oxygen_bond_distance_aromatic_linkinvent_7_9_3/rearranged_h_0193.sdf

> <i_m_source_file_index>
56

> <r_mmod_Potential_Energy-OPLS-2005>
-48.9372138977051

> <r_mmod_Stretch_Energy-OPLS-2005>
44.1601676940918

> <r_mmod_Bend_Energy-OPLS-2005>
146.187484741211

> <r_mmod_Torsional_Energy-OPLS-2005>
208.157104492188

> <r_mmod_Improper_Torsional_Energy-OPLS-2005>
4.37382221221924

> <r_mmod_Van_der_Waal_Energy-OPLS-2005>
136.28776550293

> <r_mmod_Electrostatic_Energy-OPLS-2005>
-380.0849609375

> <r_mmod_Solvation_Energy-OPLS-2005>
-223.426254272461

> <b_mmod_Minimization_Converged-OPLS-2005>
0

> <r_mmod_RMS_Derivative-OPLS-2005>
4.13697195053101

$$$$
56
                    3D
 Structure written by MMmdl.
151159  0  0  1  0            999 V2000
  -30.6227  -14.7432   20.4721 C   0  0  0  0  0  0
  -30.4299  -12.4569   19.4775 C   0  0  0  0  0  0
  -29.5111  -12.5113   18.2374 C   0  0  0  0  0  0
  -28.0357  -12.3360   18.6470 C   0  0  0  0  0  0
  -27.6403  -13.2336   19.8506 C   0  0  2  0  0  0
  -28.6842  -13.1705   20.9876 C   0  0  0  0  0  0
  -25.2482  -13.8183   20.5668 C   0  0  0  0  0  0
  -24.1789  -13.0433   20.9226 C   0  0  0  0  0  0
  -24.6376  -11.6914   20.8747 C   0  0  0  0  0  0
  -23.9049  -10.4293   21.0405 C   0  0  0  0  0  0
  -24.3604   -9.4210   21.9178 C   0  0  0  0  0  0
  -23.6292   -8.2238   22.0742 C   0  0  0  0  0  0
  -22.4276   -8.0266   21.3534 C   0  0  0  0  0  0
  -21.9904   -9.0236   20.4634 C   0  0  0  0  0  0
  -22.7221  -10.2128   20.3049 C   0  0  0  0  0  0
  -21.6856   -6.0722   22.5275 C   0  0  0  0  0  0
  -21.4008   -6.5630   23.8207 C   0  0  0  0  0  0
  -21.3666   -5.6787   24.9171 C   0  0  0  0  0  0
  -21.6048   -4.3047   24.7224 C   0  0  0  0  0  0
  -21.8823   -3.8133   23.4347 C   0  0  0  0  0  0
  -21.9192   -4.6946   22.3401 C   0  0  0  0  0  0
  -22.7809  -13.5211   21.1889 C   0  0  0  0  0  0
  -22.1666   -4.2135   21.0978 F   0  0  0  0  0  0
  -21.5636   -3.4529   25.7738 F   0  0  0  0  0  0
  -29.9864  -13.5222   20.4079 N   0  0  0  0  0  0
  -26.2916  -12.9400   20.3258 N   0  0  0  0  0  0
  -25.9309  -11.6541   20.5741 N   0  0  0  0  0  0
  -22.0464  -12.8194   22.0444 N   0  0  0  0  0  0
  -25.4149  -15.1890   20.3988 N   0  0  0  0  0  0
  -31.8082  -14.8308   20.1430 O   0  0  0  0  0  0
  -21.6645   -6.8860   21.4235 O   0  0  0  0  0  0
  -22.3493  -14.5513   20.6728 O   0  0  0  0  0  0
  -24.6331  -31.8541   23.1983 C   0  0  0  0  0  0
  -25.9152  -32.4757   23.8325 C   0  0  1  0  0  0
  -27.2152  -27.2422   20.1225 C   0  0  0  0  0  0
  -25.5943  -33.8552   24.2248 N   0  0  0  0  0  0
  -23.4310  -30.4787   21.5425 C   0  0  2  0  0  0
  -24.8770  -28.9298   20.1078 C   0  0  0  0  0  0
  -22.7522  -29.4598   22.4902 C   0  0  0  0  0  0
  -18.0298  -28.1395   22.8495 C   0  0  0  0  0  0
  -24.1489  -36.7275   23.2639 C   0  0  0  0  0  0
  -25.9804  -30.7610   21.3823 C   0  0  0  0  0  0
  -26.0509  -29.3830   20.7221 C   0  0  0  0  0  0
  -27.2206  -28.5516   20.7216 C   0  0  0  0  0  0
  -26.0133  -26.8737   19.4702 C   0  0  0  0  0  0
  -24.8653  -27.6841   19.4696 C   0  0  0  0  0  0
  -23.6500  -29.8179   20.1568 C   0  0  0  0  0  0
  -25.4117  -36.3072   24.0331 C   0  0  1  0  0  0
  -20.5911  -28.3705   23.1272 C   0  0  2  0  0  0
  -20.6790  -26.9422   22.5410 C   0  0  0  0  0  0
  -19.5758  -26.6392   21.5222 C   0  0  0  0  0  0
  -18.1941  -26.7939   22.1633 C   0  0  0  0  0  0
  -19.1555  -28.8866   23.2879 C   0  0  0  0  0  0
  -18.9472  -30.1470   23.8895 C   0  0  0  0  0  0
  -17.6470  -30.6594   24.0565 C   0  0  0  0  0  0
  -25.9067  -34.9441   23.5095 C   0  0  0  0  0  0
  -16.5363  -29.9096   23.6332 C   0  0  0  0  0  0
  -16.7285  -28.6513   23.0358 C   0  0  0  0  0  0
  -26.4502  -31.6589   25.0720 C   0  0  0  0  0  0
  -25.3708  -31.3747   26.1433 C   0  0  0  0  0  0
  -27.0345  -30.3005   24.6213 C   0  0  0  0  0  0
  -27.6060  -32.4328   25.7481 C   0  0  0  0  0  0
  -27.5580  -37.1791   24.8467 C   0  0  0  0  0  0
  -21.4224  -29.3044   22.3657 N   0  0  0  0  0  0
  -26.4287  -37.3778   23.9422 N   0  0  0  0  0  0
  -24.7011  -31.0498   22.0971 N   0  0  0  0  0  0
  -23.4218  -28.8131   23.3002 O   0  0  0  0  0  0
  -28.3022  -26.3246   20.1994 O   0  0  0  0  0  0
  -26.5633  -34.8923   22.4663 O   0  0  0  0  0  0
  -23.5484  -32.1361   23.7280 O   0  0  0  0  0  0
  -27.9681  -18.3647   20.2854 C   0  0  0  0  0  0
  -29.3121  -18.5389   20.4925 C   0  0  0  0  0  0
  -28.5590  -20.8074   20.3088 C   0  0  0  0  0  0
  -28.3216  -24.7832   18.3042 C   0  0  0  0  0  0
  -30.3433  -17.3484   20.6433 C   0  0  0  0  0  0
  -28.9547  -23.6317   20.4906 C   0  0  0  0  0  0
  -28.1191  -24.8665   19.8291 C   0  0  1  0  0  0
  -29.6220  -19.9646   20.5254 N   0  0  0  0  0  0
  -28.3980  -22.2454   20.2225 N   0  0  0  0  0  0
  -29.8789  -15.8894   20.7093 N   0  0  0  0  0  0
  -27.0875  -19.8647   20.0803 S   0  0  0  0  0  0
  -31.4721  -12.5767   19.1774 H   0  0  0  0  0  0
  -30.3690  -11.4803   19.9604 H   0  0  0  0  0  0
  -29.7962  -11.7388   17.5218 H   0  0  0  0  0  0
  -29.6399  -13.4665   17.7260 H   0  0  0  0  0  0
  -27.8884  -11.2864   18.9049 H   0  0  0  0  0  0
  -27.3809  -12.5332   17.7973 H   0  0  0  0  0  0
  -27.6351  -14.2566   19.4729 H   0  0  0  0  0  0
  -28.7187  -12.1736   21.4295 H   0  0  0  0  0  0
  -28.4169  -13.8525   21.7964 H   0  0  0  0  0  0
  -25.2752   -9.5696   22.4747 H   0  0  0  0  0  0
  -24.0012   -7.4628   22.7453 H   0  0  0  0  0  0
  -21.0837   -8.8730   19.8944 H   0  0  0  0  0  0
  -22.3654  -10.9651   19.6156 H   0  0  0  0  0  0
  -21.1994   -7.6139   23.9699 H   0  0  0  0  0  0
  -21.1494   -6.0522   25.9077 H   0  0  0  0  0  0
  -22.0599   -2.7592   23.2845 H   0  0  0  0  0  0
  -22.4091  -11.9870   22.4849 H   0  0  0  0  0  0
  -21.1068  -13.1188   22.2635 H   0  0  0  0  0  0
  -24.6275  -15.8258   20.4587 H   0  0  0  0  0  0
  -26.2185  -15.5911   19.9376 H   0  0  0  0  0  0
  -26.7216  -32.5398   23.1062 H   0  0  0  0  0  0
  -25.0086  -33.9676   25.0394 H   0  0  0  0  0  0
  -22.7289  -31.3021   21.3975 H   0  0  0  0  0  0
  -23.3764  -35.9595   23.3300 H   0  0  0  0  0  0
  -24.3583  -36.8899   22.2054 H   0  0  0  0  0  0
  -23.7217  -37.6467   23.6662 H   0  0  0  0  0  0
  -26.1239  -31.5222   20.6144 H   0  0  0  0  0  0
  -26.8565  -30.8076   22.0173 H   0  0  0  0  0  0
  -28.1149  -28.8917   21.2254 H   0  0  0  0  0  0
  -25.9097  -25.9304   18.9590 H   0  0  0  0  0  0
  -23.9705  -27.3338   18.9725 H   0  0  0  0  0  0
  -23.7768  -30.5952   19.4025 H   0  0  0  0  0  0
  -22.7675  -29.2532   19.8507 H   0  0  0  0  0  0
  -25.1303  -36.1909   25.0824 H   0  0  0  0  0  0
  -21.0003  -28.3277   24.1394 H   0  0  0  0  0  0
  -20.5703  -26.2312   23.3618 H   0  0  0  0  0  0
  -21.6654  -26.7459   22.1185 H   0  0  0  0  0  0
  -19.6920  -25.6304   21.1250 H   0  0  0  0  0  0
  -19.6689  -27.3203   20.6755 H   0  0  0  0  0  0
  -17.4212  -26.6696   21.4033 H   0  0  0  0  0  0
  -18.0333  -26.0080   22.9026 H   0  0  0  0  0  0
  -19.7946  -30.7292   24.2259 H   0  0  0  0  0  0
  -17.5024  -31.6268   24.5173 H   0  0  0  0  0  0
  -15.5361  -30.3000   23.7652 H   0  0  0  0  0  0
  -15.8688  -28.0835   22.7072 H   0  0  0  0  0  0
  -24.5896  -30.7089   25.7756 H   0  0  0  0  0  0
  -24.8876  -32.2912   26.4825 H   0  0  0  0  0  0
  -25.8007  -30.8941   27.0228 H   0  0  0  0  0  0
  -26.2925  -29.6753   24.1227 H   0  0  0  0  0  0
  -27.4018  -29.7280   25.4738 H   0  0  0  0  0  0
  -27.8821  -30.4299   23.9477 H   0  0  0  0  0  0
  -27.2688  -33.3648   26.2034 H   0  0  0  0  0  0
  -28.3869  -32.6849   25.0295 H   0  0  0  0  0  0
  -28.0726  -31.8453   26.5401 H   0  0  0  0  0  0
  -28.2599  -38.0088   24.7538 H   0  0  0  0  0  0
  -28.1073  -36.2622   24.6269 H   0  0  0  0  0  0
  -27.2307  -37.1421   25.8871 H   0  0  0  0  0  0
  -20.9414  -29.8772   21.6862 H   0  0  0  0  0  0
  -26.0165  -38.2853   24.1429 H   0  0  0  0  0  0
  -27.4301  -17.4317   20.2197 H   0  0  0  0  0  0
  -28.0753  -23.7915   17.9230 H   0  0  0  0  0  0
  -29.3621  -24.9842   18.0476 H   0  0  0  0  0  0
  -27.7130  -25.4974   17.7544 H   0  0  0  0  0  0
  -30.9525  -17.5237   21.5311 H   0  0  0  0  0  0
  -31.0480  -17.4139   19.8129 H   0  0  0  0  0  0
  -28.9720  -23.7664   21.5729 H   0  0  0  0  0  0
  -29.9961  -23.6697   20.1677 H   0  0  0  0  0  0
  -27.0899  -24.6095   20.0755 H   0  0  0  0  0  0
  -27.4420  -22.3847   19.9119 H   0  0  0  0  0  0
  -28.9120  -15.7460   20.9529 H   0  0  0  0  0  0
  1 25  1  0  0  0
  1 30  2  0  0  0
  1 80  1  0  0  0
  2  3  1  0  0  0
  2 25  1  0  0  0
  2 82  1  0  0  0
  2 83  1  0  0  0
  3  4  1  0  0  0
  3 84  1  0  0  0
  3 85  1  0  0  0
  4  5  1  0  0  0
  4 86  1  0  0  0
  4 87  1  0  0  0
  5  6  1  0  0  0
  5 26  1  0  0  0
  5 88  1  0  0  0
  6 25  1  0  0  0
  6 89  1  0  0  0
  6 90  1  0  0  0
  7  8  2  0  0  0
  7 26  1  0  0  0
  7 29  1  0  0  0
  8  9  1  0  0  0
  8 22  1  0  0  0
  9 10  1  0  0  0
  9 27  2  0  0  0
 10 11  2  0  0  0
 10 15  1  0  0  0
 11 12  1  0  0  0
 11 91  1  0  0  0
 12 13  2  0  0  0
 12 92  1  0  0  0
 13 14  1  0  0  0
 13 31  1  0  0  0
 14 15  2  0  0  0
 14 93  1  0  0  0
 15 94  1  0  0  0
 16 17  2  0  0  0
 16 21  1  0  0  0
 16 31  1  0  0  0
 17 18  1  0  0  0
 17 95  1  0  0  0
 18 19  2  0  0  0
 18 96  1  0  0  0
 19 20  1  0  0  0
 19 24  1  0  0  0
 20 21  2  0  0  0
 20 97  1  0  0  0
 21 23  1  0  0  0
 22 28  1  0  0  0
 22 32  2  0  0  0
 26 27  1  0  0  0
 28 98  1  0  0  0
 28 99  1  0  0  0
 29100  1  0  0  0
 29101  1  0  0  0
 33 34  1  0  0  0
 33 66  1  0  0  0
 33 70  2  0  0  0
 34 36  1  0  0  0
 34 59  1  0  0  0
 34102  1  0  0  0
 35 44  2  0  0  0
 35 45  1  0  0  0
 35 68  1  0  0  0
 36 56  1  0  0  0
 36103  1  0  0  0
 37 39  1  0  0  0
 37 47  1  0  0  0
 37 66  1  0  0  0
 37104  1  0  0  0
 38 43  2  0  0  0
 38 46  1  0  0  0
 38 47  1  0  0  0
 39 64  1  0  0  0
 39 67  2  0  0  0
 40 52  1  0  0  0
 40 53  2  0  0  0
 40 58  1  0  0  0
 41105  1  0  0  0
 41106  1  0  0  0
 41107  1  0  0  0
 41 48  1  0  0  0
 42 43  1  0  0  0
 42 66  1  0  0  0
 42108  1  0  0  0
 42109  1  0  0  0
 43 44  1  0  0  0
 44110  1  0  0  0
 45 46  2  0  0  0
 45111  1  0  0  0
 46112  1  0  0  0
 47113  1  0  0  0
 47114  1  0  0  0
 48 56  1  0  0  0
 48 65  1  0  0  0
 48115  1  0  0  0
 49 50  1  0  0  0
 49 53  1  0  0  0
 49 64  1  0  0  0
 49116  1  0  0  0
 50 51  1  0  0  0
 50117  1  0  0  0
 50118  1  0  0  0
 51 52  1  0  0  0
 51119  1  0  0  0
 51120  1  0  0  0
 52121  1  0  0  0
 52122  1  0  0  0
 53 54  1  0  0  0
 54 55  2  0  0  0
 54123  1  0  0  0
 55 57  1  0  0  0
 55124  1  0  0  0
 56 69  2  0  0  0
 57 58  2  0  0  0
 57125  1  0  0  0
 58126  1  0  0  0
 59 60  1  0  0  0
 59 61  1  0  0  0
 59 62  1  0  0  0
 60127  1  0  0  0
 60128  1  0  0  0
 60129  1  0  0  0
 61130  1  0  0  0
 61131  1  0  0  0
 61132  1  0  0  0
 62133  1  0  0  0
 62134  1  0  0  0
 62135  1  0  0  0
 63 65  1  0  0  0
 63136  1  0  0  0
 63137  1  0  0  0
 63138  1  0  0  0
 64139  1  0  0  0
 65140  1  0  0  0
 68 77  1  0  0  0
 71 72  2  0  0  0
 71 81  1  0  0  0
 71141  1  0  0  0
 72 75  1  0  0  0
 72 78  1  0  0  0
 73 78  2  0  0  0
 73 79  1  0  0  0
 73 81  1  0  0  0
 74142  1  0  0  0
 74143  1  0  0  0
 74144  1  0  0  0
 74 77  1  0  0  0
 75 80  1  0  0  0
 75145  1  0  0  0
 75146  1  0  0  0
 76 77  1  0  0  0
 76 79  1  0  0  0
 76147  1  0  0  0
 76148  1  0  0  0
 77149  1  0  0  0
 79150  1  0  0  0
 80151  1  0  0  0
M  ISO  4   1 100  68 101  77 101  80 100
M  END
> <chiral flag>
0

> <version>
0

> <s_m_source_file>
/data/baiqing/PycharmProjects/Reinvent-master-3.2/result/LINK_invent/BTK/process_docking_weight1_custom_product_contain_oxygen_bond_distance_aromatic_linkinvent_7_9_3/rearranged_h_0193.sdf

> <i_m_source_file_index>
57

> <r_mmod_Potential_Energy-OPLS-2005>
-47.4104499816895

> <r_mmod_Stretch_Energy-OPLS-2005>
123.539505004883

> <r_mmod_Bend_Energy-OPLS-2005>
188.738311767578

> <r_mmod_Torsional_Energy-OPLS-2005>
191.881698608398

> <r_mmod_Improper_Torsional_Energy-OPLS-2005>
5.31645822525024

> <r_mmod_Van_der_Waal_Energy-OPLS-2005>
121.073997497559

> <r_mmod_Electrostatic_Energy-OPLS-2005>
-531.9140625

> <r_mmod_Solvation_Energy-OPLS-2005>
-237.603256225586

> <b_mmod_Minimization_Converged-OPLS-2005>
0

> <r_mmod_RMS_Derivative-OPLS-2005>
1.37101018428802

$$$$
57
                    3D
 Structure written by MMmdl.
150158  0  0  1  0            999 V2000
  -30.4255  -15.3253   20.3601 C   0  0  0  0  0  0
  -30.4346  -12.8567   19.5060 C   0  0  0  0  0  0
  -29.5291  -12.5795   18.2798 C   0  0  0  0  0  0
  -28.0852  -12.2894   18.7229 C   0  0  0  0  0  0
  -27.6064  -13.2775   19.8137 C   0  0  2  0  0  0
  -28.6432  -13.4907   20.9361 C   0  0  0  0  0  0
  -25.2379  -13.8250   20.5755 C   0  0  0  0  0  0
  -24.1738  -13.0434   20.9285 C   0  0  0  0  0  0
  -24.6407  -11.6934   20.8794 C   0  0  0  0  0  0
  -23.9108  -10.4291   21.0428 C   0  0  0  0  0  0
  -24.3654   -9.4200   21.9198 C   0  0  0  0  0  0
  -23.6315   -8.2239   22.0759 C   0  0  0  0  0  0
  -22.4292   -8.0291   21.3548 C   0  0  0  0  0  0
  -21.9944   -9.0271   20.4653 C   0  0  0  0  0  0
  -22.7285  -10.2142   20.3068 C   0  0  0  0  0  0
  -21.6854   -6.0753   22.5280 C   0  0  0  0  0  0
  -21.4014   -6.5652   23.8219 C   0  0  0  0  0  0
  -21.3651   -5.6799   24.9176 C   0  0  0  0  0  0
  -21.6043   -4.3063   24.7224 C   0  0  0  0  0  0
  -21.8817   -3.8159   23.4340 C   0  0  0  0  0  0
  -21.9194   -4.6979   22.3403 C   0  0  0  0  0  0
  -22.7754  -13.5186   21.1924 C   0  0  0  0  0  0
  -22.1659   -4.2168   21.0979 F   0  0  0  0  0  0
  -21.5632   -3.4544   25.7733 F   0  0  0  0  0  0
  -29.8551  -14.0163   20.2845 N   0  0  0  0  0  0
  -26.2808  -12.9528   20.3219 N   0  0  0  0  0  0
  -25.9346  -11.6633   20.5741 N   0  0  0  0  0  0
  -22.0411  -12.8159   22.0469 N   0  0  0  0  0  0
  -25.4003  -15.1982   20.4169 N   0  0  0  0  0  0
  -31.6593  -15.2794   20.2357 O   0  0  0  0  0  0
  -21.6643   -6.8895   21.4240 O   0  0  0  0  0  0
  -22.3434  -14.5489   20.6765 O   0  0  0  0  0  0
  -24.6662  -31.8186   23.1670 C   0  0  0  0  0  0
  -25.9324  -32.4560   23.8147 C   0  0  1  0  0  0
  -27.2187  -26.8865   20.1984 C   0  0  0  0  0  0
  -25.5984  -33.8375   24.2053 N   0  0  0  0  0  0
  -23.4828  -30.4283   21.5181 C   0  0  2  0  0  0
  -24.9346  -28.8020   20.1217 C   0  0  0  0  0  0
  -22.7677  -29.4418   22.4783 C   0  0  0  0  0  0
  -18.0324  -28.1411   22.8463 C   0  0  0  0  0  0
  -24.1495  -36.7189   23.2654 C   0  0  0  0  0  0
  -26.0544  -30.6131   21.4014 C   0  0  0  0  0  0
  -26.1213  -29.1966   20.7517 C   0  0  0  0  0  0
  -27.2598  -28.2642   20.7559 C   0  0  0  0  0  0
  -25.9979  -26.6473   19.5306 C   0  0  0  0  0  0
  -24.9001  -27.5485   19.4896 C   0  0  0  0  0  0
  -23.7248  -29.7374   20.1475 C   0  0  0  0  0  0
  -25.4135  -36.2945   24.0300 C   0  0  1  0  0  0
  -20.5952  -28.3754   23.1191 C   0  0  2  0  0  0
  -20.6797  -26.9431   22.5408 C   0  0  0  0  0  0
  -19.5774  -26.6377   21.5218 C   0  0  0  0  0  0
  -18.1957  -26.7945   22.1620 C   0  0  0  0  0  0
  -19.1588  -28.8903   23.2814 C   0  0  0  0  0  0
  -18.9500  -30.1494   23.8840 C   0  0  0  0  0  0
  -17.6493  -30.6598   24.0554 C   0  0  0  0  0  0
  -25.9101  -34.9332   23.4996 C   0  0  0  0  0  0
  -16.5383  -29.9081   23.6349 C   0  0  0  0  0  0
  -16.7308  -28.6508   23.0361 C   0  0  0  0  0  0
  -26.4567  -31.6525   25.0689 C   0  0  0  0  0  0
  -25.3681  -31.3785   26.1337 C   0  0  0  0  0  0
  -27.0484  -30.2895   24.6450 C   0  0  0  0  0  0
  -27.6053  -32.4344   25.7489 C   0  0  0  0  0  0
  -27.5562  -37.1750   24.8469 C   0  0  0  0  0  0
  -21.4346  -29.3039   22.3531 N   0  0  0  0  0  0
  -26.4276  -37.3688   23.9404 N   0  0  0  0  0  0
  -24.7565  -30.9811   22.0827 N   0  0  0  0  0  0
  -23.4207  -28.8002   23.3050 O   0  0  0  0  0  0
  -28.2405  -25.7862   20.1837 O   0  0  0  0  0  0
  -26.5721  -34.8877   22.4598 O   0  0  0  0  0  0
  -23.5725  -32.1178   23.6737 O   0  0  0  0  0  0
  -31.6524  -21.2770   21.0799 C   0  0  0  0  0  0
  -31.9802  -21.9854   23.2056 C   0  0  0  0  0  0
  -30.3493  -21.2580   21.5221 C   0  0  0  0  0  0
  -30.0103  -18.0688   20.4885 C   0  0  0  0  0  0
  -28.6511  -22.5171   19.9427 C   0  0  0  0  0  0
  -28.1028  -24.1605   20.5537 C   0  0  0  0  0  0
  -29.1190  -20.9333   20.7309 C   0  0  1  0  0  0
  -32.5768  -21.6879   22.0483 N   0  0  0  0  0  0
  -29.6685  -16.6232   20.3407 N   0  0  0  0  0  0
  -29.1623  -19.2891   20.2724 N   0  0  0  0  0  0
  -31.1558  -18.2980   20.8711 O   0  0  0  0  0  0
  -30.2372  -21.7797   23.1869 S   0  0  0  0  0  0
  -31.4460  -13.0720   19.1593 H   0  0  0  0  0  0
  -30.5230  -11.9669   20.1318 H   0  0  0  0  0  0
  -29.9180  -11.7435   17.6974 H   0  0  0  0  0  0
  -29.5397  -13.4465   17.6172 H   0  0  0  0  0  0
  -28.0612  -11.2729   19.1173 H   0  0  0  0  0  0
  -27.4092  -12.3005   17.8673 H   0  0  0  0  0  0
  -27.5076  -14.2324   19.2953 H   0  0  0  0  0  0
  -28.8349  -12.5706   21.4894 H   0  0  0  0  0  0
  -28.2737  -14.2187   21.6600 H   0  0  0  0  0  0
  -25.2796   -9.5667   22.4788 H   0  0  0  0  0  0
  -24.0023   -7.4623   22.7474 H   0  0  0  0  0  0
  -21.0881   -8.8802   19.8958 H   0  0  0  0  0  0
  -22.3751  -10.9696   19.6190 H   0  0  0  0  0  0
  -21.2000   -7.6160   23.9727 H   0  0  0  0  0  0
  -21.1475   -6.0529   25.9082 H   0  0  0  0  0  0
  -22.0602   -2.7622   23.2834 H   0  0  0  0  0  0
  -22.4036  -11.9814   22.4839 H   0  0  0  0  0  0
  -21.1026  -13.1167   22.2691 H   0  0  0  0  0  0
  -24.6287  -15.8471   20.5295 H   0  0  0  0  0  0
  -26.2368  -15.6367   20.0569 H   0  0  0  0  0  0
  -26.7384  -32.5083   23.0851 H   0  0  0  0  0  0
  -25.0073  -33.9447   25.0166 H   0  0  0  0  0  0
  -22.7993  -31.2613   21.3418 H   0  0  0  0  0  0
  -23.3767  -35.9509   23.3293 H   0  0  0  0  0  0
  -24.3571  -36.8852   22.2073 H   0  0  0  0  0  0
  -23.7245  -37.6366   23.6724 H   0  0  0  0  0  0
  -26.2373  -31.3501   20.6186 H   0  0  0  0  0  0
  -26.9140  -30.6728   22.0572 H   0  0  0  0  0  0
  -28.1663  -28.5747   21.2555 H   0  0  0  0  0  0
  -25.8719  -25.6908   19.0434 H   0  0  0  0  0  0
  -23.9997  -27.2395   18.9766 H   0  0  0  0  0  0
  -23.8866  -30.5031   19.3875 H   0  0  0  0  0  0
  -22.8334  -29.1936   19.8284 H   0  0  0  0  0  0
  -25.1339  -36.1735   25.0792 H   0  0  0  0  0  0
  -21.0035  -28.3351   24.1316 H   0  0  0  0  0  0
  -20.5684  -26.2359   23.3644 H   0  0  0  0  0  0
  -21.6658  -26.7403   22.1208 H   0  0  0  0  0  0
  -19.6930  -25.6278   21.1267 H   0  0  0  0  0  0
  -19.6715  -27.3170   20.6736 H   0  0  0  0  0  0
  -17.4224  -26.6698   21.4023 H   0  0  0  0  0  0
  -18.0340  -26.0102   22.9029 H   0  0  0  0  0  0
  -19.7979  -30.7332   24.2171 H   0  0  0  0  0  0
  -17.5045  -31.6271   24.5173 H   0  0  0  0  0  0
  -15.5381  -30.2965   23.7709 H   0  0  0  0  0  0
  -15.8712  -28.0812   22.7102 H   0  0  0  0  0  0
  -24.5886  -30.7114   25.7634 H   0  0  0  0  0  0
  -24.8853  -32.2992   26.4624 H   0  0  0  0  0  0
  -25.7904  -30.9037   27.0205 H   0  0  0  0  0  0
  -26.3177  -29.6544   24.1433 H   0  0  0  0  0  0
  -27.3991  -29.7283   25.5122 H   0  0  0  0  0  0
  -27.9112  -30.4079   23.9893 H   0  0  0  0  0  0
  -27.2625  -33.3700   26.1923 H   0  0  0  0  0  0
  -28.3934  -32.6812   25.0360 H   0  0  0  0  0  0
  -28.0643  -31.8566   26.5522 H   0  0  0  0  0  0
  -28.2566  -38.0059   24.7500 H   0  0  0  0  0  0
  -28.1069  -36.2579   24.6314 H   0  0  0  0  0  0
  -27.2274  -37.1413   25.8873 H   0  0  0  0  0  0
  -20.9603  -29.8710   21.6642 H   0  0  0  0  0  0
  -26.0116  -38.2740   24.1421 H   0  0  0  0  0  0
  -32.0047  -21.0178   20.0905 H   0  0  0  0  0  0
  -32.5493  -22.3287   24.0592 H   0  0  0  0  0  0
  -29.5113  -22.7529   19.3173 H   0  0  0  0  0  0
  -27.8851  -22.2440   19.2169 H   0  0  0  0  0  0
  -28.4878  -24.1621   21.5737 H   0  0  0  0  0  0
  -27.0296  -24.0336   20.7004 H   0  0  0  0  0  0
  -28.3138  -20.8486   21.4614 H   0  0  0  0  0  0
  -28.6844  -16.4726   20.1913 H   0  0  0  0  0  0
  -28.2769  -19.0266   19.8588 H   0  0  0  0  0  0
  1 25  1  0  0  0
  1 30  2  0  0  0
  1 79  1  0  0  0
  2  3  1  0  0  0
  2 25  1  0  0  0
  2 83  1  0  0  0
  2 84  1  0  0  0
  3  4  1  0  0  0
  3 85  1  0  0  0
  3 86  1  0  0  0
  4  5  1  0  0  0
  4 87  1  0  0  0
  4 88  1  0  0  0
  5  6  1  0  0  0
  5 26  1  0  0  0
  5 89  1  0  0  0
  6 25  1  0  0  0
  6 90  1  0  0  0
  6 91  1  0  0  0
  7  8  2  0  0  0
  7 26  1  0  0  0
  7 29  1  0  0  0
  8  9  1  0  0  0
  8 22  1  0  0  0
  9 10  1  0  0  0
  9 27  2  0  0  0
 10 11  2  0  0  0
 10 15  1  0  0  0
 11 12  1  0  0  0
 11 92  1  0  0  0
 12 13  2  0  0  0
 12 93  1  0  0  0
 13 14  1  0  0  0
 13 31  1  0  0  0
 14 15  2  0  0  0
 14 94  1  0  0  0
 15 95  1  0  0  0
 16 17  2  0  0  0
 16 21  1  0  0  0
 16 31  1  0  0  0
 17 18  1  0  0  0
 17 96  1  0  0  0
 18 19  2  0  0  0
 18 97  1  0  0  0
 19 20  1  0  0  0
 19 24  1  0  0  0
 20 21  2  0  0  0
 20 98  1  0  0  0
 21 23  1  0  0  0
 22 28  1  0  0  0
 22 32  2  0  0  0
 26 27  1  0  0  0
 28 99  1  0  0  0
 28100  1  0  0  0
 29101  1  0  0  0
 29102  1  0  0  0
 33 34  1  0  0  0
 33 66  1  0  0  0
 33 70  2  0  0  0
 34 36  1  0  0  0
 34 59  1  0  0  0
 34103  1  0  0  0
 35 44  2  0  0  0
 35 45  1  0  0  0
 35 68  1  0  0  0
 36 56  1  0  0  0
 36104  1  0  0  0
 37 39  1  0  0  0
 37 47  1  0  0  0
 37 66  1  0  0  0
 37105  1  0  0  0
 38 43  2  0  0  0
 38 46  1  0  0  0
 38 47  1  0  0  0
 39 64  1  0  0  0
 39 67  2  0  0  0
 40 52  1  0  0  0
 40 53  2  0  0  0
 40 58  1  0  0  0
 41106  1  0  0  0
 41107  1  0  0  0
 41108  1  0  0  0
 41 48  1  0  0  0
 42 43  1  0  0  0
 42 66  1  0  0  0
 42109  1  0  0  0
 42110  1  0  0  0
 43 44  1  0  0  0
 44111  1  0  0  0
 45 46  2  0  0  0
 45112  1  0  0  0
 46113  1  0  0  0
 47114  1  0  0  0
 47115  1  0  0  0
 48 56  1  0  0  0
 48 65  1  0  0  0
 48116  1  0  0  0
 49 50  1  0  0  0
 49 53  1  0  0  0
 49 64  1  0  0  0
 49117  1  0  0  0
 50 51  1  0  0  0
 50118  1  0  0  0
 50119  1  0  0  0
 51 52  1  0  0  0
 51120  1  0  0  0
 51121  1  0  0  0
 52122  1  0  0  0
 52123  1  0  0  0
 53 54  1  0  0  0
 54 55  2  0  0  0
 54124  1  0  0  0
 55 57  1  0  0  0
 55125  1  0  0  0
 56 69  2  0  0  0
 57 58  2  0  0  0
 57126  1  0  0  0
 58127  1  0  0  0
 59 60  1  0  0  0
 59 61  1  0  0  0
 59 62  1  0  0  0
 60128  1  0  0  0
 60129  1  0  0  0
 60130  1  0  0  0
 61131  1  0  0  0
 61132  1  0  0  0
 61133  1  0  0  0
 62134  1  0  0  0
 62135  1  0  0  0
 62136  1  0  0  0
 63 65  1  0  0  0
 63137  1  0  0  0
 63138  1  0  0  0
 63139  1  0  0  0
 64140  1  0  0  0
 65141  1  0  0  0
 68 76  1  0  0  0
 71 73  2  0  0  0
 71 78  1  0  0  0
 71142  1  0  0  0
 72 78  2  0  0  0
 72 82  1  0  0  0
 72143  1  0  0  0
 73 77  1  0  0  0
 73 82  1  0  0  0
 74 79  1  0  0  0
 74 80  1  0  0  0
 74 81  2  0  0  0
 75 76  1  0  0  0
 75144  1  0  0  0
 75145  1  0  0  0
 75 77  1  0  0  0
 76146  1  0  0  0
 76147  1  0  0  0
 77 80  1  0  0  0
 77148  1  0  0  0
 79149  1  0  0  0
 80150  1  0  0  0
M  ISO  4   1 100  68 101  76 101  79 100
M  END
> <chiral flag>
0

> <version>
0

> <s_m_source_file>
/data/baiqing/PycharmProjects/Reinvent-master-3.2/result/LINK_invent/BTK/process_docking_weight1_custom_product_contain_oxygen_bond_distance_aromatic_linkinvent_7_9_3/rearranged_h_0193.sdf

> <i_m_source_file_index>
58

> <r_mmod_Potential_Energy-OPLS-2005>
1364.466796875

> <r_mmod_Stretch_Energy-OPLS-2005>
682.855285644531

> <r_mmod_Bend_Energy-OPLS-2005>
500.182067871094

> <r_mmod_Torsional_Energy-OPLS-2005>
226.212097167969

> <r_mmod_Improper_Torsional_Energy-OPLS-2005>
5.65128660202026

> <r_mmod_Van_der_Waal_Energy-OPLS-2005>
102.000228881836

> <r_mmod_Electrostatic_Energy-OPLS-2005>
-392.663818359375

> <r_mmod_Solvation_Energy-OPLS-2005>
-274.244689941406

> <b_mmod_Minimization_Converged-OPLS-2005>
0

> <r_mmod_RMS_Derivative-OPLS-2005>
1.18863129615784

$$$$
58
                    3D
 Structure written by MMmdl.
170178  0  0  1  0            999 V2000
  -30.6145  -14.6677   20.4875 C   0  0  0  0  0  0
  -30.4348  -12.4029   19.4674 C   0  0  0  0  0  0
  -29.5077  -12.5029   18.2349 C   0  0  0  0  0  0
  -28.0300  -12.3401   18.6415 C   0  0  0  0  0  0
  -27.6482  -13.2213   19.8600 C   0  0  2  0  0  0
  -28.6904  -13.0932   20.9943 C   0  0  0  0  0  0
  -25.2514  -13.8196   20.5669 C   0  0  0  0  0  0
  -24.1793  -13.0447   20.9177 C   0  0  0  0  0  0
  -24.6381  -11.6916   20.8746 C   0  0  0  0  0  0
  -23.9065  -10.4288   21.0421 C   0  0  0  0  0  0
  -24.3624   -9.4199   21.9201 C   0  0  0  0  0  0
  -23.6295   -8.2239   22.0761 C   0  0  0  0  0  0
  -22.4279   -8.0279   21.3543 C   0  0  0  0  0  0
  -21.9915   -9.0249   20.4647 C   0  0  0  0  0  0
  -22.7246  -10.2132   20.3062 C   0  0  0  0  0  0
  -21.6850   -6.0736   22.5282 C   0  0  0  0  0  0
  -21.4011   -6.5641   23.8220 C   0  0  0  0  0  0
  -21.3654   -5.6792   24.9179 C   0  0  0  0  0  0
  -21.6046   -4.3052   24.7220 C   0  0  0  0  0  0
  -21.8820   -3.8147   23.4342 C   0  0  0  0  0  0
  -21.9185   -4.6968   22.3401 C   0  0  0  0  0  0
  -22.7806  -13.5225   21.1851 C   0  0  0  0  0  0
  -22.1650   -4.2155   21.0978 F   0  0  0  0  0  0
  -21.5633   -3.4543   25.7733 F   0  0  0  0  0  0
  -30.0075  -13.4356   20.4354 N   0  0  0  0  0  0
  -26.2951  -12.9381   20.3312 N   0  0  0  0  0  0
  -25.9312  -11.6539   20.5787 N   0  0  0  0  0  0
  -22.0471  -12.8203   22.0418 N   0  0  0  0  0  0
  -25.4228  -15.1928   20.4065 N   0  0  0  0  0  0
  -31.7821  -14.7963   20.1024 O   0  0  0  0  0  0
  -21.6640   -6.8880   21.4245 O   0  0  0  0  0  0
  -22.3466  -14.5528   20.6715 O   0  0  0  0  0  0
  -24.6252  -31.8580   23.1986 C   0  0  0  0  0  0
  -25.9086  -32.4776   23.8325 C   0  0  1  0  0  0
  -27.2342  -27.3121   20.1246 C   0  0  0  0  0  0
  -25.5877  -33.8573   24.2242 N   0  0  0  0  0  0
  -23.4201  -30.4779   21.5432 C   0  0  2  0  0  0
  -24.8687  -28.9221   20.1151 C   0  0  0  0  0  0
  -22.7466  -29.4621   22.4967 C   0  0  0  0  0  0
  -18.0287  -28.1388   22.8464 C   0  0  0  0  0  0
  -24.1501  -36.7275   23.2657 C   0  0  0  0  0  0
  -25.9613  -30.7837   21.3738 C   0  0  0  0  0  0
  -26.0366  -29.4095   20.7166 C   0  0  0  0  0  0
  -27.2208  -28.6175   20.7067 C   0  0  0  0  0  0
  -26.0481  -26.8731   19.4993 C   0  0  0  0  0  0
  -24.8757  -27.6570   19.5007 C   0  0  0  0  0  0
  -23.6365  -29.8031   20.1616 C   0  0  0  0  0  0
  -25.4129  -36.3078   24.0332 C   0  0  1  0  0  0
  -20.5873  -28.3675   23.1288 C   0  0  2  0  0  0
  -20.6791  -26.9399   22.5424 C   0  0  0  0  0  0
  -19.5785  -26.6369   21.5220 C   0  0  0  0  0  0
  -18.1949  -26.7922   22.1603 C   0  0  0  0  0  0
  -19.1532  -28.8844   23.2873 C   0  0  0  0  0  0
  -18.9460  -30.1442   23.8904 C   0  0  0  0  0  0
  -17.6465  -30.6584   24.0572 C   0  0  0  0  0  0
  -25.9055  -34.9460   23.5095 C   0  0  0  0  0  0
  -16.5348  -29.9091   23.6331 C   0  0  0  0  0  0
  -16.7276  -28.6513   23.0333 C   0  0  0  0  0  0
  -26.4458  -31.6589   25.0700 C   0  0  0  0  0  0
  -25.3677  -31.3740   26.1411 C   0  0  0  0  0  0
  -27.0335  -30.3035   24.6154 C   0  0  0  0  0  0
  -27.6016  -32.4333   25.7448 C   0  0  0  0  0  0
  -27.5588  -37.1770   24.8467 C   0  0  0  0  0  0
  -21.4179  -29.3033   22.3687 N   0  0  0  0  0  0
  -26.4305  -37.3782   23.9409 N   0  0  0  0  0  0
  -24.6878  -31.0575   22.0954 N   0  0  0  0  0  0
  -23.4172  -28.8196   23.3085 O   0  0  0  0  0  0
  -28.3711  -26.4907   20.1107 O   0  0  0  0  0  0
  -26.5657  -34.8934   22.4679 O   0  0  0  0  0  0
  -23.5393  -32.1357   23.7283 O   0  0  0  0  0  0
  -28.6064  -19.1221   20.8520 C   0  0  0  0  0  0
  -29.5608  -19.8846   20.1266 C   0  0  0  0  0  0
  -30.6715  -19.0857   19.7238 C   0  0  0  0  0  0
  -29.7987  -17.1199   20.6289 C   0  0  0  0  0  0
  -30.1367  -22.6215   21.7081 C   0  0  0  0  0  0
  -31.8493  -19.6986   18.9869 C   0  0  0  0  0  0
  -30.8291  -21.3231   25.3366 C   0  0  0  0  0  0
  -30.1981  -23.6955   24.7155 C   0  0  0  0  0  0
  -27.2155  -24.9144   21.7305 C   0  0  0  0  0  0
  -29.9912  -21.8128   23.0013 C   0  0  0  0  0  0
  -28.7471  -23.8339   19.9065 C   0  0  0  0  0  0
  -29.0386  -22.4226   20.6478 C   0  0  1  0  0  0
  -30.7802  -22.3643   24.2081 C   0  0  0  0  0  0
  -28.3985  -25.1517   20.7713 C   0  0  1  0  0  0
  -28.7296  -17.7801   21.0870 N   0  0  0  0  0  0
  -30.7747  -17.7472   19.9674 N   0  0  0  0  0  0
  -29.4357  -21.2794   19.7538 N   0  0  0  0  0  0
  -29.8111  -15.7231   20.8551 N   0  0  0  0  0  0
  -31.1417  -23.3082   21.5009 O   0  0  0  0  0  0
  -31.4762  -12.5250   19.1657 H   0  0  0  0  0  0
  -30.3749  -11.4131   19.9212 H   0  0  0  0  0  0
  -29.7782  -11.7469   17.4964 H   0  0  0  0  0  0
  -29.6449  -13.4713   17.7508 H   0  0  0  0  0  0
  -27.8675  -11.2884   18.8827 H   0  0  0  0  0  0
  -27.3775  -12.5621   17.7966 H   0  0  0  0  0  0
  -27.6593  -14.2533   19.5076 H   0  0  0  0  0  0
  -28.7020  -12.0770   21.3898 H   0  0  0  0  0  0
  -28.4290  -13.7347   21.8367 H   0  0  0  0  0  0
  -25.2785   -9.5675   22.4757 H   0  0  0  0  0  0
  -24.0008   -7.4630   22.7484 H   0  0  0  0  0  0
  -21.0854   -8.8772   19.8939 H   0  0  0  0  0  0
  -22.3731  -10.9668   19.6151 H   0  0  0  0  0  0
  -21.2004   -7.6149   23.9725 H   0  0  0  0  0  0
  -21.1473   -6.0520   25.9082 H   0  0  0  0  0  0
  -22.0601   -2.7607   23.2842 H   0  0  0  0  0  0
  -22.4068  -11.9835   22.4762 H   0  0  0  0  0  0
  -21.1098  -13.1227   22.2689 H   0  0  0  0  0  0
  -24.6593  -15.8517   20.5168 H   0  0  0  0  0  0
  -26.2801  -15.6358   20.1002 H   0  0  0  0  0  0
  -26.7143  -32.5443   23.1063 H   0  0  0  0  0  0
  -24.9966  -33.9718   25.0344 H   0  0  0  0  0  0
  -22.7165  -31.2997   21.3905 H   0  0  0  0  0  0
  -23.3796  -35.9576   23.3306 H   0  0  0  0  0  0
  -24.3616  -36.8914   22.2083 H   0  0  0  0  0  0
  -23.7218  -37.6453   23.6687 H   0  0  0  0  0  0
  -26.0978  -31.5493   20.6092 H   0  0  0  0  0  0
  -26.8423  -30.8277   22.0049 H   0  0  0  0  0  0
  -28.1235  -28.9920   21.1678 H   0  0  0  0  0  0
  -26.0311  -25.9035   19.0202 H   0  0  0  0  0  0
  -23.9795  -27.2720   19.0338 H   0  0  0  0  0  0
  -23.7600  -30.5764   19.4021 H   0  0  0  0  0  0
  -22.7568  -29.2329   19.8544 H   0  0  0  0  0  0
  -25.1324  -36.1916   25.0824 H   0  0  0  0  0  0
  -20.9935  -28.3249   24.1421 H   0  0  0  0  0  0
  -20.5720  -26.2293   23.3632 H   0  0  0  0  0  0
  -21.6661  -26.7469   22.1195 H   0  0  0  0  0  0
  -19.6998  -25.6293   21.1241 H   0  0  0  0  0  0
  -19.6743  -27.3202   20.6768 H   0  0  0  0  0  0
  -17.4229  -26.6650   21.4002 H   0  0  0  0  0  0
  -18.0328  -26.0076   22.8994 H   0  0  0  0  0  0
  -19.7961  -30.7231   24.2278 H   0  0  0  0  0  0
  -17.5042  -31.6276   24.5159 H   0  0  0  0  0  0
  -15.5367  -30.3002   23.7686 H   0  0  0  0  0  0
  -15.8654  -28.0861   22.7036 H   0  0  0  0  0  0
  -24.5862  -30.7081   25.7721 H   0  0  0  0  0  0
  -24.8854  -32.2927   26.4771 H   0  0  0  0  0  0
  -25.7961  -30.8951   27.0228 H   0  0  0  0  0  0
  -26.2921  -29.6768   24.1182 H   0  0  0  0  0  0
  -27.4100  -29.7290   25.4630 H   0  0  0  0  0  0
  -27.8744  -30.4395   23.9351 H   0  0  0  0  0  0
  -27.2631  -33.3673   26.1948 H   0  0  0  0  0  0
  -28.3835  -32.6806   25.0254 H   0  0  0  0  0  0
  -28.0657  -31.8508   26.5420 H   0  0  0  0  0  0
  -28.2566  -38.0102   24.7534 H   0  0  0  0  0  0
  -28.1112  -36.2621   24.6248 H   0  0  0  0  0  0
  -27.2299  -37.1348   25.8870 H   0  0  0  0  0  0
  -20.9359  -29.8683   21.6831 H   0  0  0  0  0  0
  -26.0191  -38.2863   24.1416 H   0  0  0  0  0  0
  -27.7023  -19.5846   21.2203 H   0  0  0  0  0  0
  -32.1962  -20.5927   19.5051 H   0  0  0  0  0  0
  -31.5706  -19.9686   17.9690 H   0  0  0  0  0  0
  -32.6887  -19.0051   18.9331 H   0  0  0  0  0  0
  -31.4045  -21.6915   26.1866 H   0  0  0  0  0  0
  -31.3000  -20.3986   24.9985 H   0  0  0  0  0  0
  -29.8297  -21.0731   25.6943 H   0  0  0  0  0  0
  -30.7378  -24.0557   25.5917 H   0  0  0  0  0  0
  -29.1491  -23.5856   24.9935 H   0  0  0  0  0  0
  -30.2576  -24.4764   23.9543 H   0  0  0  0  0  0
  -27.3972  -24.0496   22.3677 H   0  0  0  0  0  0
  -26.2846  -24.7327   21.1949 H   0  0  0  0  0  0
  -27.0668  -25.7679   22.3924 H   0  0  0  0  0  0
  -30.3253  -20.7997   22.7748 H   0  0  0  0  0  0
  -28.9328  -21.7360   23.2535 H   0  0  0  0  0  0
  -27.9367  -23.6786   19.1960 H   0  0  0  0  0  0
  -29.6195  -24.0709   19.2948 H   0  0  0  0  0  0
  -28.1163  -22.1338   21.1544 H   0  0  0  0  0  0
  -31.8117  -22.5437   23.8978 H   0  0  0  0  0  0
  -29.2568  -25.2798   21.4317 H   0  0  0  0  0  0
  -30.1290  -21.5736   19.0713 H   0  0  0  0  0  0
  -28.9554  -15.4052   21.2755 H   0  0  0  0  0  0
  1 25  1  0  0  0
  1 30  2  0  0  0
  1 88  1  0  0  0
  2  3  1  0  0  0
  2 25  1  0  0  0
  2 90  1  0  0  0
  2 91  1  0  0  0
  3  4  1  0  0  0
  3 92  1  0  0  0
  3 93  1  0  0  0
  4  5  1  0  0  0
  4 94  1  0  0  0
  4 95  1  0  0  0
  5  6  1  0  0  0
  5 26  1  0  0  0
  5 96  1  0  0  0
  6 25  1  0  0  0
  6 97  1  0  0  0
  6 98  1  0  0  0
  7  8  2  0  0  0
  7 26  1  0  0  0
  7 29  1  0  0  0
  8  9  1  0  0  0
  8 22  1  0  0  0
  9 10  1  0  0  0
  9 27  2  0  0  0
 10 11  2  0  0  0
 10 15  1  0  0  0
 11 12  1  0  0  0
 11 99  1  0  0  0
 12 13  2  0  0  0
 12100  1  0  0  0
 13 14  1  0  0  0
 13 31  1  0  0  0
 14 15  2  0  0  0
 14101  1  0  0  0
 15102  1  0  0  0
 16 17  2  0  0  0
 16 21  1  0  0  0
 16 31  1  0  0  0
 17 18  1  0  0  0
 17103  1  0  0  0
 18 19  2  0  0  0
 18104  1  0  0  0
 19 20  1  0  0  0
 19 24  1  0  0  0
 20 21  2  0  0  0
 20105  1  0  0  0
 21 23  1  0  0  0
 22 28  1  0  0  0
 22 32  2  0  0  0
 26 27  1  0  0  0
 28106  1  0  0  0
 28107  1  0  0  0
 29108  1  0  0  0
 29109  1  0  0  0
 33 34  1  0  0  0
 33 66  1  0  0  0
 33 70  2  0  0  0
 34 36  1  0  0  0
 34 59  1  0  0  0
 34110  1  0  0  0
 35 44  2  0  0  0
 35 45  1  0  0  0
 35 68  1  0  0  0
 36 56  1  0  0  0
 36111  1  0  0  0
 37 39  1  0  0  0
 37 47  1  0  0  0
 37 66  1  0  0  0
 37112  1  0  0  0
 38 43  2  0  0  0
 38 46  1  0  0  0
 38 47  1  0  0  0
 39 64  1  0  0  0
 39 67  2  0  0  0
 40 52  1  0  0  0
 40 53  2  0  0  0
 40 58  1  0  0  0
 41113  1  0  0  0
 41114  1  0  0  0
 41115  1  0  0  0
 41 48  1  0  0  0
 42 43  1  0  0  0
 42 66  1  0  0  0
 42116  1  0  0  0
 42117  1  0  0  0
 43 44  1  0  0  0
 44118  1  0  0  0
 45 46  2  0  0  0
 45119  1  0  0  0
 46120  1  0  0  0
 47121  1  0  0  0
 47122  1  0  0  0
 48 56  1  0  0  0
 48 65  1  0  0  0
 48123  1  0  0  0
 49 50  1  0  0  0
 49 53  1  0  0  0
 49 64  1  0  0  0
 49124  1  0  0  0
 50 51  1  0  0  0
 50125  1  0  0  0
 50126  1  0  0  0
 51 52  1  0  0  0
 51127  1  0  0  0
 51128  1  0  0  0
 52129  1  0  0  0
 52130  1  0  0  0
 53 54  1  0  0  0
 54 55  2  0  0  0
 54131  1  0  0  0
 55 57  1  0  0  0
 55132  1  0  0  0
 56 69  2  0  0  0
 57 58  2  0  0  0
 57133  1  0  0  0
 58134  1  0  0  0
 59 60  1  0  0  0
 59 61  1  0  0  0
 59 62  1  0  0  0
 60135  1  0  0  0
 60136  1  0  0  0
 60137  1  0  0  0
 61138  1  0  0  0
 61139  1  0  0  0
 61140  1  0  0  0
 62141  1  0  0  0
 62142  1  0  0  0
 62143  1  0  0  0
 63 65  1  0  0  0
 63144  1  0  0  0
 63145  1  0  0  0
 63146  1  0  0  0
 64147  1  0  0  0
 65148  1  0  0  0
 68 84  1  0  0  0
 71 72  2  0  0  0
 71 85  1  0  0  0
 71149  1  0  0  0
 72 73  1  0  0  0
 72 87  1  0  0  0
 73 76  1  0  0  0
 73 86  2  0  0  0
 74 85  2  0  0  0
 74 86  1  0  0  0
 74 88  1  0  0  0
 75 80  1  0  0  0
 75 82  1  0  0  0
 75 89  2  0  0  0
 76150  1  0  0  0
 76151  1  0  0  0
 76152  1  0  0  0
 77153  1  0  0  0
 77154  1  0  0  0
 77155  1  0  0  0
 77 83  1  0  0  0
 78 83  1  0  0  0
 78156  1  0  0  0
 78157  1  0  0  0
 78158  1  0  0  0
 79159  1  0  0  0
 79160  1  0  0  0
 79161  1  0  0  0
 79 84  1  0  0  0
 80 83  1  0  0  0
 80162  1  0  0  0
 80163  1  0  0  0
 81 84  1  0  0  0
 81164  1  0  0  0
 81165  1  0  0  0
 81 82  1  0  0  0
 82 87  1  0  0  0
 82166  1  0  0  0
 83167  1  0  0  0
 84168  1  0  0  0
 87169  1  0  0  0
 88170  1  0  0  0
M  ISO  4   1 100  68 101  84 101  88 100
M  END
> <chiral flag>
0

> <version>
0

> <s_m_source_file>
/data/baiqing/PycharmProjects/Reinvent-master-3.2/result/LINK_invent/BTK/process_docking_weight1_custom_product_contain_oxygen_bond_distance_aromatic_linkinvent_7_9_3/rearranged_h_0193.sdf

> <i_m_source_file_index>
59

> <r_mmod_Potential_Energy-OPLS-2005>
-185.340942382812

> <r_mmod_Stretch_Energy-OPLS-2005>
91.7532577514648

> <r_mmod_Bend_Energy-OPLS-2005>
178.20166015625

> <r_mmod_Torsional_Energy-OPLS-2005>
222.276000976562

> <r_mmod_Improper_Torsional_Energy-OPLS-2005>
7.34110736846924

> <r_mmod_Van_der_Waal_Energy-OPLS-2005>
136.692626953125

> <r_mmod_Electrostatic_Energy-OPLS-2005>
-633.777709960938

> <r_mmod_Solvation_Energy-OPLS-2005>
-239.089813232422

> <b_mmod_Minimization_Converged-OPLS-2005>
0

> <r_mmod_RMS_Derivative-OPLS-2005>
3.39971160888672

$$$$
59
                    3D
 Structure written by MMmdl.
156164  0  0  1  0            999 V2000
  -30.6942  -14.5053   20.5539 C   0  0  0  0  0  0
  -30.4234  -12.3194   19.4372 C   0  0  0  0  0  0
  -29.5016  -12.5101   18.2151 C   0  0  0  0  0  0
  -28.0221  -12.3644   18.6209 C   0  0  0  0  0  0
  -27.6609  -13.2094   19.8720 C   0  0  2  0  0  0
  -28.7006  -13.0093   20.9980 C   0  0  0  0  0  0
  -25.2604  -13.8170   20.5712 C   0  0  0  0  0  0
  -24.1850  -13.0444   20.9184 C   0  0  0  0  0  0
  -24.6387  -11.6910   20.8703 C   0  0  0  0  0  0
  -23.9049  -10.4299   21.0376 C   0  0  0  0  0  0
  -24.3605   -9.4223   21.9156 C   0  0  0  0  0  0
  -23.6286   -8.2259   22.0745 C   0  0  0  0  0  0
  -22.4268   -8.0283   21.3542 C   0  0  0  0  0  0
  -21.9892   -9.0253   20.4643 C   0  0  0  0  0  0
  -22.7219  -10.2131   20.3035 C   0  0  0  0  0  0
  -21.6851   -6.0726   22.5274 C   0  0  0  0  0  0
  -21.4027   -6.5633   23.8206 C   0  0  0  0  0  0
  -21.3664   -5.6783   24.9166 C   0  0  0  0  0  0
  -21.6046   -4.3044   24.7217 C   0  0  0  0  0  0
  -21.8826   -3.8137   23.4338 C   0  0  0  0  0  0
  -21.9204   -4.6957   22.3392 C   0  0  0  0  0  0
  -22.7870  -13.5262   21.1852 C   0  0  0  0  0  0
  -22.1670   -4.2144   21.0971 F   0  0  0  0  0  0
  -21.5624   -3.4524   25.7728 F   0  0  0  0  0  0
  -30.0324  -13.3164   20.4485 N   0  0  0  0  0  0
  -26.3025  -12.9336   20.3324 N   0  0  0  0  0  0
  -25.9309  -11.6490   20.5718 N   0  0  0  0  0  0
  -22.0494  -12.8262   22.0399 N   0  0  0  0  0  0
  -25.4371  -15.1901   20.4247 N   0  0  0  0  0  0
  -31.8317  -14.6501   20.0960 O   0  0  0  0  0  0
  -21.6640   -6.8867   21.4236 O   0  0  0  0  0  0
  -22.3569  -14.5558   20.6685 O   0  0  0  0  0  0
  -24.6175  -31.8674   23.2084 C   0  0  0  0  0  0
  -25.9060  -32.4814   23.8389 C   0  0  1  0  0  0
  -27.2363  -27.4222   20.1097 C   0  0  0  0  0  0
  -25.5910  -33.8613   24.2331 N   0  0  0  0  0  0
  -23.4081  -30.4899   21.5481 C   0  0  2  0  0  0
  -24.8589  -28.9566   20.1088 C   0  0  0  0  0  0
  -22.7439  -29.4650   22.4962 C   0  0  0  0  0  0
  -18.0281  -28.1344   22.8475 C   0  0  0  0  0  0
  -24.1493  -36.7304   23.2639 C   0  0  0  0  0  0
  -25.9372  -30.8308   21.3638 C   0  0  0  0  0  0
  -26.0192  -29.4650   20.7092 C   0  0  0  0  0  0
  -27.2143  -28.7054   20.7076 C   0  0  0  0  0  0
  -26.0646  -26.9358   19.4932 C   0  0  0  0  0  0
  -24.8778  -27.6915   19.4952 C   0  0  0  0  0  0
  -23.6189  -29.8234   20.1615 C   0  0  0  0  0  0
  -25.4109  -36.3114   24.0343 C   0  0  1  0  0  0
  -20.5865  -28.3682   23.1269 C   0  0  2  0  0  0
  -20.6790  -26.9408   22.5391 C   0  0  0  0  0  0
  -19.5756  -26.6307   21.5214 C   0  0  0  0  0  0
  -18.1931  -26.7878   22.1621 C   0  0  0  0  0  0
  -19.1525  -28.8829   23.2863 C   0  0  0  0  0  0
  -18.9442  -30.1430   23.8866 C   0  0  0  0  0  0
  -17.6439  -30.6570   24.0525 C   0  0  0  0  0  0
  -25.9031  -34.9474   23.5129 C   0  0  0  0  0  0
  -16.5338  -29.9057   23.6284 C   0  0  0  0  0  0
  -16.7272  -28.6462   23.0337 C   0  0  0  0  0  0
  -26.4481  -31.6600   25.0722 C   0  0  0  0  0  0
  -25.3730  -31.3709   26.1464 C   0  0  0  0  0  0
  -27.0304  -30.3048   24.6085 C   0  0  0  0  0  0
  -27.6066  -32.4322   25.7483 C   0  0  0  0  0  0
  -27.5587  -37.1808   24.8470 C   0  0  0  0  0  0
  -21.4160  -29.3060   22.3695 N   0  0  0  0  0  0
  -26.4303  -37.3798   23.9415 N   0  0  0  0  0  0
  -24.6720  -31.0759   22.0991 N   0  0  0  0  0  0
  -23.4178  -28.8174   23.3010 O   0  0  0  0  0  0
  -28.3429  -26.6021   20.1765 O   0  0  0  0  0  0
  -26.5598  -34.8926   22.4697 O   0  0  0  0  0  0
  -23.5363  -32.1429   23.7474 O   0  0  0  0  0  0
  -28.0754  -19.7268   20.4210 C   0  0  0  0  0  0
  -28.0091  -21.1042   20.1279 C   0  0  0  0  0  0
  -30.1467  -20.1623   21.5632 C   0  0  0  0  0  0
  -29.1504  -19.2365   21.1869 C   0  0  0  0  0  0
  -29.0086  -21.9688   20.6052 C   0  0  0  0  0  0
  -30.2413  -16.8548   21.0767 C   0  0  0  0  0  0
  -29.3822  -24.0226   22.7626 C   0  0  0  0  0  0
  -29.1600  -17.7758   21.6818 C   0  0  0  0  0  0
  -28.1902  -25.6147   21.2178 C   0  0  0  0  0  0
  -29.2429  -24.4581   21.2831 C   0  0  2  0  0  0
  -30.0809  -21.4886   21.2745 N   0  0  0  0  0  0
  -28.8732  -23.3554   20.3674 N   0  0  0  0  0  0
  -29.9586  -15.5278   21.0528 N   0  0  0  0  0  0
  -31.2861  -17.3635   20.6553 O   0  0  0  0  0  0
  -31.4692  -12.4067   19.1390 H   0  0  0  0  0  0
  -30.3178  -11.3118   19.8424 H   0  0  0  0  0  0
  -29.7485  -11.7827   17.4413 H   0  0  0  0  0  0
  -29.6685  -13.4950   17.7761 H   0  0  0  0  0  0
  -27.8376  -11.3086   18.8213 H   0  0  0  0  0  0
  -27.3762  -12.6322   17.7836 H   0  0  0  0  0  0
  -27.6986  -14.2548   19.5646 H   0  0  0  0  0  0
  -28.6802  -11.9780   21.3554 H   0  0  0  0  0  0
  -28.4546  -13.6211   21.8672 H   0  0  0  0  0  0
  -25.2742   -9.5714   22.4733 H   0  0  0  0  0  0
  -23.9995   -7.4649   22.7464 H   0  0  0  0  0  0
  -21.0819   -8.8779   19.8935 H   0  0  0  0  0  0
  -22.3674  -10.9675   19.6148 H   0  0  0  0  0  0
  -21.2023   -7.6142   23.9715 H   0  0  0  0  0  0
  -21.1474   -6.0505   25.9072 H   0  0  0  0  0  0
  -22.0597   -2.7601   23.2839 H   0  0  0  0  0  0
  -22.4092  -11.9907   22.4779 H   0  0  0  0  0  0
  -21.1108  -13.1284   22.2583 H   0  0  0  0  0  0
  -24.6755  -15.8477   20.5523 H   0  0  0  0  0  0
  -26.2889  -15.6285   20.0996 H   0  0  0  0  0  0
  -26.7127  -32.5538   23.1149 H   0  0  0  0  0  0
  -25.0092  -33.9779   25.0496 H   0  0  0  0  0  0
  -22.6984  -31.3085   21.4081 H   0  0  0  0  0  0
  -23.3756  -35.9640   23.3317 H   0  0  0  0  0  0
  -24.3588  -36.8897   22.2055 H   0  0  0  0  0  0
  -23.7246  -37.6507   23.6637 H   0  0  0  0  0  0
  -26.0525  -31.5986   20.5965 H   0  0  0  0  0  0
  -26.8227  -30.8835   21.9866 H   0  0  0  0  0  0
  -28.1049  -29.0830   21.1912 H   0  0  0  0  0  0
  -26.0651  -25.9557   19.0374 H   0  0  0  0  0  0
  -23.9868  -27.2945   19.0297 H   0  0  0  0  0  0
  -23.7256  -30.5984   19.4014 H   0  0  0  0  0  0
  -22.7423  -29.2431   19.8670 H   0  0  0  0  0  0
  -25.1287  -36.1984   25.0835 H   0  0  0  0  0  0
  -20.9948  -28.3258   24.1388 H   0  0  0  0  0  0
  -20.5725  -26.2317   23.3607 H   0  0  0  0  0  0
  -21.6652  -26.7475   22.1158 H   0  0  0  0  0  0
  -19.6901  -25.6177   21.1345 H   0  0  0  0  0  0
  -19.6675  -27.3050   20.6686 H   0  0  0  0  0  0
  -17.4202  -26.6585   21.4025 H   0  0  0  0  0  0
  -18.0342  -26.0044   22.9041 H   0  0  0  0  0  0
  -19.7930  -30.7251   24.2206 H   0  0  0  0  0  0
  -17.4994  -31.6260   24.5109 H   0  0  0  0  0  0
  -15.5329  -30.2963   23.7573 H   0  0  0  0  0  0
  -15.8674  -28.0782   22.7047 H   0  0  0  0  0  0
  -24.5899  -30.7069   25.7781 H   0  0  0  0  0  0
  -24.8924  -32.2864   26.4938 H   0  0  0  0  0  0
  -25.8072  -30.8856   27.0220 H   0  0  0  0  0  0
  -26.2835  -29.6830   24.1135 H   0  0  0  0  0  0
  -27.4069  -29.7276   25.4540 H   0  0  0  0  0  0
  -27.8680  -30.4365   23.9226 H   0  0  0  0  0  0
  -27.2680  -33.3613   26.2097 H   0  0  0  0  0  0
  -28.3845  -32.6913   25.0279 H   0  0  0  0  0  0
  -28.0765  -31.8427   26.5369 H   0  0  0  0  0  0
  -28.2606  -38.0106   24.7512 H   0  0  0  0  0  0
  -28.1076  -36.2633   24.6292 H   0  0  0  0  0  0
  -27.2302  -37.1456   25.8873 H   0  0  0  0  0  0
  -20.9340  -29.8830   21.6948 H   0  0  0  0  0  0
  -26.0189  -38.2881   24.1409 H   0  0  0  0  0  0
  -27.2786  -19.0704   20.1006 H   0  0  0  0  0  0
  -27.1622  -21.4849   19.5717 H   0  0  0  0  0  0
  -30.9945  -19.8473   22.1558 H   0  0  0  0  0  0
  -29.5246  -24.8806   23.4207 H   0  0  0  0  0  0
  -30.2502  -23.3867   22.9296 H   0  0  0  0  0  0
  -28.4983  -23.4908   23.1151 H   0  0  0  0  0  0
  -28.1793  -17.3332   21.5016 H   0  0  0  0  0  0
  -29.2928  -17.7806   22.7650 H   0  0  0  0  0  0
  -27.1901  -25.1744   21.2101 H   0  0  0  0  0  0
  -28.2365  -26.1855   22.1487 H   0  0  0  0  0  0
  -30.2084  -24.8534   20.9653 H   0  0  0  0  0  0
  -28.1402  -23.6079   19.7130 H   0  0  0  0  0  0
  -29.0566  -15.2702   21.4154 H   0  0  0  0  0  0
  1 25  1  0  0  0
  1 30  2  0  0  0
  1 83  1  0  0  0
  2  3  1  0  0  0
  2 25  1  0  0  0
  2 85  1  0  0  0
  2 86  1  0  0  0
  3  4  1  0  0  0
  3 87  1  0  0  0
  3 88  1  0  0  0
  4  5  1  0  0  0
  4 89  1  0  0  0
  4 90  1  0  0  0
  5  6  1  0  0  0
  5 26  1  0  0  0
  5 91  1  0  0  0
  6 25  1  0  0  0
  6 92  1  0  0  0
  6 93  1  0  0  0
  7  8  2  0  0  0
  7 26  1  0  0  0
  7 29  1  0  0  0
  8  9  1  0  0  0
  8 22  1  0  0  0
  9 10  1  0  0  0
  9 27  2  0  0  0
 10 11  2  0  0  0
 10 15  1  0  0  0
 11 12  1  0  0  0
 11 94  1  0  0  0
 12 13  2  0  0  0
 12 95  1  0  0  0
 13 14  1  0  0  0
 13 31  1  0  0  0
 14 15  2  0  0  0
 14 96  1  0  0  0
 15 97  1  0  0  0
 16 17  2  0  0  0
 16 21  1  0  0  0
 16 31  1  0  0  0
 17 18  1  0  0  0
 17 98  1  0  0  0
 18 19  2  0  0  0
 18 99  1  0  0  0
 19 20  1  0  0  0
 19 24  1  0  0  0
 20 21  2  0  0  0
 20100  1  0  0  0
 21 23  1  0  0  0
 22 28  1  0  0  0
 22 32  2  0  0  0
 26 27  1  0  0  0
 28101  1  0  0  0
 28102  1  0  0  0
 29103  1  0  0  0
 29104  1  0  0  0
 33 34  1  0  0  0
 33 66  1  0  0  0
 33 70  2  0  0  0
 34 36  1  0  0  0
 34 59  1  0  0  0
 34105  1  0  0  0
 35 44  2  0  0  0
 35 45  1  0  0  0
 35 68  1  0  0  0
 36 56  1  0  0  0
 36106  1  0  0  0
 37 39  1  0  0  0
 37 47  1  0  0  0
 37 66  1  0  0  0
 37107  1  0  0  0
 38 43  2  0  0  0
 38 46  1  0  0  0
 38 47  1  0  0  0
 39 64  1  0  0  0
 39 67  2  0  0  0
 40 52  1  0  0  0
 40 53  2  0  0  0
 40 58  1  0  0  0
 41108  1  0  0  0
 41109  1  0  0  0
 41110  1  0  0  0
 41 48  1  0  0  0
 42 43  1  0  0  0
 42 66  1  0  0  0
 42111  1  0  0  0
 42112  1  0  0  0
 43 44  1  0  0  0
 44113  1  0  0  0
 45 46  2  0  0  0
 45114  1  0  0  0
 46115  1  0  0  0
 47116  1  0  0  0
 47117  1  0  0  0
 48 56  1  0  0  0
 48 65  1  0  0  0
 48118  1  0  0  0
 49 50  1  0  0  0
 49 53  1  0  0  0
 49 64  1  0  0  0
 49119  1  0  0  0
 50 51  1  0  0  0
 50120  1  0  0  0
 50121  1  0  0  0
 51 52  1  0  0  0
 51122  1  0  0  0
 51123  1  0  0  0
 52124  1  0  0  0
 52125  1  0  0  0
 53 54  1  0  0  0
 54 55  2  0  0  0
 54126  1  0  0  0
 55 57  1  0  0  0
 55127  1  0  0  0
 56 69  2  0  0  0
 57 58  2  0  0  0
 57128  1  0  0  0
 58129  1  0  0  0
 59 60  1  0  0  0
 59 61  1  0  0  0
 59 62  1  0  0  0
 60130  1  0  0  0
 60131  1  0  0  0
 60132  1  0  0  0
 61133  1  0  0  0
 61134  1  0  0  0
 61135  1  0  0  0
 62136  1  0  0  0
 62137  1  0  0  0
 62138  1  0  0  0
 63 65  1  0  0  0
 63139  1  0  0  0
 63140  1  0  0  0
 63141  1  0  0  0
 64142  1  0  0  0
 65143  1  0  0  0
 68 79  1  0  0  0
 71 72  2  0  0  0
 71 74  1  0  0  0
 71144  1  0  0  0
 72 75  1  0  0  0
 72145  1  0  0  0
 73 74  2  0  0  0
 73 81  1  0  0  0
 73146  1  0  0  0
 74 78  1  0  0  0
 75 81  2  0  0  0
 75 82  1  0  0  0
 76 78  1  0  0  0
 76 83  1  0  0  0
 76 84  2  0  0  0
 77147  1  0  0  0
 77148  1  0  0  0
 77149  1  0  0  0
 77 80  1  0  0  0
 78150  1  0  0  0
 78151  1  0  0  0
 79 80  1  0  0  0
 79152  1  0  0  0
 79153  1  0  0  0
 80 82  1  0  0  0
 80154  1  0  0  0
 82155  1  0  0  0
 83156  1  0  0  0
M  ISO  4   1 100  68 101  79 101  83 100
M  END
> <chiral flag>
0

> <version>
0

> <s_m_source_file>
/data/baiqing/PycharmProjects/Reinvent-master-3.2/result/LINK_invent/BTK/process_docking_weight1_custom_product_contain_oxygen_bond_distance_aromatic_linkinvent_7_9_3/rearranged_h_0193.sdf

> <i_m_source_file_index>
60

> <r_mmod_Potential_Energy-OPLS-2005>
-358.762878417969

> <r_mmod_Stretch_Energy-OPLS-2005>
42.1528472900391

> <r_mmod_Bend_Energy-OPLS-2005>
121.660636901855

> <r_mmod_Torsional_Energy-OPLS-2005>
235.376602172852

> <r_mmod_Improper_Torsional_Energy-OPLS-2005>
5.46222925186157

> <r_mmod_Van_der_Waal_Energy-OPLS-2005>
161.340972900391

> <r_mmod_Electrostatic_Energy-OPLS-2005>
-681.484436035156

> <r_mmod_Solvation_Energy-OPLS-2005>
-262.378112792969

> <b_mmod_Minimization_Converged-OPLS-2005>
0

> <r_mmod_RMS_Derivative-OPLS-2005>
2.48112225532532

$$$$
60
                    3D
 Structure written by MMmdl.
164172  0  0  1  0            999 V2000
  -30.6452  -14.5778   20.4941 C   0  0  0  0  0  0
  -30.4270  -12.3488   19.4531 C   0  0  0  0  0  0
  -29.5064  -12.4936   18.2210 C   0  0  0  0  0  0
  -28.0238  -12.3602   18.6235 C   0  0  0  0  0  0
  -27.6550  -13.2159   19.8654 C   0  0  2  0  0  0
  -28.6961  -13.0538   20.9970 C   0  0  0  0  0  0
  -25.2588  -13.8173   20.5685 C   0  0  0  0  0  0
  -24.1847  -13.0448   20.9174 C   0  0  0  0  0  0
  -24.6401  -11.6910   20.8714 C   0  0  0  0  0  0
  -23.9060  -10.4300   21.0388 C   0  0  0  0  0  0
  -24.3612   -9.4222   21.9175 C   0  0  0  0  0  0
  -23.6287   -8.2260   22.0754 C   0  0  0  0  0  0
  -22.4272   -8.0279   21.3543 C   0  0  0  0  0  0
  -21.9900   -9.0252   20.4648 C   0  0  0  0  0  0
  -22.7225  -10.2133   20.3052 C   0  0  0  0  0  0
  -21.6866   -6.0731   22.5275 C   0  0  0  0  0  0
  -21.4018   -6.5636   23.8204 C   0  0  0  0  0  0
  -21.3660   -5.6789   24.9170 C   0  0  0  0  0  0
  -21.6048   -4.3051   24.7227 C   0  0  0  0  0  0
  -21.8825   -3.8144   23.4348 C   0  0  0  0  0  0
  -21.9202   -4.6961   22.3399 C   0  0  0  0  0  0
  -22.7877  -13.5243   21.1826 C   0  0  0  0  0  0
  -22.1674   -4.2148   21.0977 F   0  0  0  0  0  0
  -21.5623   -3.4531   25.7739 F   0  0  0  0  0  0
  -30.0192  -13.3660   20.4408 N   0  0  0  0  0  0
  -26.3003  -12.9346   20.3320 N   0  0  0  0  0  0
  -25.9331  -11.6499   20.5743 N   0  0  0  0  0  0
  -22.0511  -12.8243   22.0376 N   0  0  0  0  0  0
  -25.4344  -15.1893   20.4099 N   0  0  0  0  0  0
  -31.7983  -14.7360   20.0821 O   0  0  0  0  0  0
  -21.6648   -6.8869   21.4231 O   0  0  0  0  0  0
  -22.3572  -14.5554   20.6669 O   0  0  0  0  0  0
  -24.6208  -31.8612   23.2043 C   0  0  0  0  0  0
  -25.9082  -32.4784   23.8360 C   0  0  1  0  0  0
  -27.2445  -27.3792   20.0944 C   0  0  0  0  0  0
  -25.5919  -33.8583   24.2295 N   0  0  0  0  0  0
  -23.4119  -30.4835   21.5459 C   0  0  2  0  0  0
  -24.8572  -28.9377   20.1106 C   0  0  0  0  0  0
  -22.7444  -29.4619   22.4949 C   0  0  0  0  0  0
  -18.0280  -28.1380   22.8490 C   0  0  0  0  0  0
  -24.1490  -36.7302   23.2644 C   0  0  0  0  0  0
  -25.9461  -30.8091   21.3645 C   0  0  0  0  0  0
  -26.0199  -29.4418   20.7037 C   0  0  0  0  0  0
  -27.2088  -28.6710   20.6879 C   0  0  0  0  0  0
  -26.0488  -26.8839   19.5304 C   0  0  0  0  0  0
  -24.8697  -27.6593   19.5220 C   0  0  0  0  0  0
  -23.6229  -29.8142   20.1607 C   0  0  0  0  0  0
  -25.4120  -36.3091   24.0329 C   0  0  1  0  0  0
  -20.5875  -28.3670   23.1289 C   0  0  2  0  0  0
  -20.6771  -26.9397   22.5414 C   0  0  0  0  0  0
  -19.5748  -26.6380   21.5217 C   0  0  0  0  0  0
  -18.1921  -26.7927   22.1616 C   0  0  0  0  0  0
  -19.1531  -28.8846   23.2886 C   0  0  0  0  0  0
  -18.9456  -30.1450   23.8898 C   0  0  0  0  0  0
  -17.6458  -30.6584   24.0567 C   0  0  0  0  0  0
  -25.9054  -34.9454   23.5114 C   0  0  0  0  0  0
  -16.5348  -29.9088   23.6324 C   0  0  0  0  0  0
  -16.7266  -28.6502   23.0347 C   0  0  0  0  0  0
  -26.4495  -31.6590   25.0723 C   0  0  0  0  0  0
  -25.3752  -31.3713   26.1474 C   0  0  0  0  0  0
  -27.0349  -30.3034   24.6136 C   0  0  0  0  0  0
  -27.6042  -32.4342   25.7494 C   0  0  0  0  0  0
  -27.5583  -37.1809   24.8462 C   0  0  0  0  0  0
  -21.4159  -29.3029   22.3688 N   0  0  0  0  0  0
  -26.4300  -37.3785   23.9401 N   0  0  0  0  0  0
  -24.6782  -31.0669   22.0960 N   0  0  0  0  0  0
  -23.4193  -28.8154   23.3006 O   0  0  0  0  0  0
  -28.4336  -26.6581   20.1740 O   0  0  0  0  0  0
  -26.5613  -34.8910   22.4679 O   0  0  0  0  0  0
  -23.5389  -32.1380   23.7401 O   0  0  0  0  0  0
  -29.5354  -16.8048   18.6643 C   0  0  0  0  0  0
  -29.6892  -16.8324   20.0292 C   0  0  0  0  0  0
  -29.2678  -18.9148   19.3383 C   0  0  0  0  0  0
  -29.1224  -21.4215   19.9691 C   0  0  0  0  0  0
  -30.6421  -22.8991   18.6556 C   0  0  0  0  0  0
  -28.3610  -25.5917   17.8852 C   0  0  0  0  0  0
  -30.3699  -26.0083   19.2977 C   0  0  0  0  0  0
  -28.9900  -18.5447   16.9042 C   0  0  0  0  0  0
  -28.7506  -24.1139   20.0133 C   0  0  0  0  0  0
  -29.2088  -22.8049   19.2263 C   0  0  2  0  0  0
  -28.8940  -25.5530   19.3340 C   0  0  0  0  0  0
  -29.2638  -18.0930   18.2730 N   0  0  0  0  0  0
  -29.5015  -18.1554   20.4365 N   0  3  0  0  0  0
  -29.8794  -15.6479   20.8443 N   0  0  0  0  0  0
  -29.0671  -20.3377   19.1597 N   0  0  0  0  0  0
  -29.1314  -21.3504   21.1994 O   0  0  0  0  0  0
  -31.4723  -12.4522   19.1552 H   0  0  0  0  0  0
  -30.3378  -11.3504   19.8840 H   0  0  0  0  0  0
  -29.7557  -11.7372   17.4759 H   0  0  0  0  0  0
  -29.6779  -13.4576   17.7413 H   0  0  0  0  0  0
  -27.8288  -11.3059   18.8247 H   0  0  0  0  0  0
  -27.3831  -12.6276   17.7821 H   0  0  0  0  0  0
  -27.6763  -14.2549   19.5367 H   0  0  0  0  0  0
  -28.6908  -12.0331   21.3794 H   0  0  0  0  0  0
  -28.4508  -13.6916   21.8478 H   0  0  0  0  0  0
  -25.2754   -9.5708   22.4752 H   0  0  0  0  0  0
  -24.0003   -7.4654   22.7473 H   0  0  0  0  0  0
  -21.0834   -8.8760   19.8947 H   0  0  0  0  0  0
  -22.3670  -10.9669   19.6164 H   0  0  0  0  0  0
  -21.2005   -7.6144   23.9701 H   0  0  0  0  0  0
  -21.1476   -6.0524   25.9068 H   0  0  0  0  0  0
  -22.0603   -2.7608   23.2849 H   0  0  0  0  0  0
  -22.4105  -11.9899   22.4769 H   0  0  0  0  0  0
  -21.1126  -13.1270   22.2543 H   0  0  0  0  0  0
  -24.6683  -15.8460   20.5142 H   0  0  0  0  0  0
  -26.2854  -15.6238   20.0784 H   0  0  0  0  0  0
  -26.7143  -32.5456   23.1103 H   0  0  0  0  0  0
  -25.0101  -33.9729   25.0464 H   0  0  0  0  0  0
  -22.7044  -31.3034   21.4054 H   0  0  0  0  0  0
  -23.3743  -35.9641   23.3307 H   0  0  0  0  0  0
  -24.3578  -36.8930   22.2060 H   0  0  0  0  0  0
  -23.7252  -37.6509   23.6658 H   0  0  0  0  0  0
  -26.0731  -31.5779   20.6016 H   0  0  0  0  0  0
  -26.8297  -30.8539   21.9898 H   0  0  0  0  0  0
  -28.1072  -29.0603   21.1472 H   0  0  0  0  0  0
  -25.9958  -25.8804   19.1418 H   0  0  0  0  0  0
  -23.9691  -27.2482   19.0871 H   0  0  0  0  0  0
  -23.7388  -30.5931   19.4065 H   0  0  0  0  0  0
  -22.7437  -29.2438   19.8573 H   0  0  0  0  0  0
  -25.1309  -36.1956   25.0823 H   0  0  0  0  0  0
  -20.9973  -28.3248   24.1411 H   0  0  0  0  0  0
  -20.5686  -26.2277   23.3612 H   0  0  0  0  0  0
  -21.6631  -26.7441   22.1197 H   0  0  0  0  0  0
  -19.6901  -25.6292   21.1244 H   0  0  0  0  0  0
  -19.6685  -27.3192   20.6753 H   0  0  0  0  0  0
  -17.4199  -26.6686   21.4014 H   0  0  0  0  0  0
  -18.0299  -26.0070   22.9009 H   0  0  0  0  0  0
  -19.7933  -30.7269   24.2265 H   0  0  0  0  0  0
  -17.5011  -31.6268   24.5165 H   0  0  0  0  0  0
  -15.5345  -30.2996   23.7650 H   0  0  0  0  0  0
  -15.8664  -28.0835   22.7055 H   0  0  0  0  0  0
  -24.5883  -30.7121   25.7798 H   0  0  0  0  0  0
  -24.9007  -32.2888   26.4966 H   0  0  0  0  0  0
  -25.8106  -30.8831   27.0207 H   0  0  0  0  0  0
  -26.2921  -29.6781   24.1180 H   0  0  0  0  0  0
  -27.4113  -29.7290   25.4605 H   0  0  0  0  0  0
  -27.8744  -30.4364   23.9313 H   0  0  0  0  0  0
  -27.2626  -33.3616   26.2105 H   0  0  0  0  0  0
  -28.3828  -32.6969   25.0320 H   0  0  0  0  0  0
  -28.0745  -31.8477   26.5395 H   0  0  0  0  0  0
  -28.2598  -38.0107   24.7514 H   0  0  0  0  0  0
  -28.1089  -36.2641   24.6294 H   0  0  0  0  0  0
  -27.2296  -37.1475   25.8864 H   0  0  0  0  0  0
  -20.9323  -29.8755   21.6909 H   0  0  0  0  0  0
  -26.0182  -38.2862   24.1395 H   0  0  0  0  0  0
  -29.5715  -15.9902   17.9548 H   0  0  0  0  0  0
  -31.0556  -21.9326   18.3624 H   0  0  0  0  0  0
  -31.3317  -23.3223   19.3865 H   0  0  0  0  0  0
  -30.6692  -23.5041   17.7509 H   0  0  0  0  0  0
  -29.0196  -25.0470   17.2109 H   0  0  0  0  0  0
  -28.2946  -26.6132   17.5081 H   0  0  0  0  0  0
  -27.3856  -25.1221   17.7808 H   0  0  0  0  0  0
  -30.9869  -25.4707   18.5848 H   0  0  0  0  0  0
  -30.8390  -25.9144   20.2781 H   0  0  0  0  0  0
  -30.4480  -27.0564   19.0031 H   0  0  0  0  0  0
  -29.1121  -17.7120   16.2122 H   0  0  0  0  0  0
  -29.6817  -19.3419   16.6312 H   0  0  0  0  0  0
  -27.9628  -18.9066   16.8452 H   0  0  0  0  0  0
  -29.2715  -24.1347   20.9713 H   0  0  0  0  0  0
  -27.7000  -23.9793   20.2722 H   0  0  0  0  0  0
  -28.5301  -22.7157   18.3769 H   0  0  0  0  0  0
  -29.5365  -18.5051   21.3851 H   0  0  0  0  0  0
  -29.0923  -15.4110   21.4288 H   0  0  0  0  0  0
  -28.9854  -20.5937   18.1879 H   0  0  0  0  0  0
  1 25  1  0  0  0
  1 30  2  0  0  0
  1 84  1  0  0  0
  2  3  1  0  0  0
  2 25  1  0  0  0
  2 87  1  0  0  0
  2 88  1  0  0  0
  3  4  1  0  0  0
  3 89  1  0  0  0
  3 90  1  0  0  0
  4  5  1  0  0  0
  4 91  1  0  0  0
  4 92  1  0  0  0
  5  6  1  0  0  0
  5 26  1  0  0  0
  5 93  1  0  0  0
  6 25  1  0  0  0
  6 94  1  0  0  0
  6 95  1  0  0  0
  7  8  2  0  0  0
  7 26  1  0  0  0
  7 29  1  0  0  0
  8  9  1  0  0  0
  8 22  1  0  0  0
  9 10  1  0  0  0
  9 27  2  0  0  0
 10 11  2  0  0  0
 10 15  1  0  0  0
 11 12  1  0  0  0
 11 96  1  0  0  0
 12 13  2  0  0  0
 12 97  1  0  0  0
 13 14  1  0  0  0
 13 31  1  0  0  0
 14 15  2  0  0  0
 14 98  1  0  0  0
 15 99  1  0  0  0
 16 17  2  0  0  0
 16 21  1  0  0  0
 16 31  1  0  0  0
 17 18  1  0  0  0
 17100  1  0  0  0
 18 19  2  0  0  0
 18101  1  0  0  0
 19 20  1  0  0  0
 19 24  1  0  0  0
 20 21  2  0  0  0
 20102  1  0  0  0
 21 23  1  0  0  0
 22 28  1  0  0  0
 22 32  2  0  0  0
 26 27  1  0  0  0
 28103  1  0  0  0
 28104  1  0  0  0
 29105  1  0  0  0
 29106  1  0  0  0
 33 34  1  0  0  0
 33 66  1  0  0  0
 33 70  2  0  0  0
 34 36  1  0  0  0
 34 59  1  0  0  0
 34107  1  0  0  0
 35 44  2  0  0  0
 35 45  1  0  0  0
 35 68  1  0  0  0
 36 56  1  0  0  0
 36108  1  0  0  0
 37 39  1  0  0  0
 37 47  1  0  0  0
 37 66  1  0  0  0
 37109  1  0  0  0
 38 43  2  0  0  0
 38 46  1  0  0  0
 38 47  1  0  0  0
 39 64  1  0  0  0
 39 67  2  0  0  0
 40 52  1  0  0  0
 40 53  2  0  0  0
 40 58  1  0  0  0
 41110  1  0  0  0
 41111  1  0  0  0
 41112  1  0  0  0
 41 48  1  0  0  0
 42 43  1  0  0  0
 42 66  1  0  0  0
 42113  1  0  0  0
 42114  1  0  0  0
 43 44  1  0  0  0
 44115  1  0  0  0
 45 46  2  0  0  0
 45116  1  0  0  0
 46117  1  0  0  0
 47118  1  0  0  0
 47119  1  0  0  0
 48 56  1  0  0  0
 48 65  1  0  0  0
 48120  1  0  0  0
 49 50  1  0  0  0
 49 53  1  0  0  0
 49 64  1  0  0  0
 49121  1  0  0  0
 50 51  1  0  0  0
 50122  1  0  0  0
 50123  1  0  0  0
 51 52  1  0  0  0
 51124  1  0  0  0
 51125  1  0  0  0
 52126  1  0  0  0
 52127  1  0  0  0
 53 54  1  0  0  0
 54 55  2  0  0  0
 54128  1  0  0  0
 55 57  1  0  0  0
 55129  1  0  0  0
 56 69  2  0  0  0
 57 58  2  0  0  0
 57130  1  0  0  0
 58131  1  0  0  0
 59 60  1  0  0  0
 59 61  1  0  0  0
 59 62  1  0  0  0
 60132  1  0  0  0
 60133  1  0  0  0
 60134  1  0  0  0
 61135  1  0  0  0
 61136  1  0  0  0
 61137  1  0  0  0
 62138  1  0  0  0
 62139  1  0  0  0
 62140  1  0  0  0
 63 65  1  0  0  0
 63141  1  0  0  0
 63142  1  0  0  0
 63143  1  0  0  0
 64144  1  0  0  0
 65145  1  0  0  0
 68 81  1  0  0  0
 71 72  2  0  0  0
 71 82  1  0  0  0
 71146  1  0  0  0
 72 83  1  0  0  0
 72 84  1  0  0  0
 73 82  1  0  0  0
 73 83  2  0  0  0
 73 85  1  0  0  0
 74 80  1  0  0  0
 74 85  1  0  0  0
 74 86  2  0  0  0
 75147  1  0  0  0
 75148  1  0  0  0
 75149  1  0  0  0
 75 80  1  0  0  0
 76150  1  0  0  0
 76151  1  0  0  0
 76152  1  0  0  0
 76 81  1  0  0  0
 77 81  1  0  0  0
 77153  1  0  0  0
 77154  1  0  0  0
 77155  1  0  0  0
 78 82  1  0  0  0
 78156  1  0  0  0
 78157  1  0  0  0
 78158  1  0  0  0
 79 80  1  0  0  0
 79 81  1  0  0  0
 79159  1  0  0  0
 79160  1  0  0  0
 80161  1  0  0  0
 83162  1  0  0  0
 84163  1  0  0  0
 85164  1  0  0  0
M  CHG  1  83   1
M  ISO  4   1 100  68 101  81 101  84 100
M  END
> <chiral flag>
0

> <version>
0

> <s_m_source_file>
/data/baiqing/PycharmProjects/Reinvent-master-3.2/result/LINK_invent/BTK/process_docking_weight1_custom_product_contain_oxygen_bond_distance_aromatic_linkinvent_7_9_3/rearranged_h_0193.sdf

> <i_m_source_file_index>
61

> <r_mmod_Potential_Energy-OPLS-2005>
-142.194931030273

> <r_mmod_Stretch_Energy-OPLS-2005>
62.1344566345215

> <r_mmod_Bend_Energy-OPLS-2005>
204.170135498047

> <r_mmod_Torsional_Energy-OPLS-2005>
265.661407470703

> <r_mmod_Improper_Torsional_Energy-OPLS-2005>
7.43919324874878

> <r_mmod_Van_der_Waal_Energy-OPLS-2005>
125.011268615723

> <r_mmod_Electrostatic_Energy-OPLS-2005>
-368.771514892578

> <r_mmod_Solvation_Energy-OPLS-2005>
-467.0625

> <b_mmod_Minimization_Converged-OPLS-2005>
0

> <r_mmod_RMS_Derivative-OPLS-2005>
1.76570212841034

$$$$
61
                    3D
 Structure written by MMmdl.
166174  0  0  1  0            999 V2000
  -30.6950  -14.5251   20.5221 C   0  0  0  0  0  0
  -30.4144  -12.3339   19.4226 C   0  0  0  0  0  0
  -29.4884  -12.5071   18.2035 C   0  0  0  0  0  0
  -28.0096  -12.3730   18.6171 C   0  0  0  0  0  0
  -27.6510  -13.2171   19.8718 C   0  0  2  0  0  0
  -28.7018  -13.0435   20.9910 C   0  0  0  0  0  0
  -25.2491  -13.8125   20.5768 C   0  0  0  0  0  0
  -24.1777  -13.0377   20.9182 C   0  0  0  0  0  0
  -24.6380  -11.6871   20.8715 C   0  0  0  0  0  0
  -23.9069  -10.4267   21.0366 C   0  0  0  0  0  0
  -24.3634   -9.4204   21.9156 C   0  0  0  0  0  0
  -23.6318   -8.2231   22.0737 C   0  0  0  0  0  0
  -22.4285   -8.0269   21.3538 C   0  0  0  0  0  0
  -21.9917   -9.0225   20.4620 C   0  0  0  0  0  0
  -22.7234  -10.2105   20.3025 C   0  0  0  0  0  0
  -21.6856   -6.0746   22.5288 C   0  0  0  0  0  0
  -21.4012   -6.5640   23.8232 C   0  0  0  0  0  0
  -21.3663   -5.6784   24.9184 C   0  0  0  0  0  0
  -21.6045   -4.3055   24.7236 C   0  0  0  0  0  0
  -21.8817   -3.8161   23.4357 C   0  0  0  0  0  0
  -21.9198   -4.6981   22.3414 C   0  0  0  0  0  0
  -22.7812  -13.5164   21.1873 C   0  0  0  0  0  0
  -22.1654   -4.2173   21.0991 F   0  0  0  0  0  0
  -21.5638   -3.4519   25.7741 F   0  0  0  0  0  0
  -30.0199  -13.3483   20.4134 N   0  0  0  0  0  0
  -26.2979  -12.9357   20.3429 N   0  0  0  0  0  0
  -25.9319  -11.6490   20.5777 N   0  0  0  0  0  0
  -22.0472  -12.8139   22.0427 N   0  0  0  0  0  0
  -25.4011  -15.1860   20.4367 N   0  0  0  0  0  0
  -31.8633  -14.6489   20.1486 O   0  0  0  0  0  0
  -21.6640   -6.8877   21.4249 O   0  0  0  0  0  0
  -22.3479  -14.5501   20.6768 O   0  0  0  0  0  0
  -24.6153  -31.8676   23.2090 C   0  0  0  0  0  0
  -25.9039  -32.4828   23.8374 C   0  0  1  0  0  0
  -27.2374  -27.4313   20.0914 C   0  0  0  0  0  0
  -25.5888  -33.8625   24.2325 N   0  0  0  0  0  0
  -23.4052  -30.4899   21.5532 C   0  0  2  0  0  0
  -24.8508  -28.9494   20.1201 C   0  0  0  0  0  0
  -22.7430  -29.4651   22.5035 C   0  0  0  0  0  0
  -18.0280  -28.1368   22.8505 C   0  0  0  0  0  0
  -24.1478  -36.7328   23.2640 C   0  0  0  0  0  0
  -25.9350  -30.8293   21.3622 C   0  0  0  0  0  0
  -26.0133  -29.4618   20.7124 C   0  0  0  0  0  0
  -27.2126  -28.7123   20.6912 C   0  0  0  0  0  0
  -26.0621  -26.9318   19.4950 C   0  0  0  0  0  0
  -24.8696  -27.6817   19.5102 C   0  0  0  0  0  0
  -23.6133  -29.8190   20.1687 C   0  0  0  0  0  0
  -25.4097  -36.3139   24.0351 C   0  0  1  0  0  0
  -20.5865  -28.3646   23.1341 C   0  0  2  0  0  0
  -20.6765  -26.9388   22.5429 C   0  0  0  0  0  0
  -19.5737  -26.6381   21.5231 C   0  0  0  0  0  0
  -18.1917  -26.7918   22.1640 C   0  0  0  0  0  0
  -19.1527  -28.8827   23.2919 C   0  0  0  0  0  0
  -18.9450  -30.1438   23.8918 C   0  0  0  0  0  0
  -17.6450  -30.6576   24.0562 C   0  0  0  0  0  0
  -25.9029  -34.9493   23.5150 C   0  0  0  0  0  0
  -16.5339  -29.9076   23.6321 C   0  0  0  0  0  0
  -16.7270  -28.6495   23.0347 C   0  0  0  0  0  0
  -26.4436  -31.6608   25.0710 C   0  0  0  0  0  0
  -25.3695  -31.3710   26.1460 C   0  0  0  0  0  0
  -27.0259  -30.3059   24.6073 C   0  0  0  0  0  0
  -27.6033  -32.4302   25.7459 C   0  0  0  0  0  0
  -27.5593  -37.1813   24.8461 C   0  0  0  0  0  0
  -21.4159  -29.3021   22.3771 N   0  0  0  0  0  0
  -26.4294  -37.3820   23.9427 N   0  0  0  0  0  0
  -24.6715  -31.0748   22.1013 N   0  0  0  0  0  0
  -23.4204  -28.8200   23.3075 O   0  0  0  0  0  0
  -28.3915  -26.6801   20.0401 O   0  0  0  0  0  0
  -26.5602  -34.8951   22.4720 O   0  0  0  0  0  0
  -23.5342  -32.1436   23.7483 O   0  0  0  0  0  0
  -29.6271  -18.1517   20.6052 C   0  0  0  0  0  0
  -28.3298  -18.1631   20.1284 C   0  0  0  0  0  0
  -29.2875  -20.4231   20.3521 C   0  0  0  0  0  0
  -27.3963  -22.4460   23.7763 C   0  0  0  0  0  0
  -31.1057  -22.7559   22.5336 C   0  0  0  0  0  0
  -30.5068  -16.9822   21.0498 C   0  0  0  0  0  0
  -28.8555  -22.0722   23.4657 C   0  0  0  0  0  0
  -28.3946  -25.5024   20.8675 C   0  0  0  0  0  0
  -29.5790  -23.0123   22.4767 C   0  0  2  0  0  0
  -28.9975  -22.9387   21.0272 C   0  0  1  0  0  0
  -29.0939  -24.2755   20.1988 C   0  0  2  0  0  0
  -30.1612  -19.4578   20.6712 N   0  0  0  0  0  0
  -27.5068  -17.0963   19.7941 N   0  0  0  0  0  0
  -29.5792  -21.7899   20.3239 N   0  0  0  0  0  0
  -29.9764  -15.6056   20.8963 N   0  0  0  0  0  0
  -30.4600  -24.5976   19.9891 O   0  0  0  0  0  0
  -27.7101  -19.7888   19.9228 S   0  0  0  0  0  0
  -31.4562  -12.4276   19.1146 H   0  0  0  0  0  0
  -30.3129  -11.3336   19.8454 H   0  0  0  0  0  0
  -29.7279  -11.7718   17.4355 H   0  0  0  0  0  0
  -29.6596  -13.4838   17.7490 H   0  0  0  0  0  0
  -27.8132  -11.3181   18.8078 H   0  0  0  0  0  0
  -27.3641  -12.6522   17.7830 H   0  0  0  0  0  0
  -27.6736  -14.2605   19.5608 H   0  0  0  0  0  0
  -28.6938  -12.0235   21.3751 H   0  0  0  0  0  0
  -28.4711  -13.6837   21.8446 H   0  0  0  0  0  0
  -25.2768   -9.5710   22.4736 H   0  0  0  0  0  0
  -24.0045   -7.4621   22.7438 H   0  0  0  0  0  0
  -21.0854   -8.8726   19.8909 H   0  0  0  0  0  0
  -22.3675  -10.9651   19.6142 H   0  0  0  0  0  0
  -21.1982   -7.6135   23.9742 H   0  0  0  0  0  0
  -21.1490   -6.0506   25.9087 H   0  0  0  0  0  0
  -22.0600   -2.7631   23.2844 H   0  0  0  0  0  0
  -22.4129  -11.9806   22.4808 H   0  0  0  0  0  0
  -21.1081  -13.1152   22.2624 H   0  0  0  0  0  0
  -24.6218  -15.8179   20.5736 H   0  0  0  0  0  0
  -26.2784  -15.6907   20.2984 H   0  0  0  0  0  0
  -26.7119  -32.5544   23.1136 H   0  0  0  0  0  0
  -25.0001  -33.9749   25.0447 H   0  0  0  0  0  0
  -22.6954  -31.3092   21.4136 H   0  0  0  0  0  0
  -23.3766  -35.9638   23.3286 H   0  0  0  0  0  0
  -24.3583  -36.8954   22.2062 H   0  0  0  0  0  0
  -23.7191  -37.6515   23.6649 H   0  0  0  0  0  0
  -26.0439  -31.5932   20.5901 H   0  0  0  0  0  0
  -26.8247  -30.8866   21.9793 H   0  0  0  0  0  0
  -28.1155  -29.1082   21.1342 H   0  0  0  0  0  0
  -26.0762  -25.9665   19.0083 H   0  0  0  0  0  0
  -23.9765  -27.2821   19.0479 H   0  0  0  0  0  0
  -23.7226  -30.5931   19.4098 H   0  0  0  0  0  0
  -22.7366  -29.2387   19.8728 H   0  0  0  0  0  0
  -25.1268  -36.2014   25.0845 H   0  0  0  0  0  0
  -20.9943  -28.3189   24.1465 H   0  0  0  0  0  0
  -20.5683  -26.2243   23.3615 H   0  0  0  0  0  0
  -21.6633  -26.7437   22.1211 H   0  0  0  0  0  0
  -19.6890  -25.6298   21.1244 H   0  0  0  0  0  0
  -19.6670  -27.3216   20.6784 H   0  0  0  0  0  0
  -17.4199  -26.6699   21.4032 H   0  0  0  0  0  0
  -18.0290  -26.0039   22.9008 H   0  0  0  0  0  0
  -19.7918  -30.7259   24.2294 H   0  0  0  0  0  0
  -17.4993  -31.6258   24.5155 H   0  0  0  0  0  0
  -15.5333  -30.2980   23.7622 H   0  0  0  0  0  0
  -15.8677  -28.0822   22.7030 H   0  0  0  0  0  0
  -24.5845  -30.7085   25.7786 H   0  0  0  0  0  0
  -24.8892  -32.2862   26.4940 H   0  0  0  0  0  0
  -25.8022  -30.8839   27.0211 H   0  0  0  0  0  0
  -26.2797  -29.6840   24.1110 H   0  0  0  0  0  0
  -27.4033  -29.7262   25.4507 H   0  0  0  0  0  0
  -27.8630  -30.4402   23.9218 H   0  0  0  0  0  0
  -27.2682  -33.3596   26.2071 H   0  0  0  0  0  0
  -28.3806  -32.6867   25.0250 H   0  0  0  0  0  0
  -28.0740  -31.8398   26.5331 H   0  0  0  0  0  0
  -28.2606  -38.0116   24.7558 H   0  0  0  0  0  0
  -28.1092  -36.2663   24.6221 H   0  0  0  0  0  0
  -27.2326  -37.1394   25.8863 H   0  0  0  0  0  0
  -20.9342  -29.8733   21.6975 H   0  0  0  0  0  0
  -26.0205  -38.2911   24.1418 H   0  0  0  0  0  0
  -26.9814  -21.7650   24.5232 H   0  0  0  0  0  0
  -26.7519  -22.3873   22.8998 H   0  0  0  0  0  0
  -27.3152  -23.4567   24.1809 H   0  0  0  0  0  0
  -31.5031  -22.9339   23.5319 H   0  0  0  0  0  0
  -31.6554  -23.4024   21.8513 H   0  0  0  0  0  0
  -31.3539  -21.7270   22.2729 H   0  0  0  0  0  0
  -30.7238  -17.1036   22.1120 H   0  0  0  0  0  0
  -31.4697  -17.0661   20.5493 H   0  0  0  0  0  0
  -28.9033  -21.0430   23.1098 H   0  0  0  0  0  0
  -29.4012  -22.0807   24.4119 H   0  0  0  0  0  0
  -28.8901  -25.7848   21.7948 H   0  0  0  0  0  0
  -27.3807  -25.2072   21.1439 H   0  0  0  0  0  0
  -29.4239  -24.0153   22.8685 H   0  0  0  0  0  0
  -27.9294  -22.7339   21.1081 H   0  0  0  0  0  0
  -28.6275  -24.1207   19.2243 H   0  0  0  0  0  0
  -26.6505  -17.4154   19.3499 H   0  0  0  0  0  0
  -27.9742  -16.4487   19.1704 H   0  0  0  0  0  0
  -30.5674  -21.9676   20.1921 H   0  0  0  0  0  0
  -28.9919  -15.4842   21.0802 H   0  0  0  0  0  0
  -30.4860  -25.4666   19.6008 H   0  0  0  0  0  0
  1 25  1  0  0  0
  1 30  2  0  0  0
  1 85  1  0  0  0
  2  3  1  0  0  0
  2 25  1  0  0  0
  2 88  1  0  0  0
  2 89  1  0  0  0
  3  4  1  0  0  0
  3 90  1  0  0  0
  3 91  1  0  0  0
  4  5  1  0  0  0
  4 92  1  0  0  0
  4 93  1  0  0  0
  5  6  1  0  0  0
  5 26  1  0  0  0
  5 94  1  0  0  0
  6 25  1  0  0  0
  6 95  1  0  0  0
  6 96  1  0  0  0
  7  8  2  0  0  0
  7 26  1  0  0  0
  7 29  1  0  0  0
  8  9  1  0  0  0
  8 22  1  0  0  0
  9 10  1  0  0  0
  9 27  2  0  0  0
 10 11  2  0  0  0
 10 15  1  0  0  0
 11 12  1  0  0  0
 11 97  1  0  0  0
 12 13  2  0  0  0
 12 98  1  0  0  0
 13 14  1  0  0  0
 13 31  1  0  0  0
 14 15  2  0  0  0
 14 99  1  0  0  0
 15100  1  0  0  0
 16 17  2  0  0  0
 16 21  1  0  0  0
 16 31  1  0  0  0
 17 18  1  0  0  0
 17101  1  0  0  0
 18 19  2  0  0  0
 18102  1  0  0  0
 19 20  1  0  0  0
 19 24  1  0  0  0
 20 21  2  0  0  0
 20103  1  0  0  0
 21 23  1  0  0  0
 22 28  1  0  0  0
 22 32  2  0  0  0
 26 27  1  0  0  0
 28104  1  0  0  0
 28105  1  0  0  0
 29106  1  0  0  0
 29107  1  0  0  0
 33 34  1  0  0  0
 33 66  1  0  0  0
 33 70  2  0  0  0
 34 36  1  0  0  0
 34 59  1  0  0  0
 34108  1  0  0  0
 35 44  2  0  0  0
 35 45  1  0  0  0
 35 68  1  0  0  0
 36 56  1  0  0  0
 36109  1  0  0  0
 37 39  1  0  0  0
 37 47  1  0  0  0
 37 66  1  0  0  0
 37110  1  0  0  0
 38 43  2  0  0  0
 38 46  1  0  0  0
 38 47  1  0  0  0
 39 64  1  0  0  0
 39 67  2  0  0  0
 40 52  1  0  0  0
 40 53  2  0  0  0
 40 58  1  0  0  0
 41111  1  0  0  0
 41112  1  0  0  0
 41113  1  0  0  0
 41 48  1  0  0  0
 42 43  1  0  0  0
 42 66  1  0  0  0
 42114  1  0  0  0
 42115  1  0  0  0
 43 44  1  0  0  0
 44116  1  0  0  0
 45 46  2  0  0  0
 45117  1  0  0  0
 46118  1  0  0  0
 47119  1  0  0  0
 47120  1  0  0  0
 48 56  1  0  0  0
 48 65  1  0  0  0
 48121  1  0  0  0
 49 50  1  0  0  0
 49 53  1  0  0  0
 49 64  1  0  0  0
 49122  1  0  0  0
 50 51  1  0  0  0
 50123  1  0  0  0
 50124  1  0  0  0
 51 52  1  0  0  0
 51125  1  0  0  0
 51126  1  0  0  0
 52127  1  0  0  0
 52128  1  0  0  0
 53 54  1  0  0  0
 54 55  2  0  0  0
 54129  1  0  0  0
 55 57  1  0  0  0
 55130  1  0  0  0
 56 69  2  0  0  0
 57 58  2  0  0  0
 57131  1  0  0  0
 58132  1  0  0  0
 59 60  1  0  0  0
 59 61  1  0  0  0
 59 62  1  0  0  0
 60133  1  0  0  0
 60134  1  0  0  0
 60135  1  0  0  0
 61136  1  0  0  0
 61137  1  0  0  0
 61138  1  0  0  0
 62139  1  0  0  0
 62140  1  0  0  0
 62141  1  0  0  0
 63 65  1  0  0  0
 63142  1  0  0  0
 63143  1  0  0  0
 63144  1  0  0  0
 64145  1  0  0  0
 65146  1  0  0  0
 68 78  1  0  0  0
 71 72  2  0  0  0
 71 76  1  0  0  0
 71 82  1  0  0  0
 72 83  1  0  0  0
 72 87  1  0  0  0
 73 82  2  0  0  0
 73 84  1  0  0  0
 73 87  1  0  0  0
 74 77  1  0  0  0
 74147  1  0  0  0
 74148  1  0  0  0
 74149  1  0  0  0
 75150  1  0  0  0
 75151  1  0  0  0
 75152  1  0  0  0
 75 79  1  0  0  0
 76 85  1  0  0  0
 76153  1  0  0  0
 76154  1  0  0  0
 77 79  1  0  0  0
 77155  1  0  0  0
 77156  1  0  0  0
 78 81  1  0  0  0
 78157  1  0  0  0
 78158  1  0  0  0
 79 80  1  0  0  0
 79159  1  0  0  0
 80 81  1  0  0  0
 80 84  1  0  0  0
 80160  1  0  0  0
 81 86  1  0  0  0
 81161  1  0  0  0
 83162  1  0  0  0
 83163  1  0  0  0
 84164  1  0  0  0
 85165  1  0  0  0
 86166  1  0  0  0
M  ISO  4   1 100  68 101  78 101  85 100
M  END
> <chiral flag>
0

> <version>
0

> <s_m_source_file>
/data/baiqing/PycharmProjects/Reinvent-master-3.2/result/LINK_invent/BTK/process_docking_weight1_custom_product_contain_oxygen_bond_distance_aromatic_linkinvent_7_9_3/rearranged_h_0193.sdf

> <i_m_source_file_index>
62

> <r_mmod_Potential_Energy-OPLS-2005>
-93.5280303955078

> <r_mmod_Stretch_Energy-OPLS-2005>
42.6779136657715

> <r_mmod_Bend_Energy-OPLS-2005>
104.801239013672

> <r_mmod_Torsional_Energy-OPLS-2005>
303.05126953125

> <r_mmod_Improper_Torsional_Energy-OPLS-2005>
12.3612079620361

> <r_mmod_Van_der_Waal_Energy-OPLS-2005>
128.154342651367

> <r_mmod_Electrostatic_Energy-OPLS-2005>
-489.381988525391

> <r_mmod_Solvation_Energy-OPLS-2005>
-213.911026000977

> <b_mmod_Minimization_Converged-OPLS-2005>
0

> <r_mmod_RMS_Derivative-OPLS-2005>
3.40911841392517

$$$$
62
                    3D
 Structure written by MMmdl.
162170  0  0  1  0            999 V2000
  -30.6061  -14.6138   20.5223 C   0  0  0  0  0  0
  -30.4503  -12.3803   19.4437 C   0  0  0  0  0  0
  -29.5191  -12.5059   18.2187 C   0  0  0  0  0  0
  -28.0403  -12.3333   18.6331 C   0  0  0  0  0  0
  -27.6569  -13.2011   19.8607 C   0  0  2  0  0  0
  -28.6976  -13.0388   20.9897 C   0  0  0  0  0  0
  -25.2606  -13.8129   20.5593 C   0  0  0  0  0  0
  -24.1872  -13.0431   20.9159 C   0  0  0  0  0  0
  -24.6404  -11.6897   20.8728 C   0  0  0  0  0  0
  -23.9059  -10.4303   21.0424 C   0  0  0  0  0  0
  -24.3605   -9.4215   21.9193 C   0  0  0  0  0  0
  -23.6287   -8.2248   22.0742 C   0  0  0  0  0  0
  -22.4268   -8.0280   21.3525 C   0  0  0  0  0  0
  -21.9901   -9.0268   20.4630 C   0  0  0  0  0  0
  -22.7237  -10.2150   20.3057 C   0  0  0  0  0  0
  -21.6857   -6.0748   22.5277 C   0  0  0  0  0  0
  -21.4017   -6.5646   23.8210 C   0  0  0  0  0  0
  -21.3653   -5.6785   24.9167 C   0  0  0  0  0  0
  -21.6038   -4.3049   24.7222 C   0  0  0  0  0  0
  -21.8824   -3.8158   23.4339 C   0  0  0  0  0  0
  -21.9191   -4.6978   22.3397 C   0  0  0  0  0  0
  -22.7907  -13.5233   21.1873 C   0  0  0  0  0  0
  -22.1654   -4.2156   21.0982 F   0  0  0  0  0  0
  -21.5630   -3.4531   25.7738 F   0  0  0  0  0  0
  -30.0121  -13.3867   20.4249 N   0  0  0  0  0  0
  -26.3007  -12.9262   20.3252 N   0  0  0  0  0  0
  -25.9316  -11.6446   20.5737 N   0  0  0  0  0  0
  -22.0569  -12.8198   22.0419 N   0  0  0  0  0  0
  -25.4377  -15.1849   20.3912 N   0  0  0  0  0  0
  -31.7889  -14.7856   20.1981 O   0  0  0  0  0  0
  -21.6616   -6.8897   21.4240 O   0  0  0  0  0  0
  -22.3610  -14.5566   20.6772 O   0  0  0  0  0  0
  -24.6218  -31.8645   23.2056 C   0  0  0  0  0  0
  -25.9092  -32.4796   23.8333 C   0  0  1  0  0  0
  -27.2370  -27.3672   20.0713 C   0  0  0  0  0  0
  -25.5945  -33.8585   24.2310 N   0  0  0  0  0  0
  -23.4091  -30.4931   21.5500 C   0  0  2  0  0  0
  -24.8496  -28.9422   20.1187 C   0  0  0  0  0  0
  -22.7411  -29.4697   22.4963 C   0  0  0  0  0  0
  -18.0296  -28.1423   22.8503 C   0  0  0  0  0  0
  -24.1479  -36.7257   23.2642 C   0  0  0  0  0  0
  -25.9470  -30.8071   21.3661 C   0  0  0  0  0  0
  -26.0192  -29.4383   20.7029 C   0  0  0  0  0  0
  -27.2124  -28.6636   20.6647 C   0  0  0  0  0  0
  -26.0217  -26.8802   19.5439 C   0  0  0  0  0  0
  -24.8488  -27.6600   19.5405 C   0  0  0  0  0  0
  -23.6168  -29.8211   20.1690 C   0  0  0  0  0  0
  -25.4099  -36.3052   24.0345 C   0  0  1  0  0  0
  -20.5874  -28.3721   23.1288 C   0  0  2  0  0  0
  -20.6759  -26.9446   22.5404 C   0  0  0  0  0  0
  -19.5741  -26.6423   21.5207 C   0  0  0  0  0  0
  -18.1933  -26.7975   22.1628 C   0  0  0  0  0  0
  -19.1536  -28.8890   23.2915 C   0  0  0  0  0  0
  -18.9468  -30.1502   23.8932 C   0  0  0  0  0  0
  -17.6459  -30.6628   24.0590 C   0  0  0  0  0  0
  -25.9047  -34.9450   23.5115 C   0  0  0  0  0  0
  -16.5357  -29.9122   23.6350 C   0  0  0  0  0  0
  -16.7285  -28.6543   23.0374 C   0  0  0  0  0  0
  -26.4502  -31.6588   25.0679 C   0  0  0  0  0  0
  -25.3770  -31.3693   26.1440 C   0  0  0  0  0  0
  -27.0348  -30.3019   24.6099 C   0  0  0  0  0  0
  -27.6076  -32.4292   25.7468 C   0  0  0  0  0  0
  -27.5569  -37.1796   24.8491 C   0  0  0  0  0  0
  -21.4136  -29.3087   22.3671 N   0  0  0  0  0  0
  -26.4277  -37.3741   23.9436 N   0  0  0  0  0  0
  -24.6787  -31.0693   22.0986 N   0  0  0  0  0  0
  -23.4160  -28.8243   23.3033 O   0  0  0  0  0  0
  -28.4287  -26.6341   20.0568 O   0  0  0  0  0  0
  -26.5586  -34.8901   22.4655 O   0  0  0  0  0  0
  -23.5414  -32.1432   23.7444 O   0  0  0  0  0  0
  -30.2232  -18.4217   23.1041 C   0  0  0  0  0  0
  -30.2460  -17.1233   22.5582 C   0  0  0  0  0  0
  -29.8853  -16.9892   21.1929 C   0  0  0  0  0  0
  -29.4427  -19.2937   21.1560 C   0  0  0  0  0  0
  -30.8364  -22.0039   20.9955 C   0  0  0  0  0  0
  -28.1298  -25.4527   17.8255 C   0  0  0  0  0  0
  -28.6457  -24.0118   19.9973 C   0  0  0  0  0  0
  -29.8026  -21.4810   19.9787 C   0  0  2  0  0  0
  -28.7008  -25.4228   19.2608 C   0  0  2  0  0  0
  -29.1014  -22.6900   19.2157 C   0  0  2  0  0  0
  -29.7845  -19.4829   22.4148 N   0  0  0  0  0  0
  -29.4752  -18.1115   20.5114 N   0  0  0  0  0  0
  -30.5071  -16.0200   23.3832 N   0  0  0  0  0  0
  -29.7237  -15.6440   20.6881 N   0  0  0  0  0  0
  -28.9173  -20.4356   20.5346 N   0  0  0  0  0  0
  -30.0859  -23.0214   18.2505 O   0  0  0  0  0  0
  -31.4932  -12.5189   19.1530 H   0  0  0  0  0  0
  -30.3900  -11.3785   19.8706 H   0  0  0  0  0  0
  -29.6572  -13.4795   17.7493 H   0  0  0  0  0  0
  -29.7925  -11.7608   17.4707 H   0  0  0  0  0  0
  -27.8915  -11.2780   18.8706 H   0  0  0  0  0  0
  -27.3801  -12.5491   17.7916 H   0  0  0  0  0  0
  -27.6771  -14.2383   19.5273 H   0  0  0  0  0  0
  -28.7073  -12.0110   21.3567 H   0  0  0  0  0  0
  -28.4463  -13.6604   21.8505 H   0  0  0  0  0  0
  -25.2771   -9.5691   22.4727 H   0  0  0  0  0  0
  -24.0009   -7.4648   22.7431 H   0  0  0  0  0  0
  -21.0849   -8.8812   19.8921 H   0  0  0  0  0  0
  -22.3745  -10.9682   19.6138 H   0  0  0  0  0  0
  -21.2006   -7.6152   23.9723 H   0  0  0  0  0  0
  -21.1453   -6.0508   25.9068 H   0  0  0  0  0  0
  -22.0606   -2.7614   23.2839 H   0  0  0  0  0  0
  -22.4159  -11.9794   22.4714 H   0  0  0  0  0  0
  -21.1213  -13.1247   22.2689 H   0  0  0  0  0  0
  -24.6668  -15.8389   20.4701 H   0  0  0  0  0  0
  -26.2629  -15.6043   19.9814 H   0  0  0  0  0  0
  -26.7137  -32.5495   23.1058 H   0  0  0  0  0  0
  -25.0074  -33.9694   25.0450 H   0  0  0  0  0  0
  -22.7008  -31.3137   21.4065 H   0  0  0  0  0  0
  -23.3729  -35.9606   23.3325 H   0  0  0  0  0  0
  -24.3585  -36.8836   22.2049 H   0  0  0  0  0  0
  -23.7204  -37.6467   23.6637 H   0  0  0  0  0  0
  -26.0722  -31.5804   20.6080 H   0  0  0  0  0  0
  -26.8295  -30.8493   21.9931 H   0  0  0  0  0  0
  -28.1198  -29.0611   21.0991 H   0  0  0  0  0  0
  -25.9409  -25.8779   19.1573 H   0  0  0  0  0  0
  -23.9388  -27.2506   19.1227 H   0  0  0  0  0  0
  -23.7296  -30.5993   19.4131 H   0  0  0  0  0  0
  -22.7329  -29.2559   19.8711 H   0  0  0  0  0  0
  -25.1257  -36.1894   25.0831 H   0  0  0  0  0  0
  -21.0041  -28.3331   24.1385 H   0  0  0  0  0  0
  -20.5634  -26.2363   23.3613 H   0  0  0  0  0  0
  -21.6631  -26.7459   22.1209 H   0  0  0  0  0  0
  -19.6865  -25.6335   21.1255 H   0  0  0  0  0  0
  -19.6668  -27.3222   20.6723 H   0  0  0  0  0  0
  -17.4182  -26.6791   21.4044 H   0  0  0  0  0  0
  -18.0329  -26.0122   22.9015 H   0  0  0  0  0  0
  -19.7939  -30.7331   24.2314 H   0  0  0  0  0  0
  -17.5012  -31.6315   24.5167 H   0  0  0  0  0  0
  -15.5362  -30.3021   23.7671 H   0  0  0  0  0  0
  -15.8700  -28.0869   22.7061 H   0  0  0  0  0  0
  -24.5942  -30.7038   25.7781 H   0  0  0  0  0  0
  -24.8977  -32.2856   26.4906 H   0  0  0  0  0  0
  -25.8164  -30.8844   27.0164 H   0  0  0  0  0  0
  -26.2925  -29.6765   24.1147 H   0  0  0  0  0  0
  -27.4075  -29.7267   25.4579 H   0  0  0  0  0  0
  -27.8756  -30.4292   23.9277 H   0  0  0  0  0  0
  -27.2699  -33.3563   26.2090 H   0  0  0  0  0  0
  -28.3892  -32.6897   25.0324 H   0  0  0  0  0  0
  -28.0728  -31.8364   26.5352 H   0  0  0  0  0  0
  -28.2591  -38.0092   24.7501 H   0  0  0  0  0  0
  -28.1063  -36.2625   24.6330 H   0  0  0  0  0  0
  -27.2323  -37.1456   25.8911 H   0  0  0  0  0  0
  -20.9318  -29.8738   21.6813 H   0  0  0  0  0  0
  -26.0152  -38.2806   24.1464 H   0  0  0  0  0  0
  -30.4723  -18.5973   24.1413 H   0  0  0  0  0  0
  -31.4157  -22.8345   20.5975 H   0  0  0  0  0  0
  -31.5606  -21.2331   21.2619 H   0  0  0  0  0  0
  -30.3553  -22.3494   21.9111 H   0  0  0  0  0  0
  -28.7755  -24.9113   17.1368 H   0  0  0  0  0  0
  -28.0501  -26.4707   17.4396 H   0  0  0  0  0  0
  -27.1584  -24.9706   17.7538 H   0  0  0  0  0  0
  -27.6364  -23.8533   20.3809 H   0  0  0  0  0  0
  -29.2666  -24.1205   20.8848 H   0  0  0  0  0  0
  -30.3623  -20.9168   19.2292 H   0  0  0  0  0  0
  -29.7704  -25.5573   19.0882 H   0  0  0  0  0  0
  -28.2434  -22.3107   18.6598 H   0  0  0  0  0  0
  -30.5228  -16.2037   24.3838 H   0  0  0  0  0  0
  -29.9658  -15.1833   23.1955 H   0  0  0  0  0  0
  -28.7667  -15.3410   20.6859 H   0  0  0  0  0  0
  -28.2955  -20.9099   21.1789 H   0  0  0  0  0  0
  -30.9299  -23.0087   18.6906 H   0  0  0  0  0  0
  1 25  1  0  0  0
  1 30  2  0  0  0
  1 84  1  0  0  0
  2  3  1  0  0  0
  2 25  1  0  0  0
  2 87  1  0  0  0
  2 88  1  0  0  0
  3  4  1  0  0  0
  3 89  1  0  0  0
  3 90  1  0  0  0
  4  5  1  0  0  0
  4 91  1  0  0  0
  4 92  1  0  0  0
  5  6  1  0  0  0
  5 26  1  0  0  0
  5 93  1  0  0  0
  6 25  1  0  0  0
  6 94  1  0  0  0
  6 95  1  0  0  0
  7  8  2  0  0  0
  7 26  1  0  0  0
  7 29  1  0  0  0
  8  9  1  0  0  0
  8 22  1  0  0  0
  9 10  1  0  0  0
  9 27  2  0  0  0
 10 11  2  0  0  0
 10 15  1  0  0  0
 11 12  1  0  0  0
 11 96  1  0  0  0
 12 13  2  0  0  0
 12 97  1  0  0  0
 13 14  1  0  0  0
 13 31  1  0  0  0
 14 15  2  0  0  0
 14 98  1  0  0  0
 15 99  1  0  0  0
 16 17  2  0  0  0
 16 21  1  0  0  0
 16 31  1  0  0  0
 17 18  1  0  0  0
 17100  1  0  0  0
 18 19  2  0  0  0
 18101  1  0  0  0
 19 20  1  0  0  0
 19 24  1  0  0  0
 20 21  2  0  0  0
 20102  1  0  0  0
 21 23  1  0  0  0
 22 28  1  0  0  0
 22 32  2  0  0  0
 26 27  1  0  0  0
 28103  1  0  0  0
 28104  1  0  0  0
 29105  1  0  0  0
 29106  1  0  0  0
 33 34  1  0  0  0
 33 66  1  0  0  0
 33 70  2  0  0  0
 34 36  1  0  0  0
 34 59  1  0  0  0
 34107  1  0  0  0
 35 44  2  0  0  0
 35 45  1  0  0  0
 35 68  1  0  0  0
 36 56  1  0  0  0
 36108  1  0  0  0
 37 39  1  0  0  0
 37 47  1  0  0  0
 37 66  1  0  0  0
 37109  1  0  0  0
 38 43  2  0  0  0
 38 46  1  0  0  0
 38 47  1  0  0  0
 39 64  1  0  0  0
 39 67  2  0  0  0
 40 52  1  0  0  0
 40 53  2  0  0  0
 40 58  1  0  0  0
 41110  1  0  0  0
 41111  1  0  0  0
 41112  1  0  0  0
 41 48  1  0  0  0
 42 43  1  0  0  0
 42 66  1  0  0  0
 42113  1  0  0  0
 42114  1  0  0  0
 43 44  1  0  0  0
 44115  1  0  0  0
 45 46  2  0  0  0
 45116  1  0  0  0
 46117  1  0  0  0
 47118  1  0  0  0
 47119  1  0  0  0
 48 56  1  0  0  0
 48 65  1  0  0  0
 48120  1  0  0  0
 49 50  1  0  0  0
 49 53  1  0  0  0
 49 64  1  0  0  0
 49121  1  0  0  0
 50 51  1  0  0  0
 50122  1  0  0  0
 50123  1  0  0  0
 51 52  1  0  0  0
 51124  1  0  0  0
 51125  1  0  0  0
 52126  1  0  0  0
 52127  1  0  0  0
 53 54  1  0  0  0
 54 55  2  0  0  0
 54128  1  0  0  0
 55 57  1  0  0  0
 55129  1  0  0  0
 56 69  2  0  0  0
 57 58  2  0  0  0
 57130  1  0  0  0
 58131  1  0  0  0
 59 60  1  0  0  0
 59 61  1  0  0  0
 59 62  1  0  0  0
 60132  1  0  0  0
 60133  1  0  0  0
 60134  1  0  0  0
 61135  1  0  0  0
 61136  1  0  0  0
 61137  1  0  0  0
 62138  1  0  0  0
 62139  1  0  0  0
 62140  1  0  0  0
 63 65  1  0  0  0
 63141  1  0  0  0
 63142  1  0  0  0
 63143  1  0  0  0
 64144  1  0  0  0
 65145  1  0  0  0
 68 79  1  0  0  0
 71 72  2  0  0  0
 71 81  1  0  0  0
 71146  1  0  0  0
 72 73  1  0  0  0
 72 83  1  0  0  0
 73 82  2  0  0  0
 73 84  1  0  0  0
 74 81  2  0  0  0
 74 82  1  0  0  0
 74 85  1  0  0  0
 75147  1  0  0  0
 75148  1  0  0  0
 75149  1  0  0  0
 75 78  1  0  0  0
 76150  1  0  0  0
 76151  1  0  0  0
 76152  1  0  0  0
 76 79  1  0  0  0
 77 79  1  0  0  0
 77 80  1  0  0  0
 77153  1  0  0  0
 77154  1  0  0  0
 78 80  1  0  0  0
 78 85  1  0  0  0
 78155  1  0  0  0
 79156  1  0  0  0
 80 86  1  0  0  0
 80157  1  0  0  0
 83158  1  0  0  0
 83159  1  0  0  0
 84160  1  0  0  0
 85161  1  0  0  0
 86162  1  0  0  0
M  ISO  4   1 100  68 101  79 101  84 100
M  END
> <chiral flag>
0

> <version>
0

> <s_m_source_file>
/data/baiqing/PycharmProjects/Reinvent-master-3.2/result/LINK_invent/BTK/process_docking_weight1_custom_product_contain_oxygen_bond_distance_aromatic_linkinvent_7_9_3/rearranged_h_0193.sdf

> <i_m_source_file_index>
63

> <r_mmod_Potential_Energy-OPLS-2005>
-411.959503173828

> <r_mmod_Stretch_Energy-OPLS-2005>
68.2006301879883

> <r_mmod_Bend_Energy-OPLS-2005>
171.145233154297

> <r_mmod_Torsional_Energy-OPLS-2005>
300.741729736328

> <r_mmod_Improper_Torsional_Energy-OPLS-2005>
21.8074626922607

> <r_mmod_Van_der_Waal_Energy-OPLS-2005>
165.292739868164

> <r_mmod_Electrostatic_Energy-OPLS-2005>
-909.230834960938

> <r_mmod_Solvation_Energy-OPLS-2005>
-265.231384277344

> <b_mmod_Minimization_Converged-OPLS-2005>
0

> <r_mmod_RMS_Derivative-OPLS-2005>
4.63694763183594

$$$$
63
                    3D
 Structure written by MMmdl.
174182  0  0  1  0            999 V2000
  -30.6763  -14.6427   20.2417 C   0  0  0  0  0  0
  -30.4119  -12.3634   19.4619 C   0  0  0  0  0  0
  -29.5032  -12.4518   18.2053 C   0  0  0  0  0  0
  -28.0235  -12.7933   18.4999 C   0  0  0  0  0  0
  -27.7158  -12.7638   19.9992 C   0  0  2  0  0  0
  -28.7156  -13.3151   21.0041 C   0  0  0  0  0  0
  -25.3037  -13.7445   20.5829 C   0  0  0  0  0  0
  -24.1827  -13.0290   20.9212 C   0  0  0  0  0  0
  -24.5854  -11.6600   20.9033 C   0  0  0  0  0  0
  -23.8650  -10.4194   21.0793 C   0  0  0  0  0  0
  -24.3740   -9.3905   21.9068 C   0  0  0  0  0  0
  -23.6485   -8.1923   22.0506 C   0  0  0  0  0  0
  -22.4153   -8.0271   21.3785 C   0  0  0  0  0  0
  -21.9554   -9.0317   20.5116 C   0  0  0  0  0  0
  -22.6786  -10.2206   20.3557 C   0  0  0  0  0  0
  -21.6894   -6.0771   22.5318 C   0  0  0  0  0  0
  -21.4195   -6.5595   23.8311 C   0  0  0  0  0  0
  -21.3878   -5.6630   24.9174 C   0  0  0  0  0  0
  -21.6261   -4.2906   24.7068 C   0  0  0  0  0  0
  -21.8884   -3.8118   23.4070 C   0  0  0  0  0  0
  -21.9165   -4.7017   22.3259 C   0  0  0  0  0  0
  -22.7870  -13.5273   21.1740 C   0  0  0  0  0  0
  -22.1613   -4.2343   21.0801 F   0  0  0  0  0  0
  -21.5827   -3.4343   25.7508 F   0  0  0  0  0  0
  -30.0342  -13.4561   20.3677 N   0  0  0  0  0  0
  -26.3114  -12.7879   20.3943 N   0  0  0  0  0  0
  -25.8460  -11.5507   20.6003 N   0  0  0  0  0  0
  -22.0488  -12.8255   22.0287 N   0  0  0  0  0  0
  -25.5490  -15.1128   20.4163 N   0  0  0  0  0  0
  -31.8942  -14.7292   20.1069 O   0  0  0  0  0  0
  -21.6574   -6.8890   21.4297 O   0  0  0  0  0  0
  -22.3676  -14.5510   20.6275 O   0  0  0  0  0  0
  -24.6197  -31.8654   23.2139 C   0  0  0  0  0  0
  -25.9060  -32.4819   23.8431 C   0  0  1  0  0  0
  -27.2178  -27.4097   20.0973 C   0  0  0  0  0  0
  -25.5919  -33.8626   24.2356 N   0  0  0  0  0  0
  -23.4079  -30.4898   21.5614 C   0  0  2  0  0  0
  -24.8436  -28.9590   20.1130 C   0  0  0  0  0  0
  -22.7403  -29.4583   22.5030 C   0  0  0  0  0  0
  -18.0263  -28.1339   22.8507 C   0  0  0  0  0  0
  -24.1482  -36.7303   23.2635 C   0  0  0  0  0  0
  -25.9364  -30.8268   21.3637 C   0  0  0  0  0  0
  -26.0116  -29.4601   20.7082 C   0  0  0  0  0  0
  -27.2019  -28.6947   20.6938 C   0  0  0  0  0  0
  -26.0379  -26.9365   19.4867 C   0  0  0  0  0  0
  -24.8509  -27.6966   19.4997 C   0  0  0  0  0  0
  -23.6120  -29.8310   20.1729 C   0  0  0  0  0  0
  -25.4094  -36.3115   24.0349 C   0  0  1  0  0  0
  -20.5845  -28.3615   23.1346 C   0  0  2  0  0  0
  -20.6747  -26.9366   22.5423 C   0  0  0  0  0  0
  -19.5716  -26.6359   21.5221 C   0  0  0  0  0  0
  -18.1889  -26.7889   22.1614 C   0  0  0  0  0  0
  -19.1523  -28.8779   23.2917 C   0  0  0  0  0  0
  -18.9430  -30.1383   23.8926 C   0  0  0  0  0  0
  -17.6422  -30.6554   24.0529 C   0  0  0  0  0  0
  -25.9054  -34.9480   23.5149 C   0  0  0  0  0  0
  -16.5313  -29.9062   23.6300 C   0  0  0  0  0  0
  -16.7235  -28.6467   23.0358 C   0  0  0  0  0  0
  -26.4486  -31.6594   25.0752 C   0  0  0  0  0  0
  -25.3753  -31.3756   26.1506 C   0  0  0  0  0  0
  -27.0270  -30.3026   24.6106 C   0  0  0  0  0  0
  -27.6067  -32.4308   25.7521 C   0  0  0  0  0  0
  -27.5581  -37.1811   24.8471 C   0  0  0  0  0  0
  -21.4116  -29.3001   22.3774 N   0  0  0  0  0  0
  -26.4286  -37.3785   23.9415 N   0  0  0  0  0  0
  -24.6750  -31.0735   22.1070 N   0  0  0  0  0  0
  -23.4171  -28.8127   23.3080 O   0  0  0  0  0  0
  -28.3645  -26.6294   20.1039 O   0  0  0  0  0  0
  -26.5590  -34.8935   22.4696 O   0  0  0  0  0  0
  -23.5363  -32.1414   23.7483 O   0  0  0  0  0  0
  -27.8243  -19.7849   20.0483 C   0  0  0  0  0  0
  -28.8882  -20.3097   19.3573 C   0  0  0  0  0  0
  -29.4189  -18.0577   19.2826 C   0  0  0  0  0  0
  -25.6788  -17.9001   13.1989 C   0  0  0  0  0  0
  -26.2755  -16.6338   16.0331 C   0  0  0  0  0  0
  -29.8123  -18.0275   15.0141 C   0  0  0  0  0  0
  -26.8258  -18.3035   14.1531 C   0  0  0  0  0  0
  -28.2367  -22.7209   19.6648 C   0  0  0  0  0  0
  -30.2772  -16.4130   17.4790 C   0  0  0  0  0  0
  -28.2163  -25.2362   20.4886 C   0  0  0  0  0  0
  -30.2426  -16.8143   18.9854 C   0  0  2  0  0  0
  -27.3778  -17.1633   15.0871 C   0  0  1  0  0  0
  -28.6540  -17.5421   15.9232 C   0  0  1  0  0  0
  -28.7094  -24.1906   19.4250 C   0  0  1  0  0  0
  -29.7803  -19.3139   18.9300 N   0  0  0  0  0  0
  -29.0892  -21.6767   19.0489 N   0  0  0  0  0  0
  -29.8638  -15.6481   19.8416 N   0  0  0  0  0  0
  -30.1140  -24.0381   19.4711 O   0  0  0  0  0  0
  -29.0404  -16.3897   16.7155 O   0  0  0  0  0  0
  -27.8713  -18.0414   20.1269 S   0  0  0  0  0  0
  -31.4553  -12.4471   19.1512 H   0  0  0  0  0  0
  -30.3362  -11.4039   19.9798 H   0  0  0  0  0  0
  -29.5718  -11.5328   17.6213 H   0  0  0  0  0  0
  -29.8922  -13.2292   17.5548 H   0  0  0  0  0  0
  -27.3697  -12.1234   17.9369 H   0  0  0  0  0  0
  -27.8271  -13.7950   18.1236 H   0  0  0  0  0  0
  -27.9964  -11.7150   20.1308 H   0  0  0  0  0  0
  -28.7640  -12.6618   21.8782 H   0  0  0  0  0  0
  -28.3703  -14.2773   21.3762 H   0  0  0  0  0  0
  -25.3394   -9.5034   22.3914 H   0  0  0  0  0  0
  -24.0682   -7.3727   22.6195 H   0  0  0  0  0  0
  -21.0380   -8.8764   19.9618 H   0  0  0  0  0  0
  -22.3238  -10.9797   19.6716 H   0  0  0  0  0  0
  -21.2305   -7.6122   23.9907 H   0  0  0  0  0  0
  -21.1910   -6.0286   25.9184 H   0  0  0  0  0  0
  -22.0687   -2.7604   23.2277 H   0  0  0  0  0  0
  -22.4428  -12.0178   22.4936 H   0  0  0  0  0  0
  -21.1043  -13.1055   22.2555 H   0  0  0  0  0  0
  -24.8237  -15.8143   20.4776 H   0  0  0  0  0  0
  -26.4540  -15.5320   20.2815 H   0  0  0  0  0  0
  -26.7124  -32.5504   23.1188 H   0  0  0  0  0  0
  -25.0143  -33.9823   25.0546 H   0  0  0  0  0  0
  -22.7018  -31.3121   21.4307 H   0  0  0  0  0  0
  -23.3759  -35.9633   23.3309 H   0  0  0  0  0  0
  -24.3616  -36.8868   22.2060 H   0  0  0  0  0  0
  -23.7222  -37.6508   23.6626 H   0  0  0  0  0  0
  -26.0450  -31.5883   20.5912 H   0  0  0  0  0  0
  -26.8330  -30.8881   21.9699 H   0  0  0  0  0  0
  -28.0994  -29.0709   21.1636 H   0  0  0  0  0  0
  -26.0248  -25.9741   18.9995 H   0  0  0  0  0  0
  -23.9577  -27.3041   19.0342 H   0  0  0  0  0  0
  -23.7184  -30.6173   19.4233 H   0  0  0  0  0  0
  -22.7312  -29.2594   19.8751 H   0  0  0  0  0  0
  -25.1266  -36.2014   25.0844 H   0  0  0  0  0  0
  -20.9937  -28.3179   24.1455 H   0  0  0  0  0  0
  -20.5638  -26.2226   23.3598 H   0  0  0  0  0  0
  -21.6621  -26.7375   22.1231 H   0  0  0  0  0  0
  -19.6900  -25.6296   21.1212 H   0  0  0  0  0  0
  -19.6687  -27.3210   20.6801 H   0  0  0  0  0  0
  -17.4175  -26.6641   21.4001 H   0  0  0  0  0  0
  -18.0262  -26.0028   22.9000 H   0  0  0  0  0  0
  -19.7904  -30.7171   24.2357 H   0  0  0  0  0  0
  -17.4982  -31.6257   24.5078 H   0  0  0  0  0  0
  -15.5318  -30.2939   23.7613 H   0  0  0  0  0  0
  -15.8641  -28.0752   22.7096 H   0  0  0  0  0  0
  -24.5986  -30.7006   25.7929 H   0  0  0  0  0  0
  -24.8877  -32.2917   26.4848 H   0  0  0  0  0  0
  -25.8132  -30.9084   27.0318 H   0  0  0  0  0  0
  -26.2823  -29.6882   24.1044 H   0  0  0  0  0  0
  -27.3904  -29.7200   25.4567 H   0  0  0  0  0  0
  -27.8713  -30.4369   23.9351 H   0  0  0  0  0  0
  -27.2705  -33.3623   26.2100 H   0  0  0  0  0  0
  -28.3902  -32.6807   25.0361 H   0  0  0  0  0  0
  -28.0691  -31.8395   26.5436 H   0  0  0  0  0  0
  -28.2594  -38.0108   24.7483 H   0  0  0  0  0  0
  -28.1074  -36.2626   24.6318 H   0  0  0  0  0  0
  -27.2322  -37.1487   25.8885 H   0  0  0  0  0  0
  -20.9271  -29.8741   21.7001 H   0  0  0  0  0  0
  -26.0183  -38.2866   24.1395 H   0  0  0  0  0  0
  -26.9957  -20.3107   20.4991 H   0  0  0  0  0  0
  -25.9763  -17.1248   12.4876 H   0  0  0  0  0  0
  -25.3509  -18.7550   12.6039 H   0  0  0  0  0  0
  -24.8021  -17.5571   13.7400 H   0  0  0  0  0  0
  -25.9880  -17.3906   16.7686 H   0  0  0  0  0  0
  -26.6122  -15.7543   16.5881 H   0  0  0  0  0  0
  -25.3729  -16.3362   15.4984 H   0  0  0  0  0  0
  -30.6521  -18.4386   15.5680 H   0  0  0  0  0  0
  -29.5221  -18.8411   14.3532 H   0  0  0  0  0  0
  -30.1888  -17.2134   14.4019 H   0  0  0  0  0  0
  -26.5092  -19.1566   14.7542 H   0  0  0  0  0  0
  -27.6081  -18.6964   13.4993 H   0  0  0  0  0  0
  -27.2214  -22.6100   19.2887 H   0  0  0  0  0  0
  -28.1959  -22.5239   20.7349 H   0  0  0  0  0  0
  -30.6888  -15.4083   17.4209 H   0  0  0  0  0  0
  -31.0476  -17.0236   17.0155 H   0  0  0  0  0  0
  -28.7500  -25.0990   21.4337 H   0  0  0  0  0  0
  -27.1774  -25.0191   20.7513 H   0  0  0  0  0  0
  -31.2693  -17.0981   19.2433 H   0  0  0  0  0  0
  -27.6629  -16.3375   14.4358 H   0  0  0  0  0  0
  -28.4005  -18.3486   16.6078 H   0  0  0  0  0  0
  -28.3938  -24.5062   18.4314 H   0  0  0  0  0  0
  -29.5475  -21.8706   18.1591 H   0  0  0  0  0  0
  -28.8867  -15.4153   19.8634 H   0  0  0  0  0  0
  -30.2156  -23.0860   19.3834 H   0  0  0  0  0  0
  1 25  1  0  0  0
  1 30  2  0  0  0
  1 87  1  0  0  0
  2  3  1  0  0  0
  2 25  1  0  0  0
  2 91  1  0  0  0
  2 92  1  0  0  0
  3  4  1  0  0  0
  3 93  1  0  0  0
  3 94  1  0  0  0
  4  5  1  0  0  0
  4 95  1  0  0  0
  4 96  1  0  0  0
  5  6  1  0  0  0
  5 26  1  0  0  0
  5 97  1  0  0  0
  6 25  1  0  0  0
  6 98  1  0  0  0
  6 99  1  0  0  0
  7  8  2  0  0  0
  7 26  1  0  0  0
  7 29  1  0  0  0
  8  9  1  0  0  0
  8 22  1  0  0  0
  9 10  1  0  0  0
  9 27  2  0  0  0
 10 11  2  0  0  0
 10 15  1  0  0  0
 11 12  1  0  0  0
 11100  1  0  0  0
 12 13  2  0  0  0
 12101  1  0  0  0
 13 14  1  0  0  0
 13 31  1  0  0  0
 14 15  2  0  0  0
 14102  1  0  0  0
 15103  1  0  0  0
 16 17  2  0  0  0
 16 21  1  0  0  0
 16 31  1  0  0  0
 17 18  1  0  0  0
 17104  1  0  0  0
 18 19  2  0  0  0
 18105  1  0  0  0
 19 20  1  0  0  0
 19 24  1  0  0  0
 20 21  2  0  0  0
 20106  1  0  0  0
 21 23  1  0  0  0
 22 28  1  0  0  0
 22 32  2  0  0  0
 26 27  1  0  0  0
 28107  1  0  0  0
 28108  1  0  0  0
 29109  1  0  0  0
 29110  1  0  0  0
 33 34  1  0  0  0
 33 66  1  0  0  0
 33 70  2  0  0  0
 34 36  1  0  0  0
 34 59  1  0  0  0
 34111  1  0  0  0
 35 44  2  0  0  0
 35 45  1  0  0  0
 35 68  1  0  0  0
 36 56  1  0  0  0
 36112  1  0  0  0
 37 39  1  0  0  0
 37 47  1  0  0  0
 37 66  1  0  0  0
 37113  1  0  0  0
 38 43  2  0  0  0
 38 46  1  0  0  0
 38 47  1  0  0  0
 39 64  1  0  0  0
 39 67  2  0  0  0
 40 52  1  0  0  0
 40 53  2  0  0  0
 40 58  1  0  0  0
 41114  1  0  0  0
 41115  1  0  0  0
 41116  1  0  0  0
 41 48  1  0  0  0
 42 43  1  0  0  0
 42 66  1  0  0  0
 42117  1  0  0  0
 42118  1  0  0  0
 43 44  1  0  0  0
 44119  1  0  0  0
 45 46  2  0  0  0
 45120  1  0  0  0
 46121  1  0  0  0
 47122  1  0  0  0
 47123  1  0  0  0
 48 56  1  0  0  0
 48 65  1  0  0  0
 48124  1  0  0  0
 49 50  1  0  0  0
 49 53  1  0  0  0
 49 64  1  0  0  0
 49125  1  0  0  0
 50 51  1  0  0  0
 50126  1  0  0  0
 50127  1  0  0  0
 51 52  1  0  0  0
 51128  1  0  0  0
 51129  1  0  0  0
 52130  1  0  0  0
 52131  1  0  0  0
 53 54  1  0  0  0
 54 55  2  0  0  0
 54132  1  0  0  0
 55 57  1  0  0  0
 55133  1  0  0  0
 56 69  2  0  0  0
 57 58  2  0  0  0
 57134  1  0  0  0
 58135  1  0  0  0
 59 60  1  0  0  0
 59 61  1  0  0  0
 59 62  1  0  0  0
 60136  1  0  0  0
 60137  1  0  0  0
 60138  1  0  0  0
 61139  1  0  0  0
 61140  1  0  0  0
 61141  1  0  0  0
 62142  1  0  0  0
 62143  1  0  0  0
 62144  1  0  0  0
 63 65  1  0  0  0
 63145  1  0  0  0
 63146  1  0  0  0
 63147  1  0  0  0
 64148  1  0  0  0
 65149  1  0  0  0
 68 80  1  0  0  0
 71 72  2  0  0  0
 71 90  1  0  0  0
 71150  1  0  0  0
 72 85  1  0  0  0
 72 86  1  0  0  0
 73 81  1  0  0  0
 73 85  2  0  0  0
 73 90  1  0  0  0
 74 77  1  0  0  0
 74151  1  0  0  0
 74152  1  0  0  0
 74153  1  0  0  0
 75154  1  0  0  0
 75155  1  0  0  0
 75156  1  0  0  0
 75 82  1  0  0  0
 76157  1  0  0  0
 76158  1  0  0  0
 76159  1  0  0  0
 76 83  1  0  0  0
 77 82  1  0  0  0
 77160  1  0  0  0
 77161  1  0  0  0
 78 84  1  0  0  0
 78 86  1  0  0  0
 78162  1  0  0  0
 78163  1  0  0  0
 79 89  1  0  0  0
 79164  1  0  0  0
 79165  1  0  0  0
 79 81  1  0  0  0
 80 84  1  0  0  0
 80166  1  0  0  0
 80167  1  0  0  0
 81 87  1  0  0  0
 81168  1  0  0  0
 82 83  1  0  0  0
 82169  1  0  0  0
 83 89  1  0  0  0
 83170  1  0  0  0
 84 88  1  0  0  0
 84171  1  0  0  0
 86172  1  0  0  0
 87173  1  0  0  0
 88174  1  0  0  0
M  ISO  4   1 100  68 101  80 101  87 100
M  END
> <chiral flag>
0

> <version>
0

> <s_m_source_file>
/data/baiqing/PycharmProjects/Reinvent-master-3.2/result/LINK_invent/BTK/process_docking_weight1_custom_product_contain_oxygen_bond_distance_aromatic_linkinvent_7_9_3/rearranged_h_0193.sdf

> <i_m_source_file_index>
64

> <r_mmod_Potential_Energy-OPLS-2005>
-49.1970977783203

> <r_mmod_Stretch_Energy-OPLS-2005>
56.5932426452637

> <r_mmod_Bend_Energy-OPLS-2005>
186.562881469727

> <r_mmod_Torsional_Energy-OPLS-2005>
307.233123779297

> <r_mmod_Improper_Torsional_Energy-OPLS-2005>
15.284951210022

> <r_mmod_Van_der_Waal_Energy-OPLS-2005>
140.443206787109

> <r_mmod_Electrostatic_Energy-OPLS-2005>
-629.064697265625

> <r_mmod_Solvation_Energy-OPLS-2005>
-236.941162109375

> <b_mmod_Minimization_Converged-OPLS-2005>
0

> <r_mmod_RMS_Derivative-OPLS-2005>
13.0233135223389

$$$$
64
                    3D
 Structure written by MMmdl.
162170  0  0  1  0            999 V2000
  -30.6103  -14.7508   20.4575 C   0  0  0  0  0  0
  -30.4347  -12.4546   19.4820 C   0  0  0  0  0  0
  -29.5144  -12.5113   18.2419 C   0  0  0  0  0  0
  -28.0400  -12.3333   18.6530 C   0  0  0  0  0  0
  -27.6447  -13.2319   19.8544 C   0  0  2  0  0  0
  -28.6880  -13.1620   20.9922 C   0  0  0  0  0  0
  -25.2520  -13.8198   20.5701 C   0  0  0  0  0  0
  -24.1806  -13.0443   20.9202 C   0  0  0  0  0  0
  -24.6394  -11.6921   20.8735 C   0  0  0  0  0  0
  -23.9065  -10.4297   21.0398 C   0  0  0  0  0  0
  -24.3617   -9.4214   21.9178 C   0  0  0  0  0  0
  -23.6293   -8.2247   22.0750 C   0  0  0  0  0  0
  -22.4273   -8.0281   21.3543 C   0  0  0  0  0  0
  -21.9910   -9.0255   20.4645 C   0  0  0  0  0  0
  -22.7236  -10.2134   20.3052 C   0  0  0  0  0  0
  -21.6855   -6.0734   22.5279 C   0  0  0  0  0  0
  -21.4017   -6.5637   23.8212 C   0  0  0  0  0  0
  -21.3658   -5.6790   24.9174 C   0  0  0  0  0  0
  -21.6045   -4.3053   24.7224 C   0  0  0  0  0  0
  -21.8820   -3.8144   23.4345 C   0  0  0  0  0  0
  -21.9195   -4.6962   22.3403 C   0  0  0  0  0  0
  -22.7826  -13.5225   21.1865 C   0  0  0  0  0  0
  -22.1663   -4.2147   21.0980 F   0  0  0  0  0  0
  -21.5628   -3.4537   25.7736 F   0  0  0  0  0  0
  -29.9936  -13.5163   20.4187 N   0  0  0  0  0  0
  -26.2948  -12.9407   20.3287 N   0  0  0  0  0  0
  -25.9326  -11.6548   20.5744 N   0  0  0  0  0  0
  -22.0471  -12.8215   22.0419 N   0  0  0  0  0  0
  -25.4212  -15.1923   20.4134 N   0  0  0  0  0  0
  -31.7916  -14.8392   20.1054 O   0  0  0  0  0  0
  -21.6640   -6.8875   21.4239 O   0  0  0  0  0  0
  -22.3511  -14.5528   20.6707 O   0  0  0  0  0  0
  -24.6334  -31.8547   23.1990 C   0  0  0  0  0  0
  -25.9159  -32.4745   23.8335 C   0  0  1  0  0  0
  -27.2161  -27.2458   20.1227 C   0  0  0  0  0  0
  -25.5956  -33.8548   24.2253 N   0  0  0  0  0  0
  -23.4302  -30.4794   21.5425 C   0  0  2  0  0  0
  -24.8760  -28.9296   20.1064 C   0  0  0  0  0  0
  -22.7512  -29.4603   22.4900 C   0  0  0  0  0  0
  -18.0296  -28.1391   22.8487 C   0  0  0  0  0  0
  -24.1481  -36.7261   23.2632 C   0  0  0  0  0  0
  -25.9786  -30.7603   21.3847 C   0  0  0  0  0  0
  -26.0476  -29.3832   20.7241 C   0  0  0  0  0  0
  -27.2161  -28.5520   20.7269 C   0  0  0  0  0  0
  -26.0235  -26.8803   19.4530 C   0  0  0  0  0  0
  -24.8707  -27.6868   19.4601 C   0  0  0  0  0  0
  -23.6485  -29.8180   20.1571 C   0  0  0  0  0  0
  -25.4104  -36.3055   24.0327 C   0  0  1  0  0  0
  -20.5902  -28.3704   23.1261 C   0  0  2  0  0  0
  -20.6781  -26.9421   22.5402 C   0  0  0  0  0  0
  -19.5749  -26.6389   21.5211 C   0  0  0  0  0  0
  -18.1935  -26.7930   22.1633 C   0  0  0  0  0  0
  -19.1551  -28.8864   23.2868 C   0  0  0  0  0  0
  -18.9470  -30.1464   23.8887 C   0  0  0  0  0  0
  -17.6469  -30.6592   24.0561 C   0  0  0  0  0  0
  -25.9065  -34.9434   23.5089 C   0  0  0  0  0  0
  -16.5360  -29.9088   23.6335 C   0  0  0  0  0  0
  -16.7283  -28.6507   23.0357 C   0  0  0  0  0  0
  -26.4517  -31.6576   25.0733 C   0  0  0  0  0  0
  -25.3739  -31.3758   26.1458 C   0  0  0  0  0  0
  -27.0351  -30.2978   24.6246 C   0  0  0  0  0  0
  -27.6079  -32.4315   25.7498 C   0  0  0  0  0  0
  -27.5588  -37.1752   24.8444 C   0  0  0  0  0  0
  -21.4216  -29.3050   22.3644 N   0  0  0  0  0  0
  -26.4256  -37.3780   23.9453 N   0  0  0  0  0  0
  -24.6996  -31.0501   22.0976 N   0  0  0  0  0  0
  -23.4204  -28.8144   23.3005 O   0  0  0  0  0  0
  -28.3068  -26.3375   20.2208 O   0  0  0  0  0  0
  -26.5635  -34.8919   22.4657 O   0  0  0  0  0  0
  -23.5482  -32.1382   23.7277 O   0  0  0  0  0  0
  -30.0147  -17.3139   20.4658 C   0  0  0  0  0  0
  -30.6701  -19.1062   19.5824 C   0  0  0  0  0  0
  -27.5007  -21.7409   19.5235 C   0  0  0  0  0  0
  -26.0060  -20.6069   17.7668 C   0  0  0  0  0  0
  -28.6513  -24.9014   18.3126 C   0  0  0  0  0  0
  -27.4365  -20.9378   18.2215 C   0  0  0  0  0  0
  -28.9171  -23.6676   20.5857 C   0  0  0  0  0  0
  -29.3976  -20.9063   21.0024 C   0  0  0  0  0  0
  -28.8935  -22.1167   20.0377 C   0  0  1  0  0  0
  -28.1992  -24.8929   19.7806 C   0  0  1  0  0  0
  -30.8670  -17.7851   19.4992 N   0  0  0  0  0  0
  -29.3082  -18.3122   21.0705 N   0  0  0  0  0  0
  -29.7494  -19.5039   20.4804 N   0  0  0  0  0  0
  -31.3726  -20.0267   18.8357 N   0  0  0  0  0  0
  -29.8424  -15.8694   20.7619 N   0  0  0  0  0  0
  -26.4824  -22.0543   20.1460 O   0  0  0  0  0  0
  -31.4769  -12.5725   19.1809 H   0  0  0  0  0  0
  -30.3747  -11.4762   19.9615 H   0  0  0  0  0  0
  -29.7990  -11.7410   17.5236 H   0  0  0  0  0  0
  -29.6417  -13.4669   17.7312 H   0  0  0  0  0  0
  -27.8973  -11.2841   18.9145 H   0  0  0  0  0  0
  -27.3840  -12.5266   17.8034 H   0  0  0  0  0  0
  -27.6405  -14.2539   19.4747 H   0  0  0  0  0  0
  -28.7215  -12.1614   21.4262 H   0  0  0  0  0  0
  -28.4178  -13.8364   21.8062 H   0  0  0  0  0  0
  -25.2764   -9.5693   22.4749 H   0  0  0  0  0  0
  -24.0006   -7.4638   22.7467 H   0  0  0  0  0  0
  -21.0842   -8.8771   19.8951 H   0  0  0  0  0  0
  -22.3690  -10.9672   19.6158 H   0  0  0  0  0  0
  -21.2009   -7.6146   23.9712 H   0  0  0  0  0  0
  -21.1479   -6.0521   25.9076 H   0  0  0  0  0  0
  -22.0599   -2.7606   23.2845 H   0  0  0  0  0  0
  -22.4086  -11.9883   22.4821 H   0  0  0  0  0  0
  -21.1085  -13.1242   22.2620 H   0  0  0  0  0  0
  -24.6518  -15.8434   20.5268 H   0  0  0  0  0  0
  -26.2649  -15.6352   20.0736 H   0  0  0  0  0  0
  -26.7221  -32.5384   23.1070 H   0  0  0  0  0  0
  -25.0101  -33.9683   25.0397 H   0  0  0  0  0  0
  -22.7276  -31.3028   21.3987 H   0  0  0  0  0  0
  -23.3780  -35.9549   23.3210 H   0  0  0  0  0  0
  -24.3600  -36.8970   22.2066 H   0  0  0  0  0  0
  -23.7171  -37.6410   23.6706 H   0  0  0  0  0  0
  -26.1246  -31.5220   20.6174 H   0  0  0  0  0  0
  -26.8536  -30.8044   22.0212 H   0  0  0  0  0  0
  -28.1072  -28.8899   21.2369 H   0  0  0  0  0  0
  -25.9321  -25.9496   18.9171 H   0  0  0  0  0  0
  -23.9780  -27.3398   18.9580 H   0  0  0  0  0  0
  -23.7748  -30.5961   19.4037 H   0  0  0  0  0  0
  -22.7658  -29.2543   19.8499 H   0  0  0  0  0  0
  -25.1268  -36.1877   25.0812 H   0  0  0  0  0  0
  -21.0002  -28.3282   24.1379 H   0  0  0  0  0  0
  -20.5683  -26.2316   23.3610 H   0  0  0  0  0  0
  -21.6646  -26.7444   22.1193 H   0  0  0  0  0  0
  -19.6908  -25.6298   21.1245 H   0  0  0  0  0  0
  -19.6676  -27.3195   20.6736 H   0  0  0  0  0  0
  -17.4198  -26.6669   21.4043 H   0  0  0  0  0  0
  -18.0346  -26.0081   22.9042 H   0  0  0  0  0  0
  -19.7945  -30.7281   24.2252 H   0  0  0  0  0  0
  -17.5025  -31.6270   24.5166 H   0  0  0  0  0  0
  -15.5360  -30.2988   23.7663 H   0  0  0  0  0  0
  -15.8684  -28.0823   22.7075 H   0  0  0  0  0  0
  -24.5863  -30.7169   25.7782 H   0  0  0  0  0  0
  -24.8997  -32.2948   26.4911 H   0  0  0  0  0  0
  -25.8042  -30.8889   27.0217 H   0  0  0  0  0  0
  -26.2930  -29.6724   24.1265 H   0  0  0  0  0  0
  -27.4000  -29.7253   25.4784 H   0  0  0  0  0  0
  -27.8835  -30.4225   23.9513 H   0  0  0  0  0  0
  -27.2700  -33.3640   26.2032 H   0  0  0  0  0  0
  -28.3909  -32.6828   25.0331 H   0  0  0  0  0  0
  -28.0715  -31.8458   26.5447 H   0  0  0  0  0  0
  -28.2503  -38.0153   24.7658 H   0  0  0  0  0  0
  -28.1186  -36.2697   24.6043 H   0  0  0  0  0  0
  -27.2344  -37.1126   25.8848 H   0  0  0  0  0  0
  -20.9403  -29.8772   21.6847 H   0  0  0  0  0  0
  -26.0119  -38.2819   24.1577 H   0  0  0  0  0  0
  -26.0189  -20.0349   16.8389 H   0  0  0  0  0  0
  -25.4260  -21.5132   17.5889 H   0  0  0  0  0  0
  -25.4802  -20.0115   18.5140 H   0  0  0  0  0  0
  -28.4974  -23.9367   17.8318 H   0  0  0  0  0  0
  -29.7106  -25.1468   18.2337 H   0  0  0  0  0  0
  -28.0992  -25.6397   17.7309 H   0  0  0  0  0  0
  -27.9990  -20.0143   18.3562 H   0  0  0  0  0  0
  -27.9489  -21.5039   17.4436 H   0  0  0  0  0  0
  -29.9637  -23.9396   20.7217 H   0  0  0  0  0  0
  -28.5007  -23.6616   21.5934 H   0  0  0  0  0  0
  -28.6674  -20.7780   21.8020 H   0  0  0  0  0  0
  -30.2954  -21.2602   21.5092 H   0  0  0  0  0  0
  -29.5427  -22.1101   19.1630 H   0  0  0  0  0  0
  -27.1529  -24.6060   19.8196 H   0  0  0  0  0  0
  -32.1382  -19.7411   18.2379 H   0  0  0  0  0  0
  -31.3059  -21.0192   19.0200 H   0  0  0  0  0  0
  -28.9563  -15.6452   21.1838 H   0  0  0  0  0  0
  1 25  1  0  0  0
  1 30  2  0  0  0
  1 85  1  0  0  0
  2  3  1  0  0  0
  2 25  1  0  0  0
  2 87  1  0  0  0
  2 88  1  0  0  0
  3  4  1  0  0  0
  3 89  1  0  0  0
  3 90  1  0  0  0
  4  5  1  0  0  0
  4 91  1  0  0  0
  4 92  1  0  0  0
  5  6  1  0  0  0
  5 26  1  0  0  0
  5 93  1  0  0  0
  6 25  1  0  0  0
  6 94  1  0  0  0
  6 95  1  0  0  0
  7  8  2  0  0  0
  7 26  1  0  0  0
  7 29  1  0  0  0
  8  9  1  0  0  0
  8 22  1  0  0  0
  9 10  1  0  0  0
  9 27  2  0  0  0
 10 11  2  0  0  0
 10 15  1  0  0  0
 11 12  1  0  0  0
 11 96  1  0  0  0
 12 13  2  0  0  0
 12 97  1  0  0  0
 13 14  1  0  0  0
 13 31  1  0  0  0
 14 15  2  0  0  0
 14 98  1  0  0  0
 15 99  1  0  0  0
 16 17  2  0  0  0
 16 21  1  0  0  0
 16 31  1  0  0  0
 17 18  1  0  0  0
 17100  1  0  0  0
 18 19  2  0  0  0
 18101  1  0  0  0
 19 20  1  0  0  0
 19 24  1  0  0  0
 20 21  2  0  0  0
 20102  1  0  0  0
 21 23  1  0  0  0
 22 28  1  0  0  0
 22 32  2  0  0  0
 26 27  1  0  0  0
 28103  1  0  0  0
 28104  1  0  0  0
 29105  1  0  0  0
 29106  1  0  0  0
 33 34  1  0  0  0
 33 66  1  0  0  0
 33 70  2  0  0  0
 34 36  1  0  0  0
 34 59  1  0  0  0
 34107  1  0  0  0
 35 44  2  0  0  0
 35 45  1  0  0  0
 35 68  1  0  0  0
 36 56  1  0  0  0
 36108  1  0  0  0
 37 39  1  0  0  0
 37 47  1  0  0  0
 37 66  1  0  0  0
 37109  1  0  0  0
 38 43  2  0  0  0
 38 46  1  0  0  0
 38 47  1  0  0  0
 39 64  1  0  0  0
 39 67  2  0  0  0
 40 52  1  0  0  0
 40 53  2  0  0  0
 40 58  1  0  0  0
 41110  1  0  0  0
 41111  1  0  0  0
 41112  1  0  0  0
 41 48  1  0  0  0
 42 43  1  0  0  0
 42 66  1  0  0  0
 42113  1  0  0  0
 42114  1  0  0  0
 43 44  1  0  0  0
 44115  1  0  0  0
 45 46  2  0  0  0
 45116  1  0  0  0
 46117  1  0  0  0
 47118  1  0  0  0
 47119  1  0  0  0
 48 56  1  0  0  0
 48 65  1  0  0  0
 48120  1  0  0  0
 49 50  1  0  0  0
 49 53  1  0  0  0
 49 64  1  0  0  0
 49121  1  0  0  0
 50 51  1  0  0  0
 50122  1  0  0  0
 50123  1  0  0  0
 51 52  1  0  0  0
 51124  1  0  0  0
 51125  1  0  0  0
 52126  1  0  0  0
 52127  1  0  0  0
 53 54  1  0  0  0
 54 55  2  0  0  0
 54128  1  0  0  0
 55 57  1  0  0  0
 55129  1  0  0  0
 56 69  2  0  0  0
 57 58  2  0  0  0
 57130  1  0  0  0
 58131  1  0  0  0
 59 60  1  0  0  0
 59 61  1  0  0  0
 59 62  1  0  0  0
 60132  1  0  0  0
 60133  1  0  0  0
 60134  1  0  0  0
 61135  1  0  0  0
 61136  1  0  0  0
 61137  1  0  0  0
 62138  1  0  0  0
 62139  1  0  0  0
 62140  1  0  0  0
 63 65  1  0  0  0
 63141  1  0  0  0
 63142  1  0  0  0
 63143  1  0  0  0
 64144  1  0  0  0
 65145  1  0  0  0
 68 80  1  0  0  0
 71 81  1  0  0  0
 71 82  2  0  0  0
 71 85  1  0  0  0
 72 81  2  0  0  0
 72 83  1  0  0  0
 72 84  1  0  0  0
 73 76  1  0  0  0
 73 79  1  0  0  0
 73 86  2  0  0  0
 74 76  1  0  0  0
 74146  1  0  0  0
 74147  1  0  0  0
 74148  1  0  0  0
 75149  1  0  0  0
 75150  1  0  0  0
 75151  1  0  0  0
 75 80  1  0  0  0
 76152  1  0  0  0
 76153  1  0  0  0
 77 80  1  0  0  0
 77154  1  0  0  0
 77155  1  0  0  0
 77 79  1  0  0  0
 78 79  1  0  0  0
 78 83  1  0  0  0
 78156  1  0  0  0
 78157  1  0  0  0
 79158  1  0  0  0
 80159  1  0  0  0
 82 83  1  0  0  0
 84160  1  0  0  0
 84161  1  0  0  0
 85162  1  0  0  0
M  ISO  4   1 100  68 101  80 101  85 100
M  END
> <chiral flag>
0

> <version>
0

> <s_m_source_file>
/data/baiqing/PycharmProjects/Reinvent-master-3.2/result/LINK_invent/BTK/process_docking_weight1_custom_product_contain_oxygen_bond_distance_aromatic_linkinvent_7_9_3/rearranged_h_0193.sdf

> <i_m_source_file_index>
65

> <r_mmod_Potential_Energy-OPLS-2005>
5.18633079528809

> <r_mmod_Stretch_Energy-OPLS-2005>
135.880767822266

> <r_mmod_Bend_Energy-OPLS-2005>
192.29801940918

> <r_mmod_Torsional_Energy-OPLS-2005>
224.725143432617

> <r_mmod_Improper_Torsional_Energy-OPLS-2005>
5.00365686416626

> <r_mmod_Van_der_Waal_Energy-OPLS-2005>
113.822814941406

> <r_mmod_Electrostatic_Energy-OPLS-2005>
-508.885375976562

> <r_mmod_Solvation_Energy-OPLS-2005>
-249.099548339844

> <b_mmod_Minimization_Converged-OPLS-2005>
0

> <r_mmod_RMS_Derivative-OPLS-2005>
0.630551934242249

$$$$
65
                    3D
 Structure written by MMmdl.
163171  0  0  1  0            999 V2000
  -30.6434  -14.5701   20.5099 C   0  0  0  0  0  0
  -30.4294  -12.3509   19.4342 C   0  0  0  0  0  0
  -29.4987  -12.4970   18.2114 C   0  0  0  0  0  0
  -28.0198  -12.3494   18.6233 C   0  0  0  0  0  0
  -27.6518  -13.2087   19.8624 C   0  0  2  0  0  0
  -28.6967  -13.0390   20.9889 C   0  0  0  0  0  0
  -25.2550  -13.8170   20.5647 C   0  0  0  0  0  0
  -24.1806  -13.0452   20.9142 C   0  0  0  0  0  0
  -24.6372  -11.6917   20.8740 C   0  0  0  0  0  0
  -23.9047  -10.4303   21.0413 C   0  0  0  0  0  0
  -24.3614   -9.4217   21.9184 C   0  0  0  0  0  0
  -23.6284   -8.2255   22.0761 C   0  0  0  0  0  0
  -22.4272   -8.0279   21.3547 C   0  0  0  0  0  0
  -21.9892   -9.0255   20.4657 C   0  0  0  0  0  0
  -22.7222  -10.2129   20.3053 C   0  0  0  0  0  0
  -21.6860   -6.0719   22.5278 C   0  0  0  0  0  0
  -21.4025   -6.5626   23.8210 C   0  0  0  0  0  0
  -21.3659   -5.6786   24.9175 C   0  0  0  0  0  0
  -21.6038   -4.3047   24.7224 C   0  0  0  0  0  0
  -21.8833   -3.8128   23.4353 C   0  0  0  0  0  0
  -21.9199   -4.6939   22.3410 C   0  0  0  0  0  0
  -22.7821  -13.5242   21.1817 C   0  0  0  0  0  0
  -22.1669   -4.2122   21.0982 F   0  0  0  0  0  0
  -21.5615   -3.4543   25.7740 F   0  0  0  0  0  0
  -30.0149  -13.3604   20.4226 N   0  0  0  0  0  0
  -26.2976  -12.9332   20.3312 N   0  0  0  0  0  0
  -25.9293  -11.6499   20.5761 N   0  0  0  0  0  0
  -22.0471  -12.8228   22.0375 N   0  0  0  0  0  0
  -25.4287  -15.1898   20.4048 N   0  0  0  0  0  0
  -31.8123  -14.7219   20.1462 O   0  0  0  0  0  0
  -21.6642   -6.8869   21.4240 O   0  0  0  0  0  0
  -22.3516  -14.5562   20.6690 O   0  0  0  0  0  0
  -24.6193  -31.8631   23.2033 C   0  0  0  0  0  0
  -25.9060  -32.4786   23.8359 C   0  0  1  0  0  0
  -27.2365  -27.3790   20.1253 C   0  0  0  0  0  0
  -25.5901  -33.8586   24.2285 N   0  0  0  0  0  0
  -23.4131  -30.4830   21.5451 C   0  0  2  0  0  0
  -24.8604  -28.9346   20.1211 C   0  0  0  0  0  0
  -22.7443  -29.4646   22.4974 C   0  0  0  0  0  0
  -18.0273  -28.1402   22.8470 C   0  0  0  0  0  0
  -24.1496  -36.7304   23.2642 C   0  0  0  0  0  0
  -25.9451  -30.8154   21.3626 C   0  0  0  0  0  0
  -26.0219  -29.4427   20.7153 C   0  0  0  0  0  0
  -27.2148  -28.6770   20.7017 C   0  0  0  0  0  0
  -26.0558  -26.8911   19.5301 C   0  0  0  0  0  0
  -24.8751  -27.6626   19.5210 C   0  0  0  0  0  0
  -23.6244  -29.8084   20.1628 C   0  0  0  0  0  0
  -25.4118  -36.3094   24.0333 C   0  0  1  0  0  0
  -20.5862  -28.3698   23.1285 C   0  0  2  0  0  0
  -20.6765  -26.9424   22.5418 C   0  0  0  0  0  0
  -19.5754  -26.6401   21.5207 C   0  0  0  0  0  0
  -18.1928  -26.7947   22.1606 C   0  0  0  0  0  0
  -19.1522  -28.8863   23.2882 C   0  0  0  0  0  0
  -18.9449  -30.1458   23.8911 C   0  0  0  0  0  0
  -17.6455  -30.6601   24.0564 C   0  0  0  0  0  0
  -25.9046  -34.9459   23.5116 C   0  0  0  0  0  0
  -16.5343  -29.9105   23.6322 C   0  0  0  0  0  0
  -16.7265  -28.6523   23.0338 C   0  0  0  0  0  0
  -26.4478  -31.6586   25.0704 C   0  0  0  0  0  0
  -25.3742  -31.3713   26.1452 C   0  0  0  0  0  0
  -27.0317  -30.3021   24.6117 C   0  0  0  0  0  0
  -27.6051  -32.4323   25.7466 C   0  0  0  0  0  0
  -27.5589  -37.1809   24.8470 C   0  0  0  0  0  0
  -21.4165  -29.3052   22.3687 N   0  0  0  0  0  0
  -26.4306  -37.3775   23.9408 N   0  0  0  0  0  0
  -24.6780  -31.0705   22.0945 N   0  0  0  0  0  0
  -23.4176  -28.8204   23.3067 O   0  0  0  0  0  0
  -28.4135  -26.6439   20.0822 O   0  0  0  0  0  0
  -26.5614  -34.8922   22.4683 O   0  0  0  0  0  0
  -23.5365  -32.1390   23.7391 O   0  0  0  0  0  0
  -29.5722  -19.2994   20.7267 C   0  0  0  0  0  0
  -30.9423  -19.3643   20.9003 C   0  0  0  0  0  0
  -30.1053  -17.0300   20.7924 C   0  0  0  0  0  0
  -27.3997  -20.3991   21.4883 C   0  0  0  0  0  0
  -29.1618  -22.4658   18.2797 C   0  0  0  0  0  0
  -27.9876  -25.4616   22.2197 C   0  0  0  0  0  0
  -28.1061  -24.0606   20.0266 C   0  0  0  0  0  0
  -28.6053  -20.4907   20.5358 C   0  0  1  0  0  0
  -29.1993  -22.9463   19.7486 C   0  0  1  0  0  0
  -28.5463  -25.3709   20.7880 C   0  0  1  0  0  0
  -29.1243  -17.9509   20.6625 N   0  0  0  0  0  0
  -31.7446  -20.5006   20.9904 N   0  0  0  0  0  0
  -29.8248  -15.6186   20.7949 N   0  0  0  0  0  0
  -29.2972  -21.8102   20.7400 N   0  3  0  0  0  0
  -31.6884  -17.7776   20.9919 S   0  0  0  0  0  0
  -31.4727  -12.4658   19.1329 H   0  0  0  0  0  0
  -30.3512  -11.3492   19.8607 H   0  0  0  0  0  0
  -29.7526  -11.7532   17.4552 H   0  0  0  0  0  0
  -29.6533  -13.4707   17.7455 H   0  0  0  0  0  0
  -27.8437  -11.2959   18.8412 H   0  0  0  0  0  0
  -27.3673  -12.5987   17.7857 H   0  0  0  0  0  0
  -27.6778  -14.2459   19.5279 H   0  0  0  0  0  0
  -28.6943  -12.0131   21.3614 H   0  0  0  0  0  0
  -28.4547  -13.6686   21.8477 H   0  0  0  0  0  0
  -25.2767   -9.5685   22.4758 H   0  0  0  0  0  0
  -24.0002   -7.4645   22.7477 H   0  0  0  0  0  0
  -21.0824   -8.8755   19.8971 H   0  0  0  0  0  0
  -22.3679  -10.9656   19.6163 H   0  0  0  0  0  0
  -21.2032   -7.6134   23.9707 H   0  0  0  0  0  0
  -21.1463   -6.0514   25.9079 H   0  0  0  0  0  0
  -22.0612   -2.7586   23.2860 H   0  0  0  0  0  0
  -22.4100  -11.9903   22.4792 H   0  0  0  0  0  0
  -21.1105  -13.1263   22.2610 H   0  0  0  0  0  0
  -24.6647  -15.8475   20.5127 H   0  0  0  0  0  0
  -26.2781  -15.6287   20.0720 H   0  0  0  0  0  0
  -26.7140  -32.5489   23.1136 H   0  0  0  0  0  0
  -25.0035  -33.9738   25.0413 H   0  0  0  0  0  0
  -22.7069  -31.3032   21.4012 H   0  0  0  0  0  0
  -23.3752  -35.9645   23.3307 H   0  0  0  0  0  0
  -24.3585  -36.8912   22.2057 H   0  0  0  0  0  0
  -23.7252  -37.6510   23.6653 H   0  0  0  0  0  0
  -26.0633  -31.5820   20.5947 H   0  0  0  0  0  0
  -26.8296  -30.8677   21.9857 H   0  0  0  0  0  0
  -28.1192  -29.0721   21.1396 H   0  0  0  0  0  0
  -26.0455  -25.9188   19.0601 H   0  0  0  0  0  0
  -23.9830  -27.2680   19.0567 H   0  0  0  0  0  0
  -23.7356  -30.5811   19.4008 H   0  0  0  0  0  0
  -22.7474  -29.2298   19.8667 H   0  0  0  0  0  0
  -25.1292  -36.1971   25.0824 H   0  0  0  0  0  0
  -20.9943  -28.3289   24.1408 H   0  0  0  0  0  0
  -20.5665  -26.2310   23.3612 H   0  0  0  0  0  0
  -21.6635  -26.7486   22.1204 H   0  0  0  0  0  0
  -19.6930  -25.6315   21.1234 H   0  0  0  0  0  0
  -19.6691  -27.3209   20.6736 H   0  0  0  0  0  0
  -17.4187  -26.6663   21.4025 H   0  0  0  0  0  0
  -18.0356  -26.0110   22.9029 H   0  0  0  0  0  0
  -19.7927  -30.7259   24.2298 H   0  0  0  0  0  0
  -17.5012  -31.6277   24.5174 H   0  0  0  0  0  0
  -15.5340  -30.3010   23.7649 H   0  0  0  0  0  0
  -15.8661  -28.0850   22.7047 H   0  0  0  0  0  0
  -24.5874  -30.7116   25.7783 H   0  0  0  0  0  0
  -24.8979  -32.2876   26.4951 H   0  0  0  0  0  0
  -25.8074  -30.8824   27.0185 H   0  0  0  0  0  0
  -26.2883  -29.6789   24.1125 H   0  0  0  0  0  0
  -27.4028  -29.7257   25.4606 H   0  0  0  0  0  0
  -27.8742  -30.4335   23.9319 H   0  0  0  0  0  0
  -27.2646  -33.3578   26.2132 H   0  0  0  0  0  0
  -28.3798  -32.6966   25.0254 H   0  0  0  0  0  0
  -28.0802  -31.8403   26.5303 H   0  0  0  0  0  0
  -28.2605  -38.0103   24.7471 H   0  0  0  0  0  0
  -28.1079  -36.2620   24.6339 H   0  0  0  0  0  0
  -27.2302  -37.1514   25.8874 H   0  0  0  0  0  0
  -20.9358  -29.8738   21.6849 H   0  0  0  0  0  0
  -26.0196  -38.2861   24.1378 H   0  0  0  0  0  0
  -26.8218  -19.4963   21.2939 H   0  0  0  0  0  0
  -26.7257  -21.2456   21.3581 H   0  0  0  0  0  0
  -27.7107  -20.3755   22.5319 H   0  0  0  0  0  0
  -28.1947  -22.0425   18.0064 H   0  0  0  0  0  0
  -29.9369  -21.7243   18.0792 H   0  0  0  0  0  0
  -29.3470  -23.2948   17.5966 H   0  0  0  0  0  0
  -28.2472  -24.5798   22.8070 H   0  0  0  0  0  0
  -26.9019  -25.5547   22.2303 H   0  0  0  0  0  0
  -28.3968  -26.3276   22.7406 H   0  0  0  0  0  0
  -27.2290  -23.6184   20.4994 H   0  0  0  0  0  0
  -27.7427  -24.3927   19.0546 H   0  0  0  0  0  0
  -28.2189  -20.4261   19.5224 H   0  0  0  0  0  0
  -30.1660  -23.4423   19.8477 H   0  0  0  0  0  0
  -29.6265  -25.3000   20.9221 H   0  0  0  0  0  0
  -32.1794  -20.5474   21.9109 H   0  0  0  0  0  0
  -32.5430  -20.3990   20.3664 H   0  0  0  0  0  0
  -28.8626  -15.3703   20.9527 H   0  0  0  0  0  0
  -30.2764  -21.5067   20.7292 H   0  0  0  0  0  0
  -29.1476  -22.1337   21.6804 H   0  0  0  0  0  0
  1 25  1  0  0  0
  1 30  2  0  0  0
  1 83  1  0  0  0
  2  3  1  0  0  0
  2 25  1  0  0  0
  2 86  1  0  0  0
  2 87  1  0  0  0
  3  4  1  0  0  0
  3 88  1  0  0  0
  3 89  1  0  0  0
  4  5  1  0  0  0
  4 90  1  0  0  0
  4 91  1  0  0  0
  5  6  1  0  0  0
  5 26  1  0  0  0
  5 92  1  0  0  0
  6 25  1  0  0  0
  6 93  1  0  0  0
  6 94  1  0  0  0
  7  8  2  0  0  0
  7 26  1  0  0  0
  7 29  1  0  0  0
  8  9  1  0  0  0
  8 22  1  0  0  0
  9 10  1  0  0  0
  9 27  2  0  0  0
 10 11  2  0  0  0
 10 15  1  0  0  0
 11 12  1  0  0  0
 11 95  1  0  0  0
 12 13  2  0  0  0
 12 96  1  0  0  0
 13 14  1  0  0  0
 13 31  1  0  0  0
 14 15  2  0  0  0
 14 97  1  0  0  0
 15 98  1  0  0  0
 16 17  2  0  0  0
 16 21  1  0  0  0
 16 31  1  0  0  0
 17 18  1  0  0  0
 17 99  1  0  0  0
 18 19  2  0  0  0
 18100  1  0  0  0
 19 20  1  0  0  0
 19 24  1  0  0  0
 20 21  2  0  0  0
 20101  1  0  0  0
 21 23  1  0  0  0
 22 28  1  0  0  0
 22 32  2  0  0  0
 26 27  1  0  0  0
 28102  1  0  0  0
 28103  1  0  0  0
 29104  1  0  0  0
 29105  1  0  0  0
 33 34  1  0  0  0
 33 66  1  0  0  0
 33 70  2  0  0  0
 34 36  1  0  0  0
 34 59  1  0  0  0
 34106  1  0  0  0
 35 44  2  0  0  0
 35 45  1  0  0  0
 35 68  1  0  0  0
 36 56  1  0  0  0
 36107  1  0  0  0
 37 39  1  0  0  0
 37 47  1  0  0  0
 37 66  1  0  0  0
 37108  1  0  0  0
 38 43  2  0  0  0
 38 46  1  0  0  0
 38 47  1  0  0  0
 39 64  1  0  0  0
 39 67  2  0  0  0
 40 52  1  0  0  0
 40 53  2  0  0  0
 40 58  1  0  0  0
 41109  1  0  0  0
 41110  1  0  0  0
 41111  1  0  0  0
 41 48  1  0  0  0
 42 43  1  0  0  0
 42 66  1  0  0  0
 42112  1  0  0  0
 42113  1  0  0  0
 43 44  1  0  0  0
 44114  1  0  0  0
 45 46  2  0  0  0
 45115  1  0  0  0
 46116  1  0  0  0
 47117  1  0  0  0
 47118  1  0  0  0
 48 56  1  0  0  0
 48 65  1  0  0  0
 48119  1  0  0  0
 49 50  1  0  0  0
 49 53  1  0  0  0
 49 64  1  0  0  0
 49120  1  0  0  0
 50 51  1  0  0  0
 50121  1  0  0  0
 50122  1  0  0  0
 51 52  1  0  0  0
 51123  1  0  0  0
 51124  1  0  0  0
 52125  1  0  0  0
 52126  1  0  0  0
 53 54  1  0  0  0
 54 55  2  0  0  0
 54127  1  0  0  0
 55 57  1  0  0  0
 55128  1  0  0  0
 56 69  2  0  0  0
 57 58  2  0  0  0
 57129  1  0  0  0
 58130  1  0  0  0
 59 60  1  0  0  0
 59 61  1  0  0  0
 59 62  1  0  0  0
 60131  1  0  0  0
 60132  1  0  0  0
 60133  1  0  0  0
 61134  1  0  0  0
 61135  1  0  0  0
 61136  1  0  0  0
 62137  1  0  0  0
 62138  1  0  0  0
 62139  1  0  0  0
 63 65  1  0  0  0
 63140  1  0  0  0
 63141  1  0  0  0
 63142  1  0  0  0
 64143  1  0  0  0
 65144  1  0  0  0
 68 80  1  0  0  0
 71 72  2  0  0  0
 71 78  1  0  0  0
 71 81  1  0  0  0
 72 82  1  0  0  0
 72 85  1  0  0  0
 73 81  2  0  0  0
 73 83  1  0  0  0
 73 85  1  0  0  0
 74145  1  0  0  0
 74146  1  0  0  0
 74147  1  0  0  0
 74 78  1  0  0  0
 75148  1  0  0  0
 75149  1  0  0  0
 75150  1  0  0  0
 75 79  1  0  0  0
 76151  1  0  0  0
 76152  1  0  0  0
 76153  1  0  0  0
 76 80  1  0  0  0
 77 79  1  0  0  0
 77 80  1  0  0  0
 77154  1  0  0  0
 77155  1  0  0  0
 78 84  1  0  0  0
 78156  1  0  0  0
 79 84  1  0  0  0
 79157  1  0  0  0
 80158  1  0  0  0
 82159  1  0  0  0
 82160  1  0  0  0
 83161  1  0  0  0
 84162  1  0  0  0
 84163  1  0  0  0
M  CHG  1  84   1
M  ISO  4   1 100  68 101  80 101  83 100
M  END
> <chiral flag>
0

> <version>
0

> <s_m_source_file>
/data/baiqing/PycharmProjects/Reinvent-master-3.2/result/LINK_invent/BTK/process_docking_weight1_custom_product_contain_oxygen_bond_distance_aromatic_linkinvent_7_9_3/rearranged_h_0193.sdf

> <i_m_source_file_index>
66

> <r_mmod_Potential_Energy-OPLS-2005>
-168.249542236328

> <r_mmod_Stretch_Energy-OPLS-2005>
56.3523483276367

> <r_mmod_Bend_Energy-OPLS-2005>
141.854598999023

> <r_mmod_Torsional_Energy-OPLS-2005>
273.340789794922

> <r_mmod_Improper_Torsional_Energy-OPLS-2005>
12.8000020980835

> <r_mmod_Van_der_Waal_Energy-OPLS-2005>
129.993713378906

> <r_mmod_Electrostatic_Energy-OPLS-2005>
-372.857452392578

> <r_mmod_Solvation_Energy-OPLS-2005>
-435.716217041016

> <b_mmod_Minimization_Converged-OPLS-2005>
0

> <r_mmod_RMS_Derivative-OPLS-2005>
2.91103339195251

$$$$
66
                    3D
 Structure written by MMmdl.
155163  0  0  1  0            999 V2000
  -30.6900  -14.4944   20.5116 C   0  0  0  0  0  0
  -30.4244  -12.3063   19.4238 C   0  0  0  0  0  0
  -29.4987  -12.5072   18.2032 C   0  0  0  0  0  0
  -28.0159  -12.3852   18.6107 C   0  0  0  0  0  0
  -27.6636  -13.2159   19.8747 C   0  0  2  0  0  0
  -28.7106  -13.0050   20.9952 C   0  0  0  0  0  0
  -25.2605  -13.8203   20.5693 C   0  0  0  0  0  0
  -24.1863  -13.0459   20.9192 C   0  0  0  0  0  0
  -24.6427  -11.6924   20.8750 C   0  0  0  0  0  0
  -23.9091  -10.4298   21.0373 C   0  0  0  0  0  0
  -24.3634   -9.4221   21.9146 C   0  0  0  0  0  0
  -23.6314   -8.2260   22.0740 C   0  0  0  0  0  0
  -22.4302   -8.0290   21.3545 C   0  0  0  0  0  0
  -21.9931   -9.0263   20.4639 C   0  0  0  0  0  0
  -22.7266  -10.2141   20.3023 C   0  0  0  0  0  0
  -21.6855   -6.0740   22.5272 C   0  0  0  0  0  0
  -21.4011   -6.5636   23.8212 C   0  0  0  0  0  0
  -21.3677   -5.6783   24.9170 C   0  0  0  0  0  0
  -21.6042   -4.3050   24.7217 C   0  0  0  0  0  0
  -21.8822   -3.8142   23.4339 C   0  0  0  0  0  0
  -21.9196   -4.6963   22.3392 C   0  0  0  0  0  0
  -22.7868  -13.5239   21.1838 C   0  0  0  0  0  0
  -22.1649   -4.2148   21.0968 F   0  0  0  0  0  0
  -21.5644   -3.4530   25.7728 F   0  0  0  0  0  0
  -30.0400  -13.2994   20.4401 N   0  0  0  0  0  0
  -26.3054  -12.9372   20.3378 N   0  0  0  0  0  0
  -25.9355  -11.6529   20.5775 N   0  0  0  0  0  0
  -22.0522  -12.8232   22.0404 N   0  0  0  0  0  0
  -25.4337  -15.1922   20.4055 N   0  0  0  0  0  0
  -31.8494  -14.6438   20.1131 O   0  0  0  0  0  0
  -21.6657   -6.8899   21.4242 O   0  0  0  0  0  0
  -22.3527  -14.5517   20.6655 O   0  0  0  0  0  0
  -24.6136  -31.8672   23.2051 C   0  0  0  0  0  0
  -25.9014  -32.4832   23.8350 C   0  0  1  0  0  0
  -27.2085  -27.4129   20.1128 C   0  0  0  0  0  0
  -25.5848  -33.8634   24.2248 N   0  0  0  0  0  0
  -23.4018  -30.4897   21.5498 C   0  0  2  0  0  0
  -24.8434  -28.9552   20.1126 C   0  0  0  0  0  0
  -22.7413  -29.4656   22.5019 C   0  0  0  0  0  0
  -18.0248  -28.1387   22.8483 C   0  0  0  0  0  0
  -24.1470  -36.7347   23.2636 C   0  0  0  0  0  0
  -25.9306  -30.8329   21.3537 C   0  0  0  0  0  0
  -26.0079  -29.4653   20.7027 C   0  0  0  0  0  0
  -27.2009  -28.7048   20.6921 C   0  0  0  0  0  0
  -26.0315  -26.9234   19.5107 C   0  0  0  0  0  0
  -24.8512  -27.6854   19.5106 C   0  0  0  0  0  0
  -23.6057  -29.8208   20.1647 C   0  0  0  0  0  0
  -25.4100  -36.3132   24.0319 C   0  0  1  0  0  0
  -20.5837  -28.3668   23.1339 C   0  0  2  0  0  0
  -20.6751  -26.9411   22.5437 C   0  0  0  0  0  0
  -19.5723  -26.6390   21.5240 C   0  0  0  0  0  0
  -18.1905  -26.7925   22.1645 C   0  0  0  0  0  0
  -19.1498  -28.8844   23.2893 C   0  0  0  0  0  0
  -18.9447  -30.1461   23.8902 C   0  0  0  0  0  0
  -17.6458  -30.6604   24.0578 C   0  0  0  0  0  0
  -25.9045  -34.9504   23.5098 C   0  0  0  0  0  0
  -16.5343  -29.9128   23.6324 C   0  0  0  0  0  0
  -16.7245  -28.6546   23.0321 C   0  0  0  0  0  0
  -26.4401  -31.6630   25.0718 C   0  0  0  0  0  0
  -25.3634  -31.3819   26.1463 C   0  0  0  0  0  0
  -27.0214  -30.3049   24.6136 C   0  0  0  0  0  0
  -27.5942  -32.4375   25.7511 C   0  0  0  0  0  0
  -27.5585  -37.1817   24.8442 C   0  0  0  0  0  0
  -21.4137  -29.3025   22.3751 N   0  0  0  0  0  0
  -26.4272  -37.3839   23.9427 N   0  0  0  0  0  0
  -24.6688  -31.0757   22.0963 N   0  0  0  0  0  0
  -23.4182  -28.8207   23.3076 O   0  0  0  0  0  0
  -28.3301  -26.6150   20.1492 O   0  0  0  0  0  0
  -26.5659  -34.8965   22.4696 O   0  0  0  0  0  0
  -23.5326  -32.1439   23.7439 O   0  0  0  0  0  0
  -29.6299  -17.8264   17.9020 C   0  0  0  0  0  0
  -29.8780  -16.6929   18.6879 C   0  0  0  0  0  0
  -29.2973  -19.0256   18.5424 C   0  0  0  0  0  0
  -29.7891  -16.7667   20.0980 C   0  0  0  0  0  0
  -29.2465  -19.0647   19.9481 C   0  0  0  0  0  0
  -28.5224  -24.1023   20.0101 C   0  0  0  0  0  0
  -28.7939  -21.5234   19.8916 C   0  0  0  0  0  0
  -28.1453  -25.3580   20.8446 C   0  0  0  0  0  0
  -28.5333  -22.7534   20.7989 C   0  0  1  0  0  0
  -29.4787  -17.9551   20.6980 N   0  0  0  0  0  0
  -29.9262  -15.5557   20.8538 N   0  0  0  0  0  0
  -28.9463  -20.2597   20.6306 N   0  0  0  0  0  0
  -29.5847  -22.7677   21.7505 O   0  0  0  0  0  0
  -31.4674  -12.4059   19.1201 H   0  0  0  0  0  0
  -30.3261  -11.2938   19.8205 H   0  0  0  0  0  0
  -29.7379  -11.7845   17.4217 H   0  0  0  0  0  0
  -29.6751  -13.4915   17.7680 H   0  0  0  0  0  0
  -27.8047  -11.3307   18.7858 H   0  0  0  0  0  0
  -27.3748  -12.6847   17.7807 H   0  0  0  0  0  0
  -27.7033  -14.2648   19.5808 H   0  0  0  0  0  0
  -28.6861  -11.9712   21.3420 H   0  0  0  0  0  0
  -28.4854  -13.6192   21.8680 H   0  0  0  0  0  0
  -25.2774   -9.5706   22.4733 H   0  0  0  0  0  0
  -24.0027   -7.4651   22.7453 H   0  0  0  0  0  0
  -21.0870   -8.8786   19.8949 H   0  0  0  0  0  0
  -22.3711  -10.9677   19.6138 H   0  0  0  0  0  0
  -21.1983   -7.6136   23.9719 H   0  0  0  0  0  0
  -21.1500   -6.0504   25.9082 H   0  0  0  0  0  0
  -22.0587   -2.7606   23.2829 H   0  0  0  0  0  0
  -22.4106  -11.9893   22.4814 H   0  0  0  0  0  0
  -21.1115  -13.1226   22.2573 H   0  0  0  0  0  0
  -24.6768  -15.8574   20.5264 H   0  0  0  0  0  0
  -26.2861  -15.6259   20.0767 H   0  0  0  0  0  0
  -26.7104  -32.5520   23.1133 H   0  0  0  0  0  0
  -24.9869  -33.9776   25.0295 H   0  0  0  0  0  0
  -22.6908  -31.3075   21.4125 H   0  0  0  0  0  0
  -23.3753  -35.9661   23.3250 H   0  0  0  0  0  0
  -24.3575  -36.9025   22.2066 H   0  0  0  0  0  0
  -23.7191  -37.6520   23.6697 H   0  0  0  0  0  0
  -26.0286  -31.5960   20.5795 H   0  0  0  0  0  0
  -26.8241  -30.8960   21.9633 H   0  0  0  0  0  0
  -28.1002  -29.0879   21.1549 H   0  0  0  0  0  0
  -26.0227  -25.9385   19.0651 H   0  0  0  0  0  0
  -23.9534  -27.2836   19.0607 H   0  0  0  0  0  0
  -23.7059  -30.5936   19.4022 H   0  0  0  0  0  0
  -22.7300  -29.2374   19.8747 H   0  0  0  0  0  0
  -25.1270  -36.1988   25.0810 H   0  0  0  0  0  0
  -20.9897  -28.3233   24.1474 H   0  0  0  0  0  0
  -20.5692  -26.2286   23.3631 H   0  0  0  0  0  0
  -21.6625  -26.7501   22.1213 H   0  0  0  0  0  0
  -19.6912  -25.6312   21.1255 H   0  0  0  0  0  0
  -19.6653  -27.3215   20.6782 H   0  0  0  0  0  0
  -17.4188  -26.6651   21.4048 H   0  0  0  0  0  0
  -18.0300  -26.0079   22.9039 H   0  0  0  0  0  0
  -19.7950  -30.7258   24.2256 H   0  0  0  0  0  0
  -17.5048  -31.6281   24.5208 H   0  0  0  0  0  0
  -15.5353  -30.3062   23.7665 H   0  0  0  0  0  0
  -15.8628  -28.0927   22.6990 H   0  0  0  0  0  0
  -24.5729  -30.7249   25.7810 H   0  0  0  0  0  0
  -24.8926  -32.3036   26.4908 H   0  0  0  0  0  0
  -25.7936  -30.8970   27.0230 H   0  0  0  0  0  0
  -26.2791  -29.6894   24.1051 H   0  0  0  0  0  0
  -27.3780  -29.7221   25.4635 H   0  0  0  0  0  0
  -27.8695  -30.4324   23.9410 H   0  0  0  0  0  0
  -27.2478  -33.3630   26.2128 H   0  0  0  0  0  0
  -28.3740  -32.7026   25.0360 H   0  0  0  0  0  0
  -28.0615  -31.8501   26.5421 H   0  0  0  0  0  0
  -28.2559  -38.0162   24.7597 H   0  0  0  0  0  0
  -28.1117  -36.2714   24.6109 H   0  0  0  0  0  0
  -27.2333  -37.1277   25.8844 H   0  0  0  0  0  0
  -20.9321  -29.8723   21.6935 H   0  0  0  0  0  0
  -26.0152  -38.2900   24.1500 H   0  0  0  0  0  0
  -29.6818  -17.7777   16.8218 H   0  0  0  0  0  0
  -30.1138  -15.7704   18.1808 H   0  0  0  0  0  0
  -29.0931  -19.8920   17.9301 H   0  0  0  0  0  0
  -29.4949  -24.2583   19.5438 H   0  0  0  0  0  0
  -27.8112  -24.0186   19.1876 H   0  0  0  0  0  0
  -29.6909  -21.6984   19.2957 H   0  0  0  0  0  0
  -27.9647  -21.4228   19.1898 H   0  0  0  0  0  0
  -28.7711  -25.4029   21.7348 H   0  0  0  0  0  0
  -27.1277  -25.2348   21.2223 H   0  0  0  0  0  0
  -27.5788  -22.6273   21.3185 H   0  0  0  0  0  0
  -29.1349  -15.3387   21.4344 H   0  0  0  0  0  0
  -29.1892  -20.3448   21.6125 H   0  0  0  0  0  0
  -29.4231  -23.4783   22.3638 H   0  0  0  0  0  0
  1 25  1  0  0  0
  1 30  2  0  0  0
  1 81  1  0  0  0
  2  3  1  0  0  0
  2 25  1  0  0  0
  2 84  1  0  0  0
  2 85  1  0  0  0
  3  4  1  0  0  0
  3 86  1  0  0  0
  3 87  1  0  0  0
  4  5  1  0  0  0
  4 88  1  0  0  0
  4 89  1  0  0  0
  5  6  1  0  0  0
  5 26  1  0  0  0
  5 90  1  0  0  0
  6 25  1  0  0  0
  6 91  1  0  0  0
  6 92  1  0  0  0
  7  8  2  0  0  0
  7 26  1  0  0  0
  7 29  1  0  0  0
  8  9  1  0  0  0
  8 22  1  0  0  0
  9 10  1  0  0  0
  9 27  2  0  0  0
 10 11  2  0  0  0
 10 15  1  0  0  0
 11 12  1  0  0  0
 11 93  1  0  0  0
 12 13  2  0  0  0
 12 94  1  0  0  0
 13 14  1  0  0  0
 13 31  1  0  0  0
 14 15  2  0  0  0
 14 95  1  0  0  0
 15 96  1  0  0  0
 16 17  2  0  0  0
 16 21  1  0  0  0
 16 31  1  0  0  0
 17 18  1  0  0  0
 17 97  1  0  0  0
 18 19  2  0  0  0
 18 98  1  0  0  0
 19 20  1  0  0  0
 19 24  1  0  0  0
 20 21  2  0  0  0
 20 99  1  0  0  0
 21 23  1  0  0  0
 22 28  1  0  0  0
 22 32  2  0  0  0
 26 27  1  0  0  0
 28100  1  0  0  0
 28101  1  0  0  0
 29102  1  0  0  0
 29103  1  0  0  0
 33 34  1  0  0  0
 33 66  1  0  0  0
 33 70  2  0  0  0
 34 36  1  0  0  0
 34 59  1  0  0  0
 34104  1  0  0  0
 35 44  2  0  0  0
 35 45  1  0  0  0
 35 68  1  0  0  0
 36 56  1  0  0  0
 36105  1  0  0  0
 37 39  1  0  0  0
 37 47  1  0  0  0
 37 66  1  0  0  0
 37106  1  0  0  0
 38 43  2  0  0  0
 38 46  1  0  0  0
 38 47  1  0  0  0
 39 64  1  0  0  0
 39 67  2  0  0  0
 40 52  1  0  0  0
 40 53  2  0  0  0
 40 58  1  0  0  0
 41107  1  0  0  0
 41108  1  0  0  0
 41109  1  0  0  0
 41 48  1  0  0  0
 42 43  1  0  0  0
 42 66  1  0  0  0
 42110  1  0  0  0
 42111  1  0  0  0
 43 44  1  0  0  0
 44112  1  0  0  0
 45 46  2  0  0  0
 45113  1  0  0  0
 46114  1  0  0  0
 47115  1  0  0  0
 47116  1  0  0  0
 48 56  1  0  0  0
 48 65  1  0  0  0
 48117  1  0  0  0
 49 50  1  0  0  0
 49 53  1  0  0  0
 49 64  1  0  0  0
 49118  1  0  0  0
 50 51  1  0  0  0
 50119  1  0  0  0
 50120  1  0  0  0
 51 52  1  0  0  0
 51121  1  0  0  0
 51122  1  0  0  0
 52123  1  0  0  0
 52124  1  0  0  0
 53 54  1  0  0  0
 54 55  2  0  0  0
 54125  1  0  0  0
 55 57  1  0  0  0
 55126  1  0  0  0
 56 69  2  0  0  0
 57 58  2  0  0  0
 57127  1  0  0  0
 58128  1  0  0  0
 59 60  1  0  0  0
 59 61  1  0  0  0
 59 62  1  0  0  0
 60129  1  0  0  0
 60130  1  0  0  0
 60131  1  0  0  0
 61132  1  0  0  0
 61133  1  0  0  0
 61134  1  0  0  0
 62135  1  0  0  0
 62136  1  0  0  0
 62137  1  0  0  0
 63 65  1  0  0  0
 63138  1  0  0  0
 63139  1  0  0  0
 63140  1  0  0  0
 64141  1  0  0  0
 65142  1  0  0  0
 68 78  1  0  0  0
 71 72  2  0  0  0
 71 73  1  0  0  0
 71143  1  0  0  0
 72 74  1  0  0  0
 72144  1  0  0  0
 73 75  2  0  0  0
 73145  1  0  0  0
 74 80  2  0  0  0
 74 81  1  0  0  0
 75 80  1  0  0  0
 75 82  1  0  0  0
 76 78  1  0  0  0
 76 79  1  0  0  0
 76146  1  0  0  0
 76147  1  0  0  0
 77 79  1  0  0  0
 77 82  1  0  0  0
 77148  1  0  0  0
 77149  1  0  0  0
 78150  1  0  0  0
 78151  1  0  0  0
 79 83  1  0  0  0
 79152  1  0  0  0
 81153  1  0  0  0
 82154  1  0  0  0
 83155  1  0  0  0
M  ISO  4   1 100  68 101  78 101  81 100
M  END
> <chiral flag>
0

> <version>
0

> <s_m_source_file>
/data/baiqing/PycharmProjects/Reinvent-master-3.2/result/LINK_invent/BTK/process_docking_weight1_custom_product_contain_oxygen_bond_distance_aromatic_linkinvent_7_9_3/rearranged_h_0193.sdf

> <i_m_source_file_index>
67

> <r_mmod_Potential_Energy-OPLS-2005>
-272.661346435547

> <r_mmod_Stretch_Energy-OPLS-2005>
41.2264938354492

> <r_mmod_Bend_Energy-OPLS-2005>
100.214324951172

> <r_mmod_Torsional_Energy-OPLS-2005>
281.6298828125

> <r_mmod_Improper_Torsional_Energy-OPLS-2005>
8.03507137298584

> <r_mmod_Van_der_Waal_Energy-OPLS-2005>
157.418533325195

> <r_mmod_Electrostatic_Energy-OPLS-2005>
-633.471313476562

> <r_mmod_Solvation_Energy-OPLS-2005>
-247.215301513672

> <b_mmod_Minimization_Converged-OPLS-2005>
0

> <r_mmod_RMS_Derivative-OPLS-2005>
3.92035269737244

$$$$
67
                    3D
 Structure written by MMmdl.
168176  0  0  1  0            999 V2000
  -30.7022  -14.4767   20.5556 C   0  0  0  0  0  0
  -30.4312  -12.2994   19.4265 C   0  0  0  0  0  0
  -29.5013  -12.4947   18.2109 C   0  0  0  0  0  0
  -28.0177  -12.3704   18.6171 C   0  0  0  0  0  0
  -27.6652  -13.2070   19.8768 C   0  0  2  0  0  0
  -28.7095  -12.9792   20.9949 C   0  0  0  0  0  0
  -25.2644  -13.8158   20.5753 C   0  0  0  0  0  0
  -24.1861  -13.0433   20.9215 C   0  0  0  0  0  0
  -24.6404  -11.6899   20.8730 C   0  0  0  0  0  0
  -23.9047  -10.4296   21.0413 C   0  0  0  0  0  0
  -24.3610   -9.4222   21.9193 C   0  0  0  0  0  0
  -23.6311   -8.2243   22.0743 C   0  0  0  0  0  0
  -22.4283   -8.0284   21.3546 C   0  0  0  0  0  0
  -21.9916   -9.0248   20.4634 C   0  0  0  0  0  0
  -22.7220  -10.2146   20.3059 C   0  0  0  0  0  0
  -21.6847   -6.0747   22.5300 C   0  0  0  0  0  0
  -21.3983   -6.5643   23.8238 C   0  0  0  0  0  0
  -21.3668   -5.6793   24.9196 C   0  0  0  0  0  0
  -21.6060   -4.3061   24.7238 C   0  0  0  0  0  0
  -21.8811   -3.8159   23.4352 C   0  0  0  0  0  0
  -21.9188   -4.6976   22.3415 C   0  0  0  0  0  0
  -22.7886  -13.5261   21.1862 C   0  0  0  0  0  0
  -22.1662   -4.2180   21.0988 F   0  0  0  0  0  0
  -21.5656   -3.4530   25.7738 F   0  0  0  0  0  0
  -30.0427  -13.2874   20.4450 N   0  0  0  0  0  0
  -26.3063  -12.9310   20.3395 N   0  0  0  0  0  0
  -25.9344  -11.6467   20.5776 N   0  0  0  0  0  0
  -22.0492  -12.8248   22.0390 N   0  0  0  0  0  0
  -25.4431  -15.1888   20.4298 N   0  0  0  0  0  0
  -31.8384  -14.6449   20.1045 O   0  0  0  0  0  0
  -21.6640   -6.8885   21.4254 O   0  0  0  0  0  0
  -22.3583  -14.5552   20.6696 O   0  0  0  0  0  0
  -24.6153  -31.8686   23.2099 C   0  0  0  0  0  0
  -25.9045  -32.4826   23.8398 C   0  0  1  0  0  0
  -27.2364  -27.4340   20.1024 C   0  0  0  0  0  0
  -25.5899  -33.8621   24.2319 N   0  0  0  0  0  0
  -23.4032  -30.4919   21.5502 C   0  0  2  0  0  0
  -24.8537  -28.9605   20.1089 C   0  0  0  0  0  0
  -22.7419  -29.4638   22.4985 C   0  0  0  0  0  0
  -18.0284  -28.1368   22.8518 C   0  0  0  0  0  0
  -24.1495  -36.7320   23.2634 C   0  0  0  0  0  0
  -25.9301  -30.8367   21.3605 C   0  0  0  0  0  0
  -26.0133  -29.4730   20.7039 C   0  0  0  0  0  0
  -27.2126  -28.7214   20.6899 C   0  0  0  0  0  0
  -26.0651  -26.9437   19.4855 C   0  0  0  0  0  0
  -24.8765  -27.6987   19.4883 C   0  0  0  0  0  0
  -23.6124  -29.8248   20.1641 C   0  0  0  0  0  0
  -25.4111  -36.3102   24.0331 C   0  0  1  0  0  0
  -20.5875  -28.3650   23.1320 C   0  0  2  0  0  0
  -20.6800  -26.9400   22.5351 C   0  0  0  0  0  0
  -19.5713  -26.6380   21.5212 C   0  0  0  0  0  0
  -18.1950  -26.7880   22.1743 C   0  0  0  0  0  0
  -19.1534  -28.8819   23.2930 C   0  0  0  0  0  0
  -18.9474  -30.1419   23.8965 C   0  0  0  0  0  0
  -17.6487  -30.6559   24.0637 C   0  0  0  0  0  0
  -25.9039  -34.9472   23.5117 C   0  0  0  0  0  0
  -16.5368  -29.9075   23.6399 C   0  0  0  0  0  0
  -16.7272  -28.6514   23.0363 C   0  0  0  0  0  0
  -26.4468  -31.6601   25.0716 C   0  0  0  0  0  0
  -25.3727  -31.3711   26.1466 C   0  0  0  0  0  0
  -27.0291  -30.3040   24.6067 C   0  0  0  0  0  0
  -27.6045  -32.4315   25.7472 C   0  0  0  0  0  0
  -27.5581  -37.1815   24.8456 C   0  0  0  0  0  0
  -21.4140  -29.3039   22.3735 N   0  0  0  0  0  0
  -26.4294  -37.3794   23.9410 N   0  0  0  0  0  0
  -24.6679  -31.0781   22.1009 N   0  0  0  0  0  0
  -23.4201  -28.8185   23.3025 O   0  0  0  0  0  0
  -28.3548  -26.6268   20.1647 O   0  0  0  0  0  0
  -26.5591  -34.8915   22.4675 O   0  0  0  0  0  0
  -23.5337  -32.1445   23.7484 O   0  0  0  0  0  0
  -29.1497  -17.7818   21.3077 C   0  0  0  0  0  0
  -30.8271  -18.8719   20.4552 C   0  0  0  0  0  0
  -30.1377  -16.8923   20.9493 C   0  0  0  0  0  0
  -26.0403  -22.1870   21.7798 C   0  0  0  0  0  0
  -27.4067  -26.5361   23.3601 C   0  0  0  0  0  0
  -29.5876  -25.2559   23.3776 C   0  0  0  0  0  0
  -27.4053  -22.7668   22.1771 C   0  0  0  0  0  0
  -29.4449  -21.6662   21.0833 C   0  0  0  0  0  0
  -29.0213  -24.2560   20.6658 C   0  0  0  0  0  0
  -28.7598  -20.2658   21.0189 C   0  0  0  0  0  0
  -28.6353  -26.1200   22.5219 C   0  0  0  0  0  0
  -28.4054  -22.8371   20.9850 C   0  0  2  0  0  0
  -28.2377  -25.5404   21.1200 C   0  0  1  0  0  0
  -31.2229  -17.5943   20.4203 N   0  0  0  0  0  0
  -29.5899  -19.0575   20.9489 N   0  0  0  0  0  0
  -29.9678  -15.4811   21.0776 N   0  0  0  0  0  0
  -31.4756  -12.3941   19.1231 H   0  0  0  0  0  0
  -30.3368  -11.2874   19.8237 H   0  0  0  0  0  0
  -29.7359  -11.7631   17.4361 H   0  0  0  0  0  0
  -29.6846  -13.4763   17.7723 H   0  0  0  0  0  0
  -27.8106  -11.3156   18.8043 H   0  0  0  0  0  0
  -27.3781  -12.6566   17.7830 H   0  0  0  0  0  0
  -27.7080  -14.2560   19.5828 H   0  0  0  0  0  0
  -28.6815  -11.9368   21.3216 H   0  0  0  0  0  0
  -28.4778  -13.5673   21.8843 H   0  0  0  0  0  0
  -25.2752   -9.5722   22.4771 H   0  0  0  0  0  0
  -24.0052   -7.4619   22.7434 H   0  0  0  0  0  0
  -21.0869   -8.8733   19.8928 H   0  0  0  0  0  0
  -22.3667  -10.9676   19.6171 H   0  0  0  0  0  0
  -21.1922   -7.6143   23.9755 H   0  0  0  0  0  0
  -21.1525   -6.0515   25.9113 H   0  0  0  0  0  0
  -22.0582   -2.7622   23.2839 H   0  0  0  0  0  0
  -22.4042  -11.9933   22.4841 H   0  0  0  0  0  0
  -21.1105  -13.1303   22.2532 H   0  0  0  0  0  0
  -24.6926  -15.8540   20.5797 H   0  0  0  0  0  0
  -26.3143  -15.6297   20.1610 H   0  0  0  0  0  0
  -26.7104  -32.5535   23.1156 H   0  0  0  0  0  0
  -25.0075  -33.9802   25.0474 H   0  0  0  0  0  0
  -22.6929  -31.3093   21.4111 H   0  0  0  0  0  0
  -23.3748  -35.9655   23.3287 H   0  0  0  0  0  0
  -24.3592  -36.8947   22.2052 H   0  0  0  0  0  0
  -23.7251  -37.6518   23.6665 H   0  0  0  0  0  0
  -26.0360  -31.6051   20.5938 H   0  0  0  0  0  0
  -26.8206  -30.8946   21.9723 H   0  0  0  0  0  0
  -28.1013  -29.1101   21.1656 H   0  0  0  0  0  0
  -26.0693  -25.9672   19.0208 H   0  0  0  0  0  0
  -23.9872  -27.3027   19.0178 H   0  0  0  0  0  0
  -23.7251  -30.6032   19.4092 H   0  0  0  0  0  0
  -22.7359  -29.2483   19.8616 H   0  0  0  0  0  0
  -25.1289  -36.1949   25.0819 H   0  0  0  0  0  0
  -20.9995  -28.3186   24.1428 H   0  0  0  0  0  0
  -21.6637  -26.7509   22.1012 H   0  0  0  0  0  0
  -20.5839  -26.2224   23.3516 H   0  0  0  0  0  0
  -19.6833  -25.6311   21.1161 H   0  0  0  0  0  0
  -19.6544  -27.3221   20.6754 H   0  0  0  0  0  0
  -17.4147  -26.6461   21.4259 H   0  0  0  0  0  0
  -18.0537  -26.0130   22.9280 H   0  0  0  0  0  0
  -19.7961  -30.7204   24.2339 H   0  0  0  0  0  0
  -17.5056  -31.6223   24.5288 H   0  0  0  0  0  0
  -15.5381  -30.2981   23.7780 H   0  0  0  0  0  0
  -15.8656  -28.0869   22.7063 H   0  0  0  0  0  0
  -24.5865  -30.7103   25.7791 H   0  0  0  0  0  0
  -24.8965  -32.2880   26.4949 H   0  0  0  0  0  0
  -25.8076  -30.8831   27.0194 H   0  0  0  0  0  0
  -26.2826  -29.6807   24.1121 H   0  0  0  0  0  0
  -27.4076  -29.7265   25.4513 H   0  0  0  0  0  0
  -27.8659  -30.4365   23.9199 H   0  0  0  0  0  0
  -27.2660  -33.3598   26.2079 H   0  0  0  0  0  0
  -28.3839  -32.6900   25.0294 H   0  0  0  0  0  0
  -28.0724  -31.8416   26.5357 H   0  0  0  0  0  0
  -28.2593  -38.0124   24.7520 H   0  0  0  0  0  0
  -28.1095  -36.2662   24.6263 H   0  0  0  0  0  0
  -27.2310  -37.1433   25.8860 H   0  0  0  0  0  0
  -20.9288  -29.8812   21.7007 H   0  0  0  0  0  0
  -26.0176  -38.2861   24.1413 H   0  0  0  0  0  0
  -28.1671  -17.6191   21.7266 H   0  0  0  0  0  0
  -31.4444  -19.6785   20.0830 H   0  0  0  0  0  0
  -25.3519  -22.2066   22.6246 H   0  0  0  0  0  0
  -26.1206  -21.1532   21.4448 H   0  0  0  0  0  0
  -25.5865  -22.7606   20.9696 H   0  0  0  0  0  0
  -27.6846  -27.2772   24.1103 H   0  0  0  0  0  0
  -26.9679  -25.6894   23.8846 H   0  0  0  0  0  0
  -26.6164  -26.9791   22.7544 H   0  0  0  0  0  0
  -29.7355  -25.6924   24.3658 H   0  0  0  0  0  0
  -30.5767  -25.1743   22.9268 H   0  0  0  0  0  0
  -29.2110  -24.2477   23.5347 H   0  0  0  0  0  0
  -27.8216  -22.1724   22.9917 H   0  0  0  0  0  0
  -27.2202  -23.7309   22.6360 H   0  0  0  0  0  0
  -30.0074  -21.7515   22.0154 H   0  0  0  0  0  0
  -30.1745  -21.7593   20.2802 H   0  0  0  0  0  0
  -29.0905  -24.3079   19.5774 H   0  0  0  0  0  0
  -30.0626  -24.3064   20.9774 H   0  0  0  0  0  0
  -28.0951  -20.2347   20.1552 H   0  0  0  0  0  0
  -28.1224  -20.1450   21.8936 H   0  0  0  0  0  0
  -29.1954  -27.0357   22.3265 H   0  0  0  0  0  0
  -27.8213  -22.6207   20.0891 H   0  0  0  0  0  0
  -27.1873  -25.2506   21.1428 H   0  0  0  0  0  0
  -29.0732  -15.1889   21.4362 H   0  0  0  0  0  0
  1 25  1  0  0  0
  1 30  2  0  0  0
  1 86  1  0  0  0
  2  3  1  0  0  0
  2 25  1  0  0  0
  2 87  1  0  0  0
  2 88  1  0  0  0
  3  4  1  0  0  0
  3 89  1  0  0  0
  3 90  1  0  0  0
  4  5  1  0  0  0
  4 91  1  0  0  0
  4 92  1  0  0  0
  5  6  1  0  0  0
  5 26  1  0  0  0
  5 93  1  0  0  0
  6 25  1  0  0  0
  6 94  1  0  0  0
  6 95  1  0  0  0
  7  8  2  0  0  0
  7 26  1  0  0  0
  7 29  1  0  0  0
  8  9  1  0  0  0
  8 22  1  0  0  0
  9 10  1  0  0  0
  9 27  2  0  0  0
 10 11  2  0  0  0
 10 15  1  0  0  0
 11 12  1  0  0  0
 11 96  1  0  0  0
 12 13  2  0  0  0
 12 97  1  0  0  0
 13 14  1  0  0  0
 13 31  1  0  0  0
 14 15  2  0  0  0
 14 98  1  0  0  0
 15 99  1  0  0  0
 16 17  2  0  0  0
 16 21  1  0  0  0
 16 31  1  0  0  0
 17 18  1  0  0  0
 17100  1  0  0  0
 18 19  2  0  0  0
 18101  1  0  0  0
 19 20  1  0  0  0
 19 24  1  0  0  0
 20 21  2  0  0  0
 20102  1  0  0  0
 21 23  1  0  0  0
 22 28  1  0  0  0
 22 32  2  0  0  0
 26 27  1  0  0  0
 28103  1  0  0  0
 28104  1  0  0  0
 29105  1  0  0  0
 29106  1  0  0  0
 33 34  1  0  0  0
 33 66  1  0  0  0
 33 70  2  0  0  0
 34 36  1  0  0  0
 34 59  1  0  0  0
 34107  1  0  0  0
 35 44  2  0  0  0
 35 45  1  0  0  0
 35 68  1  0  0  0
 36 56  1  0  0  0
 36108  1  0  0  0
 37 39  1  0  0  0
 37 47  1  0  0  0
 37 66  1  0  0  0
 37109  1  0  0  0
 38 43  2  0  0  0
 38 46  1  0  0  0
 38 47  1  0  0  0
 39 64  1  0  0  0
 39 67  2  0  0  0
 40 52  1  0  0  0
 40 53  2  0  0  0
 40 58  1  0  0  0
 41110  1  0  0  0
 41111  1  0  0  0
 41112  1  0  0  0
 41 48  1  0  0  0
 42 43  1  0  0  0
 42 66  1  0  0  0
 42113  1  0  0  0
 42114  1  0  0  0
 43 44  1  0  0  0
 44115  1  0  0  0
 45 46  2  0  0  0
 45116  1  0  0  0
 46117  1  0  0  0
 47118  1  0  0  0
 47119  1  0  0  0
 48 56  1  0  0  0
 48 65  1  0  0  0
 48120  1  0  0  0
 49 50  1  0  0  0
 49 53  1  0  0  0
 49 64  1  0  0  0
 49121  1  0  0  0
 50 51  1  0  0  0
 50122  1  0  0  0
 50123  1  0  0  0
 51 52  1  0  0  0
 51124  1  0  0  0
 51125  1  0  0  0
 52126  1  0  0  0
 52127  1  0  0  0
 53 54  1  0  0  0
 54 55  2  0  0  0
 54128  1  0  0  0
 55 57  1  0  0  0
 55129  1  0  0  0
 56 69  2  0  0  0
 57 58  2  0  0  0
 57130  1  0  0  0
 58131  1  0  0  0
 59 60  1  0  0  0
 59 61  1  0  0  0
 59 62  1  0  0  0
 60132  1  0  0  0
 60133  1  0  0  0
 60134  1  0  0  0
 61135  1  0  0  0
 61136  1  0  0  0
 61137  1  0  0  0
 62138  1  0  0  0
 62139  1  0  0  0
 62140  1  0  0  0
 63 65  1  0  0  0
 63141  1  0  0  0
 63142  1  0  0  0
 63143  1  0  0  0
 64144  1  0  0  0
 65145  1  0  0  0
 68 83  1  0  0  0
 71 73  2  0  0  0
 71 85  1  0  0  0
 71146  1  0  0  0
 72 84  2  0  0  0
 72 85  1  0  0  0
 72147  1  0  0  0
 73 84  1  0  0  0
 73 86  1  0  0  0
 74 77  1  0  0  0
 74148  1  0  0  0
 74149  1  0  0  0
 74150  1  0  0  0
 75151  1  0  0  0
 75152  1  0  0  0
 75153  1  0  0  0
 75 81  1  0  0  0
 76 81  1  0  0  0
 76154  1  0  0  0
 76155  1  0  0  0
 76156  1  0  0  0
 77157  1  0  0  0
 77158  1  0  0  0
 77 82  1  0  0  0
 78 80  1  0  0  0
 78 82  1  0  0  0
 78159  1  0  0  0
 78160  1  0  0  0
 79 82  1  0  0  0
 79161  1  0  0  0
 79162  1  0  0  0
 79 83  1  0  0  0
 80 85  1  0  0  0
 80163  1  0  0  0
 80164  1  0  0  0
 81 83  1  0  0  0
 81165  1  0  0  0
 82166  1  0  0  0
 83167  1  0  0  0
 86168  1  0  0  0
M  ISO  4   1 100  68 101  83 101  86 100
M  END
> <chiral flag>
0

> <version>
0

> <s_m_source_file>
/data/baiqing/PycharmProjects/Reinvent-master-3.2/result/LINK_invent/BTK/process_docking_weight1_custom_product_contain_oxygen_bond_distance_aromatic_linkinvent_7_9_3/rearranged_h_0193.sdf

> <i_m_source_file_index>
68

> <r_mmod_Potential_Energy-OPLS-2005>
54.6952438354492

> <r_mmod_Stretch_Energy-OPLS-2005>
46.6956520080566

> <r_mmod_Bend_Energy-OPLS-2005>
134.835342407227

> <r_mmod_Torsional_Energy-OPLS-2005>
289.135070800781

> <r_mmod_Improper_Torsional_Energy-OPLS-2005>
4.00111770629883

> <r_mmod_Van_der_Waal_Energy-OPLS-2005>
131.206649780273

> <r_mmod_Electrostatic_Energy-OPLS-2005>
-337.319091796875

> <r_mmod_Solvation_Energy-OPLS-2005>
-229.700592041016

> <b_mmod_Minimization_Converged-OPLS-2005>
0

> <r_mmod_RMS_Derivative-OPLS-2005>
3.77474117279053

$$$$
68
                    3D
 Structure written by MMmdl.
157165  0  0  1  0            999 V2000
  -30.6360  -14.5309   20.5469 C   0  0  0  0  0  0
  -30.4360  -12.3280   19.4361 C   0  0  0  0  0  0
  -29.5040  -12.5051   18.2187 C   0  0  0  0  0  0
  -28.0221  -12.3530   18.6279 C   0  0  0  0  0  0
  -27.6563  -13.2003   19.8745 C   0  0  2  0  0  0
  -28.6973  -12.9952   20.9955 C   0  0  0  0  0  0
  -25.2550  -13.8146   20.5695 C   0  0  0  0  0  0
  -24.1786  -13.0437   20.9191 C   0  0  0  0  0  0
  -24.6338  -11.6897   20.8757 C   0  0  0  0  0  0
  -23.9011  -10.4280   21.0427 C   0  0  0  0  0  0
  -24.3570   -9.4204   21.9214 C   0  0  0  0  0  0
  -23.6248   -8.2237   22.0774 C   0  0  0  0  0  0
  -22.4245   -8.0274   21.3553 C   0  0  0  0  0  0
  -21.9865   -9.0253   20.4666 C   0  0  0  0  0  0
  -22.7192  -10.2134   20.3083 C   0  0  0  0  0  0
  -21.6836   -6.0721   22.5274 C   0  0  0  0  0  0
  -21.4021   -6.5626   23.8211 C   0  0  0  0  0  0
  -21.3673   -5.6788   24.9173 C   0  0  0  0  0  0
  -21.6029   -4.3048   24.7232 C   0  0  0  0  0  0
  -21.8812   -3.8136   23.4354 C   0  0  0  0  0  0
  -21.9179   -4.6949   22.3412 C   0  0  0  0  0  0
  -22.7818  -13.5247   21.1845 C   0  0  0  0  0  0
  -22.1646   -4.2145   21.0980 F   0  0  0  0  0  0
  -21.5632   -3.4533   25.7748 F   0  0  0  0  0  0
  -30.0188  -13.3199   20.4375 N   0  0  0  0  0  0
  -26.2977  -12.9292   20.3366 N   0  0  0  0  0  0
  -25.9262  -11.6466   20.5780 N   0  0  0  0  0  0
  -22.0410  -12.8306   22.0408 N   0  0  0  0  0  0
  -25.4259  -15.1872   20.4110 N   0  0  0  0  0  0
  -31.8017  -14.7140   20.1754 O   0  0  0  0  0  0
  -21.6618   -6.8867   21.4239 O   0  0  0  0  0  0
  -22.3542  -14.5547   20.6665 O   0  0  0  0  0  0
  -24.6150  -31.8633   23.2101 C   0  0  0  0  0  0
  -25.9035  -32.4795   23.8389 C   0  0  1  0  0  0
  -27.2295  -27.3897   20.0955 C   0  0  0  0  0  0
  -25.5876  -33.8602   24.2289 N   0  0  0  0  0  0
  -23.4024  -30.4868   21.5508 C   0  0  2  0  0  0
  -24.8480  -28.9450   20.1155 C   0  0  0  0  0  0
  -22.7398  -29.4626   22.4994 C   0  0  0  0  0  0
  -18.0265  -28.1364   22.8500 C   0  0  0  0  0  0
  -24.1462  -36.7320   23.2633 C   0  0  0  0  0  0
  -25.9341  -30.8139   21.3672 C   0  0  0  0  0  0
  -26.0088  -29.4435   20.7172 C   0  0  0  0  0  0
  -27.1965  -28.6707   20.7094 C   0  0  0  0  0  0
  -26.0408  -26.9120   19.4970 C   0  0  0  0  0  0
  -24.8608  -27.6799   19.5050 C   0  0  0  0  0  0
  -23.6122  -29.8169   20.1659 C   0  0  0  0  0  0
  -25.4075  -36.3086   24.0320 C   0  0  1  0  0  0
  -20.5850  -28.3644   23.1341 C   0  0  2  0  0  0
  -20.6757  -26.9390   22.5424 C   0  0  0  0  0  0
  -19.5732  -26.6377   21.5221 C   0  0  0  0  0  0
  -18.1907  -26.7907   22.1631 C   0  0  0  0  0  0
  -19.1515  -28.8820   23.2912 C   0  0  0  0  0  0
  -18.9444  -30.1432   23.8915 C   0  0  0  0  0  0
  -17.6448  -30.6583   24.0561 C   0  0  0  0  0  0
  -25.9023  -34.9462   23.5103 C   0  0  0  0  0  0
  -16.5337  -29.9086   23.6327 C   0  0  0  0  0  0
  -16.7253  -28.6494   23.0362 C   0  0  0  0  0  0
  -26.4452  -31.6607   25.0748 C   0  0  0  0  0  0
  -25.3730  -31.3777   26.1525 C   0  0  0  0  0  0
  -27.0268  -30.3022   24.6164 C   0  0  0  0  0  0
  -27.5983  -32.4358   25.7545 C   0  0  0  0  0  0
  -27.5556  -37.1803   24.8443 C   0  0  0  0  0  0
  -21.4120  -29.3015   22.3747 N   0  0  0  0  0  0
  -26.4241  -37.3785   23.9429 N   0  0  0  0  0  0
  -24.6691  -31.0717   22.1001 N   0  0  0  0  0  0
  -23.4171  -28.8171   23.3040 O   0  0  0  0  0  0
  -28.4127  -26.6624   20.1123 O   0  0  0  0  0  0
  -26.5594  -34.8907   22.4672 O   0  0  0  0  0  0
  -23.5339  -32.1418   23.7477 O   0  0  0  0  0  0
  -31.1581  -18.5583   22.5635 C   0  0  0  0  0  0
  -30.9452  -17.2203   22.1925 C   0  0  0  0  0  0
  -30.5021  -19.5773   21.8543 C   0  0  0  0  0  0
  -30.0821  -16.9240   21.1207 C   0  0  0  0  0  0
  -29.6317  -19.2357   20.8028 C   0  0  0  0  0  0
  -27.0308  -21.2396   21.1572 C   0  0  0  0  0  0
  -28.5534  -22.7242   19.7069 C   0  0  0  0  0  0
  -28.5373  -25.3686   19.4661 C   0  0  0  0  0  0
  -28.4626  -21.4752   20.6547 C   0  0  2  0  0  0
  -28.2861  -24.1230   20.3769 C   0  0  2  0  0  0
  -29.4281  -17.9329   20.4606 N   0  0  0  0  0  0
  -29.7998  -15.5498   20.8626 N   0  0  0  0  0  0
  -28.9586  -20.2210   20.0419 N   0  0  0  0  0  0
  -29.1029  -24.2287   21.4260 F   0  0  0  0  0  0
  -31.4780  -12.4497   19.1447 H   0  0  0  0  0  0
  -30.3551  -11.3212   19.8504 H   0  0  0  0  0  0
  -29.7551  -11.7806   17.4439 H   0  0  0  0  0  0
  -29.6632  -13.4919   17.7747 H   0  0  0  0  0  0
  -27.8383  -11.2982   18.8375 H   0  0  0  0  0  0
  -27.3721  -12.6167   17.7937 H   0  0  0  0  0  0
  -27.6916  -14.2444   19.5601 H   0  0  0  0  0  0
  -28.6859  -11.9626   21.3448 H   0  0  0  0  0  0
  -28.4605  -13.5956   21.8740 H   0  0  0  0  0  0
  -25.2712   -9.5688   22.4798 H   0  0  0  0  0  0
  -23.9959   -7.4626   22.7502 H   0  0  0  0  0  0
  -21.0791   -8.8762   19.8984 H   0  0  0  0  0  0
  -22.3638  -10.9671   19.6193 H   0  0  0  0  0  0
  -21.2024   -7.6143   23.9715 H   0  0  0  0  0  0
  -21.1505   -6.0519   25.9073 H   0  0  0  0  0  0
  -22.0581   -2.7601   23.2846 H   0  0  0  0  0  0
  -22.3955  -11.9970   22.4850 H   0  0  0  0  0  0
  -21.1055  -13.1427   22.2582 H   0  0  0  0  0  0
  -24.6525  -15.8355   20.5093 H   0  0  0  0  0  0
  -26.2652  -15.6310   20.0593 H   0  0  0  0  0  0
  -26.7104  -32.5488   23.1147 H   0  0  0  0  0  0
  -25.0004  -33.9765   25.0415 H   0  0  0  0  0  0
  -22.6903  -31.3028   21.4114 H   0  0  0  0  0  0
  -23.3701  -35.9676   23.3269 H   0  0  0  0  0  0
  -24.3563  -36.8981   22.2058 H   0  0  0  0  0  0
  -23.7244  -37.6519   23.6683 H   0  0  0  0  0  0
  -26.0433  -31.5776   20.5954 H   0  0  0  0  0  0
  -26.8212  -30.8744   21.9859 H   0  0  0  0  0  0
  -28.0864  -29.0506   21.1910 H   0  0  0  0  0  0
  -25.9913  -25.9420   19.0284 H   0  0  0  0  0  0
  -23.9653  -27.2885   19.0441 H   0  0  0  0  0  0
  -23.7195  -30.5896   19.4045 H   0  0  0  0  0  0
  -22.7348  -29.2372   19.8721 H   0  0  0  0  0  0
  -25.1252  -36.1913   25.0806 H   0  0  0  0  0  0
  -20.9922  -28.3200   24.1472 H   0  0  0  0  0  0
  -20.5683  -26.2241   23.3600 H   0  0  0  0  0  0
  -21.6629  -26.7456   22.1211 H   0  0  0  0  0  0
  -19.6910  -25.6298   21.1239 H   0  0  0  0  0  0
  -19.6678  -27.3201   20.6763 H   0  0  0  0  0  0
  -17.4186  -26.6652   21.4032 H   0  0  0  0  0  0
  -18.0315  -26.0042   22.9021 H   0  0  0  0  0  0
  -19.7925  -30.7238   24.2288 H   0  0  0  0  0  0
  -17.5015  -31.6276   24.5154 H   0  0  0  0  0  0
  -15.5341  -30.3003   23.7653 H   0  0  0  0  0  0
  -15.8638  -28.0822   22.7087 H   0  0  0  0  0  0
  -24.5854  -30.7139   25.7937 H   0  0  0  0  0  0
  -24.8988  -32.2977   26.4965 H   0  0  0  0  0  0
  -25.8114  -30.8987   27.0294 H   0  0  0  0  0  0
  -26.2842  -29.6841   24.1095 H   0  0  0  0  0  0
  -27.3865  -29.7202   25.4667 H   0  0  0  0  0  0
  -27.8756  -30.4295   23.9432 H   0  0  0  0  0  0
  -27.2518  -33.3622   26.2139 H   0  0  0  0  0  0
  -28.3812  -32.6990   25.0424 H   0  0  0  0  0  0
  -28.0620  -31.8495   26.5489 H   0  0  0  0  0  0
  -28.2526  -38.0140   24.7517 H   0  0  0  0  0  0
  -28.1088  -36.2678   24.6191 H   0  0  0  0  0  0
  -27.2303  -37.1369   25.8848 H   0  0  0  0  0  0
  -20.9269  -29.8730   21.6969 H   0  0  0  0  0  0
  -26.0104  -38.2833   24.1497 H   0  0  0  0  0  0
  -31.8137  -18.7953   23.3889 H   0  0  0  0  0  0
  -31.4221  -16.4301   22.7555 H   0  0  0  0  0  0
  -30.6913  -20.6024   22.1332 H   0  0  0  0  0  0
  -26.6481  -22.0993   21.7111 H   0  0  0  0  0  0
  -26.9820  -20.3765   21.8241 H   0  0  0  0  0  0
  -26.3474  -21.0474   20.3313 H   0  0  0  0  0  0
  -27.8618  -22.5965   18.8713 H   0  0  0  0  0  0
  -29.5503  -22.7433   19.2619 H   0  0  0  0  0  0
  -27.9582  -25.3091   18.5444 H   0  0  0  0  0  0
  -29.5718  -25.3202   19.1275 H   0  0  0  0  0  0
  -29.0742  -21.7078   21.5212 H   0  0  0  0  0  0
  -27.2699  -24.1621   20.7672 H   0  0  0  0  0  0
  -28.8299  -15.2880   20.9276 H   0  0  0  0  0  0
  -28.3670  -19.8428   19.3102 H   0  0  0  0  0  0
  1 25  1  0  0  0
  1 30  2  0  0  0
  1 82  1  0  0  0
  2  3  1  0  0  0
  2 25  1  0  0  0
  2 85  1  0  0  0
  2 86  1  0  0  0
  3  4  1  0  0  0
  3 87  1  0  0  0
  3 88  1  0  0  0
  4  5  1  0  0  0
  4 89  1  0  0  0
  4 90  1  0  0  0
  5  6  1  0  0  0
  5 26  1  0  0  0
  5 91  1  0  0  0
  6 25  1  0  0  0
  6 92  1  0  0  0
  6 93  1  0  0  0
  7  8  2  0  0  0
  7 26  1  0  0  0
  7 29  1  0  0  0
  8  9  1  0  0  0
  8 22  1  0  0  0
  9 10  1  0  0  0
  9 27  2  0  0  0
 10 11  2  0  0  0
 10 15  1  0  0  0
 11 12  1  0  0  0
 11 94  1  0  0  0
 12 13  2  0  0  0
 12 95  1  0  0  0
 13 14  1  0  0  0
 13 31  1  0  0  0
 14 15  2  0  0  0
 14 96  1  0  0  0
 15 97  1  0  0  0
 16 17  2  0  0  0
 16 21  1  0  0  0
 16 31  1  0  0  0
 17 18  1  0  0  0
 17 98  1  0  0  0
 18 19  2  0  0  0
 18 99  1  0  0  0
 19 20  1  0  0  0
 19 24  1  0  0  0
 20 21  2  0  0  0
 20100  1  0  0  0
 21 23  1  0  0  0
 22 28  1  0  0  0
 22 32  2  0  0  0
 26 27  1  0  0  0
 28101  1  0  0  0
 28102  1  0  0  0
 29103  1  0  0  0
 29104  1  0  0  0
 33 34  1  0  0  0
 33 66  1  0  0  0
 33 70  2  0  0  0
 34 36  1  0  0  0
 34 59  1  0  0  0
 34105  1  0  0  0
 35 44  2  0  0  0
 35 45  1  0  0  0
 35 68  1  0  0  0
 36 56  1  0  0  0
 36106  1  0  0  0
 37 39  1  0  0  0
 37 47  1  0  0  0
 37 66  1  0  0  0
 37107  1  0  0  0
 38 43  2  0  0  0
 38 46  1  0  0  0
 38 47  1  0  0  0
 39 64  1  0  0  0
 39 67  2  0  0  0
 40 52  1  0  0  0
 40 53  2  0  0  0
 40 58  1  0  0  0
 41108  1  0  0  0
 41109  1  0  0  0
 41110  1  0  0  0
 41 48  1  0  0  0
 42 43  1  0  0  0
 42 66  1  0  0  0
 42111  1  0  0  0
 42112  1  0  0  0
 43 44  1  0  0  0
 44113  1  0  0  0
 45 46  2  0  0  0
 45114  1  0  0  0
 46115  1  0  0  0
 47116  1  0  0  0
 47117  1  0  0  0
 48 56  1  0  0  0
 48 65  1  0  0  0
 48118  1  0  0  0
 49 50  1  0  0  0
 49 53  1  0  0  0
 49 64  1  0  0  0
 49119  1  0  0  0
 50 51  1  0  0  0
 50120  1  0  0  0
 50121  1  0  0  0
 51 52  1  0  0  0
 51122  1  0  0  0
 51123  1  0  0  0
 52124  1  0  0  0
 52125  1  0  0  0
 53 54  1  0  0  0
 54 55  2  0  0  0
 54126  1  0  0  0
 55 57  1  0  0  0
 55127  1  0  0  0
 56 69  2  0  0  0
 57 58  2  0  0  0
 57128  1  0  0  0
 58129  1  0  0  0
 59 60  1  0  0  0
 59 61  1  0  0  0
 59 62  1  0  0  0
 60130  1  0  0  0
 60131  1  0  0  0
 60132  1  0  0  0
 61133  1  0  0  0
 61134  1  0  0  0
 61135  1  0  0  0
 62136  1  0  0  0
 62137  1  0  0  0
 62138  1  0  0  0
 63 65  1  0  0  0
 63139  1  0  0  0
 63140  1  0  0  0
 63141  1  0  0  0
 64142  1  0  0  0
 65143  1  0  0  0
 68 78  1  0  0  0
 71 72  2  0  0  0
 71 73  1  0  0  0
 71144  1  0  0  0
 72 74  1  0  0  0
 72145  1  0  0  0
 73 75  2  0  0  0
 73146  1  0  0  0
 74 81  2  0  0  0
 74 82  1  0  0  0
 75 81  1  0  0  0
 75 83  1  0  0  0
 76147  1  0  0  0
 76148  1  0  0  0
 76149  1  0  0  0
 76 79  1  0  0  0
 77 79  1  0  0  0
 77 80  1  0  0  0
 77150  1  0  0  0
 77151  1  0  0  0
 78 80  1  0  0  0
 78152  1  0  0  0
 78153  1  0  0  0
 79 83  1  0  0  0
 79154  1  0  0  0
 80 84  1  0  0  0
 80155  1  0  0  0
 82156  1  0  0  0
 83157  1  0  0  0
M  ISO  4   1 100  68 101  78 101  82 100
M  END
> <chiral flag>
0

> <version>
0

> <s_m_source_file>
/data/baiqing/PycharmProjects/Reinvent-master-3.2/result/LINK_invent/BTK/process_docking_weight1_custom_product_contain_oxygen_bond_distance_aromatic_linkinvent_7_9_3/rearranged_h_0193.sdf

> <i_m_source_file_index>
69

> <r_mmod_Potential_Energy-OPLS-2005>
-208.498092651367

> <r_mmod_Stretch_Energy-OPLS-2005>
47.4112510681152

> <r_mmod_Bend_Energy-OPLS-2005>
121.355255126953

> <r_mmod_Torsional_Energy-OPLS-2005>
220.766754150391

> <r_mmod_Improper_Torsional_Energy-OPLS-2005>
8.88717651367188

> <r_mmod_Van_der_Waal_Energy-OPLS-2005>
151.218383789062

> <r_mmod_Electrostatic_Energy-OPLS-2005>
-555.034729003906

> <r_mmod_Solvation_Energy-OPLS-2005>
-224.909561157227

> <b_mmod_Minimization_Converged-OPLS-2005>
0

> <r_mmod_RMS_Derivative-OPLS-2005>
4.24264860153198

$$$$
69
                    3D
 Structure written by MMmdl.
155163  0  0  1  0            999 V2000
  -30.6469  -14.5115   20.6171 C   0  0  0  0  0  0
  -30.4400  -12.3456   19.4142 C   0  0  0  0  0  0
  -29.4999  -12.5354   18.2039 C   0  0  0  0  0  0
  -28.0197  -12.3815   18.6129 C   0  0  0  0  0  0
  -27.6651  -13.2023   19.8813 C   0  0  2  0  0  0
  -28.7054  -12.9411   20.9918 C   0  0  0  0  0  0
  -25.2596  -13.8145   20.5678 C   0  0  0  0  0  0
  -24.1835  -13.0432   20.9173 C   0  0  0  0  0  0
  -24.6381  -11.6895   20.8722 C   0  0  0  0  0  0
  -23.9045  -10.4286   21.0402 C   0  0  0  0  0  0
  -24.3601   -9.4208   21.9185 C   0  0  0  0  0  0
  -23.6277   -8.2245   22.0751 C   0  0  0  0  0  0
  -22.4262   -8.0283   21.3544 C   0  0  0  0  0  0
  -21.9893   -9.0255   20.4651 C   0  0  0  0  0  0
  -22.7212  -10.2131   20.3057 C   0  0  0  0  0  0
  -21.6852   -6.0732   22.5277 C   0  0  0  0  0  0
  -21.4015   -6.5636   23.8214 C   0  0  0  0  0  0
  -21.3660   -5.6791   24.9176 C   0  0  0  0  0  0
  -21.6045   -4.3051   24.7227 C   0  0  0  0  0  0
  -21.8815   -3.8143   23.4350 C   0  0  0  0  0  0
  -21.9188   -4.6962   22.3402 C   0  0  0  0  0  0
  -22.7861  -13.5249   21.1843 C   0  0  0  0  0  0
  -22.1656   -4.2148   21.0980 F   0  0  0  0  0  0
  -21.5630   -3.4532   25.7741 F   0  0  0  0  0  0
  -30.0355  -13.2992   20.4599 N   0  0  0  0  0  0
  -26.3028  -12.9304   20.3373 N   0  0  0  0  0  0
  -25.9305  -11.6467   20.5737 N   0  0  0  0  0  0
  -22.0490  -12.8260   22.0407 N   0  0  0  0  0  0
  -25.4333  -15.1866   20.4109 N   0  0  0  0  0  0
  -31.7278  -14.7890   20.0813 O   0  0  0  0  0  0
  -21.6632   -6.8875   21.4240 O   0  0  0  0  0  0
  -22.3553  -14.5553   20.6684 O   0  0  0  0  0  0
  -24.6211  -31.8642   23.2071 C   0  0  0  0  0  0
  -25.9083  -32.4805   23.8380 C   0  0  1  0  0  0
  -27.2295  -27.3760   20.0978 C   0  0  0  0  0  0
  -25.5918  -33.8601   24.2314 N   0  0  0  0  0  0
  -23.4108  -30.4894   21.5487 C   0  0  2  0  0  0
  -24.8531  -28.9483   20.1162 C   0  0  0  0  0  0
  -22.7439  -29.4664   22.4973 C   0  0  0  0  0  0
  -18.0270  -28.1391   22.8493 C   0  0  0  0  0  0
  -24.1474  -36.7295   23.2642 C   0  0  0  0  0  0
  -25.9447  -30.8137   21.3655 C   0  0  0  0  0  0
  -26.0184  -29.4439   20.7111 C   0  0  0  0  0  0
  -27.2058  -28.6672   20.6948 C   0  0  0  0  0  0
  -26.0317  -26.9049   19.5093 C   0  0  0  0  0  0
  -24.8572  -27.6802   19.5149 C   0  0  0  0  0  0
  -23.6200  -29.8242   20.1632 C   0  0  0  0  0  0
  -25.4101  -36.3102   24.0343 C   0  0  1  0  0  0
  -20.5866  -28.3696   23.1296 C   0  0  2  0  0  0
  -20.6760  -26.9422   22.5429 C   0  0  0  0  0  0
  -19.5742  -26.6390   21.5216 C   0  0  0  0  0  0
  -18.1914  -26.7938   22.1620 C   0  0  0  0  0  0
  -19.1525  -28.8855   23.2891 C   0  0  0  0  0  0
  -18.9456  -30.1452   23.8915 C   0  0  0  0  0  0
  -17.6462  -30.6594   24.0571 C   0  0  0  0  0  0
  -25.9043  -34.9470   23.5133 C   0  0  0  0  0  0
  -16.5348  -29.9104   23.6328 C   0  0  0  0  0  0
  -16.7263  -28.6517   23.0354 C   0  0  0  0  0  0
  -26.4498  -31.6599   25.0728 C   0  0  0  0  0  0
  -25.3761  -31.3711   26.1479 C   0  0  0  0  0  0
  -27.0346  -30.3042   24.6136 C   0  0  0  0  0  0
  -27.6081  -32.4324   25.7486 C   0  0  0  0  0  0
  -27.5572  -37.1799   24.8473 C   0  0  0  0  0  0
  -21.4163  -29.3048   22.3695 N   0  0  0  0  0  0
  -26.4281  -37.3795   23.9424 N   0  0  0  0  0  0
  -24.6781  -31.0707   22.0989 N   0  0  0  0  0  0
  -23.4184  -28.8202   23.3037 O   0  0  0  0  0  0
  -28.4091  -26.6354   20.1189 O   0  0  0  0  0  0
  -26.5597  -34.8931   22.4691 O   0  0  0  0  0  0
  -23.5396  -32.1407   23.7438 O   0  0  0  0  0  0
  -29.8019  -17.2368   22.9002 C   0  0  0  0  0  0
  -30.0010  -16.7824   21.6217 C   0  0  0  0  0  0
  -29.8197  -19.0434   21.2184 C   0  0  0  0  0  0
  -30.9026  -22.0964   21.7283 C   0  0  0  0  0  0
  -29.0924  -22.7329   20.0223 C   0  0  0  0  0  0
  -28.5030  -25.2923   19.5581 C   0  0  0  0  0  0
  -29.5792  -21.6632   21.0708 C   0  0  1  0  0  0
  -28.5820  -24.1166   20.5968 C   0  0  1  0  0  0
  -30.0147  -17.8269   20.6582 N   0  0  0  0  0  0
  -29.9573  -15.3660   21.4051 N   0  0  0  0  0  0
  -29.7295  -20.2825   20.5550 N   0  0  0  0  0  0
  -27.2878  -23.9072   21.1419 O   0  0  0  0  0  0
  -29.6388  -18.9677   22.9701 S   0  0  0  0  0  0
  -31.4812  -12.4838   19.1148 H   0  0  0  0  0  0
  -30.3730  -11.3241   19.7917 H   0  0  0  0  0  0
  -29.7483  -11.8201   17.4180 H   0  0  0  0  0  0
  -29.6546  -13.5260   17.7733 H   0  0  0  0  0  0
  -27.8320  -11.3216   18.7900 H   0  0  0  0  0  0
  -27.3686  -12.6697   17.7870 H   0  0  0  0  0  0
  -27.7183  -14.2571   19.6106 H   0  0  0  0  0  0
  -28.6958  -11.8846   21.2634 H   0  0  0  0  0  0
  -28.4415  -13.4670   21.9105 H   0  0  0  0  0  0
  -25.2741   -9.5690   22.4762 H   0  0  0  0  0  0
  -23.9988   -7.4638   22.7467 H   0  0  0  0  0  0
  -21.0826   -8.8773   19.8963 H   0  0  0  0  0  0
  -22.3667  -10.9675   19.6174 H   0  0  0  0  0  0
  -21.2008   -7.6143   23.9721 H   0  0  0  0  0  0
  -21.1490   -6.0517   25.9081 H   0  0  0  0  0  0
  -22.0592   -2.7606   23.2847 H   0  0  0  0  0  0
  -22.4068  -11.9915   22.4808 H   0  0  0  0  0  0
  -21.1118  -13.1324   22.2617 H   0  0  0  0  0  0
  -24.6680  -15.8438   20.5162 H   0  0  0  0  0  0
  -26.2920  -15.6251   20.1009 H   0  0  0  0  0  0
  -26.7159  -32.5501   23.1142 H   0  0  0  0  0  0
  -25.0094  -33.9754   25.0478 H   0  0  0  0  0  0
  -22.7028  -31.3087   21.4100 H   0  0  0  0  0  0
  -23.3743  -35.9621   23.3321 H   0  0  0  0  0  0
  -24.3562  -36.8888   22.2053 H   0  0  0  0  0  0
  -23.7218  -37.6503   23.6642 H   0  0  0  0  0  0
  -26.0622  -31.5772   20.5954 H   0  0  0  0  0  0
  -26.8307  -30.8666   21.9865 H   0  0  0  0  0  0
  -28.1051  -29.0514   21.1540 H   0  0  0  0  0  0
  -25.9570  -25.9322   19.0514 H   0  0  0  0  0  0
  -23.9573  -27.2886   19.0613 H   0  0  0  0  0  0
  -23.7364  -30.5996   19.4053 H   0  0  0  0  0  0
  -22.7403  -29.2509   19.8650 H   0  0  0  0  0  0
  -25.1274  -36.1968   25.0834 H   0  0  0  0  0  0
  -20.9961  -28.3265   24.1411 H   0  0  0  0  0  0
  -20.5636  -26.2309   23.3629 H   0  0  0  0  0  0
  -21.6632  -26.7435   22.1232 H   0  0  0  0  0  0
  -19.6903  -25.6297   21.1243 H   0  0  0  0  0  0
  -19.6679  -27.3200   20.6744 H   0  0  0  0  0  0
  -17.4190  -26.6692   21.4016 H   0  0  0  0  0  0
  -18.0307  -26.0073   22.9011 H   0  0  0  0  0  0
  -19.7935  -30.7255   24.2298 H   0  0  0  0  0  0
  -17.5024  -31.6275   24.5175 H   0  0  0  0  0  0
  -15.5355  -30.3021   23.7643 H   0  0  0  0  0  0
  -15.8658  -28.0845   22.7073 H   0  0  0  0  0  0
  -24.5935  -30.7059   25.7812 H   0  0  0  0  0  0
  -24.8957  -32.2871   26.4933 H   0  0  0  0  0  0
  -25.8114  -30.8876   27.0236 H   0  0  0  0  0  0
  -26.2900  -29.6781   24.1209 H   0  0  0  0  0  0
  -27.4135  -29.7307   25.4605 H   0  0  0  0  0  0
  -27.8725  -30.4360   23.9284 H   0  0  0  0  0  0
  -27.2711  -33.3621   26.2081 H   0  0  0  0  0  0
  -28.3876  -32.6884   25.0298 H   0  0  0  0  0  0
  -28.0773  -31.8442   26.5384 H   0  0  0  0  0  0
  -28.2614  -38.0073   24.7507 H   0  0  0  0  0  0
  -28.1039  -36.2609   24.6310 H   0  0  0  0  0  0
  -27.2292  -37.1466   25.8877 H   0  0  0  0  0  0
  -20.9332  -29.8787   21.6926 H   0  0  0  0  0  0
  -26.0170  -38.2871   24.1437 H   0  0  0  0  0  0
  -29.7140  -16.6619   23.8121 H   0  0  0  0  0  0
  -31.7140  -22.1377   21.0009 H   0  0  0  0  0  0
  -31.2054  -21.4078   22.5176 H   0  0  0  0  0  0
  -30.8253  -23.0787   22.1908 H   0  0  0  0  0  0
  -28.3055  -22.3020   19.4017 H   0  0  0  0  0  0
  -29.9179  -22.9273   19.3357 H   0  0  0  0  0  0
  -27.7910  -25.0792   18.7642 H   0  0  0  0  0  0
  -29.4584  -25.3004   19.0331 H   0  0  0  0  0  0
  -28.8160  -21.6137   21.8490 H   0  0  0  0  0  0
  -29.2462  -24.4333   21.3992 H   0  0  0  0  0  0
  -29.2208  -14.8962   21.9072 H   0  0  0  0  0  0
  -29.8419  -20.2139   19.5480 H   0  0  0  0  0  0
  -26.6846  -23.7430   20.4245 H   0  0  0  0  0  0
  1 25  1  0  0  0
  1 30  2  0  0  0
  1 80  1  0  0  0
  2  3  1  0  0  0
  2 25  1  0  0  0
  2 84  1  0  0  0
  2 85  1  0  0  0
  3  4  1  0  0  0
  3 86  1  0  0  0
  3 87  1  0  0  0
  4  5  1  0  0  0
  4 88  1  0  0  0
  4 89  1  0  0  0
  5  6  1  0  0  0
  5 26  1  0  0  0
  5 90  1  0  0  0
  6 25  1  0  0  0
  6 91  1  0  0  0
  6 92  1  0  0  0
  7  8  2  0  0  0
  7 26  1  0  0  0
  7 29  1  0  0  0
  8  9  1  0  0  0
  8 22  1  0  0  0
  9 10  1  0  0  0
  9 27  2  0  0  0
 10 11  2  0  0  0
 10 15  1  0  0  0
 11 12  1  0  0  0
 11 93  1  0  0  0
 12 13  2  0  0  0
 12 94  1  0  0  0
 13 14  1  0  0  0
 13 31  1  0  0  0
 14 15  2  0  0  0
 14 95  1  0  0  0
 15 96  1  0  0  0
 16 17  2  0  0  0
 16 21  1  0  0  0
 16 31  1  0  0  0
 17 18  1  0  0  0
 17 97  1  0  0  0
 18 19  2  0  0  0
 18 98  1  0  0  0
 19 20  1  0  0  0
 19 24  1  0  0  0
 20 21  2  0  0  0
 20 99  1  0  0  0
 21 23  1  0  0  0
 22 28  1  0  0  0
 22 32  2  0  0  0
 26 27  1  0  0  0
 28100  1  0  0  0
 28101  1  0  0  0
 29102  1  0  0  0
 29103  1  0  0  0
 33 34  1  0  0  0
 33 66  1  0  0  0
 33 70  2  0  0  0
 34 36  1  0  0  0
 34 59  1  0  0  0
 34104  1  0  0  0
 35 44  2  0  0  0
 35 45  1  0  0  0
 35 68  1  0  0  0
 36 56  1  0  0  0
 36105  1  0  0  0
 37 39  1  0  0  0
 37 47  1  0  0  0
 37 66  1  0  0  0
 37106  1  0  0  0
 38 43  2  0  0  0
 38 46  1  0  0  0
 38 47  1  0  0  0
 39 64  1  0  0  0
 39 67  2  0  0  0
 40 52  1  0  0  0
 40 53  2  0  0  0
 40 58  1  0  0  0
 41107  1  0  0  0
 41108  1  0  0  0
 41109  1  0  0  0
 41 48  1  0  0  0
 42 43  1  0  0  0
 42 66  1  0  0  0
 42110  1  0  0  0
 42111  1  0  0  0
 43 44  1  0  0  0
 44112  1  0  0  0
 45 46  2  0  0  0
 45113  1  0  0  0
 46114  1  0  0  0
 47115  1  0  0  0
 47116  1  0  0  0
 48 56  1  0  0  0
 48 65  1  0  0  0
 48117  1  0  0  0
 49 50  1  0  0  0
 49 53  1  0  0  0
 49 64  1  0  0  0
 49118  1  0  0  0
 50 51  1  0  0  0
 50119  1  0  0  0
 50120  1  0  0  0
 51 52  1  0  0  0
 51121  1  0  0  0
 51122  1  0  0  0
 52123  1  0  0  0
 52124  1  0  0  0
 53 54  1  0  0  0
 54 55  2  0  0  0
 54125  1  0  0  0
 55 57  1  0  0  0
 55126  1  0  0  0
 56 69  2  0  0  0
 57 58  2  0  0  0
 57127  1  0  0  0
 58128  1  0  0  0
 59 60  1  0  0  0
 59 61  1  0  0  0
 59 62  1  0  0  0
 60129  1  0  0  0
 60130  1  0  0  0
 60131  1  0  0  0
 61132  1  0  0  0
 61133  1  0  0  0
 61134  1  0  0  0
 62135  1  0  0  0
 62136  1  0  0  0
 62137  1  0  0  0
 63 65  1  0  0  0
 63138  1  0  0  0
 63139  1  0  0  0
 63140  1  0  0  0
 64141  1  0  0  0
 65142  1  0  0  0
 68 76  1  0  0  0
 71 72  2  0  0  0
 71 83  1  0  0  0
 71143  1  0  0  0
 72 79  1  0  0  0
 72 80  1  0  0  0
 73 79  2  0  0  0
 73 81  1  0  0  0
 73 83  1  0  0  0
 74144  1  0  0  0
 74145  1  0  0  0
 74146  1  0  0  0
 74 77  1  0  0  0
 75 77  1  0  0  0
 75 78  1  0  0  0
 75147  1  0  0  0
 75148  1  0  0  0
 76 78  1  0  0  0
 76149  1  0  0  0
 76150  1  0  0  0
 77 81  1  0  0  0
 77151  1  0  0  0
 78 82  1  0  0  0
 78152  1  0  0  0
 80153  1  0  0  0
 81154  1  0  0  0
 82155  1  0  0  0
M  ISO  4   1 100  68 101  76 101  80 100
M  END
> <chiral flag>
0

> <version>
0

> <s_m_source_file>
/data/baiqing/PycharmProjects/Reinvent-master-3.2/result/LINK_invent/BTK/process_docking_weight1_custom_product_contain_oxygen_bond_distance_aromatic_linkinvent_7_9_3/rearranged_h_0193.sdf

> <i_m_source_file_index>
70

> <r_mmod_Potential_Energy-OPLS-2005>
-75.3133697509766

> <r_mmod_Stretch_Energy-OPLS-2005>
51.2983932495117

> <r_mmod_Bend_Energy-OPLS-2005>
133.057250976562

> <r_mmod_Torsional_Energy-OPLS-2005>
208.260559082031

> <r_mmod_Improper_Torsional_Energy-OPLS-2005>
3.36396336555481

> <r_mmod_Van_der_Waal_Energy-OPLS-2005>
124.183540344238

> <r_mmod_Electrostatic_Energy-OPLS-2005>
-361.605285644531

> <r_mmod_Solvation_Energy-OPLS-2005>
-254.23860168457

> <b_mmod_Minimization_Converged-OPLS-2005>
0

> <r_mmod_RMS_Derivative-OPLS-2005>
1.82235360145569

$$$$
70
                    3D
 Structure written by MMmdl.
163171  0  0  1  0            999 V2000
  -30.7180  -14.4173   20.6290 C   0  0  0  0  0  0
  -30.4216  -12.2917   19.4074 C   0  0  0  0  0  0
  -29.4896  -12.5160   18.1993 C   0  0  0  0  0  0
  -28.0107  -12.3761   18.6121 C   0  0  0  0  0  0
  -27.6648  -13.2000   19.8808 C   0  0  2  0  0  0
  -28.7031  -12.9409   20.9953 C   0  0  0  0  0  0
  -25.2600  -13.8151   20.5676 C   0  0  0  0  0  0
  -24.1842  -13.0436   20.9171 C   0  0  0  0  0  0
  -24.6384  -11.6900   20.8730 C   0  0  0  0  0  0
  -23.9049  -10.4290   21.0404 C   0  0  0  0  0  0
  -24.3607   -9.4208   21.9180 C   0  0  0  0  0  0
  -23.6288   -8.2240   22.0748 C   0  0  0  0  0  0
  -22.4270   -8.0276   21.3541 C   0  0  0  0  0  0
  -21.9903   -9.0247   20.4639 C   0  0  0  0  0  0
  -22.7226  -10.2129   20.3050 C   0  0  0  0  0  0
  -21.6850   -6.0732   22.5280 C   0  0  0  0  0  0
  -21.4009   -6.5635   23.8215 C   0  0  0  0  0  0
  -21.3658   -5.6785   24.9175 C   0  0  0  0  0  0
  -21.6046   -4.3047   24.7222 C   0  0  0  0  0  0
  -21.8820   -3.8142   23.4342 C   0  0  0  0  0  0
  -21.9193   -4.6961   22.3400 C   0  0  0  0  0  0
  -22.7869  -13.5238   21.1842 C   0  0  0  0  0  0
  -22.1663   -4.2148   21.0977 F   0  0  0  0  0  0
  -21.5630   -3.4529   25.7734 F   0  0  0  0  0  0
  -30.0407  -13.2505   20.4558 N   0  0  0  0  0  0
  -26.3033  -12.9306   20.3381 N   0  0  0  0  0  0
  -25.9307  -11.6471   20.5761 N   0  0  0  0  0  0
  -22.0506  -12.8231   22.0397 N   0  0  0  0  0  0
  -25.4344  -15.1865   20.4086 N   0  0  0  0  0  0
  -31.8070  -14.6368   20.0872 O   0  0  0  0  0  0
  -21.6634   -6.8875   21.4241 O   0  0  0  0  0  0
  -22.3562  -14.5553   20.6700 O   0  0  0  0  0  0
  -24.6112  -31.8696   23.2114 C   0  0  0  0  0  0
  -25.9019  -32.4829   23.8401 C   0  0  1  0  0  0
  -27.2376  -27.4509   20.0952 C   0  0  0  0  0  0
  -25.5887  -33.8628   24.2338 N   0  0  0  0  0  0
  -23.3975  -30.4926   21.5516 C   0  0  2  0  0  0
  -24.8428  -28.9567   20.1176 C   0  0  0  0  0  0
  -22.7388  -29.4669   22.5008 C   0  0  0  0  0  0
  -18.0268  -28.1375   22.8500 C   0  0  0  0  0  0
  -24.1482  -36.7307   23.2640 C   0  0  0  0  0  0
  -25.9233  -30.8392   21.3613 C   0  0  0  0  0  0
  -25.9995  -29.4731   20.7126 C   0  0  0  0  0  0
  -27.1963  -28.7266   20.6984 C   0  0  0  0  0  0
  -26.0641  -26.9464   19.4875 C   0  0  0  0  0  0
  -24.8690  -27.6921   19.5034 C   0  0  0  0  0  0
  -23.6039  -29.8217   20.1666 C   0  0  0  0  0  0
  -25.4104  -36.3114   24.0343 C   0  0  1  0  0  0
  -20.5857  -28.3653   23.1336 C   0  0  2  0  0  0
  -20.6757  -26.9391   22.5428 C   0  0  0  0  0  0
  -19.5740  -26.6386   21.5218 C   0  0  0  0  0  0
  -18.1916  -26.7929   22.1621 C   0  0  0  0  0  0
  -19.1516  -28.8830   23.2918 C   0  0  0  0  0  0
  -18.9447  -30.1439   23.8923 C   0  0  0  0  0  0
  -17.6449  -30.6582   24.0572 C   0  0  0  0  0  0
  -25.9031  -34.9480   23.5138 C   0  0  0  0  0  0
  -16.5339  -29.9086   23.6329 C   0  0  0  0  0  0
  -16.7257  -28.6504   23.0347 C   0  0  0  0  0  0
  -26.4462  -31.6599   25.0716 C   0  0  0  0  0  0
  -25.3737  -31.3689   26.1468 C   0  0  0  0  0  0
  -27.0291  -30.3051   24.6059 C   0  0  0  0  0  0
  -27.6046  -32.4311   25.7474 C   0  0  0  0  0  0
  -27.5581  -37.1805   24.8465 C   0  0  0  0  0  0
  -21.4120  -29.3021   22.3742 N   0  0  0  0  0  0
  -26.4291  -37.3795   23.9413 N   0  0  0  0  0  0
  -24.6622  -31.0816   22.1002 N   0  0  0  0  0  0
  -23.4175  -28.8220   23.3044 O   0  0  0  0  0  0
  -28.4425  -26.7832   20.0925 O   0  0  0  0  0  0
  -26.5592  -34.8931   22.4699 O   0  0  0  0  0  0
  -23.5313  -32.1440   23.7525 O   0  0  0  0  0  0
  -30.3394  -16.7094   21.5426 C   0  0  0  0  0  0
  -30.3527  -19.0714   21.9727 C   0  0  0  0  0  0
  -30.9509  -21.2979   25.1238 C   0  0  0  0  0  0
  -33.0468  -22.1812   24.0023 C   0  0  0  0  0  0
  -29.2959  -24.8556   21.2430 C   0  0  0  0  0  0
  -30.3261  -22.8945   22.5134 C   0  0  0  0  0  0
  -28.4829  -25.3544   20.0329 C   0  0  0  0  0  0
  -31.8276  -21.2561   23.8584 C   0  0  0  0  0  0
  -31.0290  -21.5066   22.5485 C   0  0  1  0  0  0
  -29.8084  -23.3991   21.1427 C   0  0  2  0  0  0
  -31.5443  -17.2593   21.3182 N   0  0  0  0  0  0
  -31.5480  -18.6253   21.5646 N   0  0  0  0  0  0
  -30.0668  -15.3267   21.3740 N   0  0  0  0  0  0
  -30.1110  -20.3960   22.3185 N   0  0  0  0  0  0
  -30.8566  -23.3726   20.1845 O   0  0  0  0  0  0
  -29.1034  -17.8387   22.0958 S   0  0  0  0  0  0
  -31.4653  -12.3928   19.1045 H   0  0  0  0  0  0
  -30.3218  -11.2719   19.7825 H   0  0  0  0  0  0
  -29.7253  -11.8054   17.4060 H   0  0  0  0  0  0
  -29.6604  -13.5092   17.7804 H   0  0  0  0  0  0
  -27.8149  -11.3186   18.7934 H   0  0  0  0  0  0
  -27.3601  -12.6665   17.7865 H   0  0  0  0  0  0
  -27.7212  -14.2533   19.6056 H   0  0  0  0  0  0
  -28.6719  -11.8931   21.2980 H   0  0  0  0  0  0
  -28.4546  -13.4998   21.8980 H   0  0  0  0  0  0
  -25.2755   -9.5684   22.4749 H   0  0  0  0  0  0
  -24.0002   -7.4628   22.7461 H   0  0  0  0  0  0
  -21.0837   -8.8756   19.8943 H   0  0  0  0  0  0
  -22.3685  -10.9661   19.6152 H   0  0  0  0  0  0
  -21.1994   -7.6142   23.9720 H   0  0  0  0  0  0
  -21.1480   -6.0510   25.9079 H   0  0  0  0  0  0
  -22.0599   -2.7605   23.2836 H   0  0  0  0  0  0
  -22.4106  -11.9877   22.4770 H   0  0  0  0  0  0
  -21.1128  -13.1264   22.2606 H   0  0  0  0  0  0
  -24.6668  -15.8421   20.5075 H   0  0  0  0  0  0
  -26.2856  -15.6226   20.0769 H   0  0  0  0  0  0
  -26.7087  -32.5549   23.1166 H   0  0  0  0  0  0
  -25.0047  -33.9799   25.0490 H   0  0  0  0  0  0
  -22.6851  -31.3085   21.4133 H   0  0  0  0  0  0
  -23.3749  -35.9634   23.3312 H   0  0  0  0  0  0
  -24.3579  -36.8909   22.2052 H   0  0  0  0  0  0
  -23.7229  -37.6515   23.6646 H   0  0  0  0  0  0
  -26.0318  -31.6041   20.5911 H   0  0  0  0  0  0
  -26.8131  -30.8948   21.9765 H   0  0  0  0  0  0
  -28.0924  -29.1261   21.1533 H   0  0  0  0  0  0
  -26.0583  -25.9952   18.9762 H   0  0  0  0  0  0
  -23.9813  -27.2940   19.0312 H   0  0  0  0  0  0
  -23.7091  -30.5946   19.4045 H   0  0  0  0  0  0
  -22.7287  -29.2386   19.8742 H   0  0  0  0  0  0
  -25.1281  -36.1979   25.0835 H   0  0  0  0  0  0
  -20.9957  -28.3211   24.1453 H   0  0  0  0  0  0
  -20.5658  -26.2254   23.3609 H   0  0  0  0  0  0
  -21.6629  -26.7438   22.1220 H   0  0  0  0  0  0
  -19.6899  -25.6304   21.1226 H   0  0  0  0  0  0
  -19.6690  -27.3216   20.6766 H   0  0  0  0  0  0
  -17.4196  -26.6699   21.4009 H   0  0  0  0  0  0
  -18.0299  -26.0058   22.8999 H   0  0  0  0  0  0
  -19.7923  -30.7248   24.2301 H   0  0  0  0  0  0
  -17.5006  -31.6264   24.5169 H   0  0  0  0  0  0
  -15.5342  -30.2993   23.7642 H   0  0  0  0  0  0
  -15.8658  -28.0833   22.7039 H   0  0  0  0  0  0
  -24.5922  -30.7018   25.7809 H   0  0  0  0  0  0
  -24.8905  -32.2834   26.4918 H   0  0  0  0  0  0
  -25.8099  -30.8867   27.0225 H   0  0  0  0  0  0
  -26.2821  -29.6813   24.1132 H   0  0  0  0  0  0
  -27.4106  -29.7279   25.4493 H   0  0  0  0  0  0
  -27.8637  -30.4393   23.9172 H   0  0  0  0  0  0
  -27.2673  -33.3601   26.2085 H   0  0  0  0  0  0
  -28.3835  -32.6885   25.0284 H   0  0  0  0  0  0
  -28.0735  -31.8409   26.5358 H   0  0  0  0  0  0
  -28.2603  -38.0098   24.7513 H   0  0  0  0  0  0
  -28.1073  -36.2634   24.6288 H   0  0  0  0  0  0
  -27.2305  -37.1447   25.8869 H   0  0  0  0  0  0
  -20.9268  -29.8733   21.6965 H   0  0  0  0  0  0
  -26.0184  -38.2874   24.1415 H   0  0  0  0  0  0
  -31.5285  -21.0246   26.0071 H   0  0  0  0  0  0
  -30.1168  -20.5988   25.0577 H   0  0  0  0  0  0
  -30.5394  -22.2919   25.2988 H   0  0  0  0  0  0
  -33.6781  -21.8628   24.8327 H   0  0  0  0  0  0
  -32.7628  -23.2153   24.1950 H   0  0  0  0  0  0
  -33.6628  -22.1639   23.1026 H   0  0  0  0  0  0
  -28.6650  -24.9581   22.1273 H   0  0  0  0  0  0
  -30.1417  -25.5238   21.4129 H   0  0  0  0  0  0
  -31.0200  -23.6470   22.8863 H   0  0  0  0  0  0
  -29.4990  -22.9010   23.2249 H   0  0  0  0  0  0
  -27.5094  -24.8672   20.0501 H   0  0  0  0  0  0
  -28.9680  -25.0719   19.0984 H   0  0  0  0  0  0
  -32.2417  -20.2480   23.7972 H   0  0  0  0  0  0
  -31.7497  -21.4791   21.7296 H   0  0  0  0  0  0
  -29.0030  -22.7456   20.8034 H   0  0  0  0  0  0
  -29.1827  -15.0137   21.7403 H   0  0  0  0  0  0
  -29.1560  -20.5669   22.6105 H   0  0  0  0  0  0
  -31.5624  -23.9301   20.4974 H   0  0  0  0  0  0
  1 25  1  0  0  0
  1 30  2  0  0  0
  1 83  1  0  0  0
  2  3  1  0  0  0
  2 25  1  0  0  0
  2 87  1  0  0  0
  2 88  1  0  0  0
  3  4  1  0  0  0
  3 89  1  0  0  0
  3 90  1  0  0  0
  4  5  1  0  0  0
  4 91  1  0  0  0
  4 92  1  0  0  0
  5  6  1  0  0  0
  5 26  1  0  0  0
  5 93  1  0  0  0
  6 25  1  0  0  0
  6 94  1  0  0  0
  6 95  1  0  0  0
  7  8  2  0  0  0
  7 26  1  0  0  0
  7 29  1  0  0  0
  8  9  1  0  0  0
  8 22  1  0  0  0
  9 10  1  0  0  0
  9 27  2  0  0  0
 10 11  2  0  0  0
 10 15  1  0  0  0
 11 12  1  0  0  0
 11 96  1  0  0  0
 12 13  2  0  0  0
 12 97  1  0  0  0
 13 14  1  0  0  0
 13 31  1  0  0  0
 14 15  2  0  0  0
 14 98  1  0  0  0
 15 99  1  0  0  0
 16 17  2  0  0  0
 16 21  1  0  0  0
 16 31  1  0  0  0
 17 18  1  0  0  0
 17100  1  0  0  0
 18 19  2  0  0  0
 18101  1  0  0  0
 19 20  1  0  0  0
 19 24  1  0  0  0
 20 21  2  0  0  0
 20102  1  0  0  0
 21 23  1  0  0  0
 22 28  1  0  0  0
 22 32  2  0  0  0
 26 27  1  0  0  0
 28103  1  0  0  0
 28104  1  0  0  0
 29105  1  0  0  0
 29106  1  0  0  0
 33 34  1  0  0  0
 33 66  1  0  0  0
 33 70  2  0  0  0
 34 36  1  0  0  0
 34 59  1  0  0  0
 34107  1  0  0  0
 35 44  2  0  0  0
 35 45  1  0  0  0
 35 68  1  0  0  0
 36 56  1  0  0  0
 36108  1  0  0  0
 37 39  1  0  0  0
 37 47  1  0  0  0
 37 66  1  0  0  0
 37109  1  0  0  0
 38 43  2  0  0  0
 38 46  1  0  0  0
 38 47  1  0  0  0
 39 64  1  0  0  0
 39 67  2  0  0  0
 40 52  1  0  0  0
 40 53  2  0  0  0
 40 58  1  0  0  0
 41110  1  0  0  0
 41111  1  0  0  0
 41112  1  0  0  0
 41 48  1  0  0  0
 42 43  1  0  0  0
 42 66  1  0  0  0
 42113  1  0  0  0
 42114  1  0  0  0
 43 44  1  0  0  0
 44115  1  0  0  0
 45 46  2  0  0  0
 45116  1  0  0  0
 46117  1  0  0  0
 47118  1  0  0  0
 47119  1  0  0  0
 48 56  1  0  0  0
 48 65  1  0  0  0
 48120  1  0  0  0
 49 50  1  0  0  0
 49 53  1  0  0  0
 49 64  1  0  0  0
 49121  1  0  0  0
 50 51  1  0  0  0
 50122  1  0  0  0
 50123  1  0  0  0
 51 52  1  0  0  0
 51124  1  0  0  0
 51125  1  0  0  0
 52126  1  0  0  0
 52127  1  0  0  0
 53 54  1  0  0  0
 54 55  2  0  0  0
 54128  1  0  0  0
 55 57  1  0  0  0
 55129  1  0  0  0
 56 69  2  0  0  0
 57 58  2  0  0  0
 57130  1  0  0  0
 58131  1  0  0  0
 59 60  1  0  0  0
 59 61  1  0  0  0
 59 62  1  0  0  0
 60132  1  0  0  0
 60133  1  0  0  0
 60134  1  0  0  0
 61135  1  0  0  0
 61136  1  0  0  0
 61137  1  0  0  0
 62138  1  0  0  0
 62139  1  0  0  0
 62140  1  0  0  0
 63 65  1  0  0  0
 63141  1  0  0  0
 63142  1  0  0  0
 63143  1  0  0  0
 64144  1  0  0  0
 65145  1  0  0  0
 68 77  1  0  0  0
 71 81  2  0  0  0
 71 83  1  0  0  0
 71 86  1  0  0  0
 72 82  2  0  0  0
 72 84  1  0  0  0
 72 86  1  0  0  0
 73146  1  0  0  0
 73147  1  0  0  0
 73148  1  0  0  0
 73 78  1  0  0  0
 74 78  1  0  0  0
 74149  1  0  0  0
 74150  1  0  0  0
 74151  1  0  0  0
 75 77  1  0  0  0
 75 80  1  0  0  0
 75152  1  0  0  0
 75153  1  0  0  0
 76 80  1  0  0  0
 76154  1  0  0  0
 76155  1  0  0  0
 76 79  1  0  0  0
 77156  1  0  0  0
 77157  1  0  0  0
 78 79  1  0  0  0
 78158  1  0  0  0
 79 84  1  0  0  0
 79159  1  0  0  0
 80 85  1  0  0  0
 80160  1  0  0  0
 81 82  1  0  0  0
 83161  1  0  0  0
 84162  1  0  0  0
 85163  1  0  0  0
M  ISO  4   1 100  68 101  77 101  83 100
M  END
> <chiral flag>
0

> <version>
0

> <s_m_source_file>
/data/baiqing/PycharmProjects/Reinvent-master-3.2/result/LINK_invent/BTK/process_docking_weight1_custom_product_contain_oxygen_bond_distance_aromatic_linkinvent_7_9_3/rearranged_h_0193.sdf

> <i_m_source_file_index>
71

> <r_mmod_Potential_Energy-OPLS-2005>
-152.090240478516

> <r_mmod_Stretch_Energy-OPLS-2005>
33.970588684082

> <r_mmod_Bend_Energy-OPLS-2005>
110.849617004395

> <r_mmod_Torsional_Energy-OPLS-2005>
217.059646606445

> <r_mmod_Improper_Torsional_Energy-OPLS-2005>
3.01067614555359

> <r_mmod_Van_der_Waal_Energy-OPLS-2005>
134.911712646484

> <r_mmod_Electrostatic_Energy-OPLS-2005>
-399.645050048828

> <r_mmod_Solvation_Energy-OPLS-2005>
-261.087921142578

> <b_mmod_Minimization_Converged-OPLS-2005>
0

> <r_mmod_RMS_Derivative-OPLS-2005>
0.587993800640106

$$$$
71
                    3D
 Structure written by MMmdl.
156164  0  0  1  0            999 V2000
  -30.7205  -14.4710   20.6228 C   0  0  0  0  0  0
  -30.4217  -12.3296   19.4140 C   0  0  0  0  0  0
  -29.4876  -12.5117   18.2014 C   0  0  0  0  0  0
  -28.0129  -12.3603   18.6201 C   0  0  0  0  0  0
  -27.6578  -13.2070   19.8704 C   0  0  2  0  0  0
  -28.6991  -12.9984   20.9915 C   0  0  0  0  0  0
  -25.2577  -13.8163   20.5689 C   0  0  0  0  0  0
  -24.1828  -13.0438   20.9187 C   0  0  0  0  0  0
  -24.6387  -11.6911   20.8737 C   0  0  0  0  0  0
  -23.9057  -10.4297   21.0403 C   0  0  0  0  0  0
  -24.3608   -9.4217   21.9191 C   0  0  0  0  0  0
  -23.6288   -8.2253   22.0762 C   0  0  0  0  0  0
  -22.4275   -8.0281   21.3547 C   0  0  0  0  0  0
  -21.9900   -9.0256   20.4649 C   0  0  0  0  0  0
  -22.7227  -10.2138   20.3058 C   0  0  0  0  0  0
  -21.6850   -6.0745   22.5281 C   0  0  0  0  0  0
  -21.4015   -6.5650   23.8215 C   0  0  0  0  0  0
  -21.3660   -5.6798   24.9177 C   0  0  0  0  0  0
  -21.6047   -4.3062   24.7232 C   0  0  0  0  0  0
  -21.8818   -3.8154   23.4352 C   0  0  0  0  0  0
  -21.9191   -4.6971   22.3410 C   0  0  0  0  0  0
  -22.7858  -13.5242   21.1850 C   0  0  0  0  0  0
  -22.1662   -4.2156   21.0986 F   0  0  0  0  0  0
  -21.5624   -3.4542   25.7744 F   0  0  0  0  0  0
  -30.0283  -13.3122   20.4368 N   0  0  0  0  0  0
  -26.3006  -12.9333   20.3341 N   0  0  0  0  0  0
  -25.9307  -11.6496   20.5754 N   0  0  0  0  0  0
  -22.0503  -12.8224   22.0404 N   0  0  0  0  0  0
  -25.4318  -15.1883   20.4141 N   0  0  0  0  0  0
  -31.8282  -14.6728   20.1180 O   0  0  0  0  0  0
  -21.6636   -6.8882   21.4243 O   0  0  0  0  0  0
  -22.3544  -14.5550   20.6705 O   0  0  0  0  0  0
  -24.6146  -31.8682   23.2091 C   0  0  0  0  0  0
  -25.9046  -32.4819   23.8391 C   0  0  1  0  0  0
  -27.2347  -27.4315   20.1140 C   0  0  0  0  0  0
  -25.5901  -33.8610   24.2327 N   0  0  0  0  0  0
  -23.4030  -30.4896   21.5504 C   0  0  2  0  0  0
  -24.8516  -28.9548   20.1168 C   0  0  0  0  0  0
  -22.7407  -29.4647   22.4991 C   0  0  0  0  0  0
  -18.0269  -28.1370   22.8490 C   0  0  0  0  0  0
  -24.1486  -36.7323   23.2639 C   0  0  0  0  0  0
  -25.9304  -30.8351   21.3614 C   0  0  0  0  0  0
  -26.0112  -29.4683   20.7121 C   0  0  0  0  0  0
  -27.2089  -28.7159   20.7035 C   0  0  0  0  0  0
  -26.0627  -26.9356   19.5039 C   0  0  0  0  0  0
  -24.8717  -27.6869   19.5084 C   0  0  0  0  0  0
  -23.6116  -29.8194   20.1660 C   0  0  0  0  0  0
  -25.4108  -36.3102   24.0331 C   0  0  1  0  0  0
  -20.5859  -28.3654   23.1316 C   0  0  2  0  0  0
  -20.6749  -26.9387   22.5415 C   0  0  0  0  0  0
  -19.5730  -26.6375   21.5206 C   0  0  0  0  0  0
  -18.1909  -26.7923   22.1606 C   0  0  0  0  0  0
  -19.1520  -28.8827   23.2895 C   0  0  0  0  0  0
  -18.9454  -30.1436   23.8895 C   0  0  0  0  0  0
  -17.6461  -30.6578   24.0556 C   0  0  0  0  0  0
  -25.9036  -34.9464   23.5121 C   0  0  0  0  0  0
  -16.5347  -29.9079   23.6328 C   0  0  0  0  0  0
  -16.7262  -28.6494   23.0345 C   0  0  0  0  0  0
  -26.4473  -31.6602   25.0724 C   0  0  0  0  0  0
  -25.3738  -31.3711   26.1472 C   0  0  0  0  0  0
  -27.0324  -30.3048   24.6117 C   0  0  0  0  0  0
  -27.6043  -32.4331   25.7495 C   0  0  0  0  0  0
  -27.5581  -37.1808   24.8460 C   0  0  0  0  0  0
  -21.4135  -29.3028   22.3731 N   0  0  0  0  0  0
  -26.4294  -37.3789   23.9403 N   0  0  0  0  0  0
  -24.6676  -31.0777   22.0995 N   0  0  0  0  0  0
  -23.4171  -28.8177   23.3028 O   0  0  0  0  0  0
  -28.3850  -26.6719   20.1155 O   0  0  0  0  0  0
  -26.5593  -34.8912   22.4676 O   0  0  0  0  0  0
  -23.5338  -32.1435   23.7479 O   0  0  0  0  0  0
  -31.1693  -19.8260   20.2798 C   0  0  0  0  0  0
  -30.4015  -17.9841   21.4527 C   0  0  0  0  0  0
  -30.0940  -20.6196   20.7564 C   0  0  0  0  0  0
  -29.3022  -18.7728   21.9147 C   0  0  0  0  0  0
  -30.7417  -16.5812   21.9942 C   0  0  0  0  0  0
  -29.0499  -22.9398   20.9384 C   0  0  0  0  0  0
  -28.3060  -25.4471   20.8747 C   0  0  0  0  0  0
  -29.2809  -24.3604   20.3409 C   0  0  1  0  0  0
  -31.3238  -18.5205   20.6165 N   0  0  0  0  0  0
  -29.1445  -20.0780   21.5627 N   0  0  0  0  0  0
  -28.3387  -18.2762   22.7860 N   0  0  0  0  0  0
  -30.0143  -21.9780   20.3899 N   0  0  0  0  0  0
  -30.1055  -15.4077   21.3674 N   0  0  0  0  0  0
  -30.6121  -24.7250   20.6798 O   0  0  0  0  0  0
  -31.4625  -12.4404   19.1054 H   0  0  0  0  0  0
  -30.3384  -11.3184   19.8155 H   0  0  0  0  0  0
  -29.7315  -11.7858   17.4249 H   0  0  0  0  0  0
  -29.6431  -13.4968   17.7596 H   0  0  0  0  0  0
  -27.8339  -11.3045   18.8276 H   0  0  0  0  0  0
  -27.3558  -12.6209   17.7899 H   0  0  0  0  0  0
  -27.7002  -14.2528   19.5654 H   0  0  0  0  0  0
  -28.6832  -11.9641   21.3403 H   0  0  0  0  0  0
  -28.4454  -13.5984   21.8662 H   0  0  0  0  0  0
  -25.2751   -9.5699   22.4768 H   0  0  0  0  0  0
  -24.0014   -7.4646   22.7480 H   0  0  0  0  0  0
  -21.0842   -8.8766   19.8952 H   0  0  0  0  0  0
  -22.3680  -10.9676   19.6167 H   0  0  0  0  0  0
  -21.2010   -7.6157   23.9721 H   0  0  0  0  0  0
  -21.1482   -6.0529   25.9080 H   0  0  0  0  0  0
  -22.0596   -2.7613   23.2853 H   0  0  0  0  0  0
  -22.4119  -11.9871   22.4754 H   0  0  0  0  0  0
  -21.1131  -13.1261   22.2633 H   0  0  0  0  0  0
  -24.6718  -15.8491   20.5390 H   0  0  0  0  0  0
  -26.2923  -15.6294   20.1145 H   0  0  0  0  0  0
  -26.7115  -32.5558   23.1163 H   0  0  0  0  0  0
  -25.0039  -33.9753   25.0461 H   0  0  0  0  0  0
  -22.6925  -31.3057   21.4084 H   0  0  0  0  0  0
  -23.3735  -35.9669   23.3306 H   0  0  0  0  0  0
  -24.3568  -36.8955   22.2052 H   0  0  0  0  0  0
  -23.7259  -37.6529   23.6667 H   0  0  0  0  0  0
  -26.0383  -31.5990   20.5905 H   0  0  0  0  0  0
  -26.8196  -30.8933   21.9774 H   0  0  0  0  0  0
  -28.1048  -29.1092   21.1628 H   0  0  0  0  0  0
  -26.0693  -25.9631   19.0305 H   0  0  0  0  0  0
  -23.9808  -27.2862   19.0445 H   0  0  0  0  0  0
  -23.7138  -30.5917   19.4029 H   0  0  0  0  0  0
  -22.7369  -29.2343   19.8744 H   0  0  0  0  0  0
  -25.1284  -36.1967   25.0826 H   0  0  0  0  0  0
  -20.9935  -28.3220   24.1445 H   0  0  0  0  0  0
  -20.5647  -26.2258   23.3599 H   0  0  0  0  0  0
  -21.6626  -26.7410   22.1231 H   0  0  0  0  0  0
  -19.6886  -25.6284   21.1241 H   0  0  0  0  0  0
  -19.6682  -27.3178   20.6734 H   0  0  0  0  0  0
  -17.4182  -26.6678   21.3998 H   0  0  0  0  0  0
  -18.0289  -26.0058   22.8990 H   0  0  0  0  0  0
  -19.7931  -30.7242   24.2269 H   0  0  0  0  0  0
  -17.5021  -31.6258   24.5152 H   0  0  0  0  0  0
  -15.5349  -30.2974   23.7648 H   0  0  0  0  0  0
  -15.8661  -28.0823   22.7049 H   0  0  0  0  0  0
  -24.5902  -30.7065   25.7820 H   0  0  0  0  0  0
  -24.8927  -32.2865   26.4916 H   0  0  0  0  0  0
  -25.8095  -30.8882   27.0230 H   0  0  0  0  0  0
  -26.2876  -29.6786   24.1190 H   0  0  0  0  0  0
  -27.4126  -29.7305   25.4578 H   0  0  0  0  0  0
  -27.8689  -30.4381   23.9253 H   0  0  0  0  0  0
  -27.2675  -33.3639   26.2069 H   0  0  0  0  0  0
  -28.3844  -32.6885   25.0314 H   0  0  0  0  0  0
  -28.0716  -31.8464   26.5417 H   0  0  0  0  0  0
  -28.2589  -38.0110   24.7508 H   0  0  0  0  0  0
  -28.1084  -36.2637   24.6289 H   0  0  0  0  0  0
  -27.2293  -37.1476   25.8861 H   0  0  0  0  0  0
  -20.9282  -29.8792   21.6999 H   0  0  0  0  0  0
  -26.0187  -38.2868   24.1407 H   0  0  0  0  0  0
  -31.9288  -20.2486   19.6375 H   0  0  0  0  0  0
  -30.4877  -16.5615   23.0543 H   0  0  0  0  0  0
  -31.8269  -16.4629   21.9769 H   0  0  0  0  0  0
  -28.0381  -22.6052   20.7054 H   0  0  0  0  0  0
  -29.1245  -22.9647   22.0277 H   0  0  0  0  0  0
  -28.5056  -25.6660   21.9255 H   0  0  0  0  0  0
  -27.2950  -25.0350   20.8455 H   0  0  0  0  0  0
  -29.1837  -24.3109   19.2555 H   0  0  0  0  0  0
  -28.2911  -17.2893   23.0091 H   0  0  0  0  0  0
  -27.4914  -18.8014   22.9709 H   0  0  0  0  0  0
  -30.8016  -22.3850   19.8905 H   0  0  0  0  0  0
  -29.1732  -15.1804   21.6765 H   0  0  0  0  0  0
  -30.6811  -24.7133   21.6298 H   0  0  0  0  0  0
  1 25  1  0  0  0
  1 30  2  0  0  0
  1 83  1  0  0  0
  2  3  1  0  0  0
  2 25  1  0  0  0
  2 85  1  0  0  0
  2 86  1  0  0  0
  3  4  1  0  0  0
  3 87  1  0  0  0
  3 88  1  0  0  0
  4  5  1  0  0  0
  4 89  1  0  0  0
  4 90  1  0  0  0
  5  6  1  0  0  0
  5 26  1  0  0  0
  5 91  1  0  0  0
  6 25  1  0  0  0
  6 92  1  0  0  0
  6 93  1  0  0  0
  7  8  2  0  0  0
  7 26  1  0  0  0
  7 29  1  0  0  0
  8  9  1  0  0  0
  8 22  1  0  0  0
  9 10  1  0  0  0
  9 27  2  0  0  0
 10 11  2  0  0  0
 10 15  1  0  0  0
 11 12  1  0  0  0
 11 94  1  0  0  0
 12 13  2  0  0  0
 12 95  1  0  0  0
 13 14  1  0  0  0
 13 31  1  0  0  0
 14 15  2  0  0  0
 14 96  1  0  0  0
 15 97  1  0  0  0
 16 17  2  0  0  0
 16 21  1  0  0  0
 16 31  1  0  0  0
 17 18  1  0  0  0
 17 98  1  0  0  0
 18 19  2  0  0  0
 18 99  1  0  0  0
 19 20  1  0  0  0
 19 24  1  0  0  0
 20 21  2  0  0  0
 20100  1  0  0  0
 21 23  1  0  0  0
 22 28  1  0  0  0
 22 32  2  0  0  0
 26 27  1  0  0  0
 28101  1  0  0  0
 28102  1  0  0  0
 29103  1  0  0  0
 29104  1  0  0  0
 33 34  1  0  0  0
 33 66  1  0  0  0
 33 70  2  0  0  0
 34 36  1  0  0  0
 34 59  1  0  0  0
 34105  1  0  0  0
 35 44  2  0  0  0
 35 45  1  0  0  0
 35 68  1  0  0  0
 36 56  1  0  0  0
 36106  1  0  0  0
 37 39  1  0  0  0
 37 47  1  0  0  0
 37 66  1  0  0  0
 37107  1  0  0  0
 38 43  2  0  0  0
 38 46  1  0  0  0
 38 47  1  0  0  0
 39 64  1  0  0  0
 39 67  2  0  0  0
 40 52  1  0  0  0
 40 53  2  0  0  0
 40 58  1  0  0  0
 41108  1  0  0  0
 41109  1  0  0  0
 41110  1  0  0  0
 41 48  1  0  0  0
 42 43  1  0  0  0
 42 66  1  0  0  0
 42111  1  0  0  0
 42112  1  0  0  0
 43 44  1  0  0  0
 44113  1  0  0  0
 45 46  2  0  0  0
 45114  1  0  0  0
 46115  1  0  0  0
 47116  1  0  0  0
 47117  1  0  0  0
 48 56  1  0  0  0
 48 65  1  0  0  0
 48118  1  0  0  0
 49 50  1  0  0  0
 49 53  1  0  0  0
 49 64  1  0  0  0
 49119  1  0  0  0
 50 51  1  0  0  0
 50120  1  0  0  0
 50121  1  0  0  0
 51 52  1  0  0  0
 51122  1  0  0  0
 51123  1  0  0  0
 52124  1  0  0  0
 52125  1  0  0  0
 53 54  1  0  0  0
 54 55  2  0  0  0
 54126  1  0  0  0
 55 57  1  0  0  0
 55127  1  0  0  0
 56 69  2  0  0  0
 57 58  2  0  0  0
 57128  1  0  0  0
 58129  1  0  0  0
 59 60  1  0  0  0
 59 61  1  0  0  0
 59 62  1  0  0  0
 60130  1  0  0  0
 60131  1  0  0  0
 60132  1  0  0  0
 61133  1  0  0  0
 61134  1  0  0  0
 61135  1  0  0  0
 62136  1  0  0  0
 62137  1  0  0  0
 62138  1  0  0  0
 63 65  1  0  0  0
 63139  1  0  0  0
 63140  1  0  0  0
 63141  1  0  0  0
 64142  1  0  0  0
 65143  1  0  0  0
 68 77  1  0  0  0
 71 73  2  0  0  0
 71 79  1  0  0  0
 71144  1  0  0  0
 72 74  1  0  0  0
 72 75  1  0  0  0
 72 79  2  0  0  0
 73 80  1  0  0  0
 73 82  1  0  0  0
 74 80  2  0  0  0
 74 81  1  0  0  0
 75 83  1  0  0  0
 75145  1  0  0  0
 75146  1  0  0  0
 76 78  1  0  0  0
 76 82  1  0  0  0
 76147  1  0  0  0
 76148  1  0  0  0
 77 78  1  0  0  0
 77149  1  0  0  0
 77150  1  0  0  0
 78 84  1  0  0  0
 78151  1  0  0  0
 81152  1  0  0  0
 81153  1  0  0  0
 82154  1  0  0  0
 83155  1  0  0  0
 84156  1  0  0  0
M  ISO  4   1 100  68 101  77 101  83 100
M  END
> <chiral flag>
0

> <version>
0

> <s_m_source_file>
/data/baiqing/PycharmProjects/Reinvent-master-3.2/result/LINK_invent/BTK/process_docking_weight1_custom_product_contain_oxygen_bond_distance_aromatic_linkinvent_7_9_3/rearranged_h_0193.sdf

> <i_m_source_file_index>
72

> <r_mmod_Potential_Energy-OPLS-2005>
-107.525169372559

> <r_mmod_Stretch_Energy-OPLS-2005>
42.2410697937012

> <r_mmod_Bend_Energy-OPLS-2005>
116.048843383789

> <r_mmod_Torsional_Energy-OPLS-2005>
238.540878295898

> <r_mmod_Improper_Torsional_Energy-OPLS-2005>
4.42886829376221

> <r_mmod_Van_der_Waal_Energy-OPLS-2005>
155.978897094727

> <r_mmod_Electrostatic_Energy-OPLS-2005>
-408.660675048828

> <r_mmod_Solvation_Energy-OPLS-2005>
-268.907928466797

> <b_mmod_Minimization_Converged-OPLS-2005>
0

> <r_mmod_RMS_Derivative-OPLS-2005>
1.72588765621185

$$$$
72
                    3D
 Structure written by MMmdl.
170178  0  0  1  0            999 V2000
  -30.7088  -14.4600   20.5868 C   0  0  0  0  0  0
  -30.4281  -12.3057   19.4230 C   0  0  0  0  0  0
  -29.4990  -12.5112   18.2087 C   0  0  0  0  0  0
  -28.0201  -12.3716   18.6211 C   0  0  0  0  0  0
  -27.6649  -13.2056   19.8798 C   0  0  2  0  0  0
  -28.7059  -12.9834   21.0011 C   0  0  0  0  0  0
  -25.2589  -13.8133   20.5674 C   0  0  0  0  0  0
  -24.1828  -13.0422   20.9203 C   0  0  0  0  0  0
  -24.6393  -11.6889   20.8745 C   0  0  0  0  0  0
  -23.9030  -10.4290   21.0404 C   0  0  0  0  0  0
  -24.3577   -9.4208   21.9188 C   0  0  0  0  0  0
  -23.6267   -8.2229   22.0719 C   0  0  0  0  0  0
  -22.4233   -8.0280   21.3534 C   0  0  0  0  0  0
  -21.9874   -9.0251   20.4627 C   0  0  0  0  0  0
  -22.7205  -10.2130   20.3049 C   0  0  0  0  0  0
  -21.6832   -6.0733   22.5283 C   0  0  0  0  0  0
  -21.4021   -6.5639   23.8228 C   0  0  0  0  0  0
  -21.3652   -5.6792   24.9189 C   0  0  0  0  0  0
  -21.6038   -4.3053   24.7230 C   0  0  0  0  0  0
  -21.8819   -3.8146   23.4350 C   0  0  0  0  0  0
  -21.9170   -4.6956   22.3406 C   0  0  0  0  0  0
  -22.7850  -13.5201   21.1867 C   0  0  0  0  0  0
  -22.1610   -4.2142   21.0975 F   0  0  0  0  0  0
  -21.5649   -3.4534   25.7740 F   0  0  0  0  0  0
  -30.0414  -13.2824   20.4518 N   0  0  0  0  0  0
  -26.3030  -12.9299   20.3373 N   0  0  0  0  0  0
  -25.9318  -11.6464   20.5770 N   0  0  0  0  0  0
  -22.0475  -12.8222   22.0428 N   0  0  0  0  0  0
  -25.4335  -15.1831   20.4031 N   0  0  0  0  0  0
  -31.8331  -14.6506   20.1063 O   0  0  0  0  0  0
  -21.6596   -6.8874   21.4240 O   0  0  0  0  0  0
  -22.3544  -14.5522   20.6729 O   0  0  0  0  0  0
  -24.6162  -31.8683   23.2090 C   0  0  0  0  0  0
  -25.9058  -32.4820   23.8391 C   0  0  1  0  0  0
  -27.2394  -27.4289   20.1022 C   0  0  0  0  0  0
  -25.5931  -33.8615   24.2352 N   0  0  0  0  0  0
  -23.4048  -30.4898   21.5494 C   0  0  2  0  0  0
  -24.8493  -28.9527   20.1123 C   0  0  0  0  0  0
  -22.7422  -29.4652   22.4988 C   0  0  0  0  0  0
  -18.0276  -28.1391   22.8479 C   0  0  0  0  0  0
  -24.1470  -36.7300   23.2625 C   0  0  0  0  0  0
  -25.9316  -30.8280   21.3623 C   0  0  0  0  0  0
  -26.0081  -29.4623   20.7102 C   0  0  0  0  0  0
  -27.2047  -28.7105   20.6981 C   0  0  0  0  0  0
  -26.0617  -26.9327   19.4959 C   0  0  0  0  0  0
  -24.8703  -27.6864   19.5014 C   0  0  0  0  0  0
  -23.6124  -29.8236   20.1621 C   0  0  0  0  0  0
  -25.4092  -36.3118   24.0340 C   0  0  1  0  0  0
  -20.5859  -28.3679   23.1321 C   0  0  2  0  0  0
  -20.6756  -26.9416   22.5434 C   0  0  0  0  0  0
  -19.5754  -26.6408   21.5217 C   0  0  0  0  0  0
  -18.1929  -26.7941   22.1610 C   0  0  0  0  0  0
  -19.1521  -28.8845   23.2891 C   0  0  0  0  0  0
  -18.9459  -30.1446   23.8906 C   0  0  0  0  0  0
  -17.6461  -30.6569   24.0572 C   0  0  0  0  0  0
  -25.9027  -34.9471   23.5134 C   0  0  0  0  0  0
  -16.5342  -29.9079   23.6335 C   0  0  0  0  0  0
  -16.7266  -28.6504   23.0334 C   0  0  0  0  0  0
  -26.4484  -31.6599   25.0727 C   0  0  0  0  0  0
  -25.3777  -31.3729   26.1511 C   0  0  0  0  0  0
  -27.0299  -30.3029   24.6127 C   0  0  0  0  0  0
  -27.6104  -32.4282   25.7465 C   0  0  0  0  0  0
  -27.5597  -37.1786   24.8443 C   0  0  0  0  0  0
  -21.4147  -29.3026   22.3715 N   0  0  0  0  0  0
  -26.4279  -37.3819   23.9431 N   0  0  0  0  0  0
  -24.6688  -31.0760   22.1000 N   0  0  0  0  0  0
  -23.4175  -28.8213   23.3059 O   0  0  0  0  0  0
  -28.4217  -26.7112   20.1249 O   0  0  0  0  0  0
  -26.5589  -34.8933   22.4693 O   0  0  0  0  0  0
  -23.5359  -32.1465   23.7482 O   0  0  0  0  0  0
  -31.0618  -18.9111   21.0375 C   0  0  0  0  0  0
  -30.1180  -19.1441   20.0563 C   0  0  0  0  0  0
  -30.1818  -16.8196   20.8890 C   0  0  0  0  0  0
  -27.1022  -22.5408   17.7140 C   0  0  0  0  0  0
  -25.3317  -21.2434   18.8511 C   0  0  0  0  0  0
  -27.1227  -20.0362   17.6101 C   0  0  0  0  0  0
  -29.5620  -24.6229   20.7915 C   0  0  0  0  0  0
  -29.7543  -21.9876   21.1478 C   0  0  0  0  0  0
  -27.6364  -21.1978   19.8536 C   0  0  0  0  0  0
  -28.3350  -25.2761   20.1043 C   0  0  0  0  0  0
  -29.1688  -21.4639   19.8116 C   0  0  2  0  0  0
  -29.2463  -23.3685   21.6653 C   0  0  1  0  0  0
  -26.8349  -21.2514   18.5130 C   0  0  0  0  0  0
  -31.0834  -17.5885   21.5128 N   0  0  0  0  0  0
  -29.8993  -20.2999   19.2890 N   0  0  0  0  0  0
  -30.0214  -15.4442   21.1886 N   0  0  0  0  0  0
  -29.8617  -23.5497   22.9319 O   0  0  0  0  0  0
  -29.1983  -17.6923   19.7166 S   0  0  0  0  0  0
  -31.4720  -12.4079   19.1226 H   0  0  0  0  0  0
  -30.3308  -11.2915   19.8149 H   0  0  0  0  0  0
  -29.7327  -11.7835   17.4297 H   0  0  0  0  0  0
  -29.6688  -13.4978   17.7709 H   0  0  0  0  0  0
  -27.8334  -11.3148   18.8176 H   0  0  0  0  0  0
  -27.3693  -12.6501   17.7912 H   0  0  0  0  0  0
  -27.7057  -14.2552   19.5876 H   0  0  0  0  0  0
  -28.6754  -11.9505   21.3505 H   0  0  0  0  0  0
  -28.4642  -13.5913   21.8738 H   0  0  0  0  0  0
  -25.2730   -9.5682   22.4756 H   0  0  0  0  0  0
  -23.9989   -7.4608   22.7426 H   0  0  0  0  0  0
  -21.0791   -8.8771   19.8944 H   0  0  0  0  0  0
  -22.3672  -10.9652   19.6134 H   0  0  0  0  0  0
  -21.2031   -7.6155   23.9750 H   0  0  0  0  0  0
  -21.1452   -6.0508   25.9093 H   0  0  0  0  0  0
  -22.0599   -2.7609   23.2848 H   0  0  0  0  0  0
  -22.4017  -11.9841   22.4791 H   0  0  0  0  0  0
  -21.1097  -13.1280   22.2599 H   0  0  0  0  0  0
  -24.6696  -15.8387   20.5141 H   0  0  0  0  0  0
  -26.2853  -15.6198   20.0728 H   0  0  0  0  0  0
  -26.7137  -32.5528   23.1160 H   0  0  0  0  0  0
  -25.0145  -33.9791   25.0541 H   0  0  0  0  0  0
  -22.6950  -31.3075   21.4110 H   0  0  0  0  0  0
  -23.3765  -35.9597   23.3249 H   0  0  0  0  0  0
  -24.3601  -36.8966   22.2060 H   0  0  0  0  0  0
  -23.7169  -37.6470   23.6648 H   0  0  0  0  0  0
  -26.0495  -31.5913   20.5909 H   0  0  0  0  0  0
  -26.8156  -30.8799   21.9855 H   0  0  0  0  0  0
  -28.1010  -29.1024   21.1594 H   0  0  0  0  0  0
  -26.0517  -25.9688   19.0064 H   0  0  0  0  0  0
  -23.9799  -27.2893   19.0319 H   0  0  0  0  0  0
  -23.7241  -30.6022   19.4062 H   0  0  0  0  0  0
  -22.7351  -29.2468   19.8638 H   0  0  0  0  0  0
  -25.1259  -36.1978   25.0835 H   0  0  0  0  0  0
  -20.9968  -28.3232   24.1436 H   0  0  0  0  0  0
  -20.5683  -26.2283   23.3626 H   0  0  0  0  0  0
  -21.6613  -26.7460   22.1210 H   0  0  0  0  0  0
  -19.6907  -25.6319   21.1253 H   0  0  0  0  0  0
  -19.6716  -27.3230   20.6762 H   0  0  0  0  0  0
  -17.4228  -26.6718   21.3972 H   0  0  0  0  0  0
  -18.0283  -26.0054   22.8977 H   0  0  0  0  0  0
  -19.7936  -30.7258   24.2262 H   0  0  0  0  0  0
  -17.5017  -31.6252   24.5191 H   0  0  0  0  0  0
  -15.5347  -30.2995   23.7640 H   0  0  0  0  0  0
  -15.8663  -28.0843   22.7026 H   0  0  0  0  0  0
  -24.5916  -30.7114   25.7857 H   0  0  0  0  0  0
  -24.9006  -32.2901   26.4965 H   0  0  0  0  0  0
  -25.8151  -30.8893   27.0262 H   0  0  0  0  0  0
  -26.2832  -29.6794   24.1209 H   0  0  0  0  0  0
  -27.4079  -29.7273   25.4587 H   0  0  0  0  0  0
  -27.8667  -30.4316   23.9262 H   0  0  0  0  0  0
  -27.2772  -33.3577   26.2078 H   0  0  0  0  0  0
  -28.3882  -32.6849   25.0259 H   0  0  0  0  0  0
  -28.0802  -31.8377   26.5348 H   0  0  0  0  0  0
  -28.2561  -38.0140   24.7603 H   0  0  0  0  0  0
  -28.1150  -36.2692   24.6097 H   0  0  0  0  0  0
  -27.2362  -37.1239   25.8855 H   0  0  0  0  0  0
  -20.9312  -29.8765   21.6946 H   0  0  0  0  0  0
  -26.0167  -38.2878   24.1529 H   0  0  0  0  0  0
  -31.7938  -19.6124   21.4196 H   0  0  0  0  0  0
  -26.4789  -22.5835   16.8196 H   0  0  0  0  0  0
  -28.1346  -22.6166   17.3725 H   0  0  0  0  0  0
  -26.8651  -23.4247   18.3014 H   0  0  0  0  0  0
  -24.7192  -21.2524   17.9490 H   0  0  0  0  0  0
  -25.0463  -22.1222   19.4339 H   0  0  0  0  0  0
  -25.0508  -20.3609   19.4287 H   0  0  0  0  0  0
  -26.4647  -20.0328   16.7403 H   0  0  0  0  0  0
  -26.9654  -19.0962   18.1380 H   0  0  0  0  0  0
  -28.1424  -20.0405   17.2268 H   0  0  0  0  0  0
  -30.0149  -25.3912   21.4185 H   0  0  0  0  0  0
  -30.3202  -24.3897   20.0441 H   0  0  0  0  0  0
  -30.8396  -22.0378   21.0562 H   0  0  0  0  0  0
  -29.5547  -21.2413   21.9196 H   0  0  0  0  0  0
  -27.1808  -21.9393   20.5064 H   0  0  0  0  0  0
  -27.4463  -20.2486   20.3571 H   0  0  0  0  0  0
  -27.4231  -24.9494   20.6064 H   0  0  0  0  0  0
  -28.2746  -24.9416   19.0694 H   0  0  0  0  0  0
  -29.3519  -22.2686   19.1033 H   0  0  0  0  0  0
  -28.1764  -23.3183   21.8697 H   0  0  0  0  0  0
  -29.5051  -20.0249   18.3942 H   0  0  0  0  0  0
  -29.0967  -15.1704   21.4852 H   0  0  0  0  0  0
  -30.8064  -23.5215   22.8094 H   0  0  0  0  0  0
  1 25  1  0  0  0
  1 30  2  0  0  0
  1 86  1  0  0  0
  2  3  1  0  0  0
  2 25  1  0  0  0
  2 89  1  0  0  0
  2 90  1  0  0  0
  3  4  1  0  0  0
  3 91  1  0  0  0
  3 92  1  0  0  0
  4  5  1  0  0  0
  4 93  1  0  0  0
  4 94  1  0  0  0
  5  6  1  0  0  0
  5 26  1  0  0  0
  5 95  1  0  0  0
  6 25  1  0  0  0
  6 96  1  0  0  0
  6 97  1  0  0  0
  7  8  2  0  0  0
  7 26  1  0  0  0
  7 29  1  0  0  0
  8  9  1  0  0  0
  8 22  1  0  0  0
  9 10  1  0  0  0
  9 27  2  0  0  0
 10 11  2  0  0  0
 10 15  1  0  0  0
 11 12  1  0  0  0
 11 98  1  0  0  0
 12 13  2  0  0  0
 12 99  1  0  0  0
 13 14  1  0  0  0
 13 31  1  0  0  0
 14 15  2  0  0  0
 14100  1  0  0  0
 15101  1  0  0  0
 16 17  2  0  0  0
 16 21  1  0  0  0
 16 31  1  0  0  0
 17 18  1  0  0  0
 17102  1  0  0  0
 18 19  2  0  0  0
 18103  1  0  0  0
 19 20  1  0  0  0
 19 24  1  0  0  0
 20 21  2  0  0  0
 20104  1  0  0  0
 21 23  1  0  0  0
 22 28  1  0  0  0
 22 32  2  0  0  0
 26 27  1  0  0  0
 28105  1  0  0  0
 28106  1  0  0  0
 29107  1  0  0  0
 29108  1  0  0  0
 33 34  1  0  0  0
 33 66  1  0  0  0
 33 70  2  0  0  0
 34 36  1  0  0  0
 34 59  1  0  0  0
 34109  1  0  0  0
 35 44  2  0  0  0
 35 45  1  0  0  0
 35 68  1  0  0  0
 36 56  1  0  0  0
 36110  1  0  0  0
 37 39  1  0  0  0
 37 47  1  0  0  0
 37 66  1  0  0  0
 37111  1  0  0  0
 38 43  2  0  0  0
 38 46  1  0  0  0
 38 47  1  0  0  0
 39 64  1  0  0  0
 39 67  2  0  0  0
 40 52  1  0  0  0
 40 53  2  0  0  0
 40 58  1  0  0  0
 41112  1  0  0  0
 41113  1  0  0  0
 41114  1  0  0  0
 41 48  1  0  0  0
 42 43  1  0  0  0
 42 66  1  0  0  0
 42115  1  0  0  0
 42116  1  0  0  0
 43 44  1  0  0  0
 44117  1  0  0  0
 45 46  2  0  0  0
 45118  1  0  0  0
 46119  1  0  0  0
 47120  1  0  0  0
 47121  1  0  0  0
 48 56  1  0  0  0
 48 65  1  0  0  0
 48122  1  0  0  0
 49 50  1  0  0  0
 49 53  1  0  0  0
 49 64  1  0  0  0
 49123  1  0  0  0
 50 51  1  0  0  0
 50124  1  0  0  0
 50125  1  0  0  0
 51 52  1  0  0  0
 51126  1  0  0  0
 51127  1  0  0  0
 52128  1  0  0  0
 52129  1  0  0  0
 53 54  1  0  0  0
 54 55  2  0  0  0
 54130  1  0  0  0
 55 57  1  0  0  0
 55131  1  0  0  0
 56 69  2  0  0  0
 57 58  2  0  0  0
 57132  1  0  0  0
 58133  1  0  0  0
 59 60  1  0  0  0
 59 61  1  0  0  0
 59 62  1  0  0  0
 60134  1  0  0  0
 60135  1  0  0  0
 60136  1  0  0  0
 61137  1  0  0  0
 61138  1  0  0  0
 61139  1  0  0  0
 62140  1  0  0  0
 62141  1  0  0  0
 62142  1  0  0  0
 63 65  1  0  0  0
 63143  1  0  0  0
 63144  1  0  0  0
 63145  1  0  0  0
 64146  1  0  0  0
 65147  1  0  0  0
 68 80  1  0  0  0
 71 72  2  0  0  0
 71 84  1  0  0  0
 71148  1  0  0  0
 72 85  1  0  0  0
 72 88  1  0  0  0
 73 84  2  0  0  0
 73 86  1  0  0  0
 73 88  1  0  0  0
 74149  1  0  0  0
 74150  1  0  0  0
 74151  1  0  0  0
 74 83  1  0  0  0
 75 83  1  0  0  0
 75152  1  0  0  0
 75153  1  0  0  0
 75154  1  0  0  0
 76 83  1  0  0  0
 76155  1  0  0  0
 76156  1  0  0  0
 76157  1  0  0  0
 77 80  1  0  0  0
 77 82  1  0  0  0
 77158  1  0  0  0
 77159  1  0  0  0
 78 82  1  0  0  0
 78160  1  0  0  0
 78161  1  0  0  0
 78 81  1  0  0  0
 79 81  1  0  0  0
 79 83  1  0  0  0
 79162  1  0  0  0
 79163  1  0  0  0
 80164  1  0  0  0
 80165  1  0  0  0
 81 85  1  0  0  0
 81166  1  0  0  0
 82 87  1  0  0  0
 82167  1  0  0  0
 85168  1  0  0  0
 86169  1  0  0  0
 87170  1  0  0  0
M  ISO  4   1 100  68 101  80 101  86 100
M  END
> <chiral flag>
0

> <version>
0

> <s_m_source_file>
/data/baiqing/PycharmProjects/Reinvent-master-3.2/result/LINK_invent/BTK/process_docking_weight1_custom_product_contain_oxygen_bond_distance_aromatic_linkinvent_7_9_3/rearranged_h_0193.sdf

> <i_m_source_file_index>
73

> <r_mmod_Potential_Energy-OPLS-2005>
36.9278221130371

> <r_mmod_Stretch_Energy-OPLS-2005>
40.0434837341309

> <r_mmod_Bend_Energy-OPLS-2005>
115.350517272949

> <r_mmod_Torsional_Energy-OPLS-2005>
283.981109619141

> <r_mmod_Improper_Torsional_Energy-OPLS-2005>
10.1327695846558

> <r_mmod_Van_der_Waal_Energy-OPLS-2005>
122.923881530762

> <r_mmod_Electrostatic_Energy-OPLS-2005>
-305.200561523438

> <r_mmod_Solvation_Energy-OPLS-2005>
-242.97966003418

> <b_mmod_Minimization_Converged-OPLS-2005>
0

> <r_mmod_RMS_Derivative-OPLS-2005>
3.66983032226562

$$$$
73
                    3D
 Structure written by MMmdl.
168176  0  0  1  0            999 V2000
  -30.7495  -14.4870   20.4858 C   0  0  0  0  0  0
  -30.3938  -12.2881   19.4433 C   0  0  0  0  0  0
  -29.4958  -12.4812   18.2072 C   0  0  0  0  0  0
  -28.0173  -12.3488   18.6160 C   0  0  0  0  0  0
  -27.6533  -13.2143   19.8549 C   0  0  2  0  0  0
  -28.7002  -13.0826   20.9877 C   0  0  0  0  0  0
  -25.2561  -13.8170   20.5618 C   0  0  0  0  0  0
  -24.1842  -13.0420   20.9119 C   0  0  0  0  0  0
  -24.6388  -11.6882   20.8624 C   0  0  0  0  0  0
  -23.9027  -10.4296   21.0292 C   0  0  0  0  0  0
  -24.3588   -9.4265   21.9119 C   0  0  0  0  0  0
  -23.6294   -8.2282   22.0740 C   0  0  0  0  0  0
  -22.4285   -8.0270   21.3540 C   0  0  0  0  0  0
  -21.9875   -9.0223   20.4633 C   0  0  0  0  0  0
  -22.7165  -10.2130   20.3001 C   0  0  0  0  0  0
  -21.6885   -6.0706   22.5255 C   0  0  0  0  0  0
  -21.4029   -6.5622   23.8187 C   0  0  0  0  0  0
  -21.3687   -5.6788   24.9157 C   0  0  0  0  0  0
  -21.6054   -4.3050   24.7224 C   0  0  0  0  0  0
  -21.8832   -3.8120   23.4354 C   0  0  0  0  0  0
  -21.9223   -4.6928   22.3405 C   0  0  0  0  0  0
  -22.7878  -13.5195   21.1818 C   0  0  0  0  0  0
  -22.1656   -4.2098   21.0980 F   0  0  0  0  0  0
  -21.5666   -3.4541   25.7757 F   0  0  0  0  0  0
  -30.0274  -13.3354   20.4131 N   0  0  0  0  0  0
  -26.2998  -12.9348   20.3286 N   0  0  0  0  0  0
  -25.9337  -11.6497   20.5706 N   0  0  0  0  0  0
  -22.0548  -12.8181   22.0391 N   0  0  0  0  0  0
  -25.4275  -15.1896   20.4027 N   0  0  0  0  0  0
  -31.9366  -14.5006   20.1660 O   0  0  0  0  0  0
  -21.6690   -6.8833   21.4209 O   0  0  0  0  0  0
  -22.3543  -14.5512   20.6717 O   0  0  0  0  0  0
  -24.6202  -31.8659   23.2038 C   0  0  0  0  0  0
  -25.9093  -32.4784   23.8358 C   0  0  1  0  0  0
  -27.2288  -27.3906   20.1116 C   0  0  0  0  0  0
  -25.5944  -33.8590   24.2297 N   0  0  0  0  0  0
  -23.4099  -30.4927   21.5428 C   0  0  2  0  0  0
  -24.8563  -28.9485   20.1131 C   0  0  0  0  0  0
  -22.7441  -29.4698   22.4939 C   0  0  0  0  0  0
  -18.0293  -28.1397   22.8480 C   0  0  0  0  0  0
  -24.1510  -36.7290   23.2639 C   0  0  0  0  0  0
  -25.9451  -30.8153   21.3677 C   0  0  0  0  0  0
  -26.0200  -29.4496   20.7123 C   0  0  0  0  0  0
  -27.2132  -28.6822   20.7014 C   0  0  0  0  0  0
  -26.0507  -26.9201   19.4938 C   0  0  0  0  0  0
  -24.8715  -27.6878   19.4945 C   0  0  0  0  0  0
  -23.6197  -29.8210   20.1606 C   0  0  0  0  0  0
  -25.4137  -36.3096   24.0332 C   0  0  1  0  0  0
  -20.5891  -28.3712   23.1263 C   0  0  2  0  0  0
  -20.6791  -26.9444   22.5392 C   0  0  0  0  0  0
  -19.5778  -26.6395   21.5192 C   0  0  0  0  0  0
  -18.1952  -26.7939   22.1598 C   0  0  0  0  0  0
  -19.1548  -28.8866   23.2871 C   0  0  0  0  0  0
  -18.9471  -30.1465   23.8893 C   0  0  0  0  0  0
  -17.6471  -30.6579   24.0572 C   0  0  0  0  0  0
  -25.9068  -34.9460   23.5102 C   0  0  0  0  0  0
  -16.5356  -29.9076   23.6335 C   0  0  0  0  0  0
  -16.7286  -28.6501   23.0341 C   0  0  0  0  0  0
  -26.4499  -31.6580   25.0704 C   0  0  0  0  0  0
  -25.3737  -31.3711   26.1429 C   0  0  0  0  0  0
  -27.0311  -30.3002   24.6135 C   0  0  0  0  0  0
  -27.6101  -32.4294   25.7422 C   0  0  0  0  0  0
  -27.5601  -37.1803   24.8469 C   0  0  0  0  0  0
  -21.4165  -29.3061   22.3638 N   0  0  0  0  0  0
  -26.4317  -37.3781   23.9405 N   0  0  0  0  0  0
  -24.6757  -31.0759   22.0928 N   0  0  0  0  0  0
  -23.4184  -28.8263   23.3014 O   0  0  0  0  0  0
  -28.3736  -26.6093   20.0950 O   0  0  0  0  0  0
  -26.5632  -34.8919   22.4670 O   0  0  0  0  0  0
  -23.5395  -32.1423   23.7424 O   0  0  0  0  0  0
  -31.6398  -17.2835   19.6724 C   0  0  0  0  0  0
  -30.4308  -16.9935   20.3810 C   0  0  0  0  0  0
  -31.1982  -19.5355   19.6520 C   0  0  0  0  0  0
  -29.9502  -19.3117   20.3054 C   0  0  0  0  0  0
  -27.9076  -22.1727   16.0929 C   0  0  0  0  0  0
  -26.5441  -22.8691   18.1035 C   0  0  0  0  0  0
  -28.8181  -21.5581   18.3890 C   0  0  0  0  0  0
  -29.4612  -22.8357   20.6398 C   0  0  0  0  0  0
  -28.2648  -25.2506   20.6076 C   0  0  0  0  0  0
  -27.5336  -21.8225   17.5485 C   0  0  0  0  0  0
  -28.7292  -21.6193   19.9501 C   0  0  2  0  0  0
  -29.3585  -24.2922   20.0289 C   0  0  1  0  0  0
  -32.0189  -18.5282   19.3190 N   0  0  0  0  0  0
  -29.5986  -18.0454   20.6781 N   0  0  0  0  0  0
  -31.6997  -20.7824   19.3266 N   0  0  0  0  0  0
  -30.0712  -15.6341   20.7444 N   0  0  0  0  0  0
  -29.0008  -20.3200   20.6196 N   0  0  0  0  0  0
  -30.5966  -24.9265   20.3154 O   0  0  0  0  0  0
  -31.4492  -12.3101   19.1649 H   0  0  0  0  0  0
  -30.2151  -11.3052   19.8810 H   0  0  0  0  0  0
  -29.7379  -11.7452   17.4409 H   0  0  0  0  0  0
  -29.6810  -13.4606   17.7644 H   0  0  0  0  0  0
  -27.8259  -11.2962   18.8293 H   0  0  0  0  0  0
  -27.3725  -12.6042   17.7738 H   0  0  0  0  0  0
  -27.6732  -14.2478   19.5169 H   0  0  0  0  0  0
  -28.6764  -12.0836   21.4214 H   0  0  0  0  0  0
  -28.4841  -13.7839   21.7947 H   0  0  0  0  0  0
  -25.2716   -9.5805   22.4704 H   0  0  0  0  0  0
  -24.0070   -7.4689   22.7449 H   0  0  0  0  0  0
  -21.0821   -8.8644   19.8938 H   0  0  0  0  0  0
  -22.3506  -10.9651   19.6139 H   0  0  0  0  0  0
  -21.1981   -7.6126   23.9651 H   0  0  0  0  0  0
  -21.1507   -6.0529   25.9063 H   0  0  0  0  0  0
  -22.0584   -2.7569   23.2868 H   0  0  0  0  0  0
  -22.4161  -11.9891   22.4869 H   0  0  0  0  0  0
  -21.1168  -13.1218   22.2541 H   0  0  0  0  0  0
  -24.6572  -15.8460   20.4861 H   0  0  0  0  0  0
  -26.2888  -15.6270   20.0982 H   0  0  0  0  0  0
  -26.7160  -32.5476   23.1111 H   0  0  0  0  0  0
  -25.0120  -33.9740   25.0460 H   0  0  0  0  0  0
  -22.7017  -31.3099   21.3997 H   0  0  0  0  0  0
  -23.3777  -35.9609   23.3273 H   0  0  0  0  0  0
  -24.3625  -36.8931   22.2060 H   0  0  0  0  0  0
  -23.7225  -37.6471   23.6672 H   0  0  0  0  0  0
  -26.0862  -31.5817   20.6048 H   0  0  0  0  0  0
  -26.8221  -30.8525   22.0016 H   0  0  0  0  0  0
  -28.1104  -29.0737   21.1642 H   0  0  0  0  0  0
  -26.0399  -25.9612   18.9967 H   0  0  0  0  0  0
  -23.9872  -27.2979   19.0117 H   0  0  0  0  0  0
  -23.7231  -30.5896   19.3937 H   0  0  0  0  0  0
  -22.7421  -29.2396   19.8719 H   0  0  0  0  0  0
  -25.1318  -36.1954   25.0823 H   0  0  0  0  0  0
  -21.0012  -28.3301   24.1373 H   0  0  0  0  0  0
  -20.5706  -26.2337   23.3602 H   0  0  0  0  0  0
  -21.6660  -26.7499   22.1173 H   0  0  0  0  0  0
  -19.6946  -25.6307   21.1226 H   0  0  0  0  0  0
  -19.6700  -27.3197   20.6716 H   0  0  0  0  0  0
  -17.4237  -26.6713   21.3980 H   0  0  0  0  0  0
  -18.0343  -26.0069   22.8986 H   0  0  0  0  0  0
  -19.7950  -30.7285   24.2239 H   0  0  0  0  0  0
  -17.5025  -31.6259   24.5184 H   0  0  0  0  0  0
  -15.5361  -30.2975   23.7659 H   0  0  0  0  0  0
  -15.8697  -28.0821   22.7044 H   0  0  0  0  0  0
  -24.5878  -30.7112   25.7731 H   0  0  0  0  0  0
  -24.8960  -32.2874   26.4920 H   0  0  0  0  0  0
  -25.8042  -30.8807   27.0167 H   0  0  0  0  0  0
  -26.2839  -29.6716   24.1265 H   0  0  0  0  0  0
  -27.4120  -29.7307   25.4626 H   0  0  0  0  0  0
  -27.8684  -30.4274   23.9258 H   0  0  0  0  0  0
  -27.2776  -33.3627   26.1986 H   0  0  0  0  0  0
  -28.3885  -32.6797   25.0192 H   0  0  0  0  0  0
  -28.0792  -31.8407   26.5316 H   0  0  0  0  0  0
  -28.2636  -38.0090   24.7528 H   0  0  0  0  0  0
  -28.1085  -36.2625   24.6287 H   0  0  0  0  0  0
  -27.2331  -37.1439   25.8877 H   0  0  0  0  0  0
  -20.9357  -29.8717   21.6788 H   0  0  0  0  0  0
  -26.0205  -38.2867   24.1360 H   0  0  0  0  0  0
  -32.3632  -16.5551   19.3506 H   0  0  0  0  0  0
  -27.0381  -22.1544   15.4318 H   0  0  0  0  0  0
  -28.6302  -21.4633   15.6838 H   0  0  0  0  0  0
  -28.3418  -23.1711   16.0226 H   0  0  0  0  0  0
  -25.6829  -22.9822   17.4419 H   0  0  0  0  0  0
  -26.9952  -23.8548   18.2110 H   0  0  0  0  0  0
  -26.1314  -22.5672   19.0665 H   0  0  0  0  0  0
  -29.6171  -22.2139   18.0458 H   0  0  0  0  0  0
  -29.1435  -20.5637   18.0734 H   0  0  0  0  0  0
  -30.5164  -22.5774   20.7187 H   0  0  0  0  0  0
  -29.1490  -22.8877   21.6860 H   0  0  0  0  0  0
  -28.3596  -25.3059   21.6925 H   0  0  0  0  0  0
  -27.2853  -24.8085   20.4270 H   0  0  0  0  0  0
  -26.9929  -20.8737   17.5140 H   0  0  0  0  0  0
  -27.6812  -21.7604   20.1922 H   0  0  0  0  0  0
  -29.2692  -24.2402   18.9444 H   0  0  0  0  0  0
  -31.0455  -21.5479   19.4372 H   0  0  0  0  0  0
  -32.2626  -20.8390   18.4882 H   0  0  0  0  0  0
  -29.1424  -15.5070   21.1163 H   0  0  0  0  0  0
  -28.2310  -19.9694   21.1794 H   0  0  0  0  0  0
  -30.4892  -25.4238   21.1213 H   0  0  0  0  0  0
  1 25  1  0  0  0
  1 30  2  0  0  0
  1 86  1  0  0  0
  2  3  1  0  0  0
  2 25  1  0  0  0
  2 89  1  0  0  0
  2 90  1  0  0  0
  3  4  1  0  0  0
  3 91  1  0  0  0
  3 92  1  0  0  0
  4  5  1  0  0  0
  4 93  1  0  0  0
  4 94  1  0  0  0
  5  6  1  0  0  0
  5 26  1  0  0  0
  5 95  1  0  0  0
  6 25  1  0  0  0
  6 96  1  0  0  0
  6 97  1  0  0  0
  7  8  2  0  0  0
  7 26  1  0  0  0
  7 29  1  0  0  0
  8  9  1  0  0  0
  8 22  1  0  0  0
  9 10  1  0  0  0
  9 27  2  0  0  0
 10 11  2  0  0  0
 10 15  1  0  0  0
 11 12  1  0  0  0
 11 98  1  0  0  0
 12 13  2  0  0  0
 12 99  1  0  0  0
 13 14  1  0  0  0
 13 31  1  0  0  0
 14 15  2  0  0  0
 14100  1  0  0  0
 15101  1  0  0  0
 16 17  2  0  0  0
 16 21  1  0  0  0
 16 31  1  0  0  0
 17 18  1  0  0  0
 17102  1  0  0  0
 18 19  2  0  0  0
 18103  1  0  0  0
 19 20  1  0  0  0
 19 24  1  0  0  0
 20 21  2  0  0  0
 20104  1  0  0  0
 21 23  1  0  0  0
 22 28  1  0  0  0
 22 32  2  0  0  0
 26 27  1  0  0  0
 28105  1  0  0  0
 28106  1  0  0  0
 29107  1  0  0  0
 29108  1  0  0  0
 33 34  1  0  0  0
 33 66  1  0  0  0
 33 70  2  0  0  0
 34 36  1  0  0  0
 34 59  1  0  0  0
 34109  1  0  0  0
 35 44  2  0  0  0
 35 45  1  0  0  0
 35 68  1  0  0  0
 36 56  1  0  0  0
 36110  1  0  0  0
 37 39  1  0  0  0
 37 47  1  0  0  0
 37 66  1  0  0  0
 37111  1  0  0  0
 38 43  2  0  0  0
 38 46  1  0  0  0
 38 47  1  0  0  0
 39 64  1  0  0  0
 39 67  2  0  0  0
 40 52  1  0  0  0
 40 53  2  0  0  0
 40 58  1  0  0  0
 41112  1  0  0  0
 41113  1  0  0  0
 41114  1  0  0  0
 41 48  1  0  0  0
 42 43  1  0  0  0
 42 66  1  0  0  0
 42115  1  0  0  0
 42116  1  0  0  0
 43 44  1  0  0  0
 44117  1  0  0  0
 45 46  2  0  0  0
 45118  1  0  0  0
 46119  1  0  0  0
 47120  1  0  0  0
 47121  1  0  0  0
 48 56  1  0  0  0
 48 65  1  0  0  0
 48122  1  0  0  0
 49 50  1  0  0  0
 49 53  1  0  0  0
 49 64  1  0  0  0
 49123  1  0  0  0
 50 51  1  0  0  0
 50124  1  0  0  0
 50125  1  0  0  0
 51 52  1  0  0  0
 51126  1  0  0  0
 51127  1  0  0  0
 52128  1  0  0  0
 52129  1  0  0  0
 53 54  1  0  0  0
 54 55  2  0  0  0
 54130  1  0  0  0
 55 57  1  0  0  0
 55131  1  0  0  0
 56 69  2  0  0  0
 57 58  2  0  0  0
 57132  1  0  0  0
 58133  1  0  0  0
 59 60  1  0  0  0
 59 61  1  0  0  0
 59 62  1  0  0  0
 60134  1  0  0  0
 60135  1  0  0  0
 60136  1  0  0  0
 61137  1  0  0  0
 61138  1  0  0  0
 61139  1  0  0  0
 62140  1  0  0  0
 62141  1  0  0  0
 62142  1  0  0  0
 63 65  1  0  0  0
 63143  1  0  0  0
 63144  1  0  0  0
 63145  1  0  0  0
 64146  1  0  0  0
 65147  1  0  0  0
 68 79  1  0  0  0
 71 72  2  0  0  0
 71 83  1  0  0  0
 71148  1  0  0  0
 72 84  1  0  0  0
 72 86  1  0  0  0
 73 74  1  0  0  0
 73 83  2  0  0  0
 73 85  1  0  0  0
 74 84  2  0  0  0
 74 87  1  0  0  0
 75149  1  0  0  0
 75150  1  0  0  0
 75151  1  0  0  0
 75 80  1  0  0  0
 76 80  1  0  0  0
 76152  1  0  0  0
 76153  1  0  0  0
 76154  1  0  0  0
 77 80  1  0  0  0
 77155  1  0  0  0
 77156  1  0  0  0
 77 81  1  0  0  0
 78 81  1  0  0  0
 78 82  1  0  0  0
 78157  1  0  0  0
 78158  1  0  0  0
 79 82  1  0  0  0
 79159  1  0  0  0
 79160  1  0  0  0
 80161  1  0  0  0
 81 87  1  0  0  0
 81162  1  0  0  0
 82 88  1  0  0  0
 82163  1  0  0  0
 85164  1  0  0  0
 85165  1  0  0  0
 86166  1  0  0  0
 87167  1  0  0  0
 88168  1  0  0  0
M  ISO  4   1 100  68 101  79 101  86 100
M  END
> <chiral flag>
0

> <version>
0

> <s_m_source_file>
/data/baiqing/PycharmProjects/Reinvent-master-3.2/result/LINK_invent/BTK/process_docking_weight1_custom_product_contain_oxygen_bond_distance_aromatic_linkinvent_7_9_3/rearranged_h_0193.sdf

> <i_m_source_file_index>
74

> <r_mmod_Potential_Energy-OPLS-2005>
-1.99393725395203

> <r_mmod_Stretch_Energy-OPLS-2005>
60.549201965332

> <r_mmod_Bend_Energy-OPLS-2005>
164.029647827148

> <r_mmod_Torsional_Energy-OPLS-2005>
286.878936767578

> <r_mmod_Improper_Torsional_Energy-OPLS-2005>
9.12247276306152

> <r_mmod_Van_der_Waal_Energy-OPLS-2005>
166.820587158203

> <r_mmod_Electrostatic_Energy-OPLS-2005>
-476.847106933594

> <r_mmod_Solvation_Energy-OPLS-2005>
-240.532272338867

> <b_mmod_Minimization_Converged-OPLS-2005>
0

> <r_mmod_RMS_Derivative-OPLS-2005>
5.53208065032959

$$$$
74
                    3D
 Structure written by MMmdl.
169177  0  0  1  0            999 V2000
  -30.7065  -14.4852   20.6055 C   0  0  0  0  0  0
  -30.4244  -12.3299   19.4193 C   0  0  0  0  0  0
  -29.4946  -12.5233   18.2055 C   0  0  0  0  0  0
  -28.0191  -12.3601   18.6199 C   0  0  0  0  0  0
  -27.6600  -13.1991   19.8742 C   0  0  2  0  0  0
  -28.7030  -12.9943   20.9942 C   0  0  0  0  0  0
  -25.2604  -13.8125   20.5681 C   0  0  0  0  0  0
  -24.1831  -13.0391   20.9109 C   0  0  0  0  0  0
  -24.6379  -11.6869   20.8670 C   0  0  0  0  0  0
  -23.9044  -10.4270   21.0353 C   0  0  0  0  0  0
  -24.3607   -9.4208   21.9139 C   0  0  0  0  0  0
  -23.6278   -8.2248   22.0747 C   0  0  0  0  0  0
  -22.4265   -8.0274   21.3543 C   0  0  0  0  0  0
  -21.9881   -9.0234   20.4637 C   0  0  0  0  0  0
  -22.7202  -10.2111   20.3022 C   0  0  0  0  0  0
  -21.6842   -6.0735   22.5299 C   0  0  0  0  0  0
  -21.3996   -6.5646   23.8227 C   0  0  0  0  0  0
  -21.3658   -5.6804   24.9194 C   0  0  0  0  0  0
  -21.6061   -4.3071   24.7257 C   0  0  0  0  0  0
  -21.8803   -3.8155   23.4372 C   0  0  0  0  0  0
  -21.9176   -4.6967   22.3424 C   0  0  0  0  0  0
  -22.7876  -13.5224   21.1797 C   0  0  0  0  0  0
  -22.1644   -4.2149   21.1003 F   0  0  0  0  0  0
  -21.5638   -3.4541   25.7766 F   0  0  0  0  0  0
  -30.0304  -13.3137   20.4393 N   0  0  0  0  0  0
  -26.3013  -12.9268   20.3358 N   0  0  0  0  0  0
  -25.9311  -11.6424   20.5742 N   0  0  0  0  0  0
  -22.0514  -12.8242   22.0390 N   0  0  0  0  0  0
  -25.4352  -15.1838   20.4194 N   0  0  0  0  0  0
  -31.8212  -14.6880   20.1176 O   0  0  0  0  0  0
  -21.6614   -6.8884   21.4265 O   0  0  0  0  0  0
  -22.3577  -14.5522   20.6635 O   0  0  0  0  0  0
  -24.6195  -31.8651   23.2089 C   0  0  0  0  0  0
  -25.9073  -32.4801   23.8395 C   0  0  1  0  0  0
  -27.2303  -27.3896   20.1102 C   0  0  0  0  0  0
  -25.5914  -33.8602   24.2315 N   0  0  0  0  0  0
  -23.4089  -30.4911   21.5492 C   0  0  2  0  0  0
  -24.8583  -28.9593   20.1116 C   0  0  0  0  0  0
  -22.7437  -29.4653   22.4970 C   0  0  0  0  0  0
  -18.0284  -28.1379   22.8491 C   0  0  0  0  0  0
  -24.1501  -36.7314   23.2637 C   0  0  0  0  0  0
  -25.9452  -30.8176   21.3718 C   0  0  0  0  0  0
  -26.0217  -29.4516   20.7158 C   0  0  0  0  0  0
  -27.2108  -28.6770   20.7103 C   0  0  0  0  0  0
  -26.0438  -26.9386   19.4794 C   0  0  0  0  0  0
  -24.8678  -27.7054   19.4853 C   0  0  0  0  0  0
  -23.6214  -29.8271   20.1629 C   0  0  0  0  0  0
  -25.4122  -36.3103   24.0328 C   0  0  1  0  0  0
  -20.5876  -28.3671   23.1304 C   0  0  2  0  0  0
  -20.6772  -26.9402   22.5408 C   0  0  0  0  0  0
  -19.5757  -26.6388   21.5201 C   0  0  0  0  0  0
  -18.1942  -26.7925   22.1620 C   0  0  0  0  0  0
  -19.1531  -28.8844   23.2897 C   0  0  0  0  0  0
  -18.9463  -30.1453   23.8906 C   0  0  0  0  0  0
  -17.6467  -30.6589   24.0570 C   0  0  0  0  0  0
  -25.9045  -34.9466   23.5118 C   0  0  0  0  0  0
  -16.5358  -29.9094   23.6330 C   0  0  0  0  0  0
  -16.7272  -28.6508   23.0348 C   0  0  0  0  0  0
  -26.4487  -31.6592   25.0735 C   0  0  0  0  0  0
  -25.3738  -31.3706   26.1468 C   0  0  0  0  0  0
  -27.0330  -30.3033   24.6138 C   0  0  0  0  0  0
  -27.6066  -32.4307   25.7496 C   0  0  0  0  0  0
  -27.5588  -37.1819   24.8462 C   0  0  0  0  0  0
  -21.4157  -29.3041   22.3703 N   0  0  0  0  0  0
  -26.4308  -37.3787   23.9393 N   0  0  0  0  0  0
  -24.6760  -31.0732   22.1005 N   0  0  0  0  0  0
  -23.4187  -28.8188   23.3019 O   0  0  0  0  0  0
  -28.3669  -26.5860   20.1680 O   0  0  0  0  0  0
  -26.5619  -34.8915   22.4684 O   0  0  0  0  0  0
  -23.5381  -32.1418   23.7466 O   0  0  0  0  0  0
  -29.7955  -17.9506   20.9548 C   0  0  0  0  0  0
  -28.7323  -17.9194   20.0639 C   0  0  0  0  0  0
  -29.4913  -20.2137   20.5776 C   0  0  0  0  0  0
  -30.3117  -14.5609   24.2477 C   0  0  0  0  0  0
  -32.5017  -15.7440   23.8209 C   0  0  0  0  0  0
  -30.9588  -16.5290   25.6163 C   0  0  0  0  0  0
  -30.3115  -16.9356   23.2235 C   0  0  0  0  0  0
  -28.8084  -22.6916   20.1609 C   0  0  0  0  0  0
  -28.1273  -25.1543   20.0657 C   0  0  0  0  0  0
  -30.4989  -16.7886   21.6810 C   0  0  2  0  0  0
  -29.2344  -24.1496   20.5260 C   0  0  1  0  0  0
  -31.0181  -15.9341   24.1938 C   0  0  0  0  0  0
  -30.2283  -19.2799   21.1970 N   0  0  0  0  0  0
  -28.0408  -16.8399   19.5172 N   0  0  0  0  0  0
  -29.6433  -21.6038   20.6917 N   0  0  0  0  0  0
  -30.0393  -15.4465   21.2714 N   0  0  0  0  0  0
  -29.3443  -24.1591   21.9395 O   0  0  0  0  0  0
  -28.2246  -19.5203   19.5807 S   0  0  0  0  0  0
  -31.4719  -12.4300   19.1281 H   0  0  0  0  0  0
  -30.3226  -11.3189   19.8151 H   0  0  0  0  0  0
  -29.7426  -11.8090   17.4189 H   0  0  0  0  0  0
  -29.6505  -13.5171   17.7821 H   0  0  0  0  0  0
  -27.8484  -11.3019   18.8227 H   0  0  0  0  0  0
  -27.3638  -12.6222   17.7892 H   0  0  0  0  0  0
  -27.6967  -14.2407   19.5637 H   0  0  0  0  0  0
  -28.4520  -13.5893   21.8743 H   0  0  0  0  0  0
  -28.6923  -11.9572   21.3334 H   0  0  0  0  0  0
  -25.2760   -9.5694   22.4694 H   0  0  0  0  0  0
  -23.9964   -7.4673   22.7504 H   0  0  0  0  0  0
  -21.0779   -8.8742   19.8985 H   0  0  0  0  0  0
  -22.3629  -10.9646   19.6130 H   0  0  0  0  0  0
  -21.1969   -7.6160   23.9702 H   0  0  0  0  0  0
  -21.1501   -6.0566   25.9082 H   0  0  0  0  0  0
  -22.0567   -2.7614   23.2893 H   0  0  0  0  0  0
  -22.4100  -11.9882   22.4757 H   0  0  0  0  0  0
  -21.1158  -13.1327   22.2625 H   0  0  0  0  0  0
  -24.6657  -15.8394   20.4992 H   0  0  0  0  0  0
  -26.3225  -15.6460   20.2210 H   0  0  0  0  0  0
  -26.7141  -32.5507   23.1151 H   0  0  0  0  0  0
  -25.0040  -33.9760   25.0443 H   0  0  0  0  0  0
  -22.6997  -31.3091   21.4080 H   0  0  0  0  0  0
  -23.3749  -35.9663   23.3311 H   0  0  0  0  0  0
  -24.3602  -36.8922   22.2052 H   0  0  0  0  0  0
  -23.7270  -37.6525   23.6649 H   0  0  0  0  0  0
  -26.0672  -31.5833   20.6053 H   0  0  0  0  0  0
  -26.8281  -30.8659   21.9968 H   0  0  0  0  0  0
  -28.1028  -29.0494   21.1951 H   0  0  0  0  0  0
  -25.9925  -25.9822   18.9802 H   0  0  0  0  0  0
  -23.9776  -27.3238   19.0039 H   0  0  0  0  0  0
  -23.7322  -30.6019   19.4037 H   0  0  0  0  0  0
  -22.7473  -29.2455   19.8637 H   0  0  0  0  0  0
  -25.1308  -36.1969   25.0823 H   0  0  0  0  0  0
  -20.9964  -28.3238   24.1423 H   0  0  0  0  0  0
  -20.5678  -26.2274   23.3595 H   0  0  0  0  0  0
  -21.6650  -26.7451   22.1206 H   0  0  0  0  0  0
  -19.6921  -25.6300   21.1236 H   0  0  0  0  0  0
  -19.6702  -27.3192   20.6729 H   0  0  0  0  0  0
  -17.4201  -26.6657   21.4032 H   0  0  0  0  0  0
  -18.0370  -26.0065   22.9020 H   0  0  0  0  0  0
  -19.7942  -30.7268   24.2270 H   0  0  0  0  0  0
  -17.5024  -31.6267   24.5171 H   0  0  0  0  0  0
  -15.5357  -30.3001   23.7648 H   0  0  0  0  0  0
  -15.8670  -28.0835   22.7050 H   0  0  0  0  0  0
  -24.5907  -30.7055   25.7788 H   0  0  0  0  0  0
  -24.8928  -32.2867   26.4918 H   0  0  0  0  0  0
  -25.8078  -30.8863   27.0224 H   0  0  0  0  0  0
  -26.2899  -29.6784   24.1158 H   0  0  0  0  0  0
  -27.4054  -29.7273   25.4619 H   0  0  0  0  0  0
  -27.8753  -30.4338   23.9334 H   0  0  0  0  0  0
  -27.2690  -33.3587   26.2119 H   0  0  0  0  0  0
  -28.3857  -32.6890   25.0310 H   0  0  0  0  0  0
  -28.0749  -31.8392   26.5375 H   0  0  0  0  0  0
  -28.2615  -38.0111   24.7505 H   0  0  0  0  0  0
  -28.1081  -36.2641   24.6303 H   0  0  0  0  0  0
  -27.2303  -37.1483   25.8867 H   0  0  0  0  0  0
  -20.9318  -29.8769   21.6929 H   0  0  0  0  0  0
  -26.0196  -38.2868   24.1368 H   0  0  0  0  0  0
  -30.6649  -13.9595   25.0870 H   0  0  0  0  0  0
  -30.4911  -13.9600   23.3598 H   0  0  0  0  0  0
  -29.2325  -14.6676   24.3581 H   0  0  0  0  0  0
  -33.0276  -15.1588   24.5750 H   0  0  0  0  0  0
  -33.0176  -16.7010   23.7318 H   0  0  0  0  0  0
  -32.6219  -15.2194   22.8743 H   0  0  0  0  0  0
  -31.4255  -15.8686   26.3504 H   0  0  0  0  0  0
  -29.9304  -16.6938   25.9434 H   0  0  0  0  0  0
  -31.4774  -17.4862   25.6721 H   0  0  0  0  0  0
  -29.2434  -16.9513   23.4450 H   0  0  0  0  0  0
  -30.6594  -17.9353   23.4864 H   0  0  0  0  0  0
  -28.7687  -22.5921   19.0762 H   0  0  0  0  0  0
  -27.7878  -22.5159   20.5065 H   0  0  0  0  0  0
  -27.2158  -24.8907   20.6065 H   0  0  0  0  0  0
  -27.9373  -24.9507   19.0103 H   0  0  0  0  0  0
  -31.5669  -16.8689   21.4706 H   0  0  0  0  0  0
  -30.1961  -24.4010   20.0765 H   0  0  0  0  0  0
  -28.6309  -16.0506   19.2874 H   0  0  0  0  0  0
  -27.4442  -17.0658   18.7254 H   0  0  0  0  0  0
  -30.3624  -21.9092   21.3408 H   0  0  0  0  0  0
  -29.0960  -15.2222   21.5451 H   0  0  0  0  0  0
  -28.5945  -23.6806   22.2782 H   0  0  0  0  0  0
  1 25  1  0  0  0
  1 30  2  0  0  0
  1 86  1  0  0  0
  2  3  1  0  0  0
  2 25  1  0  0  0
  2 89  1  0  0  0
  2 90  1  0  0  0
  3  4  1  0  0  0
  3 91  1  0  0  0
  3 92  1  0  0  0
  4  5  1  0  0  0
  4 93  1  0  0  0
  4 94  1  0  0  0
  5  6  1  0  0  0
  5 26  1  0  0  0
  5 95  1  0  0  0
  6 25  1  0  0  0
  6 96  1  0  0  0
  6 97  1  0  0  0
  7  8  2  0  0  0
  7 26  1  0  0  0
  7 29  1  0  0  0
  8  9  1  0  0  0
  8 22  1  0  0  0
  9 10  1  0  0  0
  9 27  2  0  0  0
 10 11  2  0  0  0
 10 15  1  0  0  0
 11 12  1  0  0  0
 11 98  1  0  0  0
 12 13  2  0  0  0
 12 99  1  0  0  0
 13 14  1  0  0  0
 13 31  1  0  0  0
 14 15  2  0  0  0
 14100  1  0  0  0
 15101  1  0  0  0
 16 17  2  0  0  0
 16 21  1  0  0  0
 16 31  1  0  0  0
 17 18  1  0  0  0
 17102  1  0  0  0
 18 19  2  0  0  0
 18103  1  0  0  0
 19 20  1  0  0  0
 19 24  1  0  0  0
 20 21  2  0  0  0
 20104  1  0  0  0
 21 23  1  0  0  0
 22 28  1  0  0  0
 22 32  2  0  0  0
 26 27  1  0  0  0
 28105  1  0  0  0
 28106  1  0  0  0
 29107  1  0  0  0
 29108  1  0  0  0
 33 34  1  0  0  0
 33 66  1  0  0  0
 33 70  2  0  0  0
 34 36  1  0  0  0
 34 59  1  0  0  0
 34109  1  0  0  0
 35 44  2  0  0  0
 35 45  1  0  0  0
 35 68  1  0  0  0
 36 56  1  0  0  0
 36110  1  0  0  0
 37 39  1  0  0  0
 37 47  1  0  0  0
 37 66  1  0  0  0
 37111  1  0  0  0
 38 43  2  0  0  0
 38 46  1  0  0  0
 38 47  1  0  0  0
 39 64  1  0  0  0
 39 67  2  0  0  0
 40 52  1  0  0  0
 40 53  2  0  0  0
 40 58  1  0  0  0
 41112  1  0  0  0
 41113  1  0  0  0
 41114  1  0  0  0
 41 48  1  0  0  0
 42 43  1  0  0  0
 42 66  1  0  0  0
 42115  1  0  0  0
 42116  1  0  0  0
 43 44  1  0  0  0
 44117  1  0  0  0
 45 46  2  0  0  0
 45118  1  0  0  0
 46119  1  0  0  0
 47120  1  0  0  0
 47121  1  0  0  0
 48 56  1  0  0  0
 48 65  1  0  0  0
 48122  1  0  0  0
 49 50  1  0  0  0
 49 53  1  0  0  0
 49 64  1  0  0  0
 49123  1  0  0  0
 50 51  1  0  0  0
 50124  1  0  0  0
 50125  1  0  0  0
 51 52  1  0  0  0
 51126  1  0  0  0
 51127  1  0  0  0
 52128  1  0  0  0
 52129  1  0  0  0
 53 54  1  0  0  0
 54 55  2  0  0  0
 54130  1  0  0  0
 55 57  1  0  0  0
 55131  1  0  0  0
 56 69  2  0  0  0
 57 58  2  0  0  0
 57132  1  0  0  0
 58133  1  0  0  0
 59 60  1  0  0  0
 59 61  1  0  0  0
 59 62  1  0  0  0
 60134  1  0  0  0
 60135  1  0  0  0
 60136  1  0  0  0
 61137  1  0  0  0
 61138  1  0  0  0
 61139  1  0  0  0
 62140  1  0  0  0
 62141  1  0  0  0
 62142  1  0  0  0
 63 65  1  0  0  0
 63143  1  0  0  0
 63144  1  0  0  0
 63145  1  0  0  0
 64146  1  0  0  0
 65147  1  0  0  0
 68 79  1  0  0  0
 71 72  2  0  0  0
 71 80  1  0  0  0
 71 83  1  0  0  0
 72 84  1  0  0  0
 72 88  1  0  0  0
 73 83  2  0  0  0
 73 85  1  0  0  0
 73 88  1  0  0  0
 74148  1  0  0  0
 74149  1  0  0  0
 74150  1  0  0  0
 74 82  1  0  0  0
 75 82  1  0  0  0
 75151  1  0  0  0
 75152  1  0  0  0
 75153  1  0  0  0
 76 82  1  0  0  0
 76154  1  0  0  0
 76155  1  0  0  0
 76156  1  0  0  0
 77 82  1  0  0  0
 77157  1  0  0  0
 77158  1  0  0  0
 77 80  1  0  0  0
 78 81  1  0  0  0
 78 85  1  0  0  0
 78159  1  0  0  0
 78160  1  0  0  0
 79 81  1  0  0  0
 79161  1  0  0  0
 79162  1  0  0  0
 80 86  1  0  0  0
 80163  1  0  0  0
 81 87  1  0  0  0
 81164  1  0  0  0
 84165  1  0  0  0
 84166  1  0  0  0
 85167  1  0  0  0
 86168  1  0  0  0
 87169  1  0  0  0
M  ISO  4   1 100  68 101  79 101  86 100
M  END
> <chiral flag>
0

> <version>
0

> <s_m_source_file>
/data/baiqing/PycharmProjects/Reinvent-master-3.2/result/LINK_invent/BTK/process_docking_weight1_custom_product_contain_oxygen_bond_distance_aromatic_linkinvent_7_9_3/rearranged_h_0193.sdf

> <i_m_source_file_index>
75

> <r_mmod_Potential_Energy-OPLS-2005>
-94.9154510498047

> <r_mmod_Stretch_Energy-OPLS-2005>
48.4391899108887

> <r_mmod_Bend_Energy-OPLS-2005>
119.730781555176

> <r_mmod_Torsional_Energy-OPLS-2005>
223.932998657227

> <r_mmod_Improper_Torsional_Energy-OPLS-2005>
7.40686273574829

> <r_mmod_Van_der_Waal_Energy-OPLS-2005>
132.066802978516

> <r_mmod_Electrostatic_Energy-OPLS-2005>
-422.370513916016

> <r_mmod_Solvation_Energy-OPLS-2005>
-223.412612915039

> <b_mmod_Minimization_Converged-OPLS-2005>
0

> <r_mmod_RMS_Derivative-OPLS-2005>
2.98436760902405

$$$$
75
                    3D
 Structure written by MMmdl.
159167  0  0  1  0            999 V2000
  -30.7625  -14.4819   20.5632 C   0  0  0  0  0  0
  -30.4096  -12.3091   19.4397 C   0  0  0  0  0  0
  -29.4877  -12.4854   18.2208 C   0  0  0  0  0  0
  -28.0175  -12.3268   18.6494 C   0  0  0  0  0  0
  -27.6547  -13.2131   19.8692 C   0  0  2  0  0  0
  -28.7013  -13.0636   20.9996 C   0  0  0  0  0  0
  -25.2525  -13.8171   20.5672 C   0  0  0  0  0  0
  -24.1810  -13.0435   20.9207 C   0  0  0  0  0  0
  -24.6381  -11.6910   20.8786 C   0  0  0  0  0  0
  -23.9065  -10.4284   21.0410 C   0  0  0  0  0  0
  -24.3624   -9.4178   21.9187 C   0  0  0  0  0  0
  -23.6288   -8.2219   22.0753 C   0  0  0  0  0  0
  -22.4258   -8.0291   21.3551 C   0  0  0  0  0  0
  -21.9887   -9.0262   20.4652 C   0  0  0  0  0  0
  -22.7230  -10.2128   20.3050 C   0  0  0  0  0  0
  -21.6837   -6.0728   22.5287 C   0  0  0  0  0  0
  -21.4017   -6.5626   23.8221 C   0  0  0  0  0  0
  -21.3680   -5.6788   24.9190 C   0  0  0  0  0  0
  -21.6041   -4.3046   24.7226 C   0  0  0  0  0  0
  -21.8818   -3.8136   23.4346 C   0  0  0  0  0  0
  -21.9163   -4.6958   22.3405 C   0  0  0  0  0  0
  -22.7830  -13.5214   21.1850 C   0  0  0  0  0  0
  -22.1640   -4.2136   21.0986 F   0  0  0  0  0  0
  -21.5617   -3.4538   25.7738 F   0  0  0  0  0  0
  -30.0345  -13.3339   20.4341 N   0  0  0  0  0  0
  -26.2998  -12.9383   20.3363 N   0  0  0  0  0  0
  -25.9304  -11.6540   20.5808 N   0  0  0  0  0  0
  -22.0467  -12.8258   22.0433 N   0  0  0  0  0  0
  -25.4172  -15.1903   20.4032 N   0  0  0  0  0  0
  -31.8880  -14.5749   20.0653 O   0  0  0  0  0  0
  -21.6624   -6.8880   21.4247 O   0  0  0  0  0  0
  -22.3531  -14.5521   20.6690 O   0  0  0  0  0  0
  -24.6193  -31.8654   23.2091 C   0  0  0  0  0  0
  -25.9086  -32.4779   23.8378 C   0  0  1  0  0  0
  -27.2319  -27.3919   20.1044 C   0  0  0  0  0  0
  -25.5956  -33.8576   24.2347 N   0  0  0  0  0  0
  -23.4085  -30.4909   21.5507 C   0  0  2  0  0  0
  -24.8565  -28.9559   20.1084 C   0  0  0  0  0  0
  -22.7419  -29.4669   22.4968 C   0  0  0  0  0  0
  -18.0259  -28.1421   22.8479 C   0  0  0  0  0  0
  -24.1486  -36.7295   23.2632 C   0  0  0  0  0  0
  -25.9406  -30.8167   21.3670 C   0  0  0  0  0  0
  -26.0163  -29.4468   20.7178 C   0  0  0  0  0  0
  -27.2055  -28.6727   20.7198 C   0  0  0  0  0  0
  -26.0511  -26.9368   19.4700 C   0  0  0  0  0  0
  -24.8716  -27.7025   19.4792 C   0  0  0  0  0  0
  -23.6187  -29.8249   20.1629 C   0  0  0  0  0  0
  -25.4094  -36.3084   24.0347 C   0  0  1  0  0  0
  -20.5850  -28.3708   23.1334 C   0  0  2  0  0  0
  -20.6778  -26.9454   22.5424 C   0  0  0  0  0  0
  -19.5757  -26.6437   21.5218 C   0  0  0  0  0  0
  -18.1926  -26.7965   22.1610 C   0  0  0  0  0  0
  -19.1516  -28.8887   23.2889 C   0  0  0  0  0  0
  -18.9415  -30.1487   23.8922 C   0  0  0  0  0  0
  -17.6414  -30.6609   24.0596 C   0  0  0  0  0  0
  -25.9039  -34.9457   23.5150 C   0  0  0  0  0  0
  -16.5312  -29.9114   23.6323 C   0  0  0  0  0  0
  -16.7254  -28.6537   23.0330 C   0  0  0  0  0  0
  -26.4510  -31.6528   25.0687 C   0  0  0  0  0  0
  -25.3811  -31.3591   26.1448 C   0  0  0  0  0  0
  -27.0314  -30.2977   24.6036 C   0  0  0  0  0  0
  -27.6109  -32.4204   25.7414 C   0  0  0  0  0  0
  -27.5574  -37.1783   24.8465 C   0  0  0  0  0  0
  -21.4135  -29.3051   22.3723 N   0  0  0  0  0  0
  -26.4285  -37.3772   23.9420 N   0  0  0  0  0  0
  -24.6755  -31.0731   22.1006 N   0  0  0  0  0  0
  -23.4169  -28.8220   23.3030 O   0  0  0  0  0  0
  -28.3814  -26.6095   20.1372 O   0  0  0  0  0  0
  -26.5556  -34.8912   22.4670 O   0  0  0  0  0  0
  -23.5377  -32.1402   23.7489 O   0  0  0  0  0  0
  -29.9385  -18.0176   21.2302 C   0  0  0  0  0  0
  -30.7207  -16.8439   21.3745 C   0  0  0  0  0  0
  -30.5405  -19.2714   21.4770 C   0  0  0  0  0  0
  -32.4735  -18.1890   22.0415 C   0  0  0  0  0  0
  -33.8825  -18.2615   22.5920 C   0  0  0  0  0  0
  -31.4258  -22.3907   21.7693 C   0  0  0  0  0  0
  -29.4302  -24.3135   20.4554 C   0  0  0  0  0  0
  -29.1026  -22.8139   20.7861 C   0  0  0  0  0  0
  -28.1903  -25.1712   20.0767 C   0  0  0  0  0  0
  -30.2904  -21.7915   20.9090 C   0  0  2  0  0  0
  -31.9894  -16.9759   21.8149 N   0  0  0  0  0  0
  -31.8195  -19.3327   21.8761 N   0  0  0  0  0  0
  -30.1424  -15.5588   21.1039 N   0  0  0  0  0  0
  -29.7984  -20.4753   21.3895 N   0  0  0  0  0  0
  -31.4531  -12.3777   19.1260 H   0  0  0  0  0  0
  -30.3032  -11.3103   19.8690 H   0  0  0  0  0  0
  -29.7306  -11.7578   17.4455 H   0  0  0  0  0  0
  -29.6399  -13.4717   17.7799 H   0  0  0  0  0  0
  -27.8685  -11.2755   18.9114 H   0  0  0  0  0  0
  -27.3507  -12.5258   17.8101 H   0  0  0  0  0  0
  -27.6820  -14.2453   19.5213 H   0  0  0  0  0  0
  -28.6717  -12.0546   21.4118 H   0  0  0  0  0  0
  -28.4662  -13.7276   21.8369 H   0  0  0  0  0  0
  -25.2747   -9.5612   22.4804 H   0  0  0  0  0  0
  -23.9951   -7.4576   22.7475 H   0  0  0  0  0  0
  -21.0798   -8.8822   19.8961 H   0  0  0  0  0  0
  -22.3711  -10.9699   19.6191 H   0  0  0  0  0  0
  -21.2049   -7.6143   23.9725 H   0  0  0  0  0  0
  -21.1508   -6.0524   25.9095 H   0  0  0  0  0  0
  -22.0566   -2.7594   23.2855 H   0  0  0  0  0  0
  -22.4035  -11.9929   22.4875 H   0  0  0  0  0  0
  -21.1109  -13.1312   22.2627 H   0  0  0  0  0  0
  -24.6288  -15.8260   20.4728 H   0  0  0  0  0  0
  -26.2481  -15.6297   20.0284 H   0  0  0  0  0  0
  -26.7147  -32.5494   23.1123 H   0  0  0  0  0  0
  -25.0155  -33.9718   25.0537 H   0  0  0  0  0  0
  -22.6972  -31.3089   21.4099 H   0  0  0  0  0  0
  -23.3736  -35.9639   23.3284 H   0  0  0  0  0  0
  -24.3607  -36.8902   22.2055 H   0  0  0  0  0  0
  -23.7248  -37.6519   23.6614 H   0  0  0  0  0  0
  -26.0459  -31.5776   20.5919 H   0  0  0  0  0  0
  -26.8321  -30.8837   21.9769 H   0  0  0  0  0  0
  -28.0940  -29.0425   21.2134 H   0  0  0  0  0  0
  -26.0122  -25.9885   18.9558 H   0  0  0  0  0  0
  -23.9888  -27.3214   18.9866 H   0  0  0  0  0  0
  -23.7233  -30.6014   19.4029 H   0  0  0  0  0  0
  -22.7429  -29.2449   19.8659 H   0  0  0  0  0  0
  -25.1255  -36.1951   25.0841 H   0  0  0  0  0  0
  -20.9906  -28.3295   24.1468 H   0  0  0  0  0  0
  -20.5735  -26.2306   23.3585 H   0  0  0  0  0  0
  -21.6646  -26.7548   22.1191 H   0  0  0  0  0  0
  -19.6932  -25.6357   21.1223 H   0  0  0  0  0  0
  -19.6730  -27.3280   20.6771 H   0  0  0  0  0  0
  -17.4204  -26.6718   21.4006 H   0  0  0  0  0  0
  -18.0327  -26.0120   22.9015 H   0  0  0  0  0  0
  -19.7908  -30.7301   24.2312 H   0  0  0  0  0  0
  -17.4978  -31.6284   24.5220 H   0  0  0  0  0  0
  -15.5330  -30.3019   23.7680 H   0  0  0  0  0  0
  -15.8635  -28.0896   22.7010 H   0  0  0  0  0  0
  -24.6039  -30.6863   25.7790 H   0  0  0  0  0  0
  -24.8940  -32.2730   26.4882 H   0  0  0  0  0  0
  -25.8255  -30.8797   27.0191 H   0  0  0  0  0  0
  -26.2837  -29.6693   24.1198 H   0  0  0  0  0  0
  -27.4214  -29.7226   25.4439 H   0  0  0  0  0  0
  -27.8611  -30.4244   23.9071 H   0  0  0  0  0  0
  -27.2787  -33.3503   26.2006 H   0  0  0  0  0  0
  -28.3914  -32.6738   25.0231 H   0  0  0  0  0  0
  -28.0772  -31.8302   26.5304 H   0  0  0  0  0  0
  -28.2587  -38.0079   24.7503 H   0  0  0  0  0  0
  -28.1075  -36.2616   24.6285 H   0  0  0  0  0  0
  -27.2299  -37.1447   25.8871 H   0  0  0  0  0  0
  -20.9322  -29.8735   21.6894 H   0  0  0  0  0  0
  -26.0170  -38.2849   24.1440 H   0  0  0  0  0  0
  -28.9062  -17.9484   20.9152 H   0  0  0  0  0  0
  -33.8831  -18.7281   23.5773 H   0  0  0  0  0  0
  -34.5257  -18.8491   21.9394 H   0  0  0  0  0  0
  -34.3278  -17.2696   22.6902 H   0  0  0  0  0  0
  -32.3433  -21.8017   21.7453 H   0  0  0  0  0  0
  -31.1243  -22.5118   22.8081 H   0  0  0  0  0  0
  -31.7183  -23.3742   21.4020 H   0  0  0  0  0  0
  -30.1529  -24.3631   19.6411 H   0  0  0  0  0  0
  -29.9061  -24.7789   21.3213 H   0  0  0  0  0  0
  -28.4045  -22.4472   20.0311 H   0  0  0  0  0  0
  -28.5413  -22.8065   21.7210 H   0  0  0  0  0  0
  -27.8860  -24.8801   19.0704 H   0  0  0  0  0  0
  -27.3729  -24.8967   20.7453 H   0  0  0  0  0  0
  -30.6921  -21.6167   19.9062 H   0  0  0  0  0  0
  -29.1609  -15.4537   21.3000 H   0  0  0  0  0  0
  -28.8116  -20.3200   21.2179 H   0  0  0  0  0  0
  1 25  1  0  0  0
  1 30  2  0  0  0
  1 83  1  0  0  0
  2  3  1  0  0  0
  2 25  1  0  0  0
  2 85  1  0  0  0
  2 86  1  0  0  0
  3  4  1  0  0  0
  3 87  1  0  0  0
  3 88  1  0  0  0
  4  5  1  0  0  0
  4 89  1  0  0  0
  4 90  1  0  0  0
  5  6  1  0  0  0
  5 26  1  0  0  0
  5 91  1  0  0  0
  6 25  1  0  0  0
  6 92  1  0  0  0
  6 93  1  0  0  0
  7  8  2  0  0  0
  7 26  1  0  0  0
  7 29  1  0  0  0
  8  9  1  0  0  0
  8 22  1  0  0  0
  9 10  1  0  0  0
  9 27  2  0  0  0
 10 11  2  0  0  0
 10 15  1  0  0  0
 11 12  1  0  0  0
 11 94  1  0  0  0
 12 13  2  0  0  0
 12 95  1  0  0  0
 13 14  1  0  0  0
 13 31  1  0  0  0
 14 15  2  0  0  0
 14 96  1  0  0  0
 15 97  1  0  0  0
 16 17  2  0  0  0
 16 21  1  0  0  0
 16 31  1  0  0  0
 17 18  1  0  0  0
 17 98  1  0  0  0
 18 19  2  0  0  0
 18 99  1  0  0  0
 19 20  1  0  0  0
 19 24  1  0  0  0
 20 21  2  0  0  0
 20100  1  0  0  0
 21 23  1  0  0  0
 22 28  1  0  0  0
 22 32  2  0  0  0
 26 27  1  0  0  0
 28101  1  0  0  0
 28102  1  0  0  0
 29103  1  0  0  0
 29104  1  0  0  0
 33 34  1  0  0  0
 33 66  1  0  0  0
 33 70  2  0  0  0
 34 36  1  0  0  0
 34 59  1  0  0  0
 34105  1  0  0  0
 35 44  2  0  0  0
 35 45  1  0  0  0
 35 68  1  0  0  0
 36 56  1  0  0  0
 36106  1  0  0  0
 37 39  1  0  0  0
 37 47  1  0  0  0
 37 66  1  0  0  0
 37107  1  0  0  0
 38 43  2  0  0  0
 38 46  1  0  0  0
 38 47  1  0  0  0
 39 64  1  0  0  0
 39 67  2  0  0  0
 40 52  1  0  0  0
 40 53  2  0  0  0
 40 58  1  0  0  0
 41108  1  0  0  0
 41109  1  0  0  0
 41110  1  0  0  0
 41 48  1  0  0  0
 42 43  1  0  0  0
 42 66  1  0  0  0
 42111  1  0  0  0
 42112  1  0  0  0
 43 44  1  0  0  0
 44113  1  0  0  0
 45 46  2  0  0  0
 45114  1  0  0  0
 46115  1  0  0  0
 47116  1  0  0  0
 47117  1  0  0  0
 48 56  1  0  0  0
 48 65  1  0  0  0
 48118  1  0  0  0
 49 50  1  0  0  0
 49 53  1  0  0  0
 49 64  1  0  0  0
 49119  1  0  0  0
 50 51  1  0  0  0
 50120  1  0  0  0
 50121  1  0  0  0
 51 52  1  0  0  0
 51122  1  0  0  0
 51123  1  0  0  0
 52124  1  0  0  0
 52125  1  0  0  0
 53 54  1  0  0  0
 54 55  2  0  0  0
 54126  1  0  0  0
 55 57  1  0  0  0
 55127  1  0  0  0
 56 69  2  0  0  0
 57 58  2  0  0  0
 57128  1  0  0  0
 58129  1  0  0  0
 59 60  1  0  0  0
 59 61  1  0  0  0
 59 62  1  0  0  0
 60130  1  0  0  0
 60131  1  0  0  0
 60132  1  0  0  0
 61133  1  0  0  0
 61134  1  0  0  0
 61135  1  0  0  0
 62136  1  0  0  0
 62137  1  0  0  0
 62138  1  0  0  0
 63 65  1  0  0  0
 63139  1  0  0  0
 63140  1  0  0  0
 63141  1  0  0  0
 64142  1  0  0  0
 65143  1  0  0  0
 68 79  1  0  0  0
 71 72  2  0  0  0
 71 73  1  0  0  0
 71144  1  0  0  0
 72 81  1  0  0  0
 72 83  1  0  0  0
 73 82  2  0  0  0
 73 84  1  0  0  0
 74 75  1  0  0  0
 74 81  2  0  0  0
 74 82  1  0  0  0
 75145  1  0  0  0
 75146  1  0  0  0
 75147  1  0  0  0
 76148  1  0  0  0
 76149  1  0  0  0
 76150  1  0  0  0
 76 80  1  0  0  0
 77 78  1  0  0  0
 77 79  1  0  0  0
 77151  1  0  0  0
 77152  1  0  0  0
 78 80  1  0  0  0
 78153  1  0  0  0
 78154  1  0  0  0
 79155  1  0  0  0
 79156  1  0  0  0
 80 84  1  0  0  0
 80157  1  0  0  0
 83158  1  0  0  0
 84159  1  0  0  0
M  ISO  4   1 100  68 101  79 101  83 100
M  END
> <chiral flag>
0

> <version>
0

> <s_m_source_file>
/data/baiqing/PycharmProjects/Reinvent-master-3.2/result/LINK_invent/BTK/process_docking_weight1_custom_product_contain_oxygen_bond_distance_aromatic_linkinvent_7_9_3/rearranged_h_0193.sdf

> <i_m_source_file_index>
76

> <r_mmod_Potential_Energy-OPLS-2005>
-497.459106445312

> <r_mmod_Stretch_Energy-OPLS-2005>
46.9571151733398

> <r_mmod_Bend_Energy-OPLS-2005>
123.433921813965

> <r_mmod_Torsional_Energy-OPLS-2005>
210.522705078125

> <r_mmod_Improper_Torsional_Energy-OPLS-2005>
6.22266101837158

> <r_mmod_Van_der_Waal_Energy-OPLS-2005>
168.195129394531

> <r_mmod_Electrostatic_Energy-OPLS-2005>
-822.316528320312

> <r_mmod_Solvation_Energy-OPLS-2005>
-252.043899536133

> <b_mmod_Minimization_Converged-OPLS-2005>
0

> <r_mmod_RMS_Derivative-OPLS-2005>
5.10726928710938

$$$$
76
                    3D
 Structure written by MMmdl.
154162  0  0  1  0            999 V2000
  -30.6270  -14.8099   20.4588 C   0  0  0  0  0  0
  -30.4477  -12.5070   19.4860 C   0  0  0  0  0  0
  -29.5219  -12.5043   18.2525 C   0  0  0  0  0  0
  -28.0490  -12.3342   18.6582 C   0  0  0  0  0  0
  -27.6459  -13.2450   19.8493 C   0  0  2  0  0  0
  -28.6937  -13.2293   20.9858 C   0  0  0  0  0  0
  -25.2574  -13.8241   20.5756 C   0  0  0  0  0  0
  -24.1851  -13.0463   20.9269 C   0  0  0  0  0  0
  -24.6462  -11.6954   20.8794 C   0  0  0  0  0  0
  -23.9150  -10.4299   21.0408 C   0  0  0  0  0  0
  -24.3688   -9.4210   21.9174 C   0  0  0  0  0  0
  -23.6360   -8.2242   22.0755 C   0  0  0  0  0  0
  -22.4332   -8.0300   21.3556 C   0  0  0  0  0  0
  -21.9989   -9.0280   20.4648 C   0  0  0  0  0  0
  -22.7340  -10.2150   20.3051 C   0  0  0  0  0  0
  -21.6868   -6.0777   22.5288 C   0  0  0  0  0  0
  -21.4001   -6.5674   23.8223 C   0  0  0  0  0  0
  -21.3637   -5.6824   24.9178 C   0  0  0  0  0  0
  -21.6052   -4.3088   24.7187 C   0  0  0  0  0  0
  -21.8819   -3.8181   23.4293 C   0  0  0  0  0  0
  -21.9200   -4.7015   22.3374 C   0  0  0  0  0  0
  -22.7837  -13.5230   21.1853 C   0  0  0  0  0  0
  -22.1676   -4.2220   21.0940 F   0  0  0  0  0  0
  -21.5624   -3.4547   25.7680 F   0  0  0  0  0  0
  -29.9891  -13.5869   20.3955 N   0  0  0  0  0  0
  -26.3014  -12.9466   20.3361 N   0  0  0  0  0  0
  -25.9412  -11.6600   20.5797 N   0  0  0  0  0  0
  -22.0462  -12.8253   22.0412 N   0  0  0  0  0  0
  -25.4256  -15.1955   20.4105 N   0  0  0  0  0  0
  -31.7965  -14.8955   20.0792 O   0  0  0  0  0  0
  -21.6693   -6.8906   21.4250 O   0  0  0  0  0  0
  -22.3481  -14.5484   20.6654 O   0  0  0  0  0  0
  -24.6370  -31.8483   23.1930 C   0  0  0  0  0  0
  -25.9120  -32.4724   23.8363 C   0  0  1  0  0  0
  -27.2177  -27.2072   20.1388 C   0  0  0  0  0  0
  -25.5852  -33.8525   24.2261 N   0  0  0  0  0  0
  -23.4420  -30.4698   21.5333 C   0  0  2  0  0  0
  -24.8914  -28.9151   20.1119 C   0  0  0  0  0  0
  -22.7542  -29.4553   22.4829 C   0  0  0  0  0  0
  -18.0308  -28.1387   22.8511 C   0  0  0  0  0  0
  -24.1452  -36.7283   23.2668 C   0  0  0  0  0  0
  -25.9943  -30.7485   21.3788 C   0  0  0  0  0  0
  -26.0653  -29.3664   20.7255 C   0  0  0  0  0  0
  -27.2349  -28.5278   20.7217 C   0  0  0  0  0  0
  -26.0154  -26.8430   19.4899 C   0  0  0  0  0  0
  -24.8757  -27.6668   19.4760 C   0  0  0  0  0  0
  -23.6641  -29.8031   20.1519 C   0  0  0  0  0  0
  -25.4073  -36.3063   24.0365 C   0  0  1  0  0  0
  -20.5909  -28.3701   23.1222 C   0  0  2  0  0  0
  -20.6756  -26.9386   22.5397 C   0  0  0  0  0  0
  -19.5717  -26.6372   21.5208 C   0  0  0  0  0  0
  -18.1922  -26.7935   22.1652 C   0  0  0  0  0  0
  -19.1559  -28.8849   23.2893 C   0  0  0  0  0  0
  -18.9489  -30.1441   23.8929 C   0  0  0  0  0  0
  -17.6483  -30.6589   24.0562 C   0  0  0  0  0  0
  -25.9023  -34.9430   23.5135 C   0  0  0  0  0  0
  -16.5371  -29.9096   23.6329 C   0  0  0  0  0  0
  -16.7296  -28.6493   23.0410 C   0  0  0  0  0  0
  -26.4478  -31.6585   25.0770 C   0  0  0  0  0  0
  -25.3721  -31.3741   26.1511 C   0  0  0  0  0  0
  -27.0344  -30.3006   24.6286 C   0  0  0  0  0  0
  -27.6039  -32.4334   25.7536 C   0  0  0  0  0  0
  -27.5558  -37.1777   24.8482 C   0  0  0  0  0  0
  -21.4231  -29.3055   22.3595 N   0  0  0  0  0  0
  -26.4258  -37.3764   23.9432 N   0  0  0  0  0  0
  -24.7107  -31.0420   22.0919 N   0  0  0  0  0  0
  -23.4226  -28.8101   23.2953 O   0  0  0  0  0  0
  -28.2922  -26.2665   20.1821 O   0  0  0  0  0  0
  -26.5650  -34.8896   22.4747 O   0  0  0  0  0  0
  -23.5476  -32.1317   23.7155 O   0  0  0  0  0  0
  -30.8349  -19.3654   20.4071 C   0  0  0  0  0  0
  -29.2731  -20.8016   20.3451 C   0  0  0  0  0  0
  -32.1979  -18.7487   20.4438 C   0  0  0  0  0  0
  -30.1483  -23.8349   21.3392 C   0  0  0  0  0  0
  -27.9849  -24.7737   20.3020 C   0  0  0  0  0  0
  -29.5163  -17.1389   19.8771 C   0  0  0  0  0  0
  -29.0850  -23.5495   20.2721 C   0  0  2  0  0  0
  -30.6296  -20.6983   20.4583 N   0  0  0  0  0  0
  -28.6800  -19.5788   20.2321 N   0  0  0  0  0  0
  -29.7132  -18.6253   20.2645 N   0  0  0  0  0  0
  -28.5687  -22.1058   20.3683 N   0  0  0  0  0  0
  -29.9251  -15.9666   20.7867 N   0  0  0  0  0  0
  -31.4787  -12.6467   19.1557 H   0  0  0  0  0  0
  -30.4304  -11.5472   20.0007 H   0  0  0  0  0  0
  -29.8151  -11.7067   17.5697 H   0  0  0  0  0  0
  -29.6501  -13.4364   17.7023 H   0  0  0  0  0  0
  -27.8953  -11.2874   18.9198 H   0  0  0  0  0  0
  -27.3996  -12.5255   17.8035 H   0  0  0  0  0  0
  -27.6242  -14.2622   19.4550 H   0  0  0  0  0  0
  -28.7556  -12.2534   21.4660 H   0  0  0  0  0  0
  -28.4140  -13.9458   21.7611 H   0  0  0  0  0  0
  -25.2813   -9.5691   22.4820 H   0  0  0  0  0  0
  -24.0107   -7.4591   22.7451 H   0  0  0  0  0  0
  -21.0951   -8.8774   19.8924 H   0  0  0  0  0  0
  -22.3788  -10.9706   19.6185 H   0  0  0  0  0  0
  -21.2005   -7.6184   23.9757 H   0  0  0  0  0  0
  -21.1480   -6.0527   25.9099 H   0  0  0  0  0  0
  -22.0632   -2.7652   23.2754 H   0  0  0  0  0  0
  -22.4131  -11.9983   22.4902 H   0  0  0  0  0  0
  -21.1010  -13.1166   22.2478 H   0  0  0  0  0  0
  -24.6638  -15.8514   20.5376 H   0  0  0  0  0  0
  -26.2885  -15.6420   20.1244 H   0  0  0  0  0  0
  -26.7218  -32.5370   23.1149 H   0  0  0  0  0  0
  -24.9908  -33.9634   25.0337 H   0  0  0  0  0  0
  -22.7461  -31.2950   21.3750 H   0  0  0  0  0  0
  -23.3694  -35.9624   23.3318 H   0  0  0  0  0  0
  -24.3589  -36.8906   22.2092 H   0  0  0  0  0  0
  -23.7159  -37.6478   23.6682 H   0  0  0  0  0  0
  -26.1309  -31.4950   20.5946 H   0  0  0  0  0  0
  -26.8734  -30.8142   22.0075 H   0  0  0  0  0  0
  -28.1329  -28.8675   21.2196 H   0  0  0  0  0  0
  -25.9148  -25.8942   18.9871 H   0  0  0  0  0  0
  -23.9783  -27.3255   18.9777 H   0  0  0  0  0  0
  -23.7876  -30.5704   19.3864 H   0  0  0  0  0  0
  -22.7899  -29.2232   19.8524 H   0  0  0  0  0  0
  -25.1204  -36.1999   25.0846 H   0  0  0  0  0  0
  -21.0066  -28.3296   24.1313 H   0  0  0  0  0  0
  -20.5597  -26.2322   23.3644 H   0  0  0  0  0  0
  -21.6626  -26.7340   22.1198 H   0  0  0  0  0  0
  -19.6863  -25.6288   21.1225 H   0  0  0  0  0  0
  -19.6632  -27.3188   20.6746 H   0  0  0  0  0  0
  -17.4165  -26.6697   21.4081 H   0  0  0  0  0  0
  -18.0323  -26.0075   22.9045 H   0  0  0  0  0  0
  -19.7969  -30.7237   24.2326 H   0  0  0  0  0  0
  -17.5052  -31.6278   24.5149 H   0  0  0  0  0  0
  -15.5378  -30.3036   23.7577 H   0  0  0  0  0  0
  -15.8709  -28.0781   22.7179 H   0  0  0  0  0  0
  -24.5902  -30.7056   25.7891 H   0  0  0  0  0  0
  -24.8888  -32.2904   26.4931 H   0  0  0  0  0  0
  -25.8051  -30.8980   27.0322 H   0  0  0  0  0  0
  -26.2962  -29.6755   24.1249 H   0  0  0  0  0  0
  -27.3971  -29.7257   25.4829 H   0  0  0  0  0  0
  -27.8852  -30.4277   23.9577 H   0  0  0  0  0  0
  -27.2656  -33.3664   26.2057 H   0  0  0  0  0  0
  -28.3862  -32.6855   25.0358 H   0  0  0  0  0  0
  -28.0703  -31.8518   26.5500 H   0  0  0  0  0  0
  -28.2561  -38.0090   24.7506 H   0  0  0  0  0  0
  -28.1038  -36.2610   24.6285 H   0  0  0  0  0  0
  -27.2302  -37.1409   25.8896 H   0  0  0  0  0  0
  -20.9434  -29.8874   21.6846 H   0  0  0  0  0  0
  -26.0157  -38.2827   24.1466 H   0  0  0  0  0  0
  -32.2974  -18.1364   21.3387 H   0  0  0  0  0  0
  -32.9696  -19.5188   20.4790 H   0  0  0  0  0  0
  -32.3687  -18.1256   19.5631 H   0  0  0  0  0  0
  -29.7546  -23.7306   22.3506 H   0  0  0  0  0  0
  -30.5216  -24.8535   21.2407 H   0  0  0  0  0  0
  -31.0156  -23.1831   21.2361 H   0  0  0  0  0  0
  -27.4346  -24.6803   21.2393 H   0  0  0  0  0  0
  -27.2742  -24.4929   19.5337 H   0  0  0  0  0  0
  -30.0076  -17.0088   18.9094 H   0  0  0  0  0  0
  -28.4540  -17.0025   19.6577 H   0  0  0  0  0  0
  -29.5808  -23.6140   19.3025 H   0  0  0  0  0  0
  -27.5589  -22.0194   20.3435 H   0  0  0  0  0  0
  -30.1925  -16.2921   21.7056 H   0  0  0  0  0  0
  1 25  1  0  0  0
  1 30  2  0  0  0
  1 82  1  0  0  0
  2  3  1  0  0  0
  2 25  1  0  0  0
  2 83  1  0  0  0
  2 84  1  0  0  0
  3  4  1  0  0  0
  3 85  1  0  0  0
  3 86  1  0  0  0
  4  5  1  0  0  0
  4 87  1  0  0  0
  4 88  1  0  0  0
  5  6  1  0  0  0
  5 26  1  0  0  0
  5 89  1  0  0  0
  6 25  1  0  0  0
  6 90  1  0  0  0
  6 91  1  0  0  0
  7  8  2  0  0  0
  7 26  1  0  0  0
  7 29  1  0  0  0
  8  9  1  0  0  0
  8 22  1  0  0  0
  9 10  1  0  0  0
  9 27  2  0  0  0
 10 11  2  0  0  0
 10 15  1  0  0  0
 11 12  1  0  0  0
 11 92  1  0  0  0
 12 13  2  0  0  0
 12 93  1  0  0  0
 13 14  1  0  0  0
 13 31  1  0  0  0
 14 15  2  0  0  0
 14 94  1  0  0  0
 15 95  1  0  0  0
 16 17  2  0  0  0
 16 21  1  0  0  0
 16 31  1  0  0  0
 17 18  1  0  0  0
 17 96  1  0  0  0
 18 19  2  0  0  0
 18 97  1  0  0  0
 19 20  1  0  0  0
 19 24  1  0  0  0
 20 21  2  0  0  0
 20 98  1  0  0  0
 21 23  1  0  0  0
 22 28  1  0  0  0
 22 32  2  0  0  0
 26 27  1  0  0  0
 28 99  1  0  0  0
 28100  1  0  0  0
 29101  1  0  0  0
 29102  1  0  0  0
 33 34  1  0  0  0
 33 66  1  0  0  0
 33 70  2  0  0  0
 34 36  1  0  0  0
 34 59  1  0  0  0
 34103  1  0  0  0
 35 44  2  0  0  0
 35 45  1  0  0  0
 35 68  1  0  0  0
 36 56  1  0  0  0
 36104  1  0  0  0
 37 39  1  0  0  0
 37 47  1  0  0  0
 37 66  1  0  0  0
 37105  1  0  0  0
 38 43  2  0  0  0
 38 46  1  0  0  0
 38 47  1  0  0  0
 39 64  1  0  0  0
 39 67  2  0  0  0
 40 52  1  0  0  0
 40 53  2  0  0  0
 40 58  1  0  0  0
 41106  1  0  0  0
 41107  1  0  0  0
 41108  1  0  0  0
 41 48  1  0  0  0
 42 43  1  0  0  0
 42 66  1  0  0  0
 42109  1  0  0  0
 42110  1  0  0  0
 43 44  1  0  0  0
 44111  1  0  0  0
 45 46  2  0  0  0
 45112  1  0  0  0
 46113  1  0  0  0
 47114  1  0  0  0
 47115  1  0  0  0
 48 56  1  0  0  0
 48 65  1  0  0  0
 48116  1  0  0  0
 49 50  1  0  0  0
 49 53  1  0  0  0
 49 64  1  0  0  0
 49117  1  0  0  0
 50 51  1  0  0  0
 50118  1  0  0  0
 50119  1  0  0  0
 51 52  1  0  0  0
 51120  1  0  0  0
 51121  1  0  0  0
 52122  1  0  0  0
 52123  1  0  0  0
 53 54  1  0  0  0
 54 55  2  0  0  0
 54124  1  0  0  0
 55 57  1  0  0  0
 55125  1  0  0  0
 56 69  2  0  0  0
 57 58  2  0  0  0
 57126  1  0  0  0
 58127  1  0  0  0
 59 60  1  0  0  0
 59 61  1  0  0  0
 59 62  1  0  0  0
 60128  1  0  0  0
 60129  1  0  0  0
 60130  1  0  0  0
 61131  1  0  0  0
 61132  1  0  0  0
 61133  1  0  0  0
 62134  1  0  0  0
 62135  1  0  0  0
 62136  1  0  0  0
 63 65  1  0  0  0
 63137  1  0  0  0
 63138  1  0  0  0
 63139  1  0  0  0
 64140  1  0  0  0
 65141  1  0  0  0
 68 75  1  0  0  0
 71 73  1  0  0  0
 71 78  2  0  0  0
 71 80  1  0  0  0
 72 78  1  0  0  0
 72 79  2  0  0  0
 72 81  1  0  0  0
 73142  1  0  0  0
 73143  1  0  0  0
 73144  1  0  0  0
 74145  1  0  0  0
 74146  1  0  0  0
 74147  1  0  0  0
 74 77  1  0  0  0
 75 77  1  0  0  0
 75148  1  0  0  0
 75149  1  0  0  0
 76 80  1  0  0  0
 76 82  1  0  0  0
 76150  1  0  0  0
 76151  1  0  0  0
 77 81  1  0  0  0
 77152  1  0  0  0
 79 80  1  0  0  0
 81153  1  0  0  0
 82154  1  0  0  0
M  ISO  4   1 100  68 101  75 101  82 100
M  END
> <chiral flag>
0

> <version>
0

> <s_m_source_file>
/data/baiqing/PycharmProjects/Reinvent-master-3.2/result/LINK_invent/BTK/process_docking_weight1_custom_product_contain_oxygen_bond_distance_aromatic_linkinvent_7_9_3/rearranged_h_0193.sdf

> <i_m_source_file_index>
77

> <r_mmod_Potential_Energy-OPLS-2005>
88.517578125

> <r_mmod_Stretch_Energy-OPLS-2005>
149.978866577148

> <r_mmod_Bend_Energy-OPLS-2005>
215.771682739258

> <r_mmod_Torsional_Energy-OPLS-2005>
281.218536376953

> <r_mmod_Improper_Torsional_Energy-OPLS-2005>
8.06728363037109

> <r_mmod_Van_der_Waal_Energy-OPLS-2005>
111.615577697754

> <r_mmod_Electrostatic_Energy-OPLS-2005>
-560.1171875

> <r_mmod_Solvation_Energy-OPLS-2005>
-238.196533203125

> <b_mmod_Minimization_Converged-OPLS-2005>
0

> <r_mmod_RMS_Derivative-OPLS-2005>
5.90820026397705

$$$$
77
                    3D
 Structure written by MMmdl.
149156  0  0  1  0            999 V2000
  -30.4547  -15.1929   20.3871 C   0  0  0  0  0  0
  -30.4406  -12.7606   19.5082 C   0  0  0  0  0  0
  -29.5286  -12.5627   18.2730 C   0  0  0  0  0  0
  -28.0765  -12.2935   18.7066 C   0  0  0  0  0  0
  -27.6136  -13.2646   19.8213 C   0  0  2  0  0  0
  -28.6522  -13.4087   20.9523 C   0  0  0  0  0  0
  -25.2409  -13.8228   20.5734 C   0  0  0  0  0  0
  -24.1749  -13.0431   20.9252 C   0  0  0  0  0  0
  -24.6386  -11.6923   20.8763 C   0  0  0  0  0  0
  -23.9075  -10.4289   21.0413 C   0  0  0  0  0  0
  -24.3624   -9.4204   21.9190 C   0  0  0  0  0  0
  -23.6293   -8.2241   22.0761 C   0  0  0  0  0  0
  -22.4277   -8.0277   21.3546 C   0  0  0  0  0  0
  -21.9915   -9.0255   20.4650 C   0  0  0  0  0  0
  -22.7249  -10.2129   20.3063 C   0  0  0  0  0  0
  -21.6853   -6.0731   22.5276 C   0  0  0  0  0  0
  -21.4017   -6.5637   23.8207 C   0  0  0  0  0  0
  -21.3661   -5.6792   24.9171 C   0  0  0  0  0  0
  -21.6044   -4.3054   24.7226 C   0  0  0  0  0  0
  -21.8818   -3.8143   23.4347 C   0  0  0  0  0  0
  -21.9191   -4.6957   22.3401 C   0  0  0  0  0  0
  -22.7768  -13.5197   21.1895 C   0  0  0  0  0  0
  -22.1660   -4.2142   21.0979 F   0  0  0  0  0  0
  -21.5627   -3.4536   25.7738 F   0  0  0  0  0  0
  -29.8883  -13.8971   20.3223 N   0  0  0  0  0  0
  -26.2822  -12.9480   20.3208 N   0  0  0  0  0  0
  -25.9321  -11.6596   20.5725 N   0  0  0  0  0  0
  -22.0418  -12.8185   22.0447 N   0  0  0  0  0  0
  -25.4049  -15.1960   20.4160 N   0  0  0  0  0  0
  -31.6824  -15.2111   20.2253 O   0  0  0  0  0  0
  -21.6641   -6.8875   21.4239 O   0  0  0  0  0  0
  -22.3455  -14.5500   20.6732 O   0  0  0  0  0  0
  -24.6587  -31.8287   23.1732 C   0  0  0  0  0  0
  -25.9285  -32.4617   23.8186 C   0  0  1  0  0  0
  -27.2201  -26.9740   20.1893 C   0  0  0  0  0  0
  -25.5963  -33.8428   24.2096 N   0  0  0  0  0  0
  -23.4703  -30.4396   21.5236 C   0  0  2  0  0  0
  -24.9224  -28.8287   20.1203 C   0  0  0  0  0  0
  -22.7642  -29.4461   22.4820 C   0  0  0  0  0  0
  -18.0316  -28.1389   22.8465 C   0  0  0  0  0  0
  -24.1496  -36.7227   23.2647 C   0  0  0  0  0  0
  -26.0357  -30.6511   21.3944 C   0  0  0  0  0  0
  -26.1060  -29.2430   20.7441 C   0  0  0  0  0  0
  -27.2549  -28.3384   20.7480 C   0  0  0  0  0  0
  -26.0053  -26.6927   19.5294 C   0  0  0  0  0  0
  -24.8937  -27.5721   19.4929 C   0  0  0  0  0  0
  -23.7070  -29.7526   20.1509 C   0  0  0  0  0  0
  -25.4133  -36.2990   24.0304 C   0  0  1  0  0  0
  -20.5935  -28.3733   23.1200 C   0  0  2  0  0  0
  -20.6792  -26.9423   22.5398 C   0  0  0  0  0  0
  -19.5770  -26.6368   21.5203 C   0  0  0  0  0  0
  -18.1950  -26.7923   22.1614 C   0  0  0  0  0  0
  -19.1576  -28.8881   23.2818 C   0  0  0  0  0  0
  -18.9492  -30.1473   23.8849 C   0  0  0  0  0  0
  -17.6486  -30.6588   24.0544 C   0  0  0  0  0  0
  -25.9094  -34.9370   23.5024 C   0  0  0  0  0  0
  -16.5376  -29.9074   23.6334 C   0  0  0  0  0  0
  -16.7299  -28.6490   23.0356 C   0  0  0  0  0  0
  -26.4540  -31.6545   25.0700 C   0  0  0  0  0  0
  -25.3674  -31.3777   26.1365 C   0  0  0  0  0  0
  -27.0435  -30.2922   24.6398 C   0  0  0  0  0  0
  -27.6042  -32.4348   25.7494 C   0  0  0  0  0  0
  -27.5578  -37.1769   24.8462 C   0  0  0  0  0  0
  -21.4318  -29.3040   22.3566 N   0  0  0  0  0  0
  -26.4285  -37.3720   23.9409 N   0  0  0  0  0  0
  -24.7428  -30.9986   22.0848 N   0  0  0  0  0  0
  -23.4209  -28.8035   23.3049 O   0  0  0  0  0  0
  -28.2572  -25.9188   20.1804 O   0  0  0  0  0  0
  -26.5707  -34.8895   22.4622 O   0  0  0  0  0  0
  -23.5671  -32.1239   23.6851 O   0  0  0  0  0  0
  -27.9422  -21.0796   21.8382 C   0  0  0  0  0  0
  -29.1461  -19.5323   20.0590 C   0  0  0  0  0  0
  -28.6926  -22.7802   19.9474 C   0  0  0  0  0  0
  -29.8935  -18.0532   20.7166 C   0  0  0  0  0  0
  -28.0961  -24.3432   20.5720 C   0  0  0  0  0  0
  -28.9752  -21.1886   20.7087 C   0  0  1  0  0  0
  -29.6680  -16.4366   20.4352 N   0  0  0  0  0  0
  -31.4606  -12.9635   19.1791 H   0  0  0  0  0  0
  -30.4975  -11.8467   20.1019 H   0  0  0  0  0  0
  -29.8955  -11.7438   17.6529 H   0  0  0  0  0  0
  -29.5620  -13.4583   17.6510 H   0  0  0  0  0  0
  -28.0291  -11.2678   19.0749 H   0  0  0  0  0  0
  -27.4039  -12.3416   17.8494 H   0  0  0  0  0  0
  -27.5375  -14.2372   19.3339 H   0  0  0  0  0  0
  -28.8070  -12.4658   21.4790 H   0  0  0  0  0  0
  -28.3072  -14.1291   21.6960 H   0  0  0  0  0  0
  -25.2763   -9.5678   22.4775 H   0  0  0  0  0  0
  -23.9990   -7.4639   22.7494 H   0  0  0  0  0  0
  -21.0839   -8.8780   19.8968 H   0  0  0  0  0  0
  -22.3704  -10.9669   19.6179 H   0  0  0  0  0  0
  -21.2015   -7.6147   23.9707 H   0  0  0  0  0  0
  -21.1485   -6.0524   25.9072 H   0  0  0  0  0  0
  -22.0595   -2.7603   23.2849 H   0  0  0  0  0  0
  -22.4031  -11.9840   22.4822 H   0  0  0  0  0  0
  -21.1048  -13.1229   22.2679 H   0  0  0  0  0  0
  -24.6349  -15.8459   20.5337 H   0  0  0  0  0  0
  -26.2410  -15.6366   20.0563 H   0  0  0  0  0  0
  -26.7351  -32.5169   23.0902 H   0  0  0  0  0  0
  -25.0029  -33.9501   25.0191 H   0  0  0  0  0  0
  -22.7815  -31.2696   21.3544 H   0  0  0  0  0  0
  -23.3769  -35.9548   23.3281 H   0  0  0  0  0  0
  -24.3570  -36.8906   22.2068 H   0  0  0  0  0  0
  -23.7245  -37.6404   23.6721 H   0  0  0  0  0  0
  -26.2061  -31.3940   20.6139 H   0  0  0  0  0  0
  -26.8989  -30.7095   22.0454 H   0  0  0  0  0  0
  -28.1603  -28.6624   21.2423 H   0  0  0  0  0  0
  -25.8992  -25.7314   19.0471 H   0  0  0  0  0  0
  -23.9928  -27.2475   18.9904 H   0  0  0  0  0  0
  -23.8591  -30.5198   19.3912 H   0  0  0  0  0  0
  -22.8174  -29.2041   19.8365 H   0  0  0  0  0  0
  -25.1330  -36.1793   25.0796 H   0  0  0  0  0  0
  -21.0009  -28.3335   24.1327 H   0  0  0  0  0  0
  -20.5657  -26.2359   23.3633 H   0  0  0  0  0  0
  -21.6662  -26.7402   22.1215 H   0  0  0  0  0  0
  -19.6929  -25.6266   21.1265 H   0  0  0  0  0  0
  -19.6705  -27.3149   20.6708 H   0  0  0  0  0  0
  -17.4221  -26.6660   21.4018 H   0  0  0  0  0  0
  -18.0352  -26.0069   22.9013 H   0  0  0  0  0  0
  -19.7974  -30.7290   24.2204 H   0  0  0  0  0  0
  -17.5047  -31.6262   24.5161 H   0  0  0  0  0  0
  -15.5375  -30.2959   23.7688 H   0  0  0  0  0  0
  -15.8700  -28.0792   22.7098 H   0  0  0  0  0  0
  -24.5865  -30.7117   25.7674 H   0  0  0  0  0  0
  -24.8840  -32.2966   26.4694 H   0  0  0  0  0  0
  -25.7908  -30.9008   27.0212 H   0  0  0  0  0  0
  -26.3095  -29.6598   24.1392 H   0  0  0  0  0  0
  -27.3971  -29.7285   25.5041 H   0  0  0  0  0  0
  -27.9031  -30.4121   23.9801 H   0  0  0  0  0  0
  -27.2626  -33.3699   26.1946 H   0  0  0  0  0  0
  -28.3910  -32.6829   25.0358 H   0  0  0  0  0  0
  -28.0643  -31.8552   26.5507 H   0  0  0  0  0  0
  -28.2575  -38.0086   24.7525 H   0  0  0  0  0  0
  -28.1094  -36.2612   24.6273 H   0  0  0  0  0  0
  -27.2289  -37.1395   25.8862 H   0  0  0  0  0  0
  -20.9566  -29.8759   21.6721 H   0  0  0  0  0  0
  -26.0140  -38.2784   24.1412 H   0  0  0  0  0  0
  -28.1652  -20.2430   22.5012 H   0  0  0  0  0  0
  -26.9387  -20.9283   21.4400 H   0  0  0  0  0  0
  -27.9221  -21.9811   22.4515 H   0  0  0  0  0  0
  -28.1317  -19.2362   19.7922 H   0  0  0  0  0  0
  -29.6301  -19.6661   19.0910 H   0  0  0  0  0  0
  -29.6449  -23.0206   19.4740 H   0  0  0  0  0  0
  -28.0400  -22.5694   19.0999 H   0  0  0  0  0  0
  -29.7075  -18.1249   21.7886 H   0  0  0  0  0  0
  -30.9713  -18.2020   20.6362 H   0  0  0  0  0  0
  -28.4690  -24.3528   21.5960 H   0  0  0  0  0  0
  -27.0235  -24.1996   20.7025 H   0  0  0  0  0  0
  -29.9323  -21.3435   21.2095 H   0  0  0  0  0  0
  -28.6843  -16.2089   20.4172 H   0  0  0  0  0  0
  1 25  1  0  0  0
  1 30  2  0  0  0
  1 77  1  0  0  0
  2  3  1  0  0  0
  2 25  1  0  0  0
  2 78  1  0  0  0
  2 79  1  0  0  0
  3  4  1  0  0  0
  3 80  1  0  0  0
  3 81  1  0  0  0
  4  5  1  0  0  0
  4 82  1  0  0  0
  4 83  1  0  0  0
  5  6  1  0  0  0
  5 26  1  0  0  0
  5 84  1  0  0  0
  6 25  1  0  0  0
  6 85  1  0  0  0
  6 86  1  0  0  0
  7  8  2  0  0  0
  7 26  1  0  0  0
  7 29  1  0  0  0
  8  9  1  0  0  0
  8 22  1  0  0  0
  9 10  1  0  0  0
  9 27  2  0  0  0
 10 11  2  0  0  0
 10 15  1  0  0  0
 11 12  1  0  0  0
 11 87  1  0  0  0
 12 13  2  0  0  0
 12 88  1  0  0  0
 13 14  1  0  0  0
 13 31  1  0  0  0
 14 15  2  0  0  0
 14 89  1  0  0  0
 15 90  1  0  0  0
 16 17  2  0  0  0
 16 21  1  0  0  0
 16 31  1  0  0  0
 17 18  1  0  0  0
 17 91  1  0  0  0
 18 19  2  0  0  0
 18 92  1  0  0  0
 19 20  1  0  0  0
 19 24  1  0  0  0
 20 21  2  0  0  0
 20 93  1  0  0  0
 21 23  1  0  0  0
 22 28  1  0  0  0
 22 32  2  0  0  0
 26 27  1  0  0  0
 28 94  1  0  0  0
 28 95  1  0  0  0
 29 96  1  0  0  0
 29 97  1  0  0  0
 33 34  1  0  0  0
 33 66  1  0  0  0
 33 70  2  0  0  0
 34 36  1  0  0  0
 34 59  1  0  0  0
 34 98  1  0  0  0
 35 44  2  0  0  0
 35 45  1  0  0  0
 35 68  1  0  0  0
 36 56  1  0  0  0
 36 99  1  0  0  0
 37 39  1  0  0  0
 37 47  1  0  0  0
 37 66  1  0  0  0
 37100  1  0  0  0
 38 43  2  0  0  0
 38 46  1  0  0  0
 38 47  1  0  0  0
 39 64  1  0  0  0
 39 67  2  0  0  0
 40 52  1  0  0  0
 40 53  2  0  0  0
 40 58  1  0  0  0
 41101  1  0  0  0
 41102  1  0  0  0
 41103  1  0  0  0
 41 48  1  0  0  0
 42 43  1  0  0  0
 42 66  1  0  0  0
 42104  1  0  0  0
 42105  1  0  0  0
 43 44  1  0  0  0
 44106  1  0  0  0
 45 46  2  0  0  0
 45107  1  0  0  0
 46108  1  0  0  0
 47109  1  0  0  0
 47110  1  0  0  0
 48 56  1  0  0  0
 48 65  1  0  0  0
 48111  1  0  0  0
 49 50  1  0  0  0
 49 53  1  0  0  0
 49 64  1  0  0  0
 49112  1  0  0  0
 50 51  1  0  0  0
 50113  1  0  0  0
 50114  1  0  0  0
 51 52  1  0  0  0
 51115  1  0  0  0
 51116  1  0  0  0
 52117  1  0  0  0
 52118  1  0  0  0
 53 54  1  0  0  0
 54 55  2  0  0  0
 54119  1  0  0  0
 55 57  1  0  0  0
 55120  1  0  0  0
 56 69  2  0  0  0
 57 58  2  0  0  0
 57121  1  0  0  0
 58122  1  0  0  0
 59 60  1  0  0  0
 59 61  1  0  0  0
 59 62  1  0  0  0
 60123  1  0  0  0
 60124  1  0  0  0
 60125  1  0  0  0
 61126  1  0  0  0
 61127  1  0  0  0
 61128  1  0  0  0
 62129  1  0  0  0
 62130  1  0  0  0
 62131  1  0  0  0
 63 65  1  0  0  0
 63132  1  0  0  0
 63133  1  0  0  0
 63134  1  0  0  0
 64135  1  0  0  0
 65136  1  0  0  0
 68 75  1  0  0  0
 71137  1  0  0  0
 71138  1  0  0  0
 71139  1  0  0  0
 71 76  1  0  0  0
 72 74  1  0  0  0
 72 76  1  0  0  0
 72140  1  0  0  0
 72141  1  0  0  0
 73 75  1  0  0  0
 73 76  1  0  0  0
 73142  1  0  0  0
 73143  1  0  0  0
 74 77  1  0  0  0
 74144  1  0  0  0
 74145  1  0  0  0
 75146  1  0  0  0
 75147  1  0  0  0
 76148  1  0  0  0
 77149  1  0  0  0
M  ISO  4   1 100  68 101  75 101  77 100
M  END
> <chiral flag>
0

> <version>
0

> <s_m_source_file>
/data/baiqing/PycharmProjects/Reinvent-master-3.2/result/LINK_invent/BTK/process_docking_weight1_custom_product_contain_oxygen_bond_distance_aromatic_linkinvent_7_9_3/rearranged_h_0193.sdf

> <i_m_source_file_index>
78

> <r_mmod_Potential_Energy-OPLS-2005>
1166.29333496094

> <r_mmod_Stretch_Energy-OPLS-2005>
556.434875488281

> <r_mmod_Bend_Energy-OPLS-2005>
423.633697509766

> <r_mmod_Torsional_Energy-OPLS-2005>
242.586074829102

> <r_mmod_Improper_Torsional_Energy-OPLS-2005>
4.19334268569946

> <r_mmod_Van_der_Waal_Energy-OPLS-2005>
106.332023620605

> <r_mmod_Electrostatic_Energy-OPLS-2005>
-343.836700439453

> <r_mmod_Solvation_Energy-OPLS-2005>
-207.150314331055

> <b_mmod_Minimization_Converged-OPLS-2005>
0

> <r_mmod_RMS_Derivative-OPLS-2005>
0.93022620677948

$$$$
78
                    3D
 Structure written by MMmdl.
155163  0  0  1  0            999 V2000
  -30.5750  -14.8137   20.4134 C   0  0  0  0  0  0
  -30.4229  -12.4911   19.4905 C   0  0  0  0  0  0
  -29.5170  -12.5116   18.2385 C   0  0  0  0  0  0
  -28.0376  -12.3396   18.6386 C   0  0  0  0  0  0
  -27.6292  -13.2397   19.8368 C   0  0  2  0  0  0
  -28.6689  -13.1997   20.9786 C   0  0  0  0  0  0
  -25.2425  -13.8231   20.5615 C   0  0  0  0  0  0
  -24.1753  -13.0441   20.9188 C   0  0  0  0  0  0
  -24.6369  -11.6924   20.8723 C   0  0  0  0  0  0
  -23.9079  -10.4294   21.0383 C   0  0  0  0  0  0
  -24.3639   -9.4218   21.9153 C   0  0  0  0  0  0
  -23.6313   -8.2255   22.0752 C   0  0  0  0  0  0
  -22.4311   -8.0282   21.3524 C   0  0  0  0  0  0
  -21.9915   -9.0253   20.4630 C   0  0  0  0  0  0
  -22.7253  -10.2130   20.3029 C   0  0  0  0  0  0
  -21.6860   -6.0731   22.5274 C   0  0  0  0  0  0
  -21.4017   -6.5625   23.8190 C   0  0  0  0  0  0
  -21.3664   -5.6777   24.9149 C   0  0  0  0  0  0
  -21.6055   -4.3045   24.7206 C   0  0  0  0  0  0
  -21.8822   -3.8131   23.4320 C   0  0  0  0  0  0
  -21.9188   -4.6952   22.3384 C   0  0  0  0  0  0
  -22.7769  -13.5190   21.1865 C   0  0  0  0  0  0
  -22.1650   -4.2140   21.0962 F   0  0  0  0  0  0
  -21.5644   -3.4532   25.7716 F   0  0  0  0  0  0
  -29.9578  -13.5752   20.3913 N   0  0  0  0  0  0
  -26.2843  -12.9447   20.3145 N   0  0  0  0  0  0
  -25.9303  -11.6576   20.5712 N   0  0  0  0  0  0
  -22.0430  -12.8177   22.0441 N   0  0  0  0  0  0
  -25.4140  -15.1953   20.4025 N   0  0  0  0  0  0
  -31.7853  -14.8450   20.1601 O   0  0  0  0  0  0
  -21.6655   -6.8883   21.4238 O   0  0  0  0  0  0
  -22.3455  -14.5502   20.6719 O   0  0  0  0  0  0
  -24.6322  -31.8524   23.1949 C   0  0  0  0  0  0
  -25.9141  -32.4750   23.8314 C   0  0  1  0  0  0
  -27.2094  -27.2476   20.1197 C   0  0  0  0  0  0
  -25.5923  -33.8547   24.2226 N   0  0  0  0  0  0
  -23.4298  -30.4728   21.5383 C   0  0  2  0  0  0
  -24.8766  -28.9126   20.1122 C   0  0  0  0  0  0
  -22.7498  -29.4586   22.4903 C   0  0  0  0  0  0
  -18.0281  -28.1386   22.8465 C   0  0  0  0  0  0
  -24.1496  -36.7295   23.2639 C   0  0  0  0  0  0
  -25.9771  -30.7622   21.3740 C   0  0  0  0  0  0
  -26.0508  -29.3806   20.7181 C   0  0  0  0  0  0
  -27.2263  -28.5625   20.7038 C   0  0  0  0  0  0
  -26.0118  -26.8390   19.5034 C   0  0  0  0  0  0
  -24.8624  -27.6535   19.4926 C   0  0  0  0  0  0
  -23.6503  -29.8013   20.1572 C   0  0  0  0  0  0
  -25.4125  -36.3079   24.0310 C   0  0  1  0  0  0
  -20.5883  -28.3693   23.1273 C   0  0  2  0  0  0
  -20.6778  -26.9415   22.5409 C   0  0  0  0  0  0
  -19.5766  -26.6381   21.5204 C   0  0  0  0  0  0
  -18.1937  -26.7930   22.1596 C   0  0  0  0  0  0
  -19.1532  -28.8859   23.2861 C   0  0  0  0  0  0
  -18.9448  -30.1457   23.8891 C   0  0  0  0  0  0
  -17.6455  -30.6592   24.0553 C   0  0  0  0  0  0
  -25.9061  -34.9438   23.5074 C   0  0  0  0  0  0
  -16.5348  -29.9091   23.6328 C   0  0  0  0  0  0
  -16.7263  -28.6507   23.0351 C   0  0  0  0  0  0
  -26.4497  -31.6571   25.0700 C   0  0  0  0  0  0
  -25.3709  -31.3731   26.1410 C   0  0  0  0  0  0
  -27.0336  -30.2983   24.6187 C   0  0  0  0  0  0
  -27.6033  -32.4315   25.7496 C   0  0  0  0  0  0
  -27.5586  -37.1813   24.8457 C   0  0  0  0  0  0
  -21.4201  -29.3046   22.3675 N   0  0  0  0  0  0
  -26.4306  -37.3777   23.9407 N   0  0  0  0  0  0
  -24.6998  -31.0476   22.0920 N   0  0  0  0  0  0
  -23.4188  -28.8129   23.3007 O   0  0  0  0  0  0
  -28.2974  -26.3488   20.0860 O   0  0  0  0  0  0
  -26.5631  -34.8923   22.4649 O   0  0  0  0  0  0
  -23.5470  -32.1344   23.7238 O   0  0  0  0  0  0
  -31.2702  -18.9216   19.1986 C   0  0  0  0  0  0
  -30.0073  -17.3828   20.2190 C   0  0  0  0  0  0
  -29.4481  -19.6634   20.1868 C   0  0  0  0  0  0
  -30.3304  -22.4672   21.3018 C   0  0  0  0  0  0
  -28.1394  -24.9720   20.6874 C   0  0  0  0  0  0
  -28.8768  -22.2378   20.8588 C   0  0  1  0  0  0
  -28.3617  -23.5035   19.9674 C   0  0  1  0  0  0
  -31.1087  -17.6532   19.5181 N   0  0  0  0  0  0
  -30.5255  -19.9639   19.4897 N   0  0  0  0  0  0
  -29.1119  -18.3824   20.5617 N   0  0  0  0  0  0
  -32.3728  -19.1908   18.4528 N   0  0  0  0  0  0
  -29.7892  -15.9789   20.5420 N   0  0  0  0  0  0
  -28.5783  -20.7908   20.4228 N   0  0  0  0  0  0
  -27.1360  -23.0016   19.4675 O   0  0  0  0  0  0
  -31.4694  -12.6153   19.1998 H   0  0  0  0  0  0
  -30.3690  -11.5292   19.9971 H   0  0  0  0  0  0
  -29.8175  -11.7237   17.5452 H   0  0  0  0  0  0
  -29.6461  -13.4547   17.7060 H   0  0  0  0  0  0
  -27.8841  -11.2918   18.8953 H   0  0  0  0  0  0
  -27.3943  -12.5369   17.7794 H   0  0  0  0  0  0
  -27.6132  -14.2578   19.4476 H   0  0  0  0  0  0
  -28.7222  -12.2053   21.4276 H   0  0  0  0  0  0
  -28.3917  -13.8863   21.7817 H   0  0  0  0  0  0
  -25.2774   -9.5709   22.4714 H   0  0  0  0  0  0
  -24.0023   -7.4652   22.7462 H   0  0  0  0  0  0
  -21.0851   -8.8758   19.8937 H   0  0  0  0  0  0
  -22.3690  -10.9663   19.6127 H   0  0  0  0  0  0
  -21.2029   -7.6134   23.9704 H   0  0  0  0  0  0
  -21.1480   -6.0496   25.9057 H   0  0  0  0  0  0
  -22.0612   -2.7609   23.2813 H   0  0  0  0  0  0
  -22.4088  -11.9852   22.4811 H   0  0  0  0  0  0
  -21.1033  -13.1193   22.2645 H   0  0  0  0  0  0
  -24.6483  -15.8502   20.5128 H   0  0  0  0  0  0
  -26.2463  -15.6260   20.0226 H   0  0  0  0  0  0
  -26.7204  -32.5403   23.1059 H   0  0  0  0  0  0
  -25.0093  -33.9688   25.0391 H   0  0  0  0  0  0
  -22.7279  -31.2966   21.3858 H   0  0  0  0  0  0
  -23.3757  -35.9626   23.3288 H   0  0  0  0  0  0
  -24.3574  -36.8936   22.2052 H   0  0  0  0  0  0
  -23.7251  -37.6489   23.6671 H   0  0  0  0  0  0
  -26.1115  -31.5202   20.6020 H   0  0  0  0  0  0
  -26.8562  -30.8197   22.0046 H   0  0  0  0  0  0
  -28.1330  -28.9189   21.1722 H   0  0  0  0  0  0
  -25.9607  -25.8671   19.0297 H   0  0  0  0  0  0
  -23.9626  -27.2971   19.0113 H   0  0  0  0  0  0
  -23.7807  -30.5717   19.3966 H   0  0  0  0  0  0
  -22.7699  -29.2315   19.8501 H   0  0  0  0  0  0
  -25.1314  -36.1916   25.0800 H   0  0  0  0  0  0
  -20.9951  -28.3268   24.1394 H   0  0  0  0  0  0
  -20.5664  -26.2299   23.3605 H   0  0  0  0  0  0
  -21.6654  -26.7454   22.1211 H   0  0  0  0  0  0
  -19.6948  -25.6278   21.1262 H   0  0  0  0  0  0
  -19.6728  -27.3159   20.6704 H   0  0  0  0  0  0
  -17.4211  -26.6640   21.4003 H   0  0  0  0  0  0
  -18.0362  -26.0074   22.8998 H   0  0  0  0  0  0
  -19.7931  -30.7265   24.2266 H   0  0  0  0  0  0
  -17.5014  -31.6279   24.5152 H   0  0  0  0  0  0
  -15.5343  -30.2998   23.7677 H   0  0  0  0  0  0
  -15.8644  -28.0831   22.7083 H   0  0  0  0  0  0
  -24.5886  -30.7078   25.7735 H   0  0  0  0  0  0
  -24.8900  -32.2903   26.4812 H   0  0  0  0  0  0
  -25.8011  -30.8914   27.0208 H   0  0  0  0  0  0
  -26.2909  -29.6737   24.1206 H   0  0  0  0  0  0
  -27.4007  -29.7228   25.4704 H   0  0  0  0  0  0
  -27.8798  -30.4239   23.9430 H   0  0  0  0  0  0
  -27.2619  -33.3620   26.2057 H   0  0  0  0  0  0
  -28.3872  -32.6878   25.0348 H   0  0  0  0  0  0
  -28.0683  -31.8455   26.5444 H   0  0  0  0  0  0
  -28.2591  -38.0125   24.7516 H   0  0  0  0  0  0
  -28.1092  -36.2649   24.6264 H   0  0  0  0  0  0
  -27.2296  -37.1445   25.8858 H   0  0  0  0  0  0
  -20.9384  -29.8759   21.6872 H   0  0  0  0  0  0
  -26.0169  -38.2846   24.1394 H   0  0  0  0  0  0
  -30.4292  -23.4050   21.8490 H   0  0  0  0  0  0
  -31.0067  -22.5231   20.4486 H   0  0  0  0  0  0
  -30.6853  -21.6782   21.9652 H   0  0  0  0  0  0
  -28.9093  -25.0158   21.4559 H   0  0  0  0  0  0
  -27.2156  -24.9469   21.2635 H   0  0  0  0  0  0
  -28.2978  -22.3024   21.7801 H   0  0  0  0  0  0
  -29.0460  -23.6265   19.1246 H   0  0  0  0  0  0
  -32.8504  -18.4089   18.0277 H   0  0  0  0  0  0
  -32.3984  -20.0693   17.9538 H   0  0  0  0  0  0
  -28.8527  -15.7827   20.8438 H   0  0  0  0  0  0
  -27.7050  -20.4786   20.8326 H   0  0  0  0  0  0
  -27.2909  -22.0657   19.3379 H   0  0  0  0  0  0
  1 25  1  0  0  0
  1 30  2  0  0  0
  1 82  1  0  0  0
  2  3  1  0  0  0
  2 25  1  0  0  0
  2 85  1  0  0  0
  2 86  1  0  0  0
  3  4  1  0  0  0
  3 87  1  0  0  0
  3 88  1  0  0  0
  4  5  1  0  0  0
  4 89  1  0  0  0
  4 90  1  0  0  0
  5  6  1  0  0  0
  5 26  1  0  0  0
  5 91  1  0  0  0
  6 25  1  0  0  0
  6 92  1  0  0  0
  6 93  1  0  0  0
  7  8  2  0  0  0
  7 26  1  0  0  0
  7 29  1  0  0  0
  8  9  1  0  0  0
  8 22  1  0  0  0
  9 10  1  0  0  0
  9 27  2  0  0  0
 10 11  2  0  0  0
 10 15  1  0  0  0
 11 12  1  0  0  0
 11 94  1  0  0  0
 12 13  2  0  0  0
 12 95  1  0  0  0
 13 14  1  0  0  0
 13 31  1  0  0  0
 14 15  2  0  0  0
 14 96  1  0  0  0
 15 97  1  0  0  0
 16 17  2  0  0  0
 16 21  1  0  0  0
 16 31  1  0  0  0
 17 18  1  0  0  0
 17 98  1  0  0  0
 18 19  2  0  0  0
 18 99  1  0  0  0
 19 20  1  0  0  0
 19 24  1  0  0  0
 20 21  2  0  0  0
 20100  1  0  0  0
 21 23  1  0  0  0
 22 28  1  0  0  0
 22 32  2  0  0  0
 26 27  1  0  0  0
 28101  1  0  0  0
 28102  1  0  0  0
 29103  1  0  0  0
 29104  1  0  0  0
 33 34  1  0  0  0
 33 66  1  0  0  0
 33 70  2  0  0  0
 34 36  1  0  0  0
 34 59  1  0  0  0
 34105  1  0  0  0
 35 44  2  0  0  0
 35 45  1  0  0  0
 35 68  1  0  0  0
 36 56  1  0  0  0
 36106  1  0  0  0
 37 39  1  0  0  0
 37 47  1  0  0  0
 37 66  1  0  0  0
 37107  1  0  0  0
 38 43  2  0  0  0
 38 46  1  0  0  0
 38 47  1  0  0  0
 39 64  1  0  0  0
 39 67  2  0  0  0
 40 52  1  0  0  0
 40 53  2  0  0  0
 40 58  1  0  0  0
 41108  1  0  0  0
 41109  1  0  0  0
 41110  1  0  0  0
 41 48  1  0  0  0
 42 43  1  0  0  0
 42 66  1  0  0  0
 42111  1  0  0  0
 42112  1  0  0  0
 43 44  1  0  0  0
 44113  1  0  0  0
 45 46  2  0  0  0
 45114  1  0  0  0
 46115  1  0  0  0
 47116  1  0  0  0
 47117  1  0  0  0
 48 56  1  0  0  0
 48 65  1  0  0  0
 48118  1  0  0  0
 49 50  1  0  0  0
 49 53  1  0  0  0
 49 64  1  0  0  0
 49119  1  0  0  0
 50 51  1  0  0  0
 50120  1  0  0  0
 50121  1  0  0  0
 51 52  1  0  0  0
 51122  1  0  0  0
 51123  1  0  0  0
 52124  1  0  0  0
 52125  1  0  0  0
 53 54  1  0  0  0
 54 55  2  0  0  0
 54126  1  0  0  0
 55 57  1  0  0  0
 55127  1  0  0  0
 56 69  2  0  0  0
 57 58  2  0  0  0
 57128  1  0  0  0
 58129  1  0  0  0
 59 60  1  0  0  0
 59 61  1  0  0  0
 59 62  1  0  0  0
 60130  1  0  0  0
 60131  1  0  0  0
 60132  1  0  0  0
 61133  1  0  0  0
 61134  1  0  0  0
 61135  1  0  0  0
 62136  1  0  0  0
 62137  1  0  0  0
 62138  1  0  0  0
 63 65  1  0  0  0
 63139  1  0  0  0
 63140  1  0  0  0
 63141  1  0  0  0
 64142  1  0  0  0
 65143  1  0  0  0
 68 75  1  0  0  0
 71 78  2  0  0  0
 71 79  1  0  0  0
 71 81  1  0  0  0
 72 78  1  0  0  0
 72 80  2  0  0  0
 72 82  1  0  0  0
 73 79  2  0  0  0
 73 80  1  0  0  0
 73 83  1  0  0  0
 74144  1  0  0  0
 74145  1  0  0  0
 74146  1  0  0  0
 74 76  1  0  0  0
 75 77  1  0  0  0
 75147  1  0  0  0
 75148  1  0  0  0
 76 77  1  0  0  0
 76 83  1  0  0  0
 76149  1  0  0  0
 77 84  1  0  0  0
 77150  1  0  0  0
 81151  1  0  0  0
 81152  1  0  0  0
 82153  1  0  0  0
 83154  1  0  0  0
 84155  1  0  0  0
M  ISO  4   1 100  68 101  75 101  82 100
M  END
> <chiral flag>
0

> <version>
0

> <s_m_source_file>
/data/baiqing/PycharmProjects/Reinvent-master-3.2/result/LINK_invent/BTK/process_docking_weight1_custom_product_contain_oxygen_bond_distance_aromatic_linkinvent_7_9_3/rearranged_h_0193.sdf

> <i_m_source_file_index>
79

> <r_mmod_Potential_Energy-OPLS-2005>
-626.800170898438

> <r_mmod_Stretch_Energy-OPLS-2005>
150.23323059082

> <r_mmod_Bend_Energy-OPLS-2005>
211.467590332031

> <r_mmod_Torsional_Energy-OPLS-2005>
272.143127441406

> <r_mmod_Improper_Torsional_Energy-OPLS-2005>
9.55802440643311

> <r_mmod_Van_der_Waal_Energy-OPLS-2005>
156.967163085938

> <r_mmod_Electrostatic_Energy-OPLS-2005>
-1264.88537597656

> <r_mmod_Solvation_Energy-OPLS-2005>
-267.663208007812

> <b_mmod_Minimization_Converged-OPLS-2005>
0

> <r_mmod_RMS_Derivative-OPLS-2005>
5.36129856109619

$$$$
79
                    3D
 Structure written by MMmdl.
155163  0  0  1  0            999 V2000
  -30.7317  -14.4702   20.6221 C   0  0  0  0  0  0
  -30.4207  -12.3318   19.4143 C   0  0  0  0  0  0
  -29.4893  -12.5127   18.2003 C   0  0  0  0  0  0
  -28.0132  -12.3684   18.6183 C   0  0  0  0  0  0
  -27.6587  -13.2126   19.8714 C   0  0  2  0  0  0
  -28.7016  -13.0063   20.9908 C   0  0  0  0  0  0
  -25.2574  -13.8170   20.5698 C   0  0  0  0  0  0
  -24.1833  -13.0441   20.9183 C   0  0  0  0  0  0
  -24.6394  -11.6908   20.8735 C   0  0  0  0  0  0
  -23.9063  -10.4295   21.0403 C   0  0  0  0  0  0
  -24.3614   -9.4210   21.9181 C   0  0  0  0  0  0
  -23.6290   -8.2248   22.0755 C   0  0  0  0  0  0
  -22.4273   -8.0287   21.3548 C   0  0  0  0  0  0
  -21.9906   -9.0260   20.4651 C   0  0  0  0  0  0
  -22.7235  -10.2138   20.3057 C   0  0  0  0  0  0
  -21.6853   -6.0738   22.5283 C   0  0  0  0  0  0
  -21.4013   -6.5640   23.8216 C   0  0  0  0  0  0
  -21.3658   -5.6792   24.9177 C   0  0  0  0  0  0
  -21.6045   -4.3056   24.7226 C   0  0  0  0  0  0
  -21.8816   -3.8149   23.4347 C   0  0  0  0  0  0
  -21.9190   -4.6966   22.3403 C   0  0  0  0  0  0
  -22.7856  -13.5240   21.1845 C   0  0  0  0  0  0
  -22.1663   -4.2151   21.0982 F   0  0  0  0  0  0
  -21.5622   -3.4540   25.7739 F   0  0  0  0  0  0
  -30.0286  -13.3185   20.4341 N   0  0  0  0  0  0
  -26.3013  -12.9353   20.3364 N   0  0  0  0  0  0
  -25.9321  -11.6504   20.5759 N   0  0  0  0  0  0
  -22.0492  -12.8244   22.0406 N   0  0  0  0  0  0
  -25.4298  -15.1893   20.4134 N   0  0  0  0  0  0
  -31.8327  -14.6681   20.1023 O   0  0  0  0  0  0
  -21.6639   -6.8885   21.4247 O   0  0  0  0  0  0
  -22.3545  -14.5551   20.6694 O   0  0  0  0  0  0
  -24.6172  -31.8666   23.2093 C   0  0  0  0  0  0
  -25.9058  -32.4813   23.8386 C   0  0  1  0  0  0
  -27.2263  -27.4050   20.0931 C   0  0  0  0  0  0
  -25.5906  -33.8612   24.2317 N   0  0  0  0  0  0
  -23.4052  -30.4923   21.5518 C   0  0  2  0  0  0
  -24.8494  -28.9610   20.1125 C   0  0  0  0  0  0
  -22.7417  -29.4655   22.4983 C   0  0  0  0  0  0
  -18.0268  -28.1383   22.8487 C   0  0  0  0  0  0
  -24.1483  -36.7306   23.2636 C   0  0  0  0  0  0
  -25.9381  -30.8248   21.3661 C   0  0  0  0  0  0
  -26.0143  -29.4586   20.7094 C   0  0  0  0  0  0
  -27.2059  -28.6902   20.6941 C   0  0  0  0  0  0
  -26.0372  -26.9380   19.4822 C   0  0  0  0  0  0
  -24.8582  -27.7020   19.4940 C   0  0  0  0  0  0
  -23.6130  -29.8293   20.1655 C   0  0  0  0  0  0
  -25.4105  -36.3103   24.0333 C   0  0  1  0  0  0
  -20.5860  -28.3671   23.1311 C   0  0  2  0  0  0
  -20.6759  -26.9405   22.5417 C   0  0  0  0  0  0
  -19.5739  -26.6392   21.5210 C   0  0  0  0  0  0
  -18.1919  -26.7925   22.1626 C   0  0  0  0  0  0
  -19.1520  -28.8842   23.2895 C   0  0  0  0  0  0
  -18.9449  -30.1446   23.8906 C   0  0  0  0  0  0
  -17.6453  -30.6589   24.0564 C   0  0  0  0  0  0
  -25.9036  -34.9469   23.5123 C   0  0  0  0  0  0
  -16.5342  -29.9093   23.6329 C   0  0  0  0  0  0
  -16.7257  -28.6510   23.0348 C   0  0  0  0  0  0
  -26.4475  -31.6595   25.0723 C   0  0  0  0  0  0
  -25.3731  -31.3716   26.1466 C   0  0  0  0  0  0
  -27.0302  -30.3030   24.6119 C   0  0  0  0  0  0
  -27.6054  -32.4306   25.7491 C   0  0  0  0  0  0
  -27.5573  -37.1808   24.8464 C   0  0  0  0  0  0
  -21.4143  -29.3035   22.3719 N   0  0  0  0  0  0
  -26.4288  -37.3791   23.9407 N   0  0  0  0  0  0
  -24.6723  -31.0747   22.1011 N   0  0  0  0  0  0
  -23.4178  -28.8192   23.3030 O   0  0  0  0  0  0
  -28.3796  -26.6312   20.1218 O   0  0  0  0  0  0
  -26.5601  -34.8923   22.4687 O   0  0  0  0  0  0
  -23.5361  -32.1432   23.7477 O   0  0  0  0  0  0
  -31.7128  -20.1585   21.2198 C   0  0  0  0  0  0
  -29.3957  -19.6658   20.8258 C   0  0  0  0  0  0
  -30.4330  -20.6314   20.8757 C   0  0  0  0  0  0
  -31.9109  -18.8009   21.5535 C   0  0  0  0  0  0
  -30.7969  -17.9179   21.5107 C   0  0  0  0  0  0
  -29.2095  -22.8147   20.4435 C   0  0  0  0  0  0
  -30.8921  -16.4863   22.0773 C   0  0  0  0  0  0
  -29.4429  -24.3492   20.3877 C   0  0  0  0  0  0
  -28.2016  -25.1976   19.9950 C   0  0  0  0  0  0
  -29.5697  -18.3507   21.1325 N   0  0  0  0  0  0
  -33.1904  -18.3910   21.9504 N   0  0  0  0  0  0
  -30.3021  -22.0455   20.6327 N   0  0  0  0  0  0
  -30.1600  -15.4002   21.4048 N   0  0  0  0  0  0
  -28.0776  -22.3458   20.3160 O   0  0  0  0  0  0
  -31.4633  -12.4354   19.1084 H   0  0  0  0  0  0
  -30.3333  -11.3223   19.8185 H   0  0  0  0  0  0
  -29.7311  -11.7808   17.4287 H   0  0  0  0  0  0
  -29.6524  -13.4942   17.7520 H   0  0  0  0  0  0
  -27.8289  -11.3130   18.8201 H   0  0  0  0  0  0
  -27.3597  -12.6370   17.7876 H   0  0  0  0  0  0
  -27.6997  -14.2596   19.5696 H   0  0  0  0  0  0
  -28.6867  -11.9720   21.3376 H   0  0  0  0  0  0
  -28.4514  -13.6075   21.8654 H   0  0  0  0  0  0
  -25.2756   -9.5683   22.4755 H   0  0  0  0  0  0
  -23.9997   -7.4638   22.7473 H   0  0  0  0  0  0
  -21.0833   -8.8781   19.8961 H   0  0  0  0  0  0
  -22.3694  -10.9676   19.6166 H   0  0  0  0  0  0
  -21.2013   -7.6148   23.9721 H   0  0  0  0  0  0
  -21.1480   -6.0523   25.9079 H   0  0  0  0  0  0
  -22.0596   -2.7612   23.2846 H   0  0  0  0  0  0
  -22.4091  -11.9903   22.4803 H   0  0  0  0  0  0
  -21.1113  -13.1284   22.2614 H   0  0  0  0  0  0
  -24.6672  -15.8478   20.5287 H   0  0  0  0  0  0
  -26.2900  -15.6297   20.1105 H   0  0  0  0  0  0
  -26.7127  -32.5517   23.1144 H   0  0  0  0  0  0
  -25.0045  -33.9769   25.0455 H   0  0  0  0  0  0
  -22.6948  -31.3102   21.4152 H   0  0  0  0  0  0
  -23.3742  -35.9644   23.3314 H   0  0  0  0  0  0
  -24.3573  -36.8907   22.2048 H   0  0  0  0  0  0
  -23.7242  -37.6519   23.6641 H   0  0  0  0  0  0
  -26.0518  -31.5921   20.5988 H   0  0  0  0  0  0
  -26.8255  -30.8773   21.9853 H   0  0  0  0  0  0
  -28.1026  -29.0706   21.1634 H   0  0  0  0  0  0
  -25.9905  -25.9793   18.9877 H   0  0  0  0  0  0
  -23.9643  -27.3155   19.0239 H   0  0  0  0  0  0
  -23.7189  -30.6057   19.4069 H   0  0  0  0  0  0
  -22.7362  -29.2496   19.8707 H   0  0  0  0  0  0
  -25.1283  -36.1964   25.0826 H   0  0  0  0  0  0
  -20.9946  -28.3240   24.1433 H   0  0  0  0  0  0
  -20.5660  -26.2278   23.3606 H   0  0  0  0  0  0
  -21.6632  -26.7448   22.1210 H   0  0  0  0  0  0
  -19.6902  -25.6309   21.1227 H   0  0  0  0  0  0
  -19.6678  -27.3212   20.6748 H   0  0  0  0  0  0
  -17.4185  -26.6658   21.4035 H   0  0  0  0  0  0
  -18.0331  -26.0071   22.9029 H   0  0  0  0  0  0
  -19.7929  -30.7255   24.2283 H   0  0  0  0  0  0
  -17.5015  -31.6271   24.5165 H   0  0  0  0  0  0
  -15.5347  -30.3002   23.7653 H   0  0  0  0  0  0
  -15.8653  -28.0838   22.7060 H   0  0  0  0  0  0
  -24.5906  -30.7059   25.7802 H   0  0  0  0  0  0
  -24.8921  -32.2880   26.4896 H   0  0  0  0  0  0
  -25.8075  -30.8898   27.0233 H   0  0  0  0  0  0
  -26.2862  -29.6806   24.1137 H   0  0  0  0  0  0
  -27.4019  -29.7252   25.4590 H   0  0  0  0  0  0
  -27.8716  -30.4334   23.9309 H   0  0  0  0  0  0
  -27.2679  -33.3596   26.2095 H   0  0  0  0  0  0
  -28.3859  -32.6875   25.0317 H   0  0  0  0  0  0
  -28.0724  -31.8409   26.5389 H   0  0  0  0  0  0
  -28.2603  -38.0093   24.7504 H   0  0  0  0  0  0
  -28.1055  -36.2627   24.6301 H   0  0  0  0  0  0
  -27.2286  -37.1470   25.8866 H   0  0  0  0  0  0
  -20.9302  -29.8759   21.6944 H   0  0  0  0  0  0
  -26.0173  -38.2865   24.1424 H   0  0  0  0  0  0
  -32.5430  -20.8493   21.2661 H   0  0  0  0  0  0
  -28.3870  -19.9324   20.5543 H   0  0  0  0  0  0
  -30.5206  -16.5330   23.1009 H   0  0  0  0  0  0
  -31.9356  -16.1914   22.1829 H   0  0  0  0  0  0
  -29.7881  -24.6628   21.3730 H   0  0  0  0  0  0
  -30.2563  -24.5589   19.6928 H   0  0  0  0  0  0
  -27.9367  -24.9580   18.9641 H   0  0  0  0  0  0
  -27.3655  -24.8899   20.6264 H   0  0  0  0  0  0
  -33.4409  -17.4072   21.9066 H   0  0  0  0  0  0
  -33.9831  -19.0056   21.7810 H   0  0  0  0  0  0
  -31.1664  -22.5697   20.6853 H   0  0  0  0  0  0
  -29.2194  -15.2302   21.7225 H   0  0  0  0  0  0
  1 25  1  0  0  0
  1 30  2  0  0  0
  1 83  1  0  0  0
  2  3  1  0  0  0
  2 25  1  0  0  0
  2 85  1  0  0  0
  2 86  1  0  0  0
  3  4  1  0  0  0
  3 87  1  0  0  0
  3 88  1  0  0  0
  4  5  1  0  0  0
  4 89  1  0  0  0
  4 90  1  0  0  0
  5  6  1  0  0  0
  5 26  1  0  0  0
  5 91  1  0  0  0
  6 25  1  0  0  0
  6 92  1  0  0  0
  6 93  1  0  0  0
  7  8  2  0  0  0
  7 26  1  0  0  0
  7 29  1  0  0  0
  8  9  1  0  0  0
  8 22  1  0  0  0
  9 10  1  0  0  0
  9 27  2  0  0  0
 10 11  2  0  0  0
 10 15  1  0  0  0
 11 12  1  0  0  0
 11 94  1  0  0  0
 12 13  2  0  0  0
 12 95  1  0  0  0
 13 14  1  0  0  0
 13 31  1  0  0  0
 14 15  2  0  0  0
 14 96  1  0  0  0
 15 97  1  0  0  0
 16 17  2  0  0  0
 16 21  1  0  0  0
 16 31  1  0  0  0
 17 18  1  0  0  0
 17 98  1  0  0  0
 18 19  2  0  0  0
 18 99  1  0  0  0
 19 20  1  0  0  0
 19 24  1  0  0  0
 20 21  2  0  0  0
 20100  1  0  0  0
 21 23  1  0  0  0
 22 28  1  0  0  0
 22 32  2  0  0  0
 26 27  1  0  0  0
 28101  1  0  0  0
 28102  1  0  0  0
 29103  1  0  0  0
 29104  1  0  0  0
 33 34  1  0  0  0
 33 66  1  0  0  0
 33 70  2  0  0  0
 34 36  1  0  0  0
 34 59  1  0  0  0
 34105  1  0  0  0
 35 44  2  0  0  0
 35 45  1  0  0  0
 35 68  1  0  0  0
 36 56  1  0  0  0
 36106  1  0  0  0
 37 39  1  0  0  0
 37 47  1  0  0  0
 37 66  1  0  0  0
 37107  1  0  0  0
 38 43  2  0  0  0
 38 46  1  0  0  0
 38 47  1  0  0  0
 39 64  1  0  0  0
 39 67  2  0  0  0
 40 52  1  0  0  0
 40 53  2  0  0  0
 40 58  1  0  0  0
 41108  1  0  0  0
 41109  1  0  0  0
 41110  1  0  0  0
 41 48  1  0  0  0
 42 43  1  0  0  0
 42 66  1  0  0  0
 42111  1  0  0  0
 42112  1  0  0  0
 43 44  1  0  0  0
 44113  1  0  0  0
 45 46  2  0  0  0
 45114  1  0  0  0
 46115  1  0  0  0
 47116  1  0  0  0
 47117  1  0  0  0
 48 56  1  0  0  0
 48 65  1  0  0  0
 48118  1  0  0  0
 49 50  1  0  0  0
 49 53  1  0  0  0
 49 64  1  0  0  0
 49119  1  0  0  0
 50 51  1  0  0  0
 50120  1  0  0  0
 50121  1  0  0  0
 51 52  1  0  0  0
 51122  1  0  0  0
 51123  1  0  0  0
 52124  1  0  0  0
 52125  1  0  0  0
 53 54  1  0  0  0
 54 55  2  0  0  0
 54126  1  0  0  0
 55 57  1  0  0  0
 55127  1  0  0  0
 56 69  2  0  0  0
 57 58  2  0  0  0
 57128  1  0  0  0
 58129  1  0  0  0
 59 60  1  0  0  0
 59 61  1  0  0  0
 59 62  1  0  0  0
 60130  1  0  0  0
 60131  1  0  0  0
 60132  1  0  0  0
 61133  1  0  0  0
 61134  1  0  0  0
 61135  1  0  0  0
 62136  1  0  0  0
 62137  1  0  0  0
 62138  1  0  0  0
 63 65  1  0  0  0
 63139  1  0  0  0
 63140  1  0  0  0
 63141  1  0  0  0
 64142  1  0  0  0
 65143  1  0  0  0
 68 79  1  0  0  0
 71 73  2  0  0  0
 71 74  1  0  0  0
 71144  1  0  0  0
 72 73  1  0  0  0
 72 80  2  0  0  0
 72145  1  0  0  0
 73 82  1  0  0  0
 74 75  2  0  0  0
 74 81  1  0  0  0
 75 77  1  0  0  0
 75 80  1  0  0  0
 76 78  1  0  0  0
 76 82  1  0  0  0
 76 84  2  0  0  0
 77 83  1  0  0  0
 77146  1  0  0  0
 77147  1  0  0  0
 78 79  1  0  0  0
 78148  1  0  0  0
 78149  1  0  0  0
 79150  1  0  0  0
 79151  1  0  0  0
 81152  1  0  0  0
 81153  1  0  0  0
 82154  1  0  0  0
 83155  1  0  0  0
M  ISO  4   1 100  68 101  79 101  83 100
M  END
> <chiral flag>
0

> <version>
0

> <s_m_source_file>
/data/baiqing/PycharmProjects/Reinvent-master-3.2/result/LINK_invent/BTK/process_docking_weight1_custom_product_contain_oxygen_bond_distance_aromatic_linkinvent_7_9_3/rearranged_h_0193.sdf

> <i_m_source_file_index>
80

> <r_mmod_Potential_Energy-OPLS-2005>
-285.587738037109

> <r_mmod_Stretch_Energy-OPLS-2005>
43.9361991882324

> <r_mmod_Bend_Energy-OPLS-2005>
114.666496276855

> <r_mmod_Torsional_Energy-OPLS-2005>
206.220001220703

> <r_mmod_Improper_Torsional_Energy-OPLS-2005>
5.51905870437622

> <r_mmod_Van_der_Waal_Energy-OPLS-2005>
165.148300170898

> <r_mmod_Electrostatic_Energy-OPLS-2005>
-585.272521972656

> <r_mmod_Solvation_Energy-OPLS-2005>
-251.238967895508

> <b_mmod_Minimization_Converged-OPLS-2005>
0

> <r_mmod_RMS_Derivative-OPLS-2005>
0.805733859539032

$$$$
80
                    3D
 Structure written by MMmdl.
162170  0  0  1  0            999 V2000
  -30.7012  -14.5415   20.4777 C   0  0  0  0  0  0
  -30.4096  -12.3220   19.4601 C   0  0  0  0  0  0
  -29.5017  -12.4797   18.2231 C   0  0  0  0  0  0
  -28.0212  -12.3496   18.6297 C   0  0  0  0  0  0
  -27.6511  -13.2232   19.8597 C   0  0  2  0  0  0
  -28.6930  -13.0919   20.9942 C   0  0  0  0  0  0
  -25.2539  -13.8196   20.5683 C   0  0  0  0  0  0
  -24.1821  -13.0444   20.9191 C   0  0  0  0  0  0
  -24.6405  -11.6920   20.8739 C   0  0  0  0  0  0
  -23.9075  -10.4298   21.0399 C   0  0  0  0  0  0
  -24.3622   -9.4208   21.9171 C   0  0  0  0  0  0
  -23.6296   -8.2243   22.0746 C   0  0  0  0  0  0
  -22.4277   -8.0283   21.3541 C   0  0  0  0  0  0
  -21.9915   -9.0261   20.4645 C   0  0  0  0  0  0
  -22.7247  -10.2140   20.3048 C   0  0  0  0  0  0
  -21.6857   -6.0742   22.5279 C   0  0  0  0  0  0
  -21.4026   -6.5642   23.8213 C   0  0  0  0  0  0
  -21.3656   -5.6789   24.9170 C   0  0  0  0  0  0
  -21.6039   -4.3051   24.7222 C   0  0  0  0  0  0
  -21.8818   -3.8152   23.4342 C   0  0  0  0  0  0
  -21.9192   -4.6970   22.3401 C   0  0  0  0  0  0
  -22.7837  -13.5228   21.1837 C   0  0  0  0  0  0
  -22.1656   -4.2155   21.0976 F   0  0  0  0  0  0
  -21.5616   -3.4532   25.7734 F   0  0  0  0  0  0
  -30.0163  -13.3657   20.4229 N   0  0  0  0  0  0
  -26.2979  -12.9401   20.3307 N   0  0  0  0  0  0
  -25.9334  -11.6546   20.5753 N   0  0  0  0  0  0
  -22.0479  -12.8233   22.0403 N   0  0  0  0  0  0
  -25.4224  -15.1920   20.4102 N   0  0  0  0  0  0
  -31.8867  -14.6099   20.1487 O   0  0  0  0  0  0
  -21.6637   -6.8886   21.4242 O   0  0  0  0  0  0
  -22.3521  -14.5525   20.6666 O   0  0  0  0  0  0
  -24.6183  -31.8663   23.2078 C   0  0  0  0  0  0
  -25.9055  -32.4816   23.8391 C   0  0  1  0  0  0
  -27.2217  -27.3855   20.1104 C   0  0  0  0  0  0
  -25.5889  -33.8615   24.2315 N   0  0  0  0  0  0
  -23.4082  -30.4913   21.5487 C   0  0  2  0  0  0
  -24.8529  -28.9552   20.1118 C   0  0  0  0  0  0
  -22.7429  -29.4661   22.4963 C   0  0  0  0  0  0
  -18.0281  -28.1384   22.8491 C   0  0  0  0  0  0
  -24.1482  -36.7312   23.2641 C   0  0  0  0  0  0
  -25.9429  -30.8168   21.3695 C   0  0  0  0  0  0
  -26.0168  -29.4494   20.7139 C   0  0  0  0  0  0
  -27.2037  -28.6734   20.7076 C   0  0  0  0  0  0
  -26.0406  -26.9292   19.4811 C   0  0  0  0  0  0
  -24.8626  -27.6974   19.4893 C   0  0  0  0  0  0
  -23.6187  -29.8278   20.1625 C   0  0  0  0  0  0
  -25.4104  -36.3108   24.0337 C   0  0  1  0  0  0
  -20.5873  -28.3681   23.1301 C   0  0  2  0  0  0
  -20.6765  -26.9411   22.5415 C   0  0  0  0  0  0
  -19.5743  -26.6383   21.5214 C   0  0  0  0  0  0
  -18.1923  -26.7926   22.1627 C   0  0  0  0  0  0
  -19.1531  -28.8848   23.2895 C   0  0  0  0  0  0
  -18.9457  -30.1450   23.8911 C   0  0  0  0  0  0
  -17.6462  -30.6589   24.0570 C   0  0  0  0  0  0
  -25.9033  -34.9473   23.5130 C   0  0  0  0  0  0
  -16.5350  -29.9097   23.6326 C   0  0  0  0  0  0
  -16.7271  -28.6510   23.0351 C   0  0  0  0  0  0
  -26.4466  -31.6608   25.0734 C   0  0  0  0  0  0
  -25.3710  -31.3731   26.1468 C   0  0  0  0  0  0
  -27.0309  -30.3044   24.6149 C   0  0  0  0  0  0
  -27.6044  -32.4329   25.7487 C   0  0  0  0  0  0
  -27.5580  -37.1814   24.8468 C   0  0  0  0  0  0
  -21.4151  -29.3046   22.3699 N   0  0  0  0  0  0
  -26.4295  -37.3789   23.9403 N   0  0  0  0  0  0
  -24.6748  -31.0736   22.0994 N   0  0  0  0  0  0
  -23.4185  -28.8202   23.3015 O   0  0  0  0  0  0
  -28.3660  -26.5991   20.1676 O   0  0  0  0  0  0
  -26.5612  -34.8931   22.4698 O   0  0  0  0  0  0
  -23.5362  -32.1440   23.7432 O   0  0  0  0  0  0
  -29.2376  -19.3364   20.1799 C   0  0  0  0  0  0
  -30.1109  -20.3833   22.0601 C   0  0  0  0  0  0
  -29.3619  -20.5619   20.9289 C   0  0  0  0  0  0
  -29.9876  -18.2798   20.6771 C   0  0  0  0  0  0
  -30.1786  -16.9915   18.4570 C   0  0  0  0  0  0
  -29.7037  -22.9205   20.1781 C   0  0  0  0  0  0
  -31.0393  -18.0311   17.6998 C   0  0  0  0  0  0
  -28.2156  -25.1572   20.0197 C   0  0  0  0  0  0
  -30.4188  -16.9809   19.9909 C   0  0  2  0  0  0
  -29.3464  -24.3486   20.7297 C   0  0  1  0  0  0
  -28.7973  -21.7988   20.5071 N   0  0  0  0  0  0
  -29.9683  -15.6843   20.5813 N   0  0  0  0  0  0
  -30.7525  -18.0652   16.2544 N   0  3  0  0  0  0
  -29.0690  -24.2389   22.1164 O   0  0  0  0  0  0
  -30.7228  -18.7508   22.1918 S   0  0  0  0  0  0
  -31.4598  -12.3857   19.1702 H   0  0  0  0  0  0
  -30.2869  -11.3342   19.9067 H   0  0  0  0  0  0
  -29.7513  -11.7245   17.4763 H   0  0  0  0  0  0
  -29.6757  -13.4471   17.7499 H   0  0  0  0  0  0
  -27.8379  -11.2988   18.8550 H   0  0  0  0  0  0
  -27.3756  -12.5941   17.7854 H   0  0  0  0  0  0
  -27.6690  -14.2575   19.5151 H   0  0  0  0  0  0
  -28.6730  -12.0898   21.4234 H   0  0  0  0  0  0
  -28.4667  -13.7781   21.8116 H   0  0  0  0  0  0
  -25.2765   -9.5677   22.4742 H   0  0  0  0  0  0
  -24.0002   -7.4635   22.7465 H   0  0  0  0  0  0
  -21.0841   -8.8787   19.8961 H   0  0  0  0  0  0
  -22.3701  -10.9676   19.6154 H   0  0  0  0  0  0
  -21.2034   -7.6150   23.9724 H   0  0  0  0  0  0
  -21.1468   -6.0513   25.9070 H   0  0  0  0  0  0
  -22.0602   -2.7617   23.2834 H   0  0  0  0  0  0
  -22.4104  -11.9924   22.4843 H   0  0  0  0  0  0
  -21.1085  -13.1250   22.2571 H   0  0  0  0  0  0
  -24.6529  -15.8423   20.5257 H   0  0  0  0  0  0
  -26.2677  -15.6374   20.0786 H   0  0  0  0  0  0
  -26.7125  -32.5515   23.1153 H   0  0  0  0  0  0
  -25.0009  -33.9771   25.0442 H   0  0  0  0  0  0
  -22.6993  -31.3102   21.4089 H   0  0  0  0  0  0
  -23.3742  -35.9649   23.3320 H   0  0  0  0  0  0
  -24.3573  -36.8909   22.2052 H   0  0  0  0  0  0
  -23.7241  -37.6522   23.6650 H   0  0  0  0  0  0
  -26.0652  -31.5817   20.6009 H   0  0  0  0  0  0
  -26.8280  -30.8669   21.9924 H   0  0  0  0  0  0
  -28.0978  -29.0461   21.1876 H   0  0  0  0  0  0
  -26.0050  -25.9725   18.9808 H   0  0  0  0  0  0
  -23.9700  -27.3134   19.0145 H   0  0  0  0  0  0
  -23.7323  -30.6046   19.4053 H   0  0  0  0  0  0
  -22.7415  -29.2513   19.8631 H   0  0  0  0  0  0
  -25.1283  -36.1977   25.0832 H   0  0  0  0  0  0
  -20.9975  -28.3255   24.1418 H   0  0  0  0  0  0
  -20.5662  -26.2295   23.3611 H   0  0  0  0  0  0
  -21.6637  -26.7443   22.1215 H   0  0  0  0  0  0
  -19.6902  -25.6294   21.1243 H   0  0  0  0  0  0
  -19.6678  -27.3196   20.6745 H   0  0  0  0  0  0
  -17.4190  -26.6678   21.4031 H   0  0  0  0  0  0
  -18.0328  -26.0072   22.9027 H   0  0  0  0  0  0
  -19.7936  -30.7258   24.2288 H   0  0  0  0  0  0
  -17.5022  -31.6271   24.5169 H   0  0  0  0  0  0
  -15.5355  -30.3009   23.7634 H   0  0  0  0  0  0
  -15.8668  -28.0834   22.7061 H   0  0  0  0  0  0
  -24.5861  -30.7111   25.7794 H   0  0  0  0  0  0
  -24.8922  -32.2895   26.4932 H   0  0  0  0  0  0
  -25.8028  -30.8873   27.0225 H   0  0  0  0  0  0
  -26.2885  -29.6804   24.1161 H   0  0  0  0  0  0
  -27.4029  -29.7287   25.4636 H   0  0  0  0  0  0
  -27.8735  -30.4365   23.9354 H   0  0  0  0  0  0
  -27.2671  -33.3618   26.2098 H   0  0  0  0  0  0
  -28.3825  -32.6907   25.0289 H   0  0  0  0  0  0
  -28.0748  -31.8438   26.5370 H   0  0  0  0  0  0
  -28.2614  -38.0099   24.7500 H   0  0  0  0  0  0
  -28.1061  -36.2628   24.6310 H   0  0  0  0  0  0
  -27.2299  -37.1485   25.8875 H   0  0  0  0  0  0
  -20.9314  -29.8781   21.6929 H   0  0  0  0  0  0
  -26.0187  -38.2872   24.1395 H   0  0  0  0  0  0
  -28.6978  -19.3067   19.2440 H   0  0  0  0  0  0
  -30.3613  -21.1146   22.8191 H   0  0  0  0  0  0
  -30.4122  -16.0110   18.0416 H   0  0  0  0  0  0
  -29.1188  -17.1504   18.2541 H   0  0  0  0  0  0
  -30.7045  -22.6658   20.5310 H   0  0  0  0  0  0
  -29.7945  -22.9768   19.0915 H   0  0  0  0  0  0
  -32.0966  -17.8032   17.8411 H   0  0  0  0  0  0
  -30.8917  -19.0339   18.0989 H   0  0  0  0  0  0
  -27.2549  -24.7969   20.3936 H   0  0  0  0  0  0
  -28.2388  -24.9411   18.9507 H   0  0  0  0  0  0
  -31.5052  -16.9911   20.1029 H   0  0  0  0  0  0
  -30.2540  -24.9453   20.6216 H   0  0  0  0  0  0
  -28.0596  -21.6933   19.8152 H   0  0  0  0  0  0
  -28.9973  -15.5963   20.8364 H   0  0  0  0  0  0
  -30.9397  -17.1773   15.8236 H   0  0  0  0  0  0
  -31.3368  -18.7528   15.8104 H   0  0  0  0  0  0
  -29.7962  -18.3164   16.0793 H   0  0  0  0  0  0
  -28.8794  -25.1176   22.4308 H   0  0  0  0  0  0
  1 25  1  0  0  0
  1 30  2  0  0  0
  1 82  1  0  0  0
  2  3  1  0  0  0
  2 25  1  0  0  0
  2 86  1  0  0  0
  2 87  1  0  0  0
  3  4  1  0  0  0
  3 88  1  0  0  0
  3 89  1  0  0  0
  4  5  1  0  0  0
  4 90  1  0  0  0
  4 91  1  0  0  0
  5  6  1  0  0  0
  5 26  1  0  0  0
  5 92  1  0  0  0
  6 25  1  0  0  0
  6 93  1  0  0  0
  6 94  1  0  0  0
  7  8  2  0  0  0
  7 26  1  0  0  0
  7 29  1  0  0  0
  8  9  1  0  0  0
  8 22  1  0  0  0
  9 10  1  0  0  0
  9 27  2  0  0  0
 10 11  2  0  0  0
 10 15  1  0  0  0
 11 12  1  0  0  0
 11 95  1  0  0  0
 12 13  2  0  0  0
 12 96  1  0  0  0
 13 14  1  0  0  0
 13 31  1  0  0  0
 14 15  2  0  0  0
 14 97  1  0  0  0
 15 98  1  0  0  0
 16 17  2  0  0  0
 16 21  1  0  0  0
 16 31  1  0  0  0
 17 18  1  0  0  0
 17 99  1  0  0  0
 18 19  2  0  0  0
 18100  1  0  0  0
 19 20  1  0  0  0
 19 24  1  0  0  0
 20 21  2  0  0  0
 20101  1  0  0  0
 21 23  1  0  0  0
 22 28  1  0  0  0
 22 32  2  0  0  0
 26 27  1  0  0  0
 28102  1  0  0  0
 28103  1  0  0  0
 29104  1  0  0  0
 29105  1  0  0  0
 33 34  1  0  0  0
 33 66  1  0  0  0
 33 70  2  0  0  0
 34 36  1  0  0  0
 34 59  1  0  0  0
 34106  1  0  0  0
 35 44  2  0  0  0
 35 45  1  0  0  0
 35 68  1  0  0  0
 36 56  1  0  0  0
 36107  1  0  0  0
 37 39  1  0  0  0
 37 47  1  0  0  0
 37 66  1  0  0  0
 37108  1  0  0  0
 38 43  2  0  0  0
 38 46  1  0  0  0
 38 47  1  0  0  0
 39 64  1  0  0  0
 39 67  2  0  0  0
 40 52  1  0  0  0
 40 53  2  0  0  0
 40 58  1  0  0  0
 41109  1  0  0  0
 41110  1  0  0  0
 41111  1  0  0  0
 41 48  1  0  0  0
 42 43  1  0  0  0
 42 66  1  0  0  0
 42112  1  0  0  0
 42113  1  0  0  0
 43 44  1  0  0  0
 44114  1  0  0  0
 45 46  2  0  0  0
 45115  1  0  0  0
 46116  1  0  0  0
 47117  1  0  0  0
 47118  1  0  0  0
 48 56  1  0  0  0
 48 65  1  0  0  0
 48119  1  0  0  0
 49 50  1  0  0  0
 49 53  1  0  0  0
 49 64  1  0  0  0
 49120  1  0  0  0
 50 51  1  0  0  0
 50121  1  0  0  0
 50122  1  0  0  0
 51 52  1  0  0  0
 51123  1  0  0  0
 51124  1  0  0  0
 52125  1  0  0  0
 52126  1  0  0  0
 53 54  1  0  0  0
 54 55  2  0  0  0
 54127  1  0  0  0
 55 57  1  0  0  0
 55128  1  0  0  0
 56 69  2  0  0  0
 57 58  2  0  0  0
 57129  1  0  0  0
 58130  1  0  0  0
 59 60  1  0  0  0
 59 61  1  0  0  0
 59 62  1  0  0  0
 60131  1  0  0  0
 60132  1  0  0  0
 60133  1  0  0  0
 61134  1  0  0  0
 61135  1  0  0  0
 61136  1  0  0  0
 62137  1  0  0  0
 62138  1  0  0  0
 62139  1  0  0  0
 63 65  1  0  0  0
 63140  1  0  0  0
 63141  1  0  0  0
 63142  1  0  0  0
 64143  1  0  0  0
 65144  1  0  0  0
 68 78  1  0  0  0
 71 73  1  0  0  0
 71 74  2  0  0  0
 71145  1  0  0  0
 72 73  2  0  0  0
 72 85  1  0  0  0
 72146  1  0  0  0
 73 81  1  0  0  0
 74 79  1  0  0  0
 74 85  1  0  0  0
 75 77  1  0  0  0
 75147  1  0  0  0
 75148  1  0  0  0
 75 79  1  0  0  0
 76 80  1  0  0  0
 76 81  1  0  0  0
 76149  1  0  0  0
 76150  1  0  0  0
 77 83  1  0  0  0
 77151  1  0  0  0
 77152  1  0  0  0
 78 80  1  0  0  0
 78153  1  0  0  0
 78154  1  0  0  0
 79 82  1  0  0  0
 79155  1  0  0  0
 80 84  1  0  0  0
 80156  1  0  0  0
 81157  1  0  0  0
 82158  1  0  0  0
 83159  1  0  0  0
 83160  1  0  0  0
 83161  1  0  0  0
 84162  1  0  0  0
M  CHG  1  83   1
M  ISO  4   1 100  68 101  78 101  82 100
M  END
> <chiral flag>
0

> <version>
0

> <s_m_source_file>
/data/baiqing/PycharmProjects/Reinvent-master-3.2/result/LINK_invent/BTK/process_docking_weight1_custom_product_contain_oxygen_bond_distance_aromatic_linkinvent_7_9_3/rearranged_h_0193.sdf

> <i_m_source_file_index>
81

> <r_mmod_Potential_Energy-OPLS-2005>
-308.643463134766

> <r_mmod_Stretch_Energy-OPLS-2005>
49.1767845153809

> <r_mmod_Bend_Energy-OPLS-2005>
115.892730712891

> <r_mmod_Torsional_Energy-OPLS-2005>
272.266693115234

> <r_mmod_Improper_Torsional_Energy-OPLS-2005>
14.6355895996094

> <r_mmod_Van_der_Waal_Energy-OPLS-2005>
128.377502441406

> <r_mmod_Electrostatic_Energy-OPLS-2005>
-368.090240478516

> <r_mmod_Solvation_Energy-OPLS-2005>
-550.954284667969

> <b_mmod_Minimization_Converged-OPLS-2005>
0

> <r_mmod_RMS_Derivative-OPLS-2005>
1.34555327892303

$$$$
81
                    3D
 Structure written by MMmdl.
163171  0  0  1  0            999 V2000
  -30.6434  -14.5701   20.5099 C   0  0  0  0  0  0
  -30.4294  -12.3509   19.4342 C   0  0  0  0  0  0
  -29.4987  -12.4970   18.2114 C   0  0  0  0  0  0
  -28.0198  -12.3494   18.6233 C   0  0  0  0  0  0
  -27.6518  -13.2087   19.8624 C   0  0  2  0  0  0
  -28.6967  -13.0390   20.9889 C   0  0  0  0  0  0
  -25.2550  -13.8170   20.5647 C   0  0  0  0  0  0
  -24.1806  -13.0452   20.9142 C   0  0  0  0  0  0
  -24.6372  -11.6917   20.8740 C   0  0  0  0  0  0
  -23.9047  -10.4303   21.0413 C   0  0  0  0  0  0
  -24.3614   -9.4217   21.9184 C   0  0  0  0  0  0
  -23.6284   -8.2255   22.0761 C   0  0  0  0  0  0
  -22.4272   -8.0279   21.3547 C   0  0  0  0  0  0
  -21.9892   -9.0255   20.4657 C   0  0  0  0  0  0
  -22.7222  -10.2129   20.3053 C   0  0  0  0  0  0
  -21.6860   -6.0719   22.5278 C   0  0  0  0  0  0
  -21.4025   -6.5626   23.8210 C   0  0  0  0  0  0
  -21.3659   -5.6786   24.9175 C   0  0  0  0  0  0
  -21.6038   -4.3047   24.7224 C   0  0  0  0  0  0
  -21.8833   -3.8128   23.4353 C   0  0  0  0  0  0
  -21.9199   -4.6939   22.3410 C   0  0  0  0  0  0
  -22.7821  -13.5242   21.1817 C   0  0  0  0  0  0
  -22.1669   -4.2122   21.0982 F   0  0  0  0  0  0
  -21.5615   -3.4543   25.7740 F   0  0  0  0  0  0
  -30.0149  -13.3604   20.4226 N   0  0  0  0  0  0
  -26.2976  -12.9332   20.3312 N   0  0  0  0  0  0
  -25.9293  -11.6499   20.5761 N   0  0  0  0  0  0
  -22.0471  -12.8228   22.0375 N   0  0  0  0  0  0
  -25.4287  -15.1898   20.4048 N   0  0  0  0  0  0
  -31.8123  -14.7219   20.1462 O   0  0  0  0  0  0
  -21.6642   -6.8869   21.4240 O   0  0  0  0  0  0
  -22.3516  -14.5562   20.6690 O   0  0  0  0  0  0
  -24.6193  -31.8631   23.2033 C   0  0  0  0  0  0
  -25.9060  -32.4786   23.8359 C   0  0  1  0  0  0
  -27.2365  -27.3790   20.1253 C   0  0  0  0  0  0
  -25.5901  -33.8586   24.2285 N   0  0  0  0  0  0
  -23.4131  -30.4830   21.5451 C   0  0  2  0  0  0
  -24.8604  -28.9346   20.1211 C   0  0  0  0  0  0
  -22.7443  -29.4646   22.4974 C   0  0  0  0  0  0
  -18.0273  -28.1402   22.8470 C   0  0  0  0  0  0
  -24.1496  -36.7304   23.2642 C   0  0  0  0  0  0
  -25.9451  -30.8154   21.3626 C   0  0  0  0  0  0
  -26.0219  -29.4427   20.7153 C   0  0  0  0  0  0
  -27.2148  -28.6770   20.7017 C   0  0  0  0  0  0
  -26.0558  -26.8911   19.5301 C   0  0  0  0  0  0
  -24.8751  -27.6626   19.5210 C   0  0  0  0  0  0
  -23.6244  -29.8084   20.1628 C   0  0  0  0  0  0
  -25.4118  -36.3094   24.0333 C   0  0  1  0  0  0
  -20.5862  -28.3698   23.1285 C   0  0  2  0  0  0
  -20.6765  -26.9424   22.5418 C   0  0  0  0  0  0
  -19.5754  -26.6401   21.5207 C   0  0  0  0  0  0
  -18.1928  -26.7947   22.1606 C   0  0  0  0  0  0
  -19.1522  -28.8863   23.2882 C   0  0  0  0  0  0
  -18.9449  -30.1458   23.8911 C   0  0  0  0  0  0
  -17.6455  -30.6601   24.0564 C   0  0  0  0  0  0
  -25.9046  -34.9459   23.5116 C   0  0  0  0  0  0
  -16.5343  -29.9105   23.6322 C   0  0  0  0  0  0
  -16.7265  -28.6523   23.0338 C   0  0  0  0  0  0
  -26.4478  -31.6586   25.0704 C   0  0  0  0  0  0
  -25.3742  -31.3713   26.1452 C   0  0  0  0  0  0
  -27.0317  -30.3021   24.6117 C   0  0  0  0  0  0
  -27.6051  -32.4323   25.7466 C   0  0  0  0  0  0
  -27.5589  -37.1809   24.8470 C   0  0  0  0  0  0
  -21.4165  -29.3052   22.3687 N   0  0  0  0  0  0
  -26.4306  -37.3775   23.9408 N   0  0  0  0  0  0
  -24.6780  -31.0705   22.0945 N   0  0  0  0  0  0
  -23.4176  -28.8204   23.3067 O   0  0  0  0  0  0
  -28.4135  -26.6439   20.0822 O   0  0  0  0  0  0
  -26.5614  -34.8922   22.4683 O   0  0  0  0  0  0
  -23.5365  -32.1390   23.7391 O   0  0  0  0  0  0
  -29.5722  -19.2994   20.7267 C   0  0  0  0  0  0
  -30.9423  -19.3643   20.9003 C   0  0  0  0  0  0
  -30.1053  -17.0300   20.7924 C   0  0  0  0  0  0
  -27.3997  -20.3991   21.4883 C   0  0  0  0  0  0
  -29.1618  -22.4658   18.2797 C   0  0  0  0  0  0
  -27.9876  -25.4616   22.2197 C   0  0  0  0  0  0
  -28.1061  -24.0606   20.0266 C   0  0  0  0  0  0
  -28.6053  -20.4907   20.5358 C   0  0  1  0  0  0
  -29.1993  -22.9463   19.7486 C   0  0  1  0  0  0
  -28.5463  -25.3709   20.7880 C   0  0  1  0  0  0
  -29.1243  -17.9509   20.6625 N   0  0  0  0  0  0
  -31.7446  -20.5006   20.9904 N   0  0  0  0  0  0
  -29.8248  -15.6186   20.7949 N   0  0  0  0  0  0
  -29.2972  -21.8102   20.7400 N   0  3  0  0  0  0
  -31.6884  -17.7776   20.9919 S   0  0  0  0  0  0
  -31.4727  -12.4658   19.1329 H   0  0  0  0  0  0
  -30.3512  -11.3492   19.8607 H   0  0  0  0  0  0
  -29.7526  -11.7532   17.4552 H   0  0  0  0  0  0
  -29.6533  -13.4707   17.7455 H   0  0  0  0  0  0
  -27.8437  -11.2959   18.8412 H   0  0  0  0  0  0
  -27.3673  -12.5987   17.7857 H   0  0  0  0  0  0
  -27.6778  -14.2459   19.5279 H   0  0  0  0  0  0
  -28.6943  -12.0131   21.3614 H   0  0  0  0  0  0
  -28.4547  -13.6686   21.8477 H   0  0  0  0  0  0
  -25.2767   -9.5685   22.4758 H   0  0  0  0  0  0
  -24.0002   -7.4645   22.7477 H   0  0  0  0  0  0
  -21.0824   -8.8755   19.8971 H   0  0  0  0  0  0
  -22.3679  -10.9656   19.6163 H   0  0  0  0  0  0
  -21.2032   -7.6134   23.9707 H   0  0  0  0  0  0
  -21.1463   -6.0514   25.9079 H   0  0  0  0  0  0
  -22.0612   -2.7586   23.2860 H   0  0  0  0  0  0
  -22.4100  -11.9903   22.4792 H   0  0  0  0  0  0
  -21.1105  -13.1263   22.2610 H   0  0  0  0  0  0
  -24.6647  -15.8475   20.5127 H   0  0  0  0  0  0
  -26.2781  -15.6287   20.0720 H   0  0  0  0  0  0
  -26.7140  -32.5489   23.1136 H   0  0  0  0  0  0
  -25.0035  -33.9738   25.0413 H   0  0  0  0  0  0
  -22.7069  -31.3032   21.4012 H   0  0  0  0  0  0
  -23.3752  -35.9645   23.3307 H   0  0  0  0  0  0
  -24.3585  -36.8912   22.2057 H   0  0  0  0  0  0
  -23.7252  -37.6510   23.6653 H   0  0  0  0  0  0
  -26.0633  -31.5820   20.5947 H   0  0  0  0  0  0
  -26.8296  -30.8677   21.9857 H   0  0  0  0  0  0
  -28.1192  -29.0721   21.1396 H   0  0  0  0  0  0
  -26.0455  -25.9188   19.0601 H   0  0  0  0  0  0
  -23.9830  -27.2680   19.0567 H   0  0  0  0  0  0
  -23.7356  -30.5811   19.4008 H   0  0  0  0  0  0
  -22.7474  -29.2298   19.8667 H   0  0  0  0  0  0
  -25.1292  -36.1971   25.0824 H   0  0  0  0  0  0
  -20.9943  -28.3289   24.1408 H   0  0  0  0  0  0
  -20.5665  -26.2310   23.3612 H   0  0  0  0  0  0
  -21.6635  -26.7486   22.1204 H   0  0  0  0  0  0
  -19.6930  -25.6315   21.1234 H   0  0  0  0  0  0
  -19.6691  -27.3209   20.6736 H   0  0  0  0  0  0
  -17.4187  -26.6663   21.4025 H   0  0  0  0  0  0
  -18.0356  -26.0110   22.9029 H   0  0  0  0  0  0
  -19.7927  -30.7259   24.2298 H   0  0  0  0  0  0
  -17.5012  -31.6277   24.5174 H   0  0  0  0  0  0
  -15.5340  -30.3010   23.7649 H   0  0  0  0  0  0
  -15.8661  -28.0850   22.7047 H   0  0  0  0  0  0
  -24.5874  -30.7116   25.7783 H   0  0  0  0  0  0
  -24.8979  -32.2876   26.4951 H   0  0  0  0  0  0
  -25.8074  -30.8824   27.0185 H   0  0  0  0  0  0
  -26.2883  -29.6789   24.1125 H   0  0  0  0  0  0
  -27.4028  -29.7257   25.4606 H   0  0  0  0  0  0
  -27.8742  -30.4335   23.9319 H   0  0  0  0  0  0
  -27.2646  -33.3578   26.2132 H   0  0  0  0  0  0
  -28.3798  -32.6966   25.0254 H   0  0  0  0  0  0
  -28.0802  -31.8403   26.5303 H   0  0  0  0  0  0
  -28.2605  -38.0103   24.7471 H   0  0  0  0  0  0
  -28.1079  -36.2620   24.6339 H   0  0  0  0  0  0
  -27.2302  -37.1514   25.8874 H   0  0  0  0  0  0
  -20.9358  -29.8738   21.6849 H   0  0  0  0  0  0
  -26.0196  -38.2861   24.1378 H   0  0  0  0  0  0
  -26.8218  -19.4963   21.2939 H   0  0  0  0  0  0
  -26.7257  -21.2456   21.3581 H   0  0  0  0  0  0
  -27.7107  -20.3755   22.5319 H   0  0  0  0  0  0
  -28.1947  -22.0425   18.0064 H   0  0  0  0  0  0
  -29.9369  -21.7243   18.0792 H   0  0  0  0  0  0
  -29.3470  -23.2948   17.5966 H   0  0  0  0  0  0
  -28.2472  -24.5798   22.8070 H   0  0  0  0  0  0
  -26.9019  -25.5547   22.2303 H   0  0  0  0  0  0
  -28.3968  -26.3276   22.7406 H   0  0  0  0  0  0
  -27.2290  -23.6184   20.4994 H   0  0  0  0  0  0
  -27.7427  -24.3927   19.0546 H   0  0  0  0  0  0
  -28.2189  -20.4261   19.5224 H   0  0  0  0  0  0
  -30.1660  -23.4423   19.8477 H   0  0  0  0  0  0
  -29.6265  -25.3000   20.9221 H   0  0  0  0  0  0
  -32.1794  -20.5474   21.9109 H   0  0  0  0  0  0
  -32.5430  -20.3990   20.3664 H   0  0  0  0  0  0
  -28.8626  -15.3703   20.9527 H   0  0  0  0  0  0
  -30.2764  -21.5067   20.7292 H   0  0  0  0  0  0
  -29.1476  -22.1337   21.6804 H   0  0  0  0  0  0
  1 25  1  0  0  0
  1 30  2  0  0  0
  1 83  1  0  0  0
  2  3  1  0  0  0
  2 25  1  0  0  0
  2 86  1  0  0  0
  2 87  1  0  0  0
  3  4  1  0  0  0
  3 88  1  0  0  0
  3 89  1  0  0  0
  4  5  1  0  0  0
  4 90  1  0  0  0
  4 91  1  0  0  0
  5  6  1  0  0  0
  5 26  1  0  0  0
  5 92  1  0  0  0
  6 25  1  0  0  0
  6 93  1  0  0  0
  6 94  1  0  0  0
  7  8  2  0  0  0
  7 26  1  0  0  0
  7 29  1  0  0  0
  8  9  1  0  0  0
  8 22  1  0  0  0
  9 10  1  0  0  0
  9 27  2  0  0  0
 10 11  2  0  0  0
 10 15  1  0  0  0
 11 12  1  0  0  0
 11 95  1  0  0  0
 12 13  2  0  0  0
 12 96  1  0  0  0
 13 14  1  0  0  0
 13 31  1  0  0  0
 14 15  2  0  0  0
 14 97  1  0  0  0
 15 98  1  0  0  0
 16 17  2  0  0  0
 16 21  1  0  0  0
 16 31  1  0  0  0
 17 18  1  0  0  0
 17 99  1  0  0  0
 18 19  2  0  0  0
 18100  1  0  0  0
 19 20  1  0  0  0
 19 24  1  0  0  0
 20 21  2  0  0  0
 20101  1  0  0  0
 21 23  1  0  0  0
 22 28  1  0  0  0
 22 32  2  0  0  0
 26 27  1  0  0  0
 28102  1  0  0  0
 28103  1  0  0  0
 29104  1  0  0  0
 29105  1  0  0  0
 33 34  1  0  0  0
 33 66  1  0  0  0
 33 70  2  0  0  0
 34 36  1  0  0  0
 34 59  1  0  0  0
 34106  1  0  0  0
 35 44  2  0  0  0
 35 45  1  0  0  0
 35 68  1  0  0  0
 36 56  1  0  0  0
 36107  1  0  0  0
 37 39  1  0  0  0
 37 47  1  0  0  0
 37 66  1  0  0  0
 37108  1  0  0  0
 38 43  2  0  0  0
 38 46  1  0  0  0
 38 47  1  0  0  0
 39 64  1  0  0  0
 39 67  2  0  0  0
 40 52  1  0  0  0
 40 53  2  0  0  0
 40 58  1  0  0  0
 41109  1  0  0  0
 41110  1  0  0  0
 41111  1  0  0  0
 41 48  1  0  0  0
 42 43  1  0  0  0
 42 66  1  0  0  0
 42112  1  0  0  0
 42113  1  0  0  0
 43 44  1  0  0  0
 44114  1  0  0  0
 45 46  2  0  0  0
 45115  1  0  0  0
 46116  1  0  0  0
 47117  1  0  0  0
 47118  1  0  0  0
 48 56  1  0  0  0
 48 65  1  0  0  0
 48119  1  0  0  0
 49 50  1  0  0  0
 49 53  1  0  0  0
 49 64  1  0  0  0
 49120  1  0  0  0
 50 51  1  0  0  0
 50121  1  0  0  0
 50122  1  0  0  0
 51 52  1  0  0  0
 51123  1  0  0  0
 51124  1  0  0  0
 52125  1  0  0  0
 52126  1  0  0  0
 53 54  1  0  0  0
 54 55  2  0  0  0
 54127  1  0  0  0
 55 57  1  0  0  0
 55128  1  0  0  0
 56 69  2  0  0  0
 57 58  2  0  0  0
 57129  1  0  0  0
 58130  1  0  0  0
 59 60  1  0  0  0
 59 61  1  0  0  0
 59 62  1  0  0  0
 60131  1  0  0  0
 60132  1  0  0  0
 60133  1  0  0  0
 61134  1  0  0  0
 61135  1  0  0  0
 61136  1  0  0  0
 62137  1  0  0  0
 62138  1  0  0  0
 62139  1  0  0  0
 63 65  1  0  0  0
 63140  1  0  0  0
 63141  1  0  0  0
 63142  1  0  0  0
 64143  1  0  0  0
 65144  1  0  0  0
 68 80  1  0  0  0
 71 72  2  0  0  0
 71 78  1  0  0  0
 71 81  1  0  0  0
 72 82  1  0  0  0
 72 85  1  0  0  0
 73 81  2  0  0  0
 73 83  1  0  0  0
 73 85  1  0  0  0
 74145  1  0  0  0
 74146  1  0  0  0
 74147  1  0  0  0
 74 78  1  0  0  0
 75148  1  0  0  0
 75149  1  0  0  0
 75150  1  0  0  0
 75 79  1  0  0  0
 76151  1  0  0  0
 76152  1  0  0  0
 76153  1  0  0  0
 76 80  1  0  0  0
 77 79  1  0  0  0
 77 80  1  0  0  0
 77154  1  0  0  0
 77155  1  0  0  0
 78 84  1  0  0  0
 78156  1  0  0  0
 79 84  1  0  0  0
 79157  1  0  0  0
 80158  1  0  0  0
 82159  1  0  0  0
 82160  1  0  0  0
 83161  1  0  0  0
 84162  1  0  0  0
 84163  1  0  0  0
M  CHG  1  84   1
M  ISO  4   1 100  68 101  80 101  83 100
M  END
> <chiral flag>
0

> <version>
0

> <s_m_source_file>
/data/baiqing/PycharmProjects/Reinvent-master-3.2/result/LINK_invent/BTK/process_docking_weight1_custom_product_contain_oxygen_bond_distance_aromatic_linkinvent_7_9_3/rearranged_h_0193.sdf

> <i_m_source_file_index>
82

> <r_mmod_Potential_Energy-OPLS-2005>
-168.249542236328

> <r_mmod_Stretch_Energy-OPLS-2005>
56.3523483276367

> <r_mmod_Bend_Energy-OPLS-2005>
141.854598999023

> <r_mmod_Torsional_Energy-OPLS-2005>
273.340789794922

> <r_mmod_Improper_Torsional_Energy-OPLS-2005>
12.8000020980835

> <r_mmod_Van_der_Waal_Energy-OPLS-2005>
129.993713378906

> <r_mmod_Electrostatic_Energy-OPLS-2005>
-372.857452392578

> <r_mmod_Solvation_Energy-OPLS-2005>
-435.716217041016

> <b_mmod_Minimization_Converged-OPLS-2005>
0

> <r_mmod_RMS_Derivative-OPLS-2005>
2.91103339195251

$$$$
82
                    3D
 Structure written by MMmdl.
168176  0  0  1  0            999 V2000
  -30.6817  -14.5486   20.4948 C   0  0  0  0  0  0
  -30.4263  -12.3264   19.4466 C   0  0  0  0  0  0
  -29.5009  -12.4672   18.2234 C   0  0  0  0  0  0
  -28.0217  -12.3139   18.6380 C   0  0  0  0  0  0
  -27.6504  -13.2014   19.8543 C   0  0  2  0  0  0
  -28.6947  -13.0743   20.9863 C   0  0  0  0  0  0
  -25.2568  -13.8138   20.5570 C   0  0  0  0  0  0
  -24.1836  -13.0414   20.9080 C   0  0  0  0  0  0
  -24.6385  -11.6889   20.8760 C   0  0  0  0  0  0
  -23.9044  -10.4283   21.0415 C   0  0  0  0  0  0
  -24.3616   -9.4201   21.9173 C   0  0  0  0  0  0
  -23.6297   -8.2252   22.0765 C   0  0  0  0  0  0
  -22.4266   -8.0278   21.3563 C   0  0  0  0  0  0
  -21.9889   -9.0244   20.4652 C   0  0  0  0  0  0
  -22.7214  -10.2114   20.3052 C   0  0  0  0  0  0
  -21.6849   -6.0726   22.5269 C   0  0  0  0  0  0
  -21.4027   -6.5647   23.8186 C   0  0  0  0  0  0
  -21.3646   -5.6800   24.9166 C   0  0  0  0  0  0
  -21.6035   -4.3072   24.7211 C   0  0  0  0  0  0
  -21.8822   -3.8139   23.4352 C   0  0  0  0  0  0
  -21.9185   -4.6965   22.3386 C   0  0  0  0  0  0
  -22.7854  -13.5230   21.1734 C   0  0  0  0  0  0
  -22.1649   -4.2136   21.0985 F   0  0  0  0  0  0
  -21.5607   -3.4549   25.7734 F   0  0  0  0  0  0
  -30.0143  -13.3628   20.4049 N   0  0  0  0  0  0
  -26.2979  -12.9282   20.3282 N   0  0  0  0  0  0
  -25.9314  -11.6466   20.5822 N   0  0  0  0  0  0
  -22.0556  -12.8255   22.0389 N   0  0  0  0  0  0
  -25.4337  -15.1829   20.3858 N   0  0  0  0  0  0
  -31.8621  -14.6624   20.1467 O   0  0  0  0  0  0
  -21.6660   -6.8864   21.4220 O   0  0  0  0  0  0
  -22.3565  -14.5520   20.6560 O   0  0  0  0  0  0
  -24.6203  -31.8688   23.2064 C   0  0  0  0  0  0
  -25.9116  -32.4805   23.8378 C   0  0  1  0  0  0
  -27.2131  -27.3848   20.0827 C   0  0  0  0  0  0
  -25.5978  -33.8597   24.2326 N   0  0  0  0  0  0
  -23.4071  -30.5008   21.5481 C   0  0  2  0  0  0
  -24.8473  -28.9756   20.0982 C   0  0  0  0  0  0
  -22.7448  -29.4694   22.4931 C   0  0  0  0  0  0
  -18.0312  -28.1354   22.8471 C   0  0  0  0  0  0
  -24.1512  -36.7295   23.2640 C   0  0  0  0  0  0
  -25.9442  -30.8242   21.3632 C   0  0  0  0  0  0
  -26.0148  -29.4572   20.7032 C   0  0  0  0  0  0
  -27.1962  -28.6714   20.6935 C   0  0  0  0  0  0
  -26.0289  -26.9628   19.4308 C   0  0  0  0  0  0
  -24.8567  -27.7319   19.4533 C   0  0  0  0  0  0
  -23.6110  -29.8443   20.1565 C   0  0  0  0  0  0
  -25.4112  -36.3070   24.0351 C   0  0  1  0  0  0
  -20.5926  -28.3710   23.1292 C   0  0  2  0  0  0
  -20.6850  -26.9413   22.5404 C   0  0  0  0  0  0
  -19.5855  -26.6396   21.5187 C   0  0  0  0  0  0
  -18.2011  -26.7899   22.1605 C   0  0  0  0  0  0
  -19.1542  -28.8844   23.2891 C   0  0  0  0  0  0
  -18.9440  -30.1448   23.8963 C   0  0  0  0  0  0
  -17.6426  -30.6561   24.0535 C   0  0  0  0  0  0
  -25.9060  -34.9445   23.5119 C   0  0  0  0  0  0
  -16.5337  -29.9076   23.6252 C   0  0  0  0  0  0
  -16.7285  -28.6460   23.0315 C   0  0  0  0  0  0
  -26.4535  -31.6557   25.0696 C   0  0  0  0  0  0
  -25.3791  -31.3640   26.1412 C   0  0  0  0  0  0
  -27.0386  -30.2996   24.6119 C   0  0  0  0  0  0
  -27.6157  -32.4177   25.7467 C   0  0  0  0  0  0
  -27.5572  -37.1788   24.8477 C   0  0  0  0  0  0
  -21.4167  -29.3075   22.3639 N   0  0  0  0  0  0
  -26.4272  -37.3757   23.9427 N   0  0  0  0  0  0
  -24.6788  -31.0760   22.0980 N   0  0  0  0  0  0
  -23.4198  -28.8244   23.3000 O   0  0  0  0  0  0
  -28.3450  -26.5692   20.1427 O   0  0  0  0  0  0
  -26.5604  -34.8899   22.4669 O   0  0  0  0  0  0
  -23.5366  -32.1472   23.7389 O   0  0  0  0  0  0
  -31.0402  -18.2416   22.7183 C   0  0  0  0  0  0
  -30.2726  -16.9057   21.1092 C   0  0  0  0  0  0
  -30.0932  -19.1302   20.9234 C   0  0  0  0  0  0
  -27.0336  -22.3345   22.0599 C   0  0  0  0  0  0
  -30.5589  -18.2461   25.1902 C   0  0  0  0  0  0
  -27.7617  -21.1648   21.3886 C   0  0  0  0  0  0
  -29.1994  -24.1296   20.3249 C   0  0  0  0  0  0
  -28.1929  -25.1726   19.7464 C   0  0  0  0  0  0
  -31.6580  -18.3327   24.1133 C   0  0  1  0  0  0
  -29.1501  -21.4853   20.7773 C   0  0  2  0  0  0
  -29.0485  -22.6728   19.7432 C   0  0  2  0  0  0
  -30.8829  -16.9910   22.2816 N   0  0  0  0  0  0
  -30.6460  -19.3570   22.1030 N   0  0  0  0  0  0
  -29.8581  -17.9433   20.3705 N   0  0  0  0  0  0
  -29.9053  -15.6341   20.7235 N   0  0  0  0  0  0
  -29.6800  -20.2353   20.1870 N   0  0  0  0  0  0
  -32.5970  -17.2061   24.2165 N   0  3  0  0  0  0
  -30.0286  -22.5201   18.7292 O   0  0  0  0  0  0
  -31.4714  -12.4217   19.1476 H   0  0  0  0  0  0
  -30.3361  -11.3356   19.8967 H   0  0  0  0  0  0
  -29.7545  -11.7130   17.4797 H   0  0  0  0  0  0
  -29.6616  -13.4407   17.7554 H   0  0  0  0  0  0
  -27.8527  -11.2620   18.8778 H   0  0  0  0  0  0
  -27.3619  -12.5326   17.7965 H   0  0  0  0  0  0
  -27.6678  -14.2305   19.4958 H   0  0  0  0  0  0
  -28.6903  -12.0708   21.4143 H   0  0  0  0  0  0
  -28.4497  -13.7487   21.8108 H   0  0  0  0  0  0
  -25.2757   -9.5683   22.4756 H   0  0  0  0  0  0
  -23.9966   -7.4658   22.7514 H   0  0  0  0  0  0
  -21.0798   -8.8750   19.8990 H   0  0  0  0  0  0
  -22.3636  -10.9660   19.6181 H   0  0  0  0  0  0
  -21.2078   -7.6159   23.9674 H   0  0  0  0  0  0
  -21.1444   -6.0563   25.9052 H   0  0  0  0  0  0
  -22.0621   -2.7608   23.2850 H   0  0  0  0  0  0
  -22.4182  -11.9875   22.4672 H   0  0  0  0  0  0
  -21.1194  -13.1277   22.2680 H   0  0  0  0  0  0
  -24.6599  -15.8355   20.4541 H   0  0  0  0  0  0
  -26.2706  -15.6047   20.0040 H   0  0  0  0  0  0
  -26.7228  -32.5561   23.1171 H   0  0  0  0  0  0
  -25.0168  -33.9796   25.0490 H   0  0  0  0  0  0
  -22.6989  -31.3214   21.4128 H   0  0  0  0  0  0
  -23.3737  -35.9663   23.3293 H   0  0  0  0  0  0
  -24.3642  -36.8892   22.2059 H   0  0  0  0  0  0
  -23.7293  -37.6518   23.6635 H   0  0  0  0  0  0
  -26.0626  -31.5973   20.5994 H   0  0  0  0  0  0
  -26.8257  -30.8711   21.9868 H   0  0  0  0  0  0
  -28.0931  -29.0477   21.1598 H   0  0  0  0  0  0
  -25.9738  -26.0347   18.8867 H   0  0  0  0  0  0
  -23.9702  -27.3762   18.9459 H   0  0  0  0  0  0
  -23.7130  -30.6242   19.3995 H   0  0  0  0  0  0
  -22.7316  -29.2645   19.8649 H   0  0  0  0  0  0
  -25.1268  -36.1920   25.0838 H   0  0  0  0  0  0
  -21.0048  -28.3322   24.1409 H   0  0  0  0  0  0
  -20.5741  -26.2263   23.3571 H   0  0  0  0  0  0
  -21.6782  -26.7554   22.1241 H   0  0  0  0  0  0
  -19.7053  -25.6302   21.1230 H   0  0  0  0  0  0
  -19.6824  -27.3153   20.6681 H   0  0  0  0  0  0
  -17.4239  -26.6527   21.4054 H   0  0  0  0  0  0
  -18.0560  -26.0068   22.9058 H   0  0  0  0  0  0
  -19.7832  -30.7302   24.2446 H   0  0  0  0  0  0
  -17.4924  -31.6239   24.5094 H   0  0  0  0  0  0
  -15.5318  -30.2978   23.7552 H   0  0  0  0  0  0
  -15.8695  -28.0738   22.7084 H   0  0  0  0  0  0
  -24.6034  -30.6930   25.7736 H   0  0  0  0  0  0
  -24.8894  -32.2764   26.4790 H   0  0  0  0  0  0
  -25.8091  -30.8867   27.0232 H   0  0  0  0  0  0
  -26.2972  -29.6690   24.1204 H   0  0  0  0  0  0
  -27.4222  -29.7259   25.4583 H   0  0  0  0  0  0
  -27.8780  -30.4308   23.9284 H   0  0  0  0  0  0
  -27.2929  -33.3494   26.2093 H   0  0  0  0  0  0
  -28.3980  -32.6644   25.0293 H   0  0  0  0  0  0
  -28.0853  -31.8254   26.5330 H   0  0  0  0  0  0
  -28.2570  -38.0089   24.7474 H   0  0  0  0  0  0
  -28.1058  -36.2605   24.6300 H   0  0  0  0  0  0
  -27.2335  -37.1473   25.8893 H   0  0  0  0  0  0
  -20.9430  -29.8689   21.6702 H   0  0  0  0  0  0
  -26.0149  -38.2857   24.1280 H   0  0  0  0  0  0
  -26.1662  -21.9761   22.6113 H   0  0  0  0  0  0
  -26.6602  -23.0429   21.3208 H   0  0  0  0  0  0
  -27.6697  -22.8639   22.7654 H   0  0  0  0  0  0
  -29.8758  -19.0882   25.0969 H   0  0  0  0  0  0
  -30.9613  -18.2652   26.2025 H   0  0  0  0  0  0
  -29.9645  -17.3405   25.0693 H   0  0  0  0  0  0
  -27.1087  -20.7547   20.6147 H   0  0  0  0  0  0
  -27.8691  -20.3687   22.1290 H   0  0  0  0  0  0
  -29.0699  -24.1068   21.4053 H   0  0  0  0  0  0
  -30.2197  -24.4814   20.1729 H   0  0  0  0  0  0
  -27.2195  -24.8041   20.0702 H   0  0  0  0  0  0
  -28.2122  -25.1255   18.6549 H   0  0  0  0  0  0
  -32.2146  -19.2641   24.2297 H   0  0  0  0  0  0
  -29.8438  -21.7807   21.5656 H   0  0  0  0  0  0
  -28.0798  -22.5990   19.2425 H   0  0  0  0  0  0
  -28.9180  -15.4606   20.7493 H   0  0  0  0  0  0
  -29.3168  -19.9894   19.2775 H   0  0  0  0  0  0
  -32.2644  -16.6267   23.4525 H   0  0  0  0  0  0
  -32.5348  -16.7025   25.0788 H   0  0  0  0  0  0
  -33.5386  -17.4835   24.0188 H   0  0  0  0  0  0
  -29.7509  -21.8014   18.1682 H   0  0  0  0  0  0
  1 25  1  0  0  0
  1 30  2  0  0  0
  1 85  1  0  0  0
  2  3  1  0  0  0
  2 25  1  0  0  0
  2 89  1  0  0  0
  2 90  1  0  0  0
  3  4  1  0  0  0
  3 91  1  0  0  0
  3 92  1  0  0  0
  4  5  1  0  0  0
  4 93  1  0  0  0
  4 94  1  0  0  0
  5  6  1  0  0  0
  5 26  1  0  0  0
  5 95  1  0  0  0
  6 25  1  0  0  0
  6 96  1  0  0  0
  6 97  1  0  0  0
  7  8  2  0  0  0
  7 26  1  0  0  0
  7 29  1  0  0  0
  8  9  1  0  0  0
  8 22  1  0  0  0
  9 10  1  0  0  0
  9 27  2  0  0  0
 10 11  2  0  0  0
 10 15  1  0  0  0
 11 12  1  0  0  0
 11 98  1  0  0  0
 12 13  2  0  0  0
 12 99  1  0  0  0
 13 14  1  0  0  0
 13 31  1  0  0  0
 14 15  2  0  0  0
 14100  1  0  0  0
 15101  1  0  0  0
 16 17  2  0  0  0
 16 21  1  0  0  0
 16 31  1  0  0  0
 17 18  1  0  0  0
 17102  1  0  0  0
 18 19  2  0  0  0
 18103  1  0  0  0
 19 20  1  0  0  0
 19 24  1  0  0  0
 20 21  2  0  0  0
 20104  1  0  0  0
 21 23  1  0  0  0
 22 28  1  0  0  0
 22 32  2  0  0  0
 26 27  1  0  0  0
 28105  1  0  0  0
 28106  1  0  0  0
 29107  1  0  0  0
 29108  1  0  0  0
 33 34  1  0  0  0
 33 66  1  0  0  0
 33 70  2  0  0  0
 34 36  1  0  0  0
 34 59  1  0  0  0
 34109  1  0  0  0
 35 44  2  0  0  0
 35 45  1  0  0  0
 35 68  1  0  0  0
 36 56  1  0  0  0
 36110  1  0  0  0
 37 39  1  0  0  0
 37 47  1  0  0  0
 37 66  1  0  0  0
 37111  1  0  0  0
 38 43  2  0  0  0
 38 46  1  0  0  0
 38 47  1  0  0  0
 39 64  1  0  0  0
 39 67  2  0  0  0
 40 52  1  0  0  0
 40 53  2  0  0  0
 40 58  1  0  0  0
 41112  1  0  0  0
 41113  1  0  0  0
 41114  1  0  0  0
 41 48  1  0  0  0
 42 43  1  0  0  0
 42 66  1  0  0  0
 42115  1  0  0  0
 42116  1  0  0  0
 43 44  1  0  0  0
 44117  1  0  0  0
 45 46  2  0  0  0
 45118  1  0  0  0
 46119  1  0  0  0
 47120  1  0  0  0
 47121  1  0  0  0
 48 56  1  0  0  0
 48 65  1  0  0  0
 48122  1  0  0  0
 49 50  1  0  0  0
 49 53  1  0  0  0
 49 64  1  0  0  0
 49123  1  0  0  0
 50 51  1  0  0  0
 50124  1  0  0  0
 50125  1  0  0  0
 51 52  1  0  0  0
 51126  1  0  0  0
 51127  1  0  0  0
 52128  1  0  0  0
 52129  1  0  0  0
 53 54  1  0  0  0
 54 55  2  0  0  0
 54130  1  0  0  0
 55 57  1  0  0  0
 55131  1  0  0  0
 56 69  2  0  0  0
 57 58  2  0  0  0
 57132  1  0  0  0
 58133  1  0  0  0
 59 60  1  0  0  0
 59 61  1  0  0  0
 59 62  1  0  0  0
 60134  1  0  0  0
 60135  1  0  0  0
 60136  1  0  0  0
 61137  1  0  0  0
 61138  1  0  0  0
 61139  1  0  0  0
 62140  1  0  0  0
 62141  1  0  0  0
 62142  1  0  0  0
 63 65  1  0  0  0
 63143  1  0  0  0
 63144  1  0  0  0
 63145  1  0  0  0
 64146  1  0  0  0
 65147  1  0  0  0
 68 78  1  0  0  0
 71 79  1  0  0  0
 71 82  2  0  0  0
 71 83  1  0  0  0
 72 82  1  0  0  0
 72 84  2  0  0  0
 72 85  1  0  0  0
 73 83  2  0  0  0
 73 84  1  0  0  0
 73 86  1  0  0  0
 74 76  1  0  0  0
 74148  1  0  0  0
 74149  1  0  0  0
 74150  1  0  0  0
 75151  1  0  0  0
 75152  1  0  0  0
 75153  1  0  0  0
 75 79  1  0  0  0
 76154  1  0  0  0
 76155  1  0  0  0
 76 80  1  0  0  0
 77 78  1  0  0  0
 77 81  1  0  0  0
 77156  1  0  0  0
 77157  1  0  0  0
 78158  1  0  0  0
 78159  1  0  0  0
 79 87  1  0  0  0
 79160  1  0  0  0
 80 81  1  0  0  0
 80 86  1  0  0  0
 80161  1  0  0  0
 81 88  1  0  0  0
 81162  1  0  0  0
 85163  1  0  0  0
 86164  1  0  0  0
 87165  1  0  0  0
 87166  1  0  0  0
 87167  1  0  0  0
 88168  1  0  0  0
M  CHG  1  87   1
M  ISO  4   1 100  68 101  78 101  85 100
M  END
> <chiral flag>
0

> <version>
0

> <s_m_source_file>
/data/baiqing/PycharmProjects/Reinvent-master-3.2/result/LINK_invent/BTK/process_docking_weight1_custom_product_contain_oxygen_bond_distance_aromatic_linkinvent_7_9_3/rearranged_h_0193.sdf

> <i_m_source_file_index>
83

> <r_mmod_Potential_Energy-OPLS-2005>
-1303.09814453125

> <r_mmod_Stretch_Energy-OPLS-2005>
49.3473052978516

> <r_mmod_Bend_Energy-OPLS-2005>
121.166435241699

> <r_mmod_Torsional_Energy-OPLS-2005>
272.186950683594

> <r_mmod_Improper_Torsional_Energy-OPLS-2005>
9.61115074157715

> <r_mmod_Van_der_Waal_Energy-OPLS-2005>
193.646423339844

> <r_mmod_Electrostatic_Energy-OPLS-2005>
-1453.69384765625

> <r_mmod_Solvation_Energy-OPLS-2005>
-526.787109375

> <b_mmod_Minimization_Converged-OPLS-2005>
0

> <r_mmod_RMS_Derivative-OPLS-2005>
7.39384889602661

$$$$
83
                    3D
 Structure written by MMmdl.
162170  0  0  1  0            999 V2000
  -30.7785  -14.4318   20.6024 C   0  0  0  0  0  0
  -30.4048  -12.2905   19.4258 C   0  0  0  0  0  0
  -29.4846  -12.4871   18.2050 C   0  0  0  0  0  0
  -28.0104  -12.3450   18.6238 C   0  0  0  0  0  0
  -27.6561  -13.2077   19.8640 C   0  0  2  0  0  0
  -28.6983  -13.0250   20.9935 C   0  0  0  0  0  0
  -25.2564  -13.8167   20.5650 C   0  0  0  0  0  0
  -24.1827  -13.0437   20.9178 C   0  0  0  0  0  0
  -24.6389  -11.6911   20.8750 C   0  0  0  0  0  0
  -23.9060  -10.4292   21.0411 C   0  0  0  0  0  0
  -24.3615   -9.4207   21.9185 C   0  0  0  0  0  0
  -23.6291   -8.2242   22.0754 C   0  0  0  0  0  0
  -22.4279   -8.0276   21.3543 C   0  0  0  0  0  0
  -21.9913   -9.0248   20.4639 C   0  0  0  0  0  0
  -22.7235  -10.2130   20.3051 C   0  0  0  0  0  0
  -21.6847   -6.0738   22.5280 C   0  0  0  0  0  0
  -21.4011   -6.5641   23.8214 C   0  0  0  0  0  0
  -21.3660   -5.6791   24.9170 C   0  0  0  0  0  0
  -21.6046   -4.3054   24.7222 C   0  0  0  0  0  0
  -21.8816   -3.8152   23.4338 C   0  0  0  0  0  0
  -21.9193   -4.6968   22.3397 C   0  0  0  0  0  0
  -22.7847  -13.5230   21.1843 C   0  0  0  0  0  0
  -22.1660   -4.2158   21.0971 F   0  0  0  0  0  0
  -21.5631   -3.4534   25.7735 F   0  0  0  0  0  0
  -30.0376  -13.2955   20.4424 N   0  0  0  0  0  0
  -26.2994  -12.9342   20.3313 N   0  0  0  0  0  0
  -25.9316  -11.6507   20.5760 N   0  0  0  0  0  0
  -22.0488  -12.8231   22.0392 N   0  0  0  0  0  0
  -25.4279  -15.1870   20.4002 N   0  0  0  0  0  0
  -31.8789  -14.5618   20.0480 O   0  0  0  0  0  0
  -21.6632   -6.8882   21.4240 O   0  0  0  0  0  0
  -22.3547  -14.5547   20.6691 O   0  0  0  0  0  0
  -24.6139  -31.8680   23.2028 C   0  0  0  0  0  0
  -25.9041  -32.4800   23.8328 C   0  0  1  0  0  0
  -27.2460  -27.4373   20.0943 C   0  0  0  0  0  0
  -25.5907  -33.8595   24.2269 N   0  0  0  0  0  0
  -23.4020  -30.4875   21.5454 C   0  0  2  0  0  0
  -24.8488  -28.9453   20.1197 C   0  0  0  0  0  0
  -22.7411  -29.4660   22.4956 C   0  0  0  0  0  0
  -18.0290  -28.1383   22.8490 C   0  0  0  0  0  0
  -24.1504  -36.7289   23.2630 C   0  0  0  0  0  0
  -25.9288  -30.8327   21.3584 C   0  0  0  0  0  0
  -26.0072  -29.4651   20.7100 C   0  0  0  0  0  0
  -27.2057  -28.7166   20.6946 C   0  0  0  0  0  0
  -26.0682  -26.9313   19.4956 C   0  0  0  0  0  0
  -24.8735  -27.6769   19.5132 C   0  0  0  0  0  0
  -23.6110  -29.8108   20.1633 C   0  0  0  0  0  0
  -25.4127  -36.3085   24.0321 C   0  0  1  0  0  0
  -20.5882  -28.3664   23.1318 C   0  0  2  0  0  0
  -20.6780  -26.9400   22.5418 C   0  0  0  0  0  0
  -19.5760  -26.6387   21.5209 C   0  0  0  0  0  0
  -18.1934  -26.7929   22.1624 C   0  0  0  0  0  0
  -19.1543  -28.8836   23.2903 C   0  0  0  0  0  0
  -18.9467  -30.1445   23.8907 C   0  0  0  0  0  0
  -17.6466  -30.6586   24.0571 C   0  0  0  0  0  0
  -25.9051  -34.9454   23.5090 C   0  0  0  0  0  0
  -16.5354  -29.9084   23.6334 C   0  0  0  0  0  0
  -16.7274  -28.6516   23.0330 C   0  0  0  0  0  0
  -26.4471  -31.6593   25.0660 C   0  0  0  0  0  0
  -25.3703  -31.3742   26.1383 C   0  0  0  0  0  0
  -27.0316  -30.3045   24.6044 C   0  0  0  0  0  0
  -27.6040  -32.4307   25.7426 C   0  0  0  0  0  0
  -27.5602  -37.1782   24.8454 C   0  0  0  0  0  0
  -21.4142  -29.3029   22.3711 N   0  0  0  0  0  0
  -26.4309  -37.3782   23.9405 N   0  0  0  0  0  0
  -24.6663  -31.0763   22.0948 N   0  0  0  0  0  0
  -23.4174  -28.8210   23.3010 O   0  0  0  0  0  0
  -28.4494  -26.7586   20.0918 O   0  0  0  0  0  0
  -26.5633  -34.8926   22.4654 O   0  0  0  0  0  0
  -23.5344  -32.1406   23.7461 O   0  0  0  0  0  0
  -31.9181  -19.2866   21.9806 C   0  0  0  0  0  0
  -29.9489  -17.8773   21.7318 C   0  0  0  0  0  0
  -32.7204  -18.1555   21.7672 C   0  0  0  0  0  0
  -30.5170  -19.1598   21.9451 C   0  0  0  0  0  0
  -30.7872  -16.7468   21.5277 C   0  0  0  0  0  0
  -29.4715  -20.5300   19.6156 C   0  0  0  0  0  0
  -29.3609  -24.8235   21.2104 C   0  0  0  0  0  0
  -28.5630  -22.3206   21.2080 C   0  0  0  0  0  0
  -28.4721  -25.3245   20.0531 C   0  0  0  0  0  0
  -28.9001  -20.8097   21.0213 C   0  0  2  0  0  0
  -29.7529  -23.3226   21.1917 C   0  0  2  0  0  0
  -32.1347  -16.9576   21.5519 N   0  3  0  0  0  0
  -29.7436  -20.3210   22.1150 N   0  0  0  0  0  0
  -30.2292  -15.4375   21.3161 N   0  0  0  0  0  0
  -30.5505  -23.1105   22.3481 O   0  0  0  0  0  0
  -31.4514  -12.3474   19.1209 H   0  0  0  0  0  0
  -30.2780  -11.2868   19.8350 H   0  0  0  0  0  0
  -29.7219  -11.7527   17.4333 H   0  0  0  0  0  0
  -29.6539  -13.4678   17.7579 H   0  0  0  0  0  0
  -27.8336  -11.2915   18.8445 H   0  0  0  0  0  0
  -27.3534  -12.5904   17.7882 H   0  0  0  0  0  0
  -27.6907  -14.2466   19.5376 H   0  0  0  0  0  0
  -28.6630  -12.0036   21.3735 H   0  0  0  0  0  0
  -28.4515  -13.6593   21.8456 H   0  0  0  0  0  0
  -25.2761   -9.5677   22.4756 H   0  0  0  0  0  0
  -24.0001   -7.4627   22.7471 H   0  0  0  0  0  0
  -21.0849   -8.8758   19.8930 H   0  0  0  0  0  0
  -22.3700  -10.9669   19.6152 H   0  0  0  0  0  0
  -21.1999   -7.6149   23.9720 H   0  0  0  0  0  0
  -21.1486   -6.0518   25.9078 H   0  0  0  0  0  0
  -22.0599   -2.7614   23.2831 H   0  0  0  0  0  0
  -22.4102  -11.9883   22.4780 H   0  0  0  0  0  0
  -21.1090  -13.1239   22.2573 H   0  0  0  0  0  0
  -24.6477  -15.8316   20.4725 H   0  0  0  0  0  0
  -26.2564  -15.6174   20.0097 H   0  0  0  0  0  0
  -26.7103  -32.5527   23.1086 H   0  0  0  0  0  0
  -25.0018  -33.9757   25.0391 H   0  0  0  0  0  0
  -22.6941  -31.3054   21.4000 H   0  0  0  0  0  0
  -23.3770  -35.9617   23.3277 H   0  0  0  0  0  0
  -24.3608  -36.8925   22.2051 H   0  0  0  0  0  0
  -23.7257  -37.6480   23.6663 H   0  0  0  0  0  0
  -26.0394  -31.5979   20.5890 H   0  0  0  0  0  0
  -26.8182  -30.8869   21.9763 H   0  0  0  0  0  0
  -28.1027  -29.1150   21.1489 H   0  0  0  0  0  0
  -26.0589  -25.9746   18.9926 H   0  0  0  0  0  0
  -23.9830  -27.2711   19.0516 H   0  0  0  0  0  0
  -23.7171  -30.5761   19.3932 H   0  0  0  0  0  0
  -22.7387  -29.2212   19.8746 H   0  0  0  0  0  0
  -25.1310  -36.1930   25.0819 H   0  0  0  0  0  0
  -20.9986  -28.3241   24.1431 H   0  0  0  0  0  0
  -20.5717  -26.2261   23.3602 H   0  0  0  0  0  0
  -21.6646  -26.7461   22.1189 H   0  0  0  0  0  0
  -19.6924  -25.6299   21.1232 H   0  0  0  0  0  0
  -19.6716  -27.3224   20.6748 H   0  0  0  0  0  0
  -17.4211  -26.6693   21.4017 H   0  0  0  0  0  0
  -18.0314  -26.0083   22.9029 H   0  0  0  0  0  0
  -19.7951  -30.7258   24.2289 H   0  0  0  0  0  0
  -17.5023  -31.6276   24.5160 H   0  0  0  0  0  0
  -15.5357  -30.2977   23.7656 H   0  0  0  0  0  0
  -15.8681  -28.0846   22.6992 H   0  0  0  0  0  0
  -24.5864  -30.7132   25.7672 H   0  0  0  0  0  0
  -24.8914  -32.2933   26.4776 H   0  0  0  0  0  0
  -25.7995  -30.8905   27.0169 H   0  0  0  0  0  0
  -26.2873  -29.6786   24.1112 H   0  0  0  0  0  0
  -27.4117  -29.7312   25.4507 H   0  0  0  0  0  0
  -27.8679  -30.4357   23.9170 H   0  0  0  0  0  0
  -27.2657  -33.3600   26.2022 H   0  0  0  0  0  0
  -28.3838  -32.6883   25.0242 H   0  0  0  0  0  0
  -28.0707  -31.8411   26.5335 H   0  0  0  0  0  0
  -28.2563  -38.0135   24.7575 H   0  0  0  0  0  0
  -28.1164  -36.2672   24.6184 H   0  0  0  0  0  0
  -27.2325  -37.1289   25.8857 H   0  0  0  0  0  0
  -20.9295  -29.8719   21.6924 H   0  0  0  0  0  0
  -26.0193  -38.2847   24.1459 H   0  0  0  0  0  0
  -32.3893  -20.2463   22.1441 H   0  0  0  0  0  0
  -28.8739  -17.7723   21.7155 H   0  0  0  0  0  0
  -33.8033  -18.1863   21.7487 H   0  0  0  0  0  0
  -28.8524  -20.9959   18.8477 H   0  0  0  0  0  0
  -29.4868  -19.4641   19.3885 H   0  0  0  0  0  0
  -30.4842  -20.9168   19.4951 H   0  0  0  0  0  0
  -28.8641  -25.0642   22.1507 H   0  0  0  0  0  0
  -30.2806  -25.4132   21.1999 H   0  0  0  0  0  0
  -27.9792  -22.4569   22.1201 H   0  0  0  0  0  0
  -27.8811  -22.5907   20.4010 H   0  0  0  0  0  0
  -27.4903  -24.8702   20.1556 H   0  0  0  0  0  0
  -28.8800  -25.0098   19.0917 H   0  0  0  0  0  0
  -27.9537  -20.2703   21.0962 H   0  0  0  0  0  0
  -30.3737  -23.1356   20.3148 H   0  0  0  0  0  0
  -32.7515  -16.1560   21.3626 H   0  0  0  0  0  0
  -30.2835  -21.0979   22.4978 H   0  0  0  0  0  0
  -29.3072  -15.2651   21.6738 H   0  0  0  0  0  0
  -30.0432  -23.3887   23.1073 H   0  0  0  0  0  0
  1 25  1  0  0  0
  1 30  2  0  0  0
  1 84  1  0  0  0
  2  3  1  0  0  0
  2 25  1  0  0  0
  2 86  1  0  0  0
  2 87  1  0  0  0
  3  4  1  0  0  0
  3 88  1  0  0  0
  3 89  1  0  0  0
  4  5  1  0  0  0
  4 90  1  0  0  0
  4 91  1  0  0  0
  5  6  1  0  0  0
  5 26  1  0  0  0
  5 92  1  0  0  0
  6 25  1  0  0  0
  6 93  1  0  0  0
  6 94  1  0  0  0
  7  8  2  0  0  0
  7 26  1  0  0  0
  7 29  1  0  0  0
  8  9  1  0  0  0
  8 22  1  0  0  0
  9 10  1  0  0  0
  9 27  2  0  0  0
 10 11  2  0  0  0
 10 15  1  0  0  0
 11 12  1  0  0  0
 11 95  1  0  0  0
 12 13  2  0  0  0
 12 96  1  0  0  0
 13 14  1  0  0  0
 13 31  1  0  0  0
 14 15  2  0  0  0
 14 97  1  0  0  0
 15 98  1  0  0  0
 16 17  2  0  0  0
 16 21  1  0  0  0
 16 31  1  0  0  0
 17 18  1  0  0  0
 17 99  1  0  0  0
 18 19  2  0  0  0
 18100  1  0  0  0
 19 20  1  0  0  0
 19 24  1  0  0  0
 20 21  2  0  0  0
 20101  1  0  0  0
 21 23  1  0  0  0
 22 28  1  0  0  0
 22 32  2  0  0  0
 26 27  1  0  0  0
 28102  1  0  0  0
 28103  1  0  0  0
 29104  1  0  0  0
 29105  1  0  0  0
 33 34  1  0  0  0
 33 66  1  0  0  0
 33 70  2  0  0  0
 34 36  1  0  0  0
 34 59  1  0  0  0
 34106  1  0  0  0
 35 44  2  0  0  0
 35 45  1  0  0  0
 35 68  1  0  0  0
 36 56  1  0  0  0
 36107  1  0  0  0
 37 39  1  0  0  0
 37 47  1  0  0  0
 37 66  1  0  0  0
 37108  1  0  0  0
 38 43  2  0  0  0
 38 46  1  0  0  0
 38 47  1  0  0  0
 39 64  1  0  0  0
 39 67  2  0  0  0
 40 52  1  0  0  0
 40 53  2  0  0  0
 40 58  1  0  0  0
 41109  1  0  0  0
 41110  1  0  0  0
 41111  1  0  0  0
 41 48  1  0  0  0
 42 43  1  0  0  0
 42 66  1  0  0  0
 42112  1  0  0  0
 42113  1  0  0  0
 43 44  1  0  0  0
 44114  1  0  0  0
 45 46  2  0  0  0
 45115  1  0  0  0
 46116  1  0  0  0
 47117  1  0  0  0
 47118  1  0  0  0
 48 56  1  0  0  0
 48 65  1  0  0  0
 48119  1  0  0  0
 49 50  1  0  0  0
 49 53  1  0  0  0
 49 64  1  0  0  0
 49120  1  0  0  0
 50 51  1  0  0  0
 50121  1  0  0  0
 50122  1  0  0  0
 51 52  1  0  0  0
 51123  1  0  0  0
 51124  1  0  0  0
 52125  1  0  0  0
 52126  1  0  0  0
 53 54  1  0  0  0
 54 55  2  0  0  0
 54127  1  0  0  0
 55 57  1  0  0  0
 55128  1  0  0  0
 56 69  2  0  0  0
 57 58  2  0  0  0
 57129  1  0  0  0
 58130  1  0  0  0
 59 60  1  0  0  0
 59 61  1  0  0  0
 59 62  1  0  0  0
 60131  1  0  0  0
 60132  1  0  0  0
 60133  1  0  0  0
 61134  1  0  0  0
 61135  1  0  0  0
 61136  1  0  0  0
 62137  1  0  0  0
 62138  1  0  0  0
 62139  1  0  0  0
 63 65  1  0  0  0
 63140  1  0  0  0
 63141  1  0  0  0
 63142  1  0  0  0
 64143  1  0  0  0
 65144  1  0  0  0
 68 79  1  0  0  0
 71 73  2  0  0  0
 71 74  1  0  0  0
 71145  1  0  0  0
 72 74  2  0  0  0
 72 75  1  0  0  0
 72146  1  0  0  0
 73 82  1  0  0  0
 73147  1  0  0  0
 74 83  1  0  0  0
 75 82  2  0  0  0
 75 84  1  0  0  0
 76148  1  0  0  0
 76149  1  0  0  0
 76150  1  0  0  0
 76 80  1  0  0  0
 77 79  1  0  0  0
 77 81  1  0  0  0
 77151  1  0  0  0
 77152  1  0  0  0
 78 80  1  0  0  0
 78 81  1  0  0  0
 78153  1  0  0  0
 78154  1  0  0  0
 79155  1  0  0  0
 79156  1  0  0  0
 80 83  1  0  0  0
 80157  1  0  0  0
 81 85  1  0  0  0
 81158  1  0  0  0
 82159  1  0  0  0
 83160  1  0  0  0
 84161  1  0  0  0
 85162  1  0  0  0
M  CHG  1  82   1
M  ISO  4   1 100  68 101  79 101  84 100
M  END
> <chiral flag>
0

> <version>
0

> <s_m_source_file>
/data/baiqing/PycharmProjects/Reinvent-master-3.2/result/LINK_invent/BTK/process_docking_weight1_custom_product_contain_oxygen_bond_distance_aromatic_linkinvent_7_9_3/rearranged_h_0193.sdf

> <i_m_source_file_index>
84

> <r_mmod_Potential_Energy-OPLS-2005>
3.41869139671326

> <r_mmod_Stretch_Energy-OPLS-2005>
41.0644378662109

> <r_mmod_Bend_Energy-OPLS-2005>
114.919769287109

> <r_mmod_Torsional_Energy-OPLS-2005>
226.34814453125

> <r_mmod_Improper_Torsional_Energy-OPLS-2005>
7.38245439529419

> <r_mmod_Van_der_Waal_Energy-OPLS-2005>
160.975006103516

> <r_mmod_Electrostatic_Energy-OPLS-2005>
-133.804534912109

> <r_mmod_Solvation_Energy-OPLS-2005>
-426.638732910156

> <b_mmod_Minimization_Converged-OPLS-2005>
0

> <r_mmod_RMS_Derivative-OPLS-2005>
3.19883155822754

$$$$
84
                    3D
 Structure written by MMmdl.
150158  0  0  1  0            999 V2000
  -30.6782  -14.5321   20.5716 C   0  0  0  0  0  0
  -30.4262  -12.3430   19.4362 C   0  0  0  0  0  0
  -29.5028  -12.5077   18.2105 C   0  0  0  0  0  0
  -28.0207  -12.3671   18.6157 C   0  0  0  0  0  0
  -27.6560  -13.2154   19.8639 C   0  0  2  0  0  0
  -28.6945  -13.0251   20.9902 C   0  0  0  0  0  0
  -25.2553  -13.8187   20.5638 C   0  0  0  0  0  0
  -24.1819  -13.0453   20.9154 C   0  0  0  0  0  0
  -24.6390  -11.6931   20.8712 C   0  0  0  0  0  0
  -23.9075  -10.4304   21.0396 C   0  0  0  0  0  0
  -24.3633   -9.4214   21.9169 C   0  0  0  0  0  0
  -23.6298   -8.2255   22.0757 C   0  0  0  0  0  0
  -22.4279   -8.0293   21.3553 C   0  0  0  0  0  0
  -21.9910   -9.0270   20.4666 C   0  0  0  0  0  0
  -22.7246  -10.2138   20.3051 C   0  0  0  0  0  0
  -21.6854   -6.0742   22.5280 C   0  0  0  0  0  0
  -21.4028   -6.5643   23.8217 C   0  0  0  0  0  0
  -21.3651   -5.6788   24.9174 C   0  0  0  0  0  0
  -21.6044   -4.3054   24.7219 C   0  0  0  0  0  0
  -21.8817   -3.8148   23.4336 C   0  0  0  0  0  0
  -21.9190   -4.6972   22.3400 C   0  0  0  0  0  0
  -22.7839  -13.5240   21.1823 C   0  0  0  0  0  0
  -22.1648   -4.2151   21.0978 F   0  0  0  0  0  0
  -21.5628   -3.4539   25.7733 F   0  0  0  0  0  0
  -30.0182  -13.3455   20.4354 N   0  0  0  0  0  0
  -26.2991  -12.9369   20.3283 N   0  0  0  0  0  0
  -25.9315  -11.6532   20.5734 N   0  0  0  0  0  0
  -22.0476  -12.8260   22.0399 N   0  0  0  0  0  0
  -25.4269  -15.1909   20.4047 N   0  0  0  0  0  0
  -31.8181  -14.7032   20.1338 O   0  0  0  0  0  0
  -21.6642   -6.8886   21.4242 O   0  0  0  0  0  0
  -22.3528  -14.5536   20.6655 O   0  0  0  0  0  0
  -24.6210  -31.8645   23.2044 C   0  0  0  0  0  0
  -25.9081  -32.4796   23.8358 C   0  0  1  0  0  0
  -27.2310  -27.3792   20.1024 C   0  0  0  0  0  0
  -25.5917  -33.8598   24.2287 N   0  0  0  0  0  0
  -23.4093  -30.4886   21.5457 C   0  0  2  0  0  0
  -24.8525  -28.9463   20.1131 C   0  0  0  0  0  0
  -22.7435  -29.4658   22.4954 C   0  0  0  0  0  0
  -18.0278  -28.1394   22.8482 C   0  0  0  0  0  0
  -24.1485  -36.7299   23.2641 C   0  0  0  0  0  0
  -25.9428  -30.8142   21.3631 C   0  0  0  0  0  0
  -26.0157  -29.4444   20.7107 C   0  0  0  0  0  0
  -27.2038  -28.6698   20.6988 C   0  0  0  0  0  0
  -26.0363  -26.9031   19.5116 C   0  0  0  0  0  0
  -24.8610  -27.6779   19.5111 C   0  0  0  0  0  0
  -23.6183  -29.8201   20.1611 C   0  0  0  0  0  0
  -25.4112  -36.3093   24.0331 C   0  0  1  0  0  0
  -20.5873  -28.3693   23.1291 C   0  0  2  0  0  0
  -20.6767  -26.9421   22.5420 C   0  0  0  0  0  0
  -19.5748  -26.6386   21.5214 C   0  0  0  0  0  0
  -18.1923  -26.7934   22.1622 C   0  0  0  0  0  0
  -19.1532  -28.8858   23.2883 C   0  0  0  0  0  0
  -18.9462  -30.1461   23.8902 C   0  0  0  0  0  0
  -17.6466  -30.6599   24.0571 C   0  0  0  0  0  0
  -25.9052  -34.9463   23.5107 C   0  0  0  0  0  0
  -16.5355  -29.9104   23.6329 C   0  0  0  0  0  0
  -16.7271  -28.6522   23.0346 C   0  0  0  0  0  0
  -26.4498  -31.6597   25.0705 C   0  0  0  0  0  0
  -25.3753  -31.3721   26.1446 C   0  0  0  0  0  0
  -27.0350  -30.3036   24.6117 C   0  0  0  0  0  0
  -27.6067  -32.4335   25.7466 C   0  0  0  0  0  0
  -27.5579  -37.1799   24.8468 C   0  0  0  0  0  0
  -21.4160  -29.3047   22.3685 N   0  0  0  0  0  0
  -26.4289  -37.3787   23.9417 N   0  0  0  0  0  0
  -24.6762  -31.0718   22.0951 N   0  0  0  0  0  0
  -23.4184  -28.8215   23.3029 O   0  0  0  0  0  0
  -28.4141  -26.6457   20.1296 O   0  0  0  0  0  0
  -26.5620  -34.8927   22.4672 O   0  0  0  0  0  0
  -23.5390  -32.1418   23.7414 O   0  0  0  0  0  0
  -29.6634  -18.1117   20.8465 C   0  0  0  0  0  0
  -29.0644  -20.2725   20.6696 C   0  0  0  0  0  0
  -30.4646  -16.9184   21.4093 C   0  0  0  0  0  0
  -28.5576  -24.1338   20.6308 C   0  0  0  0  0  0
  -28.7289  -22.6896   20.0329 C   0  0  0  0  0  0
  -28.5200  -25.2999   19.5838 C   0  0  0  0  0  0
  -29.7976  -19.3751   21.3394 N   0  0  0  0  0  0
  -28.7985  -17.9877   19.8161 N   0  0  0  0  0  0
  -29.0735  -21.6431   21.0198 N   0  0  0  0  0  0
  -29.9709  -15.5522   21.1070 N   0  0  0  0  0  0
  -28.1576  -19.5088   19.3972 S   0  0  0  0  0  0
  -31.4718  -12.4475   19.1418 H   0  0  0  0  0  0
  -30.3335  -11.3401   19.8542 H   0  0  0  0  0  0
  -29.7551  -11.7690   17.4483 H   0  0  0  0  0  0
  -29.6686  -13.4856   17.7547 H   0  0  0  0  0  0
  -27.8292  -11.3117   18.8157 H   0  0  0  0  0  0
  -27.3776  -12.6376   17.7772 H   0  0  0  0  0  0
  -27.6919  -14.2602   19.5522 H   0  0  0  0  0  0
  -28.6792  -11.9960   21.3508 H   0  0  0  0  0  0
  -28.4458  -13.6396   21.8560 H   0  0  0  0  0  0
  -25.2786   -9.5689   22.4737 H   0  0  0  0  0  0
  -24.0004   -7.4651   22.7487 H   0  0  0  0  0  0
  -21.0828   -8.8813   19.8976 H   0  0  0  0  0  0
  -22.3716  -10.9688   19.6163 H   0  0  0  0  0  0
  -21.2033   -7.6152   23.9725 H   0  0  0  0  0  0
  -21.1470   -6.0516   25.9074 H   0  0  0  0  0  0
  -22.0601   -2.7615   23.2844 H   0  0  0  0  0  0
  -22.4080  -11.9941   22.4829 H   0  0  0  0  0  0
  -21.1104  -13.1329   22.2594 H   0  0  0  0  0  0
  -24.6625  -15.8475   20.5182 H   0  0  0  0  0  0
  -26.2771  -15.6330   20.0803 H   0  0  0  0  0  0
  -26.7147  -32.5492   23.1116 H   0  0  0  0  0  0
  -25.0059  -33.9749   25.0426 H   0  0  0  0  0  0
  -22.6993  -31.3069   21.4053 H   0  0  0  0  0  0
  -23.3744  -35.9636   23.3311 H   0  0  0  0  0  0
  -24.3578  -36.8912   22.2055 H   0  0  0  0  0  0
  -23.7240  -37.6504   23.6661 H   0  0  0  0  0  0
  -26.0629  -31.5771   20.5923 H   0  0  0  0  0  0
  -26.8275  -30.8673   21.9855 H   0  0  0  0  0  0
  -28.1020  -29.0546   21.1612 H   0  0  0  0  0  0
  -25.9660  -25.9285   19.0554 H   0  0  0  0  0  0
  -23.9631  -27.2861   19.0533 H   0  0  0  0  0  0
  -23.7302  -30.5938   19.3998 H   0  0  0  0  0  0
  -22.7394  -29.2441   19.8663 H   0  0  0  0  0  0
  -25.1288  -36.1945   25.0823 H   0  0  0  0  0  0
  -20.9971  -28.3282   24.1413 H   0  0  0  0  0  0
  -20.5670  -26.2315   23.3625 H   0  0  0  0  0  0
  -21.6643  -26.7454   22.1220 H   0  0  0  0  0  0
  -19.6913  -25.6295   21.1255 H   0  0  0  0  0  0
  -19.6687  -27.3190   20.6741 H   0  0  0  0  0  0
  -17.4197  -26.6681   21.4020 H   0  0  0  0  0  0
  -18.0322  -26.0086   22.9023 H   0  0  0  0  0  0
  -19.7947  -30.7267   24.2273 H   0  0  0  0  0  0
  -17.5034  -31.6278   24.5174 H   0  0  0  0  0  0
  -15.5361  -30.3018   23.7653 H   0  0  0  0  0  0
  -15.8666  -28.0852   22.7053 H   0  0  0  0  0  0
  -24.5900  -30.7107   25.7764 H   0  0  0  0  0  0
  -24.8984  -32.2894   26.4914 H   0  0  0  0  0  0
  -25.8089  -30.8853   27.0190 H   0  0  0  0  0  0
  -26.2904  -29.6762   24.1198 H   0  0  0  0  0  0
  -27.4144  -29.7312   25.4590 H   0  0  0  0  0  0
  -27.8726  -30.4347   23.9261 H   0  0  0  0  0  0
  -27.2674  -33.3620   26.2072 H   0  0  0  0  0  0
  -28.3855  -32.6923   25.0279 H   0  0  0  0  0  0
  -28.0769  -31.8450   26.5356 H   0  0  0  0  0  0
  -28.2601  -38.0091   24.7514 H   0  0  0  0  0  0
  -28.1064  -36.2623   24.6285 H   0  0  0  0  0  0
  -27.2302  -37.1443   25.8871 H   0  0  0  0  0  0
  -20.9338  -29.8752   21.6880 H   0  0  0  0  0  0
  -26.0167  -38.2859   24.1426 H   0  0  0  0  0  0
  -30.4898  -17.0175   22.4956 H   0  0  0  0  0  0
  -31.4960  -17.0383   21.0789 H   0  0  0  0  0  0
  -29.3789  -24.3354   21.3196 H   0  0  0  0  0  0
  -27.6485  -24.1692   21.2316 H   0  0  0  0  0  0
  -29.5179  -22.7044   19.2796 H   0  0  0  0  0  0
  -27.8133  -22.4119   19.5074 H   0  0  0  0  0  0
  -27.8051  -25.0890   18.7918 H   0  0  0  0  0  0
  -29.4771  -25.2853   19.0633 H   0  0  0  0  0  0
  -29.7268  -21.9039   21.7536 H   0  0  0  0  0  0
  -29.0165  -15.3578   21.3678 H   0  0  0  0  0  0
  1 25  1  0  0  0
  1 30  2  0  0  0
  1 80  1  0  0  0
  2  3  1  0  0  0
  2 25  1  0  0  0
  2 82  1  0  0  0
  2 83  1  0  0  0
  3  4  1  0  0  0
  3 84  1  0  0  0
  3 85  1  0  0  0
  4  5  1  0  0  0
  4 86  1  0  0  0
  4 87  1  0  0  0
  5  6  1  0  0  0
  5 26  1  0  0  0
  5 88  1  0  0  0
  6 25  1  0  0  0
  6 89  1  0  0  0
  6 90  1  0  0  0
  7  8  2  0  0  0
  7 26  1  0  0  0
  7 29  1  0  0  0
  8  9  1  0  0  0
  8 22  1  0  0  0
  9 10  1  0  0  0
  9 27  2  0  0  0
 10 11  2  0  0  0
 10 15  1  0  0  0
 11 12  1  0  0  0
 11 91  1  0  0  0
 12 13  2  0  0  0
 12 92  1  0  0  0
 13 14  1  0  0  0
 13 31  1  0  0  0
 14 15  2  0  0  0
 14 93  1  0  0  0
 15 94  1  0  0  0
 16 17  2  0  0  0
 16 21  1  0  0  0
 16 31  1  0  0  0
 17 18  1  0  0  0
 17 95  1  0  0  0
 18 19  2  0  0  0
 18 96  1  0  0  0
 19 20  1  0  0  0
 19 24  1  0  0  0
 20 21  2  0  0  0
 20 97  1  0  0  0
 21 23  1  0  0  0
 22 28  1  0  0  0
 22 32  2  0  0  0
 26 27  1  0  0  0
 28 98  1  0  0  0
 28 99  1  0  0  0
 29100  1  0  0  0
 29101  1  0  0  0
 33 34  1  0  0  0
 33 66  1  0  0  0
 33 70  2  0  0  0
 34 36  1  0  0  0
 34 59  1  0  0  0
 34102  1  0  0  0
 35 44  2  0  0  0
 35 45  1  0  0  0
 35 68  1  0  0  0
 36 56  1  0  0  0
 36103  1  0  0  0
 37 39  1  0  0  0
 37 47  1  0  0  0
 37 66  1  0  0  0
 37104  1  0  0  0
 38 43  2  0  0  0
 38 46  1  0  0  0
 38 47  1  0  0  0
 39 64  1  0  0  0
 39 67  2  0  0  0
 40 52  1  0  0  0
 40 53  2  0  0  0
 40 58  1  0  0  0
 41105  1  0  0  0
 41106  1  0  0  0
 41107  1  0  0  0
 41 48  1  0  0  0
 42 43  1  0  0  0
 42 66  1  0  0  0
 42108  1  0  0  0
 42109  1  0  0  0
 43 44  1  0  0  0
 44110  1  0  0  0
 45 46  2  0  0  0
 45111  1  0  0  0
 46112  1  0  0  0
 47113  1  0  0  0
 47114  1  0  0  0
 48 56  1  0  0  0
 48 65  1  0  0  0
 48115  1  0  0  0
 49 50  1  0  0  0
 49 53  1  0  0  0
 49 64  1  0  0  0
 49116  1  0  0  0
 50 51  1  0  0  0
 50117  1  0  0  0
 50118  1  0  0  0
 51 52  1  0  0  0
 51119  1  0  0  0
 51120  1  0  0  0
 52121  1  0  0  0
 52122  1  0  0  0
 53 54  1  0  0  0
 54 55  2  0  0  0
 54123  1  0  0  0
 55 57  1  0  0  0
 55124  1  0  0  0
 56 69  2  0  0  0
 57 58  2  0  0  0
 57125  1  0  0  0
 58126  1  0  0  0
 59 60  1  0  0  0
 59 61  1  0  0  0
 59 62  1  0  0  0
 60127  1  0  0  0
 60128  1  0  0  0
 60129  1  0  0  0
 61130  1  0  0  0
 61131  1  0  0  0
 61132  1  0  0  0
 62133  1  0  0  0
 62134  1  0  0  0
 62135  1  0  0  0
 63 65  1  0  0  0
 63136  1  0  0  0
 63137  1  0  0  0
 63138  1  0  0  0
 64139  1  0  0  0
 65140  1  0  0  0
 68 76  1  0  0  0
 71 73  1  0  0  0
 71 77  1  0  0  0
 71 78  2  0  0  0
 72 77  2  0  0  0
 72 79  1  0  0  0
 72 81  1  0  0  0
 73 80  1  0  0  0
 73141  1  0  0  0
 73142  1  0  0  0
 74 75  1  0  0  0
 74 76  1  0  0  0
 74143  1  0  0  0
 74144  1  0  0  0
 75 79  1  0  0  0
 75145  1  0  0  0
 75146  1  0  0  0
 76147  1  0  0  0
 76148  1  0  0  0
 78 81  1  0  0  0
 79149  1  0  0  0
 80150  1  0  0  0
M  ISO  4   1 100  68 101  76 101  80 100
M  END
> <chiral flag>
0

> <version>
0

> <s_m_source_file>
/data/baiqing/PycharmProjects/Reinvent-master-3.2/result/LINK_invent/BTK/process_docking_weight1_custom_product_contain_oxygen_bond_distance_aromatic_linkinvent_7_9_3/rearranged_h_0193.sdf

> <i_m_source_file_index>
85

> <r_mmod_Potential_Energy-OPLS-2005>
-196.400909423828

> <r_mmod_Stretch_Energy-OPLS-2005>
49.3252906799316

> <r_mmod_Bend_Energy-OPLS-2005>
139.638092041016

> <r_mmod_Torsional_Energy-OPLS-2005>
179.970520019531

> <r_mmod_Improper_Torsional_Energy-OPLS-2005>
4.62385129928589

> <r_mmod_Van_der_Waal_Energy-OPLS-2005>
125.591461181641

> <r_mmod_Electrostatic_Energy-OPLS-2005>
-489.460815429688

> <r_mmod_Solvation_Energy-OPLS-2005>
-227.889526367188

> <b_mmod_Minimization_Converged-OPLS-2005>
0

> <r_mmod_RMS_Derivative-OPLS-2005>
2.0770890712738

$$$$
85
                    3D
 Structure written by MMmdl.
174182  0  0  1  0            999 V2000
  -30.7128  -14.5431   20.4845 C   0  0  0  0  0  0
  -30.4171  -12.3232   19.4617 C   0  0  0  0  0  0
  -29.5033  -12.4644   18.2291 C   0  0  0  0  0  0
  -28.0287  -12.3196   18.6450 C   0  0  0  0  0  0
  -27.6536  -13.2146   19.8558 C   0  0  2  0  0  0
  -28.6954  -13.1025   20.9925 C   0  0  0  0  0  0
  -25.2544  -13.8165   20.5596 C   0  0  0  0  0  0
  -24.1833  -13.0451   20.9191 C   0  0  0  0  0  0
  -24.6413  -11.6910   20.8768 C   0  0  0  0  0  0
  -23.9073  -10.4298   21.0444 C   0  0  0  0  0  0
  -24.3614   -9.4198   21.9211 C   0  0  0  0  0  0
  -23.6273   -8.2242   22.0778 C   0  0  0  0  0  0
  -22.4265   -8.0280   21.3554 C   0  0  0  0  0  0
  -21.9911   -9.0270   20.4663 C   0  0  0  0  0  0
  -22.7256  -10.2144   20.3075 C   0  0  0  0  0  0
  -21.6851   -6.0717   22.5291 C   0  0  0  0  0  0
  -21.4003   -6.5618   23.8215 C   0  0  0  0  0  0
  -21.3661   -5.6770   24.9183 C   0  0  0  0  0  0
  -21.6051   -4.3034   24.7243 C   0  0  0  0  0  0
  -21.8812   -3.8127   23.4359 C   0  0  0  0  0  0
  -21.9172   -4.6942   22.3405 C   0  0  0  0  0  0
  -22.7851  -13.5244   21.1839 C   0  0  0  0  0  0
  -22.1642   -4.2122   21.0987 F   0  0  0  0  0  0
  -21.5655   -3.4525   25.7756 F   0  0  0  0  0  0
  -30.0196  -13.3727   20.4184 N   0  0  0  0  0  0
  -26.2999  -12.9350   20.3308 N   0  0  0  0  0  0
  -25.9337  -11.6528   20.5817 N   0  0  0  0  0  0
  -22.0466  -12.8266   22.0390 N   0  0  0  0  0  0
  -25.4195  -15.1872   20.3797 N   0  0  0  0  0  0
  -31.8854  -14.6218   20.1143 O   0  0  0  0  0  0
  -21.6637   -6.8873   21.4247 O   0  0  0  0  0  0
  -22.3571  -14.5563   20.6675 O   0  0  0  0  0  0
  -24.6213  -31.8653   23.2066 C   0  0  0  0  0  0
  -25.9075  -32.4814   23.8390 C   0  0  1  0  0  0
  -27.2128  -27.3699   20.1055 C   0  0  0  0  0  0
  -25.5917  -33.8610   24.2317 N   0  0  0  0  0  0
  -23.4144  -30.4907   21.5490 C   0  0  2  0  0  0
  -24.8581  -28.9518   20.1124 C   0  0  0  0  0  0
  -22.7457  -29.4646   22.4942 C   0  0  0  0  0  0
  -18.0287  -28.1360   22.8489 C   0  0  0  0  0  0
  -24.1489  -36.7307   23.2646 C   0  0  0  0  0  0
  -25.9522  -30.8102   21.3718 C   0  0  0  0  0  0
  -26.0259  -29.4429   20.7120 C   0  0  0  0  0  0
  -27.2117  -28.6620   20.6997 C   0  0  0  0  0  0
  -26.0338  -26.9139   19.4854 C   0  0  0  0  0  0
  -24.8589  -27.6914   19.4931 C   0  0  0  0  0  0
  -23.6236  -29.8252   20.1650 C   0  0  0  0  0  0
  -25.4119  -36.3106   24.0341 C   0  0  1  0  0  0
  -20.5871  -28.3697   23.1277 C   0  0  2  0  0  0
  -20.6807  -26.9400   22.5435 C   0  0  0  0  0  0
  -19.5732  -26.6242   21.5308 C   0  0  0  0  0  0
  -18.1939  -26.7847   22.1762 C   0  0  0  0  0  0
  -19.1538  -28.8854   23.2837 C   0  0  0  0  0  0
  -18.9454  -30.1505   23.8743 C   0  0  0  0  0  0
  -17.6454  -30.6626   24.0440 C   0  0  0  0  0  0
  -25.9056  -34.9466   23.5130 C   0  0  0  0  0  0
  -16.5360  -29.9067   23.6291 C   0  0  0  0  0  0
  -16.7266  -28.6475   23.0327 C   0  0  0  0  0  0
  -26.4471  -31.6619   25.0754 C   0  0  0  0  0  0
  -25.3701  -31.3760   26.1468 C   0  0  0  0  0  0
  -27.0310  -30.3043   24.6210 C   0  0  0  0  0  0
  -27.6064  -32.4337   25.7504 C   0  0  0  0  0  0
  -27.5586  -37.1811   24.8472 C   0  0  0  0  0  0
  -21.4166  -29.3055   22.3695 N   0  0  0  0  0  0
  -26.4304  -37.3791   23.9412 N   0  0  0  0  0  0
  -24.6825  -31.0678   22.1024 N   0  0  0  0  0  0
  -23.4224  -28.8172   23.2977 O   0  0  0  0  0  0
  -28.3161  -26.5280   20.1287 O   0  0  0  0  0  0
  -26.5610  -34.8941   22.4691 O   0  0  0  0  0  0
  -23.5386  -32.1434   23.7413 O   0  0  0  0  0  0
  -29.8551  -18.2997   20.7992 C   0  0  0  0  0  0
  -29.5976  -18.7878   22.0633 C   0  0  0  0  0  0
  -29.0706  -20.4195   20.2665 C   0  0  0  0  0  0
  -26.6375  -22.5347   20.2219 C   0  0  0  0  0  0
  -31.1490  -19.8444   24.5496 C   0  0  0  0  0  0
  -28.7235  -16.8984   25.5839 C   0  0  0  0  0  0
  -31.1970  -17.1567   25.9746 C   0  0  0  0  0  0
  -29.5644  -18.7251   27.0388 C   0  0  0  0  0  0
  -30.6125  -17.0175   20.4479 C   0  0  0  0  0  0
  -28.8272  -23.9545   20.4361 C   0  0  0  0  0  0
  -28.0966  -25.2878   20.8679 C   0  0  0  0  0  0
  -28.0372  -22.8313   19.6581 C   0  0  1  0  0  0
  -29.9313  -18.8911   24.5378 C   0  0  2  0  0  0
  -29.8704  -17.9209   25.7615 C   0  0  0  0  0  0
  -29.5503  -19.2538   19.7948 N   0  0  0  0  0  0
  -29.8902  -18.1567   23.2782 N   0  0  0  0  0  0
  -28.7705  -21.5519   19.4845 N   0  0  0  0  0  0
  -30.0200  -15.6814   20.7378 N   0  0  0  0  0  0
  -28.8768  -20.3938   22.0075 S   0  0  0  0  0  0
  -31.4680  -12.3856   19.1702 H   0  0  0  0  0  0
  -30.2977  -11.3381   19.9141 H   0  0  0  0  0  0
  -29.7579  -11.7098   17.4860 H   0  0  0  0  0  0
  -29.6648  -13.4314   17.7525 H   0  0  0  0  0  0
  -27.8649  -11.2716   18.9000 H   0  0  0  0  0  0
  -27.3749  -12.5269   17.8007 H   0  0  0  0  0  0
  -27.6667  -14.2412   19.4910 H   0  0  0  0  0  0
  -28.6781  -12.1066   21.4343 H   0  0  0  0  0  0
  -28.4612  -13.7953   21.8027 H   0  0  0  0  0  0
  -25.2759   -9.5653   22.4795 H   0  0  0  0  0  0
  -23.9956   -7.4611   22.7495 H   0  0  0  0  0  0
  -21.0835   -8.8785   19.8971 H   0  0  0  0  0  0
  -22.3708  -10.9676   19.6178 H   0  0  0  0  0  0
  -21.2004   -7.6125   23.9719 H   0  0  0  0  0  0
  -21.1495   -6.0508   25.9083 H   0  0  0  0  0  0
  -22.0590   -2.7594   23.2873 H   0  0  0  0  0  0
  -22.4015  -11.9891   22.4770 H   0  0  0  0  0  0
  -21.1116  -13.1354   22.2615 H   0  0  0  0  0  0
  -24.6320  -15.8249   20.4338 H   0  0  0  0  0  0
  -26.2430  -15.6164   19.9782 H   0  0  0  0  0  0
  -26.7148  -32.5510   23.1146 H   0  0  0  0  0  0
  -25.0040  -33.9768   25.0440 H   0  0  0  0  0  0
  -22.7138  -31.3166   21.4149 H   0  0  0  0  0  0
  -23.3770  -35.9623   23.3324 H   0  0  0  0  0  0
  -24.3588  -36.8905   22.2061 H   0  0  0  0  0  0
  -23.7225  -37.6518   23.6634 H   0  0  0  0  0  0
  -26.0828  -31.5783   20.6082 H   0  0  0  0  0  0
  -26.8347  -30.8535   21.9990 H   0  0  0  0  0  0
  -28.1110  -29.0341   21.1680 H   0  0  0  0  0  0
  -26.0152  -25.9408   19.0124 H   0  0  0  0  0  0
  -23.9592  -27.3097   19.0288 H   0  0  0  0  0  0
  -23.7386  -30.6055   19.4138 H   0  0  0  0  0  0
  -22.7431  -29.2523   19.8588 H   0  0  0  0  0  0
  -25.1283  -36.1981   25.0829 H   0  0  0  0  0  0
  -20.9964  -28.3307   24.1397 H   0  0  0  0  0  0
  -21.6691  -26.7429   22.1264 H   0  0  0  0  0  0
  -20.5763  -26.2347   23.3701 H   0  0  0  0  0  0
  -19.6919  -25.6074   21.1498 H   0  0  0  0  0  0
  -19.6608  -27.2887   20.6711 H   0  0  0  0  0  0
  -17.4170  -26.6420   21.4248 H   0  0  0  0  0  0
  -18.0406  -26.0077   22.9273 H   0  0  0  0  0  0
  -19.7928  -30.7373   24.1986 H   0  0  0  0  0  0
  -17.5009  -31.6354   24.4943 H   0  0  0  0  0  0
  -15.5361  -30.2957   23.7649 H   0  0  0  0  0  0
  -15.8634  -28.0781   22.7103 H   0  0  0  0  0  0
  -24.5857  -30.7143   25.7763 H   0  0  0  0  0  0
  -24.8922  -32.2939   26.4895 H   0  0  0  0  0  0
  -25.7990  -30.8900   27.0238 H   0  0  0  0  0  0
  -26.2878  -29.6807   24.1213 H   0  0  0  0  0  0
  -27.3994  -29.7275   25.4717 H   0  0  0  0  0  0
  -27.8750  -30.4382   23.9445 H   0  0  0  0  0  0
  -27.2700  -33.3630   26.2114 H   0  0  0  0  0  0
  -28.3819  -32.6902   25.0275 H   0  0  0  0  0  0
  -28.0776  -31.8440   26.5379 H   0  0  0  0  0  0
  -28.2603  -38.0106   24.7488 H   0  0  0  0  0  0
  -28.1066  -36.2624   24.6295 H   0  0  0  0  0  0
  -27.2300  -37.1459   25.8878 H   0  0  0  0  0  0
  -20.9346  -29.8775   21.6920 H   0  0  0  0  0  0
  -26.0195  -38.2876   24.1395 H   0  0  0  0  0  0
  -25.9761  -23.3957   20.1465 H   0  0  0  0  0  0
  -26.6720  -22.2385   21.2691 H   0  0  0  0  0  0
  -26.1462  -21.7351   19.6621 H   0  0  0  0  0  0
  -31.2515  -20.3682   25.4975 H   0  0  0  0  0  0
  -31.0744  -20.6124   23.7822 H   0  0  0  0  0  0
  -32.0835  -19.3122   24.3734 H   0  0  0  0  0  0
  -28.5747  -16.3020   26.4833 H   0  0  0  0  0  0
  -28.9168  -16.1915   24.7760 H   0  0  0  0  0  0
  -27.7758  -17.3933   25.3640 H   0  0  0  0  0  0
  -31.1428  -16.5137   26.8535 H   0  0  0  0  0  0
  -32.0304  -17.8402   26.1377 H   0  0  0  0  0  0
  -31.4564  -16.5248   25.1247 H   0  0  0  0  0  0
  -29.4711  -18.0698   27.9051 H   0  0  0  0  0  0
  -28.6283  -19.2758   26.9450 H   0  0  0  0  0  0
  -30.3435  -19.4492   27.2727 H   0  0  0  0  0  0
  -31.5639  -17.0546   20.9867 H   0  0  0  0  0  0
  -30.8896  -17.0417   19.3922 H   0  0  0  0  0  0
  -29.1751  -23.4893   21.3595 H   0  0  0  0  0  0
  -29.7350  -24.2113   19.8900 H   0  0  0  0  0  0
  -28.4603  -25.5274   21.8693 H   0  0  0  0  0  0
  -27.0395  -25.0899   21.0364 H   0  0  0  0  0  0
  -27.8777  -23.2086   18.6461 H   0  0  0  0  0  0
  -29.0258  -19.5000   24.5808 H   0  0  0  0  0  0
  -30.0632  -17.1594   23.3381 H   0  0  0  0  0  0
  -29.0098  -21.3854   18.5105 H   0  0  0  0  0  0
  -29.0479  -15.6256   20.9956 H   0  0  0  0  0  0
  1 25  1  0  0  0
  1 30  2  0  0  0
  1 88  1  0  0  0
  2  3  1  0  0  0
  2 25  1  0  0  0
  2 90  1  0  0  0
  2 91  1  0  0  0
  3  4  1  0  0  0
  3 92  1  0  0  0
  3 93  1  0  0  0
  4  5  1  0  0  0
  4 94  1  0  0  0
  4 95  1  0  0  0
  5  6  1  0  0  0
  5 26  1  0  0  0
  5 96  1  0  0  0
  6 25  1  0  0  0
  6 97  1  0  0  0
  6 98  1  0  0  0
  7  8  2  0  0  0
  7 26  1  0  0  0
  7 29  1  0  0  0
  8  9  1  0  0  0
  8 22  1  0  0  0
  9 10  1  0  0  0
  9 27  2  0  0  0
 10 11  2  0  0  0
 10 15  1  0  0  0
 11 12  1  0  0  0
 11 99  1  0  0  0
 12 13  2  0  0  0
 12100  1  0  0  0
 13 14  1  0  0  0
 13 31  1  0  0  0
 14 15  2  0  0  0
 14101  1  0  0  0
 15102  1  0  0  0
 16 17  2  0  0  0
 16 21  1  0  0  0
 16 31  1  0  0  0
 17 18  1  0  0  0
 17103  1  0  0  0
 18 19  2  0  0  0
 18104  1  0  0  0
 19 20  1  0  0  0
 19 24  1  0  0  0
 20 21  2  0  0  0
 20105  1  0  0  0
 21 23  1  0  0  0
 22 28  1  0  0  0
 22 32  2  0  0  0
 26 27  1  0  0  0
 28106  1  0  0  0
 28107  1  0  0  0
 29108  1  0  0  0
 29109  1  0  0  0
 33 34  1  0  0  0
 33 66  1  0  0  0
 33 70  2  0  0  0
 34 36  1  0  0  0
 34 59  1  0  0  0
 34110  1  0  0  0
 35 44  2  0  0  0
 35 45  1  0  0  0
 35 68  1  0  0  0
 36 56  1  0  0  0
 36111  1  0  0  0
 37 39  1  0  0  0
 37 47  1  0  0  0
 37 66  1  0  0  0
 37112  1  0  0  0
 38 43  2  0  0  0
 38 46  1  0  0  0
 38 47  1  0  0  0
 39 64  1  0  0  0
 39 67  2  0  0  0
 40 52  1  0  0  0
 40 53  2  0  0  0
 40 58  1  0  0  0
 41113  1  0  0  0
 41114  1  0  0  0
 41115  1  0  0  0
 41 48  1  0  0  0
 42 43  1  0  0  0
 42 66  1  0  0  0
 42116  1  0  0  0
 42117  1  0  0  0
 43 44  1  0  0  0
 44118  1  0  0  0
 45 46  2  0  0  0
 45119  1  0  0  0
 46120  1  0  0  0
 47121  1  0  0  0
 47122  1  0  0  0
 48 56  1  0  0  0
 48 65  1  0  0  0
 48123  1  0  0  0
 49 50  1  0  0  0
 49 53  1  0  0  0
 49 64  1  0  0  0
 49124  1  0  0  0
 50 51  1  0  0  0
 50125  1  0  0  0
 50126  1  0  0  0
 51 52  1  0  0  0
 51127  1  0  0  0
 51128  1  0  0  0
 52129  1  0  0  0
 52130  1  0  0  0
 53 54  1  0  0  0
 54 55  2  0  0  0
 54131  1  0  0  0
 55 57  1  0  0  0
 55132  1  0  0  0
 56 69  2  0  0  0
 57 58  2  0  0  0
 57133  1  0  0  0
 58134  1  0  0  0
 59 60  1  0  0  0
 59 61  1  0  0  0
 59 62  1  0  0  0
 60135  1  0  0  0
 60136  1  0  0  0
 60137  1  0  0  0
 61138  1  0  0  0
 61139  1  0  0  0
 61140  1  0  0  0
 62141  1  0  0  0
 62142  1  0  0  0
 62143  1  0  0  0
 63 65  1  0  0  0
 63144  1  0  0  0
 63145  1  0  0  0
 63146  1  0  0  0
 64147  1  0  0  0
 65148  1  0  0  0
 68 81  1  0  0  0
 71 72  2  0  0  0
 71 79  1  0  0  0
 71 85  1  0  0  0
 72 86  1  0  0  0
 72 89  1  0  0  0
 73 85  2  0  0  0
 73 87  1  0  0  0
 73 89  1  0  0  0
 74149  1  0  0  0
 74150  1  0  0  0
 74151  1  0  0  0
 74 82  1  0  0  0
 75152  1  0  0  0
 75153  1  0  0  0
 75154  1  0  0  0
 75 83  1  0  0  0
 76155  1  0  0  0
 76156  1  0  0  0
 76157  1  0  0  0
 76 84  1  0  0  0
 77 84  1  0  0  0
 77158  1  0  0  0
 77159  1  0  0  0
 77160  1  0  0  0
 78 84  1  0  0  0
 78161  1  0  0  0
 78162  1  0  0  0
 78163  1  0  0  0
 79 88  1  0  0  0
 79164  1  0  0  0
 79165  1  0  0  0
 80 81  1  0  0  0
 80 82  1  0  0  0
 80166  1  0  0  0
 80167  1  0  0  0
 81168  1  0  0  0
 81169  1  0  0  0
 82 87  1  0  0  0
 82170  1  0  0  0
 83 84  1  0  0  0
 83 86  1  0  0  0
 83171  1  0  0  0
 86172  1  0  0  0
 87173  1  0  0  0
 88174  1  0  0  0
M  ISO  4   1 100  68 101  81 101  88 100
M  END
> <chiral flag>
0

> <version>
0

> <s_m_source_file>
/data/baiqing/PycharmProjects/Reinvent-master-3.2/result/LINK_invent/BTK/process_docking_weight1_custom_product_contain_oxygen_bond_distance_aromatic_linkinvent_7_9_3/rearranged_h_0193.sdf

> <i_m_source_file_index>
86

> <r_mmod_Potential_Energy-OPLS-2005>
-91.5526657104492

> <r_mmod_Stretch_Energy-OPLS-2005>
53.9621086120605

> <r_mmod_Bend_Energy-OPLS-2005>
138.575485229492

> <r_mmod_Torsional_Energy-OPLS-2005>
246.248001098633

> <r_mmod_Improper_Torsional_Energy-OPLS-2005>
7.4355001449585

> <r_mmod_Van_der_Waal_Energy-OPLS-2005>
131.661178588867

> <r_mmod_Electrostatic_Energy-OPLS-2005>
-496.906616210938

> <r_mmod_Solvation_Energy-OPLS-2005>
-206.474639892578

> <b_mmod_Minimization_Converged-OPLS-2005>
0

> <r_mmod_RMS_Derivative-OPLS-2005>
4.73734283447266

$$$$
86
                    3D
 Structure written by MMmdl.
165173  0  0  1  0            999 V2000
  -30.6713  -14.4685   20.6502 C   0  0  0  0  0  0
  -30.4446  -12.3309   19.4041 C   0  0  0  0  0  0
  -29.4990  -12.5359   18.2008 C   0  0  0  0  0  0
  -28.0209  -12.3742   18.6129 C   0  0  0  0  0  0
  -27.6685  -13.1949   19.8809 C   0  0  2  0  0  0
  -28.7074  -12.9197   20.9898 C   0  0  0  0  0  0
  -25.2625  -13.8130   20.5674 C   0  0  0  0  0  0
  -24.1858  -13.0429   20.9163 C   0  0  0  0  0  0
  -24.6392  -11.6888   20.8719 C   0  0  0  0  0  0
  -23.9050  -10.4287   21.0404 C   0  0  0  0  0  0
  -24.3606   -9.4205   21.9185 C   0  0  0  0  0  0
  -23.6283   -8.2241   22.0758 C   0  0  0  0  0  0
  -22.4265   -8.0280   21.3549 C   0  0  0  0  0  0
  -21.9896   -9.0250   20.4650 C   0  0  0  0  0  0
  -22.7223  -10.2130   20.3052 C   0  0  0  0  0  0
  -21.6849   -6.0737   22.5281 C   0  0  0  0  0  0
  -21.4014   -6.5643   23.8215 C   0  0  0  0  0  0
  -21.3658   -5.6793   24.9177 C   0  0  0  0  0  0
  -21.6041   -4.3053   24.7225 C   0  0  0  0  0  0
  -21.8819   -3.8148   23.4347 C   0  0  0  0  0  0
  -21.9192   -4.6965   22.3405 C   0  0  0  0  0  0
  -22.7884  -13.5241   21.1833 C   0  0  0  0  0  0
  -22.1662   -4.2154   21.0977 F   0  0  0  0  0  0
  -21.5626   -3.4535   25.7738 F   0  0  0  0  0  0
  -30.0436  -13.2715   20.4630 N   0  0  0  0  0  0
  -26.3052  -12.9275   20.3361 N   0  0  0  0  0  0
  -25.9311  -11.6448   20.5733 N   0  0  0  0  0  0
  -22.0509  -12.8240   22.0385 N   0  0  0  0  0  0
  -25.4374  -15.1849   20.4112 N   0  0  0  0  0  0
  -31.7446  -14.7555   20.1066 O   0  0  0  0  0  0
  -21.6631   -6.8878   21.4240 O   0  0  0  0  0  0
  -22.3579  -14.5554   20.6689 O   0  0  0  0  0  0
  -24.6164  -31.8673   23.2076 C   0  0  0  0  0  0
  -25.9044  -32.4823   23.8371 C   0  0  1  0  0  0
  -27.2346  -27.4053   20.0853 C   0  0  0  0  0  0
  -25.5904  -33.8619   24.2307 N   0  0  0  0  0  0
  -23.4052  -30.4933   21.5471 C   0  0  2  0  0  0
  -24.8488  -28.9562   20.1133 C   0  0  0  0  0  0
  -22.7427  -29.4663   22.4942 C   0  0  0  0  0  0
  -18.0294  -28.1390   22.8487 C   0  0  0  0  0  0
  -24.1488  -36.7285   23.2637 C   0  0  0  0  0  0
  -25.9389  -30.8203   21.3684 C   0  0  0  0  0  0
  -26.0116  -29.4551   20.7114 C   0  0  0  0  0  0
  -27.2022  -28.6864   20.6945 C   0  0  0  0  0  0
  -26.0363  -26.9219   19.5063 C   0  0  0  0  0  0
  -24.8562  -27.6895   19.5115 C   0  0  0  0  0  0
  -23.6150  -29.8290   20.1604 C   0  0  0  0  0  0
  -25.4112  -36.3101   24.0338 C   0  0  1  0  0  0
  -20.5883  -28.3681   23.1297 C   0  0  2  0  0  0
  -20.6770  -26.9412   22.5407 C   0  0  0  0  0  0
  -19.5746  -26.6389   21.5208 C   0  0  0  0  0  0
  -18.1932  -26.7938   22.1623 C   0  0  0  0  0  0
  -19.1540  -28.8855   23.2895 C   0  0  0  0  0  0
  -18.9468  -30.1448   23.8925 C   0  0  0  0  0  0
  -17.6473  -30.6601   24.0569 C   0  0  0  0  0  0
  -25.9044  -34.9479   23.5121 C   0  0  0  0  0  0
  -16.5363  -29.9110   23.6320 C   0  0  0  0  0  0
  -16.7284  -28.6516   23.0360 C   0  0  0  0  0  0
  -26.4472  -31.6619   25.0728 C   0  0  0  0  0  0
  -25.3721  -31.3749   26.1467 C   0  0  0  0  0  0
  -27.0294  -30.3055   24.6118 C   0  0  0  0  0  0
  -27.6049  -32.4350   25.7486 C   0  0  0  0  0  0
  -27.5585  -37.1794   24.8464 C   0  0  0  0  0  0
  -21.4150  -29.3045   22.3691 N   0  0  0  0  0  0
  -26.4293  -37.3794   23.9430 N   0  0  0  0  0  0
  -24.6718  -31.0768   22.0982 N   0  0  0  0  0  0
  -23.4201  -28.8186   23.2973 O   0  0  0  0  0  0
  -28.4236  -26.6818   20.0959 O   0  0  0  0  0  0
  -26.5600  -34.8938   22.4679 O   0  0  0  0  0  0
  -23.5349  -32.1422   23.7466 O   0  0  0  0  0  0
  -30.6351  -18.9047   21.7438 C   0  0  0  0  0  0
  -29.6024  -18.8997   22.6478 C   0  0  0  0  0  0
  -30.0034  -16.6876   21.7293 C   0  0  0  0  0  0
  -33.8050  -18.8118   21.5214 C   0  0  0  0  0  0
  -30.8462  -22.7103   22.9199 C   0  0  0  0  0  0
  -32.8411  -19.6766   20.6850 C   0  0  0  0  0  0
  -30.8410  -21.3226   20.7086 C   0  0  0  0  0  0
  -29.9758  -23.8203   20.8332 C   0  0  0  0  0  0
  -28.5569  -25.4569   19.3329 C   0  0  0  0  0  0
  -31.5372  -20.0958   21.4200 C   0  0  1  0  0  0
  -30.1361  -22.4380   21.5738 C   0  0  2  0  0  0
  -28.6116  -24.1276   20.1562 C   0  0  1  0  0  0
  -30.8074  -17.6149   21.1709 N   0  0  0  0  0  0
  -29.9893  -15.2864   21.4741 N   0  0  0  0  0  0
  -27.5598  -24.1135   21.1083 O   0  0  0  0  0  0
  -29.1953  -19.9801   23.3560 F   0  0  0  0  0  0
  -28.8575  -17.3538   22.8875 S   0  0  0  0  0  0
  -31.4831  -12.4730   19.0992 H   0  0  0  0  0  0
  -30.3816  -11.3057   19.7715 H   0  0  0  0  0  0
  -29.7456  -11.8328   17.4045 H   0  0  0  0  0  0
  -29.6509  -13.5338   17.7860 H   0  0  0  0  0  0
  -27.8396  -11.3145   18.7952 H   0  0  0  0  0  0
  -27.3656  -12.6562   17.7881 H   0  0  0  0  0  0
  -27.7273  -14.2505   19.6131 H   0  0  0  0  0  0
  -28.6926  -11.8622   21.2575 H   0  0  0  0  0  0
  -28.4380  -13.4380   21.9102 H   0  0  0  0  0  0
  -25.2758   -9.5681   22.4754 H   0  0  0  0  0  0
  -23.9996   -7.4632   22.7474 H   0  0  0  0  0  0
  -21.0832   -8.8761   19.8958 H   0  0  0  0  0  0
  -22.3683  -10.9663   19.6155 H   0  0  0  0  0  0
  -21.2006   -7.6150   23.9722 H   0  0  0  0  0  0
  -21.1479   -6.0523   25.9083 H   0  0  0  0  0  0
  -22.0600   -2.7611   23.2840 H   0  0  0  0  0  0
  -22.4101  -11.9880   22.4758 H   0  0  0  0  0  0
  -21.1132  -13.1289   22.2597 H   0  0  0  0  0  0
  -24.6721  -15.8409   20.5247 H   0  0  0  0  0  0
  -26.2899  -15.6237   20.0864 H   0  0  0  0  0  0
  -26.7112  -32.5525   23.1126 H   0  0  0  0  0  0
  -25.0114  -33.9765   25.0493 H   0  0  0  0  0  0
  -22.6934  -31.3104   21.4067 H   0  0  0  0  0  0
  -23.3768  -35.9600   23.3320 H   0  0  0  0  0  0
  -24.3590  -36.8875   22.2046 H   0  0  0  0  0  0
  -23.7202  -37.6481   23.6638 H   0  0  0  0  0  0
  -26.0650  -31.5891   20.6050 H   0  0  0  0  0  0
  -26.8203  -30.8633   21.9950 H   0  0  0  0  0  0
  -28.0997  -29.0742   21.1550 H   0  0  0  0  0  0
  -25.9607  -25.9480   19.0522 H   0  0  0  0  0  0
  -23.9600  -27.2922   19.0568 H   0  0  0  0  0  0
  -23.7297  -30.6048   19.4024 H   0  0  0  0  0  0
  -22.7374  -29.2540   19.8592 H   0  0  0  0  0  0
  -25.1282  -36.1949   25.0827 H   0  0  0  0  0  0
  -21.0000  -28.3248   24.1407 H   0  0  0  0  0  0
  -20.5664  -26.2298   23.3599 H   0  0  0  0  0  0
  -21.6647  -26.7453   22.1199 H   0  0  0  0  0  0
  -19.6917  -25.6301   21.1238 H   0  0  0  0  0  0
  -19.6696  -27.3204   20.6739 H   0  0  0  0  0  0
  -17.4202  -26.6696   21.4029 H   0  0  0  0  0  0
  -18.0341  -26.0073   22.9014 H   0  0  0  0  0  0
  -19.7945  -30.7235   24.2340 H   0  0  0  0  0  0
  -17.5041  -31.6295   24.5150 H   0  0  0  0  0  0
  -15.5362  -30.3032   23.7638 H   0  0  0  0  0  0
  -15.8676  -28.0841   22.7093 H   0  0  0  0  0  0
  -24.5907  -30.7089   25.7803 H   0  0  0  0  0  0
  -24.8906  -32.2915   26.4883 H   0  0  0  0  0  0
  -25.8054  -30.8943   27.0243 H   0  0  0  0  0  0
  -26.2852  -29.6838   24.1126 H   0  0  0  0  0  0
  -27.4002  -29.7279   25.4589 H   0  0  0  0  0  0
  -27.8719  -30.4384   23.9325 H   0  0  0  0  0  0
  -27.2674  -33.3653   26.2069 H   0  0  0  0  0  0
  -28.3845  -32.6900   25.0298 H   0  0  0  0  0  0
  -28.0724  -31.8465   26.5379 H   0  0  0  0  0  0
  -28.2588  -38.0108   24.7551 H   0  0  0  0  0  0
  -28.1090  -36.2641   24.6240 H   0  0  0  0  0  0
  -27.2316  -37.1380   25.8868 H   0  0  0  0  0  0
  -20.9306  -29.8788   21.6926 H   0  0  0  0  0  0
  -26.0173  -38.2866   24.1457 H   0  0  0  0  0  0
  -34.7391  -18.6452   20.9832 H   0  0  0  0  0  0
  -33.3904  -17.8314   21.7534 H   0  0  0  0  0  0
  -34.0565  -19.2966   22.4649 H   0  0  0  0  0  0
  -30.8375  -21.8464   23.5827 H   0  0  0  0  0  0
  -30.3414  -23.5000   23.4774 H   0  0  0  0  0  0
  -31.8818  -23.0213   22.7755 H   0  0  0  0  0  0
  -32.5976  -19.1679   19.7517 H   0  0  0  0  0  0
  -33.3990  -20.5692   20.3978 H   0  0  0  0  0  0
  -30.1592  -20.9603   19.9375 H   0  0  0  0  0  0
  -31.6216  -21.8418   20.1530 H   0  0  0  0  0  0
  -30.7703  -23.9240   20.0922 H   0  0  0  0  0  0
  -30.1622  -24.6388   21.5293 H   0  0  0  0  0  0
  -27.8383  -25.3710   18.5207 H   0  0  0  0  0  0
  -29.5010  -25.5433   18.7954 H   0  0  0  0  0  0
  -31.9139  -20.4550   22.3730 H   0  0  0  0  0  0
  -29.1423  -22.0707   21.8316 H   0  0  0  0  0  0
  -28.4166  -23.3162   19.4514 H   0  0  0  0  0  0
  -29.2227  -14.8078   21.9201 H   0  0  0  0  0  0
  -26.8221  -24.5841   20.7343 H   0  0  0  0  0  0
  1 25  1  0  0  0
  1 30  2  0  0  0
  1 84  1  0  0  0
  2  3  1  0  0  0
  2 25  1  0  0  0
  2 88  1  0  0  0
  2 89  1  0  0  0
  3  4  1  0  0  0
  3 90  1  0  0  0
  3 91  1  0  0  0
  4  5  1  0  0  0
  4 92  1  0  0  0
  4 93  1  0  0  0
  5  6  1  0  0  0
  5 26  1  0  0  0
  5 94  1  0  0  0
  6 25  1  0  0  0
  6 95  1  0  0  0
  6 96  1  0  0  0
  7  8  2  0  0  0
  7 26  1  0  0  0
  7 29  1  0  0  0
  8  9  1  0  0  0
  8 22  1  0  0  0
  9 10  1  0  0  0
  9 27  2  0  0  0
 10 11  2  0  0  0
 10 15  1  0  0  0
 11 12  1  0  0  0
 11 97  1  0  0  0
 12 13  2  0  0  0
 12 98  1  0  0  0
 13 14  1  0  0  0
 13 31  1  0  0  0
 14 15  2  0  0  0
 14 99  1  0  0  0
 15100  1  0  0  0
 16 17  2  0  0  0
 16 21  1  0  0  0
 16 31  1  0  0  0
 17 18  1  0  0  0
 17101  1  0  0  0
 18 19  2  0  0  0
 18102  1  0  0  0
 19 20  1  0  0  0
 19 24  1  0  0  0
 20 21  2  0  0  0
 20103  1  0  0  0
 21 23  1  0  0  0
 22 28  1  0  0  0
 22 32  2  0  0  0
 26 27  1  0  0  0
 28104  1  0  0  0
 28105  1  0  0  0
 29106  1  0  0  0
 29107  1  0  0  0
 33 34  1  0  0  0
 33 66  1  0  0  0
 33 70  2  0  0  0
 34 36  1  0  0  0
 34 59  1  0  0  0
 34108  1  0  0  0
 35 44  2  0  0  0
 35 45  1  0  0  0
 35 68  1  0  0  0
 36 56  1  0  0  0
 36109  1  0  0  0
 37 39  1  0  0  0
 37 47  1  0  0  0
 37 66  1  0  0  0
 37110  1  0  0  0
 38 43  2  0  0  0
 38 46  1  0  0  0
 38 47  1  0  0  0
 39 64  1  0  0  0
 39 67  2  0  0  0
 40 52  1  0  0  0
 40 53  2  0  0  0
 40 58  1  0  0  0
 41111  1  0  0  0
 41112  1  0  0  0
 41113  1  0  0  0
 41 48  1  0  0  0
 42 43  1  0  0  0
 42 66  1  0  0  0
 42114  1  0  0  0
 42115  1  0  0  0
 43 44  1  0  0  0
 44116  1  0  0  0
 45 46  2  0  0  0
 45117  1  0  0  0
 46118  1  0  0  0
 47119  1  0  0  0
 47120  1  0  0  0
 48 56  1  0  0  0
 48 65  1  0  0  0
 48121  1  0  0  0
 49 50  1  0  0  0
 49 53  1  0  0  0
 49 64  1  0  0  0
 49122  1  0  0  0
 50 51  1  0  0  0
 50123  1  0  0  0
 50124  1  0  0  0
 51 52  1  0  0  0
 51125  1  0  0  0
 51126  1  0  0  0
 52127  1  0  0  0
 52128  1  0  0  0
 53 54  1  0  0  0
 54 55  2  0  0  0
 54129  1  0  0  0
 55 57  1  0  0  0
 55130  1  0  0  0
 56 69  2  0  0  0
 57 58  2  0  0  0
 57131  1  0  0  0
 58132  1  0  0  0
 59 60  1  0  0  0
 59 61  1  0  0  0
 59 62  1  0  0  0
 60133  1  0  0  0
 60134  1  0  0  0
 60135  1  0  0  0
 61136  1  0  0  0
 61137  1  0  0  0
 61138  1  0  0  0
 62139  1  0  0  0
 62140  1  0  0  0
 62141  1  0  0  0
 63 65  1  0  0  0
 63142  1  0  0  0
 63143  1  0  0  0
 63144  1  0  0  0
 64145  1  0  0  0
 65146  1  0  0  0
 68 79  1  0  0  0
 71 72  2  0  0  0
 71 80  1  0  0  0
 71 83  1  0  0  0
 72 86  1  0  0  0
 72 87  1  0  0  0
 73 83  2  0  0  0
 73 84  1  0  0  0
 73 87  1  0  0  0
 74 76  1  0  0  0
 74147  1  0  0  0
 74148  1  0  0  0
 74149  1  0  0  0
 75150  1  0  0  0
 75151  1  0  0  0
 75152  1  0  0  0
 75 81  1  0  0  0
 76153  1  0  0  0
 76154  1  0  0  0
 76 80  1  0  0  0
 77 80  1  0  0  0
 77 81  1  0  0  0
 77155  1  0  0  0
 77156  1  0  0  0
 78 81  1  0  0  0
 78 82  1  0  0  0
 78157  1  0  0  0
 78158  1  0  0  0
 79 82  1  0  0  0
 79159  1  0  0  0
 79160  1  0  0  0
 80161  1  0  0  0
 81162  1  0  0  0
 82 85  1  0  0  0
 82163  1  0  0  0
 84164  1  0  0  0
 85165  1  0  0  0
M  ISO  4   1 100  68 101  79 101  84 100
M  END
> <chiral flag>
0

> <version>
0

> <s_m_source_file>
/data/baiqing/PycharmProjects/Reinvent-master-3.2/result/LINK_invent/BTK/process_docking_weight1_custom_product_contain_oxygen_bond_distance_aromatic_linkinvent_7_9_3/rearranged_h_0193.sdf

> <i_m_source_file_index>
87

> <r_mmod_Potential_Energy-OPLS-2005>
35.2561492919922

> <r_mmod_Stretch_Energy-OPLS-2005>
50.6072616577148

> <r_mmod_Bend_Energy-OPLS-2005>
149.786209106445

> <r_mmod_Torsional_Energy-OPLS-2005>
247.313049316406

> <r_mmod_Improper_Torsional_Energy-OPLS-2005>
2.28504157066345

> <r_mmod_Van_der_Waal_Energy-OPLS-2005>
135.325698852539

> <r_mmod_Electrostatic_Energy-OPLS-2005>
-335.235229492188

> <r_mmod_Solvation_Energy-OPLS-2005>
-229.461410522461

> <b_mmod_Minimization_Converged-OPLS-2005>
0

> <r_mmod_RMS_Derivative-OPLS-2005>
2.11094737052917

$$$$
87
                    3D
 Structure written by MMmdl.
165173  0  0  1  0            999 V2000
  -30.7754  -14.4479   20.6132 C   0  0  0  0  0  0
  -30.4125  -12.3073   19.4386 C   0  0  0  0  0  0
  -29.4974  -12.5152   18.2158 C   0  0  0  0  0  0
  -28.0187  -12.3772   18.6247 C   0  0  0  0  0  0
  -27.6631  -13.2218   19.8793 C   0  0  2  0  0  0
  -28.7041  -13.0301   21.0080 C   0  0  0  0  0  0
  -25.2569  -13.8201   20.5722 C   0  0  0  0  0  0
  -24.1825  -13.0462   20.9196 C   0  0  0  0  0  0
  -24.6404  -11.6928   20.8742 C   0  0  0  0  0  0
  -23.9084  -10.4301   21.0402 C   0  0  0  0  0  0
  -24.3621   -9.4211   21.9189 C   0  0  0  0  0  0
  -23.6292   -8.2246   22.0751 C   0  0  0  0  0  0
  -22.4279   -8.0284   21.3544 C   0  0  0  0  0  0
  -21.9925   -9.0260   20.4640 C   0  0  0  0  0  0
  -22.7259  -10.2137   20.3045 C   0  0  0  0  0  0
  -21.6861   -6.0740   22.5279 C   0  0  0  0  0  0
  -21.4009   -6.5632   23.8214 C   0  0  0  0  0  0
  -21.3662   -5.6783   24.9172 C   0  0  0  0  0  0
  -21.6051   -4.3047   24.7227 C   0  0  0  0  0  0
  -21.8813   -3.8145   23.4338 C   0  0  0  0  0  0
  -21.9188   -4.6966   22.3394 C   0  0  0  0  0  0
  -22.7831  -13.5242   21.1862 C   0  0  0  0  0  0
  -22.1660   -4.2145   21.0976 F   0  0  0  0  0  0
  -21.5637   -3.4529   25.7742 F   0  0  0  0  0  0
  -30.0443  -13.3061   20.4589 N   0  0  0  0  0  0
  -26.3033  -12.9404   20.3399 N   0  0  0  0  0  0
  -25.9340  -11.6551   20.5778 N   0  0  0  0  0  0
  -22.0453  -12.8222   22.0388 N   0  0  0  0  0  0
  -25.4285  -15.1920   20.4152 N   0  0  0  0  0  0
  -31.8576  -14.5941   20.0380 O   0  0  0  0  0  0
  -21.6639   -6.8885   21.4240 O   0  0  0  0  0  0
  -22.3534  -14.5567   20.6733 O   0  0  0  0  0  0
  -24.6189  -31.8666   23.2091 C   0  0  0  0  0  0
  -25.9083  -32.4782   23.8375 C   0  0  1  0  0  0
  -27.2114  -27.4112   20.0835 C   0  0  0  0  0  0
  -25.5959  -33.8602   24.2311 N   0  0  0  0  0  0
  -23.4048  -30.4968   21.5497 C   0  0  2  0  0  0
  -24.8444  -28.9754   20.1014 C   0  0  0  0  0  0
  -22.7436  -29.4668   22.4965 C   0  0  0  0  0  0
  -18.0273  -28.1383   22.8486 C   0  0  0  0  0  0
  -24.1511  -36.7304   23.2635 C   0  0  0  0  0  0
  -25.9391  -30.8233   21.3698 C   0  0  0  0  0  0
  -26.0085  -29.4623   20.7068 C   0  0  0  0  0  0
  -27.1961  -28.6872   20.6988 C   0  0  0  0  0  0
  -26.0347  -26.9766   19.4248 C   0  0  0  0  0  0
  -24.8549  -27.7339   19.4514 C   0  0  0  0  0  0
  -23.6075  -29.8391   20.1604 C   0  0  0  0  0  0
  -25.4128  -36.3076   24.0315 C   0  0  1  0  0  0
  -20.5869  -28.3661   23.1298 C   0  0  2  0  0  0
  -20.6745  -26.9387   22.5402 C   0  0  0  0  0  0
  -19.5712  -26.6385   21.5196 C   0  0  0  0  0  0
  -18.1900  -26.7933   22.1611 C   0  0  0  0  0  0
  -19.1534  -28.8833   23.2893 C   0  0  0  0  0  0
  -18.9447  -30.1451   23.8895 C   0  0  0  0  0  0
  -17.6430  -30.6567   24.0566 C   0  0  0  0  0  0
  -25.9053  -34.9457   23.5088 C   0  0  0  0  0  0
  -16.5330  -29.9063   23.6328 C   0  0  0  0  0  0
  -16.7256  -28.6500   23.0333 C   0  0  0  0  0  0
  -26.4502  -31.6552   25.0702 C   0  0  0  0  0  0
  -25.3776  -31.3708   26.1454 C   0  0  0  0  0  0
  -27.0259  -30.2962   24.6087 C   0  0  0  0  0  0
  -27.6118  -32.4242   25.7418 C   0  0  0  0  0  0
  -27.5575  -37.1827   24.8472 C   0  0  0  0  0  0
  -21.4158  -29.3047   22.3712 N   0  0  0  0  0  0
  -26.4314  -37.3750   23.9369 N   0  0  0  0  0  0
  -24.6719  -31.0779   22.0990 N   0  0  0  0  0  0
  -23.4213  -28.8188   23.2989 O   0  0  0  0  0  0
  -28.3384  -26.6034   20.1461 O   0  0  0  0  0  0
  -26.5592  -34.8894   22.4639 O   0  0  0  0  0  0
  -23.5379  -32.1415   23.7493 O   0  0  0  0  0  0
  -32.2702  -18.4557   21.6301 C   0  0  0  0  0  0
  -31.1496  -19.1911   21.9362 C   0  0  0  0  0  0
  -30.7305  -16.7656   21.5379 C   0  0  0  0  0  0
  -34.7297  -23.4745   19.6424 C   0  0  0  0  0  0
  -31.1244  -20.6583   22.3015 C   0  0  0  0  0  0
  -33.2865  -22.9714   19.8062 C   0  0  0  0  0  0
  -32.7334  -23.2507   21.2188 C   0  0  0  0  0  0
  -30.3961  -24.0401   20.5552 C   0  0  0  0  0  0
  -28.0866  -25.1752   20.0650 C   0  0  0  0  0  0
  -31.2093  -23.0166   21.4091 C   0  0  1  0  0  0
  -28.9342  -24.2700   20.9923 C   0  0  2  0  0  0
  -32.0248  -17.0937   21.4189 N   0  0  0  0  0  0
  -30.2317  -15.4338   21.3570 N   0  0  0  0  0  0
  -30.8320  -21.5863   21.1768 N   0  3  0  0  0  0
  -28.8278  -24.7376   22.3268 O   0  0  0  0  0  0
  -29.7245  -18.1589   21.9647 S   0  0  0  0  0  0
  -31.4598  -12.3702   19.1385 H   0  0  0  0  0  0
  -30.2862  -11.3019   19.8442 H   0  0  0  0  0  0
  -29.7398  -11.7904   17.4374 H   0  0  0  0  0  0
  -29.6725  -13.5018   17.7820 H   0  0  0  0  0  0
  -27.8284  -11.3226   18.8238 H   0  0  0  0  0  0
  -27.3716  -12.6496   17.7904 H   0  0  0  0  0  0
  -27.7009  -14.2692   19.5782 H   0  0  0  0  0  0
  -28.6657  -12.0073   21.3838 H   0  0  0  0  0  0
  -28.4608  -13.6619   21.8620 H   0  0  0  0  0  0
  -25.2765   -9.5692   22.4770 H   0  0  0  0  0  0
  -24.0007   -7.4639   22.7461 H   0  0  0  0  0  0
  -21.0866   -8.8778   19.8937 H   0  0  0  0  0  0
  -22.3732  -10.9666   19.6140 H   0  0  0  0  0  0
  -21.1986   -7.6137   23.9720 H   0  0  0  0  0  0
  -21.1498   -6.0508   25.9080 H   0  0  0  0  0  0
  -22.0587   -2.7604   23.2840 H   0  0  0  0  0  0
  -22.4013  -11.9861   22.4769 H   0  0  0  0  0  0
  -21.1046  -13.1232   22.2534 H   0  0  0  0  0  0
  -24.6680  -15.8527   20.5336 H   0  0  0  0  0  0
  -26.2890  -15.6303   20.1104 H   0  0  0  0  0  0
  -26.7167  -32.5461   23.1143 H   0  0  0  0  0  0
  -25.0163  -33.9773   25.0488 H   0  0  0  0  0  0
  -22.6947  -31.3154   21.4180 H   0  0  0  0  0  0
  -23.3757  -35.9654   23.3264 H   0  0  0  0  0  0
  -24.3622  -36.8949   22.2066 H   0  0  0  0  0  0
  -23.7288  -37.6507   23.6682 H   0  0  0  0  0  0
  -26.0624  -31.5914   20.6068 H   0  0  0  0  0  0
  -26.8262  -30.8667   21.9898 H   0  0  0  0  0  0
  -28.0892  -29.0542   21.1860 H   0  0  0  0  0  0
  -25.9984  -26.0463   18.8769 H   0  0  0  0  0  0
  -23.9694  -27.3660   18.9517 H   0  0  0  0  0  0
  -23.7070  -30.6160   19.4010 H   0  0  0  0  0  0
  -22.7344  -29.2554   19.8649 H   0  0  0  0  0  0
  -25.1326  -36.1923   25.0817 H   0  0  0  0  0  0
  -20.9954  -28.3187   24.1424 H   0  0  0  0  0  0
  -20.5607  -26.2268   23.3595 H   0  0  0  0  0  0
  -21.6627  -26.7409   22.1220 H   0  0  0  0  0  0
  -19.6866  -25.6302   21.1220 H   0  0  0  0  0  0
  -19.6650  -27.3211   20.6737 H   0  0  0  0  0  0
  -17.4186  -26.6686   21.4002 H   0  0  0  0  0  0
  -18.0298  -26.0054   22.8991 H   0  0  0  0  0  0
  -19.7916  -30.7278   24.2245 H   0  0  0  0  0  0
  -17.4983  -31.6250   24.5178 H   0  0  0  0  0  0
  -15.5336  -30.2953   23.7660 H   0  0  0  0  0  0
  -15.8656  -28.0819   22.7015 H   0  0  0  0  0  0
  -24.5880  -30.7131   25.7781 H   0  0  0  0  0  0
  -24.9073  -32.2903   26.4970 H   0  0  0  0  0  0
  -25.8122  -30.8783   27.0160 H   0  0  0  0  0  0
  -26.2744  -29.6754   24.1183 H   0  0  0  0  0  0
  -27.4012  -29.7173   25.4536 H   0  0  0  0  0  0
  -27.8625  -30.4192   23.9199 H   0  0  0  0  0  0
  -27.2827  -33.3630   26.1877 H   0  0  0  0  0  0
  -28.3989  -32.6622   25.0250 H   0  0  0  0  0  0
  -28.0684  -31.8394   26.5405 H   0  0  0  0  0  0
  -28.2657  -38.0060   24.7404 H   0  0  0  0  0  0
  -28.1003  -36.2585   24.6445 H   0  0  0  0  0  0
  -27.2263  -37.1652   25.8870 H   0  0  0  0  0  0
  -20.9296  -29.8831   21.7000 H   0  0  0  0  0  0
  -26.0180  -38.2838   24.1272 H   0  0  0  0  0  0
  -33.2874  -18.8187   21.5655 H   0  0  0  0  0  0
  -35.1300  -23.2043   18.6641 H   0  0  0  0  0  0
  -35.3954  -23.0601   20.4018 H   0  0  0  0  0  0
  -34.7799  -24.5617   19.7225 H   0  0  0  0  0  0
  -32.0975  -20.9092   22.7250 H   0  0  0  0  0  0
  -30.4071  -20.8307   23.1047 H   0  0  0  0  0  0
  -33.2482  -21.9011   19.5992 H   0  0  0  0  0  0
  -32.6728  -23.4560   19.0463 H   0  0  0  0  0  0
  -32.9489  -24.2924   21.4717 H   0  0  0  0  0  0
  -33.3078  -22.6692   21.9392 H   0  0  0  0  0  0
  -30.4092  -23.7313   19.5091 H   0  0  0  0  0  0
  -30.9010  -25.0078   20.5727 H   0  0  0  0  0  0
  -27.0610  -24.9231   20.3360 H   0  0  0  0  0  0
  -28.2087  -24.8557   19.0292 H   0  0  0  0  0  0
  -30.9928  -23.2399   22.4551 H   0  0  0  0  0  0
  -28.4438  -23.2952   20.9739 H   0  0  0  0  0  0
  -29.3175  -15.2462   21.7394 H   0  0  0  0  0  0
  -29.8406  -21.5190   21.0162 H   0  0  0  0  0  0
  -31.2953  -21.2548   20.3473 H   0  0  0  0  0  0
  -27.9040  -24.8973   22.5052 H   0  0  0  0  0  0
  1 25  1  0  0  0
  1 30  2  0  0  0
  1 83  1  0  0  0
  2  3  1  0  0  0
  2 25  1  0  0  0
  2 87  1  0  0  0
  2 88  1  0  0  0
  3  4  1  0  0  0
  3 89  1  0  0  0
  3 90  1  0  0  0
  4  5  1  0  0  0
  4 91  1  0  0  0
  4 92  1  0  0  0
  5  6  1  0  0  0
  5 26  1  0  0  0
  5 93  1  0  0  0
  6 25  1  0  0  0
  6 94  1  0  0  0
  6 95  1  0  0  0
  7  8  2  0  0  0
  7 26  1  0  0  0
  7 29  1  0  0  0
  8  9  1  0  0  0
  8 22  1  0  0  0
  9 10  1  0  0  0
  9 27  2  0  0  0
 10 11  2  0  0  0
 10 15  1  0  0  0
 11 12  1  0  0  0
 11 96  1  0  0  0
 12 13  2  0  0  0
 12 97  1  0  0  0
 13 14  1  0  0  0
 13 31  1  0  0  0
 14 15  2  0  0  0
 14 98  1  0  0  0
 15 99  1  0  0  0
 16 17  2  0  0  0
 16 21  1  0  0  0
 16 31  1  0  0  0
 17 18  1  0  0  0
 17100  1  0  0  0
 18 19  2  0  0  0
 18101  1  0  0  0
 19 20  1  0  0  0
 19 24  1  0  0  0
 20 21  2  0  0  0
 20102  1  0  0  0
 21 23  1  0  0  0
 22 28  1  0  0  0
 22 32  2  0  0  0
 26 27  1  0  0  0
 28103  1  0  0  0
 28104  1  0  0  0
 29105  1  0  0  0
 29106  1  0  0  0
 33 34  1  0  0  0
 33 66  1  0  0  0
 33 70  2  0  0  0
 34 36  1  0  0  0
 34 59  1  0  0  0
 34107  1  0  0  0
 35 44  2  0  0  0
 35 45  1  0  0  0
 35 68  1  0  0  0
 36 56  1  0  0  0
 36108  1  0  0  0
 37 39  1  0  0  0
 37 47  1  0  0  0
 37 66  1  0  0  0
 37109  1  0  0  0
 38 43  2  0  0  0
 38 46  1  0  0  0
 38 47  1  0  0  0
 39 64  1  0  0  0
 39 67  2  0  0  0
 40 52  1  0  0  0
 40 53  2  0  0  0
 40 58  1  0  0  0
 41110  1  0  0  0
 41111  1  0  0  0
 41112  1  0  0  0
 41 48  1  0  0  0
 42 43  1  0  0  0
 42 66  1  0  0  0
 42113  1  0  0  0
 42114  1  0  0  0
 43 44  1  0  0  0
 44115  1  0  0  0
 45 46  2  0  0  0
 45116  1  0  0  0
 46117  1  0  0  0
 47118  1  0  0  0
 47119  1  0  0  0
 48 56  1  0  0  0
 48 65  1  0  0  0
 48120  1  0  0  0
 49 50  1  0  0  0
 49 53  1  0  0  0
 49 64  1  0  0  0
 49121  1  0  0  0
 50 51  1  0  0  0
 50122  1  0  0  0
 50123  1  0  0  0
 51 52  1  0  0  0
 51124  1  0  0  0
 51125  1  0  0  0
 52126  1  0  0  0
 52127  1  0  0  0
 53 54  1  0  0  0
 54 55  2  0  0  0
 54128  1  0  0  0
 55 57  1  0  0  0
 55129  1  0  0  0
 56 69  2  0  0  0
 57 58  2  0  0  0
 57130  1  0  0  0
 58131  1  0  0  0
 59 60  1  0  0  0
 59 61  1  0  0  0
 59 62  1  0  0  0
 60132  1  0  0  0
 60133  1  0  0  0
 60134  1  0  0  0
 61135  1  0  0  0
 61136  1  0  0  0
 61137  1  0  0  0
 62138  1  0  0  0
 62139  1  0  0  0
 62140  1  0  0  0
 63 65  1  0  0  0
 63141  1  0  0  0
 63142  1  0  0  0
 63143  1  0  0  0
 64144  1  0  0  0
 65145  1  0  0  0
 68 79  1  0  0  0
 71 72  2  0  0  0
 71 82  1  0  0  0
 71146  1  0  0  0
 72 75  1  0  0  0
 72 86  1  0  0  0
 73 82  2  0  0  0
 73 83  1  0  0  0
 73 86  1  0  0  0
 74 76  1  0  0  0
 74147  1  0  0  0
 74148  1  0  0  0
 74149  1  0  0  0
 75 84  1  0  0  0
 75150  1  0  0  0
 75151  1  0  0  0
 76 77  1  0  0  0
 76152  1  0  0  0
 76153  1  0  0  0
 77154  1  0  0  0
 77155  1  0  0  0
 77 80  1  0  0  0
 78 80  1  0  0  0
 78 81  1  0  0  0
 78156  1  0  0  0
 78157  1  0  0  0
 79 81  1  0  0  0
 79158  1  0  0  0
 79159  1  0  0  0
 80 84  1  0  0  0
 80160  1  0  0  0
 81 85  1  0  0  0
 81161  1  0  0  0
 83162  1  0  0  0
 84163  1  0  0  0
 84164  1  0  0  0
 85165  1  0  0  0
M  CHG  1  84   1
M  ISO  4   1 100  68 101  79 101  83 100
M  END
> <chiral flag>
0

> <version>
0

> <s_m_source_file>
/data/baiqing/PycharmProjects/Reinvent-master-3.2/result/LINK_invent/BTK/process_docking_weight1_custom_product_contain_oxygen_bond_distance_aromatic_linkinvent_7_9_3/rearranged_h_0193.sdf

> <i_m_source_file_index>
88

> <r_mmod_Potential_Energy-OPLS-2005>
-231.81233215332

> <r_mmod_Stretch_Energy-OPLS-2005>
41.6818313598633

> <r_mmod_Bend_Energy-OPLS-2005>
112.056762695312

> <r_mmod_Torsional_Energy-OPLS-2005>
241.458648681641

> <r_mmod_Improper_Torsional_Energy-OPLS-2005>
2.35936093330383

> <r_mmod_Van_der_Waal_Energy-OPLS-2005>
139.161987304688

> <r_mmod_Electrostatic_Energy-OPLS-2005>
-290.328582763672

> <r_mmod_Solvation_Energy-OPLS-2005>
-496.643890380859

> <b_mmod_Minimization_Converged-OPLS-2005>
0

> <r_mmod_RMS_Derivative-OPLS-2005>
3.6154727935791

$$$$
88
                    3D
 Structure written by MMmdl.
158166  0  0  1  0            999 V2000
  -30.6781  -14.4800   20.6106 C   0  0  0  0  0  0
  -30.4411  -12.3233   19.4120 C   0  0  0  0  0  0
  -29.5018  -12.5249   18.2035 C   0  0  0  0  0  0
  -28.0219  -12.3779   18.6127 C   0  0  0  0  0  0
  -27.6699  -13.1987   19.8815 C   0  0  2  0  0  0
  -28.7117  -12.9407   20.9931 C   0  0  0  0  0  0
  -25.2623  -13.8133   20.5649 C   0  0  0  0  0  0
  -24.1863  -13.0423   20.9151 C   0  0  0  0  0  0
  -24.6398  -11.6883   20.8726 C   0  0  0  0  0  0
  -23.9059  -10.4278   21.0401 C   0  0  0  0  0  0
  -24.3603   -9.4195   21.9181 C   0  0  0  0  0  0
  -23.6271   -8.2240   22.0763 C   0  0  0  0  0  0
  -22.4254   -8.0273   21.3552 C   0  0  0  0  0  0
  -21.9894   -9.0251   20.4654 C   0  0  0  0  0  0
  -22.7231  -10.2122   20.3052 C   0  0  0  0  0  0
  -21.6847   -6.0715   22.5277 C   0  0  0  0  0  0
  -21.4012   -6.5619   23.8207 C   0  0  0  0  0  0
  -21.3669   -5.6780   24.9179 C   0  0  0  0  0  0
  -21.6048   -4.3044   24.7233 C   0  0  0  0  0  0
  -21.8820   -3.8134   23.4355 C   0  0  0  0  0  0
  -21.9194   -4.6947   22.3405 C   0  0  0  0  0  0
  -22.7888  -13.5246   21.1812 C   0  0  0  0  0  0
  -22.1661   -4.2130   21.0983 F   0  0  0  0  0  0
  -21.5635   -3.4531   25.7748 F   0  0  0  0  0  0
  -30.0479  -13.2783   20.4598 N   0  0  0  0  0  0
  -26.3069  -12.9285   20.3385 N   0  0  0  0  0  0
  -25.9333  -11.6451   20.5768 N   0  0  0  0  0  0
  -22.0514  -12.8279   22.0381 N   0  0  0  0  0  0
  -25.4331  -15.1849   20.4014 N   0  0  0  0  0  0
  -31.7573  -14.7430   20.0691 O   0  0  0  0  0  0
  -21.6628   -6.8865   21.4240 O   0  0  0  0  0  0
  -22.3586  -14.5552   20.6646 O   0  0  0  0  0  0
  -24.6159  -31.8675   23.2084 C   0  0  0  0  0  0
  -25.9047  -32.4820   23.8392 C   0  0  1  0  0  0
  -27.2373  -27.4243   20.1029 C   0  0  0  0  0  0
  -25.5886  -33.8614   24.2326 N   0  0  0  0  0  0
  -23.4058  -30.4898   21.5490 C   0  0  2  0  0  0
  -24.8551  -28.9545   20.1140 C   0  0  0  0  0  0
  -22.7426  -29.4653   22.4982 C   0  0  0  0  0  0
  -18.0277  -28.1380   22.8498 C   0  0  0  0  0  0
  -24.1481  -36.7312   23.2640 C   0  0  0  0  0  0
  -25.9357  -30.8306   21.3631 C   0  0  0  0  0  0
  -26.0160  -29.4638   20.7111 C   0  0  0  0  0  0
  -27.2129  -28.7064   20.7021 C   0  0  0  0  0  0
  -26.0631  -26.9368   19.4910 C   0  0  0  0  0  0
  -24.8739  -27.6898   19.5003 C   0  0  0  0  0  0
  -23.6160  -29.8210   20.1641 C   0  0  0  0  0  0
  -25.4102  -36.3107   24.0339 C   0  0  1  0  0  0
  -20.5871  -28.3665   23.1319 C   0  0  2  0  0  0
  -20.6768  -26.9399   22.5422 C   0  0  0  0  0  0
  -19.5740  -26.6386   21.5221 C   0  0  0  0  0  0
  -18.1919  -26.7929   22.1630 C   0  0  0  0  0  0
  -19.1530  -28.8842   23.2907 C   0  0  0  0  0  0
  -18.9454  -30.1453   23.8910 C   0  0  0  0  0  0
  -17.6455  -30.6584   24.0570 C   0  0  0  0  0  0
  -25.9032  -34.9474   23.5134 C   0  0  0  0  0  0
  -16.5346  -29.9088   23.6324 C   0  0  0  0  0  0
  -16.7266  -28.6505   23.0345 C   0  0  0  0  0  0
  -26.4464  -31.6602   25.0725 C   0  0  0  0  0  0
  -25.3728  -31.3706   26.1474 C   0  0  0  0  0  0
  -27.0301  -30.3044   24.6104 C   0  0  0  0  0  0
  -27.6041  -32.4317   25.7488 C   0  0  0  0  0  0
  -27.5576  -37.1811   24.8464 C   0  0  0  0  0  0
  -21.4154  -29.3028   22.3724 N   0  0  0  0  0  0
  -26.4285  -37.3792   23.9410 N   0  0  0  0  0  0
  -24.6706  -31.0769   22.0984 N   0  0  0  0  0  0
  -23.4196  -28.8203   23.3035 O   0  0  0  0  0  0
  -28.3729  -26.6384   20.1172 O   0  0  0  0  0  0
  -26.5602  -34.8927   22.4699 O   0  0  0  0  0  0
  -23.5346  -32.1423   23.7470 O   0  0  0  0  0  0
  -28.6581  -17.2748   21.8534 C   0  0  0  0  0  0
  -29.7874  -16.7495   21.2805 C   0  0  0  0  0  0
  -30.0681  -18.9661   20.7176 C   0  0  0  0  0  0
  -30.6856  -20.2086   20.1533 C   0  0  0  0  0  0
  -30.7614  -22.2389   17.8565 C   0  0  0  0  0  0
  -29.4623  -23.6792   19.4660 C   0  0  0  0  0  0
  -28.2332  -25.4636   20.9446 C   0  0  0  0  0  0
  -30.4614  -22.4767   19.3547 C   0  0  1  0  0  0
  -29.3852  -24.4254   20.8217 C   0  0  2  0  0  0
  -30.5903  -17.7172   20.6441 N   0  0  0  0  0  0
  -29.9163  -21.2449   19.9559 N   0  0  0  0  0  0
  -32.0382  -20.0890   19.9098 N   0  0  0  0  0  0
  -30.0082  -15.3436   21.3986 N   0  0  0  0  0  0
  -30.5969  -25.0911   21.1364 O   0  0  0  0  0  0
  -28.5283  -18.9920   21.5849 S   0  0  0  0  0  0
  -31.4807  -12.4508   19.1059 H   0  0  0  0  0  0
  -30.3663  -11.3025   19.7904 H   0  0  0  0  0  0
  -29.7432  -11.8099   17.4159 H   0  0  0  0  0  0
  -29.6656  -13.5154   17.7756 H   0  0  0  0  0  0
  -27.8267  -11.3196   18.7909 H   0  0  0  0  0  0
  -27.3747  -12.6695   17.7843 H   0  0  0  0  0  0
  -27.7249  -14.2523   19.6081 H   0  0  0  0  0  0
  -28.6964  -11.8891   21.2825 H   0  0  0  0  0  0
  -28.4499  -13.4830   21.9024 H   0  0  0  0  0  0
  -25.2752   -9.5659   22.4752 H   0  0  0  0  0  0
  -23.9973   -7.4637   22.7484 H   0  0  0  0  0  0
  -21.0825   -8.8778   19.8958 H   0  0  0  0  0  0
  -22.3702  -10.9657   19.6151 H   0  0  0  0  0  0
  -21.1988   -7.6119   23.9704 H   0  0  0  0  0  0
  -21.1496   -6.0510   25.9080 H   0  0  0  0  0  0
  -22.0592   -2.7592   23.2869 H   0  0  0  0  0  0
  -22.4090  -11.9935   22.4794 H   0  0  0  0  0  0
  -21.1145  -13.1353   22.2569 H   0  0  0  0  0  0
  -24.6497  -15.8284   20.4462 H   0  0  0  0  0  0
  -26.2834  -15.6197   20.0655 H   0  0  0  0  0  0
  -26.7127  -32.5537   23.1162 H   0  0  0  0  0  0
  -25.0019  -33.9768   25.0456 H   0  0  0  0  0  0
  -22.6945  -31.3062   21.4082 H   0  0  0  0  0  0
  -23.3736  -35.9653   23.3314 H   0  0  0  0  0  0
  -24.3581  -36.8914   22.2052 H   0  0  0  0  0  0
  -23.7243  -37.6524   23.6651 H   0  0  0  0  0  0
  -26.0491  -31.5951   20.5931 H   0  0  0  0  0  0
  -26.8223  -30.8856   21.9827 H   0  0  0  0  0  0
  -28.1067  -29.0925   21.1722 H   0  0  0  0  0  0
  -26.0660  -25.9671   19.0129 H   0  0  0  0  0  0
  -23.9826  -27.2907   19.0353 H   0  0  0  0  0  0
  -23.7239  -30.5947   19.4032 H   0  0  0  0  0  0
  -22.7394  -29.2408   19.8695 H   0  0  0  0  0  0
  -25.1274  -36.1975   25.0833 H   0  0  0  0  0  0
  -20.9962  -28.3228   24.1440 H   0  0  0  0  0  0
  -20.5669  -26.2269   23.3611 H   0  0  0  0  0  0
  -21.6641  -26.7444   22.1214 H   0  0  0  0  0  0
  -19.6900  -25.6302   21.1237 H   0  0  0  0  0  0
  -19.6672  -27.3208   20.6762 H   0  0  0  0  0  0
  -17.4193  -26.6687   21.4030 H   0  0  0  0  0  0
  -18.0306  -26.0070   22.9020 H   0  0  0  0  0  0
  -19.7935  -30.7272   24.2271 H   0  0  0  0  0  0
  -17.5010  -31.6262   24.5178 H   0  0  0  0  0  0
  -15.5345  -30.2988   23.7644 H   0  0  0  0  0  0
  -15.8670  -28.0829   22.7044 H   0  0  0  0  0  0
  -24.5887  -30.7068   25.7812 H   0  0  0  0  0  0
  -24.8932  -32.2863   26.4942 H   0  0  0  0  0  0
  -25.8072  -30.8858   27.0222 H   0  0  0  0  0  0
  -26.2854  -29.6809   24.1137 H   0  0  0  0  0  0
  -27.4056  -29.7272   25.4563 H   0  0  0  0  0  0
  -27.8691  -30.4370   23.9267 H   0  0  0  0  0  0
  -27.2665  -33.3608   26.2089 H   0  0  0  0  0  0
  -28.3831  -32.6889   25.0300 H   0  0  0  0  0  0
  -28.0727  -31.8429   26.5378 H   0  0  0  0  0  0
  -28.2597  -38.0104   24.7510 H   0  0  0  0  0  0
  -28.1064  -36.2636   24.6280 H   0  0  0  0  0  0
  -27.2304  -37.1466   25.8870 H   0  0  0  0  0  0
  -20.9317  -29.8746   21.6940 H   0  0  0  0  0  0
  -26.0172  -38.2873   24.1405 H   0  0  0  0  0  0
  -27.8776  -16.7668   22.4041 H   0  0  0  0  0  0
  -31.1521  -23.1421   17.3858 H   0  0  0  0  0  0
  -29.8598  -21.9512   17.3147 H   0  0  0  0  0  0
  -31.5058  -21.4609   17.6890 H   0  0  0  0  0  0
  -28.4643  -23.3269   19.2007 H   0  0  0  0  0  0
  -29.7042  -24.4242   18.7059 H   0  0  0  0  0  0
  -28.1543  -25.7905   21.9834 H   0  0  0  0  0  0
  -27.2982  -24.9446   20.7274 H   0  0  0  0  0  0
  -31.3935  -22.7609   19.8493 H   0  0  0  0  0  0
  -29.2223  -23.6669   21.5892 H   0  0  0  0  0  0
  -32.5292  -19.2142   20.0553 H   0  0  0  0  0  0
  -32.6382  -20.7947   19.5084 H   0  0  0  0  0  0
  -29.2872  -14.8682   21.9176 H   0  0  0  0  0  0
  -30.5939  -25.9094   20.6469 H   0  0  0  0  0  0
  1 25  1  0  0  0
  1 30  2  0  0  0
  1 83  1  0  0  0
  2  3  1  0  0  0
  2 25  1  0  0  0
  2 86  1  0  0  0
  2 87  1  0  0  0
  3  4  1  0  0  0
  3 88  1  0  0  0
  3 89  1  0  0  0
  4  5  1  0  0  0
  4 90  1  0  0  0
  4 91  1  0  0  0
  5  6  1  0  0  0
  5 26  1  0  0  0
  5 92  1  0  0  0
  6 25  1  0  0  0
  6 93  1  0  0  0
  6 94  1  0  0  0
  7  8  2  0  0  0
  7 26  1  0  0  0
  7 29  1  0  0  0
  8  9  1  0  0  0
  8 22  1  0  0  0
  9 10  1  0  0  0
  9 27  2  0  0  0
 10 11  2  0  0  0
 10 15  1  0  0  0
 11 12  1  0  0  0
 11 95  1  0  0  0
 12 13  2  0  0  0
 12 96  1  0  0  0
 13 14  1  0  0  0
 13 31  1  0  0  0
 14 15  2  0  0  0
 14 97  1  0  0  0
 15 98  1  0  0  0
 16 17  2  0  0  0
 16 21  1  0  0  0
 16 31  1  0  0  0
 17 18  1  0  0  0
 17 99  1  0  0  0
 18 19  2  0  0  0
 18100  1  0  0  0
 19 20  1  0  0  0
 19 24  1  0  0  0
 20 21  2  0  0  0
 20101  1  0  0  0
 21 23  1  0  0  0
 22 28  1  0  0  0
 22 32  2  0  0  0
 26 27  1  0  0  0
 28102  1  0  0  0
 28103  1  0  0  0
 29104  1  0  0  0
 29105  1  0  0  0
 33 34  1  0  0  0
 33 66  1  0  0  0
 33 70  2  0  0  0
 34 36  1  0  0  0
 34 59  1  0  0  0
 34106  1  0  0  0
 35 44  2  0  0  0
 35 45  1  0  0  0
 35 68  1  0  0  0
 36 56  1  0  0  0
 36107  1  0  0  0
 37 39  1  0  0  0
 37 47  1  0  0  0
 37 66  1  0  0  0
 37108  1  0  0  0
 38 43  2  0  0  0
 38 46  1  0  0  0
 38 47  1  0  0  0
 39 64  1  0  0  0
 39 67  2  0  0  0
 40 52  1  0  0  0
 40 53  2  0  0  0
 40 58  1  0  0  0
 41109  1  0  0  0
 41110  1  0  0  0
 41111  1  0  0  0
 41 48  1  0  0  0
 42 43  1  0  0  0
 42 66  1  0  0  0
 42112  1  0  0  0
 42113  1  0  0  0
 43 44  1  0  0  0
 44114  1  0  0  0
 45 46  2  0  0  0
 45115  1  0  0  0
 46116  1  0  0  0
 47117  1  0  0  0
 47118  1  0  0  0
 48 56  1  0  0  0
 48 65  1  0  0  0
 48119  1  0  0  0
 49 50  1  0  0  0
 49 53  1  0  0  0
 49 64  1  0  0  0
 49120  1  0  0  0
 50 51  1  0  0  0
 50121  1  0  0  0
 50122  1  0  0  0
 51 52  1  0  0  0
 51123  1  0  0  0
 51124  1  0  0  0
 52125  1  0  0  0
 52126  1  0  0  0
 53 54  1  0  0  0
 54 55  2  0  0  0
 54127  1  0  0  0
 55 57  1  0  0  0
 55128  1  0  0  0
 56 69  2  0  0  0
 57 58  2  0  0  0
 57129  1  0  0  0
 58130  1  0  0  0
 59 60  1  0  0  0
 59 61  1  0  0  0
 59 62  1  0  0  0
 60131  1  0  0  0
 60132  1  0  0  0
 60133  1  0  0  0
 61134  1  0  0  0
 61135  1  0  0  0
 61136  1  0  0  0
 62137  1  0  0  0
 62138  1  0  0  0
 62139  1  0  0  0
 63 65  1  0  0  0
 63140  1  0  0  0
 63141  1  0  0  0
 63142  1  0  0  0
 64143  1  0  0  0
 65144  1  0  0  0
 68 77  1  0  0  0
 71 72  2  0  0  0
 71 85  1  0  0  0
 71145  1  0  0  0
 72 80  1  0  0  0
 72 83  1  0  0  0
 73 74  1  0  0  0
 73 80  2  0  0  0
 73 85  1  0  0  0
 74 81  2  0  0  0
 74 82  1  0  0  0
 75146  1  0  0  0
 75147  1  0  0  0
 75148  1  0  0  0
 75 78  1  0  0  0
 76 78  1  0  0  0
 76 79  1  0  0  0
 76149  1  0  0  0
 76150  1  0  0  0
 77 79  1  0  0  0
 77151  1  0  0  0
 77152  1  0  0  0
 78 81  1  0  0  0
 78153  1  0  0  0
 79 84  1  0  0  0
 79154  1  0  0  0
 82155  1  0  0  0
 82156  1  0  0  0
 83157  1  0  0  0
 84158  1  0  0  0
M  ISO  4   1 100  68 101  77 101  83 100
M  END
> <chiral flag>
0

> <version>
0

> <s_m_source_file>
/data/baiqing/PycharmProjects/Reinvent-master-3.2/result/LINK_invent/BTK/process_docking_weight1_custom_product_contain_oxygen_bond_distance_aromatic_linkinvent_7_9_3/rearranged_h_0193.sdf

> <i_m_source_file_index>
89

> <r_mmod_Potential_Energy-OPLS-2005>
-102.09895324707

> <r_mmod_Stretch_Energy-OPLS-2005>
43.5614051818848

> <r_mmod_Bend_Energy-OPLS-2005>
123.698944091797

> <r_mmod_Torsional_Energy-OPLS-2005>
261.832641601562

> <r_mmod_Improper_Torsional_Energy-OPLS-2005>
4.04187917709351

> <r_mmod_Van_der_Waal_Energy-OPLS-2005>
131.667953491211

> <r_mmod_Electrostatic_Energy-OPLS-2005>
-428.17919921875

> <r_mmod_Solvation_Energy-OPLS-2005>
-252.690551757812

> <b_mmod_Minimization_Converged-OPLS-2005>
0

> <r_mmod_RMS_Derivative-OPLS-2005>
1.39511954784393

$$$$
89
                    3D
 Structure written by MMmdl.
157165  0  0  1  0            999 V2000
  -30.6738  -14.5333   20.5882 C   0  0  0  0  0  0
  -30.4216  -12.3527   19.4294 C   0  0  0  0  0  0
  -29.4867  -12.5125   18.2129 C   0  0  0  0  0  0
  -28.0119  -12.3597   18.6328 C   0  0  0  0  0  0
  -27.6528  -13.2129   19.8773 C   0  0  2  0  0  0
  -28.6948  -13.0177   20.9992 C   0  0  0  0  0  0
  -25.2527  -13.8166   20.5704 C   0  0  0  0  0  0
  -24.1801  -13.0429   20.9203 C   0  0  0  0  0  0
  -24.6371  -11.6900   20.8760 C   0  0  0  0  0  0
  -23.9056  -10.4280   21.0413 C   0  0  0  0  0  0
  -24.3608   -9.4188   21.9193 C   0  0  0  0  0  0
  -23.6282   -8.2225   22.0743 C   0  0  0  0  0  0
  -22.4264   -8.0272   21.3536 C   0  0  0  0  0  0
  -21.9910   -9.0243   20.4633 C   0  0  0  0  0  0
  -22.7238  -10.2127   20.3058 C   0  0  0  0  0  0
  -21.6851   -6.0719   22.5261 C   0  0  0  0  0  0
  -21.4014   -6.5622   23.8202 C   0  0  0  0  0  0
  -21.3674   -5.6784   24.9168 C   0  0  0  0  0  0
  -21.6048   -4.3039   24.7219 C   0  0  0  0  0  0
  -21.8824   -3.8131   23.4340 C   0  0  0  0  0  0
  -21.9185   -4.6947   22.3392 C   0  0  0  0  0  0
  -22.7820  -13.5202   21.1881 C   0  0  0  0  0  0
  -22.1658   -4.2123   21.0971 F   0  0  0  0  0  0
  -21.5640   -3.4532   25.7739 F   0  0  0  0  0  0
  -30.0142  -13.3479   20.4373 N   0  0  0  0  0  0
  -26.2971  -12.9352   20.3400 N   0  0  0  0  0  0
  -25.9303  -11.6507   20.5809 N   0  0  0  0  0  0
  -22.0512  -12.8159   22.0441 N   0  0  0  0  0  0
  -25.4235  -15.1895   20.4105 N   0  0  0  0  0  0
  -31.8146  -14.7105   20.1515 O   0  0  0  0  0  0
  -21.6632   -6.8868   21.4228 O   0  0  0  0  0  0
  -22.3498  -14.5518   20.6755 O   0  0  0  0  0  0
  -24.6195  -31.8660   23.2065 C   0  0  0  0  0  0
  -25.9080  -32.4796   23.8379 C   0  0  1  0  0  0
  -27.2181  -27.3785   20.1297 C   0  0  0  0  0  0
  -25.5932  -33.8593   24.2307 N   0  0  0  0  0  0
  -23.4080  -30.4901   21.5494 C   0  0  2  0  0  0
  -24.8545  -28.9493   20.1147 C   0  0  0  0  0  0
  -22.7434  -29.4648   22.4978 C   0  0  0  0  0  0
  -18.0275  -28.1359   22.8497 C   0  0  0  0  0  0
  -24.1499  -36.7292   23.2630 C   0  0  0  0  0  0
  -25.9402  -30.8167   21.3640 C   0  0  0  0  0  0
  -26.0179  -29.4438   20.7196 C   0  0  0  0  0  0
  -27.2057  -28.6652   20.7296 C   0  0  0  0  0  0
  -26.0429  -26.9173   19.5008 C   0  0  0  0  0  0
  -24.8632  -27.6861   19.4988 C   0  0  0  0  0  0
  -23.6174  -29.8218   20.1644 C   0  0  0  0  0  0
  -25.4115  -36.3078   24.0329 C   0  0  1  0  0  0
  -20.5876  -28.3664   23.1312 C   0  0  2  0  0  0
  -20.6763  -26.9393   22.5421 C   0  0  0  0  0  0
  -19.5734  -26.6372   21.5216 C   0  0  0  0  0  0
  -18.1917  -26.7909   22.1627 C   0  0  0  0  0  0
  -19.1531  -28.8828   23.2889 C   0  0  0  0  0  0
  -18.9448  -30.1436   23.8891 C   0  0  0  0  0  0
  -17.6451  -30.6568   24.0558 C   0  0  0  0  0  0
  -25.9055  -34.9450   23.5113 C   0  0  0  0  0  0
  -16.5342  -29.9068   23.6319 C   0  0  0  0  0  0
  -16.7266  -28.6483   23.0345 C   0  0  0  0  0  0
  -26.4484  -31.6562   25.0709 C   0  0  0  0  0  0
  -25.3749  -31.3660   26.1467 C   0  0  0  0  0  0
  -27.0318  -30.3012   24.6063 C   0  0  0  0  0  0
  -27.6049  -32.4292   25.7463 C   0  0  0  0  0  0
  -27.5582  -37.1797   24.8453 C   0  0  0  0  0  0
  -21.4152  -29.3028   22.3714 N   0  0  0  0  0  0
  -26.4281  -37.3781   23.9424 N   0  0  0  0  0  0
  -24.6749  -31.0732   22.0986 N   0  0  0  0  0  0
  -23.4190  -28.8197   23.3049 O   0  0  0  0  0  0
  -28.3254  -26.5450   20.1191 O   0  0  0  0  0  0
  -26.5611  -34.8919   22.4675 O   0  0  0  0  0  0
  -23.5383  -32.1441   23.7437 O   0  0  0  0  0  0
  -29.8028  -18.5603   19.8428 C   0  0  0  0  0  0
  -29.9851  -18.1458   21.1452 C   0  0  0  0  0  0
  -29.3948  -20.5785   20.8649 C   0  0  0  0  0  0
  -28.3236  -23.2712   19.0647 C   0  0  0  0  0  0
  -27.2008  -25.0515   21.8695 C   0  0  0  0  0  0
  -30.5024  -16.8164   21.6971 C   0  0  0  0  0  0
  -29.5880  -24.5159   21.0054 C   0  0  0  0  0  0
  -29.3478  -23.1724   20.2048 C   0  0  1  0  0  0
  -28.4905  -25.6242   21.2374 C   0  0  1  0  0  0
  -29.5061  -19.9358   19.6972 N   0  0  0  0  0  0
  -29.1706  -21.9604   21.0349 N   0  0  0  0  0  0
  -29.9670  -15.5449   21.1542 N   0  0  0  0  0  0
  -29.6490  -19.4892   22.2361 S   0  0  0  0  0  0
  -31.4621  -12.4697   19.1244 H   0  0  0  0  0  0
  -30.3418  -11.3473   19.8456 H   0  0  0  0  0  0
  -29.7329  -11.7766   17.4468 H   0  0  0  0  0  0
  -29.6358  -13.4934   17.7576 H   0  0  0  0  0  0
  -27.8392  -11.3056   18.8508 H   0  0  0  0  0  0
  -27.3500  -12.6115   17.8036 H   0  0  0  0  0  0
  -27.6907  -14.2582   19.5686 H   0  0  0  0  0  0
  -28.6890  -11.9848   21.3491 H   0  0  0  0  0  0
  -28.4479  -13.6202   21.8753 H   0  0  0  0  0  0
  -25.2757   -9.5651   22.4767 H   0  0  0  0  0  0
  -23.9980   -7.4615   22.7468 H   0  0  0  0  0  0
  -21.0842   -8.8774   19.8939 H   0  0  0  0  0  0
  -22.3702  -10.9669   19.6161 H   0  0  0  0  0  0
  -21.2022   -7.6136   23.9695 H   0  0  0  0  0  0
  -21.1499   -6.0515   25.9071 H   0  0  0  0  0  0
  -22.0597   -2.7589   23.2848 H   0  0  0  0  0  0
  -22.4164  -11.9775   22.4720 H   0  0  0  0  0  0
  -21.1145  -13.1149   22.2765 H   0  0  0  0  0  0
  -24.6553  -15.8431   20.5171 H   0  0  0  0  0  0
  -26.2734  -15.6267   20.0766 H   0  0  0  0  0  0
  -26.7153  -32.5487   23.1139 H   0  0  0  0  0  0
  -25.0105  -33.9749   25.0466 H   0  0  0  0  0  0
  -22.6958  -31.3061   21.4123 H   0  0  0  0  0  0
  -23.3770  -35.9616   23.3244 H   0  0  0  0  0  0
  -24.3595  -36.8964   22.2054 H   0  0  0  0  0  0
  -23.7259  -37.6474   23.6699 H   0  0  0  0  0  0
  -26.0533  -31.5740   20.5868 H   0  0  0  0  0  0
  -26.8290  -30.8784   21.9785 H   0  0  0  0  0  0
  -28.1004  -29.0362   21.2098 H   0  0  0  0  0  0
  -26.0352  -25.9399   19.0391 H   0  0  0  0  0  0
  -23.9685  -27.3005   19.0282 H   0  0  0  0  0  0
  -23.7229  -30.5984   19.4057 H   0  0  0  0  0  0
  -22.7386  -29.2443   19.8708 H   0  0  0  0  0  0
  -25.1298  -36.1901   25.0821 H   0  0  0  0  0  0
  -20.9969  -28.3244   24.1433 H   0  0  0  0  0  0
  -20.5667  -26.2266   23.3619 H   0  0  0  0  0  0
  -21.6634  -26.7430   22.1212 H   0  0  0  0  0  0
  -19.6893  -25.6289   21.1227 H   0  0  0  0  0  0
  -19.6666  -27.3194   20.6765 H   0  0  0  0  0  0
  -17.4200  -26.6677   21.4011 H   0  0  0  0  0  0
  -18.0285  -26.0032   22.9001 H   0  0  0  0  0  0
  -19.7928  -30.7250   24.2251 H   0  0  0  0  0  0
  -17.5009  -31.6241   24.5167 H   0  0  0  0  0  0
  -15.5344  -30.2967   23.7630 H   0  0  0  0  0  0
  -15.8667  -28.0799   22.7065 H   0  0  0  0  0  0
  -24.5913  -30.6999   25.7805 H   0  0  0  0  0  0
  -24.8935  -32.2813   26.4932 H   0  0  0  0  0  0
  -25.8119  -30.8816   27.0212 H   0  0  0  0  0  0
  -26.2858  -29.6753   24.1151 H   0  0  0  0  0  0
  -27.4147  -29.7256   25.4487 H   0  0  0  0  0  0
  -27.8658  -30.4337   23.9177 H   0  0  0  0  0  0
  -27.2685  -33.3630   26.1979 H   0  0  0  0  0  0
  -28.3871  -32.6783   25.0282 H   0  0  0  0  0  0
  -28.0688  -31.8448   26.5412 H   0  0  0  0  0  0
  -28.2558  -38.0134   24.7556 H   0  0  0  0  0  0
  -28.1130  -36.2668   24.6224 H   0  0  0  0  0  0
  -27.2304  -37.1361   25.8852 H   0  0  0  0  0  0
  -20.9314  -29.8778   21.6957 H   0  0  0  0  0  0
  -26.0144  -38.2836   24.1490 H   0  0  0  0  0  0
  -29.9275  -17.9571   18.9536 H   0  0  0  0  0  0
  -28.4929  -24.1680   18.4686 H   0  0  0  0  0  0
  -27.2984  -23.3051   19.4263 H   0  0  0  0  0  0
  -28.4073  -22.4170   18.3921 H   0  0  0  0  0  0
  -27.4407  -24.4101   22.7183 H   0  0  0  0  0  0
  -26.6166  -24.4541   21.1728 H   0  0  0  0  0  0
  -26.5535  -25.8398   22.2587 H   0  0  0  0  0  0
  -30.2967  -16.7879   22.7680 H   0  0  0  0  0  0
  -31.5912  -16.8163   21.6321 H   0  0  0  0  0  0
  -30.4227  -25.0292   20.5251 H   0  0  0  0  0  0
  -29.9863  -24.2446   21.9845 H   0  0  0  0  0  0
  -30.3069  -22.9813   19.7172 H   0  0  0  0  0  0
  -28.9160  -26.2670   22.0099 H   0  0  0  0  0  0
  -29.0012  -22.1822   22.0109 H   0  0  0  0  0  0
  -29.0208  -15.3149   21.4173 H   0  0  0  0  0  0
  1 25  1  0  0  0
  1 30  2  0  0  0
  1 82  1  0  0  0
  2  3  1  0  0  0
  2 25  1  0  0  0
  2 84  1  0  0  0
  2 85  1  0  0  0
  3  4  1  0  0  0
  3 86  1  0  0  0
  3 87  1  0  0  0
  4  5  1  0  0  0
  4 88  1  0  0  0
  4 89  1  0  0  0
  5  6  1  0  0  0
  5 26  1  0  0  0
  5 90  1  0  0  0
  6 25  1  0  0  0
  6 91  1  0  0  0
  6 92  1  0  0  0
  7  8  2  0  0  0
  7 26  1  0  0  0
  7 29  1  0  0  0
  8  9  1  0  0  0
  8 22  1  0  0  0
  9 10  1  0  0  0
  9 27  2  0  0  0
 10 11  2  0  0  0
 10 15  1  0  0  0
 11 12  1  0  0  0
 11 93  1  0  0  0
 12 13  2  0  0  0
 12 94  1  0  0  0
 13 14  1  0  0  0
 13 31  1  0  0  0
 14 15  2  0  0  0
 14 95  1  0  0  0
 15 96  1  0  0  0
 16 17  2  0  0  0
 16 21  1  0  0  0
 16 31  1  0  0  0
 17 18  1  0  0  0
 17 97  1  0  0  0
 18 19  2  0  0  0
 18 98  1  0  0  0
 19 20  1  0  0  0
 19 24  1  0  0  0
 20 21  2  0  0  0
 20 99  1  0  0  0
 21 23  1  0  0  0
 22 28  1  0  0  0
 22 32  2  0  0  0
 26 27  1  0  0  0
 28100  1  0  0  0
 28101  1  0  0  0
 29102  1  0  0  0
 29103  1  0  0  0
 33 34  1  0  0  0
 33 66  1  0  0  0
 33 70  2  0  0  0
 34 36  1  0  0  0
 34 59  1  0  0  0
 34104  1  0  0  0
 35 44  2  0  0  0
 35 45  1  0  0  0
 35 68  1  0  0  0
 36 56  1  0  0  0
 36105  1  0  0  0
 37 39  1  0  0  0
 37 47  1  0  0  0
 37 66  1  0  0  0
 37106  1  0  0  0
 38 43  2  0  0  0
 38 46  1  0  0  0
 38 47  1  0  0  0
 39 64  1  0  0  0
 39 67  2  0  0  0
 40 52  1  0  0  0
 40 53  2  0  0  0
 40 58  1  0  0  0
 41107  1  0  0  0
 41108  1  0  0  0
 41109  1  0  0  0
 41 48  1  0  0  0
 42 43  1  0  0  0
 42 66  1  0  0  0
 42110  1  0  0  0
 42111  1  0  0  0
 43 44  1  0  0  0
 44112  1  0  0  0
 45 46  2  0  0  0
 45113  1  0  0  0
 46114  1  0  0  0
 47115  1  0  0  0
 47116  1  0  0  0
 48 56  1  0  0  0
 48 65  1  0  0  0
 48117  1  0  0  0
 49 50  1  0  0  0
 49 53  1  0  0  0
 49 64  1  0  0  0
 49118  1  0  0  0
 50 51  1  0  0  0
 50119  1  0  0  0
 50120  1  0  0  0
 51 52  1  0  0  0
 51121  1  0  0  0
 51122  1  0  0  0
 52123  1  0  0  0
 52124  1  0  0  0
 53 54  1  0  0  0
 54 55  2  0  0  0
 54125  1  0  0  0
 55 57  1  0  0  0
 55126  1  0  0  0
 56 69  2  0  0  0
 57 58  2  0  0  0
 57127  1  0  0  0
 58128  1  0  0  0
 59 60  1  0  0  0
 59 61  1  0  0  0
 59 62  1  0  0  0
 60129  1  0  0  0
 60130  1  0  0  0
 60131  1  0  0  0
 61132  1  0  0  0
 61133  1  0  0  0
 61134  1  0  0  0
 62135  1  0  0  0
 62136  1  0  0  0
 62137  1  0  0  0
 63 65  1  0  0  0
 63138  1  0  0  0
 63139  1  0  0  0
 63140  1  0  0  0
 64141  1  0  0  0
 65142  1  0  0  0
 68 79  1  0  0  0
 71 72  2  0  0  0
 71 80  1  0  0  0
 71143  1  0  0  0
 72 76  1  0  0  0
 72 83  1  0  0  0
 73 80  2  0  0  0
 73 81  1  0  0  0
 73 83  1  0  0  0
 74144  1  0  0  0
 74145  1  0  0  0
 74146  1  0  0  0
 74 78  1  0  0  0
 75147  1  0  0  0
 75148  1  0  0  0
 75149  1  0  0  0
 75 79  1  0  0  0
 76 82  1  0  0  0
 76150  1  0  0  0
 76151  1  0  0  0
 77 78  1  0  0  0
 77 79  1  0  0  0
 77152  1  0  0  0
 77153  1  0  0  0
 78 81  1  0  0  0
 78154  1  0  0  0
 79155  1  0  0  0
 81156  1  0  0  0
 82157  1  0  0  0
M  ISO  4   1 100  68 101  79 101  82 100
M  END
> <chiral flag>
0

> <version>
0

> <s_m_source_file>
/data/baiqing/PycharmProjects/Reinvent-master-3.2/result/LINK_invent/BTK/process_docking_weight1_custom_product_contain_oxygen_bond_distance_aromatic_linkinvent_7_9_3/rearranged_h_0193.sdf

> <i_m_source_file_index>
90

> <r_mmod_Potential_Energy-OPLS-2005>
-70.7329711914062

> <r_mmod_Stretch_Energy-OPLS-2005>
49.512134552002

> <r_mmod_Bend_Energy-OPLS-2005>
134.364868164062

> <r_mmod_Torsional_Energy-OPLS-2005>
237.642944335938

> <r_mmod_Improper_Torsional_Energy-OPLS-2005>
3.69761180877686

> <r_mmod_Van_der_Waal_Energy-OPLS-2005>
115.067604064941

> <r_mmod_Electrostatic_Energy-OPLS-2005>
-414.173522949219

> <r_mmod_Solvation_Energy-OPLS-2005>
-221.531188964844

> <b_mmod_Minimization_Converged-OPLS-2005>
0

> <r_mmod_RMS_Derivative-OPLS-2005>
2.75446271896362

$$$$
90
                    3D
 Structure written by MMmdl.
156164  0  0  1  0            999 V2000
  -30.7106  -14.5609   20.4383 C   0  0  0  0  0  0
  -30.4076  -12.3331   19.4552 C   0  0  0  0  0  0
  -29.4963  -12.4738   18.2191 C   0  0  0  0  0  0
  -28.0190  -12.3351   18.6321 C   0  0  0  0  0  0
  -27.6459  -13.2242   19.8498 C   0  0  2  0  0  0
  -28.6920  -13.1226   20.9831 C   0  0  0  0  0  0
  -25.2530  -13.8200   20.5678 C   0  0  0  0  0  0
  -24.1812  -13.0452   20.9199 C   0  0  0  0  0  0
  -24.6389  -11.6927   20.8744 C   0  0  0  0  0  0
  -23.9063  -10.4303   21.0399 C   0  0  0  0  0  0
  -24.3616   -9.4219   21.9177 C   0  0  0  0  0  0
  -23.6296   -8.2252   22.0749 C   0  0  0  0  0  0
  -22.4279   -8.0282   21.3539 C   0  0  0  0  0  0
  -21.9907   -9.0255   20.4640 C   0  0  0  0  0  0
  -22.7234  -10.2139   20.3046 C   0  0  0  0  0  0
  -21.6856   -6.0729   22.5278 C   0  0  0  0  0  0
  -21.4016   -6.5636   23.8210 C   0  0  0  0  0  0
  -21.3659   -5.6792   24.9175 C   0  0  0  0  0  0
  -21.6049   -4.3054   24.7229 C   0  0  0  0  0  0
  -21.8819   -3.8139   23.4352 C   0  0  0  0  0  0
  -21.9198   -4.6955   22.3406 C   0  0  0  0  0  0
  -22.7833  -13.5231   21.1864 C   0  0  0  0  0  0
  -22.1665   -4.2138   21.0984 F   0  0  0  0  0  0
  -21.5627   -3.4537   25.7741 F   0  0  0  0  0  0
  -30.0106  -13.3910   20.4010 N   0  0  0  0  0  0
  -26.2954  -12.9400   20.3280 N   0  0  0  0  0  0
  -25.9320  -11.6553   20.5762 N   0  0  0  0  0  0
  -22.0475  -12.8215   22.0414 N   0  0  0  0  0  0
  -25.4232  -15.1921   20.4086 N   0  0  0  0  0  0
  -31.9286  -14.5706   20.2476 O   0  0  0  0  0  0
  -21.6652   -6.8872   21.4238 O   0  0  0  0  0  0
  -22.3518  -14.5538   20.6721 O   0  0  0  0  0  0
  -24.6199  -31.8644   23.2071 C   0  0  0  0  0  0
  -25.9073  -32.4804   23.8379 C   0  0  1  0  0  0
  -27.2193  -27.3844   20.1102 C   0  0  0  0  0  0
  -25.5923  -33.8604   24.2316 N   0  0  0  0  0  0
  -23.4089  -30.4901   21.5479 C   0  0  2  0  0  0
  -24.8538  -28.9520   20.1122 C   0  0  0  0  0  0
  -22.7443  -29.4646   22.4959 C   0  0  0  0  0  0
  -18.0275  -28.1387   22.8493 C   0  0  0  0  0  0
  -24.1484  -36.7301   23.2634 C   0  0  0  0  0  0
  -25.9441  -30.8178   21.3657 C   0  0  0  0  0  0
  -26.0202  -29.4489   20.7112 C   0  0  0  0  0  0
  -27.2092  -28.6740   20.7051 C   0  0  0  0  0  0
  -26.0395  -26.9216   19.4920 C   0  0  0  0  0  0
  -24.8618  -27.6902   19.4961 C   0  0  0  0  0  0
  -23.6192  -29.8238   20.1623 C   0  0  0  0  0  0
  -25.4106  -36.3109   24.0342 C   0  0  1  0  0  0
  -20.5874  -28.3677   23.1306 C   0  0  2  0  0  0
  -20.6774  -26.9409   22.5418 C   0  0  0  0  0  0
  -19.5749  -26.6390   21.5218 C   0  0  0  0  0  0
  -18.1920  -26.7932   22.1621 C   0  0  0  0  0  0
  -19.1526  -28.8846   23.2894 C   0  0  0  0  0  0
  -18.9456  -30.1454   23.8905 C   0  0  0  0  0  0
  -17.6456  -30.6586   24.0561 C   0  0  0  0  0  0
  -25.9046  -34.9478   23.5126 C   0  0  0  0  0  0
  -16.5345  -29.9090   23.6330 C   0  0  0  0  0  0
  -16.7261  -28.6508   23.0349 C   0  0  0  0  0  0
  -26.4493  -31.6589   25.0713 C   0  0  0  0  0  0
  -25.3747  -31.3712   26.1452 C   0  0  0  0  0  0
  -27.0308  -30.3019   24.6110 C   0  0  0  0  0  0
  -27.6078  -32.4292   25.7472 C   0  0  0  0  0  0
  -27.5576  -37.1803   24.8465 C   0  0  0  0  0  0
  -21.4166  -29.3039   22.3707 N   0  0  0  0  0  0
  -26.4283  -37.3800   23.9416 N   0  0  0  0  0  0
  -24.6764  -31.0717   22.0982 N   0  0  0  0  0  0
  -23.4209  -28.8181   23.3000 O   0  0  0  0  0  0
  -28.3354  -26.5625   20.1222 O   0  0  0  0  0  0
  -26.5593  -34.8939   22.4681 O   0  0  0  0  0  0
  -23.5380  -32.1393   23.7454 O   0  0  0  0  0  0
  -31.4910  -17.8082   17.8405 C   0  0  0  0  0  0
  -29.9843  -18.2301   19.7691 C   0  0  0  0  0  0
  -30.3796  -16.8866   19.6242 C   0  0  0  0  0  0
  -29.0794  -19.0329   20.6657 C   0  0  0  0  0  0
  -28.6160  -22.8223   21.4169 C   0  0  0  0  0  0
  -28.1401  -21.3428   21.1485 C   0  0  0  0  0  0
  -28.2079  -25.3719   20.9555 C   0  0  0  0  0  0
  -28.5684  -23.9695   20.3238 C   0  0  2  0  0  0
  -31.1999  -16.6905   18.4958 N   0  0  0  0  0  0
  -30.0089  -15.7328   20.4260 N   0  0  0  0  0  0
  -29.1167  -20.3932   20.5730 N   0  0  0  0  0  0
  -27.6617  -23.6513   19.1965 N   0  3  0  0  0  0
  -28.3073  -18.4541   21.4315 O   0  0  0  0  0  0
  -30.7363  -19.2211   18.5139 S   0  0  0  0  0  0
  -31.4558  -12.4013   19.1582 H   0  0  0  0  0  0
  -30.2899  -11.3506   19.9146 H   0  0  0  0  0  0
  -29.7486  -11.7150   17.4771 H   0  0  0  0  0  0
  -29.6606  -13.4404   17.7394 H   0  0  0  0  0  0
  -27.8479  -11.2859   18.8752 H   0  0  0  0  0  0
  -27.3669  -12.5593   17.7873 H   0  0  0  0  0  0
  -27.6554  -14.2515   19.4864 H   0  0  0  0  0  0
  -28.6797  -12.1308   21.4382 H   0  0  0  0  0  0
  -28.4661  -13.8310   21.7818 H   0  0  0  0  0  0
  -25.2759   -9.5710   22.4750 H   0  0  0  0  0  0
  -24.0009   -7.4645   22.7469 H   0  0  0  0  0  0
  -21.0835   -8.8773   19.8947 H   0  0  0  0  0  0
  -22.3683  -10.9674   19.6156 H   0  0  0  0  0  0
  -21.2004   -7.6144   23.9710 H   0  0  0  0  0  0
  -21.1478   -6.0521   25.9078 H   0  0  0  0  0  0
  -22.0597   -2.7601   23.2859 H   0  0  0  0  0  0
  -22.4102  -11.9878   22.4804 H   0  0  0  0  0  0
  -21.1086  -13.1229   22.2613 H   0  0  0  0  0  0
  -24.6568  -15.8464   20.5243 H   0  0  0  0  0  0
  -26.2738  -15.6351   20.0856 H   0  0  0  0  0  0
  -26.7152  -32.5504   23.1150 H   0  0  0  0  0  0
  -25.0134  -33.9761   25.0506 H   0  0  0  0  0  0
  -22.6988  -31.3086   21.4092 H   0  0  0  0  0  0
  -23.3757  -35.9623   23.3297 H   0  0  0  0  0  0
  -24.3581  -36.8895   22.2048 H   0  0  0  0  0  0
  -23.7228  -37.6507   23.6632 H   0  0  0  0  0  0
  -26.0635  -31.5830   20.5969 H   0  0  0  0  0  0
  -26.8312  -30.8710   21.9863 H   0  0  0  0  0  0
  -28.1062  -29.0480   21.1778 H   0  0  0  0  0  0
  -26.0176  -25.9582   19.0079 H   0  0  0  0  0  0
  -23.9687  -27.3045   19.0237 H   0  0  0  0  0  0
  -23.7333  -30.5995   19.4048 H   0  0  0  0  0  0
  -22.7422  -29.2477   19.8617 H   0  0  0  0  0  0
  -25.1287  -36.1974   25.0837 H   0  0  0  0  0  0
  -20.9961  -28.3250   24.1429 H   0  0  0  0  0  0
  -20.5693  -26.2284   23.3610 H   0  0  0  0  0  0
  -21.6645  -26.7461   22.1202 H   0  0  0  0  0  0
  -19.6913  -25.6308   21.1232 H   0  0  0  0  0  0
  -19.6691  -27.3217   20.6763 H   0  0  0  0  0  0
  -17.4202  -26.6682   21.4009 H   0  0  0  0  0  0
  -18.0311  -26.0072   22.9017 H   0  0  0  0  0  0
  -19.7933  -30.7265   24.2273 H   0  0  0  0  0  0
  -17.5014  -31.6264   24.5169 H   0  0  0  0  0  0
  -15.5346  -30.2997   23.7656 H   0  0  0  0  0  0
  -15.8659  -28.0832   22.7057 H   0  0  0  0  0  0
  -24.5968  -30.6993   25.7811 H   0  0  0  0  0  0
  -24.8882  -32.2865   26.4834 H   0  0  0  0  0  0
  -25.8108  -30.8960   27.0248 H   0  0  0  0  0  0
  -26.2854  -29.6796   24.1141 H   0  0  0  0  0  0
  -27.4036  -29.7251   25.4586 H   0  0  0  0  0  0
  -27.8725  -30.4314   23.9296 H   0  0  0  0  0  0
  -27.2718  -33.3605   26.2045 H   0  0  0  0  0  0
  -28.3899  -32.6807   25.0295 H   0  0  0  0  0  0
  -28.0730  -31.8399   26.5384 H   0  0  0  0  0  0
  -28.2604  -38.0092   24.7526 H   0  0  0  0  0  0
  -28.1058  -36.2631   24.6273 H   0  0  0  0  0  0
  -27.2294  -37.1435   25.8864 H   0  0  0  0  0  0
  -20.9325  -29.8758   21.6929 H   0  0  0  0  0  0
  -26.0174  -38.2872   24.1430 H   0  0  0  0  0  0
  -32.1292  -17.8020   16.9680 H   0  0  0  0  0  0
  -29.6106  -22.8025   21.8639 H   0  0  0  0  0  0
  -27.9791  -23.1641   22.2346 H   0  0  0  0  0  0
  -27.2315  -21.3279   20.5469 H   0  0  0  0  0  0
  -27.8379  -20.9325   22.1143 H   0  0  0  0  0  0
  -28.8688  -25.5370   21.8065 H   0  0  0  0  0  0
  -27.2090  -25.3118   21.3927 H   0  0  0  0  0  0
  -29.5693  -24.0490   19.8953 H   0  0  0  0  0  0
  -29.0688  -15.7178   20.7900 H   0  0  0  0  0  0
  -29.8202  -20.7717   19.9532 H   0  0  0  0  0  0
  -26.7058  -23.5415   19.4900 H   0  0  0  0  0  0
  -27.9498  -22.8108   18.7252 H   0  0  0  0  0  0
  -27.7005  -24.3899   18.5128 H   0  0  0  0  0  0
  1 25  1  0  0  0
  1 30  2  0  0  0
  1 80  1  0  0  0
  2  3  1  0  0  0
  2 25  1  0  0  0
  2 85  1  0  0  0
  2 86  1  0  0  0
  3  4  1  0  0  0
  3 87  1  0  0  0
  3 88  1  0  0  0
  4  5  1  0  0  0
  4 89  1  0  0  0
  4 90  1  0  0  0
  5  6  1  0  0  0
  5 26  1  0  0  0
  5 91  1  0  0  0
  6 25  1  0  0  0
  6 92  1  0  0  0
  6 93  1  0  0  0
  7  8  2  0  0  0
  7 26  1  0  0  0
  7 29  1  0  0  0
  8  9  1  0  0  0
  8 22  1  0  0  0
  9 10  1  0  0  0
  9 27  2  0  0  0
 10 11  2  0  0  0
 10 15  1  0  0  0
 11 12  1  0  0  0
 11 94  1  0  0  0
 12 13  2  0  0  0
 12 95  1  0  0  0
 13 14  1  0  0  0
 13 31  1  0  0  0
 14 15  2  0  0  0
 14 96  1  0  0  0
 15 97  1  0  0  0
 16 17  2  0  0  0
 16 21  1  0  0  0
 16 31  1  0  0  0
 17 18  1  0  0  0
 17 98  1  0  0  0
 18 19  2  0  0  0
 18 99  1  0  0  0
 19 20  1  0  0  0
 19 24  1  0  0  0
 20 21  2  0  0  0
 20100  1  0  0  0
 21 23  1  0  0  0
 22 28  1  0  0  0
 22 32  2  0  0  0
 26 27  1  0  0  0
 28101  1  0  0  0
 28102  1  0  0  0
 29103  1  0  0  0
 29104  1  0  0  0
 33 34  1  0  0  0
 33 66  1  0  0  0
 33 70  2  0  0  0
 34 36  1  0  0  0
 34 59  1  0  0  0
 34105  1  0  0  0
 35 44  2  0  0  0
 35 45  1  0  0  0
 35 68  1  0  0  0
 36 56  1  0  0  0
 36106  1  0  0  0
 37 39  1  0  0  0
 37 47  1  0  0  0
 37 66  1  0  0  0
 37107  1  0  0  0
 38 43  2  0  0  0
 38 46  1  0  0  0
 38 47  1  0  0  0
 39 64  1  0  0  0
 39 67  2  0  0  0
 40 52  1  0  0  0
 40 53  2  0  0  0
 40 58  1  0  0  0
 41108  1  0  0  0
 41109  1  0  0  0
 41110  1  0  0  0
 41 48  1  0  0  0
 42 43  1  0  0  0
 42 66  1  0  0  0
 42111  1  0  0  0
 42112  1  0  0  0
 43 44  1  0  0  0
 44113  1  0  0  0
 45 46  2  0  0  0
 45114  1  0  0  0
 46115  1  0  0  0
 47116  1  0  0  0
 47117  1  0  0  0
 48 56  1  0  0  0
 48 65  1  0  0  0
 48118  1  0  0  0
 49 50  1  0  0  0
 49 53  1  0  0  0
 49 64  1  0  0  0
 49119  1  0  0  0
 50 51  1  0  0  0
 50120  1  0  0  0
 50121  1  0  0  0
 51 52  1  0  0  0
 51122  1  0  0  0
 51123  1  0  0  0
 52124  1  0  0  0
 52125  1  0  0  0
 53 54  1  0  0  0
 54 55  2  0  0  0
 54126  1  0  0  0
 55 57  1  0  0  0
 55127  1  0  0  0
 56 69  2  0  0  0
 57 58  2  0  0  0
 57128  1  0  0  0
 58129  1  0  0  0
 59 60  1  0  0  0
 59 61  1  0  0  0
 59 62  1  0  0  0
 60130  1  0  0  0
 60131  1  0  0  0
 60132  1  0  0  0
 61133  1  0  0  0
 61134  1  0  0  0
 61135  1  0  0  0
 62136  1  0  0  0
 62137  1  0  0  0
 62138  1  0  0  0
 63 65  1  0  0  0
 63139  1  0  0  0
 63140  1  0  0  0
 63141  1  0  0  0
 64142  1  0  0  0
 65143  1  0  0  0
 68 77  1  0  0  0
 71 79  2  0  0  0
 71 84  1  0  0  0
 71144  1  0  0  0
 72 73  2  0  0  0
 72 74  1  0  0  0
 72 84  1  0  0  0
 73 79  1  0  0  0
 73 80  1  0  0  0
 74 81  1  0  0  0
 74 83  2  0  0  0
 75 76  1  0  0  0
 75 78  1  0  0  0
 75145  1  0  0  0
 75146  1  0  0  0
 76 81  1  0  0  0
 76147  1  0  0  0
 76148  1  0  0  0
 77 78  1  0  0  0
 77149  1  0  0  0
 77150  1  0  0  0
 78 82  1  0  0  0
 78151  1  0  0  0
 80152  1  0  0  0
 81153  1  0  0  0
 82154  1  0  0  0
 82155  1  0  0  0
 82156  1  0  0  0
M  CHG  1  82   1
M  ISO  4   1 100  68 101  77 101  80 100
M  END
> <chiral flag>
0

> <version>
0

> <s_m_source_file>
/data/baiqing/PycharmProjects/Reinvent-master-3.2/result/LINK_invent/BTK/process_docking_weight1_custom_product_contain_oxygen_bond_distance_aromatic_linkinvent_7_9_3/rearranged_h_0193.sdf

> <i_m_source_file_index>
91

> <r_mmod_Potential_Energy-OPLS-2005>
-125.175117492676

> <r_mmod_Stretch_Energy-OPLS-2005>
59.5462989807129

> <r_mmod_Bend_Energy-OPLS-2005>
131.973754882812

> <r_mmod_Torsional_Energy-OPLS-2005>
307.435791015625

> <r_mmod_Improper_Torsional_Energy-OPLS-2005>
7.03798198699951

> <r_mmod_Van_der_Waal_Energy-OPLS-2005>
133.003005981445

> <r_mmod_Electrostatic_Energy-OPLS-2005>
-263.992706298828

> <r_mmod_Solvation_Energy-OPLS-2005>
-539.708251953125

> <b_mmod_Minimization_Converged-OPLS-2005>
0

> <r_mmod_RMS_Derivative-OPLS-2005>
1.46934008598328

$$$$
91
                    3D
 Structure written by MMmdl.
157165  0  0  1  0            999 V2000
  -30.6443  -14.5358   20.5337 C   0  0  0  0  0  0
  -30.4277  -12.3268   19.4517 C   0  0  0  0  0  0
  -29.5064  -12.4992   18.2237 C   0  0  0  0  0  0
  -28.0239  -12.3583   18.6259 C   0  0  0  0  0  0
  -27.6582  -13.2050   19.8745 C   0  0  2  0  0  0
  -28.6953  -13.0121   21.0058 C   0  0  0  0  0  0
  -25.2606  -13.8167   20.5701 C   0  0  0  0  0  0
  -24.1864  -13.0449   20.9198 C   0  0  0  0  0  0
  -24.6405  -11.6895   20.8741 C   0  0  0  0  0  0
  -23.9075  -10.4298   21.0422 C   0  0  0  0  0  0
  -24.3627   -9.4211   21.9197 C   0  0  0  0  0  0
  -23.6308   -8.2251   22.0763 C   0  0  0  0  0  0
  -22.4289   -8.0297   21.3548 C   0  0  0  0  0  0
  -21.9929   -9.0269   20.4644 C   0  0  0  0  0  0
  -22.7261  -10.2151   20.3059 C   0  0  0  0  0  0
  -21.6839   -6.0756   22.5287 C   0  0  0  0  0  0
  -21.4009   -6.5651   23.8223 C   0  0  0  0  0  0
  -21.3658   -5.6799   24.9186 C   0  0  0  0  0  0
  -21.6033   -4.3064   24.7220 C   0  0  0  0  0  0
  -21.8825   -3.8164   23.4337 C   0  0  0  0  0  0
  -21.9196   -4.6987   22.3401 C   0  0  0  0  0  0
  -22.7883  -13.5249   21.1839 C   0  0  0  0  0  0
  -22.1661   -4.2174   21.0976 F   0  0  0  0  0  0
  -21.5629   -3.4545   25.7731 F   0  0  0  0  0  0
  -30.0229  -13.3253   20.4580 N   0  0  0  0  0  0
  -26.3011  -12.9311   20.3352 N   0  0  0  0  0  0
  -25.9320  -11.6474   20.5754 N   0  0  0  0  0  0
  -22.0502  -12.8231   22.0380 N   0  0  0  0  0  0
  -25.4369  -15.1892   20.4150 N   0  0  0  0  0  0
  -31.7939  -14.7110   20.1174 O   0  0  0  0  0  0
  -21.6635   -6.8903   21.4254 O   0  0  0  0  0  0
  -22.3583  -14.5559   20.6694 O   0  0  0  0  0  0
  -24.6209  -31.8627   23.2019 C   0  0  0  0  0  0
  -25.9080  -32.4798   23.8355 C   0  0  1  0  0  0
  -27.2300  -27.3654   20.1205 C   0  0  0  0  0  0
  -25.5915  -33.8590   24.2279 N   0  0  0  0  0  0
  -23.4138  -30.4793   21.5464 C   0  0  2  0  0  0
  -24.8594  -28.9311   20.1169 C   0  0  0  0  0  0
  -22.7478  -29.4596   22.4998 C   0  0  0  0  0  0
  -18.0289  -28.1352   22.8501 C   0  0  0  0  0  0
  -24.1496  -36.7296   23.2642 C   0  0  0  0  0  0
  -25.9445  -30.8129   21.3589 C   0  0  0  0  0  0
  -26.0216  -29.4364   20.7124 C   0  0  0  0  0  0
  -27.2128  -28.6618   20.7037 C   0  0  0  0  0  0
  -26.0499  -26.8897   19.5141 C   0  0  0  0  0  0
  -24.8698  -27.6634   19.5076 C   0  0  0  0  0  0
  -23.6228  -29.8053   20.1640 C   0  0  0  0  0  0
  -25.4129  -36.3089   24.0314 C   0  0  1  0  0  0
  -20.5883  -28.3642   23.1334 C   0  0  2  0  0  0
  -20.6786  -26.9380   22.5433 C   0  0  0  0  0  0
  -19.5761  -26.6382   21.5200 C   0  0  0  0  0  0
  -18.1933  -26.7908   22.1614 C   0  0  0  0  0  0
  -19.1540  -28.8820   23.2902 C   0  0  0  0  0  0
  -18.9464  -30.1428   23.8909 C   0  0  0  0  0  0
  -17.6462  -30.6580   24.0548 C   0  0  0  0  0  0
  -25.9038  -34.9458   23.5096 C   0  0  0  0  0  0
  -16.5349  -29.9068   23.6325 C   0  0  0  0  0  0
  -16.7274  -28.6469   23.0362 C   0  0  0  0  0  0
  -26.4487  -31.6602   25.0714 C   0  0  0  0  0  0
  -25.3711  -31.3713   26.1441 C   0  0  0  0  0  0
  -27.0339  -30.3063   24.6043 C   0  0  0  0  0  0
  -27.6068  -32.4338   25.7457 C   0  0  0  0  0  0
  -27.5580  -37.1797   24.8460 C   0  0  0  0  0  0
  -21.4184  -29.3002   22.3749 N   0  0  0  0  0  0
  -26.4307  -37.3775   23.9378 N   0  0  0  0  0  0
  -24.6793  -31.0664   22.0944 N   0  0  0  0  0  0
  -23.4222  -28.8159   23.3087 O   0  0  0  0  0  0
  -28.3948  -26.6070   20.0889 O   0  0  0  0  0  0
  -26.5631  -34.8937   22.4668 O   0  0  0  0  0  0
  -23.5402  -32.1424   23.7384 O   0  0  0  0  0  0
  -28.3572  -18.0320   21.9507 C   0  0  0  0  0  0
  -29.2200  -18.0885   20.8834 C   0  0  0  0  0  0
  -28.5925  -20.3303   21.0312 C   0  0  0  0  0  0
  -29.4117  -16.8001   18.7531 C   0  0  0  0  0  0
  -29.5527  -22.0701   18.5479 C   0  0  0  0  0  0
  -28.3346  -24.0594   19.5851 C   0  0  0  0  0  0
  -28.3946  -25.2432   20.6184 C   0  0  0  0  0  0
  -29.9483  -16.9293   20.1907 C   0  0  2  0  0  0
  -29.1341  -22.7171   19.8800 C   0  0  1  0  0  0
  -29.3704  -19.4215   20.4128 N   0  0  0  0  0  0
  -28.4593  -21.7095   20.7334 N   0  0  0  0  0  0
  -29.8352  -15.5881   20.8204 N   0  0  0  0  0  0
  -27.6675  -19.5982   22.3391 S   0  0  0  0  0  0
  -31.4744  -12.4315   19.1587 H   0  0  0  0  0  0
  -30.3347  -11.3210   19.8635 H   0  0  0  0  0  0
  -29.7572  -11.7621   17.4597 H   0  0  0  0  0  0
  -29.6730  -13.4775   17.7699 H   0  0  0  0  0  0
  -27.8335  -11.3019   18.8228 H   0  0  0  0  0  0
  -27.3816  -12.6298   17.7873 H   0  0  0  0  0  0
  -27.6942  -14.2474   19.5585 H   0  0  0  0  0  0
  -28.6804  -11.9826   21.3678 H   0  0  0  0  0  0
  -28.4553  -13.6338   21.8698 H   0  0  0  0  0  0
  -25.2769   -9.5673   22.4769 H   0  0  0  0  0  0
  -24.0005   -7.4637   22.7471 H   0  0  0  0  0  0
  -21.0873   -8.8801   19.8927 H   0  0  0  0  0  0
  -22.3751  -10.9693   19.6168 H   0  0  0  0  0  0
  -21.1998   -7.6156   23.9738 H   0  0  0  0  0  0
  -21.1470   -6.0522   25.9085 H   0  0  0  0  0  0
  -22.0604   -2.7625   23.2830 H   0  0  0  0  0  0
  -22.4111  -11.9885   22.4742 H   0  0  0  0  0  0
  -21.1115  -13.1257   22.2530 H   0  0  0  0  0  0
  -24.6752  -15.8462   20.5320 H   0  0  0  0  0  0
  -26.2900  -15.6273   20.0932 H   0  0  0  0  0  0
  -26.7158  -32.5528   23.1126 H   0  0  0  0  0  0
  -25.0041  -33.9725   25.0414 H   0  0  0  0  0  0
  -22.7050  -31.2956   21.4023 H   0  0  0  0  0  0
  -23.3750  -35.9638   23.3309 H   0  0  0  0  0  0
  -24.3566  -36.8942   22.2056 H   0  0  0  0  0  0
  -23.7271  -37.6490   23.6694 H   0  0  0  0  0  0
  -26.0472  -31.5743   20.5861 H   0  0  0  0  0  0
  -26.8334  -30.8804   21.9724 H   0  0  0  0  0  0
  -28.1175  -29.0426   21.1550 H   0  0  0  0  0  0
  -26.0469  -25.9236   19.0292 H   0  0  0  0  0  0
  -23.9783  -27.2769   19.0320 H   0  0  0  0  0  0
  -23.7243  -30.5759   19.3971 H   0  0  0  0  0  0
  -22.7483  -29.2185   19.8786 H   0  0  0  0  0  0
  -25.1301  -36.1924   25.0803 H   0  0  0  0  0  0
  -20.9955  -28.3239   24.1451 H   0  0  0  0  0  0
  -20.5716  -26.2241   23.3628 H   0  0  0  0  0  0
  -21.6665  -26.7459   22.1188 H   0  0  0  0  0  0
  -19.6931  -25.6278   21.1246 H   0  0  0  0  0  0
  -19.6706  -27.3229   20.6742 H   0  0  0  0  0  0
  -17.4210  -26.6682   21.4000 H   0  0  0  0  0  0
  -18.0273  -26.0033   22.8987 H   0  0  0  0  0  0
  -19.7946  -30.7216   24.2322 H   0  0  0  0  0  0
  -17.5016  -31.6275   24.5138 H   0  0  0  0  0  0
  -15.5345  -30.2962   23.7648 H   0  0  0  0  0  0
  -15.8665  -28.0789   22.7072 H   0  0  0  0  0  0
  -24.5931  -30.7003   25.7760 H   0  0  0  0  0  0
  -24.8808  -32.2846   26.4835 H   0  0  0  0  0  0
  -25.8035  -30.8949   27.0247 H   0  0  0  0  0  0
  -26.2861  -29.6781   24.1173 H   0  0  0  0  0  0
  -27.4242  -29.7341   25.4462 H   0  0  0  0  0  0
  -27.8644  -30.4413   23.9106 H   0  0  0  0  0  0
  -27.2740  -33.3734   26.1884 H   0  0  0  0  0  0
  -28.3932  -32.6723   25.0277 H   0  0  0  0  0  0
  -28.0616  -31.8501   26.5467 H   0  0  0  0  0  0
  -28.2596  -38.0100   24.7512 H   0  0  0  0  0  0
  -28.1087  -36.2622   24.6302 H   0  0  0  0  0  0
  -27.2272  -37.1465   25.8860 H   0  0  0  0  0  0
  -20.9377  -29.8721   21.6941 H   0  0  0  0  0  0
  -26.0200  -38.2842   24.1406 H   0  0  0  0  0  0
  -28.0575  -17.1622   22.5217 H   0  0  0  0  0  0
  -29.4910  -17.7422   18.2126 H   0  0  0  0  0  0
  -28.3595  -16.5134   18.7529 H   0  0  0  0  0  0
  -29.9660  -16.0529   18.1828 H   0  0  0  0  0  0
  -30.0893  -22.7737   17.9103 H   0  0  0  0  0  0
  -28.6850  -21.7130   17.9909 H   0  0  0  0  0  0
  -30.2281  -21.2271   18.6946 H   0  0  0  0  0  0
  -28.7612  -24.4778   18.6718 H   0  0  0  0  0  0
  -27.3005  -23.8347   19.3175 H   0  0  0  0  0  0
  -29.3542  -25.1595   21.1305 H   0  0  0  0  0  0
  -27.6397  -25.1180   21.3966 H   0  0  0  0  0  0
  -31.0101  -17.1805   20.1396 H   0  0  0  0  0  0
  -30.0526  -22.9941   20.4010 H   0  0  0  0  0  0
  -27.7993  -22.1390   21.3760 H   0  0  0  0  0  0
  -28.9344  -15.3527   21.2054 H   0  0  0  0  0  0
  1 25  1  0  0  0
  1 30  2  0  0  0
  1 82  1  0  0  0
  2  3  1  0  0  0
  2 25  1  0  0  0
  2 84  1  0  0  0
  2 85  1  0  0  0
  3  4  1  0  0  0
  3 86  1  0  0  0
  3 87  1  0  0  0
  4  5  1  0  0  0
  4 88  1  0  0  0
  4 89  1  0  0  0
  5  6  1  0  0  0
  5 26  1  0  0  0
  5 90  1  0  0  0
  6 25  1  0  0  0
  6 91  1  0  0  0
  6 92  1  0  0  0
  7  8  2  0  0  0
  7 26  1  0  0  0
  7 29  1  0  0  0
  8  9  1  0  0  0
  8 22  1  0  0  0
  9 10  1  0  0  0
  9 27  2  0  0  0
 10 11  2  0  0  0
 10 15  1  0  0  0
 11 12  1  0  0  0
 11 93  1  0  0  0
 12 13  2  0  0  0
 12 94  1  0  0  0
 13 14  1  0  0  0
 13 31  1  0  0  0
 14 15  2  0  0  0
 14 95  1  0  0  0
 15 96  1  0  0  0
 16 17  2  0  0  0
 16 21  1  0  0  0
 16 31  1  0  0  0
 17 18  1  0  0  0
 17 97  1  0  0  0
 18 19  2  0  0  0
 18 98  1  0  0  0
 19 20  1  0  0  0
 19 24  1  0  0  0
 20 21  2  0  0  0
 20 99  1  0  0  0
 21 23  1  0  0  0
 22 28  1  0  0  0
 22 32  2  0  0  0
 26 27  1  0  0  0
 28100  1  0  0  0
 28101  1  0  0  0
 29102  1  0  0  0
 29103  1  0  0  0
 33 34  1  0  0  0
 33 66  1  0  0  0
 33 70  2  0  0  0
 34 36  1  0  0  0
 34 59  1  0  0  0
 34104  1  0  0  0
 35 44  2  0  0  0
 35 45  1  0  0  0
 35 68  1  0  0  0
 36 56  1  0  0  0
 36105  1  0  0  0
 37 39  1  0  0  0
 37 47  1  0  0  0
 37 66  1  0  0  0
 37106  1  0  0  0
 38 43  2  0  0  0
 38 46  1  0  0  0
 38 47  1  0  0  0
 39 64  1  0  0  0
 39 67  2  0  0  0
 40 52  1  0  0  0
 40 53  2  0  0  0
 40 58  1  0  0  0
 41107  1  0  0  0
 41108  1  0  0  0
 41109  1  0  0  0
 41 48  1  0  0  0
 42 43  1  0  0  0
 42 66  1  0  0  0
 42110  1  0  0  0
 42111  1  0  0  0
 43 44  1  0  0  0
 44112  1  0  0  0
 45 46  2  0  0  0
 45113  1  0  0  0
 46114  1  0  0  0
 47115  1  0  0  0
 47116  1  0  0  0
 48 56  1  0  0  0
 48 65  1  0  0  0
 48117  1  0  0  0
 49 50  1  0  0  0
 49 53  1  0  0  0
 49 64  1  0  0  0
 49118  1  0  0  0
 50 51  1  0  0  0
 50119  1  0  0  0
 50120  1  0  0  0
 51 52  1  0  0  0
 51121  1  0  0  0
 51122  1  0  0  0
 52123  1  0  0  0
 52124  1  0  0  0
 53 54  1  0  0  0
 54 55  2  0  0  0
 54125  1  0  0  0
 55 57  1  0  0  0
 55126  1  0  0  0
 56 69  2  0  0  0
 57 58  2  0  0  0
 57127  1  0  0  0
 58128  1  0  0  0
 59 60  1  0  0  0
 59 61  1  0  0  0
 59 62  1  0  0  0
 60129  1  0  0  0
 60130  1  0  0  0
 60131  1  0  0  0
 61132  1  0  0  0
 61133  1  0  0  0
 61134  1  0  0  0
 62135  1  0  0  0
 62136  1  0  0  0
 62137  1  0  0  0
 63 65  1  0  0  0
 63138  1  0  0  0
 63139  1  0  0  0
 63140  1  0  0  0
 64141  1  0  0  0
 65142  1  0  0  0
 68 77  1  0  0  0
 71 72  2  0  0  0
 71 83  1  0  0  0
 71143  1  0  0  0
 72 78  1  0  0  0
 72 80  1  0  0  0
 73 80  2  0  0  0
 73 81  1  0  0  0
 73 83  1  0  0  0
 74144  1  0  0  0
 74145  1  0  0  0
 74146  1  0  0  0
 74 78  1  0  0  0
 75147  1  0  0  0
 75148  1  0  0  0
 75149  1  0  0  0
 75 79  1  0  0  0
 76 77  1  0  0  0
 76 79  1  0  0  0
 76150  1  0  0  0
 76151  1  0  0  0
 77152  1  0  0  0
 77153  1  0  0  0
 78 82  1  0  0  0
 78154  1  0  0  0
 79 81  1  0  0  0
 79155  1  0  0  0
 81156  1  0  0  0
 82157  1  0  0  0
M  ISO  4   1 100  68 101  77 101  82 100
M  END
> <chiral flag>
0

> <version>
0

> <s_m_source_file>
/data/baiqing/PycharmProjects/Reinvent-master-3.2/result/LINK_invent/BTK/process_docking_weight1_custom_product_contain_oxygen_bond_distance_aromatic_linkinvent_7_9_3/rearranged_h_0193.sdf

> <i_m_source_file_index>
92

> <r_mmod_Potential_Energy-OPLS-2005>
-192.153686523438

> <r_mmod_Stretch_Energy-OPLS-2005>
53.7810401916504

> <r_mmod_Bend_Energy-OPLS-2005>
120.809539794922

> <r_mmod_Torsional_Energy-OPLS-2005>
220.528961181641

> <r_mmod_Improper_Torsional_Energy-OPLS-2005>
8.64345455169678

> <r_mmod_Van_der_Waal_Energy-OPLS-2005>
115.596710205078

> <r_mmod_Electrostatic_Energy-OPLS-2005>
-509.538543701172

> <r_mmod_Solvation_Energy-OPLS-2005>
-225.181762695312

> <b_mmod_Minimization_Converged-OPLS-2005>
0

> <r_mmod_RMS_Derivative-OPLS-2005>
4.34696960449219

$$$$
92
                    3D
 Structure written by MMmdl.
167175  0  0  1  0            999 V2000
  -30.7138  -14.6183   20.5992 C   0  0  0  0  0  0
  -30.3943  -12.4119   19.4962 C   0  0  0  0  0  0
  -29.5049  -12.5341   18.2468 C   0  0  0  0  0  0
  -28.0251  -12.3725   18.6327 C   0  0  0  0  0  0
  -27.6435  -13.2259   19.8738 C   0  0  2  0  0  0
  -28.6711  -13.0978   21.0168 C   0  0  0  0  0  0
  -25.2450  -13.8182   20.5588 C   0  0  0  0  0  0
  -24.1783  -13.0335   20.9144 C   0  0  0  0  0  0
  -24.6447  -11.6863   20.8786 C   0  0  0  0  0  0
  -23.9145  -10.4224   21.0473 C   0  0  0  0  0  0
  -24.3468   -9.4254   21.9518 C   0  0  0  0  0  0
  -23.6067   -8.2301   22.1035 C   0  0  0  0  0  0
  -22.4245   -8.0217   21.3563 C   0  0  0  0  0  0
  -22.0115   -9.0053   20.4430 C   0  0  0  0  0  0
  -22.7527  -10.1894   20.2863 C   0  0  0  0  0  0
  -21.6819   -6.0609   22.5239 C   0  0  0  0  0  0
  -21.3991   -6.5544   23.8140 C   0  0  0  0  0  0
  -21.3681   -5.6742   24.9162 C   0  0  0  0  0  0
  -21.6092   -4.2989   24.7240 C   0  0  0  0  0  0
  -21.8848   -3.8036   23.4369 C   0  0  0  0  0  0
  -21.9223   -4.6836   22.3388 C   0  0  0  0  0  0
  -22.7775  -13.5105   21.1679 C   0  0  0  0  0  0
  -22.1695   -4.1987   21.0948 F   0  0  0  0  0  0
  -21.5707   -3.4516   25.7748 F   0  0  0  0  0  0
  -29.9796  -13.4597   20.4676 N   0  0  0  0  0  0
  -26.2935  -12.9410   20.3381 N   0  0  0  0  0  0
  -25.9364  -11.6510   20.5857 N   0  0  0  0  0  0
  -22.0088  -12.7761   21.9594 N   0  0  0  0  0  0
  -25.3923  -15.1856   20.3692 N   0  0  0  0  0  0
  -31.8499  -14.6638   20.1323 O   0  0  0  0  0  0
  -21.6646   -6.8763   21.4214 O   0  0  0  0  0  0
  -22.3532  -14.5589   20.6816 O   0  0  0  0  0  0
  -24.6226  -31.8618   23.2121 C   0  0  0  0  0  0
  -25.9124  -32.4825   23.8401 C   0  0  1  0  0  0
  -27.2181  -27.3482   20.1279 C   0  0  0  0  0  0
  -25.5941  -33.8620   24.2318 N   0  0  0  0  0  0
  -23.4132  -30.4870   21.5518 C   0  0  2  0  0  0
  -24.8623  -28.9398   20.1253 C   0  0  0  0  0  0
  -22.7473  -29.4641   22.4989 C   0  0  0  0  0  0
  -18.0289  -28.1374   22.8511 C   0  0  0  0  0  0
  -24.1469  -36.7249   23.2640 C   0  0  0  0  0  0
  -25.9515  -30.8052   21.3793 C   0  0  0  0  0  0
  -26.0306  -29.4326   20.7211 C   0  0  0  0  0  0
  -27.2136  -28.6430   20.7231 C   0  0  0  0  0  0
  -26.0335  -26.8966   19.5038 C   0  0  0  0  0  0
  -24.8558  -27.6714   19.5176 C   0  0  0  0  0  0
  -23.6313  -29.8233   20.1659 C   0  0  0  0  0  0
  -25.4122  -36.3109   24.0347 C   0  0  1  0  0  0
  -20.5869  -28.3654   23.1317 C   0  0  2  0  0  0
  -20.6776  -26.9379   22.5432 C   0  0  0  0  0  0
  -19.5745  -26.6377   21.5242 C   0  0  0  0  0  0
  -18.1914  -26.7936   22.1624 C   0  0  0  0  0  0
  -19.1523  -28.8848   23.2901 C   0  0  0  0  0  0
  -18.9455  -30.1471   23.8903 C   0  0  0  0  0  0
  -17.6444  -30.6573   24.0564 C   0  0  0  0  0  0
  -25.9068  -34.9499   23.5115 C   0  0  0  0  0  0
  -16.5338  -29.9079   23.6329 C   0  0  0  0  0  0
  -16.7284  -28.6492   23.0365 C   0  0  0  0  0  0
  -26.4473  -31.6655   25.0789 C   0  0  0  0  0  0
  -25.3662  -31.3783   26.1467 C   0  0  0  0  0  0
  -27.0356  -30.3131   24.6224 C   0  0  0  0  0  0
  -27.6014  -32.4379   25.7541 C   0  0  0  0  0  0
  -27.5579  -37.1811   24.8483 C   0  0  0  0  0  0
  -21.4192  -29.2996   22.3720 N   0  0  0  0  0  0
  -26.4308  -37.3809   23.9410 N   0  0  0  0  0  0
  -24.6812  -31.0676   22.1070 N   0  0  0  0  0  0
  -23.4220  -28.8206   23.3074 O   0  0  0  0  0  0
  -28.3369  -26.5172   20.1330 O   0  0  0  0  0  0
  -26.5565  -34.8939   22.4659 O   0  0  0  0  0  0
  -23.5418  -32.1390   23.7491 O   0  0  0  0  0  0
  -27.3825  -19.8588   20.7808 C   0  0  0  0  0  0
  -28.7351  -20.0615   20.7238 C   0  0  0  0  0  0
  -28.6642  -17.7758   21.2498 C   0  0  0  0  0  0
  -29.5572  -14.3870   25.2269 C   0  0  0  0  0  0
  -29.5644  -17.5175   24.0047 C   0  0  0  0  0  0
  -27.5881  -16.0279   23.8472 C   0  0  0  0  0  0
  -29.9443  -15.0405   23.8802 C   0  0  0  0  0  0
  -28.7418  -22.5918   20.9493 C   0  0  0  0  0  0
  -28.1732  -25.1948   20.7615 C   0  0  0  0  0  0
  -29.0203  -16.3427   21.7586 C   0  0  2  0  0  0
  -28.9408  -23.9434   20.1376 C   0  0  1  0  0  0
  -29.0447  -16.2170   23.3489 C   0  0  0  0  0  0
  -29.4514  -18.8505   20.9703 N   0  0  0  0  0  0
  -29.3525  -21.3256   20.4538 N   0  0  0  0  0  0
  -30.2401  -15.8067   21.0991 N   0  0  0  0  0  0
  -30.3262  -24.1930   20.2262 O   0  0  0  0  0  0
  -26.9587  -18.2182   21.1529 S   0  0  0  0  0  0
  -31.4465  -12.4762   19.2212 H   0  0  0  0  0  0
  -30.2635  -11.4229   19.9372 H   0  0  0  0  0  0
  -29.7800  -11.7833   17.5058 H   0  0  0  0  0  0
  -29.6698  -13.5002   17.7736 H   0  0  0  0  0  0
  -27.8405  -11.3150   18.8264 H   0  0  0  0  0  0
  -27.3822  -12.6385   17.7893 H   0  0  0  0  0  0
  -27.6622  -14.2653   19.5427 H   0  0  0  0  0  0
  -28.6939  -12.0880   21.4214 H   0  0  0  0  0  0
  -28.3598  -13.7155   21.8513 H   0  0  0  0  0  0
  -25.2405   -9.5767   22.5446 H   0  0  0  0  0  0
  -23.9556   -7.4814   22.7997 H   0  0  0  0  0  0
  -21.1363   -8.8480   19.8323 H   0  0  0  0  0  0
  -22.4354  -10.9295   19.5643 H   0  0  0  0  0  0
  -21.1922   -7.6058   23.9552 H   0  0  0  0  0  0
  -21.1535   -6.0527   25.9041 H   0  0  0  0  0  0
  -22.0637   -2.7487   23.2950 H   0  0  0  0  0  0
  -22.3192  -11.8740   22.2945 H   0  0  0  0  0  0
  -21.0509  -13.0558   22.1153 H   0  0  0  0  0  0
  -24.5572  -15.7582   20.3406 H   0  0  0  0  0  0
  -26.1881  -15.6141   19.9123 H   0  0  0  0  0  0
  -26.7213  -32.5514   23.1139 H   0  0  0  0  0  0
  -25.0237  -33.9776   25.0560 H   0  0  0  0  0  0
  -22.7062  -31.3075   21.4119 H   0  0  0  0  0  0
  -23.3777  -35.9528   23.3318 H   0  0  0  0  0  0
  -24.3527  -36.8849   22.2047 H   0  0  0  0  0  0
  -23.7174  -37.6458   23.6617 H   0  0  0  0  0  0
  -26.0837  -31.5813   20.6211 H   0  0  0  0  0  0
  -26.8296  -30.8465   22.0102 H   0  0  0  0  0  0
  -28.1105  -29.0147   21.2028 H   0  0  0  0  0  0
  -26.0050  -25.9347   19.0132 H   0  0  0  0  0  0
  -23.9505  -27.2923   19.0604 H   0  0  0  0  0  0
  -23.7539  -30.5929   19.4042 H   0  0  0  0  0  0
  -22.7511  -29.2557   19.8644 H   0  0  0  0  0  0
  -25.1295  -36.1965   25.0848 H   0  0  0  0  0  0
  -20.9954  -28.3245   24.1438 H   0  0  0  0  0  0
  -20.5711  -26.2245   23.3609 H   0  0  0  0  0  0
  -21.6647  -26.7456   22.1184 H   0  0  0  0  0  0
  -19.6869  -25.6293   21.1262 H   0  0  0  0  0  0
  -19.6686  -27.3181   20.6768 H   0  0  0  0  0  0
  -17.4197  -26.6722   21.3996 H   0  0  0  0  0  0
  -18.0269  -26.0078   22.9004 H   0  0  0  0  0  0
  -19.7934  -30.7303   24.2230 H   0  0  0  0  0  0
  -17.4999  -31.6273   24.5144 H   0  0  0  0  0  0
  -15.5322  -30.2957   23.7700 H   0  0  0  0  0  0
  -15.8689  -28.0824   22.7065 H   0  0  0  0  0  0
  -24.5913  -30.7018   25.7801 H   0  0  0  0  0  0
  -24.8686  -32.2942   26.4712 H   0  0  0  0  0  0
  -25.7944  -30.9137   27.0350 H   0  0  0  0  0  0
  -26.2986  -29.6872   24.1181 H   0  0  0  0  0  0
  -27.4053  -29.7394   25.4722 H   0  0  0  0  0  0
  -27.8801  -30.4488   23.9452 H   0  0  0  0  0  0
  -27.2661  -33.3695   26.2068 H   0  0  0  0  0  0
  -28.3846  -32.6916   25.0396 H   0  0  0  0  0  0
  -28.0636  -31.8527   26.5491 H   0  0  0  0  0  0
  -28.2647  -38.0063   24.7554 H   0  0  0  0  0  0
  -28.1021  -36.2619   24.6287 H   0  0  0  0  0  0
  -27.2265  -37.1452   25.8874 H   0  0  0  0  0  0
  -20.9392  -29.8699   21.6866 H   0  0  0  0  0  0
  -26.0180  -38.2881   24.1419 H   0  0  0  0  0  0
  -26.5918  -20.5797   20.6331 H   0  0  0  0  0  0
  -30.3198  -13.6692   25.5271 H   0  0  0  0  0  0
  -28.6261  -13.8257   25.1415 H   0  0  0  0  0  0
  -29.4493  -15.1089   26.0382 H   0  0  0  0  0  0
  -29.5894  -17.4496   25.0883 H   0  0  0  0  0  0
  -28.9379  -18.3824   23.7887 H   0  0  0  0  0  0
  -30.5701  -17.7593   23.6651 H   0  0  0  0  0  0
  -27.5444  -15.9730   24.9381 H   0  0  0  0  0  0
  -27.1348  -15.1176   23.4626 H   0  0  0  0  0  0
  -26.9462  -16.8655   23.5768 H   0  0  0  0  0  0
  -29.9881  -14.2182   23.1739 H   0  0  0  0  0  0
  -30.9690  -15.3974   23.9632 H   0  0  0  0  0  0
  -27.6711  -22.4466   21.0931 H   0  0  0  0  0  0
  -29.1680  -22.7333   21.9415 H   0  0  0  0  0  0
  -28.4683  -25.3077   21.8039 H   0  0  0  0  0  0
  -27.1129  -24.9341   20.8157 H   0  0  0  0  0  0
  -28.1937  -15.7382   21.3957 H   0  0  0  0  0  0
  -28.6728  -23.8377   19.0823 H   0  0  0  0  0  0
  -30.3607  -21.2758   20.5900 H   0  0  0  0  0  0
  -30.9364  -16.5331   21.0292 H   0  0  0  0  0  0
  -30.7577  -23.4939   19.7441 H   0  0  0  0  0  0
  1 25  1  0  0  0
  1 30  2  0  0  0
  1 85  1  0  0  0
  2  3  1  0  0  0
  2 25  1  0  0  0
  2 88  1  0  0  0
  2 89  1  0  0  0
  3  4  1  0  0  0
  3 90  1  0  0  0
  3 91  1  0  0  0
  4  5  1  0  0  0
  4 92  1  0  0  0
  4 93  1  0  0  0
  5  6  1  0  0  0
  5 26  1  0  0  0
  5 94  1  0  0  0
  6 25  1  0  0  0
  6 95  1  0  0  0
  6 96  1  0  0  0
  7  8  2  0  0  0
  7 26  1  0  0  0
  7 29  1  0  0  0
  8  9  1  0  0  0
  8 22  1  0  0  0
  9 10  1  0  0  0
  9 27  2  0  0  0
 10 11  2  0  0  0
 10 15  1  0  0  0
 11 12  1  0  0  0
 11 97  1  0  0  0
 12 13  2  0  0  0
 12 98  1  0  0  0
 13 14  1  0  0  0
 13 31  1  0  0  0
 14 15  2  0  0  0
 14 99  1  0  0  0
 15100  1  0  0  0
 16 17  2  0  0  0
 16 21  1  0  0  0
 16 31  1  0  0  0
 17 18  1  0  0  0
 17101  1  0  0  0
 18 19  2  0  0  0
 18102  1  0  0  0
 19 20  1  0  0  0
 19 24  1  0  0  0
 20 21  2  0  0  0
 20103  1  0  0  0
 21 23  1  0  0  0
 22 28  1  0  0  0
 22 32  2  0  0  0
 26 27  1  0  0  0
 28104  1  0  0  0
 28105  1  0  0  0
 29106  1  0  0  0
 29107  1  0  0  0
 33 34  1  0  0  0
 33 66  1  0  0  0
 33 70  2  0  0  0
 34 36  1  0  0  0
 34 59  1  0  0  0
 34108  1  0  0  0
 35 44  2  0  0  0
 35 45  1  0  0  0
 35 68  1  0  0  0
 36 56  1  0  0  0
 36109  1  0  0  0
 37 39  1  0  0  0
 37 47  1  0  0  0
 37 66  1  0  0  0
 37110  1  0  0  0
 38 43  2  0  0  0
 38 46  1  0  0  0
 38 47  1  0  0  0
 39 64  1  0  0  0
 39 67  2  0  0  0
 40 52  1  0  0  0
 40 53  2  0  0  0
 40 58  1  0  0  0
 41111  1  0  0  0
 41112  1  0  0  0
 41113  1  0  0  0
 41 48  1  0  0  0
 42 43  1  0  0  0
 42 66  1  0  0  0
 42114  1  0  0  0
 42115  1  0  0  0
 43 44  1  0  0  0
 44116  1  0  0  0
 45 46  2  0  0  0
 45117  1  0  0  0
 46118  1  0  0  0
 47119  1  0  0  0
 47120  1  0  0  0
 48 56  1  0  0  0
 48 65  1  0  0  0
 48121  1  0  0  0
 49 50  1  0  0  0
 49 53  1  0  0  0
 49 64  1  0  0  0
 49122  1  0  0  0
 50 51  1  0  0  0
 50123  1  0  0  0
 50124  1  0  0  0
 51 52  1  0  0  0
 51125  1  0  0  0
 51126  1  0  0  0
 52127  1  0  0  0
 52128  1  0  0  0
 53 54  1  0  0  0
 54 55  2  0  0  0
 54129  1  0  0  0
 55 57  1  0  0  0
 55130  1  0  0  0
 56 69  2  0  0  0
 57 58  2  0  0  0
 57131  1  0  0  0
 58132  1  0  0  0
 59 60  1  0  0  0
 59 61  1  0  0  0
 59 62  1  0  0  0
 60133  1  0  0  0
 60134  1  0  0  0
 60135  1  0  0  0
 61136  1  0  0  0
 61137  1  0  0  0
 61138  1  0  0  0
 62139  1  0  0  0
 62140  1  0  0  0
 62141  1  0  0  0
 63 65  1  0  0  0
 63142  1  0  0  0
 63143  1  0  0  0
 63144  1  0  0  0
 64145  1  0  0  0
 65146  1  0  0  0
 68 79  1  0  0  0
 71 72  2  0  0  0
 71 87  1  0  0  0
 71147  1  0  0  0
 72 83  1  0  0  0
 72 84  1  0  0  0
 73 80  1  0  0  0
 73 83  2  0  0  0
 73 87  1  0  0  0
 74 77  1  0  0  0
 74148  1  0  0  0
 74149  1  0  0  0
 74150  1  0  0  0
 75151  1  0  0  0
 75152  1  0  0  0
 75153  1  0  0  0
 75 82  1  0  0  0
 76 82  1  0  0  0
 76154  1  0  0  0
 76155  1  0  0  0
 76156  1  0  0  0
 77 82  1  0  0  0
 77157  1  0  0  0
 77158  1  0  0  0
 78 81  1  0  0  0
 78 84  1  0  0  0
 78159  1  0  0  0
 78160  1  0  0  0
 79 81  1  0  0  0
 79161  1  0  0  0
 79162  1  0  0  0
 80 82  1  0  0  0
 80 85  1  0  0  0
 80163  1  0  0  0
 81 86  1  0  0  0
 81164  1  0  0  0
 84165  1  0  0  0
 85166  1  0  0  0
 86167  1  0  0  0
M  ISO  4   1 100  68 101  79 101  85 100
M  END
> <chiral flag>
0

> <version>
0

> <s_m_source_file>
/data/baiqing/PycharmProjects/Reinvent-master-3.2/result/LINK_invent/BTK/process_docking_weight1_custom_product_contain_oxygen_bond_distance_aromatic_linkinvent_7_9_3/rearranged_h_0193.sdf

> <i_m_source_file_index>
93

> <r_mmod_Potential_Energy-OPLS-2005>
-56.3221702575684

> <r_mmod_Stretch_Energy-OPLS-2005>
79.8845062255859

> <r_mmod_Bend_Energy-OPLS-2005>
193.690704345703

> <r_mmod_Torsional_Energy-OPLS-2005>
298.8544921875

> <r_mmod_Improper_Torsional_Energy-OPLS-2005>
8.481369972229

> <r_mmod_Van_der_Waal_Energy-OPLS-2005>
128.335189819336

> <r_mmod_Electrostatic_Energy-OPLS-2005>
-578.818115234375

> <r_mmod_Solvation_Energy-OPLS-2005>
-229.210845947266

> <b_mmod_Minimization_Converged-OPLS-2005>
0

> <r_mmod_RMS_Derivative-OPLS-2005>
10.8811187744141

$$$$
93
                    3D
 Structure written by MMmdl.
160168  0  0  1  0            999 V2000
  -30.6386  -14.5315   20.5437 C   0  0  0  0  0  0
  -30.4441  -12.3295   19.4295 C   0  0  0  0  0  0
  -29.5032  -12.4610   18.2132 C   0  0  0  0  0  0
  -28.0326  -12.2766   18.6453 C   0  0  0  0  0  0
  -27.6536  -13.1754   19.8522 C   0  0  2  0  0  0
  -28.6937  -13.0020   20.9825 C   0  0  0  0  0  0
  -25.2594  -13.8105   20.5594 C   0  0  0  0  0  0
  -24.1829  -13.0464   20.9127 C   0  0  0  0  0  0
  -24.6339  -11.6898   20.8702 C   0  0  0  0  0  0
  -23.9001  -10.4322   21.0396 C   0  0  0  0  0  0
  -24.3589   -9.4247   21.9179 C   0  0  0  0  0  0
  -23.6280   -8.2284   22.0762 C   0  0  0  0  0  0
  -22.4267   -8.0305   21.3553 C   0  0  0  0  0  0
  -21.9882   -9.0260   20.4645 C   0  0  0  0  0  0
  -22.7185  -10.2150   20.3040 C   0  0  0  0  0  0
  -21.6883   -6.0742   22.5277 C   0  0  0  0  0  0
  -21.4017   -6.5634   23.8208 C   0  0  0  0  0  0
  -21.3631   -5.6784   24.9157 C   0  0  0  0  0  0
  -21.6025   -4.3042   24.7223 C   0  0  0  0  0  0
  -21.8846   -3.8142   23.4342 C   0  0  0  0  0  0
  -21.9205   -4.6965   22.3404 C   0  0  0  0  0  0
  -22.7881  -13.5299   21.1802 C   0  0  0  0  0  0
  -22.1686   -4.2174   21.0977 F   0  0  0  0  0  0
  -21.5607   -3.4515   25.7715 F   0  0  0  0  0  0
  -30.0197  -13.3237   20.4219 N   0  0  0  0  0  0
  -26.2958  -12.9219   20.3210 N   0  0  0  0  0  0
  -25.9229  -11.6413   20.5672 N   0  0  0  0  0  0
  -22.0470  -12.8358   22.0332 N   0  0  0  0  0  0
  -25.4288  -15.1846   20.3999 N   0  0  0  0  0  0
  -31.8133  -14.7223   20.2119 O   0  0  0  0  0  0
  -21.6646   -6.8900   21.4251 O   0  0  0  0  0  0
  -22.3605  -14.5656   20.6634 O   0  0  0  0  0  0
  -24.6189  -31.8719   23.2147 C   0  0  0  0  0  0
  -25.9086  -32.4848   23.8430 C   0  0  1  0  0  0
  -27.2031  -27.3935   20.0928 C   0  0  0  0  0  0
  -25.5950  -33.8649   24.2354 N   0  0  0  0  0  0
  -23.4038  -30.5053   21.5574 C   0  0  2  0  0  0
  -24.8461  -28.9869   20.1051 C   0  0  0  0  0  0
  -22.7402  -29.4732   22.4998 C   0  0  0  0  0  0
  -18.0357  -28.1229   22.8445 C   0  0  0  0  0  0
  -24.1528  -36.7358   23.2633 C   0  0  0  0  0  0
  -25.9422  -30.8231   21.3782 C   0  0  0  0  0  0
  -26.0099  -29.4612   20.7196 C   0  0  0  0  0  0
  -27.1865  -28.6661   20.7272 C   0  0  0  0  0  0
  -26.0307  -26.9961   19.4029 C   0  0  0  0  0  0
  -24.8555  -27.7581   19.4363 C   0  0  0  0  0  0
  -23.6130  -29.8566   20.1647 C   0  0  0  0  0  0
  -25.4123  -36.3108   24.0341 C   0  0  1  0  0  0
  -20.5901  -28.3729   23.1417 C   0  0  2  0  0  0
  -20.7088  -26.9564   22.5338 C   0  0  0  0  0  0
  -19.6000  -26.6205   21.5303 C   0  0  0  0  0  0
  -18.2164  -26.7753   22.1682 C   0  0  0  0  0  0
  -19.1505  -28.8755   23.2962 C   0  0  0  0  0  0
  -18.9276  -30.1276   23.9082 C   0  0  0  0  0  0
  -17.6269  -30.6381   24.0680 C   0  0  0  0  0  0
  -25.9054  -34.9491   23.5123 C   0  0  0  0  0  0
  -16.5309  -29.8820   23.6223 C   0  0  0  0  0  0
  -16.7325  -28.6279   23.0156 C   0  0  0  0  0  0
  -26.4525  -31.6592   25.0725 C   0  0  0  0  0  0
  -25.3770  -31.3663   26.1441 C   0  0  0  0  0  0
  -27.0329  -30.3032   24.6057 C   0  0  0  0  0  0
  -27.6080  -32.4340   25.7474 C   0  0  0  0  0  0
  -27.5592  -37.1817   24.8457 C   0  0  0  0  0  0
  -21.4064  -29.3280   22.3962 N   0  0  0  0  0  0
  -26.4291  -37.3778   23.9426 N   0  0  0  0  0  0
  -24.6747  -31.0796   22.1082 N   0  0  0  0  0  0
  -23.4226  -28.8060   23.2817 O   0  0  0  0  0  0
  -28.3249  -26.5697   20.1696 O   0  0  0  0  0  0
  -26.5583  -34.8902   22.4667 O   0  0  0  0  0  0
  -23.5378  -32.1540   23.7486 O   0  0  0  0  0  0
  -29.9520  -16.8807   21.1955 C   0  0  0  0  0  0
  -29.8523  -18.4095   22.5861 C   0  0  0  0  0  0
  -26.8114  -22.6317   21.2950 C   0  0  0  0  0  0
  -28.6884  -25.0456   18.3487 C   0  0  0  0  0  0
  -29.1393  -21.5138   21.2541 C   0  0  0  0  0  0
  -28.8422  -24.1210   20.7708 C   0  0  0  0  0  0
  -28.4910  -20.0848   21.1797 C   0  0  0  0  0  0
  -28.2328  -22.6626   20.6725 C   0  0  2  0  0  0
  -28.1921  -25.1635   19.8005 C   0  0  1  0  0  0
  -30.3055  -17.1610   22.4870 N   0  0  0  0  0  0
  -29.3594  -17.8834   20.5354 N   0  0  0  0  0  0
  -29.3215  -18.8972   21.4497 N   0  0  0  0  0  0
  -29.8001  -19.1137   23.7706 N   0  0  0  0  0  0
  -29.7683  -15.5428   20.7502 N   0  0  0  0  0  0
  -31.4825  -12.4677   19.1245 H   0  0  0  0  0  0
  -30.3827  -11.3304   19.8624 H   0  0  0  0  0  0
  -29.7742  -11.7181   17.4645 H   0  0  0  0  0  0
  -29.6286  -13.4368   17.7396 H   0  0  0  0  0  0
  -27.9066  -11.2291   18.9234 H   0  0  0  0  0  0
  -27.3628  -12.4458   17.8028 H   0  0  0  0  0  0
  -27.6885  -14.2017   19.4911 H   0  0  0  0  0  0
  -28.6838  -11.9745   21.3531 H   0  0  0  0  0  0
  -28.4483  -13.6227   21.8447 H   0  0  0  0  0  0
  -25.2737   -9.5787   22.4740 H   0  0  0  0  0  0
  -24.0005   -7.4712   22.7508 H   0  0  0  0  0  0
  -21.0817   -8.8758   19.8973 H   0  0  0  0  0  0
  -22.3614  -10.9684   19.6149 H   0  0  0  0  0  0
  -21.2014   -7.6142   23.9745 H   0  0  0  0  0  0
  -21.1409   -6.0474   25.9071 H   0  0  0  0  0  0
  -22.0656   -2.7618   23.2817 H   0  0  0  0  0  0
  -22.4022  -11.9999   22.4758 H   0  0  0  0  0  0
  -21.1091  -13.1451   22.2506 H   0  0  0  0  0  0
  -24.6453  -15.8169   20.5118 H   0  0  0  0  0  0
  -26.2460  -15.6430   20.0201 H   0  0  0  0  0  0
  -26.7157  -32.5526   23.1167 H   0  0  0  0  0  0
  -25.0173  -33.9911   25.0542 H   0  0  0  0  0  0
  -22.6956  -31.3243   21.4128 H   0  0  0  0  0  0
  -23.3730  -35.9741   23.3270 H   0  0  0  0  0  0
  -24.3603  -36.8988   22.2042 H   0  0  0  0  0  0
  -23.7349  -37.6593   23.6655 H   0  0  0  0  0  0
  -26.0750  -31.5969   20.6200 H   0  0  0  0  0  0
  -26.8317  -30.8773   21.9946 H   0  0  0  0  0  0
  -28.0680  -29.0182   21.2444 H   0  0  0  0  0  0
  -25.9829  -26.1057   18.7987 H   0  0  0  0  0  0
  -23.9741  -27.4186   18.9120 H   0  0  0  0  0  0
  -23.7163  -30.6437   19.4167 H   0  0  0  0  0  0
  -22.7330  -29.2838   19.8710 H   0  0  0  0  0  0
  -25.1275  -36.1967   25.0825 H   0  0  0  0  0  0
  -20.9921  -28.3218   24.1544 H   0  0  0  0  0  0
  -20.6508  -26.2366   23.3523 H   0  0  0  0  0  0
  -21.6969  -26.7978   22.0833 H   0  0  0  0  0  0
  -19.7247  -25.6052   21.1574 H   0  0  0  0  0  0
  -19.6814  -27.2788   20.6664 H   0  0  0  0  0  0
  -17.4432  -26.6278   21.4174 H   0  0  0  0  0  0
  -18.0660  -26.0040   22.9177 H   0  0  0  0  0  0
  -19.7678  -30.6954   24.2779 H   0  0  0  0  0  0
  -17.4618  -31.5937   24.5489 H   0  0  0  0  0  0
  -15.5248  -30.2511   23.7539 H   0  0  0  0  0  0
  -15.8771  -28.0583   22.6727 H   0  0  0  0  0  0
  -24.5942  -30.7055   25.7723 H   0  0  0  0  0  0
  -24.8948  -32.2808   26.4909 H   0  0  0  0  0  0
  -25.8088  -30.8770   27.0183 H   0  0  0  0  0  0
  -26.2861  -29.6781   24.1148 H   0  0  0  0  0  0
  -27.4201  -29.7258   25.4465 H   0  0  0  0  0  0
  -27.8666  -30.4370   23.9151 H   0  0  0  0  0  0
  -27.2693  -33.3638   26.2073 H   0  0  0  0  0  0
  -28.3834  -32.6942   25.0252 H   0  0  0  0  0  0
  -28.0840  -31.8465   26.5340 H   0  0  0  0  0  0
  -28.2558  -38.0154   24.7464 H   0  0  0  0  0  0
  -28.1138  -36.2664   24.6297 H   0  0  0  0  0  0
  -27.2314  -37.1486   25.8859 H   0  0  0  0  0  0
  -20.8957  -29.9555   21.7892 H   0  0  0  0  0  0
  -26.0173  -38.2868   24.1335 H   0  0  0  0  0  0
  -26.3742  -21.6337   21.3484 H   0  0  0  0  0  0
  -26.1084  -23.2160   20.7097 H   0  0  0  0  0  0
  -26.8012  -23.0521   22.2968 H   0  0  0  0  0  0
  -29.7280  -25.3682   18.2543 H   0  0  0  0  0  0
  -28.0899  -25.6750   17.6936 H   0  0  0  0  0  0
  -28.6158  -24.0252   17.9684 H   0  0  0  0  0  0
  -30.0821  -21.5024   20.7090 H   0  0  0  0  0  0
  -29.3922  -21.7440   22.2902 H   0  0  0  0  0  0
  -29.9152  -24.1002   20.5953 H   0  0  0  0  0  0
  -28.7243  -24.4776   21.7957 H   0  0  0  0  0  0
  -28.0409  -19.9457   20.1987 H   0  0  0  0  0  0
  -27.6714  -20.0303   21.8949 H   0  0  0  0  0  0
  -28.1170  -22.4367   19.6074 H   0  0  0  0  0  0
  -27.1544  -24.8552   19.8134 H   0  0  0  0  0  0
  -29.8202  -18.5934   24.6401 H   0  0  0  0  0  0
  -29.2739  -19.9791   23.8069 H   0  0  0  0  0  0
  -28.8052  -15.2552   20.6743 H   0  0  0  0  0  0
  1 25  1  0  0  0
  1 30  2  0  0  0
  1 84  1  0  0  0
  2  3  1  0  0  0
  2 25  1  0  0  0
  2 85  1  0  0  0
  2 86  1  0  0  0
  3  4  1  0  0  0
  3 87  1  0  0  0
  3 88  1  0  0  0
  4  5  1  0  0  0
  4 89  1  0  0  0
  4 90  1  0  0  0
  5  6  1  0  0  0
  5 26  1  0  0  0
  5 91  1  0  0  0
  6 25  1  0  0  0
  6 92  1  0  0  0
  6 93  1  0  0  0
  7  8  2  0  0  0
  7 26  1  0  0  0
  7 29  1  0  0  0
  8  9  1  0  0  0
  8 22  1  0  0  0
  9 10  1  0  0  0
  9 27  2  0  0  0
 10 11  2  0  0  0
 10 15  1  0  0  0
 11 12  1  0  0  0
 11 94  1  0  0  0
 12 13  2  0  0  0
 12 95  1  0  0  0
 13 14  1  0  0  0
 13 31  1  0  0  0
 14 15  2  0  0  0
 14 96  1  0  0  0
 15 97  1  0  0  0
 16 17  2  0  0  0
 16 21  1  0  0  0
 16 31  1  0  0  0
 17 18  1  0  0  0
 17 98  1  0  0  0
 18 19  2  0  0  0
 18 99  1  0  0  0
 19 20  1  0  0  0
 19 24  1  0  0  0
 20 21  2  0  0  0
 20100  1  0  0  0
 21 23  1  0  0  0
 22 28  1  0  0  0
 22 32  2  0  0  0
 26 27  1  0  0  0
 28101  1  0  0  0
 28102  1  0  0  0
 29103  1  0  0  0
 29104  1  0  0  0
 33 34  1  0  0  0
 33 66  1  0  0  0
 33 70  2  0  0  0
 34 36  1  0  0  0
 34 59  1  0  0  0
 34105  1  0  0  0
 35 44  2  0  0  0
 35 45  1  0  0  0
 35 68  1  0  0  0
 36 56  1  0  0  0
 36106  1  0  0  0
 37 39  1  0  0  0
 37 47  1  0  0  0
 37 66  1  0  0  0
 37107  1  0  0  0
 38 43  2  0  0  0
 38 46  1  0  0  0
 38 47  1  0  0  0
 39 64  1  0  0  0
 39 67  2  0  0  0
 40 52  1  0  0  0
 40 53  2  0  0  0
 40 58  1  0  0  0
 41108  1  0  0  0
 41109  1  0  0  0
 41110  1  0  0  0
 41 48  1  0  0  0
 42 43  1  0  0  0
 42 66  1  0  0  0
 42111  1  0  0  0
 42112  1  0  0  0
 43 44  1  0  0  0
 44113  1  0  0  0
 45 46  2  0  0  0
 45114  1  0  0  0
 46115  1  0  0  0
 47116  1  0  0  0
 47117  1  0  0  0
 48 56  1  0  0  0
 48 65  1  0  0  0
 48118  1  0  0  0
 49 50  1  0  0  0
 49 53  1  0  0  0
 49 64  1  0  0  0
 49119  1  0  0  0
 50 51  1  0  0  0
 50120  1  0  0  0
 50121  1  0  0  0
 51 52  1  0  0  0
 51122  1  0  0  0
 51123  1  0  0  0
 52124  1  0  0  0
 52125  1  0  0  0
 53 54  1  0  0  0
 54 55  2  0  0  0
 54126  1  0  0  0
 55 57  1  0  0  0
 55127  1  0  0  0
 56 69  2  0  0  0
 57 58  2  0  0  0
 57128  1  0  0  0
 58129  1  0  0  0
 59 60  1  0  0  0
 59 61  1  0  0  0
 59 62  1  0  0  0
 60130  1  0  0  0
 60131  1  0  0  0
 60132  1  0  0  0
 61133  1  0  0  0
 61134  1  0  0  0
 61135  1  0  0  0
 62136  1  0  0  0
 62137  1  0  0  0
 62138  1  0  0  0
 63 65  1  0  0  0
 63139  1  0  0  0
 63140  1  0  0  0
 63141  1  0  0  0
 64142  1  0  0  0
 65143  1  0  0  0
 68 79  1  0  0  0
 71 80  1  0  0  0
 71 81  2  0  0  0
 71 84  1  0  0  0
 72 80  2  0  0  0
 72 82  1  0  0  0
 72 83  1  0  0  0
 73144  1  0  0  0
 73145  1  0  0  0
 73146  1  0  0  0
 73 78  1  0  0  0
 74147  1  0  0  0
 74148  1  0  0  0
 74149  1  0  0  0
 74 79  1  0  0  0
 75 77  1  0  0  0
 75 78  1  0  0  0
 75150  1  0  0  0
 75151  1  0  0  0
 76 78  1  0  0  0
 76 79  1  0  0  0
 76152  1  0  0  0
 76153  1  0  0  0
 77 82  1  0  0  0
 77154  1  0  0  0
 77155  1  0  0  0
 78156  1  0  0  0
 79157  1  0  0  0
 81 82  1  0  0  0
 83158  1  0  0  0
 83159  1  0  0  0
 84160  1  0  0  0
M  ISO  4   1 100  68 101  79 101  84 100
M  END
> <chiral flag>
0

> <version>
0

> <s_m_source_file>
/data/baiqing/PycharmProjects/Reinvent-master-3.2/result/LINK_invent/BTK/process_docking_weight1_custom_product_contain_oxygen_bond_distance_aromatic_linkinvent_7_9_3/rearranged_h_0193.sdf

> <i_m_source_file_index>
94

> <r_mmod_Potential_Energy-OPLS-2005>
-51.4024543762207

> <r_mmod_Stretch_Energy-OPLS-2005>
48.5233039855957

> <r_mmod_Bend_Energy-OPLS-2005>
130.178588867188

> <r_mmod_Torsional_Energy-OPLS-2005>
270.585083007812

> <r_mmod_Improper_Torsional_Energy-OPLS-2005>
18.1104507446289

> <r_mmod_Van_der_Waal_Energy-OPLS-2005>
139.134948730469

> <r_mmod_Electrostatic_Energy-OPLS-2005>
-467.035827636719

> <r_mmod_Solvation_Energy-OPLS-2005>
-223.707214355469

> <b_mmod_Minimization_Converged-OPLS-2005>
0

> <r_mmod_RMS_Derivative-OPLS-2005>
8.49972438812256

$$$$
94
                    3D
 Structure written by MMmdl.
165173  0  0  1  0            999 V2000
  -30.6615  -14.5168   20.5676 C   0  0  0  0  0  0
  -30.4261  -12.3265   19.4351 C   0  0  0  0  0  0
  -29.4976  -12.5019   18.2130 C   0  0  0  0  0  0
  -28.0179  -12.3527   18.6238 C   0  0  0  0  0  0
  -27.6571  -13.2051   19.8700 C   0  0  2  0  0  0
  -28.6966  -12.9950   20.9941 C   0  0  0  0  0  0
  -25.2586  -13.8162   20.5670 C   0  0  0  0  0  0
  -24.1832  -13.0451   20.9186 C   0  0  0  0  0  0
  -24.6385  -11.6916   20.8741 C   0  0  0  0  0  0
  -23.9050  -10.4301   21.0397 C   0  0  0  0  0  0
  -24.3615   -9.4219   21.9166 C   0  0  0  0  0  0
  -23.6300   -8.2247   22.0742 C   0  0  0  0  0  0
  -22.4273   -8.0285   21.3536 C   0  0  0  0  0  0
  -21.9902   -9.0257   20.4636 C   0  0  0  0  0  0
  -22.7230  -10.2136   20.3042 C   0  0  0  0  0  0
  -21.6855   -6.0750   22.5282 C   0  0  0  0  0  0
  -21.4026   -6.5650   23.8225 C   0  0  0  0  0  0
  -21.3661   -5.6795   24.9179 C   0  0  0  0  0  0
  -21.6025   -4.3055   24.7220 C   0  0  0  0  0  0
  -21.8830   -3.8154   23.4343 C   0  0  0  0  0  0
  -21.9205   -4.6977   22.3401 C   0  0  0  0  0  0
  -22.7861  -13.5245   21.1867 C   0  0  0  0  0  0
  -22.1667   -4.2171   21.0979 F   0  0  0  0  0  0
  -21.5622   -3.4534   25.7728 F   0  0  0  0  0  0
  -30.0213  -13.3173   20.4475 N   0  0  0  0  0  0
  -26.2995  -12.9317   20.3324 N   0  0  0  0  0  0
  -25.9298  -11.6478   20.5745 N   0  0  0  0  0  0
  -22.0505  -12.8224   22.0428 N   0  0  0  0  0  0
  -25.4342  -15.1874   20.4063 N   0  0  0  0  0  0
  -31.7976  -14.6837   20.1124 O   0  0  0  0  0  0
  -21.6639   -6.8882   21.4241 O   0  0  0  0  0  0
  -22.3541  -14.5556   20.6741 O   0  0  0  0  0  0
  -24.6159  -31.8647   23.2043 C   0  0  0  0  0  0
  -25.9050  -32.4814   23.8333 C   0  0  1  0  0  0
  -27.2379  -27.4142   20.1021 C   0  0  0  0  0  0
  -25.5915  -33.8600   24.2306 N   0  0  0  0  0  0
  -23.4005  -30.4875   21.5432 C   0  0  2  0  0  0
  -24.8468  -28.9429   20.1135 C   0  0  0  0  0  0
  -22.7414  -29.4635   22.4941 C   0  0  0  0  0  0
  -18.0279  -28.1359   22.8472 C   0  0  0  0  0  0
  -24.1490  -36.7306   23.2639 C   0  0  0  0  0  0
  -25.9295  -30.8237   21.3538 C   0  0  0  0  0  0
  -26.0036  -29.4520   20.7117 C   0  0  0  0  0  0
  -27.1979  -28.6928   20.7074 C   0  0  0  0  0  0
  -26.0566  -26.9159   19.5067 C   0  0  0  0  0  0
  -24.8665  -27.6731   19.5096 C   0  0  0  0  0  0
  -23.6113  -29.8130   20.1606 C   0  0  0  0  0  0
  -25.4102  -36.3103   24.0345 C   0  0  1  0  0  0
  -20.5863  -28.3641   23.1341 C   0  0  2  0  0  0
  -20.6767  -26.9380   22.5422 C   0  0  0  0  0  0
  -19.5756  -26.6369   21.5213 C   0  0  0  0  0  0
  -18.1932  -26.7902   22.1612 C   0  0  0  0  0  0
  -19.1528  -28.8811   23.2904 C   0  0  0  0  0  0
  -18.9476  -30.1423   23.8899 C   0  0  0  0  0  0
  -17.6489  -30.6575   24.0551 C   0  0  0  0  0  0
  -25.9046  -34.9473   23.5131 C   0  0  0  0  0  0
  -16.5369  -29.9073   23.6322 C   0  0  0  0  0  0
  -16.7276  -28.6485   23.0341 C   0  0  0  0  0  0
  -26.4479  -31.6576   25.0664 C   0  0  0  0  0  0
  -25.3761  -31.3675   26.1436 C   0  0  0  0  0  0
  -27.0295  -30.3021   24.5987 C   0  0  0  0  0  0
  -27.6047  -32.4257   25.7447 C   0  0  0  0  0  0
  -27.5582  -37.1799   24.8470 C   0  0  0  0  0  0
  -21.4136  -29.3015   22.3724 N   0  0  0  0  0  0
  -26.4286  -37.3803   23.9440 N   0  0  0  0  0  0
  -24.6663  -31.0753   22.0931 N   0  0  0  0  0  0
  -23.4179  -28.8203   23.3004 O   0  0  0  0  0  0
  -28.4292  -26.7084   20.1351 O   0  0  0  0  0  0
  -26.5606  -34.8935   22.4690 O   0  0  0  0  0  0
  -23.5357  -32.1419   23.7462 O   0  0  0  0  0  0
  -28.3607  -18.4303   21.6179 C   0  0  0  0  0  0
  -29.4074  -18.3165   20.7324 C   0  0  0  0  0  0
  -29.0290  -20.5933   20.6355 C   0  0  0  0  0  0
  -31.4961  -23.1207   23.1854 C   0  0  0  0  0  0
  -29.6732  -22.2665   24.6954 C   0  0  0  0  0  0
  -30.1591  -17.0592   20.3076 C   0  0  0  0  0  0
  -29.9368  -15.7653   21.1552 C   0  0  0  0  0  0
  -29.0169  -23.2228   22.4521 C   0  0  0  0  0  0
  -28.5617  -25.4362   19.4749 C   0  0  0  0  0  0
  -30.1115  -22.4545   23.2356 C   0  0  0  0  0  0
  -29.1570  -23.2712   20.9119 C   0  0  2  0  0  0
  -28.0493  -24.1918   20.2777 C   0  0  1  0  0  0
  -29.7511  -19.5636   20.1693 N   0  0  0  0  0  0
  -29.2750  -21.9301   20.2791 N   0  0  0  0  0  0
  -27.3021  -23.3350   19.4415 O   0  0  0  0  0  0
  -27.7940  -20.0796   21.7797 S   0  0  0  0  0  0
  -31.4712  -12.4316   19.1418 H   0  0  0  0  0  0
  -30.3324  -11.3187   19.8430 H   0  0  0  0  0  0
  -29.7458  -11.7684   17.4450 H   0  0  0  0  0  0
  -29.6588  -13.4837   17.7653 H   0  0  0  0  0  0
  -27.8415  -11.2964   18.8344 H   0  0  0  0  0  0
  -27.3615  -12.6050   17.7898 H   0  0  0  0  0  0
  -27.6983  -14.2488   19.5592 H   0  0  0  0  0  0
  -28.6825  -11.9549   21.3266 H   0  0  0  0  0  0
  -28.4558  -13.5788   21.8832 H   0  0  0  0  0  0
  -25.2766   -9.5711   22.4728 H   0  0  0  0  0  0
  -24.0042   -7.4629   22.7443 H   0  0  0  0  0  0
  -21.0844   -8.8753   19.8927 H   0  0  0  0  0  0
  -22.3680  -10.9671   19.6145 H   0  0  0  0  0  0
  -21.2023   -7.6158   23.9745 H   0  0  0  0  0  0
  -21.1462   -6.0508   25.9083 H   0  0  0  0  0  0
  -22.0607   -2.7620   23.2826 H   0  0  0  0  0  0
  -22.4126  -11.9874   22.4807 H   0  0  0  0  0  0
  -21.1113  -13.1223   22.2634 H   0  0  0  0  0  0
  -24.6662  -15.8449   20.5002 H   0  0  0  0  0  0
  -26.2890  -15.6211   20.0835 H   0  0  0  0  0  0
  -26.7084  -32.5523   23.1045 H   0  0  0  0  0  0
  -25.0098  -33.9723   25.0483 H   0  0  0  0  0  0
  -22.6886  -31.3036   21.3951 H   0  0  0  0  0  0
  -23.3767  -35.9636   23.3311 H   0  0  0  0  0  0
  -24.3590  -36.8912   22.2055 H   0  0  0  0  0  0
  -23.7227  -37.6505   23.6639 H   0  0  0  0  0  0
  -26.0400  -31.5788   20.5746 H   0  0  0  0  0  0
  -26.8196  -30.8886   21.9672 H   0  0  0  0  0  0
  -28.0883  -29.0878   21.1765 H   0  0  0  0  0  0
  -26.0248  -25.9391   19.0461 H   0  0  0  0  0  0
  -23.9776  -27.2622   19.0516 H   0  0  0  0  0  0
  -23.7239  -30.5816   19.3963 H   0  0  0  0  0  0
  -22.7369  -29.2300   19.8656 H   0  0  0  0  0  0
  -25.1279  -36.1962   25.0842 H   0  0  0  0  0  0
  -20.9955  -28.3208   24.1461 H   0  0  0  0  0  0
  -20.5683  -26.2250   23.3607 H   0  0  0  0  0  0
  -21.6650  -26.7433   22.1215 H   0  0  0  0  0  0
  -19.6935  -25.6296   21.1212 H   0  0  0  0  0  0
  -19.6706  -27.3219   20.6788 H   0  0  0  0  0  0
  -17.4207  -26.6685   21.3993 H   0  0  0  0  0  0
  -18.0299  -26.0031   22.8998 H   0  0  0  0  0  0
  -19.7963  -30.7215   24.2267 H   0  0  0  0  0  0
  -17.5062  -31.6258   24.5157 H   0  0  0  0  0  0
  -15.5380  -30.2995   23.7623 H   0  0  0  0  0  0
  -15.8674  -28.0811   22.7063 H   0  0  0  0  0  0
  -24.6002  -30.6908   25.7845 H   0  0  0  0  0  0
  -24.8856  -32.2815   26.4793 H   0  0  0  0  0  0
  -25.8177  -30.8976   27.0241 H   0  0  0  0  0  0
  -26.2812  -29.6754   24.1107 H   0  0  0  0  0  0
  -27.4213  -29.7264   25.4392 H   0  0  0  0  0  0
  -27.8577  -30.4372   23.9018 H   0  0  0  0  0  0
  -27.2685  -33.3588   26.1970 H   0  0  0  0  0  0
  -28.3897  -32.6740   25.0292 H   0  0  0  0  0  0
  -28.0634  -31.8368   26.5400 H   0  0  0  0  0  0
  -28.2597  -38.0104   24.7544 H   0  0  0  0  0  0
  -28.1071  -36.2638   24.6246 H   0  0  0  0  0  0
  -27.2301  -37.1401   25.8872 H   0  0  0  0  0  0
  -20.9294  -29.8770   21.6972 H   0  0  0  0  0  0
  -26.0181  -38.2885   24.1460 H   0  0  0  0  0  0
  -27.8859  -17.6441   22.1879 H   0  0  0  0  0  0
  -32.2236  -22.5284   23.7423 H   0  0  0  0  0  0
  -31.4833  -24.1167   23.6268 H   0  0  0  0  0  0
  -31.8711  -23.2079   22.1668 H   0  0  0  0  0  0
  -30.4090  -21.6950   25.2619 H   0  0  0  0  0  0
  -28.7246  -21.7325   24.7548 H   0  0  0  0  0  0
  -29.5463  -23.2282   25.1922 H   0  0  0  0  0  0
  -31.2260  -17.2819   20.2882 H   0  0  0  0  0  0
  -29.8951  -16.8322   19.2750 H   0  0  0  0  0  0
  -28.8660  -15.5932   21.2362 H   0  0  0  0  0  0
  -30.3024  -15.9277   22.1696 H   0  0  0  0  0  0
  -28.9918  -24.2498   22.8227 H   0  0  0  0  0  0
  -28.0347  -22.8130   22.6987 H   0  0  0  0  0  0
  -28.1065  -25.4884   18.4855 H   0  0  0  0  0  0
  -29.6249  -25.3210   19.2659 H   0  0  0  0  0  0
  -30.2262  -21.4606   22.8093 H   0  0  0  0  0  0
  -30.1137  -23.7606   20.7230 H   0  0  0  0  0  0
  -27.3578  -24.5445   21.0465 H   0  0  0  0  0  0
  -29.9943  -21.9556   19.5616 H   0  0  0  0  0  0
  -27.8038  -22.5191   19.5188 H   0  0  0  0  0  0
  1 25  1  0  0  0
  1 30  2  0  0  0
  1 77  1  0  0  0
  2  3  1  0  0  0
  2 25  1  0  0  0
  2 87  1  0  0  0
  2 88  1  0  0  0
  3  4  1  0  0  0
  3 89  1  0  0  0
  3 90  1  0  0  0
  4  5  1  0  0  0
  4 91  1  0  0  0
  4 92  1  0  0  0
  5  6  1  0  0  0
  5 26  1  0  0  0
  5 93  1  0  0  0
  6 25  1  0  0  0
  6 94  1  0  0  0
  6 95  1  0  0  0
  7  8  2  0  0  0
  7 26  1  0  0  0
  7 29  1  0  0  0
  8  9  1  0  0  0
  8 22  1  0  0  0
  9 10  1  0  0  0
  9 27  2  0  0  0
 10 11  2  0  0  0
 10 15  1  0  0  0
 11 12  1  0  0  0
 11 96  1  0  0  0
 12 13  2  0  0  0
 12 97  1  0  0  0
 13 14  1  0  0  0
 13 31  1  0  0  0
 14 15  2  0  0  0
 14 98  1  0  0  0
 15 99  1  0  0  0
 16 17  2  0  0  0
 16 21  1  0  0  0
 16 31  1  0  0  0
 17 18  1  0  0  0
 17100  1  0  0  0
 18 19  2  0  0  0
 18101  1  0  0  0
 19 20  1  0  0  0
 19 24  1  0  0  0
 20 21  2  0  0  0
 20102  1  0  0  0
 21 23  1  0  0  0
 22 28  1  0  0  0
 22 32  2  0  0  0
 26 27  1  0  0  0
 28103  1  0  0  0
 28104  1  0  0  0
 29105  1  0  0  0
 29106  1  0  0  0
 33 34  1  0  0  0
 33 66  1  0  0  0
 33 70  2  0  0  0
 34 36  1  0  0  0
 34 59  1  0  0  0
 34107  1  0  0  0
 35 44  2  0  0  0
 35 45  1  0  0  0
 35 68  1  0  0  0
 36 56  1  0  0  0
 36108  1  0  0  0
 37 39  1  0  0  0
 37 47  1  0  0  0
 37 66  1  0  0  0
 37109  1  0  0  0
 38 43  2  0  0  0
 38 46  1  0  0  0
 38 47  1  0  0  0
 39 64  1  0  0  0
 39 67  2  0  0  0
 40 52  1  0  0  0
 40 53  2  0  0  0
 40 58  1  0  0  0
 41110  1  0  0  0
 41111  1  0  0  0
 41112  1  0  0  0
 41 48  1  0  0  0
 42 43  1  0  0  0
 42 66  1  0  0  0
 42113  1  0  0  0
 42114  1  0  0  0
 43 44  1  0  0  0
 44115  1  0  0  0
 45 46  2  0  0  0
 45116  1  0  0  0
 46117  1  0  0  0
 47118  1  0  0  0
 47119  1  0  0  0
 48 56  1  0  0  0
 48 65  1  0  0  0
 48120  1  0  0  0
 49 50  1  0  0  0
 49 53  1  0  0  0
 49 64  1  0  0  0
 49121  1  0  0  0
 50 51  1  0  0  0
 50122  1  0  0  0
 50123  1  0  0  0
 51 52  1  0  0  0
 51124  1  0  0  0
 51125  1  0  0  0
 52126  1  0  0  0
 52127  1  0  0  0
 53 54  1  0  0  0
 54 55  2  0  0  0
 54128  1  0  0  0
 55 57  1  0  0  0
 55129  1  0  0  0
 56 69  2  0  0  0
 57 58  2  0  0  0
 57130  1  0  0  0
 58131  1  0  0  0
 59 60  1  0  0  0
 59 61  1  0  0  0
 59 62  1  0  0  0
 60132  1  0  0  0
 60133  1  0  0  0
 60134  1  0  0  0
 61135  1  0  0  0
 61136  1  0  0  0
 61137  1  0  0  0
 62138  1  0  0  0
 62139  1  0  0  0
 62140  1  0  0  0
 63 65  1  0  0  0
 63141  1  0  0  0
 63142  1  0  0  0
 63143  1  0  0  0
 64144  1  0  0  0
 65145  1  0  0  0
 68 79  1  0  0  0
 71 72  2  0  0  0
 71 86  1  0  0  0
 71146  1  0  0  0
 72 76  1  0  0  0
 72 83  1  0  0  0
 73 83  2  0  0  0
 73 84  1  0  0  0
 73 86  1  0  0  0
 74147  1  0  0  0
 74148  1  0  0  0
 74149  1  0  0  0
 74 80  1  0  0  0
 75 80  1  0  0  0
 75150  1  0  0  0
 75151  1  0  0  0
 75152  1  0  0  0
 76 77  1  0  0  0
 76153  1  0  0  0
 76154  1  0  0  0
 77155  1  0  0  0
 77156  1  0  0  0
 78 80  1  0  0  0
 78157  1  0  0  0
 78158  1  0  0  0
 78 81  1  0  0  0
 79 82  1  0  0  0
 79159  1  0  0  0
 79160  1  0  0  0
 80161  1  0  0  0
 81 82  1  0  0  0
 81 84  1  0  0  0
 81162  1  0  0  0
 82 85  1  0  0  0
 82163  1  0  0  0
 84164  1  0  0  0
 85165  1  0  0  0
M  ISO  4   1 100  68 101  77 100  79 101
M  END
> <chiral flag>
0

> <version>
0

> <s_m_source_file>
/data/baiqing/PycharmProjects/Reinvent-master-3.2/result/LINK_invent/BTK/process_docking_weight1_custom_product_contain_oxygen_bond_distance_aromatic_linkinvent_7_9_3/rearranged_h_0193.sdf

> <i_m_source_file_index>
95

> <r_mmod_Potential_Energy-OPLS-2005>
-168.059326171875

> <r_mmod_Stretch_Energy-OPLS-2005>
46.3800354003906

> <r_mmod_Bend_Energy-OPLS-2005>
124.072479248047

> <r_mmod_Torsional_Energy-OPLS-2005>
231.628616333008

> <r_mmod_Improper_Torsional_Energy-OPLS-2005>
4.6050066947937

> <r_mmod_Van_der_Waal_Energy-OPLS-2005>
133.9970703125

> <r_mmod_Electrostatic_Energy-OPLS-2005>
-512.780334472656

> <r_mmod_Solvation_Energy-OPLS-2005>
-213.236953735352

> <b_mmod_Minimization_Converged-OPLS-2005>
0

> <r_mmod_RMS_Derivative-OPLS-2005>
4.06704950332642

$$$$
95
                    3D
 Structure written by MMmdl.
156164  0  0  1  0            999 V2000
  -30.6660  -14.7152   20.4982 C   0  0  0  0  0  0
  -30.4183  -12.4491   19.4674 C   0  0  0  0  0  0
  -29.5057  -12.5167   18.2267 C   0  0  0  0  0  0
  -28.0316  -12.3452   18.6397 C   0  0  0  0  0  0
  -27.6388  -13.2395   19.8478 C   0  0  2  0  0  0
  -28.6857  -13.1823   20.9818 C   0  0  0  0  0  0
  -25.2493  -13.8215   20.5690 C   0  0  0  0  0  0
  -24.1796  -13.0451   20.9214 C   0  0  0  0  0  0
  -24.6396  -11.6933   20.8742 C   0  0  0  0  0  0
  -23.9076  -10.4306   21.0395 C   0  0  0  0  0  0
  -24.3629   -9.4224   21.9170 C   0  0  0  0  0  0
  -23.6304   -8.2250   22.0742 C   0  0  0  0  0  0
  -22.4285   -8.0274   21.3535 C   0  0  0  0  0  0
  -21.9922   -9.0257   20.4643 C   0  0  0  0  0  0
  -22.7249  -10.2137   20.3049 C   0  0  0  0  0  0
  -21.6857   -6.0731   22.5279 C   0  0  0  0  0  0
  -21.4019   -6.5636   23.8212 C   0  0  0  0  0  0
  -21.3668   -5.6792   24.9173 C   0  0  0  0  0  0
  -21.6047   -4.3051   24.7226 C   0  0  0  0  0  0
  -21.8821   -3.8140   23.4348 C   0  0  0  0  0  0
  -21.9194   -4.6959   22.3402 C   0  0  0  0  0  0
  -22.7819  -13.5224   21.1875 C   0  0  0  0  0  0
  -22.1659   -4.2140   21.0982 F   0  0  0  0  0  0
  -21.5632   -3.4538   25.7740 F   0  0  0  0  0  0
  -29.9823  -13.5246   20.3891 N   0  0  0  0  0  0
  -26.2927  -12.9435   20.3273 N   0  0  0  0  0  0
  -25.9328  -11.6572   20.5740 N   0  0  0  0  0  0
  -22.0458  -12.8215   22.0432 N   0  0  0  0  0  0
  -25.4169  -15.1944   20.4102 N   0  0  0  0  0  0
  -31.8438  -14.7612   20.1287 O   0  0  0  0  0  0
  -21.6643   -6.8874   21.4239 O   0  0  0  0  0  0
  -22.3505  -14.5528   20.6715 O   0  0  0  0  0  0
  -24.6313  -31.8554   23.2007 C   0  0  0  0  0  0
  -25.9152  -32.4744   23.8338 C   0  0  1  0  0  0
  -27.2109  -27.2681   20.1199 C   0  0  0  0  0  0
  -25.5963  -33.8551   24.2256 N   0  0  0  0  0  0
  -23.4267  -30.4809   21.5436 C   0  0  2  0  0  0
  -24.8728  -28.9373   20.1060 C   0  0  0  0  0  0
  -22.7502  -29.4599   22.4903 C   0  0  0  0  0  0
  -18.0292  -28.1367   22.8487 C   0  0  0  0  0  0
  -24.1500  -36.7273   23.2628 C   0  0  0  0  0  0
  -25.9740  -30.7716   21.3810 C   0  0  0  0  0  0
  -26.0454  -29.3981   20.7175 C   0  0  0  0  0  0
  -27.2186  -28.5762   20.7129 C   0  0  0  0  0  0
  -26.0152  -26.8852   19.4683 C   0  0  0  0  0  0
  -24.8628  -27.6897   19.4708 C   0  0  0  0  0  0
  -23.6444  -29.8220   20.1573 C   0  0  0  0  0  0
  -25.4122  -36.3051   24.0314 C   0  0  1  0  0  0
  -20.5900  -28.3678   23.1267 C   0  0  2  0  0  0
  -20.6774  -26.9396   22.5398 C   0  0  0  0  0  0
  -19.5750  -26.6369   21.5203 C   0  0  0  0  0  0
  -18.1933  -26.7908   22.1623 C   0  0  0  0  0  0
  -19.1550  -28.8841   23.2869 C   0  0  0  0  0  0
  -18.9469  -30.1444   23.8882 C   0  0  0  0  0  0
  -17.6468  -30.6569   24.0559 C   0  0  0  0  0  0
  -25.9071  -34.9432   23.5081 C   0  0  0  0  0  0
  -16.5356  -29.9068   23.6334 C   0  0  0  0  0  0
  -16.7280  -28.6485   23.0354 C   0  0  0  0  0  0
  -26.4518  -31.6564   25.0727 C   0  0  0  0  0  0
  -25.3749  -31.3715   26.1451 C   0  0  0  0  0  0
  -27.0349  -30.2972   24.6219 C   0  0  0  0  0  0
  -27.6071  -32.4297   25.7505 C   0  0  0  0  0  0
  -27.5578  -37.1781   24.8459 C   0  0  0  0  0  0
  -21.4211  -29.3031   22.3661 N   0  0  0  0  0  0
  -26.4278  -37.3768   23.9421 N   0  0  0  0  0  0
  -24.6961  -31.0537   22.0977 N   0  0  0  0  0  0
  -23.4220  -28.8131   23.2985 O   0  0  0  0  0  0
  -28.2875  -26.3517   20.1956 O   0  0  0  0  0  0
  -26.5632  -34.8913   22.4644 O   0  0  0  0  0  0
  -23.5466  -32.1360   23.7312 O   0  0  0  0  0  0
  -32.0574  -18.8239   23.0511 C   0  0  0  0  0  0
  -32.1307  -17.4485   23.2714 C   0  0  0  0  0  0
  -30.4488  -18.5105   21.3627 C   0  0  0  0  0  0
  -30.5983  -17.0328   21.5231 C   0  0  0  0  0  0
  -28.9615  -23.7598   20.4487 C   0  0  0  0  0  0
  -28.6562  -22.2141   20.1445 C   0  0  0  0  0  0
  -27.9762  -24.9031   19.9296 C   0  0  0  0  0  0
  -29.5863  -21.0637   20.7999 C   0  0  0  0  0  0
  -29.5363  -19.4529   20.4424 C   0  0  1  0  0  0
  -31.2358  -19.3289   22.1144 N   0  0  0  0  0  0
  -31.4188  -16.5893   22.5193 N   0  0  0  0  0  0
  -29.9993  -15.9038   20.7879 N   0  0  0  0  0  0
  -29.9142  -19.2643   19.0342 N   0  3  0  0  0  0
  -29.9686  -24.0635   21.0952 O   0  0  0  0  0  0
  -31.4645  -12.5427   19.1717 H   0  0  0  0  0  0
  -30.3353  -11.4733   19.9508 H   0  0  0  0  0  0
  -29.7875  -11.7495   17.5048 H   0  0  0  0  0  0
  -29.6415  -13.4754   17.7225 H   0  0  0  0  0  0
  -27.8829  -11.2955   18.8941 H   0  0  0  0  0  0
  -27.3765  -12.5459   17.7910 H   0  0  0  0  0  0
  -27.6310  -14.2623   19.4706 H   0  0  0  0  0  0
  -28.7215  -12.1891   21.4311 H   0  0  0  0  0  0
  -28.4289  -13.8739   21.7852 H   0  0  0  0  0  0
  -25.2764   -9.5701   22.4753 H   0  0  0  0  0  0
  -24.0009   -7.4650   22.7465 H   0  0  0  0  0  0
  -21.0836   -8.8783   19.8964 H   0  0  0  0  0  0
  -22.3687  -10.9678   19.6164 H   0  0  0  0  0  0
  -21.2011   -7.6145   23.9715 H   0  0  0  0  0  0
  -21.1489   -6.0516   25.9079 H   0  0  0  0  0  0
  -22.0590   -2.7598   23.2851 H   0  0  0  0  0  0
  -22.4049  -11.9880   22.4851 H   0  0  0  0  0  0
  -21.1072  -13.1240   22.2615 H   0  0  0  0  0  0
  -24.6461  -15.8458   20.5113 H   0  0  0  0  0  0
  -26.2586  -15.6336   20.0618 H   0  0  0  0  0  0
  -26.7214  -32.5402   23.1073 H   0  0  0  0  0  0
  -25.0141  -33.9692   25.0421 H   0  0  0  0  0  0
  -22.7200  -31.3010   21.3994 H   0  0  0  0  0  0
  -23.3764  -35.9605   23.3274 H   0  0  0  0  0  0
  -24.3596  -36.8918   22.2046 H   0  0  0  0  0  0
  -23.7260  -37.6468   23.6674 H   0  0  0  0  0  0
  -26.1165  -31.5393   20.6188 H   0  0  0  0  0  0
  -26.8495  -30.8134   22.0172 H   0  0  0  0  0  0
  -28.1160  -28.9225   21.2051 H   0  0  0  0  0  0
  -25.9272  -25.9383   18.9577 H   0  0  0  0  0  0
  -23.9674  -27.3342   18.9792 H   0  0  0  0  0  0
  -23.7695  -30.6006   19.4041 H   0  0  0  0  0  0
  -22.7641  -29.2543   19.8500 H   0  0  0  0  0  0
  -25.1304  -36.1862   25.0802 H   0  0  0  0  0  0
  -20.9990  -28.3239   24.1388 H   0  0  0  0  0  0
  -20.5660  -26.2285   23.3596 H   0  0  0  0  0  0
  -21.6642  -26.7404   22.1200 H   0  0  0  0  0  0
  -19.6913  -25.6283   21.1226 H   0  0  0  0  0  0
  -19.6687  -27.3184   20.6735 H   0  0  0  0  0  0
  -17.4200  -26.6654   21.4027 H   0  0  0  0  0  0
  -18.0343  -26.0041   22.9011 H   0  0  0  0  0  0
  -19.7946  -30.7267   24.2232 H   0  0  0  0  0  0
  -17.5022  -31.6252   24.5150 H   0  0  0  0  0  0
  -15.5355  -30.2962   23.7659 H   0  0  0  0  0  0
  -15.8681  -28.0798   22.7069 H   0  0  0  0  0  0
  -24.5949  -30.7025   25.7795 H   0  0  0  0  0  0
  -24.8915  -32.2879   26.4841 H   0  0  0  0  0  0
  -25.8083  -30.8932   27.0245 H   0  0  0  0  0  0
  -26.2924  -29.6727   24.1233 H   0  0  0  0  0  0
  -27.3995  -29.7227   25.4743 H   0  0  0  0  0  0
  -27.8835  -30.4216   23.9491 H   0  0  0  0  0  0
  -27.2678  -33.3610   26.2053 H   0  0  0  0  0  0
  -28.3909  -32.6817   25.0353 H   0  0  0  0  0  0
  -28.0710  -31.8434   26.5446 H   0  0  0  0  0  0
  -28.2557  -38.0110   24.7541 H   0  0  0  0  0  0
  -28.1099  -36.2641   24.6225 H   0  0  0  0  0  0
  -27.2304  -37.1358   25.8860 H   0  0  0  0  0  0
  -20.9371  -29.8780   21.6904 H   0  0  0  0  0  0
  -26.0136  -38.2827   24.1452 H   0  0  0  0  0  0
  -32.6435  -19.5200   23.6332 H   0  0  0  0  0  0
  -32.7679  -17.0363   24.0399 H   0  0  0  0  0  0
  -28.6675  -22.1090   19.0603 H   0  0  0  0  0  0
  -27.6235  -22.0327   20.4436 H   0  0  0  0  0  0
  -27.0122  -24.6660   20.3801 H   0  0  0  0  0  0
  -27.8611  -24.7708   18.8539 H   0  0  0  0  0  0
  -29.4088  -21.1516   21.8724 H   0  0  0  0  0  0
  -30.6169  -21.3955   20.6598 H   0  0  0  0  0  0
  -28.5097  -19.1058   20.5656 H   0  0  0  0  0  0
  -28.9919  -15.8684   20.7824 H   0  0  0  0  0  0
  -29.3110  -19.7980   18.4355 H   0  0  0  0  0  0
  -29.8372  -18.2997   18.7733 H   0  0  0  0  0  0
  -30.8621  -19.5599   18.8880 H   0  0  0  0  0  0
  1 25  1  0  0  0
  1 30  2  0  0  0
  1 82  1  0  0  0
  2  3  1  0  0  0
  2 25  1  0  0  0
  2 85  1  0  0  0
  2 86  1  0  0  0
  3  4  1  0  0  0
  3 87  1  0  0  0
  3 88  1  0  0  0
  4  5  1  0  0  0
  4 89  1  0  0  0
  4 90  1  0  0  0
  5  6  1  0  0  0
  5 26  1  0  0  0
  5 91  1  0  0  0
  6 25  1  0  0  0
  6 92  1  0  0  0
  6 93  1  0  0  0
  7  8  2  0  0  0
  7 26  1  0  0  0
  7 29  1  0  0  0
  8  9  1  0  0  0
  8 22  1  0  0  0
  9 10  1  0  0  0
  9 27  2  0  0  0
 10 11  2  0  0  0
 10 15  1  0  0  0
 11 12  1  0  0  0
 11 94  1  0  0  0
 12 13  2  0  0  0
 12 95  1  0  0  0
 13 14  1  0  0  0
 13 31  1  0  0  0
 14 15  2  0  0  0
 14 96  1  0  0  0
 15 97  1  0  0  0
 16 17  2  0  0  0
 16 21  1  0  0  0
 16 31  1  0  0  0
 17 18  1  0  0  0
 17 98  1  0  0  0
 18 19  2  0  0  0
 18 99  1  0  0  0
 19 20  1  0  0  0
 19 24  1  0  0  0
 20 21  2  0  0  0
 20100  1  0  0  0
 21 23  1  0  0  0
 22 28  1  0  0  0
 22 32  2  0  0  0
 26 27  1  0  0  0
 28101  1  0  0  0
 28102  1  0  0  0
 29103  1  0  0  0
 29104  1  0  0  0
 33 34  1  0  0  0
 33 66  1  0  0  0
 33 70  2  0  0  0
 34 36  1  0  0  0
 34 59  1  0  0  0
 34105  1  0  0  0
 35 44  2  0  0  0
 35 45  1  0  0  0
 35 68  1  0  0  0
 36 56  1  0  0  0
 36106  1  0  0  0
 37 39  1  0  0  0
 37 47  1  0  0  0
 37 66  1  0  0  0
 37107  1  0  0  0
 38 43  2  0  0  0
 38 46  1  0  0  0
 38 47  1  0  0  0
 39 64  1  0  0  0
 39 67  2  0  0  0
 40 52  1  0  0  0
 40 53  2  0  0  0
 40 58  1  0  0  0
 41108  1  0  0  0
 41109  1  0  0  0
 41110  1  0  0  0
 41 48  1  0  0  0
 42 43  1  0  0  0
 42 66  1  0  0  0
 42111  1  0  0  0
 42112  1  0  0  0
 43 44  1  0  0  0
 44113  1  0  0  0
 45 46  2  0  0  0
 45114  1  0  0  0
 46115  1  0  0  0
 47116  1  0  0  0
 47117  1  0  0  0
 48 56  1  0  0  0
 48 65  1  0  0  0
 48118  1  0  0  0
 49 50  1  0  0  0
 49 53  1  0  0  0
 49 64  1  0  0  0
 49119  1  0  0  0
 50 51  1  0  0  0
 50120  1  0  0  0
 50121  1  0  0  0
 51 52  1  0  0  0
 51122  1  0  0  0
 51123  1  0  0  0
 52124  1  0  0  0
 52125  1  0  0  0
 53 54  1  0  0  0
 54 55  2  0  0  0
 54126  1  0  0  0
 55 57  1  0  0  0
 55127  1  0  0  0
 56 69  2  0  0  0
 57 58  2  0  0  0
 57128  1  0  0  0
 58129  1  0  0  0
 59 60  1  0  0  0
 59 61  1  0  0  0
 59 62  1  0  0  0
 60130  1  0  0  0
 60131  1  0  0  0
 60132  1  0  0  0
 61133  1  0  0  0
 61134  1  0  0  0
 61135  1  0  0  0
 62136  1  0  0  0
 62137  1  0  0  0
 62138  1  0  0  0
 63 65  1  0  0  0
 63139  1  0  0  0
 63140  1  0  0  0
 63141  1  0  0  0
 64142  1  0  0  0
 65143  1  0  0  0
 68 77  1  0  0  0
 71 72  2  0  0  0
 71 80  1  0  0  0
 71144  1  0  0  0
 72 81  1  0  0  0
 72145  1  0  0  0
 73 74  1  0  0  0
 73 79  1  0  0  0
 73 80  2  0  0  0
 74 81  2  0  0  0
 74 82  1  0  0  0
 75 76  1  0  0  0
 75 77  1  0  0  0
 75 84  2  0  0  0
 76 78  1  0  0  0
 76146  1  0  0  0
 76147  1  0  0  0
 77148  1  0  0  0
 77149  1  0  0  0
 78 79  1  0  0  0
 78150  1  0  0  0
 78151  1  0  0  0
 79 83  1  0  0  0
 79152  1  0  0  0
 82153  1  0  0  0
 83154  1  0  0  0
 83155  1  0  0  0
 83156  1  0  0  0
M  CHG  1  83   1
M  ISO  4   1 100  68 101  77 101  82 100
M  END
> <chiral flag>
0

> <version>
0

> <s_m_source_file>
/data/baiqing/PycharmProjects/Reinvent-master-3.2/result/LINK_invent/BTK/process_docking_weight1_custom_product_contain_oxygen_bond_distance_aromatic_linkinvent_7_9_3/rearranged_h_0193.sdf

> <i_m_source_file_index>
96

> <r_mmod_Potential_Energy-OPLS-2005>
-27.7168884277344

> <r_mmod_Stretch_Energy-OPLS-2005>
142.603134155273

> <r_mmod_Bend_Energy-OPLS-2005>
212.214096069336

> <r_mmod_Torsional_Energy-OPLS-2005>
232.090286254883

> <r_mmod_Improper_Torsional_Energy-OPLS-2005>
6.18885374069214

> <r_mmod_Van_der_Waal_Energy-OPLS-2005>
158.830352783203

> <r_mmod_Electrostatic_Energy-OPLS-2005>
-282.958251953125

> <r_mmod_Solvation_Energy-OPLS-2005>
-577.188415527344

> <b_mmod_Minimization_Converged-OPLS-2005>
0

> <r_mmod_RMS_Derivative-OPLS-2005>
1.79692924022675

$$$$
96
                    3D
 Structure written by MMmdl.
151159  0  0  1  0            999 V2000
  -30.6025  -14.7510   20.4296 C   0  0  0  0  0  0
  -30.4336  -12.4502   19.4971 C   0  0  0  0  0  0
  -29.5180  -12.5002   18.2533 C   0  0  0  0  0  0
  -28.0443  -12.3172   18.6637 C   0  0  0  0  0  0
  -27.6397  -13.2279   19.8513 C   0  0  2  0  0  0
  -28.6789  -13.1840   20.9932 C   0  0  0  0  0  0
  -25.2492  -13.8181   20.5696 C   0  0  0  0  0  0
  -24.1757  -13.0448   20.9204 C   0  0  0  0  0  0
  -24.6322  -11.6916   20.8730 C   0  0  0  0  0  0
  -23.8986  -10.4297   21.0402 C   0  0  0  0  0  0
  -24.3558   -9.4233   21.9187 C   0  0  0  0  0  0
  -23.6254   -8.2262   22.0765 C   0  0  0  0  0  0
  -22.4244   -8.0277   21.3556 C   0  0  0  0  0  0
  -21.9852   -9.0235   20.4663 C   0  0  0  0  0  0
  -22.7155  -10.2134   20.3061 C   0  0  0  0  0  0
  -21.6852   -6.0712   22.5272 C   0  0  0  0  0  0
  -21.4014   -6.5627   23.8197 C   0  0  0  0  0  0
  -21.3667   -5.6790   24.9172 C   0  0  0  0  0  0
  -21.6050   -4.3050   24.7228 C   0  0  0  0  0  0
  -21.8818   -3.8132   23.4346 C   0  0  0  0  0  0
  -21.9184   -4.6937   22.3402 C   0  0  0  0  0  0
  -22.7788  -13.5261   21.1857 C   0  0  0  0  0  0
  -22.1664   -4.2119   21.0978 F   0  0  0  0  0  0
  -21.5625   -3.4542   25.7741 F   0  0  0  0  0  0
  -29.9873  -13.5203   20.4176 N   0  0  0  0  0  0
  -26.2898  -12.9372   20.3261 N   0  0  0  0  0  0
  -25.9255  -11.6524   20.5720 N   0  0  0  0  0  0
  -22.0416  -12.8281   22.0425 N   0  0  0  0  0  0
  -25.4195  -15.1899   20.4111 N   0  0  0  0  0  0
  -31.7888  -14.8441   20.1016 O   0  0  0  0  0  0
  -21.6654   -6.8856   21.4227 O   0  0  0  0  0  0
  -22.3498  -14.5589   20.6730 O   0  0  0  0  0  0
  -24.6309  -31.8539   23.2018 C   0  0  0  0  0  0
  -25.9126  -32.4755   23.8367 C   0  0  1  0  0  0
  -27.2167  -27.2570   20.1240 C   0  0  0  0  0  0
  -25.5920  -33.8555   24.2286 N   0  0  0  0  0  0
  -23.4278  -30.4772   21.5430 C   0  0  2  0  0  0
  -24.8756  -28.9266   20.1093 C   0  0  0  0  0  0
  -22.7487  -29.4589   22.4908 C   0  0  0  0  0  0
  -18.0271  -28.1397   22.8461 C   0  0  0  0  0  0
  -24.1474  -36.7293   23.2639 C   0  0  0  0  0  0
  -25.9730  -30.7692   21.3800 C   0  0  0  0  0  0
  -26.0465  -29.3906   20.7228 C   0  0  0  0  0  0
  -27.2188  -28.5651   20.7223 C   0  0  0  0  0  0
  -26.0253  -26.8746   19.4669 C   0  0  0  0  0  0
  -24.8704  -27.6784   19.4713 C   0  0  0  0  0  0
  -23.6460  -29.8122   20.1592 C   0  0  0  0  0  0
  -25.4095  -36.3070   24.0333 C   0  0  1  0  0  0
  -20.5874  -28.3700   23.1265 C   0  0  2  0  0  0
  -20.6757  -26.9414   22.5406 C   0  0  0  0  0  0
  -19.5751  -26.6383   21.5196 C   0  0  0  0  0  0
  -18.1926  -26.7927   22.1603 C   0  0  0  0  0  0
  -19.1524  -28.8864   23.2859 C   0  0  0  0  0  0
  -18.9444  -30.1462   23.8893 C   0  0  0  0  0  0
  -17.6449  -30.6595   24.0550 C   0  0  0  0  0  0
  -25.9027  -34.9433   23.5109 C   0  0  0  0  0  0
  -16.5340  -29.9090   23.6336 C   0  0  0  0  0  0
  -16.7258  -28.6501   23.0355 C   0  0  0  0  0  0
  -26.4495  -31.6580   25.0756 C   0  0  0  0  0  0
  -25.3734  -31.3747   26.1491 C   0  0  0  0  0  0
  -27.0342  -30.2988   24.6280 C   0  0  0  0  0  0
  -27.6053  -32.4316   25.7548 C   0  0  0  0  0  0
  -27.5569  -37.1800   24.8459 C   0  0  0  0  0  0
  -21.4189  -29.3033   22.3641 N   0  0  0  0  0  0
  -26.4269  -37.3765   23.9410 N   0  0  0  0  0  0
  -24.6970  -31.0506   22.0996 N   0  0  0  0  0  0
  -23.4185  -28.8129   23.2998 O   0  0  0  0  0  0
  -28.3095  -26.3544   20.2015 O   0  0  0  0  0  0
  -26.5586  -34.8902   22.4677 O   0  0  0  0  0  0
  -23.5459  -32.1348   23.7318 O   0  0  0  0  0  0
  -29.6286  -18.9210   21.8869 C   0  0  0  0  0  0
  -29.6522  -18.6231   20.5451 C   0  0  0  0  0  0
  -29.1755  -20.9758   20.5074 C   0  0  0  0  0  0
  -30.5491  -24.1222   20.3603 C   0  0  0  0  0  0
  -30.0467  -17.2424   19.8836 C   0  0  0  0  0  0
  -28.1317  -24.8930   19.8656 C   0  0  0  0  0  0
  -29.0729  -23.7335   20.5013 C   0  0  2  0  0  0
  -29.3642  -19.8241   19.7906 N   0  0  0  0  0  0
  -28.9111  -22.3050   20.0087 N   0  0  0  0  0  0
  -29.8151  -15.8847   20.5457 N   0  0  0  0  0  0
  -29.3135  -20.6265   22.2295 S   0  0  0  0  0  0
  -31.4791  -12.5604   19.2000 H   0  0  0  0  0  0
  -30.3656  -11.4819   19.9952 H   0  0  0  0  0  0
  -29.8097  -11.7251   17.5436 H   0  0  0  0  0  0
  -29.6388  -13.4533   17.7346 H   0  0  0  0  0  0
  -27.9117  -11.2728   18.9469 H   0  0  0  0  0  0
  -27.3880  -12.4895   17.8104 H   0  0  0  0  0  0
  -27.6301  -14.2426   19.4546 H   0  0  0  0  0  0
  -28.7047  -12.2001   21.4633 H   0  0  0  0  0  0
  -28.4057  -13.8888   21.7788 H   0  0  0  0  0  0
  -25.2683   -9.5753   22.4774 H   0  0  0  0  0  0
  -23.9974   -7.4662   22.7487 H   0  0  0  0  0  0
  -21.0779   -8.8722   19.8971 H   0  0  0  0  0  0
  -22.3552  -10.9674   19.6190 H   0  0  0  0  0  0
  -21.2020   -7.6140   23.9687 H   0  0  0  0  0  0
  -21.1495   -6.0535   25.9073 H   0  0  0  0  0  0
  -22.0582   -2.7585   23.2856 H   0  0  0  0  0  0
  -22.3969  -11.9930   22.4842 H   0  0  0  0  0  0
  -21.1059  -13.1385   22.2650 H   0  0  0  0  0  0
  -24.6522  -15.8455   20.5158 H   0  0  0  0  0  0
  -26.2625  -15.6241   20.0588 H   0  0  0  0  0  0
  -26.7196  -32.5418   23.1108 H   0  0  0  0  0  0
  -25.0093  -33.9703   25.0455 H   0  0  0  0  0  0
  -22.7242  -31.2994   21.3973 H   0  0  0  0  0  0
  -23.3728  -35.9634   23.3292 H   0  0  0  0  0  0
  -24.3557  -36.8924   22.2055 H   0  0  0  0  0  0
  -23.7236  -37.6501   23.6657 H   0  0  0  0  0  0
  -26.1023  -31.5293   20.6082 H   0  0  0  0  0  0
  -26.8548  -30.8283   22.0071 H   0  0  0  0  0  0
  -28.1118  -28.9094   21.2261 H   0  0  0  0  0  0
  -25.9511  -25.9288   18.9530 H   0  0  0  0  0  0
  -23.9738  -27.3249   18.9803 H   0  0  0  0  0  0
  -23.7639  -30.5877   19.4013 H   0  0  0  0  0  0
  -22.7661  -29.2393   19.8605 H   0  0  0  0  0  0
  -25.1270  -36.1921   25.0824 H   0  0  0  0  0  0
  -20.9961  -28.3282   24.1395 H   0  0  0  0  0  0
  -20.5624  -26.2321   23.3614 H   0  0  0  0  0  0
  -21.6632  -26.7413   22.1237 H   0  0  0  0  0  0
  -19.6913  -25.6287   21.1257 H   0  0  0  0  0  0
  -19.6712  -27.3166   20.6709 H   0  0  0  0  0  0
  -17.4191  -26.6650   21.4013 H   0  0  0  0  0  0
  -18.0333  -26.0083   22.9022 H   0  0  0  0  0  0
  -19.7921  -30.7258   24.2284 H   0  0  0  0  0  0
  -17.5005  -31.6278   24.5142 H   0  0  0  0  0  0
  -15.5342  -30.2994   23.7669 H   0  0  0  0  0  0
  -15.8645  -28.0822   22.7101 H   0  0  0  0  0  0
  -24.5952  -30.7015   25.7874 H   0  0  0  0  0  0
  -24.8870  -32.2917   26.4828 H   0  0  0  0  0  0
  -25.8081  -30.9042   27.0323 H   0  0  0  0  0  0
  -26.2951  -29.6745   24.1250 H   0  0  0  0  0  0
  -27.3925  -29.7239   25.4831 H   0  0  0  0  0  0
  -27.8864  -30.4223   23.9594 H   0  0  0  0  0  0
  -27.2667  -33.3638   26.2078 H   0  0  0  0  0  0
  -28.3915  -32.6835   25.0418 H   0  0  0  0  0  0
  -28.0658  -31.8465   26.5517 H   0  0  0  0  0  0
  -28.2579  -38.0101   24.7481 H   0  0  0  0  0  0
  -28.1066  -36.2629   24.6292 H   0  0  0  0  0  0
  -27.2285  -37.1466   25.8861 H   0  0  0  0  0  0
  -20.9368  -29.8777   21.6868 H   0  0  0  0  0  0
  -26.0153  -38.2842   24.1414 H   0  0  0  0  0  0
  -29.8248  -18.2409   22.7055 H   0  0  0  0  0  0
  -30.8570  -24.1274   19.3139 H   0  0  0  0  0  0
  -31.1939  -23.4217   20.8928 H   0  0  0  0  0  0
  -30.7385  -25.1181   20.7668 H   0  0  0  0  0  0
  -31.1012  -17.3014   19.6125 H   0  0  0  0  0  0
  -29.5421  -17.1746   18.9177 H   0  0  0  0  0  0
  -27.1181  -24.5911   20.1263 H   0  0  0  0  0  0
  -28.1936  -24.8214   18.7789 H   0  0  0  0  0  0
  -28.8542  -23.7044   21.5687 H   0  0  0  0  0  0
  -28.7668  -22.2827   19.0034 H   0  0  0  0  0  0
  -28.8617  -15.7131   20.8264 H   0  0  0  0  0  0
  1 25  1  0  0  0
  1 30  2  0  0  0
  1 80  1  0  0  0
  2  3  1  0  0  0
  2 25  1  0  0  0
  2 82  1  0  0  0
  2 83  1  0  0  0
  3  4  1  0  0  0
  3 84  1  0  0  0
  3 85  1  0  0  0
  4  5  1  0  0  0
  4 86  1  0  0  0
  4 87  1  0  0  0
  5  6  1  0  0  0
  5 26  1  0  0  0
  5 88  1  0  0  0
  6 25  1  0  0  0
  6 89  1  0  0  0
  6 90  1  0  0  0
  7  8  2  0  0  0
  7 26  1  0  0  0
  7 29  1  0  0  0
  8  9  1  0  0  0
  8 22  1  0  0  0
  9 10  1  0  0  0
  9 27  2  0  0  0
 10 11  2  0  0  0
 10 15  1  0  0  0
 11 12  1  0  0  0
 11 91  1  0  0  0
 12 13  2  0  0  0
 12 92  1  0  0  0
 13 14  1  0  0  0
 13 31  1  0  0  0
 14 15  2  0  0  0
 14 93  1  0  0  0
 15 94  1  0  0  0
 16 17  2  0  0  0
 16 21  1  0  0  0
 16 31  1  0  0  0
 17 18  1  0  0  0
 17 95  1  0  0  0
 18 19  2  0  0  0
 18 96  1  0  0  0
 19 20  1  0  0  0
 19 24  1  0  0  0
 20 21  2  0  0  0
 20 97  1  0  0  0
 21 23  1  0  0  0
 22 28  1  0  0  0
 22 32  2  0  0  0
 26 27  1  0  0  0
 28 98  1  0  0  0
 28 99  1  0  0  0
 29100  1  0  0  0
 29101  1  0  0  0
 33 34  1  0  0  0
 33 66  1  0  0  0
 33 70  2  0  0  0
 34 36  1  0  0  0
 34 59  1  0  0  0
 34102  1  0  0  0
 35 44  2  0  0  0
 35 45  1  0  0  0
 35 68  1  0  0  0
 36 56  1  0  0  0
 36103  1  0  0  0
 37 39  1  0  0  0
 37 47  1  0  0  0
 37 66  1  0  0  0
 37104  1  0  0  0
 38 43  2  0  0  0
 38 46  1  0  0  0
 38 47  1  0  0  0
 39 64  1  0  0  0
 39 67  2  0  0  0
 40 52  1  0  0  0
 40 53  2  0  0  0
 40 58  1  0  0  0
 41105  1  0  0  0
 41106  1  0  0  0
 41107  1  0  0  0
 41 48  1  0  0  0
 42 43  1  0  0  0
 42 66  1  0  0  0
 42108  1  0  0  0
 42109  1  0  0  0
 43 44  1  0  0  0
 44110  1  0  0  0
 45 46  2  0  0  0
 45111  1  0  0  0
 46112  1  0  0  0
 47113  1  0  0  0
 47114  1  0  0  0
 48 56  1  0  0  0
 48 65  1  0  0  0
 48115  1  0  0  0
 49 50  1  0  0  0
 49 53  1  0  0  0
 49 64  1  0  0  0
 49116  1  0  0  0
 50 51  1  0  0  0
 50117  1  0  0  0
 50118  1  0  0  0
 51 52  1  0  0  0
 51119  1  0  0  0
 51120  1  0  0  0
 52121  1  0  0  0
 52122  1  0  0  0
 53 54  1  0  0  0
 54 55  2  0  0  0
 54123  1  0  0  0
 55 57  1  0  0  0
 55124  1  0  0  0
 56 69  2  0  0  0
 57 58  2  0  0  0
 57125  1  0  0  0
 58126  1  0  0  0
 59 60  1  0  0  0
 59 61  1  0  0  0
 59 62  1  0  0  0
 60127  1  0  0  0
 60128  1  0  0  0
 60129  1  0  0  0
 61130  1  0  0  0
 61131  1  0  0  0
 61132  1  0  0  0
 62133  1  0  0  0
 62134  1  0  0  0
 62135  1  0  0  0
 63 65  1  0  0  0
 63136  1  0  0  0
 63137  1  0  0  0
 63138  1  0  0  0
 64139  1  0  0  0
 65140  1  0  0  0
 68 76  1  0  0  0
 71 72  2  0  0  0
 71 81  1  0  0  0
 71141  1  0  0  0
 72 75  1  0  0  0
 72 78  1  0  0  0
 73 78  2  0  0  0
 73 79  1  0  0  0
 73 81  1  0  0  0
 74142  1  0  0  0
 74143  1  0  0  0
 74144  1  0  0  0
 74 77  1  0  0  0
 75 80  1  0  0  0
 75145  1  0  0  0
 75146  1  0  0  0
 76 77  1  0  0  0
 76147  1  0  0  0
 76148  1  0  0  0
 77 79  1  0  0  0
 77149  1  0  0  0
 79150  1  0  0  0
 80151  1  0  0  0
M  ISO  4   1 100  68 101  76 101  80 100
M  END
> <chiral flag>
0

> <version>
0

> <s_m_source_file>
/data/baiqing/PycharmProjects/Reinvent-master-3.2/result/LINK_invent/BTK/process_docking_weight1_custom_product_contain_oxygen_bond_distance_aromatic_linkinvent_7_9_3/rearranged_h_0193.sdf

> <i_m_source_file_index>
97

> <r_mmod_Potential_Energy-OPLS-2005>
-63.6308898925781

> <r_mmod_Stretch_Energy-OPLS-2005>
112.845932006836

> <r_mmod_Bend_Energy-OPLS-2005>
154.699172973633

> <r_mmod_Torsional_Energy-OPLS-2005>
202.36003112793

> <r_mmod_Improper_Torsional_Energy-OPLS-2005>
8.60605049133301

> <r_mmod_Van_der_Waal_Energy-OPLS-2005>
117.511474609375

> <r_mmod_Electrostatic_Energy-OPLS-2005>
-522.124816894531

> <r_mmod_Solvation_Energy-OPLS-2005>
-228.599380493164

> <b_mmod_Minimization_Converged-OPLS-2005>
0

> <r_mmod_RMS_Derivative-OPLS-2005>
3.21932816505432

$$$$
