0
                    3D
 Structure written by MMmdl.
163172  0  0  1  0            999 V2000
  -30.7306  -14.5000   20.5621 C   0  0  0  0  0  0
  -30.4126  -12.3240   19.4378 C   0  0  0  0  0  0
  -29.4933  -12.5102   18.2144 C   0  0  0  0  0  0
  -28.0169  -12.3646   18.6263 C   0  0  0  0  0  0
  -27.6582  -13.2188   19.8719 C   0  0  2  0  0  0
  -28.7005  -13.0458   21.0006 C   0  0  0  0  0  0
  -25.2581  -13.8193   20.5690 C   0  0  0  0  0  0
  -24.1844  -13.0456   20.9196 C   0  0  0  0  0  0
  -24.6417  -11.6924   20.8759 C   0  0  0  0  0  0
  -23.9093  -10.4300   21.0427 C   0  0  0  0  0  0
  -24.3644   -9.4209   21.9200 C   0  0  0  0  0  0
  -23.6314   -8.2246   22.0761 C   0  0  0  0  0  0
  -22.4290   -8.0295   21.3552 C   0  0  0  0  0  0
  -21.9941   -9.0275   20.4654 C   0  0  0  0  0  0
  -22.7277  -10.2146   20.3068 C   0  0  0  0  0  0
  -21.6855   -6.0761   22.5289 C   0  0  0  0  0  0
  -21.4016   -6.5652   23.8226 C   0  0  0  0  0  0
  -21.3653   -5.6801   24.9186 C   0  0  0  0  0  0
  -21.6040   -4.3069   24.7227 C   0  0  0  0  0  0
  -21.8815   -3.8165   23.4347 C   0  0  0  0  0  0
  -21.9190   -4.6989   22.3411 C   0  0  0  0  0  0
  -22.7862  -13.5245   21.1854 C   0  0  0  0  0  0
  -22.1659   -4.2176   21.0994 F   0  0  0  0  0  0
  -21.5623   -3.4550   25.7738 F   0  0  0  0  0  0
  -30.0303  -13.3356   20.4404 N   0  0  0  0  0  0
  -26.3023  -12.9381   20.3377 N   0  0  0  0  0  0
  -25.9350  -11.6532   20.5797 N   0  0  0  0  0  0
  -22.0496  -12.8227   22.0393 N   0  0  0  0  0  0
  -25.4290  -15.1909   20.4072 N   0  0  0  0  0  0
  -31.8591  -14.6144   20.0807 O   0  0  0  0  0  0
  -21.6635   -6.8902   21.4253 O   0  0  0  0  0  0
  -22.3550  -14.5550   20.6703 O   0  0  0  0  0  0
  -24.6158  -31.8665   23.2091 C   0  0  0  0  0  0
  -25.9059  -32.4819   23.8380 C   0  0  1  0  0  0
  -27.2298  -27.4249   20.1108 C   0  0  0  0  0  0
  -25.5906  -33.8612   24.2301 N   0  0  0  0  0  0
  -23.4051  -30.4884   21.5489 C   0  0  2  0  0  0
  -24.8526  -28.9499   20.1155 C   0  0  0  0  0  0
  -22.7427  -29.4653   22.4996 C   0  0  0  0  0  0
  -18.0270  -28.1381   22.8478 C   0  0  0  0  0  0
  -24.1488  -36.7315   23.2637 C   0  0  0  0  0  0
  -25.9343  -30.8298   21.3629 C   0  0  0  0  0  0
  -26.0112  -29.4622   20.7138 C   0  0  0  0  0  0
  -27.2061  -28.7047   20.7118 C   0  0  0  0  0  0
  -26.0603  -26.9251   19.5077 C   0  0  0  0  0  0
  -24.8701  -27.6795   19.5097 C   0  0  0  0  0  0
  -23.6146  -29.8176   20.1640 C   0  0  0  0  0  0
  -25.4107  -36.3107   24.0333 C   0  0  1  0  0  0
  -20.5869  -28.3650   23.1324 C   0  0  2  0  0  0
  -20.6756  -26.9383   22.5427 C   0  0  0  0  0  0
  -19.5738  -26.6367   21.5222 C   0  0  0  0  0  0
  -18.1905  -26.7923   22.1610 C   0  0  0  0  0  0
  -19.1524  -28.8828   23.2894 C   0  0  0  0  0  0
  -18.9460  -30.1435   23.8901 C   0  0  0  0  0  0
  -17.6465  -30.6582   24.0561 C   0  0  0  0  0  0
  -25.9035  -34.9482   23.5121 C   0  0  0  0  0  0
  -16.5350  -29.9077   23.6340 C   0  0  0  0  0  0
  -16.7261  -28.6505   23.0342 C   0  0  0  0  0  0
  -26.4467  -31.6639   25.0746 C   0  0  0  0  0  0
  -25.3723  -31.3785   26.1510 C   0  0  0  0  0  0
  -27.0330  -30.3079   24.6165 C   0  0  0  0  0  0
  -27.6013  -32.4398   25.7521 C   0  0  0  0  0  0
  -27.5584  -37.1800   24.8463 C   0  0  0  0  0  0
  -21.4161  -29.3034   22.3763 N   0  0  0  0  0  0
  -26.4292  -37.3792   23.9414 N   0  0  0  0  0  0
  -24.6699  -31.0774   22.0981 N   0  0  0  0  0  0
  -23.4196  -28.8181   23.3038 O   0  0  0  0  0  0
  -28.3654  -26.6494   20.0910 O   0  0  0  0  0  0
  -26.5606  -34.8929   22.4678 O   0  0  0  0  0  0
  -23.5353  -32.1433   23.7489 O   0  0  0  0  0  0
  -29.5429  -17.9325   21.5910 C   0  0  0  0  0  0
  -31.8335  -17.3687   21.0611 C   0  0  0  0  0  0
  -29.8908  -19.3033   21.7953 C   0  0  0  0  0  0
  -31.2649  -19.6744   21.6810 C   0  0  0  0  0  0
  -30.4950  -16.9401   21.2347 C   0  0  0  0  0  0
  -32.2071  -18.7062   21.2774 C   0  0  0  0  0  0
  -29.0058  -22.0368   20.6716 C   0  0  0  0  0  0
  -28.8129  -20.2502   22.3147 C   0  0  0  0  0  0
  -29.1114  -23.5710   20.4378 C   0  0  0  0  0  0
  -28.3565  -23.9272   22.7809 C   0  0  0  0  0  0
  -27.9399  -22.4495   22.8370 C   0  0  0  0  0  0
  -28.2502  -24.4728   21.3554 C   0  0  1  0  0  0
  -31.7982  -21.0624   22.0328 C   0  0  0  0  0  0
  -28.6562  -25.9787   21.3248 C   0  0  0  0  0  0
  -28.6797  -21.5572   21.9089 N   0  0  0  0  0  0
  -30.0732  -15.5593   21.1013 N   0  0  0  0  0  0
  -29.2761  -21.3120   19.7088 O   0  0  0  0  0  0
  -28.0665  -19.7810   23.1838 O   0  0  0  0  0  0
  -33.5094  -19.0495   21.1276 F   0  0  0  0  0  0
  -31.4588  -12.3988   19.1354 H   0  0  0  0  0  0
  -30.2985  -11.3227   19.8557 H   0  0  0  0  0  0
  -29.7385  -11.7808   17.4421 H   0  0  0  0  0  0
  -29.6567  -13.4947   17.7722 H   0  0  0  0  0  0
  -27.8344  -11.3102   18.8349 H   0  0  0  0  0  0
  -27.3648  -12.6261   17.7924 H   0  0  0  0  0  0
  -27.6893  -14.2608   19.5533 H   0  0  0  0  0  0
  -28.6796  -12.0258   21.3874 H   0  0  0  0  0  0
  -28.4609  -13.6891   21.8488 H   0  0  0  0  0  0
  -25.2794   -9.5665   22.4781 H   0  0  0  0  0  0
  -24.0019   -7.4626   22.7467 H   0  0  0  0  0  0
  -21.0879   -8.8815   19.8949 H   0  0  0  0  0  0
  -22.3769  -10.9700   19.6174 H   0  0  0  0  0  0
  -21.2011   -7.6157   23.9743 H   0  0  0  0  0  0
  -21.1476   -6.0528   25.9087 H   0  0  0  0  0  0
  -22.0595   -2.7629   23.2845 H   0  0  0  0  0  0
  -22.4101  -11.9878   22.4767 H   0  0  0  0  0  0
  -21.1114  -13.1263   22.2597 H   0  0  0  0  0  0
  -24.6602  -15.8459   20.4995 H   0  0  0  0  0  0
  -26.2777  -15.6239   20.0655 H   0  0  0  0  0  0
  -26.7134  -32.5534   23.1143 H   0  0  0  0  0  0
  -25.0085  -33.9769   25.0471 H   0  0  0  0  0  0
  -22.6948  -31.3056   21.4047 H   0  0  0  0  0  0
  -23.3752  -35.9645   23.3324 H   0  0  0  0  0  0
  -24.3580  -36.8934   22.2052 H   0  0  0  0  0  0
  -23.7242  -37.6515   23.6660 H   0  0  0  0  0  0
  -26.0520  -31.5916   20.5918 H   0  0  0  0  0  0
  -26.8205  -30.8828   21.9836 H   0  0  0  0  0  0
  -28.1043  -29.0941   21.1710 H   0  0  0  0  0  0
  -26.0699  -25.9429   19.0557 H   0  0  0  0  0  0
  -23.9768  -27.2761   19.0525 H   0  0  0  0  0  0
  -23.7248  -30.5897   19.4014 H   0  0  0  0  0  0
  -22.7388  -29.2376   19.8704 H   0  0  0  0  0  0
  -25.1282  -36.1969   25.0826 H   0  0  0  0  0  0
  -20.9931  -28.3204   24.1455 H   0  0  0  0  0  0
  -20.5679  -26.2234   23.3610 H   0  0  0  0  0  0
  -21.6615  -26.7447   22.1201 H   0  0  0  0  0  0
  -19.6914  -25.6282   21.1243 H   0  0  0  0  0  0
  -19.6696  -27.3181   20.6763 H   0  0  0  0  0  0
  -17.4189  -26.6695   21.4002 H   0  0  0  0  0  0
  -18.0287  -26.0067   22.9009 H   0  0  0  0  0  0
  -19.7942  -30.7246   24.2257 H   0  0  0  0  0  0
  -17.5027  -31.6261   24.5166 H   0  0  0  0  0  0
  -15.5346  -30.2976   23.7669 H   0  0  0  0  0  0
  -15.8666  -28.0833   22.7028 H   0  0  0  0  0  0
  -24.5851  -30.7177   25.7884 H   0  0  0  0  0  0
  -24.8953  -32.2954   26.4982 H   0  0  0  0  0  0
  -25.8046  -30.8945   27.0270 H   0  0  0  0  0  0
  -26.2900  -29.6803   24.1222 H   0  0  0  0  0  0
  -27.4117  -29.7369   25.4659 H   0  0  0  0  0  0
  -27.8711  -30.4432   23.9315 H   0  0  0  0  0  0
  -27.2609  -33.3690   26.2092 H   0  0  0  0  0  0
  -28.3801  -32.6999   25.0352 H   0  0  0  0  0  0
  -28.0688  -31.8549   26.5449 H   0  0  0  0  0  0
  -28.2591  -38.0106   24.7525 H   0  0  0  0  0  0
  -28.1074  -36.2640   24.6253 H   0  0  0  0  0  0
  -27.2303  -37.1434   25.8861 H   0  0  0  0  0  0
  -20.9325  -29.8807   21.7030 H   0  0  0  0  0  0
  -26.0191  -38.2867   24.1409 H   0  0  0  0  0  0
  -28.5146  -17.6346   21.7466 H   0  0  0  0  0  0
  -32.6277  -16.6928   20.7937 H   0  0  0  0  0  0
  -28.8791  -23.7899   19.3955 H   0  0  0  0  0  0
  -30.1610  -23.8290   20.5705 H   0  0  0  0  0  0
  -29.3771  -24.0358   23.1526 H   0  0  0  0  0  0
  -27.7231  -24.5088   23.4535 H   0  0  0  0  0  0
  -26.8748  -22.3595   22.6161 H   0  0  0  0  0  0
  -28.0606  -22.1323   23.8757 H   0  0  0  0  0  0
  -27.2080  -24.4009   21.0428 H   0  0  0  0  0  0
  -31.2822  -21.4983   22.8873 H   0  0  0  0  0  0
  -31.7212  -21.7398   21.1829 H   0  0  0  0  0  0
  -32.8534  -21.0221   22.3032 H   0  0  0  0  0  0
  -29.7246  -26.0770   21.5218 H   0  0  0  0  0  0
  -28.1680  -26.4959   22.1543 H   0  0  0  0  0  0
  -29.1319  -15.3543   21.3980 H   0  0  0  0  0  0
  1 25  1  0  0  0
  1 30  2  0  0  0
  1 86  1  0  0  0
  2  3  1  0  0  0
  2 25  1  0  0  0
  2 90  1  0  0  0
  2 91  1  0  0  0
  3  4  1  0  0  0
  3 92  1  0  0  0
  3 93  1  0  0  0
  4  5  1  0  0  0
  4 94  1  0  0  0
  4 95  1  0  0  0
  5  6  1  0  0  0
  5 26  1  0  0  0
  5 96  1  0  0  0
  6 25  1  0  0  0
  6 97  1  0  0  0
  6 98  1  0  0  0
  7  8  2  0  0  0
  7 26  1  0  0  0
  7 29  1  0  0  0
  8  9  1  0  0  0
  8 22  1  0  0  0
  9 10  1  0  0  0
  9 27  2  0  0  0
 10 11  2  0  0  0
 10 15  1  0  0  0
 11 12  1  0  0  0
 11 99  1  0  0  0
 12 13  2  0  0  0
 12100  1  0  0  0
 13 14  1  0  0  0
 13 31  1  0  0  0
 14 15  2  0  0  0
 14101  1  0  0  0
 15102  1  0  0  0
 16 17  2  0  0  0
 16 21  1  0  0  0
 16 31  1  0  0  0
 17 18  1  0  0  0
 17103  1  0  0  0
 18 19  2  0  0  0
 18104  1  0  0  0
 19 20  1  0  0  0
 19 24  1  0  0  0
 20 21  2  0  0  0
 20105  1  0  0  0
 21 23  1  0  0  0
 22 28  1  0  0  0
 22 32  2  0  0  0
 26 27  1  0  0  0
 28106  1  0  0  0
 28107  1  0  0  0
 29108  1  0  0  0
 29109  1  0  0  0
 33 34  1  0  0  0
 33 66  1  0  0  0
 33 70  2  0  0  0
 34 36  1  0  0  0
 34 59  1  0  0  0
 34110  1  0  0  0
 35 44  2  0  0  0
 35 45  1  0  0  0
 35 68  1  0  0  0
 36 56  1  0  0  0
 36111  1  0  0  0
 37 39  1  0  0  0
 37 47  1  0  0  0
 37 66  1  0  0  0
 37112  1  0  0  0
 38 43  2  0  0  0
 38 46  1  0  0  0
 38 47  1  0  0  0
 39 64  1  0  0  0
 39 67  2  0  0  0
 40 52  1  0  0  0
 40 53  2  0  0  0
 40 58  1  0  0  0
 41113  1  0  0  0
 41114  1  0  0  0
 41115  1  0  0  0
 41 48  1  0  0  0
 42 43  1  0  0  0
 42 66  1  0  0  0
 42116  1  0  0  0
 42117  1  0  0  0
 43 44  1  0  0  0
 44118  1  0  0  0
 45 46  2  0  0  0
 45119  1  0  0  0
 46120  1  0  0  0
 47121  1  0  0  0
 47122  1  0  0  0
 48 56  1  0  0  0
 48 65  1  0  0  0
 48123  1  0  0  0
 49 50  1  0  0  0
 49 53  1  0  0  0
 49 64  1  0  0  0
 49124  1  0  0  0
 50 51  1  0  0  0
 50125  1  0  0  0
 50126  1  0  0  0
 51 52  1  0  0  0
 51127  1  0  0  0
 51128  1  0  0  0
 52129  1  0  0  0
 52130  1  0  0  0
 53 54  1  0  0  0
 54 55  2  0  0  0
 54131  1  0  0  0
 55 57  1  0  0  0
 55132  1  0  0  0
 56 69  2  0  0  0
 57 58  2  0  0  0
 57133  1  0  0  0
 58134  1  0  0  0
 59 60  1  0  0  0
 59 61  1  0  0  0
 59 62  1  0  0  0
 60135  1  0  0  0
 60136  1  0  0  0
 60137  1  0  0  0
 61138  1  0  0  0
 61139  1  0  0  0
 61140  1  0  0  0
 62141  1  0  0  0
 62142  1  0  0  0
 62143  1  0  0  0
 63 65  1  0  0  0
 63144  1  0  0  0
 63145  1  0  0  0
 63146  1  0  0  0
 64147  1  0  0  0
 65148  1  0  0  0
 68 84  1  0  0  0
 71 73  2  0  0  0
 71 75  1  0  0  0
 71149  1  0  0  0
 72 75  2  0  0  0
 72 76  1  0  0  0
 72150  1  0  0  0
 73 74  1  0  0  0
 73 78  1  0  0  0
 74 76  2  0  0  0
 74 83  1  0  0  0
 75 86  1  0  0  0
 76 89  1  0  0  0
 77 79  1  0  0  0
 77 85  1  0  0  0
 77 87  2  0  0  0
 78 85  1  0  0  0
 78 88  2  0  0  0
 79 82  1  0  0  0
 79151  1  0  0  0
 79152  1  0  0  0
 80 81  1  0  0  0
 80 82  1  0  0  0
 80153  1  0  0  0
 80154  1  0  0  0
 81 85  1  0  0  0
 81155  1  0  0  0
 81156  1  0  0  0
 82 84  1  0  0  0
 82157  1  0  0  0
 83158  1  0  0  0
 83159  1  0  0  0
 83160  1  0  0  0
 84161  1  0  0  0
 84162  1  0  0  0
 86163  1  0  0  0
M  ISO  4   1 100  68 101  84 101  86 100
M  END
> <chiral flag>
0

> <version>
0

> <s_m_source_file>
/data/baiqing/PycharmProjects/Reinvent-master-3.2/result/LINK_invent/BTK/process_docking_weight1_custom_product_contain_oxygen_bond_distance_aromatic_linkinvent_7_9_3/rearranged_h_0056.sdf

> <i_m_source_file_index>
1

> <r_mmod_Potential_Energy-OPLS-2005>
22.2015857696533

> <r_mmod_Stretch_Energy-OPLS-2005>
53.0641670227051

> <r_mmod_Bend_Energy-OPLS-2005>
127.491653442383

> <r_mmod_Torsional_Energy-OPLS-2005>
287.464538574219

> <r_mmod_Improper_Torsional_Energy-OPLS-2005>
4.81291770935059

> <r_mmod_Van_der_Waal_Energy-OPLS-2005>
179.747360229492

> <r_mmod_Electrostatic_Energy-OPLS-2005>
-429.416748046875

> <r_mmod_Solvation_Energy-OPLS-2005>
-217.5732421875

> <b_mmod_Minimization_Converged-OPLS-2005>
0

> <r_mmod_RMS_Derivative-OPLS-2005>
2.50303959846497

$$$$
1
                    3D
 Structure written by MMmdl.
157165  0  0  1  0            999 V2000
  -30.6208  -14.4865   20.4872 C   0  0  0  0  0  0
  -30.4377  -12.2757   19.4259 C   0  0  0  0  0  0
  -29.5106  -12.4660   18.2053 C   0  0  0  0  0  0
  -28.0185  -12.3548   18.6015 C   0  0  0  0  0  0
  -27.6464  -13.1865   19.8581 C   0  0  2  0  0  0
  -28.6967  -12.9750   20.9774 C   0  0  0  0  0  0
  -25.2524  -13.8056   20.5686 C   0  0  0  0  0  0
  -24.1771  -13.0368   20.9232 C   0  0  0  0  0  0
  -24.6308  -11.6847   20.8726 C   0  0  0  0  0  0
  -23.8972  -10.4260   21.0395 C   0  0  0  0  0  0
  -24.3552   -9.4199   21.9187 C   0  0  0  0  0  0
  -23.6266   -8.2225   22.0743 C   0  0  0  0  0  0
  -22.4260   -8.0242   21.3534 C   0  0  0  0  0  0
  -21.9868   -9.0196   20.4636 C   0  0  0  0  0  0
  -22.7152  -10.2093   20.3040 C   0  0  0  0  0  0
  -21.6835   -6.0711   22.5284 C   0  0  0  0  0  0
  -21.3999   -6.5608   23.8223 C   0  0  0  0  0  0
  -21.3694   -5.6770   24.9187 C   0  0  0  0  0  0
  -21.6052   -4.3039   24.7234 C   0  0  0  0  0  0
  -21.8817   -3.8117   23.4362 C   0  0  0  0  0  0
  -21.9191   -4.6931   22.3412 C   0  0  0  0  0  0
  -22.7813  -13.5210   21.1915 C   0  0  0  0  0  0
  -22.1666   -4.2118   21.0995 F   0  0  0  0  0  0
  -21.5658   -3.4527   25.7757 F   0  0  0  0  0  0
  -30.0322  -13.2681   20.4222 N   0  0  0  0  0  0
  -26.2917  -12.9187   20.3284 N   0  0  0  0  0  0
  -25.9209  -11.6364   20.5681 N   0  0  0  0  0  0
  -22.0406  -12.8234   22.0445 N   0  0  0  0  0  0
  -25.4146  -15.1816   20.4189 N   0  0  0  0  0  0
  -31.8109  -14.7169   20.2573 O   0  0  0  0  0  0
  -21.6627   -6.8846   21.4249 O   0  0  0  0  0  0
  -22.3536  -14.5530   20.6751 O   0  0  0  0  0  0
  -24.6107  -31.8699   23.2113 C   0  0  0  0  0  0
  -25.9017  -32.4831   23.8396 C   0  0  1  0  0  0
  -27.2443  -27.4665   20.0978 C   0  0  0  0  0  0
  -25.5912  -33.8634   24.2365 N   0  0  0  0  0  0
  -23.3997  -30.4901   21.5523 C   0  0  2  0  0  0
  -24.8488  -28.9556   20.1220 C   0  0  0  0  0  0
  -22.7428  -29.4657   22.5021 C   0  0  0  0  0  0
  -18.0282  -28.1295   22.8602 C   0  0  0  0  0  0
  -24.1496  -36.7298   23.2639 C   0  0  0  0  0  0
  -25.9226  -30.8447   21.3607 C   0  0  0  0  0  0
  -26.0036  -29.4751   20.7205 C   0  0  0  0  0  0
  -27.2036  -28.7349   20.7187 C   0  0  0  0  0  0
  -26.0788  -26.9510   19.4969 C   0  0  0  0  0  0
  -24.8775  -27.6863   19.5127 C   0  0  0  0  0  0
  -23.6089  -29.8204   20.1664 C   0  0  0  0  0  0
  -25.4094  -36.3106   24.0362 C   0  0  1  0  0  0
  -20.5888  -28.3632   23.1320 C   0  0  2  0  0  0
  -20.6827  -26.9438   22.5231 C   0  0  0  0  0  0
  -19.5657  -26.6435   21.5160 C   0  0  0  0  0  0
  -18.1960  -26.7814   22.1801 C   0  0  0  0  0  0
  -19.1533  -28.8799   23.2934 C   0  0  0  0  0  0
  -18.9443  -30.1448   23.8860 C   0  0  0  0  0  0
  -17.6435  -30.6585   24.0437 C   0  0  0  0  0  0
  -25.9026  -34.9471   23.5137 C   0  0  0  0  0  0
  -16.5335  -29.9020   23.6284 C   0  0  0  0  0  0
  -16.7267  -28.6397   23.0451 C   0  0  0  0  0  0
  -26.4476  -31.6587   25.0695 C   0  0  0  0  0  0
  -25.3748  -31.3643   26.1441 C   0  0  0  0  0  0
  -27.0320  -30.3056   24.6011 C   0  0  0  0  0  0
  -27.6085  -32.4292   25.7445 C   0  0  0  0  0  0
  -27.5589  -37.1803   24.8472 C   0  0  0  0  0  0
  -21.4148  -29.3059   22.3803 N   0  0  0  0  0  0
  -26.4296  -37.3791   23.9413 N   0  0  0  0  0  0
  -24.6640  -31.0819   22.1018 N   0  0  0  0  0  0
  -23.4226  -28.8181   23.3041 O   0  0  0  0  0  0
  -28.4087  -26.7434   20.0270 O   0  0  0  0  0  0
  -26.5579  -34.8927   22.4694 O   0  0  0  0  0  0
  -23.5294  -32.1426   23.7530 O   0  0  0  0  0  0
  -30.3166  -17.4287   21.7162 C   0  0  0  0  0  0
  -28.5669  -17.5186   20.0585 C   0  0  0  0  0  0
  -29.8896  -18.7075   22.1527 C   0  0  0  0  0  0
  -29.5968  -16.8020   20.6811 C   0  0  0  0  0  0
  -28.7814  -19.3214   21.5005 C   0  0  0  0  0  0
  -28.1302  -20.5957   21.9134 C   0  0  0  0  0  0
  -27.8616  -22.6662   22.7826 C   0  0  0  0  0  0
  -30.5656  -19.3361   23.3654 C   0  0  0  0  0  0
  -28.5331  -24.0391   22.7026 C   0  0  0  0  0  0
  -28.1205  -24.7683   21.4130 C   0  0  0  0  0  0
  -28.8126  -26.1318   21.2472 C   0  0  0  0  0  0
  -28.1699  -18.7366   20.4492 N   0  0  0  0  0  0
  -28.6986  -21.6297   22.4018 N   0  0  0  0  0  0
  -29.6854  -15.4338   20.3404 N   0  0  0  0  0  0
  -26.6763  -22.6031   23.1223 O   0  0  0  0  0  0
  -31.4846  -12.3916   19.1346 H   0  0  0  0  0  0
  -30.3459  -11.2702   19.8389 H   0  0  0  0  0  0
  -29.7476  -11.7255   17.4391 H   0  0  0  0  0  0
  -29.7081  -13.4380   17.7520 H   0  0  0  0  0  0
  -27.8058  -11.3016   18.7835 H   0  0  0  0  0  0
  -27.3870  -12.6502   17.7613 H   0  0  0  0  0  0
  -27.6486  -14.2263   19.5375 H   0  0  0  0  0  0
  -28.6620  -11.9446   21.3329 H   0  0  0  0  0  0
  -28.4720  -13.6059   21.8399 H   0  0  0  0  0  0
  -25.2689   -9.5714   22.4769 H   0  0  0  0  0  0
  -23.9989   -7.4619   22.7454 H   0  0  0  0  0  0
  -21.0813   -8.8691   19.8935 H   0  0  0  0  0  0
  -22.3598  -10.9629   19.6150 H   0  0  0  0  0  0
  -21.1953   -7.6110   23.9717 H   0  0  0  0  0  0
  -21.1547   -6.0502   25.9104 H   0  0  0  0  0  0
  -22.0558   -2.7570   23.2868 H   0  0  0  0  0  0
  -22.3963  -11.9912   22.4934 H   0  0  0  0  0  0
  -21.0992  -13.1263   22.2531 H   0  0  0  0  0  0
  -24.6289  -15.8110   20.5455 H   0  0  0  0  0  0
  -26.2472  -15.6502   20.0960 H   0  0  0  0  0  0
  -26.7092  -32.5565   23.1159 H   0  0  0  0  0  0
  -25.0105  -33.9801   25.0548 H   0  0  0  0  0  0
  -22.6816  -31.3008   21.4138 H   0  0  0  0  0  0
  -23.3771  -35.9633   23.3309 H   0  0  0  0  0  0
  -24.3590  -36.8876   22.2054 H   0  0  0  0  0  0
  -23.7261  -37.6513   23.6633 H   0  0  0  0  0  0
  -26.0203  -31.6066   20.5862 H   0  0  0  0  0  0
  -26.8144  -30.9070   21.9728 H   0  0  0  0  0  0
  -28.0988  -29.1429   21.1695 H   0  0  0  0  0  0
  -26.1076  -25.9845   19.0135 H   0  0  0  0  0  0
  -23.9922  -27.2758   19.0480 H   0  0  0  0  0  0
  -23.7163  -30.5939   19.4021 H   0  0  0  0  0  0
  -22.7358  -29.2336   19.8757 H   0  0  0  0  0  0
  -25.1294  -36.1976   25.0873 H   0  0  0  0  0  0
  -20.9973  -28.3098   24.1432 H   0  0  0  0  0  0
  -20.6000  -26.2167   23.3325 H   0  0  0  0  0  0
  -21.6633  -26.7681   22.0797 H   0  0  0  0  0  0
  -19.6796  -25.6390   21.1071 H   0  0  0  0  0  0
  -19.6377  -27.3320   20.6726 H   0  0  0  0  0  0
  -17.4082  -26.6438   21.4393 H   0  0  0  0  0  0
  -18.0666  -25.9946   22.9252 H   0  0  0  0  0  0
  -19.7897  -30.7314   24.2173 H   0  0  0  0  0  0
  -17.4932  -31.6345   24.4840 H   0  0  0  0  0  0
  -15.5318  -30.2902   23.7520 H   0  0  0  0  0  0
  -15.8675  -28.0646   22.7248 H   0  0  0  0  0  0
  -24.5932  -30.7000   25.7727 H   0  0  0  0  0  0
  -24.8923  -32.2789   26.4931 H   0  0  0  0  0  0
  -25.8098  -30.8754   27.0167 H   0  0  0  0  0  0
  -26.2839  -29.6785   24.1141 H   0  0  0  0  0  0
  -27.4230  -29.7319   25.4420 H   0  0  0  0  0  0
  -27.8619  -30.4419   23.9056 H   0  0  0  0  0  0
  -27.2742  -33.3580   26.2074 H   0  0  0  0  0  0
  -28.3864  -32.6845   25.0241 H   0  0  0  0  0  0
  -28.0795  -31.8366   26.5295 H   0  0  0  0  0  0
  -28.2615  -38.0096   24.7521 H   0  0  0  0  0  0
  -28.1078  -36.2622   24.6309 H   0  0  0  0  0  0
  -27.2292  -37.1475   25.8873 H   0  0  0  0  0  0
  -20.9280  -29.8887   21.7122 H   0  0  0  0  0  0
  -26.0179  -38.2883   24.1405 H   0  0  0  0  0  0
  -31.1117  -16.9038   22.2266 H   0  0  0  0  0  0
  -27.9880  -17.0708   19.2631 H   0  0  0  0  0  0
  -27.0478  -20.5879   21.7326 H   0  0  0  0  0  0
  -31.3005  -18.6693   23.8161 H   0  0  0  0  0  0
  -29.8294  -19.5685   24.1373 H   0  0  0  0  0  0
  -31.0770  -20.2617   23.0964 H   0  0  0  0  0  0
  -29.6174  -23.9322   22.7530 H   0  0  0  0  0  0
  -28.2433  -24.6310   23.5728 H   0  0  0  0  0  0
  -28.3499  -24.1425   20.5493 H   0  0  0  0  0  0
  -27.0374  -24.9042   21.4133 H   0  0  0  0  0  0
  -28.6108  -26.7721   22.1077 H   0  0  0  0  0  0
  -29.8921  -25.9903   21.2159 H   0  0  0  0  0  0
  -28.8014  -15.0259   20.0757 H   0  0  0  0  0  0
  1 25  1  0  0  0
  1 30  2  0  0  0
  1 84  1  0  0  0
  2  3  1  0  0  0
  2 25  1  0  0  0
  2 86  1  0  0  0
  2 87  1  0  0  0
  3  4  1  0  0  0
  3 88  1  0  0  0
  3 89  1  0  0  0
  4  5  1  0  0  0
  4 90  1  0  0  0
  4 91  1  0  0  0
  5  6  1  0  0  0
  5 26  1  0  0  0
  5 92  1  0  0  0
  6 25  1  0  0  0
  6 93  1  0  0  0
  6 94  1  0  0  0
  7  8  2  0  0  0
  7 26  1  0  0  0
  7 29  1  0  0  0
  8  9  1  0  0  0
  8 22  1  0  0  0
  9 10  1  0  0  0
  9 27  2  0  0  0
 10 11  2  0  0  0
 10 15  1  0  0  0
 11 12  1  0  0  0
 11 95  1  0  0  0
 12 13  2  0  0  0
 12 96  1  0  0  0
 13 14  1  0  0  0
 13 31  1  0  0  0
 14 15  2  0  0  0
 14 97  1  0  0  0
 15 98  1  0  0  0
 16 17  2  0  0  0
 16 21  1  0  0  0
 16 31  1  0  0  0
 17 18  1  0  0  0
 17 99  1  0  0  0
 18 19  2  0  0  0
 18100  1  0  0  0
 19 20  1  0  0  0
 19 24  1  0  0  0
 20 21  2  0  0  0
 20101  1  0  0  0
 21 23  1  0  0  0
 22 28  1  0  0  0
 22 32  2  0  0  0
 26 27  1  0  0  0
 28102  1  0  0  0
 28103  1  0  0  0
 29104  1  0  0  0
 29105  1  0  0  0
 33 34  1  0  0  0
 33 66  1  0  0  0
 33 70  2  0  0  0
 34 36  1  0  0  0
 34 59  1  0  0  0
 34106  1  0  0  0
 35 44  2  0  0  0
 35 45  1  0  0  0
 35 68  1  0  0  0
 36 56  1  0  0  0
 36107  1  0  0  0
 37 39  1  0  0  0
 37 47  1  0  0  0
 37 66  1  0  0  0
 37108  1  0  0  0
 38 43  2  0  0  0
 38 46  1  0  0  0
 38 47  1  0  0  0
 39 64  1  0  0  0
 39 67  2  0  0  0
 40 52  1  0  0  0
 40 53  2  0  0  0
 40 58  1  0  0  0
 41109  1  0  0  0
 41110  1  0  0  0
 41111  1  0  0  0
 41 48  1  0  0  0
 42 43  1  0  0  0
 42 66  1  0  0  0
 42112  1  0  0  0
 42113  1  0  0  0
 43 44  1  0  0  0
 44114  1  0  0  0
 45 46  2  0  0  0
 45115  1  0  0  0
 46116  1  0  0  0
 47117  1  0  0  0
 47118  1  0  0  0
 48 56  1  0  0  0
 48 65  1  0  0  0
 48119  1  0  0  0
 49 50  1  0  0  0
 49 53  1  0  0  0
 49 64  1  0  0  0
 49120  1  0  0  0
 50 51  1  0  0  0
 50121  1  0  0  0
 50122  1  0  0  0
 51 52  1  0  0  0
 51123  1  0  0  0
 51124  1  0  0  0
 52125  1  0  0  0
 52126  1  0  0  0
 53 54  1  0  0  0
 54 55  2  0  0  0
 54127  1  0  0  0
 55 57  1  0  0  0
 55128  1  0  0  0
 56 69  2  0  0  0
 57 58  2  0  0  0
 57129  1  0  0  0
 58130  1  0  0  0
 59 60  1  0  0  0
 59 61  1  0  0  0
 59 62  1  0  0  0
 60131  1  0  0  0
 60132  1  0  0  0
 60133  1  0  0  0
 61134  1  0  0  0
 61135  1  0  0  0
 61136  1  0  0  0
 62137  1  0  0  0
 62138  1  0  0  0
 62139  1  0  0  0
 63 65  1  0  0  0
 63140  1  0  0  0
 63141  1  0  0  0
 63142  1  0  0  0
 64143  1  0  0  0
 65144  1  0  0  0
 68 81  1  0  0  0
 71 73  2  0  0  0
 71 74  1  0  0  0
 71145  1  0  0  0
 72 74  2  0  0  0
 72 82  1  0  0  0
 72146  1  0  0  0
 73 75  1  0  0  0
 73 78  1  0  0  0
 74 84  1  0  0  0
 75 76  1  0  0  0
 75 82  2  0  0  0
 76 83  2  0  0  0
 76147  1  0  0  0
 77 79  1  0  0  0
 77 83  1  0  0  0
 77 85  2  0  0  0
 78148  1  0  0  0
 78149  1  0  0  0
 78150  1  0  0  0
 79 80  1  0  0  0
 79151  1  0  0  0
 79152  1  0  0  0
 80 81  1  0  0  0
 80153  1  0  0  0
 80154  1  0  0  0
 81155  1  0  0  0
 81156  1  0  0  0
 84157  1  0  0  0
M  ISO  4   1 100  68 101  81 101  84 100
M  END
> <chiral flag>
0

> <version>
0

> <s_m_source_file>
/data/baiqing/PycharmProjects/Reinvent-master-3.2/result/LINK_invent/BTK/process_docking_weight1_custom_product_contain_oxygen_bond_distance_aromatic_linkinvent_7_9_3/rearranged_h_0056.sdf

> <i_m_source_file_index>
2

> <r_mmod_Potential_Energy-OPLS-2005>
-149.390121459961

> <r_mmod_Stretch_Energy-OPLS-2005>
33.3170051574707

> <r_mmod_Bend_Energy-OPLS-2005>
113.116088867188

> <r_mmod_Torsional_Energy-OPLS-2005>
275.540954589844

> <r_mmod_Improper_Torsional_Energy-OPLS-2005>
16.4938564300537

> <r_mmod_Van_der_Waal_Energy-OPLS-2005>
162.978897094727

> <r_mmod_Electrostatic_Energy-OPLS-2005>
-554.919616699219

> <r_mmod_Solvation_Energy-OPLS-2005>
-214.76432800293

> <b_mmod_Minimization_Converged-OPLS-2005>
0

> <r_mmod_RMS_Derivative-OPLS-2005>
4.23728895187378

$$$$
2
                    3D
 Structure written by MMmdl.
163172  0  0  1  0            999 V2000
  -30.6554  -14.4518   20.5834 C   0  0  0  0  0  0
  -30.4407  -12.3114   19.3911 C   0  0  0  0  0  0
  -29.4952  -12.5288   18.1894 C   0  0  0  0  0  0
  -28.0164  -12.3708   18.6017 C   0  0  0  0  0  0
  -27.6644  -13.1873   19.8738 C   0  0  2  0  0  0
  -28.7056  -12.9164   20.9838 C   0  0  0  0  0  0
  -25.2613  -13.8108   20.5607 C   0  0  0  0  0  0
  -24.1844  -13.0424   20.9152 C   0  0  0  0  0  0
  -24.6364  -11.6875   20.8703 C   0  0  0  0  0  0
  -23.9012  -10.4289   21.0401 C   0  0  0  0  0  0
  -24.3578   -9.4218   21.9179 C   0  0  0  0  0  0
  -23.6274   -8.2241   22.0740 C   0  0  0  0  0  0
  -22.4259   -8.0266   21.3529 C   0  0  0  0  0  0
  -21.9878   -9.0241   20.4646 C   0  0  0  0  0  0
  -22.7177  -10.2137   20.3057 C   0  0  0  0  0  0
  -21.6853   -6.0727   22.5275 C   0  0  0  0  0  0
  -21.4005   -6.5633   23.8209 C   0  0  0  0  0  0
  -21.3662   -5.6782   24.9166 C   0  0  0  0  0  0
  -21.6051   -4.3048   24.7214 C   0  0  0  0  0  0
  -21.8817   -3.8143   23.4332 C   0  0  0  0  0  0
  -21.9197   -4.6957   22.3392 C   0  0  0  0  0  0
  -22.7888  -13.5251   21.1846 C   0  0  0  0  0  0
  -22.1666   -4.2140   21.0969 F   0  0  0  0  0  0
  -21.5635   -3.4536   25.7737 F   0  0  0  0  0  0
  -30.0353  -13.2523   20.4432 N   0  0  0  0  0  0
  -26.3020  -12.9225   20.3313 N   0  0  0  0  0  0
  -25.9279  -11.6405   20.5714 N   0  0  0  0  0  0
  -22.0508  -12.8270   22.0401 N   0  0  0  0  0  0
  -25.4388  -15.1805   20.3961 N   0  0  0  0  0  0
  -31.8010  -14.6731   20.1769 O   0  0  0  0  0  0
  -21.6624   -6.8864   21.4235 O   0  0  0  0  0  0
  -22.3581  -14.5574   20.6718 O   0  0  0  0  0  0
  -24.6123  -31.8697   23.2122 C   0  0  0  0  0  0
  -25.9022  -32.4832   23.8406 C   0  0  1  0  0  0
  -27.2412  -27.4544   20.0819 C   0  0  0  0  0  0
  -25.5886  -33.8627   24.2338 N   0  0  0  0  0  0
  -23.3984  -30.4936   21.5525 C   0  0  2  0  0  0
  -24.8440  -28.9653   20.1194 C   0  0  0  0  0  0
  -22.7389  -29.4664   22.5006 C   0  0  0  0  0  0
  -18.0259  -28.1372   22.8500 C   0  0  0  0  0  0
  -24.1478  -36.7303   23.2644 C   0  0  0  0  0  0
  -25.9265  -30.8430   21.3611 C   0  0  0  0  0  0
  -26.0045  -29.4784   20.7096 C   0  0  0  0  0  0
  -27.2032  -28.7319   20.6850 C   0  0  0  0  0  0
  -26.0485  -26.9478   19.5058 C   0  0  0  0  0  0
  -24.8610  -27.6984   19.5168 C   0  0  0  0  0  0
  -23.6052  -29.8276   20.1674 C   0  0  0  0  0  0
  -25.4099  -36.3105   24.0338 C   0  0  1  0  0  0
  -20.5850  -28.3645   23.1336 C   0  0  2  0  0  0
  -20.6743  -26.9383   22.5420 C   0  0  0  0  0  0
  -19.5726  -26.6388   21.5210 C   0  0  0  0  0  0
  -18.1907  -26.7924   22.1629 C   0  0  0  0  0  0
  -19.1510  -28.8825   23.2918 C   0  0  0  0  0  0
  -18.9442  -30.1437   23.8923 C   0  0  0  0  0  0
  -17.6448  -30.6584   24.0569 C   0  0  0  0  0  0
  -25.9031  -34.9474   23.5134 C   0  0  0  0  0  0
  -16.5337  -29.9088   23.6329 C   0  0  0  0  0  0
  -16.7250  -28.6500   23.0354 C   0  0  0  0  0  0
  -26.4475  -31.6601   25.0718 C   0  0  0  0  0  0
  -25.3767  -31.3704   26.1485 C   0  0  0  0  0  0
  -27.0300  -30.3048   24.6074 C   0  0  0  0  0  0
  -27.6071  -32.4313   25.7454 C   0  0  0  0  0  0
  -27.5576  -37.1799   24.8470 C   0  0  0  0  0  0
  -21.4117  -29.3027   22.3754 N   0  0  0  0  0  0
  -26.4286  -37.3790   23.9417 N   0  0  0  0  0  0
  -24.6641  -31.0821   22.1011 N   0  0  0  0  0  0
  -23.4175  -28.8203   23.3034 O   0  0  0  0  0  0
  -28.4498  -26.7837   20.0597 O   0  0  0  0  0  0
  -26.5593  -34.8925   22.4696 O   0  0  0  0  0  0
  -23.5320  -32.1435   23.7528 O   0  0  0  0  0  0
  -29.7303  -18.7936   22.5450 C   0  0  0  0  0  0
  -30.2371  -19.6033   21.5169 C   0  0  0  0  0  0
  -29.6242  -17.4080   22.3533 C   0  0  0  0  0  0
  -30.6150  -19.0561   20.2693 C   0  0  0  0  0  0
  -30.4514  -17.6515   20.0548 C   0  0  0  0  0  0
  -30.0131  -16.8231   21.1321 C   0  0  0  0  0  0
  -29.0794  -23.2603   17.5550 C   0  0  0  0  0  0
  -28.9818  -22.0284   17.0474 C   0  0  0  0  0  0
  -29.8516  -23.5391   18.7438 C   0  0  0  0  0  0
  -30.5449  -22.4701   19.2977 C   0  0  0  0  0  0
  -29.6805  -20.9001   17.6361 C   0  0  0  0  0  0
  -30.7029  -17.0430   18.6756 C   0  0  0  0  0  0
  -31.2771  -19.9927   19.2389 C   0  0  0  0  0  0
  -29.8703  -24.9493   19.3209 C   0  0  0  0  0  0
  -28.4669  -25.3862   19.7723 C   0  0  0  0  0  0
  -30.4555  -21.1485   18.7374 N   0  0  0  0  0  0
  -29.8341  -15.4138   21.0474 N   0  0  0  0  0  0
  -31.2962  -22.4513   20.2968 O   0  5  0  0  0  0
  -29.5865  -19.7881   17.1196 O   0  0  0  0  0  0
  -31.4784  -12.4569   19.0823 H   0  0  0  0  0  0
  -30.3751  -11.2854   19.7549 H   0  0  0  0  0  0
  -29.7378  -11.8366   17.3820 H   0  0  0  0  0  0
  -29.6515  -13.5298   17.7831 H   0  0  0  0  0  0
  -27.8288  -11.3108   18.7807 H   0  0  0  0  0  0
  -27.3642  -12.6568   17.7759 H   0  0  0  0  0  0
  -27.7204  -14.2397   19.5965 H   0  0  0  0  0  0
  -28.6858  -11.8621   21.2657 H   0  0  0  0  0  0
  -28.4678  -13.4609   21.8994 H   0  0  0  0  0  0
  -25.2725   -9.5710   22.4741 H   0  0  0  0  0  0
  -23.9996   -7.4634   22.7455 H   0  0  0  0  0  0
  -21.0803   -8.8758   19.8962 H   0  0  0  0  0  0
  -22.3622  -10.9679   19.6172 H   0  0  0  0  0  0
  -21.1980   -7.6144   23.9700 H   0  0  0  0  0  0
  -21.1494   -6.0515   25.9070 H   0  0  0  0  0  0
  -22.0600   -2.7606   23.2831 H   0  0  0  0  0  0
  -22.4092  -11.9943   22.4842 H   0  0  0  0  0  0
  -21.1140  -13.1354   22.2589 H   0  0  0  0  0  0
  -24.6715  -15.8391   20.4770 H   0  0  0  0  0  0
  -26.2820  -15.6057   20.0298 H   0  0  0  0  0  0
  -26.7094  -32.5558   23.1176 H   0  0  0  0  0  0
  -25.0020  -33.9803   25.0470 H   0  0  0  0  0  0
  -22.6856  -31.3087   21.4142 H   0  0  0  0  0  0
  -23.3736  -35.9642   23.3327 H   0  0  0  0  0  0
  -24.3567  -36.8895   22.2053 H   0  0  0  0  0  0
  -23.7241  -37.6515   23.6646 H   0  0  0  0  0  0
  -26.0333  -31.6114   20.5941 H   0  0  0  0  0  0
  -26.8162  -30.8986   21.9760 H   0  0  0  0  0  0
  -28.1040  -29.1354   21.1275 H   0  0  0  0  0  0
  -25.9875  -25.9878   19.0214 H   0  0  0  0  0  0
  -23.9708  -27.2944   19.0537 H   0  0  0  0  0  0
  -23.7062  -30.6005   19.4034 H   0  0  0  0  0  0
  -22.7328  -29.2402   19.8773 H   0  0  0  0  0  0
  -25.1277  -36.1964   25.0834 H   0  0  0  0  0  0
  -20.9941  -28.3192   24.1459 H   0  0  0  0  0  0
  -20.5629  -26.2245   23.3592 H   0  0  0  0  0  0
  -21.6617  -26.7427   22.1225 H   0  0  0  0  0  0
  -19.6882  -25.6312   21.1215 H   0  0  0  0  0  0
  -19.6666  -27.3220   20.6753 H   0  0  0  0  0  0
  -17.4168  -26.6663   21.4040 H   0  0  0  0  0  0
  -18.0319  -26.0063   22.9028 H   0  0  0  0  0  0
  -19.7918  -30.7245   24.2301 H   0  0  0  0  0  0
  -17.5003  -31.6269   24.5158 H   0  0  0  0  0  0
  -15.5336  -30.3000   23.7645 H   0  0  0  0  0  0
  -15.8645  -28.0833   22.7064 H   0  0  0  0  0  0
  -24.5913  -30.7079   25.7830 H   0  0  0  0  0  0
  -24.8993  -32.2865   26.4976 H   0  0  0  0  0  0
  -25.8140  -30.8839   27.0212 H   0  0  0  0  0  0
  -26.2831  -29.6800   24.1161 H   0  0  0  0  0  0
  -27.4119  -29.7292   25.4516 H   0  0  0  0  0  0
  -27.8645  -30.4371   23.9183 H   0  0  0  0  0  0
  -27.2703  -33.3585   26.2098 H   0  0  0  0  0  0
  -28.3829  -32.6916   25.0244 H   0  0  0  0  0  0
  -28.0797  -31.8398   26.5305 H   0  0  0  0  0  0
  -28.2611  -38.0078   24.7493 H   0  0  0  0  0  0
  -28.1049  -36.2610   24.6313 H   0  0  0  0  0  0
  -27.2298  -37.1477   25.8877 H   0  0  0  0  0  0
  -20.9252  -29.8771   21.7016 H   0  0  0  0  0  0
  -26.0171  -38.2861   24.1434 H   0  0  0  0  0  0
  -29.4455  -19.2370   23.4911 H   0  0  0  0  0  0
  -30.3448  -20.6573   21.7120 H   0  0  0  0  0  0
  -29.2429  -16.7962   23.1598 H   0  0  0  0  0  0
  -28.5509  -24.0614   17.0546 H   0  0  0  0  0  0
  -28.3812  -21.8658   16.1633 H   0  0  0  0  0  0
  -30.3785  -17.6901   17.8722 H   0  0  0  0  0  0
  -30.1285  -16.1303   18.5252 H   0  0  0  0  0  0
  -31.7596  -16.8226   18.5308 H   0  0  0  0  0  0
  -31.6625  -19.4236   18.3931 H   0  0  0  0  0  0
  -32.2172  -20.3220   19.6859 H   0  0  0  0  0  0
  -30.2310  -25.6200   18.5399 H   0  0  0  0  0  0
  -30.5737  -25.0349   20.1493 H   0  0  0  0  0  0
  -28.1615  -24.8267   20.6582 H   0  0  0  0  0  0
  -27.7856  -25.1281   18.9692 H   0  0  0  0  0  0
  -28.9624  -15.0658   21.4151 H   0  0  0  0  0  0
  1 25  1  0  0  0
  1 30  2  0  0  0
  1 87  1  0  0  0
  2  3  1  0  0  0
  2 25  1  0  0  0
  2 90  1  0  0  0
  2 91  1  0  0  0
  3  4  1  0  0  0
  3 92  1  0  0  0
  3 93  1  0  0  0
  4  5  1  0  0  0
  4 94  1  0  0  0
  4 95  1  0  0  0
  5  6  1  0  0  0
  5 26  1  0  0  0
  5 96  1  0  0  0
  6 25  1  0  0  0
  6 97  1  0  0  0
  6 98  1  0  0  0
  7  8  2  0  0  0
  7 26  1  0  0  0
  7 29  1  0  0  0
  8  9  1  0  0  0
  8 22  1  0  0  0
  9 10  1  0  0  0
  9 27  2  0  0  0
 10 11  2  0  0  0
 10 15  1  0  0  0
 11 12  1  0  0  0
 11 99  1  0  0  0
 12 13  2  0  0  0
 12100  1  0  0  0
 13 14  1  0  0  0
 13 31  1  0  0  0
 14 15  2  0  0  0
 14101  1  0  0  0
 15102  1  0  0  0
 16 17  2  0  0  0
 16 21  1  0  0  0
 16 31  1  0  0  0
 17 18  1  0  0  0
 17103  1  0  0  0
 18 19  2  0  0  0
 18104  1  0  0  0
 19 20  1  0  0  0
 19 24  1  0  0  0
 20 21  2  0  0  0
 20105  1  0  0  0
 21 23  1  0  0  0
 22 28  1  0  0  0
 22 32  2  0  0  0
 26 27  1  0  0  0
 28106  1  0  0  0
 28107  1  0  0  0
 29108  1  0  0  0
 29109  1  0  0  0
 33 34  1  0  0  0
 33 66  1  0  0  0
 33 70  2  0  0  0
 34 36  1  0  0  0
 34 59  1  0  0  0
 34110  1  0  0  0
 35 44  2  0  0  0
 35 45  1  0  0  0
 35 68  1  0  0  0
 36 56  1  0  0  0
 36111  1  0  0  0
 37 39  1  0  0  0
 37 47  1  0  0  0
 37 66  1  0  0  0
 37112  1  0  0  0
 38 43  2  0  0  0
 38 46  1  0  0  0
 38 47  1  0  0  0
 39 64  1  0  0  0
 39 67  2  0  0  0
 40 52  1  0  0  0
 40 53  2  0  0  0
 40 58  1  0  0  0
 41113  1  0  0  0
 41114  1  0  0  0
 41115  1  0  0  0
 41 48  1  0  0  0
 42 43  1  0  0  0
 42 66  1  0  0  0
 42116  1  0  0  0
 42117  1  0  0  0
 43 44  1  0  0  0
 44118  1  0  0  0
 45 46  2  0  0  0
 45119  1  0  0  0
 46120  1  0  0  0
 47121  1  0  0  0
 47122  1  0  0  0
 48 56  1  0  0  0
 48 65  1  0  0  0
 48123  1  0  0  0
 49 50  1  0  0  0
 49 53  1  0  0  0
 49 64  1  0  0  0
 49124  1  0  0  0
 50 51  1  0  0  0
 50125  1  0  0  0
 50126  1  0  0  0
 51 52  1  0  0  0
 51127  1  0  0  0
 51128  1  0  0  0
 52129  1  0  0  0
 52130  1  0  0  0
 53 54  1  0  0  0
 54 55  2  0  0  0
 54131  1  0  0  0
 55 57  1  0  0  0
 55132  1  0  0  0
 56 69  2  0  0  0
 57 58  2  0  0  0
 57133  1  0  0  0
 58134  1  0  0  0
 59 60  1  0  0  0
 59 61  1  0  0  0
 59 62  1  0  0  0
 60135  1  0  0  0
 60136  1  0  0  0
 60137  1  0  0  0
 61138  1  0  0  0
 61139  1  0  0  0
 61140  1  0  0  0
 62141  1  0  0  0
 62142  1  0  0  0
 62143  1  0  0  0
 63 65  1  0  0  0
 63144  1  0  0  0
 63145  1  0  0  0
 63146  1  0  0  0
 64147  1  0  0  0
 65148  1  0  0  0
 68 85  1  0  0  0
 71 72  2  0  0  0
 71 73  1  0  0  0
 71149  1  0  0  0
 72 74  1  0  0  0
 72150  1  0  0  0
 73 76  2  0  0  0
 73151  1  0  0  0
 74 75  2  0  0  0
 74 83  1  0  0  0
 75 76  1  0  0  0
 75 82  1  0  0  0
 76 87  1  0  0  0
 77 78  2  0  0  0
 77 79  1  0  0  0
 77152  1  0  0  0
 78 81  1  0  0  0
 78153  1  0  0  0
 79 80  2  0  0  0
 79 84  1  0  0  0
 80 86  1  0  0  0
 80 88  1  0  0  0
 81 86  1  0  0  0
 81 89  2  0  0  0
 82154  1  0  0  0
 82155  1  0  0  0
 82156  1  0  0  0
 83 86  1  0  0  0
 83157  1  0  0  0
 83158  1  0  0  0
 84 85  1  0  0  0
 84159  1  0  0  0
 84160  1  0  0  0
 85161  1  0  0  0
 85162  1  0  0  0
 87163  1  0  0  0
M  CHG  1  88  -1
M  ISO  4   1 100  68 101  85 101  87 100
M  END
> <chiral flag>
0

> <version>
0

> <s_m_source_file>
/data/baiqing/PycharmProjects/Reinvent-master-3.2/result/LINK_invent/BTK/process_docking_weight1_custom_product_contain_oxygen_bond_distance_aromatic_linkinvent_7_9_3/rearranged_h_0056.sdf

> <i_m_source_file_index>
3

> <r_mmod_Potential_Energy-OPLS-2005>
-275.156921386719

> <r_mmod_Stretch_Energy-OPLS-2005>
49.00439453125

> <r_mmod_Bend_Energy-OPLS-2005>
125.374778747559

> <r_mmod_Torsional_Energy-OPLS-2005>
237.303955078125

> <r_mmod_Improper_Torsional_Energy-OPLS-2005>
4.80985879898071

> <r_mmod_Van_der_Waal_Energy-OPLS-2005>
212.720413208008

> <r_mmod_Electrostatic_Energy-OPLS-2005>
-478.956604003906

> <r_mmod_Solvation_Energy-OPLS-2005>
-437.961578369141

> <b_mmod_Minimization_Converged-OPLS-2005>
0

> <r_mmod_RMS_Derivative-OPLS-2005>
2.74121356010437

$$$$
3
                    3D
 Structure written by MMmdl.
156164  0  0  1  0            999 V2000
  -30.7181  -14.4904   20.5553 C   0  0  0  0  0  0
  -30.4156  -12.3139   19.4336 C   0  0  0  0  0  0
  -29.4941  -12.5023   18.2119 C   0  0  0  0  0  0
  -28.0161  -12.3625   18.6237 C   0  0  0  0  0  0
  -27.6578  -13.2143   19.8712 C   0  0  2  0  0  0
  -28.7009  -13.0278   20.9976 C   0  0  0  0  0  0
  -25.2541  -13.8153   20.5653 C   0  0  0  0  0  0
  -24.1820  -13.0424   20.9194 C   0  0  0  0  0  0
  -24.6396  -11.6901   20.8752 C   0  0  0  0  0  0
  -23.9065  -10.4286   21.0410 C   0  0  0  0  0  0
  -24.3616   -9.4201   21.9186 C   0  0  0  0  0  0
  -23.6291   -8.2238   22.0754 C   0  0  0  0  0  0
  -22.4273   -8.0278   21.3545 C   0  0  0  0  0  0
  -21.9910   -9.0252   20.4646 C   0  0  0  0  0  0
  -22.7240  -10.2131   20.3056 C   0  0  0  0  0  0
  -21.6851   -6.0733   22.5279 C   0  0  0  0  0  0
  -21.4012   -6.5637   23.8212 C   0  0  0  0  0  0
  -21.3658   -5.6789   24.9175 C   0  0  0  0  0  0
  -21.6044   -4.3053   24.7226 C   0  0  0  0  0  0
  -21.8820   -3.8145   23.4348 C   0  0  0  0  0  0
  -21.9193   -4.6960   22.3402 C   0  0  0  0  0  0
  -22.7843  -13.5220   21.1852 C   0  0  0  0  0  0
  -22.1664   -4.2146   21.0980 F   0  0  0  0  0  0
  -21.5628   -3.4538   25.7739 F   0  0  0  0  0  0
  -30.0309  -13.3193   20.4388 N   0  0  0  0  0  0
  -26.3003  -12.9355   20.3352 N   0  0  0  0  0  0
  -25.9328  -11.6509   20.5783 N   0  0  0  0  0  0
  -22.0484  -12.8216   22.0411 N   0  0  0  0  0  0
  -25.4187  -15.1857   20.3966 N   0  0  0  0  0  0
  -31.8544  -14.6249   20.0940 O   0  0  0  0  0  0
  -21.6637   -6.8875   21.4240 O   0  0  0  0  0  0
  -22.3530  -14.5526   20.6697 O   0  0  0  0  0  0
  -24.6161  -31.8673   23.2093 C   0  0  0  0  0  0
  -25.9052  -32.4816   23.8393 C   0  0  1  0  0  0
  -27.2304  -27.4250   20.1030 C   0  0  0  0  0  0
  -25.5906  -33.8613   24.2330 N   0  0  0  0  0  0
  -23.4051  -30.4911   21.5495 C   0  0  2  0  0  0
  -24.8529  -28.9587   20.1109 C   0  0  0  0  0  0
  -22.7424  -29.4655   22.4979 C   0  0  0  0  0  0
  -18.0275  -28.1375   22.8489 C   0  0  0  0  0  0
  -24.1487  -36.7310   23.2638 C   0  0  0  0  0  0
  -25.9353  -30.8314   21.3636 C   0  0  0  0  0  0
  -26.0144  -29.4664   20.7083 C   0  0  0  0  0  0
  -27.2102  -28.7083   20.6988 C   0  0  0  0  0  0
  -26.0569  -26.9410   19.4860 C   0  0  0  0  0  0
  -24.8700  -27.6963   19.4936 C   0  0  0  0  0  0
  -23.6143  -29.8248   20.1635 C   0  0  0  0  0  0
  -25.4105  -36.3107   24.0342 C   0  0  1  0  0  0
  -20.5867  -28.3664   23.1312 C   0  0  2  0  0  0
  -20.6762  -26.9399   22.5414 C   0  0  0  0  0  0
  -19.5744  -26.6384   21.5207 C   0  0  0  0  0  0
  -18.1922  -26.7921   22.1619 C   0  0  0  0  0  0
  -19.1525  -28.8835   23.2897 C   0  0  0  0  0  0
  -18.9452  -30.1441   23.8907 C   0  0  0  0  0  0
  -17.6455  -30.6582   24.0562 C   0  0  0  0  0  0
  -25.9035  -34.9472   23.5133 C   0  0  0  0  0  0
  -16.5346  -29.9083   23.6325 C   0  0  0  0  0  0
  -16.7264  -28.6499   23.0347 C   0  0  0  0  0  0
  -26.4476  -31.6588   25.0718 C   0  0  0  0  0  0
  -25.3748  -31.3691   26.1473 C   0  0  0  0  0  0
  -27.0300  -30.3030   24.6088 C   0  0  0  0  0  0
  -27.6058  -32.4298   25.7478 C   0  0  0  0  0  0
  -27.5584  -37.1803   24.8464 C   0  0  0  0  0  0
  -21.4149  -29.3032   22.3720 N   0  0  0  0  0  0
  -26.4289  -37.3794   23.9419 N   0  0  0  0  0  0
  -24.6703  -31.0773   22.0992 N   0  0  0  0  0  0
  -23.4193  -28.8196   23.3023 O   0  0  0  0  0  0
  -28.3557  -26.6282   20.1397 O   0  0  0  0  0  0
  -26.5595  -34.8927   22.4692 O   0  0  0  0  0  0
  -23.5351  -32.1424   23.7486 O   0  0  0  0  0  0
  -31.2005  -19.6525   20.8060 C   0  0  0  0  0  0
  -31.7430  -17.3247   21.2590 C   0  0  0  0  0  0
  -29.8428  -19.3254   20.5867 C   0  0  0  0  0  0
  -29.4379  -17.9506   20.7282 C   0  0  0  0  0  0
  -30.4060  -16.9356   21.0099 C   0  0  0  0  0  0
  -32.1352  -18.6685   21.1590 C   0  0  0  0  0  0
  -28.9055  -20.4361   20.1355 C   0  0  0  0  0  0
  -28.9184  -24.1905   20.3604 C   0  0  0  0  0  0
  -27.9764  -17.5360   20.5713 C   0  0  0  0  0  0
  -28.2052  -22.8227   20.4385 C   0  0  0  0  0  0
  -28.1397  -25.4138   20.8958 C   0  0  0  0  0  0
  -30.0312  -15.5427   21.0595 N   0  0  0  0  0  0
  -29.1141  -21.6721   20.6297 N   0  0  0  0  0  0
  -27.9746  -20.2021   19.3631 O   0  0  0  0  0  0
  -30.0649  -24.2923   19.9090 O   0  0  0  0  0  0
  -33.4252  -19.0146   21.3829 F   0  0  0  0  0  0
  -31.4618  -12.3938   19.1331 H   0  0  0  0  0  0
  -30.3035  -11.3105   19.8471 H   0  0  0  0  0  0
  -29.7375  -11.7717   17.4393 H   0  0  0  0  0  0
  -29.6630  -13.4850   17.7680 H   0  0  0  0  0  0
  -27.8304  -11.3079   18.8309 H   0  0  0  0  0  0
  -27.3656  -12.6257   17.7887 H   0  0  0  0  0  0
  -27.6926  -14.2577   19.5574 H   0  0  0  0  0  0
  -28.6783  -12.0035   21.3723 H   0  0  0  0  0  0
  -28.4647  -13.6593   21.8550 H   0  0  0  0  0  0
  -25.2762   -9.5678   22.4759 H   0  0  0  0  0  0
  -24.0000   -7.4629   22.7472 H   0  0  0  0  0  0
  -21.0841   -8.8774   19.8951 H   0  0  0  0  0  0
  -22.3701  -10.9670   19.6164 H   0  0  0  0  0  0
  -21.2004   -7.6145   23.9712 H   0  0  0  0  0  0
  -21.1479   -6.0520   25.9075 H   0  0  0  0  0  0
  -22.0600   -2.7608   23.2848 H   0  0  0  0  0  0
  -22.4096  -11.9875   22.4800 H   0  0  0  0  0  0
  -21.1104  -13.1248   22.2618 H   0  0  0  0  0  0
  -24.6387  -15.8288   20.4764 H   0  0  0  0  0  0
  -26.2447  -15.6123   20.0007 H   0  0  0  0  0  0
  -26.7124  -32.5533   23.1159 H   0  0  0  0  0  0
  -25.0075  -33.9768   25.0488 H   0  0  0  0  0  0
  -22.6940  -31.3080   21.4106 H   0  0  0  0  0  0
  -23.3751  -35.9639   23.3296 H   0  0  0  0  0  0
  -24.3588  -36.8925   22.2053 H   0  0  0  0  0  0
  -23.7233  -37.6512   23.6650 H   0  0  0  0  0  0
  -26.0498  -31.5984   20.5963 H   0  0  0  0  0  0
  -26.8222  -30.8838   21.9834 H   0  0  0  0  0  0
  -28.1041  -29.0910   21.1711 H   0  0  0  0  0  0
  -26.0550  -25.9704   19.0099 H   0  0  0  0  0  0
  -23.9786  -27.3008   19.0262 H   0  0  0  0  0  0
  -23.7223  -30.6003   19.4040 H   0  0  0  0  0  0
  -22.7384  -29.2446   19.8679 H   0  0  0  0  0  0
  -25.1274  -36.1972   25.0834 H   0  0  0  0  0  0
  -20.9956  -28.3226   24.1433 H   0  0  0  0  0  0
  -20.5660  -26.2269   23.3600 H   0  0  0  0  0  0
  -21.6634  -26.7442   22.1211 H   0  0  0  0  0  0
  -19.6907  -25.6298   21.1226 H   0  0  0  0  0  0
  -19.6683  -27.3201   20.6742 H   0  0  0  0  0  0
  -17.4193  -26.6669   21.4020 H   0  0  0  0  0  0
  -18.0327  -26.0060   22.9014 H   0  0  0  0  0  0
  -19.7930  -30.7251   24.2282 H   0  0  0  0  0  0
  -17.5014  -31.6263   24.5162 H   0  0  0  0  0  0
  -15.5346  -30.2987   23.7646 H   0  0  0  0  0  0
  -15.8663  -28.0823   22.7055 H   0  0  0  0  0  0
  -24.5913  -30.7044   25.7813 H   0  0  0  0  0  0
  -24.8950  -32.2845   26.4945 H   0  0  0  0  0  0
  -25.8110  -30.8842   27.0216 H   0  0  0  0  0  0
  -26.2836  -29.6792   24.1155 H   0  0  0  0  0  0
  -27.4087  -29.7261   25.4536 H   0  0  0  0  0  0
  -27.8667  -30.4345   23.9223 H   0  0  0  0  0  0
  -27.2688  -33.3592   26.2080 H   0  0  0  0  0  0
  -28.3855  -32.6862   25.0293 H   0  0  0  0  0  0
  -28.0739  -31.8404   26.5373 H   0  0  0  0  0  0
  -28.2590  -38.0113   24.7534 H   0  0  0  0  0  0
  -28.1088  -36.2645   24.6251 H   0  0  0  0  0  0
  -27.2312  -37.1416   25.8869 H   0  0  0  0  0  0
  -20.9310  -29.8756   21.6945 H   0  0  0  0  0  0
  -26.0178  -38.2870   24.1427 H   0  0  0  0  0  0
  -31.5491  -20.6691   20.6940 H   0  0  0  0  0  0
  -32.4954  -16.5951   21.5195 H   0  0  0  0  0  0
  -27.2959  -18.3011   20.9440 H   0  0  0  0  0  0
  -27.7414  -16.6403   21.1439 H   0  0  0  0  0  0
  -27.7453  -17.3456   19.5229 H   0  0  0  0  0  0
  -27.6213  -22.7154   19.5233 H   0  0  0  0  0  0
  -27.4912  -22.8391   21.2624 H   0  0  0  0  0  0
  -28.4568  -25.5925   21.9232 H   0  0  0  0  0  0
  -27.0841  -25.1468   20.9478 H   0  0  0  0  0  0
  -29.0764  -15.3410   21.3114 H   0  0  0  0  0  0
  -29.9075  -21.8123   21.2391 H   0  0  0  0  0  0
  1 25  1  0  0  0
  1 30  2  0  0  0
  1 82  1  0  0  0
  2  3  1  0  0  0
  2 25  1  0  0  0
  2 87  1  0  0  0
  2 88  1  0  0  0
  3  4  1  0  0  0
  3 89  1  0  0  0
  3 90  1  0  0  0
  4  5  1  0  0  0
  4 91  1  0  0  0
  4 92  1  0  0  0
  5  6  1  0  0  0
  5 26  1  0  0  0
  5 93  1  0  0  0
  6 25  1  0  0  0
  6 94  1  0  0  0
  6 95  1  0  0  0
  7  8  2  0  0  0
  7 26  1  0  0  0
  7 29  1  0  0  0
  8  9  1  0  0  0
  8 22  1  0  0  0
  9 10  1  0  0  0
  9 27  2  0  0  0
 10 11  2  0  0  0
 10 15  1  0  0  0
 11 12  1  0  0  0
 11 96  1  0  0  0
 12 13  2  0  0  0
 12 97  1  0  0  0
 13 14  1  0  0  0
 13 31  1  0  0  0
 14 15  2  0  0  0
 14 98  1  0  0  0
 15 99  1  0  0  0
 16 17  2  0  0  0
 16 21  1  0  0  0
 16 31  1  0  0  0
 17 18  1  0  0  0
 17100  1  0  0  0
 18 19  2  0  0  0
 18101  1  0  0  0
 19 20  1  0  0  0
 19 24  1  0  0  0
 20 21  2  0  0  0
 20102  1  0  0  0
 21 23  1  0  0  0
 22 28  1  0  0  0
 22 32  2  0  0  0
 26 27  1  0  0  0
 28103  1  0  0  0
 28104  1  0  0  0
 29105  1  0  0  0
 29106  1  0  0  0
 33 34  1  0  0  0
 33 66  1  0  0  0
 33 70  2  0  0  0
 34 36  1  0  0  0
 34 59  1  0  0  0
 34107  1  0  0  0
 35 44  2  0  0  0
 35 45  1  0  0  0
 35 68  1  0  0  0
 36 56  1  0  0  0
 36108  1  0  0  0
 37 39  1  0  0  0
 37 47  1  0  0  0
 37 66  1  0  0  0
 37109  1  0  0  0
 38 43  2  0  0  0
 38 46  1  0  0  0
 38 47  1  0  0  0
 39 64  1  0  0  0
 39 67  2  0  0  0
 40 52  1  0  0  0
 40 53  2  0  0  0
 40 58  1  0  0  0
 41110  1  0  0  0
 41111  1  0  0  0
 41112  1  0  0  0
 41 48  1  0  0  0
 42 43  1  0  0  0
 42 66  1  0  0  0
 42113  1  0  0  0
 42114  1  0  0  0
 43 44  1  0  0  0
 44115  1  0  0  0
 45 46  2  0  0  0
 45116  1  0  0  0
 46117  1  0  0  0
 47118  1  0  0  0
 47119  1  0  0  0
 48 56  1  0  0  0
 48 65  1  0  0  0
 48120  1  0  0  0
 49 50  1  0  0  0
 49 53  1  0  0  0
 49 64  1  0  0  0
 49121  1  0  0  0
 50 51  1  0  0  0
 50122  1  0  0  0
 50123  1  0  0  0
 51 52  1  0  0  0
 51124  1  0  0  0
 51125  1  0  0  0
 52126  1  0  0  0
 52127  1  0  0  0
 53 54  1  0  0  0
 54 55  2  0  0  0
 54128  1  0  0  0
 55 57  1  0  0  0
 55129  1  0  0  0
 56 69  2  0  0  0
 57 58  2  0  0  0
 57130  1  0  0  0
 58131  1  0  0  0
 59 60  1  0  0  0
 59 61  1  0  0  0
 59 62  1  0  0  0
 60132  1  0  0  0
 60133  1  0  0  0
 60134  1  0  0  0
 61135  1  0  0  0
 61136  1  0  0  0
 61137  1  0  0  0
 62138  1  0  0  0
 62139  1  0  0  0
 62140  1  0  0  0
 63 65  1  0  0  0
 63141  1  0  0  0
 63142  1  0  0  0
 63143  1  0  0  0
 64144  1  0  0  0
 65145  1  0  0  0
 68 81  1  0  0  0
 71 73  2  0  0  0
 71 76  1  0  0  0
 71146  1  0  0  0
 72 75  1  0  0  0
 72 76  2  0  0  0
 72147  1  0  0  0
 73 74  1  0  0  0
 73 77  1  0  0  0
 74 75  2  0  0  0
 74 79  1  0  0  0
 75 82  1  0  0  0
 76 86  1  0  0  0
 77 83  1  0  0  0
 77 84  2  0  0  0
 78 80  1  0  0  0
 78 81  1  0  0  0
 78 85  2  0  0  0
 79148  1  0  0  0
 79149  1  0  0  0
 79150  1  0  0  0
 80 83  1  0  0  0
 80151  1  0  0  0
 80152  1  0  0  0
 81153  1  0  0  0
 81154  1  0  0  0
 82155  1  0  0  0
 83156  1  0  0  0
M  ISO  4   1 100  68 101  81 101  82 100
M  END
> <chiral flag>
0

> <version>
0

> <s_m_source_file>
/data/baiqing/PycharmProjects/Reinvent-master-3.2/result/LINK_invent/BTK/process_docking_weight1_custom_product_contain_oxygen_bond_distance_aromatic_linkinvent_7_9_3/rearranged_h_0056.sdf

> <i_m_source_file_index>
4

> <r_mmod_Potential_Energy-OPLS-2005>
-137.666320800781

> <r_mmod_Stretch_Energy-OPLS-2005>
45.9646415710449

> <r_mmod_Bend_Energy-OPLS-2005>
95.0174713134766

> <r_mmod_Torsional_Energy-OPLS-2005>
253.727127075195

> <r_mmod_Improper_Torsional_Energy-OPLS-2005>
4.57518100738525

> <r_mmod_Van_der_Waal_Energy-OPLS-2005>
161.471282958984

> <r_mmod_Electrostatic_Energy-OPLS-2005>
-469.664398193359

> <r_mmod_Solvation_Energy-OPLS-2005>
-245.898452758789

> <b_mmod_Minimization_Converged-OPLS-2005>
0

> <r_mmod_RMS_Derivative-OPLS-2005>
0.464407622814178

$$$$
4
                    3D
 Structure written by MMmdl.
163171  0  0  1  0            999 V2000
  -30.6918  -14.4906   20.5200 C   0  0  0  0  0  0
  -30.4149  -12.3014   19.4302 C   0  0  0  0  0  0
  -29.4937  -12.4878   18.2051 C   0  0  0  0  0  0
  -28.0121  -12.3562   18.6128 C   0  0  0  0  0  0
  -27.6536  -13.2045   19.8623 C   0  0  2  0  0  0
  -28.6928  -13.0128   20.9846 C   0  0  0  0  0  0
  -25.2582  -13.8166   20.5691 C   0  0  0  0  0  0
  -24.1821  -13.0447   20.9183 C   0  0  0  0  0  0
  -24.6364  -11.6915   20.8721 C   0  0  0  0  0  0
  -23.9025  -10.4304   21.0402 C   0  0  0  0  0  0
  -24.3596   -9.4228   21.9186 C   0  0  0  0  0  0
  -23.6283   -8.2256   22.0763 C   0  0  0  0  0  0
  -22.4267   -8.0285   21.3552 C   0  0  0  0  0  0
  -21.9891   -9.0252   20.4651 C   0  0  0  0  0  0
  -22.7197  -10.2138   20.3059 C   0  0  0  0  0  0
  -21.6861   -6.0722   22.5277 C   0  0  0  0  0  0
  -21.4029   -6.5627   23.8208 C   0  0  0  0  0  0
  -21.3657   -5.6768   24.9163 C   0  0  0  0  0  0
  -21.6039   -4.3028   24.7210 C   0  0  0  0  0  0
  -21.8812   -3.8125   23.4328 C   0  0  0  0  0  0
  -21.9199   -4.6947   22.3394 C   0  0  0  0  0  0
  -22.7859  -13.5254   21.1864 C   0  0  0  0  0  0
  -22.1666   -4.2140   21.0966 F   0  0  0  0  0  0
  -21.5623   -3.4514   25.7718 F   0  0  0  0  0  0
  -30.0200  -13.3099   20.4262 N   0  0  0  0  0  0
  -26.2980  -12.9315   20.3315 N   0  0  0  0  0  0
  -25.9280  -11.6482   20.5727 N   0  0  0  0  0  0
  -22.0532  -12.8257   22.0449 N   0  0  0  0  0  0
  -25.4335  -15.1888   20.4146 N   0  0  0  0  0  0
  -31.8627  -14.6238   20.1603 O   0  0  0  0  0  0
  -21.6643   -6.8870   21.4241 O   0  0  0  0  0  0
  -22.3516  -14.5539   20.6704 O   0  0  0  0  0  0
  -24.6154  -31.8669   23.2094 C   0  0  0  0  0  0
  -25.9052  -32.4814   23.8371 C   0  0  1  0  0  0
  -27.2281  -27.4127   20.0878 C   0  0  0  0  0  0
  -25.5918  -33.8612   24.2309 N   0  0  0  0  0  0
  -23.4017  -30.4935   21.5502 C   0  0  2  0  0  0
  -24.8441  -28.9605   20.1116 C   0  0  0  0  0  0
  -22.7409  -29.4659   22.4974 C   0  0  0  0  0  0
  -18.0280  -28.1368   22.8510 C   0  0  0  0  0  0
  -24.1486  -36.7308   23.2638 C   0  0  0  0  0  0
  -25.9336  -30.8257   21.3651 C   0  0  0  0  0  0
  -26.0058  -29.4603   20.7092 C   0  0  0  0  0  0
  -27.1951  -28.6932   20.6963 C   0  0  0  0  0  0
  -26.0344  -26.9303   19.4961 C   0  0  0  0  0  0
  -24.8541  -27.6954   19.5050 C   0  0  0  0  0  0
  -23.6085  -29.8304   20.1632 C   0  0  0  0  0  0
  -25.4112  -36.3101   24.0334 C   0  0  1  0  0  0
  -20.5874  -28.3652   23.1333 C   0  0  2  0  0  0
  -20.6769  -26.9387   22.5422 C   0  0  0  0  0  0
  -19.5740  -26.6382   21.5223 C   0  0  0  0  0  0
  -18.1924  -26.7923   22.1633 C   0  0  0  0  0  0
  -19.1532  -28.8828   23.2921 C   0  0  0  0  0  0
  -18.9455  -30.1448   23.8915 C   0  0  0  0  0  0
  -17.6452  -30.6582   24.0574 C   0  0  0  0  0  0
  -25.9039  -34.9467   23.5112 C   0  0  0  0  0  0
  -16.5346  -29.9083   23.6332 C   0  0  0  0  0  0
  -16.7269  -28.6499   23.0355 C   0  0  0  0  0  0
  -26.4479  -31.6594   25.0700 C   0  0  0  0  0  0
  -25.3759  -31.3705   26.1463 C   0  0  0  0  0  0
  -27.0301  -30.3031   24.6074 C   0  0  0  0  0  0
  -27.6046  -32.4313   25.7476 C   0  0  0  0  0  0
  -27.5582  -37.1815   24.8469 C   0  0  0  0  0  0
  -21.4136  -29.3022   22.3731 N   0  0  0  0  0  0
  -26.4295  -37.3795   23.9412 N   0  0  0  0  0  0
  -24.6687  -31.0774   22.0991 N   0  0  0  0  0  0
  -23.4195  -28.8205   23.3007 O   0  0  0  0  0  0
  -28.4172  -26.6988   20.1291 O   0  0  0  0  0  0
  -26.5597  -34.8930   22.4671 O   0  0  0  0  0  0
  -23.5353  -32.1424   23.7504 O   0  0  0  0  0  0
  -29.3634  -17.7649   21.5925 C   0  0  0  0  0  0
  -29.5137  -15.7931   23.0248 C   0  0  0  0  0  0
  -28.9638  -18.5700   22.6955 C   0  0  0  0  0  0
  -28.8407  -17.9454   23.9687 C   0  0  0  0  0  0
  -29.6160  -16.3735   21.7440 C   0  0  0  0  0  0
  -29.1192  -16.5701   24.1230 C   0  0  0  0  0  0
  -28.5978  -23.0712   20.3274 C   0  0  0  0  0  0
  -29.1195  -24.3229   20.2827 C   0  0  0  0  0  0
  -29.2008  -22.0011   21.1522 C   0  0  0  0  0  0
  -27.6435  -20.3196   20.3692 C   0  0  0  0  0  0
  -28.3987  -18.7329   25.1965 C   0  0  0  0  0  0
  -26.4880  -19.4192   20.8179 C   0  0  0  0  0  0
  -28.6746  -20.0935   22.6003 C   0  0  0  0  0  0
  -28.5996  -25.4642   19.4073 C   0  0  0  0  0  0
  -29.9213  -15.5948   20.5894 N   0  0  0  0  0  0
  -28.5216  -20.8073   21.2931 N   0  0  0  0  0  0
  -30.2507  -22.2066   21.7752 O   0  0  0  0  0  0
  -27.7232  -20.5568   19.1586 O   0  0  0  0  0  0
  -28.9965  -15.9752   25.3341 F   0  0  0  0  0  0
  -31.4625  -12.3882   19.1361 H   0  0  0  0  0  0
  -30.3049  -11.2981   19.8450 H   0  0  0  0  0  0
  -29.7381  -11.7567   17.4333 H   0  0  0  0  0  0
  -29.6631  -13.4682   17.7579 H   0  0  0  0  0  0
  -27.8164  -11.3018   18.8123 H   0  0  0  0  0  0
  -27.3669  -12.6299   17.7774 H   0  0  0  0  0  0
  -27.6897  -14.2487   19.5538 H   0  0  0  0  0  0
  -28.6714  -11.9890   21.3615 H   0  0  0  0  0  0
  -28.4397  -13.6479   21.8293 H   0  0  0  0  0  0
  -25.2740   -9.5717   22.4765 H   0  0  0  0  0  0
  -23.9989   -7.4652   22.7485 H   0  0  0  0  0  0
  -21.0836   -8.8733   19.8953 H   0  0  0  0  0  0
  -22.3633  -10.9664   19.6169 H   0  0  0  0  0  0
  -21.2036   -7.6135   23.9704 H   0  0  0  0  0  0
  -21.1489   -6.0501   25.9066 H   0  0  0  0  0  0
  -22.0601   -2.7597   23.2816 H   0  0  0  0  0  0
  -22.4180  -11.9950   22.4865 H   0  0  0  0  0  0
  -21.1150  -13.1283   22.2659 H   0  0  0  0  0  0
  -24.6800  -15.8528   20.5524 H   0  0  0  0  0  0
  -26.3072  -15.6261   20.1479 H   0  0  0  0  0  0
  -26.7119  -32.5505   23.1132 H   0  0  0  0  0  0
  -25.0097  -33.9769   25.0471 H   0  0  0  0  0  0
  -22.6895  -31.3104   21.4152 H   0  0  0  0  0  0
  -23.3746  -35.9647   23.3311 H   0  0  0  0  0  0
  -24.3581  -36.8907   22.2050 H   0  0  0  0  0  0
  -23.7244  -37.6521   23.6646 H   0  0  0  0  0  0
  -26.0519  -31.5924   20.5985 H   0  0  0  0  0  0
  -26.8198  -30.8736   21.9853 H   0  0  0  0  0  0
  -28.0911  -29.0804   21.1620 H   0  0  0  0  0  0
  -25.9566  -25.9622   19.0315 H   0  0  0  0  0  0
  -23.9567  -27.3024   19.0468 H   0  0  0  0  0  0
  -23.7200  -30.6074   19.4057 H   0  0  0  0  0  0
  -22.7297  -29.2552   19.8647 H   0  0  0  0  0  0
  -25.1290  -36.1958   25.0831 H   0  0  0  0  0  0
  -20.9983  -28.3211   24.1448 H   0  0  0  0  0  0
  -20.5685  -26.2247   23.3598 H   0  0  0  0  0  0
  -21.6638  -26.7427   22.1206 H   0  0  0  0  0  0
  -19.6887  -25.6301   21.1229 H   0  0  0  0  0  0
  -19.6689  -27.3215   20.6774 H   0  0  0  0  0  0
  -17.4197  -26.6708   21.4026 H   0  0  0  0  0  0
  -18.0311  -26.0049   22.9009 H   0  0  0  0  0  0
  -19.7926  -30.7283   24.2270 H   0  0  0  0  0  0
  -17.4999  -31.6264   24.5169 H   0  0  0  0  0  0
  -15.5348  -30.2986   23.7637 H   0  0  0  0  0  0
  -15.8674  -28.0829   22.7041 H   0  0  0  0  0  0
  -24.5919  -30.7060   25.7820 H   0  0  0  0  0  0
  -24.8978  -32.2869   26.4937 H   0  0  0  0  0  0
  -25.8135  -30.8866   27.0202 H   0  0  0  0  0  0
  -26.2832  -29.6809   24.1130 H   0  0  0  0  0  0
  -27.4074  -29.7256   25.4524 H   0  0  0  0  0  0
  -27.8676  -30.4350   23.9217 H   0  0  0  0  0  0
  -27.2645  -33.3594   26.2091 H   0  0  0  0  0  0
  -28.3853  -32.6901   25.0308 H   0  0  0  0  0  0
  -28.0721  -31.8410   26.5371 H   0  0  0  0  0  0
  -28.2608  -38.0099   24.7506 H   0  0  0  0  0  0
  -28.1060  -36.2636   24.6301 H   0  0  0  0  0  0
  -27.2301  -37.1473   25.8869 H   0  0  0  0  0  0
  -20.9273  -29.8747   21.6973 H   0  0  0  0  0  0
  -26.0172  -38.2872   24.1414 H   0  0  0  0  0  0
  -29.4640  -18.2117   20.6149 H   0  0  0  0  0  0
  -29.7182  -14.7466   23.1926 H   0  0  0  0  0  0
  -27.7203  -22.8942   19.7255 H   0  0  0  0  0  0
  -29.9859  -24.5686   20.8819 H   0  0  0  0  0  0
  -28.9846  -19.6423   25.3209 H   0  0  0  0  0  0
  -28.5128  -18.1585   26.1161 H   0  0  0  0  0  0
  -27.3458  -19.0005   25.1136 H   0  0  0  0  0  0
  -26.1188  -19.6755   21.8099 H   0  0  0  0  0  0
  -26.7856  -18.3719   20.8067 H   0  0  0  0  0  0
  -25.6486  -19.5269   20.1325 H   0  0  0  0  0  0
  -29.4550  -20.5414   23.2168 H   0  0  0  0  0  0
  -27.7644  -20.3053   23.1612 H   0  0  0  0  0  0
  -27.7506  -25.1088   18.8321 H   0  0  0  0  0  0
  -29.3699  -25.6623   18.6615 H   0  0  0  0  0  0
  -30.0989  -16.1822   19.7883 H   0  0  0  0  0  0
  1 25  1  0  0  0
  1 30  2  0  0  0
  1 85  1  0  0  0
  2  3  1  0  0  0
  2 25  1  0  0  0
  2 90  1  0  0  0
  2 91  1  0  0  0
  3  4  1  0  0  0
  3 92  1  0  0  0
  3 93  1  0  0  0
  4  5  1  0  0  0
  4 94  1  0  0  0
  4 95  1  0  0  0
  5  6  1  0  0  0
  5 26  1  0  0  0
  5 96  1  0  0  0
  6 25  1  0  0  0
  6 97  1  0  0  0
  6 98  1  0  0  0
  7  8  2  0  0  0
  7 26  1  0  0  0
  7 29  1  0  0  0
  8  9  1  0  0  0
  8 22  1  0  0  0
  9 10  1  0  0  0
  9 27  2  0  0  0
 10 11  2  0  0  0
 10 15  1  0  0  0
 11 12  1  0  0  0
 11 99  1  0  0  0
 12 13  2  0  0  0
 12100  1  0  0  0
 13 14  1  0  0  0
 13 31  1  0  0  0
 14 15  2  0  0  0
 14101  1  0  0  0
 15102  1  0  0  0
 16 17  2  0  0  0
 16 21  1  0  0  0
 16 31  1  0  0  0
 17 18  1  0  0  0
 17103  1  0  0  0
 18 19  2  0  0  0
 18104  1  0  0  0
 19 20  1  0  0  0
 19 24  1  0  0  0
 20 21  2  0  0  0
 20105  1  0  0  0
 21 23  1  0  0  0
 22 28  1  0  0  0
 22 32  2  0  0  0
 26 27  1  0  0  0
 28106  1  0  0  0
 28107  1  0  0  0
 29108  1  0  0  0
 29109  1  0  0  0
 33 34  1  0  0  0
 33 66  1  0  0  0
 33 70  2  0  0  0
 34 36  1  0  0  0
 34 59  1  0  0  0
 34110  1  0  0  0
 35 44  2  0  0  0
 35 45  1  0  0  0
 35 68  1  0  0  0
 36 56  1  0  0  0
 36111  1  0  0  0
 37 39  1  0  0  0
 37 47  1  0  0  0
 37 66  1  0  0  0
 37112  1  0  0  0
 38 43  2  0  0  0
 38 46  1  0  0  0
 38 47  1  0  0  0
 39 64  1  0  0  0
 39 67  2  0  0  0
 40 52  1  0  0  0
 40 53  2  0  0  0
 40 58  1  0  0  0
 41113  1  0  0  0
 41114  1  0  0  0
 41115  1  0  0  0
 41 48  1  0  0  0
 42 43  1  0  0  0
 42 66  1  0  0  0
 42116  1  0  0  0
 42117  1  0  0  0
 43 44  1  0  0  0
 44118  1  0  0  0
 45 46  2  0  0  0
 45119  1  0  0  0
 46120  1  0  0  0
 47121  1  0  0  0
 47122  1  0  0  0
 48 56  1  0  0  0
 48 65  1  0  0  0
 48123  1  0  0  0
 49 50  1  0  0  0
 49 53  1  0  0  0
 49 64  1  0  0  0
 49124  1  0  0  0
 50 51  1  0  0  0
 50125  1  0  0  0
 50126  1  0  0  0
 51 52  1  0  0  0
 51127  1  0  0  0
 51128  1  0  0  0
 52129  1  0  0  0
 52130  1  0  0  0
 53 54  1  0  0  0
 54 55  2  0  0  0
 54131  1  0  0  0
 55 57  1  0  0  0
 55132  1  0  0  0
 56 69  2  0  0  0
 57 58  2  0  0  0
 57133  1  0  0  0
 58134  1  0  0  0
 59 60  1  0  0  0
 59 61  1  0  0  0
 59 62  1  0  0  0
 60135  1  0  0  0
 60136  1  0  0  0
 60137  1  0  0  0
 61138  1  0  0  0
 61139  1  0  0  0
 61140  1  0  0  0
 62141  1  0  0  0
 62142  1  0  0  0
 62143  1  0  0  0
 63 65  1  0  0  0
 63144  1  0  0  0
 63145  1  0  0  0
 63146  1  0  0  0
 64147  1  0  0  0
 65148  1  0  0  0
 68 84  1  0  0  0
 71 73  2  0  0  0
 71 75  1  0  0  0
 71149  1  0  0  0
 72 75  2  0  0  0
 72 76  1  0  0  0
 72150  1  0  0  0
 73 74  1  0  0  0
 73 83  1  0  0  0
 74 76  2  0  0  0
 74 81  1  0  0  0
 75 85  1  0  0  0
 76 89  1  0  0  0
 77 78  2  0  0  0
 77 79  1  0  0  0
 77151  1  0  0  0
 78 84  1  0  0  0
 78152  1  0  0  0
 79 86  1  0  0  0
 79 87  2  0  0  0
 80 82  1  0  0  0
 80 86  1  0  0  0
 80 88  2  0  0  0
 81153  1  0  0  0
 81154  1  0  0  0
 81155  1  0  0  0
 82156  1  0  0  0
 82157  1  0  0  0
 82158  1  0  0  0
 83 86  1  0  0  0
 83159  1  0  0  0
 83160  1  0  0  0
 84161  1  0  0  0
 84162  1  0  0  0
 85163  1  0  0  0
M  ISO  4   1 100  68 101  84 101  85 100
M  END
> <chiral flag>
0

> <version>
0

> <s_m_source_file>
/data/baiqing/PycharmProjects/Reinvent-master-3.2/result/LINK_invent/BTK/process_docking_weight1_custom_product_contain_oxygen_bond_distance_aromatic_linkinvent_7_9_3/rearranged_h_0056.sdf

> <i_m_source_file_index>
5

> <r_mmod_Potential_Energy-OPLS-2005>
9.07093334197998

> <r_mmod_Stretch_Energy-OPLS-2005>
52.6486511230469

> <r_mmod_Bend_Energy-OPLS-2005>
143.927963256836

> <r_mmod_Torsional_Energy-OPLS-2005>
281.816497802734

> <r_mmod_Improper_Torsional_Energy-OPLS-2005>
17.052906036377

> <r_mmod_Van_der_Waal_Energy-OPLS-2005>
187.184417724609

> <r_mmod_Electrostatic_Energy-OPLS-2005>
-474.169952392578

> <r_mmod_Solvation_Energy-OPLS-2005>
-218.09912109375

> <b_mmod_Minimization_Converged-OPLS-2005>
0

> <r_mmod_RMS_Derivative-OPLS-2005>
1.78468000888824

$$$$
5
                    3D
 Structure written by MMmdl.
153161  0  0  1  0            999 V2000
  -30.6419  -14.7690   20.4518 C   0  0  0  0  0  0
  -30.4173  -12.4741   19.4797 C   0  0  0  0  0  0
  -29.5051  -12.5267   18.2377 C   0  0  0  0  0  0
  -28.0301  -12.3653   18.6404 C   0  0  0  0  0  0
  -27.6353  -13.2530   19.8544 C   0  0  2  0  0  0
  -28.6829  -13.2072   20.9891 C   0  0  0  0  0  0
  -25.2440  -13.8255   20.5741 C   0  0  0  0  0  0
  -24.1777  -13.0466   20.9256 C   0  0  0  0  0  0
  -24.6423  -11.6953   20.8779 C   0  0  0  0  0  0
  -23.9117  -10.4310   21.0406 C   0  0  0  0  0  0
  -24.3658   -9.4221   21.9183 C   0  0  0  0  0  0
  -23.6336   -8.2243   22.0730 C   0  0  0  0  0  0
  -22.4304   -8.0278   21.3544 C   0  0  0  0  0  0
  -21.9943   -9.0249   20.4651 C   0  0  0  0  0  0
  -22.7267  -10.2145   20.3076 C   0  0  0  0  0  0
  -21.6854   -6.0737   22.5285 C   0  0  0  0  0  0
  -21.4005   -6.5642   23.8215 C   0  0  0  0  0  0
  -21.3685   -5.6800   24.9185 C   0  0  0  0  0  0
  -21.6051   -4.3057   24.7238 C   0  0  0  0  0  0
  -21.8809   -3.8149   23.4361 C   0  0  0  0  0  0
  -21.9198   -4.6959   22.3419 C   0  0  0  0  0  0
  -22.7792  -13.5209   21.1910 C   0  0  0  0  0  0
  -22.1644   -4.2132   21.0984 F   0  0  0  0  0  0
  -21.5668   -3.4540   25.7750 F   0  0  0  0  0  0
  -29.9843  -13.5544   20.4026 N   0  0  0  0  0  0
  -26.2894  -12.9508   20.3308 N   0  0  0  0  0  0
  -25.9363  -11.6630   20.5797 N   0  0  0  0  0  0
  -22.0451  -12.8219   22.0491 N   0  0  0  0  0  0
  -25.4054  -15.1989   20.4130 N   0  0  0  0  0  0
  -31.8302  -14.7948   20.1254 O   0  0  0  0  0  0
  -21.6666   -6.8875   21.4245 O   0  0  0  0  0  0
  -22.3467  -14.5493   20.6736 O   0  0  0  0  0  0
  -24.6307  -31.8518   23.1914 C   0  0  0  0  0  0
  -25.9115  -32.4716   23.8290 C   0  0  1  0  0  0
  -27.2162  -27.2622   20.1459 C   0  0  0  0  0  0
  -25.5917  -33.8528   24.2214 N   0  0  0  0  0  0
  -23.4237  -30.4728   21.5357 C   0  0  2  0  0  0
  -24.8687  -28.9091   20.1145 C   0  0  0  0  0  0
  -22.7516  -29.4577   22.4923 C   0  0  0  0  0  0
  -18.0280  -28.1389   22.8471 C   0  0  0  0  0  0
  -24.1496  -36.7323   23.2634 C   0  0  0  0  0  0
  -25.9654  -30.7740   21.3541 C   0  0  0  0  0  0
  -26.0389  -29.3845   20.7215 C   0  0  0  0  0  0
  -27.2175  -28.5747   20.7232 C   0  0  0  0  0  0
  -26.0336  -26.8586   19.4921 C   0  0  0  0  0  0
  -24.8709  -27.6545   19.4859 C   0  0  0  0  0  0
  -23.6397  -29.7953   20.1559 C   0  0  0  0  0  0
  -25.4099  -36.3034   24.0324 C   0  0  1  0  0  0
  -20.5891  -28.3652   23.1288 C   0  0  2  0  0  0
  -20.6756  -26.9378   22.5397 C   0  0  0  0  0  0
  -19.5739  -26.6381   21.5195 C   0  0  0  0  0  0
  -18.1917  -26.7924   22.1609 C   0  0  0  0  0  0
  -19.1533  -28.8839   23.2873 C   0  0  0  0  0  0
  -18.9461  -30.1441   23.8889 C   0  0  0  0  0  0
  -17.6451  -30.6565   24.0551 C   0  0  0  0  0  0
  -25.9039  -34.9405   23.5070 C   0  0  0  0  0  0
  -16.5353  -29.9063   23.6323 C   0  0  0  0  0  0
  -16.7260  -28.6492   23.0327 C   0  0  0  0  0  0
  -26.4507  -31.6523   25.0643 C   0  0  0  0  0  0
  -25.3782  -31.3687   26.1404 C   0  0  0  0  0  0
  -27.0261  -30.2928   24.6022 C   0  0  0  0  0  0
  -27.6089  -32.4218   25.7424 C   0  0  0  0  0  0
  -27.5561  -37.1798   24.8471 C   0  0  0  0  0  0
  -21.4209  -29.3037   22.3716 N   0  0  0  0  0  0
  -26.4250  -37.3739   23.9440 N   0  0  0  0  0  0
  -24.6932  -31.0522   22.0843 N   0  0  0  0  0  0
  -23.4237  -28.8109   23.2988 O   0  0  0  0  0  0
  -28.3225  -26.3908   20.1310 O   0  0  0  0  0  0
  -26.5618  -34.8913   22.4641 O   0  0  0  0  0  0
  -23.5453  -32.1293   23.7259 O   0  0  0  0  0  0
  -32.0577  -19.1101   20.1596 C   0  0  0  0  0  0
  -31.1395  -20.1715   20.2443 C   0  0  0  0  0  0
  -31.6515  -17.7661   20.2783 C   0  0  0  0  0  0
  -29.3745  -18.5345   20.5715 C   0  0  0  0  0  0
  -29.7546  -19.9443   20.4259 C   0  0  0  0  0  0
  -30.3025  -17.3995   20.5103 C   0  0  0  0  0  0
  -29.0966  -22.3609   20.4127 C   0  0  0  0  0  0
  -26.7146  -23.1343   19.8487 C   0  0  0  0  0  0
  -28.2707  -25.0301   20.7805 C   0  0  0  0  0  0
  -28.1762  -23.6154   19.9805 C   0  0  1  0  0  0
  -28.8151  -21.0645   20.3490 N   0  0  0  0  0  0
  -29.9206  -15.9514   20.6628 N   0  0  0  0  0  0
  -31.4599  -12.5797   19.1718 H   0  0  0  0  0  0
  -30.3401  -11.5027   19.9702 H   0  0  0  0  0  0
  -29.7932  -11.7499   17.5308 H   0  0  0  0  0  0
  -29.6354  -13.4770   17.7228 H   0  0  0  0  0  0
  -27.8722  -11.3096   18.8626 H   0  0  0  0  0  0
  -27.3873  -12.5983   17.7910 H   0  0  0  0  0  0
  -27.6189  -14.2785   19.4836 H   0  0  0  0  0  0
  -28.7236  -12.2126   21.4317 H   0  0  0  0  0  0
  -28.4138  -13.8918   21.7963 H   0  0  0  0  0  0
  -25.2800   -9.5690   22.4773 H   0  0  0  0  0  0
  -24.0051   -7.4632   22.7448 H   0  0  0  0  0  0
  -21.0863   -8.8796   19.8984 H   0  0  0  0  0  0
  -22.3707  -10.9692   19.6211 H   0  0  0  0  0  0
  -21.1948   -7.6142   23.9712 H   0  0  0  0  0  0
  -21.1537   -6.0538   25.9094 H   0  0  0  0  0  0
  -22.0567   -2.7607   23.2873 H   0  0  0  0  0  0
  -22.4106  -11.9914   22.4900 H   0  0  0  0  0  0
  -21.1041  -13.1205   22.2664 H   0  0  0  0  0  0
  -24.6352  -15.8477   20.5375 H   0  0  0  0  0  0
  -26.2499  -15.6496   20.0847 H   0  0  0  0  0  0
  -26.7185  -32.5355   23.1033 H   0  0  0  0  0  0
  -25.0061  -33.9694   25.0346 H   0  0  0  0  0  0
  -22.7158  -31.2914   21.3837 H   0  0  0  0  0  0
  -23.3707  -35.9703   23.3250 H   0  0  0  0  0  0
  -24.3609  -36.8975   22.2060 H   0  0  0  0  0  0
  -23.7303  -37.6540   23.6683 H   0  0  0  0  0  0
  -26.0638  -31.5129   20.5568 H   0  0  0  0  0  0
  -26.8612  -30.8595   21.9578 H   0  0  0  0  0  0
  -28.1156  -28.9406   21.2031 H   0  0  0  0  0  0
  -26.0147  -25.9177   18.9707 H   0  0  0  0  0  0
  -23.9784  -27.2969   18.9863 H   0  0  0  0  0  0
  -23.7609  -30.5608   19.3890 H   0  0  0  0  0  0
  -22.7578  -29.2230   19.8555 H   0  0  0  0  0  0
  -25.1272  -36.1832   25.0806 H   0  0  0  0  0  0
  -20.9967  -28.3184   24.1414 H   0  0  0  0  0  0
  -20.5616  -26.2269   23.3604 H   0  0  0  0  0  0
  -21.6624  -26.7388   22.1209 H   0  0  0  0  0  0
  -19.6885  -25.6303   21.1181 H   0  0  0  0  0  0
  -19.6640  -27.3244   20.6780 H   0  0  0  0  0  0
  -17.4183  -26.6663   21.4013 H   0  0  0  0  0  0
  -18.0286  -26.0088   22.9034 H   0  0  0  0  0  0
  -19.7937  -30.7260   24.2249 H   0  0  0  0  0  0
  -17.5008  -31.6244   24.5164 H   0  0  0  0  0  0
  -15.5347  -30.2964   23.7649 H   0  0  0  0  0  0
  -15.8675  -28.0828   22.7016 H   0  0  0  0  0  0
  -24.5980  -30.6935   25.7854 H   0  0  0  0  0  0
  -24.8942  -32.2860   26.4774 H   0  0  0  0  0  0
  -25.8180  -30.8981   27.0209 H   0  0  0  0  0  0
  -26.2753  -29.6742   24.1074 H   0  0  0  0  0  0
  -27.3994  -29.7092   25.4458 H   0  0  0  0  0  0
  -27.8627  -30.4183   23.9138 H   0  0  0  0  0  0
  -27.2720  -33.3572   26.1907 H   0  0  0  0  0  0
  -28.3984  -32.6659   25.0298 H   0  0  0  0  0  0
  -28.0630  -31.8347   26.5409 H   0  0  0  0  0  0
  -28.2580  -38.0095   24.7487 H   0  0  0  0  0  0
  -28.1031  -36.2624   24.6267 H   0  0  0  0  0  0
  -27.2319  -37.1447   25.8885 H   0  0  0  0  0  0
  -20.9356  -29.8826   21.7012 H   0  0  0  0  0  0
  -26.0101  -38.2790   24.1442 H   0  0  0  0  0  0
  -33.1038  -19.3290   19.9907 H   0  0  0  0  0  0
  -31.5317  -21.1696   20.1236 H   0  0  0  0  0  0
  -32.4422  -17.0372   20.1947 H   0  0  0  0  0  0
  -28.3272  -18.3235   20.7257 H   0  0  0  0  0  0
  -30.0887  -22.7028   20.7192 H   0  0  0  0  0  0
  -26.3753  -22.6589   20.7716 H   0  0  0  0  0  0
  -26.6212  -22.3931   19.0533 H   0  0  0  0  0  0
  -26.0170  -23.9333   19.6207 H   0  0  0  0  0  0
  -29.2034  -24.9858   21.3411 H   0  0  0  0  0  0
  -27.4984  -25.0455   21.5527 H   0  0  0  0  0  0
  -28.5273  -23.8587   18.9783 H   0  0  0  0  0  0
  -28.9551  -15.7916   20.9044 H   0  0  0  0  0  0
  1 25  1  0  0  0
  1 30  2  0  0  0
  1 82  1  0  0  0
  2  3  1  0  0  0
  2 25  1  0  0  0
  2 83  1  0  0  0
  2 84  1  0  0  0
  3  4  1  0  0  0
  3 85  1  0  0  0
  3 86  1  0  0  0
  4  5  1  0  0  0
  4 87  1  0  0  0
  4 88  1  0  0  0
  5  6  1  0  0  0
  5 26  1  0  0  0
  5 89  1  0  0  0
  6 25  1  0  0  0
  6 90  1  0  0  0
  6 91  1  0  0  0
  7  8  2  0  0  0
  7 26  1  0  0  0
  7 29  1  0  0  0
  8  9  1  0  0  0
  8 22  1  0  0  0
  9 10  1  0  0  0
  9 27  2  0  0  0
 10 11  2  0  0  0
 10 15  1  0  0  0
 11 12  1  0  0  0
 11 92  1  0  0  0
 12 13  2  0  0  0
 12 93  1  0  0  0
 13 14  1  0  0  0
 13 31  1  0  0  0
 14 15  2  0  0  0
 14 94  1  0  0  0
 15 95  1  0  0  0
 16 17  2  0  0  0
 16 21  1  0  0  0
 16 31  1  0  0  0
 17 18  1  0  0  0
 17 96  1  0  0  0
 18 19  2  0  0  0
 18 97  1  0  0  0
 19 20  1  0  0  0
 19 24  1  0  0  0
 20 21  2  0  0  0
 20 98  1  0  0  0
 21 23  1  0  0  0
 22 28  1  0  0  0
 22 32  2  0  0  0
 26 27  1  0  0  0
 28 99  1  0  0  0
 28100  1  0  0  0
 29101  1  0  0  0
 29102  1  0  0  0
 33 34  1  0  0  0
 33 66  1  0  0  0
 33 70  2  0  0  0
 34 36  1  0  0  0
 34 59  1  0  0  0
 34103  1  0  0  0
 35 44  2  0  0  0
 35 45  1  0  0  0
 35 68  1  0  0  0
 36 56  1  0  0  0
 36104  1  0  0  0
 37 39  1  0  0  0
 37 47  1  0  0  0
 37 66  1  0  0  0
 37105  1  0  0  0
 38 43  2  0  0  0
 38 46  1  0  0  0
 38 47  1  0  0  0
 39 64  1  0  0  0
 39 67  2  0  0  0
 40 52  1  0  0  0
 40 53  2  0  0  0
 40 58  1  0  0  0
 41106  1  0  0  0
 41107  1  0  0  0
 41108  1  0  0  0
 41 48  1  0  0  0
 42 43  1  0  0  0
 42 66  1  0  0  0
 42109  1  0  0  0
 42110  1  0  0  0
 43 44  1  0  0  0
 44111  1  0  0  0
 45 46  2  0  0  0
 45112  1  0  0  0
 46113  1  0  0  0
 47114  1  0  0  0
 47115  1  0  0  0
 48 56  1  0  0  0
 48 65  1  0  0  0
 48116  1  0  0  0
 49 50  1  0  0  0
 49 53  1  0  0  0
 49 64  1  0  0  0
 49117  1  0  0  0
 50 51  1  0  0  0
 50118  1  0  0  0
 50119  1  0  0  0
 51 52  1  0  0  0
 51120  1  0  0  0
 51121  1  0  0  0
 52122  1  0  0  0
 52123  1  0  0  0
 53 54  1  0  0  0
 54 55  2  0  0  0
 54124  1  0  0  0
 55 57  1  0  0  0
 55125  1  0  0  0
 56 69  2  0  0  0
 57 58  2  0  0  0
 57126  1  0  0  0
 58127  1  0  0  0
 59 60  1  0  0  0
 59 61  1  0  0  0
 59 62  1  0  0  0
 60128  1  0  0  0
 60129  1  0  0  0
 60130  1  0  0  0
 61131  1  0  0  0
 61132  1  0  0  0
 61133  1  0  0  0
 62134  1  0  0  0
 62135  1  0  0  0
 62136  1  0  0  0
 63 65  1  0  0  0
 63137  1  0  0  0
 63138  1  0  0  0
 63139  1  0  0  0
 64140  1  0  0  0
 65141  1  0  0  0
 68 79  1  0  0  0
 71 72  2  0  0  0
 71 73  1  0  0  0
 71142  1  0  0  0
 72 75  1  0  0  0
 72143  1  0  0  0
 73 76  2  0  0  0
 73144  1  0  0  0
 74 75  2  0  0  0
 74 76  1  0  0  0
 74145  1  0  0  0
 75 81  1  0  0  0
 76 82  1  0  0  0
 77 80  1  0  0  0
 77 81  2  0  0  0
 77146  1  0  0  0
 78147  1  0  0  0
 78148  1  0  0  0
 78149  1  0  0  0
 78 80  1  0  0  0
 79 80  1  0  0  0
 79150  1  0  0  0
 79151  1  0  0  0
 80152  1  0  0  0
 82153  1  0  0  0
M  ISO  4   1 100  68 101  79 101  82 100
M  END
> <chiral flag>
0

> <version>
0

> <s_m_source_file>
/data/baiqing/PycharmProjects/Reinvent-master-3.2/result/LINK_invent/BTK/process_docking_weight1_custom_product_contain_oxygen_bond_distance_aromatic_linkinvent_7_9_3/rearranged_h_0056.sdf

> <i_m_source_file_index>
6

> <r_mmod_Potential_Energy-OPLS-2005>
236.955825805664

> <r_mmod_Stretch_Energy-OPLS-2005>
143.307189941406

> <r_mmod_Bend_Energy-OPLS-2005>
183.99299621582

> <r_mmod_Torsional_Energy-OPLS-2005>
244.32307434082

> <r_mmod_Improper_Torsional_Energy-OPLS-2005>
5.29253101348877

> <r_mmod_Van_der_Waal_Energy-OPLS-2005>
145.686462402344

> <r_mmod_Electrostatic_Energy-OPLS-2005>
-362.988830566406

> <r_mmod_Solvation_Energy-OPLS-2005>
-209.454864501953

> <b_mmod_Minimization_Converged-OPLS-2005>
0

> <r_mmod_RMS_Derivative-OPLS-2005>
5.4216570854187

$$$$
6
                    3D
 Structure written by MMmdl.
157165  0  0  1  0            999 V2000
  -30.6923  -14.4914   20.5402 C   0  0  0  0  0  0
  -30.4239  -12.3045   19.4375 C   0  0  0  0  0  0
  -29.5031  -12.4967   18.2152 C   0  0  0  0  0  0
  -28.0191  -12.3771   18.6163 C   0  0  0  0  0  0
  -27.6632  -13.2132   19.8743 C   0  0  2  0  0  0
  -28.7032  -13.0054   20.9979 C   0  0  0  0  0  0
  -25.2598  -13.8176   20.5657 C   0  0  0  0  0  0
  -24.1842  -13.0464   20.9180 C   0  0  0  0  0  0
  -24.6399  -11.6934   20.8740 C   0  0  0  0  0  0
  -23.9048  -10.4319   21.0394 C   0  0  0  0  0  0
  -24.3607   -9.4231   21.9163 C   0  0  0  0  0  0
  -23.6310   -8.2253   22.0734 C   0  0  0  0  0  0
  -22.4294   -8.0270   21.3534 C   0  0  0  0  0  0
  -21.9927   -9.0240   20.4637 C   0  0  0  0  0  0
  -22.7225  -10.2136   20.3042 C   0  0  0  0  0  0
  -21.6864   -6.0728   22.5258 C   0  0  0  0  0  0
  -21.4019   -6.5643   23.8186 C   0  0  0  0  0  0
  -21.3669   -5.6799   24.9152 C   0  0  0  0  0  0
  -21.6050   -4.3054   24.7213 C   0  0  0  0  0  0
  -21.8826   -3.8144   23.4333 C   0  0  0  0  0  0
  -21.9198   -4.6953   22.3387 C   0  0  0  0  0  0
  -22.7859  -13.5245   21.1842 C   0  0  0  0  0  0
  -22.1659   -4.2143   21.0960 F   0  0  0  0  0  0
  -21.5642   -3.4532   25.7717 F   0  0  0  0  0  0
  -30.0364  -13.3002   20.4491 N   0  0  0  0  0  0
  -26.3039  -12.9351   20.3341 N   0  0  0  0  0  0
  -25.9329  -11.6504   20.5763 N   0  0  0  0  0  0
  -22.0495  -12.8231   22.0378 N   0  0  0  0  0  0
  -25.4345  -15.1882   20.4046 N   0  0  0  0  0  0
  -31.8427  -14.6535   20.1255 O   0  0  0  0  0  0
  -21.6652   -6.8866   21.4218 O   0  0  0  0  0  0
  -22.3530  -14.5557   20.6709 O   0  0  0  0  0  0
  -24.6150  -31.8677   23.2124 C   0  0  0  0  0  0
  -25.9045  -32.4820   23.8398 C   0  0  1  0  0  0
  -27.2102  -27.4025   20.1094 C   0  0  0  0  0  0
  -25.5900  -33.8619   24.2324 N   0  0  0  0  0  0
  -23.4015  -30.4985   21.5510 C   0  0  2  0  0  0
  -24.8452  -28.9715   20.1090 C   0  0  0  0  0  0
  -22.7387  -29.4673   22.4939 C   0  0  0  0  0  0
  -18.0279  -28.1343   22.8499 C   0  0  0  0  0  0
  -24.1486  -36.7316   23.2640 C   0  0  0  0  0  0
  -25.9363  -30.8275   21.3699 C   0  0  0  0  0  0
  -26.0111  -29.4636   20.7096 C   0  0  0  0  0  0
  -27.2000  -28.6903   20.7016 C   0  0  0  0  0  0
  -26.0260  -26.9487   19.4787 C   0  0  0  0  0  0
  -24.8508  -27.7154   19.4880 C   0  0  0  0  0  0
  -23.6099  -29.8418   20.1636 C   0  0  0  0  0  0
  -25.4106  -36.3102   24.0336 C   0  0  1  0  0  0
  -20.5868  -28.3647   23.1288 C   0  0  2  0  0  0
  -20.6747  -26.9375   22.5395 C   0  0  0  0  0  0
  -19.5735  -26.6353   21.5185 C   0  0  0  0  0  0
  -18.1926  -26.7895   22.1614 C   0  0  0  0  0  0
  -19.1527  -28.8805   23.2904 C   0  0  0  0  0  0
  -18.9458  -30.1411   23.8915 C   0  0  0  0  0  0
  -17.6468  -30.6565   24.0550 C   0  0  0  0  0  0
  -25.9032  -34.9468   23.5122 C   0  0  0  0  0  0
  -16.5357  -29.9061   23.6325 C   0  0  0  0  0  0
  -16.7270  -28.6464   23.0366 C   0  0  0  0  0  0
  -26.4468  -31.6605   25.0731 C   0  0  0  0  0  0
  -25.3749  -31.3733   26.1498 C   0  0  0  0  0  0
  -27.0299  -30.3035   24.6129 C   0  0  0  0  0  0
  -27.6025  -32.4336   25.7516 C   0  0  0  0  0  0
  -27.5578  -37.1815   24.8464 C   0  0  0  0  0  0
  -21.4104  -29.3041   22.3690 N   0  0  0  0  0  0
  -26.4290  -37.3786   23.9409 N   0  0  0  0  0  0
  -24.6696  -31.0773   22.1032 N   0  0  0  0  0  0
  -23.4166  -28.8195   23.2958 O   0  0  0  0  0  0
  -28.3300  -26.5857   20.1821 O   0  0  0  0  0  0
  -26.5592  -34.8913   22.4684 O   0  0  0  0  0  0
  -23.5342  -32.1442   23.7510 O   0  0  0  0  0  0
  -29.8990  -19.5361   19.5020 C   0  0  0  0  0  0
  -30.1993  -18.4680   18.6372 C   0  0  0  0  0  0
  -29.6684  -17.9532   21.3437 C   0  0  0  0  0  0
  -29.6303  -19.2913   20.8656 C   0  0  0  0  0  0
  -29.9856  -16.8689   20.4851 C   0  0  0  0  0  0
  -30.2312  -17.1446   19.1139 C   0  0  0  0  0  0
  -28.7250  -22.7875   21.1209 C   0  0  0  0  0  0
  -31.0823  -22.0597   21.2957 C   0  0  0  0  0  0
  -29.2705  -20.4430   21.8193 C   0  0  0  0  0  0
  -29.1937  -24.2317   20.7720 C   0  0  0  0  0  0
  -28.0163  -25.1911   20.4440 C   0  0  0  0  0  0
  -29.9567  -15.5269   20.9931 N   0  0  0  0  0  0
  -29.6399  -21.8141   21.3808 N   0  0  0  0  0  0
  -27.5114  -22.5565   21.1668 O   0  0  0  0  0  0
  -30.4461  -16.1478   18.2212 F   0  0  0  0  0  0
  -31.4688  -12.4036   19.1371 H   0  0  0  0  0  0
  -30.3210  -11.2975   19.8445 H   0  0  0  0  0  0
  -29.7448  -11.7596   17.4472 H   0  0  0  0  0  0
  -29.6797  -13.4746   17.7665 H   0  0  0  0  0  0
  -27.8019  -11.3236   18.7928 H   0  0  0  0  0  0
  -27.3849  -12.6731   17.7795 H   0  0  0  0  0  0
  -27.7075  -14.2605   19.5761 H   0  0  0  0  0  0
  -28.6747  -11.9778   21.3619 H   0  0  0  0  0  0
  -28.4663  -13.6259   21.8627 H   0  0  0  0  0  0
  -25.2743   -9.5732   22.4737 H   0  0  0  0  0  0
  -24.0027   -7.4663   22.7464 H   0  0  0  0  0  0
  -21.0852   -8.8748   19.8970 H   0  0  0  0  0  0
  -22.3647  -10.9666   19.6163 H   0  0  0  0  0  0
  -21.1997   -7.6148   23.9689 H   0  0  0  0  0  0
  -21.1493   -6.0524   25.9064 H   0  0  0  0  0  0
  -22.0602   -2.7610   23.2821 H   0  0  0  0  0  0
  -22.4140  -11.9927   22.4802 H   0  0  0  0  0  0
  -21.1099  -13.1244   22.2579 H   0  0  0  0  0  0
  -24.6747  -15.8507   20.5158 H   0  0  0  0  0  0
  -26.2902  -15.6194   20.0785 H   0  0  0  0  0  0
  -26.7106  -32.5522   23.1146 H   0  0  0  0  0  0
  -25.0049  -33.9786   25.0464 H   0  0  0  0  0  0
  -22.6914  -31.3190   21.4186 H   0  0  0  0  0  0
  -23.3734  -35.9664   23.3310 H   0  0  0  0  0  0
  -24.3584  -36.8918   22.2048 H   0  0  0  0  0  0
  -23.7248  -37.6531   23.6648 H   0  0  0  0  0  0
  -26.0566  -31.5991   20.6074 H   0  0  0  0  0  0
  -26.8199  -30.8716   21.9947 H   0  0  0  0  0  0
  -28.0941  -29.0575   21.1871 H   0  0  0  0  0  0
  -25.9718  -25.9948   18.9780 H   0  0  0  0  0  0
  -23.9568  -27.3314   19.0154 H   0  0  0  0  0  0
  -23.7173  -30.6216   19.4087 H   0  0  0  0  0  0
  -22.7294  -29.2688   19.8658 H   0  0  0  0  0  0
  -25.1278  -36.1959   25.0832 H   0  0  0  0  0  0
  -21.0006  -28.3207   24.1387 H   0  0  0  0  0  0
  -20.5583  -26.2267   23.3587 H   0  0  0  0  0  0
  -21.6626  -26.7363   22.1227 H   0  0  0  0  0  0
  -19.6885  -25.6256   21.1221 H   0  0  0  0  0  0
  -19.6666  -27.3148   20.6692 H   0  0  0  0  0  0
  -17.4176  -26.6638   21.4029 H   0  0  0  0  0  0
  -18.0352  -26.0013   22.8995 H   0  0  0  0  0  0
  -19.7942  -30.7207   24.2293 H   0  0  0  0  0  0
  -17.5033  -31.6261   24.5117 H   0  0  0  0  0  0
  -15.5354  -30.2974   23.7622 H   0  0  0  0  0  0
  -15.8672  -28.0771   22.7101 H   0  0  0  0  0  0
  -24.5875  -30.7126   25.7847 H   0  0  0  0  0  0
  -24.9010  -32.2914   26.4977 H   0  0  0  0  0  0
  -25.8110  -30.8873   27.0235 H   0  0  0  0  0  0
  -26.2848  -29.6811   24.1153 H   0  0  0  0  0  0
  -27.4016  -29.7246   25.4595 H   0  0  0  0  0  0
  -27.8708  -30.4326   23.9314 H   0  0  0  0  0  0
  -27.2595  -33.3596   26.2140 H   0  0  0  0  0  0
  -28.3820  -32.6968   25.0359 H   0  0  0  0  0  0
  -28.0712  -31.8451   26.5409 H   0  0  0  0  0  0
  -28.2594  -38.0109   24.7495 H   0  0  0  0  0  0
  -28.1071  -36.2639   24.6302 H   0  0  0  0  0  0
  -27.2309  -37.1474   25.8872 H   0  0  0  0  0  0
  -20.9212  -29.8846   21.7016 H   0  0  0  0  0  0
  -26.0175  -38.2868   24.1404 H   0  0  0  0  0  0
  -29.8650  -20.5380   19.0979 H   0  0  0  0  0  0
  -30.3855  -18.6607   17.5914 H   0  0  0  0  0  0
  -29.4543  -17.7619   22.3850 H   0  0  0  0  0  0
  -31.3690  -22.9272   21.8892 H   0  0  0  0  0  0
  -31.3812  -22.2334   20.2621 H   0  0  0  0  0  0
  -31.6633  -21.2129   21.6679 H   0  0  0  0  0  0
  -29.7551  -20.2591   22.7798 H   0  0  0  0  0  0
  -28.2004  -20.3633   22.0251 H   0  0  0  0  0  0
  -29.8627  -24.1846   19.9122 H   0  0  0  0  0  0
  -29.7628  -24.6279   21.6128 H   0  0  0  0  0  0
  -27.3080  -25.1596   21.2765 H   0  0  0  0  0  0
  -27.5112  -24.7601   19.5814 H   0  0  0  0  0  0
  -29.1328  -15.2791   21.5179 H   0  0  0  0  0  0
  1 25  1  0  0  0
  1 30  2  0  0  0
  1 82  1  0  0  0
  2  3  1  0  0  0
  2 25  1  0  0  0
  2 86  1  0  0  0
  2 87  1  0  0  0
  3  4  1  0  0  0
  3 88  1  0  0  0
  3 89  1  0  0  0
  4  5  1  0  0  0
  4 90  1  0  0  0
  4 91  1  0  0  0
  5  6  1  0  0  0
  5 26  1  0  0  0
  5 92  1  0  0  0
  6 25  1  0  0  0
  6 93  1  0  0  0
  6 94  1  0  0  0
  7  8  2  0  0  0
  7 26  1  0  0  0
  7 29  1  0  0  0
  8  9  1  0  0  0
  8 22  1  0  0  0
  9 10  1  0  0  0
  9 27  2  0  0  0
 10 11  2  0  0  0
 10 15  1  0  0  0
 11 12  1  0  0  0
 11 95  1  0  0  0
 12 13  2  0  0  0
 12 96  1  0  0  0
 13 14  1  0  0  0
 13 31  1  0  0  0
 14 15  2  0  0  0
 14 97  1  0  0  0
 15 98  1  0  0  0
 16 17  2  0  0  0
 16 21  1  0  0  0
 16 31  1  0  0  0
 17 18  1  0  0  0
 17 99  1  0  0  0
 18 19  2  0  0  0
 18100  1  0  0  0
 19 20  1  0  0  0
 19 24  1  0  0  0
 20 21  2  0  0  0
 20101  1  0  0  0
 21 23  1  0  0  0
 22 28  1  0  0  0
 22 32  2  0  0  0
 26 27  1  0  0  0
 28102  1  0  0  0
 28103  1  0  0  0
 29104  1  0  0  0
 29105  1  0  0  0
 33 34  1  0  0  0
 33 66  1  0  0  0
 33 70  2  0  0  0
 34 36  1  0  0  0
 34 59  1  0  0  0
 34106  1  0  0  0
 35 44  2  0  0  0
 35 45  1  0  0  0
 35 68  1  0  0  0
 36 56  1  0  0  0
 36107  1  0  0  0
 37 39  1  0  0  0
 37 47  1  0  0  0
 37 66  1  0  0  0
 37108  1  0  0  0
 38 43  2  0  0  0
 38 46  1  0  0  0
 38 47  1  0  0  0
 39 64  1  0  0  0
 39 67  2  0  0  0
 40 52  1  0  0  0
 40 53  2  0  0  0
 40 58  1  0  0  0
 41109  1  0  0  0
 41110  1  0  0  0
 41111  1  0  0  0
 41 48  1  0  0  0
 42 43  1  0  0  0
 42 66  1  0  0  0
 42112  1  0  0  0
 42113  1  0  0  0
 43 44  1  0  0  0
 44114  1  0  0  0
 45 46  2  0  0  0
 45115  1  0  0  0
 46116  1  0  0  0
 47117  1  0  0  0
 47118  1  0  0  0
 48 56  1  0  0  0
 48 65  1  0  0  0
 48119  1  0  0  0
 49 50  1  0  0  0
 49 53  1  0  0  0
 49 64  1  0  0  0
 49120  1  0  0  0
 50 51  1  0  0  0
 50121  1  0  0  0
 50122  1  0  0  0
 51 52  1  0  0  0
 51123  1  0  0  0
 51124  1  0  0  0
 52125  1  0  0  0
 52126  1  0  0  0
 53 54  1  0  0  0
 54 55  2  0  0  0
 54127  1  0  0  0
 55 57  1  0  0  0
 55128  1  0  0  0
 56 69  2  0  0  0
 57 58  2  0  0  0
 57129  1  0  0  0
 58130  1  0  0  0
 59 60  1  0  0  0
 59 61  1  0  0  0
 59 62  1  0  0  0
 60131  1  0  0  0
 60132  1  0  0  0
 60133  1  0  0  0
 61134  1  0  0  0
 61135  1  0  0  0
 61136  1  0  0  0
 62137  1  0  0  0
 62138  1  0  0  0
 62139  1  0  0  0
 63 65  1  0  0  0
 63140  1  0  0  0
 63141  1  0  0  0
 63142  1  0  0  0
 64143  1  0  0  0
 65144  1  0  0  0
 68 81  1  0  0  0
 71 72  2  0  0  0
 71 74  1  0  0  0
 71145  1  0  0  0
 72 76  1  0  0  0
 72146  1  0  0  0
 73 74  2  0  0  0
 73 75  1  0  0  0
 73147  1  0  0  0
 74 79  1  0  0  0
 75 76  2  0  0  0
 75 82  1  0  0  0
 76 85  1  0  0  0
 77 80  1  0  0  0
 77 83  1  0  0  0
 77 84  2  0  0  0
 78 83  1  0  0  0
 78148  1  0  0  0
 78149  1  0  0  0
 78150  1  0  0  0
 79 83  1  0  0  0
 79151  1  0  0  0
 79152  1  0  0  0
 80 81  1  0  0  0
 80153  1  0  0  0
 80154  1  0  0  0
 81155  1  0  0  0
 81156  1  0  0  0
 82157  1  0  0  0
M  ISO  4   1 100  68 101  81 101  82 100
M  END
> <chiral flag>
0

> <version>
0

> <s_m_source_file>
/data/baiqing/PycharmProjects/Reinvent-master-3.2/result/LINK_invent/BTK/process_docking_weight1_custom_product_contain_oxygen_bond_distance_aromatic_linkinvent_7_9_3/rearranged_h_0056.sdf

> <i_m_source_file_index>
7

> <r_mmod_Potential_Energy-OPLS-2005>
-69.4051666259766

> <r_mmod_Stretch_Energy-OPLS-2005>
45.5325927734375

> <r_mmod_Bend_Energy-OPLS-2005>
94.9376754760742

> <r_mmod_Torsional_Energy-OPLS-2005>
246.340270996094

> <r_mmod_Improper_Torsional_Energy-OPLS-2005>
4.55832433700562

> <r_mmod_Van_der_Waal_Energy-OPLS-2005>
171.389175415039

> <r_mmod_Electrostatic_Energy-OPLS-2005>
-423.425903320312

> <r_mmod_Solvation_Energy-OPLS-2005>
-229.949157714844

> <b_mmod_Minimization_Converged-OPLS-2005>
0

> <r_mmod_RMS_Derivative-OPLS-2005>
3.31297707557678

$$$$
7
                    3D
 Structure written by MMmdl.
162170  0  0  1  0            999 V2000
  -30.7242  -14.4440   20.4066 C   0  0  0  0  0  0
  -30.4078  -12.2540   19.4231 C   0  0  0  0  0  0
  -29.4866  -12.4612   18.2019 C   0  0  0  0  0  0
  -28.0101  -12.3325   18.6209 C   0  0  0  0  0  0
  -27.6540  -13.2062   19.8543 C   0  0  2  0  0  0
  -28.7055  -13.0572   20.9818 C   0  0  0  0  0  0
  -25.2574  -13.8161   20.5675 C   0  0  0  0  0  0
  -24.1844  -13.0440   20.9187 C   0  0  0  0  0  0
  -24.6401  -11.6897   20.8751 C   0  0  0  0  0  0
  -23.9070  -10.4290   21.0420 C   0  0  0  0  0  0
  -24.3621   -9.4197   21.9202 C   0  0  0  0  0  0
  -23.6289   -8.2236   22.0770 C   0  0  0  0  0  0
  -22.4274   -8.0289   21.3551 C   0  0  0  0  0  0
  -21.9913   -9.0265   20.4651 C   0  0  0  0  0  0
  -22.7248  -10.2137   20.3056 C   0  0  0  0  0  0
  -21.6845   -6.0742   22.5284 C   0  0  0  0  0  0
  -21.4015   -6.5631   23.8221 C   0  0  0  0  0  0
  -21.3659   -5.6779   24.9178 C   0  0  0  0  0  0
  -21.6043   -4.3043   24.7220 C   0  0  0  0  0  0
  -21.8823   -3.8141   23.4339 C   0  0  0  0  0  0
  -21.9192   -4.6968   22.3399 C   0  0  0  0  0  0
  -22.7870  -13.5241   21.1867 C   0  0  0  0  0  0
  -22.1662   -4.2162   21.0974 F   0  0  0  0  0  0
  -21.5626   -3.4522   25.7724 F   0  0  0  0  0  0
  -30.0404  -13.2765   20.4076 N   0  0  0  0  0  0
  -26.3004  -12.9330   20.3303 N   0  0  0  0  0  0
  -25.9321  -11.6493   20.5753 N   0  0  0  0  0  0
  -22.0497  -12.8227   22.0390 N   0  0  0  0  0  0
  -25.4246  -15.1898   20.4097 N   0  0  0  0  0  0
  -31.9453  -14.5223   20.2639 O   0  0  0  0  0  0
  -21.6622   -6.8898   21.4255 O   0  0  0  0  0  0
  -22.3558  -14.5562   20.6737 O   0  0  0  0  0  0
  -24.6082  -31.8752   23.2183 C   0  0  0  0  0  0
  -25.9006  -32.4876   23.8436 C   0  0  1  0  0  0
  -27.2273  -27.4973   20.0787 C   0  0  0  0  0  0
  -25.5896  -33.8673   24.2387 N   0  0  0  0  0  0
  -23.3918  -30.4994   21.5610 C   0  0  2  0  0  0
  -24.8355  -28.9767   20.1240 C   0  0  0  0  0  0
  -22.7379  -29.4667   22.5058 C   0  0  0  0  0  0
  -18.0259  -28.1403   22.8529 C   0  0  0  0  0  0
  -24.1491  -36.7315   23.2632 C   0  0  0  0  0  0
  -25.9125  -30.8623   21.3587 C   0  0  0  0  0  0
  -25.9951  -29.4972   20.7141 C   0  0  0  0  0  0
  -27.2001  -28.7642   20.6993 C   0  0  0  0  0  0
  -26.0496  -26.9740   19.5085 C   0  0  0  0  0  0
  -24.8513  -27.7057   19.5264 C   0  0  0  0  0  0
  -23.5987  -29.8396   20.1724 C   0  0  0  0  0  0
  -25.4107  -36.3145   24.0352 C   0  0  1  0  0  0
  -20.5842  -28.3643   23.1384 C   0  0  2  0  0  0
  -20.6731  -26.9390   22.5451 C   0  0  0  0  0  0
  -19.5705  -26.6408   21.5251 C   0  0  0  0  0  0
  -18.1885  -26.7959   22.1648 C   0  0  0  0  0  0
  -19.1506  -28.8841   23.2956 C   0  0  0  0  0  0
  -18.9433  -30.1467   23.8948 C   0  0  0  0  0  0
  -17.6431  -30.6596   24.0599 C   0  0  0  0  0  0
  -25.9039  -34.9515   23.5168 C   0  0  0  0  0  0
  -16.5330  -29.9098   23.6349 C   0  0  0  0  0  0
  -16.7245  -28.6533   23.0361 C   0  0  0  0  0  0
  -26.4479  -31.6602   25.0705 C   0  0  0  0  0  0
  -25.3778  -31.3649   26.1460 C   0  0  0  0  0  0
  -27.0275  -30.3059   24.5995 C   0  0  0  0  0  0
  -27.6073  -32.4275   25.7486 C   0  0  0  0  0  0
  -27.5623  -37.1784   24.8441 C   0  0  0  0  0  0
  -21.4107  -29.3024   22.3813 N   0  0  0  0  0  0
  -26.4285  -37.3846   23.9472 N   0  0  0  0  0  0
  -24.6565  -31.0890   22.1069 N   0  0  0  0  0  0
  -23.4189  -28.8186   23.3044 O   0  0  0  0  0  0
  -28.3267  -26.6919   19.9777 O   0  0  0  0  0  0
  -26.5590  -34.8952   22.4726 O   0  0  0  0  0  0
  -23.5288  -32.1461   23.7627 O   0  0  0  0  0  0
  -31.0183  -18.4900   17.2851 C   0  0  0  0  0  0
  -30.9625  -16.1711   17.9915 C   0  0  0  0  0  0
  -31.3106  -17.1415   17.0345 C   0  0  0  0  0  0
  -29.9782  -17.8872   19.4339 C   0  0  0  0  0  0
  -30.3747  -18.8634   18.4795 C   0  0  0  0  0  0
  -30.3085  -16.5265   19.2019 C   0  0  0  0  0  0
  -30.8939  -23.5256   19.6552 C   0  0  0  0  0  0
  -30.3776  -22.4683   19.0052 C   0  0  0  0  0  0
  -30.1643  -24.7703   19.6523 C   0  0  0  0  0  0
  -30.5352  -25.9134   20.2611 C   0  0  0  0  0  0
  -30.9893  -21.1587   19.0309 C   0  0  0  0  0  0
  -32.0033  -16.7351   15.7481 C   0  0  0  0  0  0
  -29.2287  -18.2839   20.7032 C   0  0  0  0  0  0
  -29.6321  -27.1337   20.3074 C   0  0  0  0  0  0
  -30.0987  -20.2326   18.6559 N   0  0  0  0  0  0
  -29.9628  -15.5203   20.1582 N   0  0  0  0  0  0
  -32.1486  -20.9056   19.3715 O   0  0  0  0  0  0
  -31.4564  -12.3180   19.1250 H   0  0  0  0  0  0
  -30.2749  -11.2562   19.8436 H   0  0  0  0  0  0
  -29.7203  -11.7336   17.4242 H   0  0  0  0  0  0
  -29.6551  -13.4424   17.7597 H   0  0  0  0  0  0
  -27.8247  -11.2813   18.8450 H   0  0  0  0  0  0
  -27.3591  -12.5860   17.7828 H   0  0  0  0  0  0
  -27.6698  -14.2373   19.5048 H   0  0  0  0  0  0
  -28.6571  -12.0628   21.4286 H   0  0  0  0  0  0
  -28.5086  -13.7670   21.7879 H   0  0  0  0  0  0
  -25.2780   -9.5652   22.4773 H   0  0  0  0  0  0
  -23.9990   -7.4618   22.7489 H   0  0  0  0  0  0
  -21.0847   -8.8797   19.8952 H   0  0  0  0  0  0
  -22.3744  -10.9681   19.6151 H   0  0  0  0  0  0
  -21.2008   -7.6142   23.9737 H   0  0  0  0  0  0
  -21.1475   -6.0497   25.9082 H   0  0  0  0  0  0
  -22.0601   -2.7609   23.2824 H   0  0  0  0  0  0
  -22.4082  -11.9831   22.4697 H   0  0  0  0  0  0
  -21.1157  -13.1317   22.2683 H   0  0  0  0  0  0
  -24.6500  -15.8352   20.5194 H   0  0  0  0  0  0
  -26.2705  -15.6407   20.0841 H   0  0  0  0  0  0
  -26.7088  -32.5633   23.1221 H   0  0  0  0  0  0
  -25.0062  -33.9859   25.0541 H   0  0  0  0  0  0
  -22.6748  -31.3128   21.4278 H   0  0  0  0  0  0
  -23.3827  -35.9568   23.3164 H   0  0  0  0  0  0
  -24.3633  -36.9056   22.2076 H   0  0  0  0  0  0
  -23.7114  -37.6430   23.6717 H   0  0  0  0  0  0
  -25.9969  -31.6276   20.5862 H   0  0  0  0  0  0
  -26.8113  -30.9331   21.9596 H   0  0  0  0  0  0
  -28.0852  -29.1803   21.1594 H   0  0  0  0  0  0
  -26.0640  -25.9993   19.0414 H   0  0  0  0  0  0
  -23.9550  -27.2940   19.0833 H   0  0  0  0  0  0
  -23.7133  -30.6198   19.4176 H   0  0  0  0  0  0
  -22.7221  -29.2639   19.8718 H   0  0  0  0  0  0
  -25.1268  -36.2015   25.0834 H   0  0  0  0  0  0
  -20.9923  -28.3179   24.1502 H   0  0  0  0  0  0
  -20.5646  -26.2244   23.3629 H   0  0  0  0  0  0
  -21.6603  -26.7429   22.1247 H   0  0  0  0  0  0
  -19.6842  -25.6329   21.1251 H   0  0  0  0  0  0
  -19.6657  -27.3255   20.6814 H   0  0  0  0  0  0
  -17.4168  -26.6791   21.4032 H   0  0  0  0  0  0
  -18.0214  -26.0102   22.9024 H   0  0  0  0  0  0
  -19.7897  -30.7319   24.2326 H   0  0  0  0  0  0
  -17.4960  -31.6275   24.5199 H   0  0  0  0  0  0
  -15.5335  -30.3010   23.7645 H   0  0  0  0  0  0
  -15.8656  -28.0874   22.7014 H   0  0  0  0  0  0
  -24.5942  -30.7032   25.7753 H   0  0  0  0  0  0
  -24.9006  -32.2792   26.4997 H   0  0  0  0  0  0
  -25.8166  -30.8726   27.0151 H   0  0  0  0  0  0
  -26.2764  -29.6829   24.1129 H   0  0  0  0  0  0
  -27.4137  -29.7281   25.4406 H   0  0  0  0  0  0
  -27.8564  -30.4392   23.9038 H   0  0  0  0  0  0
  -27.2721  -33.3561   26.2126 H   0  0  0  0  0  0
  -28.3890  -32.6844   25.0321 H   0  0  0  0  0  0
  -28.0735  -31.8337   26.5364 H   0  0  0  0  0  0
  -28.2505  -38.0214   24.7726 H   0  0  0  0  0  0
  -28.1256  -36.2767   24.5979 H   0  0  0  0  0  0
  -27.2391  -37.1083   25.8841 H   0  0  0  0  0  0
  -20.9228  -29.8813   21.7123 H   0  0  0  0  0  0
  -26.0164  -38.2892   24.1633 H   0  0  0  0  0  0
  -31.2886  -19.2463   16.5588 H   0  0  0  0  0  0
  -31.2173  -15.1416   17.7812 H   0  0  0  0  0  0
  -31.8229  -23.4397   20.2039 H   0  0  0  0  0  0
  -29.4589  -22.5983   18.4482 H   0  0  0  0  0  0
  -29.2146  -24.7563   19.1338 H   0  0  0  0  0  0
  -31.4904  -25.9906   20.7625 H   0  0  0  0  0  0
  -32.1549  -17.5910   15.0892 H   0  0  0  0  0  0
  -31.4048  -16.0019   15.2070 H   0  0  0  0  0  0
  -32.9785  -16.2957   15.9602 H   0  0  0  0  0  0
  -29.2944  -19.3495   20.9187 H   0  0  0  0  0  0
  -29.6323  -17.7658   21.5734 H   0  0  0  0  0  0
  -28.1742  -18.0227   20.6125 H   0  0  0  0  0  0
  -29.9748  -27.8794   19.5891 H   0  0  0  0  0  0
  -29.6693  -27.5658   21.3080 H   0  0  0  0  0  0
  -29.1652  -20.5457   18.4326 H   0  0  0  0  0  0
  -28.9864  -15.4461   20.3978 H   0  0  0  0  0  0
  1 25  1  0  0  0
  1 30  2  0  0  0
  1 86  1  0  0  0
  2  3  1  0  0  0
  2 25  1  0  0  0
  2 88  1  0  0  0
  2 89  1  0  0  0
  3  4  1  0  0  0
  3 90  1  0  0  0
  3 91  1  0  0  0
  4  5  1  0  0  0
  4 92  1  0  0  0
  4 93  1  0  0  0
  5  6  1  0  0  0
  5 26  1  0  0  0
  5 94  1  0  0  0
  6 25  1  0  0  0
  6 95  1  0  0  0
  6 96  1  0  0  0
  7  8  2  0  0  0
  7 26  1  0  0  0
  7 29  1  0  0  0
  8  9  1  0  0  0
  8 22  1  0  0  0
  9 10  1  0  0  0
  9 27  2  0  0  0
 10 11  2  0  0  0
 10 15  1  0  0  0
 11 12  1  0  0  0
 11 97  1  0  0  0
 12 13  2  0  0  0
 12 98  1  0  0  0
 13 14  1  0  0  0
 13 31  1  0  0  0
 14 15  2  0  0  0
 14 99  1  0  0  0
 15100  1  0  0  0
 16 17  2  0  0  0
 16 21  1  0  0  0
 16 31  1  0  0  0
 17 18  1  0  0  0
 17101  1  0  0  0
 18 19  2  0  0  0
 18102  1  0  0  0
 19 20  1  0  0  0
 19 24  1  0  0  0
 20 21  2  0  0  0
 20103  1  0  0  0
 21 23  1  0  0  0
 22 28  1  0  0  0
 22 32  2  0  0  0
 26 27  1  0  0  0
 28104  1  0  0  0
 28105  1  0  0  0
 29106  1  0  0  0
 29107  1  0  0  0
 33 34  1  0  0  0
 33 66  1  0  0  0
 33 70  2  0  0  0
 34 36  1  0  0  0
 34 59  1  0  0  0
 34108  1  0  0  0
 35 44  2  0  0  0
 35 45  1  0  0  0
 35 68  1  0  0  0
 36 56  1  0  0  0
 36109  1  0  0  0
 37 39  1  0  0  0
 37 47  1  0  0  0
 37 66  1  0  0  0
 37110  1  0  0  0
 38 43  2  0  0  0
 38 46  1  0  0  0
 38 47  1  0  0  0
 39 64  1  0  0  0
 39 67  2  0  0  0
 40 52  1  0  0  0
 40 53  2  0  0  0
 40 58  1  0  0  0
 41111  1  0  0  0
 41112  1  0  0  0
 41113  1  0  0  0
 41 48  1  0  0  0
 42 43  1  0  0  0
 42 66  1  0  0  0
 42114  1  0  0  0
 42115  1  0  0  0
 43 44  1  0  0  0
 44116  1  0  0  0
 45 46  2  0  0  0
 45117  1  0  0  0
 46118  1  0  0  0
 47119  1  0  0  0
 47120  1  0  0  0
 48 56  1  0  0  0
 48 65  1  0  0  0
 48121  1  0  0  0
 49 50  1  0  0  0
 49 53  1  0  0  0
 49 64  1  0  0  0
 49122  1  0  0  0
 50 51  1  0  0  0
 50123  1  0  0  0
 50124  1  0  0  0
 51 52  1  0  0  0
 51125  1  0  0  0
 51126  1  0  0  0
 52127  1  0  0  0
 52128  1  0  0  0
 53 54  1  0  0  0
 54 55  2  0  0  0
 54129  1  0  0  0
 55 57  1  0  0  0
 55130  1  0  0  0
 56 69  2  0  0  0
 57 58  2  0  0  0
 57131  1  0  0  0
 58132  1  0  0  0
 59 60  1  0  0  0
 59 61  1  0  0  0
 59 62  1  0  0  0
 60133  1  0  0  0
 60134  1  0  0  0
 60135  1  0  0  0
 61136  1  0  0  0
 61137  1  0  0  0
 61138  1  0  0  0
 62139  1  0  0  0
 62140  1  0  0  0
 62141  1  0  0  0
 63 65  1  0  0  0
 63142  1  0  0  0
 63143  1  0  0  0
 63144  1  0  0  0
 64145  1  0  0  0
 65146  1  0  0  0
 68 84  1  0  0  0
 71 73  2  0  0  0
 71 75  1  0  0  0
 71147  1  0  0  0
 72 73  1  0  0  0
 72 76  2  0  0  0
 72148  1  0  0  0
 73 82  1  0  0  0
 74 75  2  0  0  0
 74 76  1  0  0  0
 74 83  1  0  0  0
 75 85  1  0  0  0
 76 86  1  0  0  0
 77 78  2  0  0  0
 77 79  1  0  0  0
 77149  1  0  0  0
 78 81  1  0  0  0
 78150  1  0  0  0
 79 80  2  0  0  0
 79151  1  0  0  0
 80 84  1  0  0  0
 80152  1  0  0  0
 81 85  1  0  0  0
 81 87  2  0  0  0
 82153  1  0  0  0
 82154  1  0  0  0
 82155  1  0  0  0
 83156  1  0  0  0
 83157  1  0  0  0
 83158  1  0  0  0
 84159  1  0  0  0
 84160  1  0  0  0
 85161  1  0  0  0
 86162  1  0  0  0
M  ISO  4   1 100  68 101  84 101  86 100
M  END
> <chiral flag>
0

> <version>
0

> <s_m_source_file>
/data/baiqing/PycharmProjects/Reinvent-master-3.2/result/LINK_invent/BTK/process_docking_weight1_custom_product_contain_oxygen_bond_distance_aromatic_linkinvent_7_9_3/rearranged_h_0056.sdf

> <i_m_source_file_index>
8

> <r_mmod_Potential_Energy-OPLS-2005>
-10.8817386627197

> <r_mmod_Stretch_Energy-OPLS-2005>
31.5900707244873

> <r_mmod_Bend_Energy-OPLS-2005>
107.328857421875

> <r_mmod_Torsional_Energy-OPLS-2005>
283.460662841797

> <r_mmod_Improper_Torsional_Energy-OPLS-2005>
13.1192922592163

> <r_mmod_Van_der_Waal_Energy-OPLS-2005>
165.307754516602

> <r_mmod_Electrostatic_Energy-OPLS-2005>
-400.392272949219

> <r_mmod_Solvation_Energy-OPLS-2005>
-237.651275634766

> <b_mmod_Minimization_Converged-OPLS-2005>
0

> <r_mmod_RMS_Derivative-OPLS-2005>
3.07775092124939

$$$$
8
                    3D
 Structure written by MMmdl.
160168  0  0  1  0            999 V2000
  -29.7177  -15.7103   20.9124 C   0  0  0  0  0  0
  -30.3299  -13.2501   19.7836 C   0  0  0  0  0  0
  -29.5689  -12.7931   18.4825 C   0  0  0  0  0  0
  -28.1344  -12.3450   18.7965 C   0  0  0  0  0  0
  -27.5395  -13.2795   19.8692 C   0  0  2  0  0  0
  -28.4223  -13.4540   21.1094 C   0  0  0  0  0  0
  -25.1923  -13.8200   20.5684 C   0  0  0  0  0  0
  -24.1361  -13.0365   20.9250 C   0  0  0  0  0  0
  -24.6053  -11.6862   20.8714 C   0  0  0  0  0  0
  -23.8846  -10.4236   21.0399 C   0  0  0  0  0  0
  -24.3491   -9.4190   21.9169 C   0  0  0  0  0  0
  -23.6227   -8.2192   22.0728 C   0  0  0  0  0  0
  -22.4209   -8.0208   21.3525 C   0  0  0  0  0  0
  -21.9793   -9.0141   20.4612 C   0  0  0  0  0  0
  -22.7055  -10.2042   20.3023 C   0  0  0  0  0  0
  -21.6830   -6.0685   22.5286 C   0  0  0  0  0  0
  -21.4002   -6.5604   23.8214 C   0  0  0  0  0  0
  -21.3656   -5.6769   24.9194 C   0  0  0  0  0  0
  -21.6051   -4.3029   24.7243 C   0  0  0  0  0  0
  -21.8821   -3.8102   23.4368 C   0  0  0  0  0  0
  -21.9191   -4.6918   22.3414 C   0  0  0  0  0  0
  -22.7447  -13.5132   21.2002 C   0  0  0  0  0  0
  -22.1666   -4.2100   21.0994 F   0  0  0  0  0  0
  -21.5646   -3.4525   25.7762 F   0  0  0  0  0  0
  -29.5295  -14.2687   20.6587 N   0  0  0  0  0  0
  -26.2152  -12.9388   20.2934 N   0  0  0  0  0  0
  -25.8915  -11.6508   20.5511 N   0  0  0  0  0  0
  -22.0144  -12.8117   22.0591 N   0  0  0  0  0  0
  -25.3713  -15.1960   20.4335 N   0  0  0  0  0  0
  -30.9154  -15.8875   20.5408 O   0  0  0  0  0  0
  -21.6600   -6.8798   21.4233 O   0  0  0  0  0  0
  -22.3157  -14.5462   20.6879 O   0  0  0  0  0  0
  -24.8032  -31.8606   23.2960 C   0  0  0  0  0  0
  -26.0298  -32.5240   23.9164 C   0  0  1  0  0  0
  -26.0055  -27.3441   20.2089 C   0  0  0  0  0  0
  -25.6541  -33.8926   24.2772 N   0  0  0  0  0  0
  -23.9763  -30.0353   21.8611 C   0  0  2  0  0  0
  -25.1339  -29.6403   19.6830 C   0  0  0  0  0  0
  -23.9260  -28.4100   22.5263 C   0  0  0  0  0  0
  -18.1663  -27.8448   22.7920 C   0  0  0  0  0  0
  -24.1480  -36.7392   23.2550 C   0  0  0  0  0  0
  -26.2736  -30.7787   21.5862 C   0  0  0  0  0  0
  -26.1893  -29.6398   20.5928 C   0  0  0  0  0  0
  -26.7719  -28.3942   20.8034 C   0  0  0  0  0  0
  -25.9408  -27.4798   18.8616 C   0  0  0  0  0  0
  -25.1281  -28.6227   18.6611 C   0  0  0  0  0  0
  -23.9659  -30.4039   20.2769 C   0  0  0  0  0  0
  -25.4063  -36.3235   24.0329 C   0  0  1  0  0  0
  -20.9056  -27.1488   22.8194 C   0  0  2  0  0  0
  -20.4822  -26.0627   21.9638 C   0  0  0  0  0  0
  -19.3041  -26.4210   21.1174 C   0  0  0  0  0  0
  -18.0689  -26.5972   21.9873 C   0  0  0  0  0  0
  -19.4888  -28.2809   23.1546 C   0  0  0  0  0  0
  -19.3218  -29.6647   23.6766 C   0  0  0  0  0  0
  -18.0838  -30.3670   23.9181 C   0  0  0  0  0  0
  -25.9129  -34.9636   23.5192 C   0  0  0  0  0  0
  -16.8535  -29.7801   23.6043 C   0  0  0  0  0  0
  -16.9216  -28.5151   23.0188 C   0  0  0  0  0  0
  -26.5133  -31.7007   25.1638 C   0  0  0  0  0  0
  -25.4019  -31.3873   26.1945 C   0  0  0  0  0  0
  -27.1546  -30.3550   24.7520 C   0  0  0  0  0  0
  -27.6231  -32.4962   25.8725 C   0  0  0  0  0  0
  -27.5551  -37.1936   24.8479 C   0  0  0  0  0  0
  -22.7492  -27.2614   22.4644 N   0  0  0  0  0  0
  -26.4233  -37.3927   23.9463 N   0  0  0  0  0  0
  -25.0255  -30.8946   22.3609 N   0  0  0  0  0  0
  -24.7448  -28.3007   23.3816 O   0  0  0  0  0  0
  -24.5501  -27.1942   20.4326 O   0  0  0  0  0  0
  -26.5501  -34.8997   22.4639 O   0  0  0  0  0  0
  -23.6826  -32.1753   23.7473 O   0  0  0  0  0  0
  -26.5190  -19.5774   23.8866 C   0  0  0  0  0  0
  -25.7566  -20.4098   24.7849 C   0  0  0  0  0  0
  -26.3605  -21.5067   22.4871 C   0  0  0  0  0  0
  -26.9804  -19.9510   22.5966 C   0  0  0  0  0  0
  -25.4625  -22.5533   23.4425 C   0  0  0  0  0  0
  -25.2726  -21.7574   24.6097 C   0  0  0  0  0  0
  -22.9401  -27.0322   24.9342 C   0  0  0  0  0  0
  -28.1319  -18.6343   21.6583 C   0  0  0  0  0  0
  -24.6503  -24.3638   23.4689 C   0  0  0  0  0  0
  -22.0856  -28.7666   24.1174 C   0  0  0  0  0  0
  -21.6739  -29.1836   21.7862 C   0  0  0  0  0  0
  -22.8561  -28.0939   20.2604 C   0  0  0  0  0  0
  -23.7266  -25.6339   24.5147 N   0  0  0  0  0  0
  -28.6499  -16.8341   21.4381 N   0  0  0  0  0  0
  -22.7604  -27.0460   26.1492 O   0  0  0  0  0  0
  -24.4003  -22.4521   25.9282 Cl  0  0  0  0  0  0
  -31.2828  -13.6912   19.4867 H   0  0  0  0  0  0
  -30.6089  -12.3834   20.3843 H   0  0  0  0  0  0
  -30.1161  -12.0088   17.9582 H   0  0  0  0  0  0
  -29.5292  -13.6440   17.8020 H   0  0  0  0  0  0
  -28.1607  -11.3216   19.1738 H   0  0  0  0  0  0
  -27.5208  -12.3419   17.8948 H   0  0  0  0  0  0
  -27.4562  -14.2475   19.3720 H   0  0  0  0  0  0
  -28.7230  -12.4972   21.5411 H   0  0  0  0  0  0
  -27.8849  -13.9896   21.8937 H   0  0  0  0  0  0
  -25.2646   -9.5712   22.4731 H   0  0  0  0  0  0
  -23.9967   -7.4577   22.7429 H   0  0  0  0  0  0
  -21.0736   -8.8589   19.8921 H   0  0  0  0  0  0
  -22.3474  -10.9559   19.6110 H   0  0  0  0  0  0
  -21.1978   -7.6108   23.9712 H   0  0  0  0  0  0
  -21.1488   -6.0498   25.9092 H   0  0  0  0  0  0
  -22.0601   -2.7562   23.2882 H   0  0  0  0  0  0
  -22.3775  -11.9760   22.4954 H   0  0  0  0  0  0
  -21.0748  -13.1100   22.2825 H   0  0  0  0  0  0
  -24.6037  -15.8513   20.5385 H   0  0  0  0  0  0
  -26.2082  -15.6280   20.0659 H   0  0  0  0  0  0
  -26.8651  -32.5786   23.2192 H   0  0  0  0  0  0
  -25.0748  -34.0036   25.0978 H   0  0  0  0  0  0
  -23.2059  -30.6120   22.3023 H   0  0  0  0  0  0
  -23.3698  -35.9769   23.3198 H   0  0  0  0  0  0
  -24.3602  -36.9013   22.1968 H   0  0  0  0  0  0
  -23.7254  -37.6606   23.6545 H   0  0  0  0  0  0
  -26.4336  -31.7104   21.0395 H   0  0  0  0  0  0
  -27.1608  -30.6253   22.1907 H   0  0  0  0  0  0
  -27.4230  -28.2061   21.6444 H   0  0  0  0  0  0
  -25.7069  -26.6375   18.2262 H   0  0  0  0  0  0
  -24.4031  -28.6213   17.8593 H   0  0  0  0  0  0
  -24.2025  -31.4611   20.1481 H   0  0  0  0  0  0
  -23.0091  -30.4058   19.7574 H   0  0  0  0  0  0
  -25.1197  -36.2093   25.0813 H   0  0  0  0  0  0
  -20.8227  -26.6203   23.7683 H   0  0  0  0  0  0
  -20.2120  -25.1789   22.5495 H   0  0  0  0  0  0
  -21.2857  -25.7076   21.3238 H   0  0  0  0  0  0
  -19.1129  -25.5982   20.4278 H   0  0  0  0  0  0
  -19.5013  -27.2856   20.4815 H   0  0  0  0  0  0
  -17.2057  -26.6567   21.3232 H   0  0  0  0  0  0
  -17.9039  -25.7431   22.6440 H   0  0  0  0  0  0
  -20.1739  -30.2884   23.8843 H   0  0  0  0  0  0
  -18.1120  -31.3687   24.3234 H   0  0  0  0  0  0
  -15.9116  -30.2898   23.7600 H   0  0  0  0  0  0
  -16.0007  -28.0484   22.6963 H   0  0  0  0  0  0
  -24.6725  -30.6698   25.8160 H   0  0  0  0  0  0
  -24.8617  -32.2855   26.4958 H   0  0  0  0  0  0
  -25.8202  -30.9479   27.1013 H   0  0  0  0  0  0
  -26.4736  -29.6988   24.2267 H   0  0  0  0  0  0
  -27.4802  -29.7989   25.6312 H   0  0  0  0  0  0
  -28.0463  -30.4961   24.1395 H   0  0  0  0  0  0
  -27.2392  -33.4112   26.3226 H   0  0  0  0  0  0
  -28.4153  -32.7849   25.1824 H   0  0  0  0  0  0
  -28.0811  -31.9251   26.6802 H   0  0  0  0  0  0
  -28.2526  -38.0268   24.7501 H   0  0  0  0  0  0
  -28.1065  -36.2788   24.6275 H   0  0  0  0  0  0
  -27.2301  -37.1575   25.8892 H   0  0  0  0  0  0
  -23.1695  -26.3850   22.7417 H   0  0  0  0  0  0
  -26.0053  -38.2950   24.1574 H   0  0  0  0  0  0
  -26.7795  -18.5884   24.2413 H   0  0  0  0  0  0
  -25.5201  -19.9600   25.7387 H   0  0  0  0  0  0
  -26.6147  -21.9633   21.5393 H   0  0  0  0  0  0
  -29.1119  -19.0669   21.8503 H   0  0  0  0  0  0
  -27.9348  -18.9054   20.6228 H   0  0  0  0  0  0
  -24.0509  -24.3450   22.5599 H   0  0  0  0  0  0
  -25.5117  -24.9615   23.1772 H   0  0  0  0  0  0
  -22.7197  -29.5777   24.4860 H   0  0  0  0  0  0
  -21.2613  -28.8790   24.8091 H   0  0  0  0  0  0
  -21.4918  -30.2394   21.5794 H   0  0  0  0  0  0
  -20.6979  -28.9962   21.3558 H   0  0  0  0  0  0
  -22.6826  -28.4794   19.2580 H   0  0  0  0  0  0
  -22.2379  -27.2168   20.0742 H   0  0  0  0  0  0
  -23.7843  -25.1911   25.4212 H   0  0  0  0  0  0
  -27.8373  -16.2925   21.7015 H   0  0  0  0  0  0
  1 25  1  0  0  0
  1 30  2  0  0  0
  1 84  1  0  0  0
  2  3  1  0  0  0
  2 25  1  0  0  0
  2 87  1  0  0  0
  2 88  1  0  0  0
  3  4  1  0  0  0
  3 89  1  0  0  0
  3 90  1  0  0  0
  4  5  1  0  0  0
  4 91  1  0  0  0
  4 92  1  0  0  0
  5  6  1  0  0  0
  5 26  1  0  0  0
  5 93  1  0  0  0
  6 25  1  0  0  0
  6 94  1  0  0  0
  6 95  1  0  0  0
  7  8  2  0  0  0
  7 26  1  0  0  0
  7 29  1  0  0  0
  8  9  1  0  0  0
  8 22  1  0  0  0
  9 10  1  0  0  0
  9 27  2  0  0  0
 10 11  2  0  0  0
 10 15  1  0  0  0
 11 12  1  0  0  0
 11 96  1  0  0  0
 12 13  2  0  0  0
 12 97  1  0  0  0
 13 14  1  0  0  0
 13 31  1  0  0  0
 14 15  2  0  0  0
 14 98  1  0  0  0
 15 99  1  0  0  0
 16 17  2  0  0  0
 16 21  1  0  0  0
 16 31  1  0  0  0
 17 18  1  0  0  0
 17100  1  0  0  0
 18 19  2  0  0  0
 18101  1  0  0  0
 19 20  1  0  0  0
 19 24  1  0  0  0
 20 21  2  0  0  0
 20102  1  0  0  0
 21 23  1  0  0  0
 22 28  1  0  0  0
 22 32  2  0  0  0
 26 27  1  0  0  0
 28103  1  0  0  0
 28104  1  0  0  0
 29105  1  0  0  0
 29106  1  0  0  0
 33 34  1  0  0  0
 33 66  1  0  0  0
 33 70  2  0  0  0
 34 36  1  0  0  0
 34 59  1  0  0  0
 34107  1  0  0  0
 35 44  2  0  0  0
 35 45  1  0  0  0
 35 68  1  0  0  0
 36 56  1  0  0  0
 36108  1  0  0  0
 37 39  1  0  0  0
 37 47  1  0  0  0
 37 66  1  0  0  0
 37109  1  0  0  0
 38 43  2  0  0  0
 38 46  1  0  0  0
 38 47  1  0  0  0
 39 64  1  0  0  0
 39 67  2  0  0  0
 40 52  1  0  0  0
 40 53  2  0  0  0
 40 58  1  0  0  0
 41110  1  0  0  0
 41111  1  0  0  0
 41112  1  0  0  0
 41 48  1  0  0  0
 42 43  1  0  0  0
 42 66  1  0  0  0
 42113  1  0  0  0
 42114  1  0  0  0
 43 44  1  0  0  0
 44115  1  0  0  0
 45 46  2  0  0  0
 45116  1  0  0  0
 46117  1  0  0  0
 47118  1  0  0  0
 47119  1  0  0  0
 48 56  1  0  0  0
 48 65  1  0  0  0
 48120  1  0  0  0
 49 50  1  0  0  0
 49 53  1  0  0  0
 49 64  1  0  0  0
 49121  1  0  0  0
 50 51  1  0  0  0
 50122  1  0  0  0
 50123  1  0  0  0
 51 52  1  0  0  0
 51124  1  0  0  0
 51125  1  0  0  0
 52126  1  0  0  0
 52127  1  0  0  0
 53 54  1  0  0  0
 54 55  2  0  0  0
 54128  1  0  0  0
 55 57  1  0  0  0
 55129  1  0  0  0
 56 69  2  0  0  0
 57 58  2  0  0  0
 57130  1  0  0  0
 58131  1  0  0  0
 59 60  1  0  0  0
 59 61  1  0  0  0
 59 62  1  0  0  0
 60132  1  0  0  0
 60133  1  0  0  0
 60134  1  0  0  0
 61135  1  0  0  0
 61136  1  0  0  0
 61137  1  0  0  0
 62138  1  0  0  0
 62139  1  0  0  0
 62140  1  0  0  0
 63 65  1  0  0  0
 63141  1  0  0  0
 63142  1  0  0  0
 63143  1  0  0  0
 64144  1  0  0  0
 65145  1  0  0  0
 68 82  1  0  0  0
 71 72  2  0  0  0
 71 74  1  0  0  0
 71146  1  0  0  0
 72 76  1  0  0  0
 72147  1  0  0  0
 73 74  2  0  0  0
 73 75  1  0  0  0
 73148  1  0  0  0
 74 78  1  0  0  0
 75 76  2  0  0  0
 75 79  1  0  0  0
 76 86  1  0  0  0
 77 80  1  0  0  0
 77 83  1  0  0  0
 77 85  2  0  0  0
 78 84  1  0  0  0
 78149  1  0  0  0
 78150  1  0  0  0
 79 83  1  0  0  0
 79151  1  0  0  0
 79152  1  0  0  0
 80 81  1  0  0  0
 80153  1  0  0  0
 80154  1  0  0  0
 81 82  1  0  0  0
 81155  1  0  0  0
 81156  1  0  0  0
 82157  1  0  0  0
 82158  1  0  0  0
 83159  1  0  0  0
 84160  1  0  0  0
M  ISO  4   1 100  68 101  82 101  84 100
M  END
> <chiral flag>
0

> <version>
0

> <s_m_source_file>
/data/baiqing/PycharmProjects/Reinvent-master-3.2/result/LINK_invent/BTK/process_docking_weight1_custom_product_contain_oxygen_bond_distance_aromatic_linkinvent_7_9_3/rearranged_h_0056.sdf

> <i_m_source_file_index>
9

> <r_mmod_Potential_Energy-OPLS-2005>
12669.18359375

> <r_mmod_Stretch_Energy-OPLS-2005>
4880.80078125

> <r_mmod_Bend_Energy-OPLS-2005>
1528.35803222656

> <r_mmod_Torsional_Energy-OPLS-2005>
568.860534667969

> <r_mmod_Improper_Torsional_Energy-OPLS-2005>
61.2278099060059

> <r_mmod_Van_der_Waal_Energy-OPLS-2005>
1724.41735839844

> <r_mmod_Electrostatic_Energy-OPLS-2005>
-474.092071533203

> <r_mmod_Solvation_Energy-OPLS-2005>
-222.690795898438

> <b_mmod_Minimization_Converged-OPLS-2005>
0

> <r_mmod_RMS_Derivative-OPLS-2005>
5.69777393341064

$$$$
9
                    3D
 Structure written by MMmdl.
155163  0  0  1  0            999 V2000
  -30.6722  -14.5423   20.5388 C   0  0  0  0  0  0
  -30.4350  -12.3400   19.4269 C   0  0  0  0  0  0
  -29.4869  -12.4507   18.2129 C   0  0  0  0  0  0
  -28.0220  -12.2781   18.6603 C   0  0  0  0  0  0
  -27.6518  -13.1956   19.8540 C   0  0  2  0  0  0
  -28.6980  -13.0349   20.9806 C   0  0  0  0  0  0
  -25.2583  -13.8115   20.5755 C   0  0  0  0  0  0
  -24.1825  -13.0429   20.9190 C   0  0  0  0  0  0
  -24.6346  -11.6870   20.8743 C   0  0  0  0  0  0
  -23.9031  -10.4253   21.0416 C   0  0  0  0  0  0
  -24.3590   -9.4164   21.9190 C   0  0  0  0  0  0
  -23.6265   -8.2207   22.0761 C   0  0  0  0  0  0
  -22.4250   -8.0242   21.3546 C   0  0  0  0  0  0
  -21.9888   -9.0214   20.4645 C   0  0  0  0  0  0
  -22.7225  -10.2085   20.3063 C   0  0  0  0  0  0
  -21.6831   -6.0703   22.5267 C   0  0  0  0  0  0
  -21.4003   -6.5618   23.8198 C   0  0  0  0  0  0
  -21.3651   -5.6786   24.9164 C   0  0  0  0  0  0
  -21.6046   -4.3044   24.7231 C   0  0  0  0  0  0
  -21.8830   -3.8126   23.4350 C   0  0  0  0  0  0
  -21.9179   -4.6929   22.3398 C   0  0  0  0  0  0
  -22.7838  -13.5202   21.1846 C   0  0  0  0  0  0
  -22.1649   -4.2109   21.0976 F   0  0  0  0  0  0
  -21.5629   -3.4540   25.7744 F   0  0  0  0  0  0
  -30.0184  -13.3527   20.4110 N   0  0  0  0  0  0
  -26.2975  -12.9280   20.3320 N   0  0  0  0  0  0
  -25.9272  -11.6449   20.5803 N   0  0  0  0  0  0
  -22.0481  -12.8178   22.0369 N   0  0  0  0  0  0
  -25.4387  -15.1858   20.4296 N   0  0  0  0  0  0
  -31.8402  -14.6987   20.1752 O   0  0  0  0  0  0
  -21.6613   -6.8838   21.4237 O   0  0  0  0  0  0
  -22.3519  -14.5513   20.6665 O   0  0  0  0  0  0
  -24.6233  -31.8693   23.2110 C   0  0  0  0  0  0
  -25.9115  -32.4828   23.8389 C   0  0  1  0  0  0
  -27.2061  -27.3887   20.1039 C   0  0  0  0  0  0
  -25.5987  -33.8626   24.2348 N   0  0  0  0  0  0
  -23.4126  -30.4989   21.5533 C   0  0  2  0  0  0
  -24.8461  -28.9766   20.1036 C   0  0  0  0  0  0
  -22.7464  -29.4678   22.4964 C   0  0  0  0  0  0
  -18.0320  -28.1356   22.8511 C   0  0  0  0  0  0
  -24.1491  -36.7299   23.2645 C   0  0  0  0  0  0
  -25.9398  -30.8331   21.3549 C   0  0  0  0  0  0
  -26.0126  -29.4611   20.7052 C   0  0  0  0  0  0
  -27.1974  -28.6756   20.7053 C   0  0  0  0  0  0
  -26.0213  -26.9466   19.4660 C   0  0  0  0  0  0
  -24.8493  -27.7218   19.4743 C   0  0  0  0  0  0
  -23.6152  -29.8543   20.1559 C   0  0  0  0  0  0
  -25.4109  -36.3124   24.0353 C   0  0  1  0  0  0
  -20.5944  -28.3678   23.1319 C   0  0  2  0  0  0
  -20.6827  -26.9408   22.5446 C   0  0  0  0  0  0
  -19.5768  -26.6403   21.5252 C   0  0  0  0  0  0
  -18.1935  -26.7940   22.1586 C   0  0  0  0  0  0
  -19.1582  -28.8804   23.2946 C   0  0  0  0  0  0
  -18.9494  -30.1428   23.8947 C   0  0  0  0  0  0
  -17.6487  -30.6577   24.0567 C   0  0  0  0  0  0
  -25.9052  -34.9480   23.5122 C   0  0  0  0  0  0
  -16.5379  -29.9065   23.6359 C   0  0  0  0  0  0
  -16.7308  -28.6485   23.0369 C   0  0  0  0  0  0
  -26.4536  -31.6577   25.0667 C   0  0  0  0  0  0
  -25.3812  -31.3670   26.1401 C   0  0  0  0  0  0
  -27.0344  -30.3049   24.5965 C   0  0  0  0  0  0
  -27.6172  -32.4266   25.7375 C   0  0  0  0  0  0
  -27.5601  -37.1806   24.8489 C   0  0  0  0  0  0
  -21.4195  -29.3038   22.3681 N   0  0  0  0  0  0
  -26.4314  -37.3792   23.9423 N   0  0  0  0  0  0
  -24.6784  -31.0805   22.0993 N   0  0  0  0  0  0
  -23.4210  -28.8258   23.3049 O   0  0  0  0  0  0
  -28.3311  -26.5698   20.1338 O   0  0  0  0  0  0
  -26.5578  -34.8921   22.4651 O   0  0  0  0  0  0
  -23.5423  -32.1420   23.7542 O   0  0  0  0  0  0
  -30.2216  -17.9633   18.9860 C   0  0  0  0  0  0
  -29.9099  -20.3642   18.6314 C   0  0  0  0  0  0
  -29.9096  -19.4582   20.8941 C   0  0  0  0  0  0
  -30.1265  -19.0705   18.1085 C   0  0  0  0  0  0
  -30.1206  -18.1355   20.3881 C   0  0  0  0  0  0
  -29.7966  -20.5827   20.0206 C   0  0  0  0  0  0
  -29.0716  -24.2262   20.2167 C   0  0  0  0  0  0
  -28.1293  -25.2004   20.3223 C   0  0  0  0  0  0
  -28.7027  -22.8007   20.3348 C   0  0  0  0  0  0
  -30.2877  -18.8852   16.6042 C   0  0  0  0  0  0
  -30.3484  -16.9420   21.3555 C   0  0  0  0  0  0
  -29.7496  -21.9493   20.4803 N   0  0  0  0  0  0
  -29.9109  -15.5864   20.9422 N   0  0  0  0  0  0
  -27.5371  -22.3911   20.3191 O   0  0  0  0  0  0
  -31.4707  -12.4700   19.1092 H   0  0  0  0  0  0
  -30.3751  -11.3463   19.8710 H   0  0  0  0  0  0
  -29.7334  -11.6807   17.4790 H   0  0  0  0  0  0
  -29.6124  -13.4124   17.7120 H   0  0  0  0  0  0
  -27.9137  -11.2381   18.9747 H   0  0  0  0  0  0
  -27.3302  -12.4124   17.8272 H   0  0  0  0  0  0
  -27.6768  -14.2247   19.4841 H   0  0  0  0  0  0
  -28.6930  -12.0098   21.3573 H   0  0  0  0  0  0
  -28.4537  -13.6669   21.8370 H   0  0  0  0  0  0
  -25.2736   -9.5599   22.4786 H   0  0  0  0  0  0
  -23.9916   -7.4599   22.7507 H   0  0  0  0  0  0
  -21.0814   -8.8762   19.8976 H   0  0  0  0  0  0
  -22.3701  -10.9632   19.6167 H   0  0  0  0  0  0
  -21.2017   -7.6130   23.9685 H   0  0  0  0  0  0
  -21.1464   -6.0519   25.9055 H   0  0  0  0  0  0
  -22.0624   -2.7588   23.2874 H   0  0  0  0  0  0
  -22.4092  -11.9779   22.4654 H   0  0  0  0  0  0
  -21.1124  -13.1222   22.2674 H   0  0  0  0  0  0
  -24.6977  -15.8542   20.6054 H   0  0  0  0  0  0
  -26.3102  -15.6247   20.1627 H   0  0  0  0  0  0
  -26.7148  -32.5505   23.1134 H   0  0  0  0  0  0
  -25.0370  -33.9846   25.0642 H   0  0  0  0  0  0
  -22.7039  -31.3197   21.4250 H   0  0  0  0  0  0
  -23.3779  -35.9604   23.3329 H   0  0  0  0  0  0
  -24.3589  -36.8837   22.2065 H   0  0  0  0  0  0
  -23.7194  -37.6528   23.6542 H   0  0  0  0  0  0
  -26.0367  -31.6008   20.5837 H   0  0  0  0  0  0
  -26.8315  -30.8939   21.9645 H   0  0  0  0  0  0
  -28.0922  -29.0450   21.1849 H   0  0  0  0  0  0
  -25.9914  -25.9889   18.9611 H   0  0  0  0  0  0
  -23.9580  -27.3547   18.9832 H   0  0  0  0  0  0
  -23.7217  -30.6373   19.3991 H   0  0  0  0  0  0
  -22.7286  -29.2891   19.8722 H   0  0  0  0  0  0
  -25.1284  -36.2045   25.0850 H   0  0  0  0  0  0
  -21.0102  -28.3255   24.1409 H   0  0  0  0  0  0
  -20.5839  -26.2276   23.3671 H   0  0  0  0  0  0
  -21.6689  -26.7460   22.1178 H   0  0  0  0  0  0
  -19.6970  -25.6344   21.1232 H   0  0  0  0  0  0
  -19.6721  -27.3276   20.6829 H   0  0  0  0  0  0
  -17.4306  -26.6860   21.3891 H   0  0  0  0  0  0
  -18.0123  -26.0034   22.8856 H   0  0  0  0  0  0
  -19.7964  -30.7218   24.2367 H   0  0  0  0  0  0
  -17.5024  -31.6269   24.5104 H   0  0  0  0  0  0
  -15.5370  -30.2916   23.7674 H   0  0  0  0  0  0
  -15.8729  -28.0790   22.7049 H   0  0  0  0  0  0
  -24.6356  -30.6530   25.7900 H   0  0  0  0  0  0
  -24.8550  -32.2739   26.4447 H   0  0  0  0  0  0
  -25.8282  -30.9404   27.0388 H   0  0  0  0  0  0
  -26.2843  -29.6730   24.1205 H   0  0  0  0  0  0
  -27.4403  -29.7343   25.4323 H   0  0  0  0  0  0
  -27.8502  -30.4429   23.8845 H   0  0  0  0  0  0
  -27.2956  -33.3670   26.1843 H   0  0  0  0  0  0
  -28.4013  -32.6596   25.0165 H   0  0  0  0  0  0
  -28.0717  -31.8372   26.5372 H   0  0  0  0  0  0
  -28.2691  -38.0053   24.7527 H   0  0  0  0  0  0
  -28.1002  -36.2586   24.6271 H   0  0  0  0  0  0
  -27.2320  -37.1480   25.8901 H   0  0  0  0  0  0
  -20.9386  -29.8719   21.6861 H   0  0  0  0  0  0
  -26.0228  -38.2862   24.1443 H   0  0  0  0  0  0
  -30.4186  -16.9830   18.5711 H   0  0  0  0  0  0
  -29.8760  -21.2096   17.9591 H   0  0  0  0  0  0
  -29.8774  -19.6161   21.9678 H   0  0  0  0  0  0
  -30.0947  -24.4992   19.9997 H   0  0  0  0  0  0
  -27.1024  -24.9597   20.5617 H   0  0  0  0  0  0
  -30.9333  -18.0337   16.3801 H   0  0  0  0  0  0
  -30.7350  -19.7600   16.1268 H   0  0  0  0  0  0
  -29.3246  -18.7185   16.1191 H   0  0  0  0  0  0
  -29.8337  -17.1450   22.2954 H   0  0  0  0  0  0
  -31.4066  -16.9153   21.6201 H   0  0  0  0  0  0
  -30.6464  -22.3867   20.6378 H   0  0  0  0  0  0
  -28.9385  -15.3709   21.1107 H   0  0  0  0  0  0
  1 25  1  0  0  0
  1 30  2  0  0  0
  1 83  1  0  0  0
  2  3  1  0  0  0
  2 25  1  0  0  0
  2 85  1  0  0  0
  2 86  1  0  0  0
  3  4  1  0  0  0
  3 87  1  0  0  0
  3 88  1  0  0  0
  4  5  1  0  0  0
  4 89  1  0  0  0
  4 90  1  0  0  0
  5  6  1  0  0  0
  5 26  1  0  0  0
  5 91  1  0  0  0
  6 25  1  0  0  0
  6 92  1  0  0  0
  6 93  1  0  0  0
  7  8  2  0  0  0
  7 26  1  0  0  0
  7 29  1  0  0  0
  8  9  1  0  0  0
  8 22  1  0  0  0
  9 10  1  0  0  0
  9 27  2  0  0  0
 10 11  2  0  0  0
 10 15  1  0  0  0
 11 12  1  0  0  0
 11 94  1  0  0  0
 12 13  2  0  0  0
 12 95  1  0  0  0
 13 14  1  0  0  0
 13 31  1  0  0  0
 14 15  2  0  0  0
 14 96  1  0  0  0
 15 97  1  0  0  0
 16 17  2  0  0  0
 16 21  1  0  0  0
 16 31  1  0  0  0
 17 18  1  0  0  0
 17 98  1  0  0  0
 18 19  2  0  0  0
 18 99  1  0  0  0
 19 20  1  0  0  0
 19 24  1  0  0  0
 20 21  2  0  0  0
 20100  1  0  0  0
 21 23  1  0  0  0
 22 28  1  0  0  0
 22 32  2  0  0  0
 26 27  1  0  0  0
 28101  1  0  0  0
 28102  1  0  0  0
 29103  1  0  0  0
 29104  1  0  0  0
 33 34  1  0  0  0
 33 66  1  0  0  0
 33 70  2  0  0  0
 34 36  1  0  0  0
 34 59  1  0  0  0
 34105  1  0  0  0
 35 44  2  0  0  0
 35 45  1  0  0  0
 35 68  1  0  0  0
 36 56  1  0  0  0
 36106  1  0  0  0
 37 39  1  0  0  0
 37 47  1  0  0  0
 37 66  1  0  0  0
 37107  1  0  0  0
 38 43  2  0  0  0
 38 46  1  0  0  0
 38 47  1  0  0  0
 39 64  1  0  0  0
 39 67  2  0  0  0
 40 52  1  0  0  0
 40 53  2  0  0  0
 40 58  1  0  0  0
 41108  1  0  0  0
 41109  1  0  0  0
 41110  1  0  0  0
 41 48  1  0  0  0
 42 43  1  0  0  0
 42 66  1  0  0  0
 42111  1  0  0  0
 42112  1  0  0  0
 43 44  1  0  0  0
 44113  1  0  0  0
 45 46  2  0  0  0
 45114  1  0  0  0
 46115  1  0  0  0
 47116  1  0  0  0
 47117  1  0  0  0
 48 56  1  0  0  0
 48 65  1  0  0  0
 48118  1  0  0  0
 49 50  1  0  0  0
 49 53  1  0  0  0
 49 64  1  0  0  0
 49119  1  0  0  0
 50 51  1  0  0  0
 50120  1  0  0  0
 50121  1  0  0  0
 51 52  1  0  0  0
 51122  1  0  0  0
 51123  1  0  0  0
 52124  1  0  0  0
 52125  1  0  0  0
 53 54  1  0  0  0
 54 55  2  0  0  0
 54126  1  0  0  0
 55 57  1  0  0  0
 55127  1  0  0  0
 56 69  2  0  0  0
 57 58  2  0  0  0
 57128  1  0  0  0
 58129  1  0  0  0
 59 60  1  0  0  0
 59 61  1  0  0  0
 59 62  1  0  0  0
 60130  1  0  0  0
 60131  1  0  0  0
 60132  1  0  0  0
 61133  1  0  0  0
 61134  1  0  0  0
 61135  1  0  0  0
 62136  1  0  0  0
 62137  1  0  0  0
 62138  1  0  0  0
 63 65  1  0  0  0
 63139  1  0  0  0
 63140  1  0  0  0
 63141  1  0  0  0
 64142  1  0  0  0
 65143  1  0  0  0
 68 78  1  0  0  0
 71 74  2  0  0  0
 71 75  1  0  0  0
 71144  1  0  0  0
 72 74  1  0  0  0
 72 76  2  0  0  0
 72145  1  0  0  0
 73 75  2  0  0  0
 73 76  1  0  0  0
 73146  1  0  0  0
 74 80  1  0  0  0
 75 81  1  0  0  0
 76 82  1  0  0  0
 77 78  2  0  0  0
 77 79  1  0  0  0
 77147  1  0  0  0
 78148  1  0  0  0
 79 82  1  0  0  0
 79 84  2  0  0  0
 80149  1  0  0  0
 80150  1  0  0  0
 80151  1  0  0  0
 81 83  1  0  0  0
 81152  1  0  0  0
 81153  1  0  0  0
 82154  1  0  0  0
 83155  1  0  0  0
M  ISO  4   1 100  68 101  78 101  83 100
M  END
> <chiral flag>
0

> <version>
0

> <s_m_source_file>
/data/baiqing/PycharmProjects/Reinvent-master-3.2/result/LINK_invent/BTK/process_docking_weight1_custom_product_contain_oxygen_bond_distance_aromatic_linkinvent_7_9_3/rearranged_h_0056.sdf

> <i_m_source_file_index>
10

> <r_mmod_Potential_Energy-OPLS-2005>
-95.5511093139648

> <r_mmod_Stretch_Energy-OPLS-2005>
51.1836700439453

> <r_mmod_Bend_Energy-OPLS-2005>
101.170463562012

> <r_mmod_Torsional_Energy-OPLS-2005>
242.983123779297

> <r_mmod_Improper_Torsional_Energy-OPLS-2005>
5.65902137756348

> <r_mmod_Van_der_Waal_Energy-OPLS-2005>
150.725479125977

> <r_mmod_Electrostatic_Energy-OPLS-2005>
-446.494781494141

> <r_mmod_Solvation_Energy-OPLS-2005>
-229.944412231445

> <b_mmod_Minimization_Converged-OPLS-2005>
0

> <r_mmod_RMS_Derivative-OPLS-2005>
6.54424142837524

$$$$
10
                    3D
 Structure written by MMmdl.
163171  0  0  1  0            999 V2000
  -30.6918  -14.4085   20.5790 C   0  0  0  0  0  0
  -30.4244  -12.2698   19.4095 C   0  0  0  0  0  0
  -29.4966  -12.5239   18.2017 C   0  0  0  0  0  0
  -28.0148  -12.3861   18.6075 C   0  0  0  0  0  0
  -27.6686  -13.1986   19.8840 C   0  0  2  0  0  0
  -28.7050  -12.9255   20.9982 C   0  0  0  0  0  0
  -25.2651  -13.8151   20.5683 C   0  0  0  0  0  0
  -24.1869  -13.0451   20.9147 C   0  0  0  0  0  0
  -24.6395  -11.6909   20.8706 C   0  0  0  0  0  0
  -23.9060  -10.4298   21.0394 C   0  0  0  0  0  0
  -24.3619   -9.4213   21.9171 C   0  0  0  0  0  0
  -23.6294   -8.2246   22.0742 C   0  0  0  0  0  0
  -22.4272   -8.0288   21.3537 C   0  0  0  0  0  0
  -21.9915   -9.0255   20.4629 C   0  0  0  0  0  0
  -22.7243  -10.2134   20.3034 C   0  0  0  0  0  0
  -21.6854   -6.0740   22.5282 C   0  0  0  0  0  0
  -21.4008   -6.5640   23.8218 C   0  0  0  0  0  0
  -21.3653   -5.6792   24.9176 C   0  0  0  0  0  0
  -21.6045   -4.3055   24.7227 C   0  0  0  0  0  0
  -21.8818   -3.8145   23.4347 C   0  0  0  0  0  0
  -21.9196   -4.6964   22.3406 C   0  0  0  0  0  0
  -22.7897  -13.5263   21.1821 C   0  0  0  0  0  0
  -22.1667   -4.2147   21.0983 F   0  0  0  0  0  0
  -21.5631   -3.4536   25.7732 F   0  0  0  0  0  0
  -30.0457  -13.2219   20.4618 N   0  0  0  0  0  0
  -26.3066  -12.9291   20.3386 N   0  0  0  0  0  0
  -25.9319  -11.6457   20.5741 N   0  0  0  0  0  0
  -22.0518  -12.8260   22.0367 N   0  0  0  0  0  0
  -25.4454  -15.1863   20.4136 N   0  0  0  0  0  0
  -31.8119  -14.6226   20.1049 O   0  0  0  0  0  0
  -21.6645   -6.8880   21.4241 O   0  0  0  0  0  0
  -22.3594  -14.5572   20.6679 O   0  0  0  0  0  0
  -24.6108  -31.8720   23.2147 C   0  0  0  0  0  0
  -25.9027  -32.4840   23.8429 C   0  0  1  0  0  0
  -27.2430  -27.4700   20.1030 C   0  0  0  0  0  0
  -25.5912  -33.8643   24.2367 N   0  0  0  0  0  0
  -23.3939  -30.4951   21.5542 C   0  0  2  0  0  0
  -24.8395  -28.9579   20.1206 C   0  0  0  0  0  0
  -22.7370  -29.4674   22.5031 C   0  0  0  0  0  0
  -18.0260  -28.1358   22.8501 C   0  0  0  0  0  0
  -24.1463  -36.7315   23.2636 C   0  0  0  0  0  0
  -25.9158  -30.8472   21.3593 C   0  0  0  0  0  0
  -25.9926  -29.4811   20.7167 C   0  0  0  0  0  0
  -27.1943  -28.7474   20.7091 C   0  0  0  0  0  0
  -26.0788  -26.9614   19.4944 C   0  0  0  0  0  0
  -24.8748  -27.6941   19.5065 C   0  0  0  0  0  0
  -23.5997  -29.8204   20.1699 C   0  0  0  0  0  0
  -25.4092  -36.3141   24.0358 C   0  0  1  0  0  0
  -20.5850  -28.3629   23.1335 C   0  0  2  0  0  0
  -20.6742  -26.9378   22.5407 C   0  0  0  0  0  0
  -19.5719  -26.6368   21.5201 C   0  0  0  0  0  0
  -18.1908  -26.7911   22.1616 C   0  0  0  0  0  0
  -19.1513  -28.8815   23.2909 C   0  0  0  0  0  0
  -18.9432  -30.1430   23.8902 C   0  0  0  0  0  0
  -17.6434  -30.6563   24.0550 C   0  0  0  0  0  0
  -25.9037  -34.9500   23.5167 C   0  0  0  0  0  0
  -16.5319  -29.9055   23.6326 C   0  0  0  0  0  0
  -16.7251  -28.6470   23.0352 C   0  0  0  0  0  0
  -26.4485  -31.6592   25.0730 C   0  0  0  0  0  0
  -25.3769  -31.3643   26.1480 C   0  0  0  0  0  0
  -27.0287  -30.3037   24.6066 C   0  0  0  0  0  0
  -27.6102  -32.4262   25.7491 C   0  0  0  0  0  0
  -27.5591  -37.1799   24.8476 C   0  0  0  0  0  0
  -21.4105  -29.3016   22.3755 N   0  0  0  0  0  0
  -26.4278  -37.3833   23.9462 N   0  0  0  0  0  0
  -24.6589  -31.0849   22.1025 N   0  0  0  0  0  0
  -23.4169  -28.8233   23.3065 O   0  0  0  0  0  0
  -28.3796  -26.6965   20.0194 O   0  0  0  0  0  0
  -26.5584  -34.8952   22.4712 O   0  0  0  0  0  0
  -23.5305  -32.1449   23.7569 O   0  0  0  0  0  0
  -30.2423  -18.5092   19.1085 C   0  0  0  0  0  0
  -29.7328  -19.4579   20.0061 C   0  0  0  0  0  0
  -30.3211  -17.1628   19.4881 C   0  0  0  0  0  0
  -29.2637  -19.0708   21.2817 C   0  0  0  0  0  0
  -29.3229  -17.7014   21.6605 C   0  0  0  0  0  0
  -29.8885  -16.7462   20.7709 C   0  0  0  0  0  0
  -28.8019  -20.1154   22.2196 C   0  0  0  0  0  0
  -29.3108  -21.3622   22.2351 C   0  0  0  0  0  0
  -28.8492  -22.4233   23.1434 C   0  0  0  0  0  0
  -29.0551  -25.6592   22.1277 C   0  0  0  0  0  0
  -28.7957  -17.2801   23.0289 C   0  0  0  0  0  0
  -30.8950  -24.2815   21.2144 C   0  0  0  0  0  0
  -29.7764  -23.6300   23.3513 C   0  0  0  0  0  0
  -29.3477  -26.7511   21.0709 C   0  0  0  0  0  0
  -29.9603  -15.3762   21.1555 N   0  0  0  0  0  0
  -29.8329  -24.5472   22.1927 N   0  0  0  0  0  0
  -27.7904  -22.3532   23.7744 O   0  0  0  0  0  0
  -28.1319  -25.8535   22.9250 O   0  0  0  0  0  0
  -31.4698  -12.3723   19.1102 H   0  0  0  0  0  0
  -30.3174  -11.2442   19.7693 H   0  0  0  0  0  0
  -29.7299  -11.8321   17.3919 H   0  0  0  0  0  0
  -29.6733  -13.5283   17.8095 H   0  0  0  0  0  0
  -27.8106  -11.3274   18.7735 H   0  0  0  0  0  0
  -27.3711  -12.6946   17.7831 H   0  0  0  0  0  0
  -27.7306  -14.2544   19.6177 H   0  0  0  0  0  0
  -28.6631  -11.8782   21.3043 H   0  0  0  0  0  0
  -28.4681  -13.4949   21.8984 H   0  0  0  0  0  0
  -25.2761   -9.5703   22.4758 H   0  0  0  0  0  0
  -24.0002   -7.4643   22.7471 H   0  0  0  0  0  0
  -21.0843   -8.8769   19.8951 H   0  0  0  0  0  0
  -22.3693  -10.9665   19.6144 H   0  0  0  0  0  0
  -21.1980   -7.6142   23.9717 H   0  0  0  0  0  0
  -21.1480   -6.0514   25.9076 H   0  0  0  0  0  0
  -22.0600   -2.7606   23.2838 H   0  0  0  0  0  0
  -22.4113  -11.9907   22.4740 H   0  0  0  0  0  0
  -21.1146  -13.1318   22.2580 H   0  0  0  0  0  0
  -24.6875  -15.8525   20.5119 H   0  0  0  0  0  0
  -26.3182  -15.6198   20.1374 H   0  0  0  0  0  0
  -26.7097  -32.5558   23.1199 H   0  0  0  0  0  0
  -25.0119  -33.9819   25.0551 H   0  0  0  0  0  0
  -22.6802  -31.3105   21.4153 H   0  0  0  0  0  0
  -23.3771  -35.9592   23.3259 H   0  0  0  0  0  0
  -24.3566  -36.8967   22.2055 H   0  0  0  0  0  0
  -23.7133  -37.6484   23.6657 H   0  0  0  0  0  0
  -26.0173  -31.6078   20.5840 H   0  0  0  0  0  0
  -26.8074  -30.9093   21.9700 H   0  0  0  0  0  0
  -28.0697  -29.2017   21.1461 H   0  0  0  0  0  0
  -26.1071  -25.9952   19.0088 H   0  0  0  0  0  0
  -23.9922  -27.2868   19.0334 H   0  0  0  0  0  0
  -23.7027  -30.5930   19.4070 H   0  0  0  0  0  0
  -22.7257  -29.2371   19.8770 H   0  0  0  0  0  0
  -25.1247  -36.2020   25.0845 H   0  0  0  0  0  0
  -20.9934  -28.3159   24.1468 H   0  0  0  0  0  0
  -20.5617  -26.2243   23.3591 H   0  0  0  0  0  0
  -21.6599  -26.7418   22.1201 H   0  0  0  0  0  0
  -19.6869  -25.6279   21.1236 H   0  0  0  0  0  0
  -19.6655  -27.3165   20.6723 H   0  0  0  0  0  0
  -17.4184  -26.6687   21.4017 H   0  0  0  0  0  0
  -18.0288  -26.0016   22.8967 H   0  0  0  0  0  0
  -19.7917  -30.7243   24.2255 H   0  0  0  0  0  0
  -17.4993  -31.6268   24.5104 H   0  0  0  0  0  0
  -15.5317  -30.2953   23.7636 H   0  0  0  0  0  0
  -15.8657  -28.0777   22.7058 H   0  0  0  0  0  0
  -24.5963  -30.6991   25.7793 H   0  0  0  0  0  0
  -24.8925  -32.2745   26.5018 H   0  0  0  0  0  0
  -25.8133  -30.8751   27.0194 H   0  0  0  0  0  0
  -26.2776  -29.6799   24.1204 H   0  0  0  0  0  0
  -27.4137  -29.7294   25.4506 H   0  0  0  0  0  0
  -27.8598  -30.4371   23.9136 H   0  0  0  0  0  0
  -27.2833  -33.3620   26.2040 H   0  0  0  0  0  0
  -28.3956  -32.6699   25.0325 H   0  0  0  0  0  0
  -28.0714  -31.8360   26.5422 H   0  0  0  0  0  0
  -28.2596  -38.0120   24.7604 H   0  0  0  0  0  0
  -28.1098  -36.2659   24.6191 H   0  0  0  0  0  0
  -27.2332  -37.1311   25.8883 H   0  0  0  0  0  0
  -20.9253  -29.8758   21.7001 H   0  0  0  0  0  0
  -26.0179  -38.2919   24.1479 H   0  0  0  0  0  0
  -30.5762  -18.8166   18.1274 H   0  0  0  0  0  0
  -29.6922  -20.4907   19.6889 H   0  0  0  0  0  0
  -30.7163  -16.4606   18.7682 H   0  0  0  0  0  0
  -28.0067  -19.8501   22.9038 H   0  0  0  0  0  0
  -30.1125  -21.6058   21.5612 H   0  0  0  0  0  0
  -27.7105  -17.3827   23.0548 H   0  0  0  0  0  0
  -29.2147  -17.9100   23.8137 H   0  0  0  0  0  0
  -29.0316  -16.2523   23.2973 H   0  0  0  0  0  0
  -31.7076  -24.9980   21.3298 H   0  0  0  0  0  0
  -30.5133  -24.3519   20.1929 H   0  0  0  0  0  0
  -31.3405  -23.2965   21.3245 H   0  0  0  0  0  0
  -30.7738  -23.2525   23.5761 H   0  0  0  0  0  0
  -29.4704  -24.1585   24.2569 H   0  0  0  0  0  0
  -30.3254  -26.6406   20.6075 H   0  0  0  0  0  0
  -29.4152  -27.7093   21.5783 H   0  0  0  0  0  0
  -29.1984  -15.0464   21.7275 H   0  0  0  0  0  0
  1 25  1  0  0  0
  1 30  2  0  0  0
  1 85  1  0  0  0
  2  3  1  0  0  0
  2 25  1  0  0  0
  2 89  1  0  0  0
  2 90  1  0  0  0
  3  4  1  0  0  0
  3 91  1  0  0  0
  3 92  1  0  0  0
  4  5  1  0  0  0
  4 93  1  0  0  0
  4 94  1  0  0  0
  5  6  1  0  0  0
  5 26  1  0  0  0
  5 95  1  0  0  0
  6 25  1  0  0  0
  6 96  1  0  0  0
  6 97  1  0  0  0
  7  8  2  0  0  0
  7 26  1  0  0  0
  7 29  1  0  0  0
  8  9  1  0  0  0
  8 22  1  0  0  0
  9 10  1  0  0  0
  9 27  2  0  0  0
 10 11  2  0  0  0
 10 15  1  0  0  0
 11 12  1  0  0  0
 11 98  1  0  0  0
 12 13  2  0  0  0
 12 99  1  0  0  0
 13 14  1  0  0  0
 13 31  1  0  0  0
 14 15  2  0  0  0
 14100  1  0  0  0
 15101  1  0  0  0
 16 17  2  0  0  0
 16 21  1  0  0  0
 16 31  1  0  0  0
 17 18  1  0  0  0
 17102  1  0  0  0
 18 19  2  0  0  0
 18103  1  0  0  0
 19 20  1  0  0  0
 19 24  1  0  0  0
 20 21  2  0  0  0
 20104  1  0  0  0
 21 23  1  0  0  0
 22 28  1  0  0  0
 22 32  2  0  0  0
 26 27  1  0  0  0
 28105  1  0  0  0
 28106  1  0  0  0
 29107  1  0  0  0
 29108  1  0  0  0
 33 34  1  0  0  0
 33 66  1  0  0  0
 33 70  2  0  0  0
 34 36  1  0  0  0
 34 59  1  0  0  0
 34109  1  0  0  0
 35 44  2  0  0  0
 35 45  1  0  0  0
 35 68  1  0  0  0
 36 56  1  0  0  0
 36110  1  0  0  0
 37 39  1  0  0  0
 37 47  1  0  0  0
 37 66  1  0  0  0
 37111  1  0  0  0
 38 43  2  0  0  0
 38 46  1  0  0  0
 38 47  1  0  0  0
 39 64  1  0  0  0
 39 67  2  0  0  0
 40 52  1  0  0  0
 40 53  2  0  0  0
 40 58  1  0  0  0
 41112  1  0  0  0
 41113  1  0  0  0
 41114  1  0  0  0
 41 48  1  0  0  0
 42 43  1  0  0  0
 42 66  1  0  0  0
 42115  1  0  0  0
 42116  1  0  0  0
 43 44  1  0  0  0
 44117  1  0  0  0
 45 46  2  0  0  0
 45118  1  0  0  0
 46119  1  0  0  0
 47120  1  0  0  0
 47121  1  0  0  0
 48 56  1  0  0  0
 48 65  1  0  0  0
 48122  1  0  0  0
 49 50  1  0  0  0
 49 53  1  0  0  0
 49 64  1  0  0  0
 49123  1  0  0  0
 50 51  1  0  0  0
 50124  1  0  0  0
 50125  1  0  0  0
 51 52  1  0  0  0
 51126  1  0  0  0
 51127  1  0  0  0
 52128  1  0  0  0
 52129  1  0  0  0
 53 54  1  0  0  0
 54 55  2  0  0  0
 54130  1  0  0  0
 55 57  1  0  0  0
 55131  1  0  0  0
 56 69  2  0  0  0
 57 58  2  0  0  0
 57132  1  0  0  0
 58133  1  0  0  0
 59 60  1  0  0  0
 59 61  1  0  0  0
 59 62  1  0  0  0
 60134  1  0  0  0
 60135  1  0  0  0
 60136  1  0  0  0
 61137  1  0  0  0
 61138  1  0  0  0
 61139  1  0  0  0
 62140  1  0  0  0
 62141  1  0  0  0
 62142  1  0  0  0
 63 65  1  0  0  0
 63143  1  0  0  0
 63144  1  0  0  0
 63145  1  0  0  0
 64146  1  0  0  0
 65147  1  0  0  0
 68 84  1  0  0  0
 71 72  2  0  0  0
 71 73  1  0  0  0
 71148  1  0  0  0
 72 74  1  0  0  0
 72149  1  0  0  0
 73 76  2  0  0  0
 73150  1  0  0  0
 74 75  2  0  0  0
 74 77  1  0  0  0
 75 76  1  0  0  0
 75 81  1  0  0  0
 76 85  1  0  0  0
 77 78  2  0  0  0
 77151  1  0  0  0
 78 79  1  0  0  0
 78152  1  0  0  0
 79 83  1  0  0  0
 79 87  2  0  0  0
 80 84  1  0  0  0
 80 86  1  0  0  0
 80 88  2  0  0  0
 81153  1  0  0  0
 81154  1  0  0  0
 81155  1  0  0  0
 82 86  1  0  0  0
 82156  1  0  0  0
 82157  1  0  0  0
 82158  1  0  0  0
 83 86  1  0  0  0
 83159  1  0  0  0
 83160  1  0  0  0
 84161  1  0  0  0
 84162  1  0  0  0
 85163  1  0  0  0
M  ISO  4   1 100  68 101  84 101  85 100
M  END
> <chiral flag>
0

> <version>
0

> <s_m_source_file>
/data/baiqing/PycharmProjects/Reinvent-master-3.2/result/LINK_invent/BTK/process_docking_weight1_custom_product_contain_oxygen_bond_distance_aromatic_linkinvent_7_9_3/rearranged_h_0056.sdf

> <i_m_source_file_index>
11

> <r_mmod_Potential_Energy-OPLS-2005>
-63.3637084960938

> <r_mmod_Stretch_Energy-OPLS-2005>
38.250301361084

> <r_mmod_Bend_Energy-OPLS-2005>
102.368339538574

> <r_mmod_Torsional_Energy-OPLS-2005>
254.396896362305

> <r_mmod_Improper_Torsional_Energy-OPLS-2005>
4.81672477722168

> <r_mmod_Van_der_Waal_Energy-OPLS-2005>
178.769378662109

> <r_mmod_Electrostatic_Energy-OPLS-2005>
-393.316467285156

> <r_mmod_Solvation_Energy-OPLS-2005>
-256.555786132812

> <b_mmod_Minimization_Converged-OPLS-2005>
0

> <r_mmod_RMS_Derivative-OPLS-2005>
3.03506064414978

$$$$
11
                    3D
 Structure written by MMmdl.
158166  0  0  1  0            999 V2000
  -30.7201  -14.4162   20.6566 C   0  0  0  0  0  0
  -30.4311  -12.3058   19.3969 C   0  0  0  0  0  0
  -29.4880  -12.5191   18.1955 C   0  0  0  0  0  0
  -28.0117  -12.3736   18.6132 C   0  0  0  0  0  0
  -27.6677  -13.1982   19.8807 C   0  0  2  0  0  0
  -28.7068  -12.9313   20.9911 C   0  0  0  0  0  0
  -25.2614  -13.8145   20.5675 C   0  0  0  0  0  0
  -24.1842  -13.0437   20.9147 C   0  0  0  0  0  0
  -24.6382  -11.6900   20.8710 C   0  0  0  0  0  0
  -23.9046  -10.4289   21.0391 C   0  0  0  0  0  0
  -24.3599   -9.4209   21.9172 C   0  0  0  0  0  0
  -23.6282   -8.2243   22.0749 C   0  0  0  0  0  0
  -22.4260   -8.0273   21.3541 C   0  0  0  0  0  0
  -21.9890   -9.0245   20.4646 C   0  0  0  0  0  0
  -22.7215  -10.2128   20.3049 C   0  0  0  0  0  0
  -21.6853   -6.0724   22.5274 C   0  0  0  0  0  0
  -21.4010   -6.5633   23.8204 C   0  0  0  0  0  0
  -21.3662   -5.6786   24.9166 C   0  0  0  0  0  0
  -21.6044   -4.3051   24.7222 C   0  0  0  0  0  0
  -21.8823   -3.8140   23.4345 C   0  0  0  0  0  0
  -21.9193   -4.6951   22.3396 C   0  0  0  0  0  0
  -22.7865  -13.5240   21.1830 C   0  0  0  0  0  0
  -22.1661   -4.2136   21.0977 F   0  0  0  0  0  0
  -21.5637   -3.4536   25.7738 F   0  0  0  0  0  0
  -30.0484  -13.2488   20.4594 N   0  0  0  0  0  0
  -26.3054  -12.9302   20.3394 N   0  0  0  0  0  0
  -25.9309  -11.6469   20.5752 N   0  0  0  0  0  0
  -22.0515  -12.8231   22.0402 N   0  0  0  0  0  0
  -25.4355  -15.1860   20.4101 N   0  0  0  0  0  0
  -31.7635  -14.7045   20.0598 O   0  0  0  0  0  0
  -21.6638   -6.8861   21.4232 O   0  0  0  0  0  0
  -22.3549  -14.5553   20.6696 O   0  0  0  0  0  0
  -24.6187  -31.8672   23.2112 C   0  0  0  0  0  0
  -25.9078  -32.4814   23.8393 C   0  0  1  0  0  0
  -27.2339  -27.4263   20.0680 C   0  0  0  0  0  0
  -25.5928  -33.8610   24.2325 N   0  0  0  0  0  0
  -23.4038  -30.4944   21.5533 C   0  0  2  0  0  0
  -24.8466  -28.9664   20.1133 C   0  0  0  0  0  0
  -22.7420  -29.4659   22.4992 C   0  0  0  0  0  0
  -18.0274  -28.1378   22.8501 C   0  0  0  0  0  0
  -24.1482  -36.7302   23.2636 C   0  0  0  0  0  0
  -25.9359  -30.8276   21.3661 C   0  0  0  0  0  0
  -26.0101  -29.4619   20.7119 C   0  0  0  0  0  0
  -27.2022  -28.6968   20.6949 C   0  0  0  0  0  0
  -26.0402  -26.9548   19.4646 C   0  0  0  0  0  0
  -24.8558  -27.7095   19.4936 C   0  0  0  0  0  0
  -23.6107  -29.8348   20.1660 C   0  0  0  0  0  0
  -25.4094  -36.3104   24.0345 C   0  0  1  0  0  0
  -20.5861  -28.3668   23.1315 C   0  0  2  0  0  0
  -20.6752  -26.9396   22.5413 C   0  0  0  0  0  0
  -19.5726  -26.6385   21.5217 C   0  0  0  0  0  0
  -18.1909  -26.7928   22.1631 C   0  0  0  0  0  0
  -19.1523  -28.8839   23.2906 C   0  0  0  0  0  0
  -18.9464  -30.1453   23.8909 C   0  0  0  0  0  0
  -17.6469  -30.6589   24.0581 C   0  0  0  0  0  0
  -25.9032  -34.9476   23.5120 C   0  0  0  0  0  0
  -16.5360  -29.9092   23.6341 C   0  0  0  0  0  0
  -16.7265  -28.6514   23.0343 C   0  0  0  0  0  0
  -26.4498  -31.6593   25.0723 C   0  0  0  0  0  0
  -25.3766  -31.3717   26.1485 C   0  0  0  0  0  0
  -27.0330  -30.3043   24.6093 C   0  0  0  0  0  0
  -27.6082  -32.4315   25.7463 C   0  0  0  0  0  0
  -27.5579  -37.1780   24.8459 C   0  0  0  0  0  0
  -21.4145  -29.3051   22.3738 N   0  0  0  0  0  0
  -26.4274  -37.3795   23.9436 N   0  0  0  0  0  0
  -24.6712  -31.0767   22.1021 N   0  0  0  0  0  0
  -23.4187  -28.8188   23.3025 O   0  0  0  0  0  0
  -28.4126  -26.6893   20.0664 O   0  0  0  0  0  0
  -26.5584  -34.8936   22.4680 O   0  0  0  0  0  0
  -23.5378  -32.1447   23.7499 O   0  0  0  0  0  0
  -30.4861  -19.3818   22.3930 C   0  0  0  0  0  0
  -30.0821  -18.4767   23.3918 C   0  0  0  0  0  0
  -30.7529  -17.5286   20.8304 C   0  0  0  0  0  0
  -30.8148  -18.9169   21.1031 C   0  0  0  0  0  0
  -29.9910  -17.0967   23.1140 C   0  0  0  0  0  0
  -30.3392  -16.6098   21.8306 C   0  0  0  0  0  0
  -29.5264  -23.2202   19.7397 C   0  0  0  0  0  0
  -29.6240  -24.5625   19.6018 C   0  0  0  0  0  0
  -30.6814  -22.3596   19.9418 C   0  0  0  0  0  0
  -29.5177  -16.1548   24.2102 C   0  0  0  0  0  0
  -31.2415  -19.9078   20.0209 C   0  0  0  0  0  0
  -28.4117  -25.4453   19.3456 C   0  0  0  0  0  0
  -30.1686  -15.2159   21.5833 N   0  0  0  0  0  0
  -30.3435  -21.0605   19.9067 N   0  0  0  0  0  0
  -31.8403  -22.7459   20.1087 O   0  0  0  0  0  0
  -31.4690  -12.4334   19.0835 H   0  0  0  0  0  0
  -30.3571  -11.2813   19.7662 H   0  0  0  0  0  0
  -29.7211  -11.8060   17.4037 H   0  0  0  0  0  0
  -29.6515  -13.5110   17.7713 H   0  0  0  0  0  0
  -27.8198  -11.3162   18.7990 H   0  0  0  0  0  0
  -27.3577  -12.6604   17.7886 H   0  0  0  0  0  0
  -27.7266  -14.2529   19.6088 H   0  0  0  0  0  0
  -28.6780  -11.8810   21.2821 H   0  0  0  0  0  0
  -28.4457  -13.4785   21.8964 H   0  0  0  0  0  0
  -25.2741   -9.5686   22.4745 H   0  0  0  0  0  0
  -23.9992   -7.4632   22.7466 H   0  0  0  0  0  0
  -21.0822   -8.8759   19.8953 H   0  0  0  0  0  0
  -22.3665  -10.9665   19.6160 H   0  0  0  0  0  0
  -21.1996   -7.6139   23.9702 H   0  0  0  0  0  0
  -21.1486   -6.0519   25.9069 H   0  0  0  0  0  0
  -22.0599   -2.7603   23.2855 H   0  0  0  0  0  0
  -22.4137  -11.9888   22.4779 H   0  0  0  0  0  0
  -21.1144  -13.1270   22.2640 H   0  0  0  0  0  0
  -24.6757  -15.8479   20.5228 H   0  0  0  0  0  0
  -26.3038  -15.6249   20.1287 H   0  0  0  0  0  0
  -26.7146  -32.5510   23.1141 H   0  0  0  0  0  0
  -25.0151  -33.9773   25.0525 H   0  0  0  0  0  0
  -22.6952  -31.3150   21.4171 H   0  0  0  0  0  0
  -23.3759  -35.9621   23.3284 H   0  0  0  0  0  0
  -24.3588  -36.8914   22.2055 H   0  0  0  0  0  0
  -23.7221  -37.6500   23.6650 H   0  0  0  0  0  0
  -26.0489  -31.5924   20.5967 H   0  0  0  0  0  0
  -26.8244  -30.8798   21.9831 H   0  0  0  0  0  0
  -28.1005  -29.0813   21.1560 H   0  0  0  0  0  0
  -25.9749  -26.0089   18.9506 H   0  0  0  0  0  0
  -23.9623  -27.3211   19.0254 H   0  0  0  0  0  0
  -23.7173  -30.6142   19.4105 H   0  0  0  0  0  0
  -22.7334  -29.2580   19.8676 H   0  0  0  0  0  0
  -25.1255  -36.1956   25.0833 H   0  0  0  0  0  0
  -20.9965  -28.3228   24.1430 H   0  0  0  0  0  0
  -20.5655  -26.2273   23.3600 H   0  0  0  0  0  0
  -21.6618  -26.7425   22.1200 H   0  0  0  0  0  0
  -19.6877  -25.6303   21.1222 H   0  0  0  0  0  0
  -19.6665  -27.3225   20.6769 H   0  0  0  0  0  0
  -17.4176  -26.6717   21.4028 H   0  0  0  0  0  0
  -18.0289  -26.0047   22.9002 H   0  0  0  0  0  0
  -19.7940  -30.7269   24.2257 H   0  0  0  0  0  0
  -17.5028  -31.6274   24.5182 H   0  0  0  0  0  0
  -15.5359  -30.3005   23.7662 H   0  0  0  0  0  0
  -15.8657  -28.0857   22.7025 H   0  0  0  0  0  0
  -24.5954  -30.7018   25.7855 H   0  0  0  0  0  0
  -24.8949  -32.2880   26.4915 H   0  0  0  0  0  0
  -25.8141  -30.8927   27.0258 H   0  0  0  0  0  0
  -26.2861  -29.6768   24.1217 H   0  0  0  0  0  0
  -27.4197  -29.7305   25.4529 H   0  0  0  0  0  0
  -27.8647  -30.4373   23.9170 H   0  0  0  0  0  0
  -27.2729  -33.3640   26.2024 H   0  0  0  0  0  0
  -28.3892  -32.6831   25.0267 H   0  0  0  0  0  0
  -28.0750  -31.8445   26.5385 H   0  0  0  0  0  0
  -28.2567  -38.0112   24.7574 H   0  0  0  0  0  0
  -28.1103  -36.2650   24.6181 H   0  0  0  0  0  0
  -27.2319  -37.1298   25.8867 H   0  0  0  0  0  0
  -20.9299  -29.8836   21.7021 H   0  0  0  0  0  0
  -26.0158  -38.2852   24.1518 H   0  0  0  0  0  0
  -30.5406  -20.4376   22.6208 H   0  0  0  0  0  0
  -29.8282  -18.8534   24.3729 H   0  0  0  0  0  0
  -30.9980  -17.1791   19.8371 H   0  0  0  0  0  0
  -28.5457  -22.7691   19.6833 H   0  0  0  0  0  0
  -30.5871  -25.0526   19.6411 H   0  0  0  0  0  0
  -29.2319  -16.7000   25.1109 H   0  0  0  0  0  0
  -30.3099  -15.4552   24.4798 H   0  0  0  0  0  0
  -28.6480  -15.5843   23.8832 H   0  0  0  0  0  0
  -31.2723  -19.4064   19.0524 H   0  0  0  0  0  0
  -32.2652  -20.2226   20.2313 H   0  0  0  0  0  0
  -27.5485  -24.8381   19.6170 H   0  0  0  0  0  0
  -28.3522  -25.6546   18.2763 H   0  0  0  0  0  0
  -29.4507  -14.7675   22.1307 H   0  0  0  0  0  0
  -29.3696  -20.8445   19.7426 H   0  0  0  0  0  0
  1 25  1  0  0  0
  1 30  2  0  0  0
  1 83  1  0  0  0
  2  3  1  0  0  0
  2 25  1  0  0  0
  2 86  1  0  0  0
  2 87  1  0  0  0
  3  4  1  0  0  0
  3 88  1  0  0  0
  3 89  1  0  0  0
  4  5  1  0  0  0
  4 90  1  0  0  0
  4 91  1  0  0  0
  5  6  1  0  0  0
  5 26  1  0  0  0
  5 92  1  0  0  0
  6 25  1  0  0  0
  6 93  1  0  0  0
  6 94  1  0  0  0
  7  8  2  0  0  0
  7 26  1  0  0  0
  7 29  1  0  0  0
  8  9  1  0  0  0
  8 22  1  0  0  0
  9 10  1  0  0  0
  9 27  2  0  0  0
 10 11  2  0  0  0
 10 15  1  0  0  0
 11 12  1  0  0  0
 11 95  1  0  0  0
 12 13  2  0  0  0
 12 96  1  0  0  0
 13 14  1  0  0  0
 13 31  1  0  0  0
 14 15  2  0  0  0
 14 97  1  0  0  0
 15 98  1  0  0  0
 16 17  2  0  0  0
 16 21  1  0  0  0
 16 31  1  0  0  0
 17 18  1  0  0  0
 17 99  1  0  0  0
 18 19  2  0  0  0
 18100  1  0  0  0
 19 20  1  0  0  0
 19 24  1  0  0  0
 20 21  2  0  0  0
 20101  1  0  0  0
 21 23  1  0  0  0
 22 28  1  0  0  0
 22 32  2  0  0  0
 26 27  1  0  0  0
 28102  1  0  0  0
 28103  1  0  0  0
 29104  1  0  0  0
 29105  1  0  0  0
 33 34  1  0  0  0
 33 66  1  0  0  0
 33 70  2  0  0  0
 34 36  1  0  0  0
 34 59  1  0  0  0
 34106  1  0  0  0
 35 44  2  0  0  0
 35 45  1  0  0  0
 35 68  1  0  0  0
 36 56  1  0  0  0
 36107  1  0  0  0
 37 39  1  0  0  0
 37 47  1  0  0  0
 37 66  1  0  0  0
 37108  1  0  0  0
 38 43  2  0  0  0
 38 46  1  0  0  0
 38 47  1  0  0  0
 39 64  1  0  0  0
 39 67  2  0  0  0
 40 52  1  0  0  0
 40 53  2  0  0  0
 40 58  1  0  0  0
 41109  1  0  0  0
 41110  1  0  0  0
 41111  1  0  0  0
 41 48  1  0  0  0
 42 43  1  0  0  0
 42 66  1  0  0  0
 42112  1  0  0  0
 42113  1  0  0  0
 43 44  1  0  0  0
 44114  1  0  0  0
 45 46  2  0  0  0
 45115  1  0  0  0
 46116  1  0  0  0
 47117  1  0  0  0
 47118  1  0  0  0
 48 56  1  0  0  0
 48 65  1  0  0  0
 48119  1  0  0  0
 49 50  1  0  0  0
 49 53  1  0  0  0
 49 64  1  0  0  0
 49120  1  0  0  0
 50 51  1  0  0  0
 50121  1  0  0  0
 50122  1  0  0  0
 51 52  1  0  0  0
 51123  1  0  0  0
 51124  1  0  0  0
 52125  1  0  0  0
 52126  1  0  0  0
 53 54  1  0  0  0
 54 55  2  0  0  0
 54127  1  0  0  0
 55 57  1  0  0  0
 55128  1  0  0  0
 56 69  2  0  0  0
 57 58  2  0  0  0
 57129  1  0  0  0
 58130  1  0  0  0
 59 60  1  0  0  0
 59 61  1  0  0  0
 59 62  1  0  0  0
 60131  1  0  0  0
 60132  1  0  0  0
 60133  1  0  0  0
 61134  1  0  0  0
 61135  1  0  0  0
 61136  1  0  0  0
 62137  1  0  0  0
 62138  1  0  0  0
 62139  1  0  0  0
 63 65  1  0  0  0
 63140  1  0  0  0
 63141  1  0  0  0
 63142  1  0  0  0
 64143  1  0  0  0
 65144  1  0  0  0
 68 82  1  0  0  0
 71 72  2  0  0  0
 71 74  1  0  0  0
 71145  1  0  0  0
 72 75  1  0  0  0
 72146  1  0  0  0
 73 74  2  0  0  0
 73 76  1  0  0  0
 73147  1  0  0  0
 74 81  1  0  0  0
 75 76  2  0  0  0
 75 80  1  0  0  0
 76 83  1  0  0  0
 77 78  2  0  0  0
 77 79  1  0  0  0
 77148  1  0  0  0
 78 82  1  0  0  0
 78149  1  0  0  0
 79 84  1  0  0  0
 79 85  2  0  0  0
 80150  1  0  0  0
 80151  1  0  0  0
 80152  1  0  0  0
 81 84  1  0  0  0
 81153  1  0  0  0
 81154  1  0  0  0
 82155  1  0  0  0
 82156  1  0  0  0
 83157  1  0  0  0
 84158  1  0  0  0
M  ISO  4   1 100  68 101  82 101  83 100
M  END
> <chiral flag>
0

> <version>
0

> <s_m_source_file>
/data/baiqing/PycharmProjects/Reinvent-master-3.2/result/LINK_invent/BTK/process_docking_weight1_custom_product_contain_oxygen_bond_distance_aromatic_linkinvent_7_9_3/rearranged_h_0056.sdf

> <i_m_source_file_index>
12

> <r_mmod_Potential_Energy-OPLS-2005>
-214.302719116211

> <r_mmod_Stretch_Energy-OPLS-2005>
37.3403778076172

> <r_mmod_Bend_Energy-OPLS-2005>
99.1258392333984

> <r_mmod_Torsional_Energy-OPLS-2005>
198.734588623047

> <r_mmod_Improper_Torsional_Energy-OPLS-2005>
2.32406949996948

> <r_mmod_Van_der_Waal_Energy-OPLS-2005>
166.216705322266

> <r_mmod_Electrostatic_Energy-OPLS-2005>
-491.063354492188

> <r_mmod_Solvation_Energy-OPLS-2005>
-237.195159912109

> <b_mmod_Minimization_Converged-OPLS-2005>
0

> <r_mmod_RMS_Derivative-OPLS-2005>
1.81724750995636

$$$$
12
                    3D
 Structure written by MMmdl.
164173  0  0  1  0            999 V2000
  -30.7096  -14.4636   20.5961 C   0  0  0  0  0  0
  -30.4260  -12.3124   19.4194 C   0  0  0  0  0  0
  -29.4962  -12.5151   18.2050 C   0  0  0  0  0  0
  -28.0162  -12.3745   18.6127 C   0  0  0  0  0  0
  -27.6611  -13.2073   19.8745 C   0  0  2  0  0  0
  -28.7037  -12.9814   20.9934 C   0  0  0  0  0  0
  -25.2575  -13.8161   20.5700 C   0  0  0  0  0  0
  -24.1831  -13.0430   20.9182 C   0  0  0  0  0  0
  -24.6387  -11.6900   20.8719 C   0  0  0  0  0  0
  -23.9061  -10.4280   21.0393 C   0  0  0  0  0  0
  -24.3619   -9.4202   21.9171 C   0  0  0  0  0  0
  -23.6292   -8.2244   22.0753 C   0  0  0  0  0  0
  -22.4271   -8.0284   21.3549 C   0  0  0  0  0  0
  -21.9908   -9.0250   20.4647 C   0  0  0  0  0  0
  -22.7232  -10.2125   20.3044 C   0  0  0  0  0  0
  -21.6852   -6.0745   22.5283 C   0  0  0  0  0  0
  -21.4014   -6.5646   23.8221 C   0  0  0  0  0  0
  -21.3656   -5.6798   24.9177 C   0  0  0  0  0  0
  -21.6047   -4.3061   24.7227 C   0  0  0  0  0  0
  -21.8816   -3.8153   23.4346 C   0  0  0  0  0  0
  -21.9189   -4.6971   22.3405 C   0  0  0  0  0  0
  -22.7852  -13.5224   21.1846 C   0  0  0  0  0  0
  -22.1653   -4.2161   21.0982 F   0  0  0  0  0  0
  -21.5628   -3.4545   25.7737 F   0  0  0  0  0  0
  -30.0356  -13.2912   20.4439 N   0  0  0  0  0  0
  -26.3021  -12.9332   20.3366 N   0  0  0  0  0  0
  -25.9311  -11.6486   20.5740 N   0  0  0  0  0  0
  -22.0503  -12.8206   22.0404 N   0  0  0  0  0  0
  -25.4302  -15.1890   20.4175 N   0  0  0  0  0  0
  -31.8369  -14.6516   20.1275 O   0  0  0  0  0  0
  -21.6633   -6.8881   21.4245 O   0  0  0  0  0  0
  -22.3521  -14.5524   20.6701 O   0  0  0  0  0  0
  -24.6145  -31.8669   23.2132 C   0  0  0  0  0  0
  -25.9036  -32.4814   23.8405 C   0  0  1  0  0  0
  -27.2267  -27.4319   20.0791 C   0  0  0  0  0  0
  -25.5900  -33.8620   24.2337 N   0  0  0  0  0  0
  -23.4014  -30.4950   21.5534 C   0  0  2  0  0  0
  -24.8414  -28.9658   20.1120 C   0  0  0  0  0  0
  -22.7409  -29.4657   22.4994 C   0  0  0  0  0  0
  -18.0275  -28.1380   22.8478 C   0  0  0  0  0  0
  -24.1486  -36.7316   23.2638 C   0  0  0  0  0  0
  -25.9321  -30.8291   21.3698 C   0  0  0  0  0  0
  -26.0015  -29.4657   20.7127 C   0  0  0  0  0  0
  -27.1888  -28.7004   20.7044 C   0  0  0  0  0  0
  -26.0389  -26.9475   19.4778 C   0  0  0  0  0  0
  -24.8545  -27.7041   19.5006 C   0  0  0  0  0  0
  -23.6048  -29.8328   20.1648 C   0  0  0  0  0  0
  -25.4104  -36.3115   24.0345 C   0  0  1  0  0  0
  -20.5860  -28.3652   23.1324 C   0  0  2  0  0  0
  -20.6772  -26.9394   22.5426 C   0  0  0  0  0  0
  -19.5748  -26.6380   21.5228 C   0  0  0  0  0  0
  -18.1921  -26.7934   22.1617 C   0  0  0  0  0  0
  -19.1522  -28.8835   23.2896 C   0  0  0  0  0  0
  -18.9456  -30.1443   23.8908 C   0  0  0  0  0  0
  -17.6459  -30.6586   24.0557 C   0  0  0  0  0  0
  -25.9044  -34.9478   23.5142 C   0  0  0  0  0  0
  -16.5342  -29.9090   23.6332 C   0  0  0  0  0  0
  -16.7263  -28.6508   23.0344 C   0  0  0  0  0  0
  -26.4473  -31.6597   25.0730 C   0  0  0  0  0  0
  -25.3759  -31.3703   26.1492 C   0  0  0  0  0  0
  -27.0301  -30.3034   24.6119 C   0  0  0  0  0  0
  -27.6049  -32.4311   25.7487 C   0  0  0  0  0  0
  -27.5581  -37.1810   24.8464 C   0  0  0  0  0  0
  -21.4137  -29.3021   22.3726 N   0  0  0  0  0  0
  -26.4289  -37.3800   23.9417 N   0  0  0  0  0  0
  -24.6678  -31.0785   22.1020 N   0  0  0  0  0  0
  -23.4176  -28.8200   23.3037 O   0  0  0  0  0  0
  -28.4191  -26.7313   20.1151 O   0  0  0  0  0  0
  -26.5592  -34.8923   22.4693 O   0  0  0  0  0  0
  -23.5341  -32.1407   23.7532 O   0  0  0  0  0  0
  -29.9108  -19.1979   20.9021 C   0  0  0  0  0  0
  -29.5826  -17.8356   20.7251 C   0  0  0  0  0  0
  -31.5333  -17.1962   22.0266 C   0  0  0  0  0  0
  -31.0338  -19.5778   21.6736 C   0  0  0  0  0  0
  -31.8554  -18.5585   22.2256 C   0  0  0  0  0  0
  -30.3917  -16.8239   21.2857 C   0  0  0  0  0  0
  -29.5011  -22.6862   21.9627 C   0  0  0  0  0  0
  -28.7656  -23.8776   21.3164 C   0  0  0  0  0  0
  -30.0525  -23.4350   19.2239 C   0  0  0  0  0  0
  -31.0373  -22.5490   20.0019 C   0  0  0  0  0  0
  -29.5061  -24.5402   20.1356 C   0  0  1  0  0  0
  -33.0894  -18.9039   23.0467 C   0  0  0  0  0  0
  -31.3677  -21.0549   21.9457 C   0  0  0  0  0  0
  -28.5981  -25.5226   19.3636 C   0  0  0  0  0  0
  -30.5272  -22.0873   21.3036 N   0  0  0  0  0  0
  -30.0040  -15.4586   21.1631 N   0  0  0  0  0  0
  -29.1146  -22.3084   23.0726 O   0  0  0  0  0  0
  -31.4705  -12.4151   19.1206 H   0  0  0  0  0  0
  -30.3291  -11.2998   19.8142 H   0  0  0  0  0  0
  -29.7387  -11.7934   17.4239 H   0  0  0  0  0  0
  -29.6641  -13.5028   17.7718 H   0  0  0  0  0  0
  -27.8206  -11.3175   18.7979 H   0  0  0  0  0  0
  -27.3695  -12.6604   17.7822 H   0  0  0  0  0  0
  -27.7051  -14.2575   19.5851 H   0  0  0  0  0  0
  -28.6816  -11.9409   21.3229 H   0  0  0  0  0  0
  -28.4613  -13.5700   21.8789 H   0  0  0  0  0  0
  -25.2771   -9.5685   22.4733 H   0  0  0  0  0  0
  -24.0015   -7.4633   22.7459 H   0  0  0  0  0  0
  -21.0849   -8.8748   19.8943 H   0  0  0  0  0  0
  -22.3690  -10.9655   19.6149 H   0  0  0  0  0  0
  -21.2010   -7.6154   23.9730 H   0  0  0  0  0  0
  -21.1481   -6.0525   25.9081 H   0  0  0  0  0  0
  -22.0600   -2.7622   23.2840 H   0  0  0  0  0  0
  -22.4110  -11.9859   22.4790 H   0  0  0  0  0  0
  -21.1113  -13.1211   22.2623 H   0  0  0  0  0  0
  -24.6689  -15.8468   20.5458 H   0  0  0  0  0  0
  -26.2889  -15.6336   20.1181 H   0  0  0  0  0  0
  -26.7085  -32.5518   23.1147 H   0  0  0  0  0  0
  -25.0083  -33.9780   25.0504 H   0  0  0  0  0  0
  -22.6909  -31.3123   21.4175 H   0  0  0  0  0  0
  -23.3754  -35.9645   23.3317 H   0  0  0  0  0  0
  -24.3586  -36.8924   22.2050 H   0  0  0  0  0  0
  -23.7237  -37.6532   23.6631 H   0  0  0  0  0  0
  -26.0550  -31.5989   20.6070 H   0  0  0  0  0  0
  -26.8182  -30.8717   21.9930 H   0  0  0  0  0  0
  -28.0841  -29.0814   21.1762 H   0  0  0  0  0  0
  -25.9712  -25.9898   18.9892 H   0  0  0  0  0  0
  -23.9595  -27.3078   19.0396 H   0  0  0  0  0  0
  -23.7084  -30.6088   19.4055 H   0  0  0  0  0  0
  -22.7271  -29.2541   19.8713 H   0  0  0  0  0  0
  -25.1283  -36.1982   25.0840 H   0  0  0  0  0  0
  -20.9941  -28.3206   24.1444 H   0  0  0  0  0  0
  -20.5712  -26.2249   23.3600 H   0  0  0  0  0  0
  -21.6635  -26.7457   22.1189 H   0  0  0  0  0  0
  -19.6921  -25.6311   21.1219 H   0  0  0  0  0  0
  -19.6702  -27.3216   20.6779 H   0  0  0  0  0  0
  -17.4202  -26.6681   21.4000 H   0  0  0  0  0  0
  -18.0290  -26.0092   22.9020 H   0  0  0  0  0  0
  -19.7935  -30.7250   24.2268 H   0  0  0  0  0  0
  -17.5021  -31.6268   24.5146 H   0  0  0  0  0  0
  -15.5348  -30.2983   23.7685 H   0  0  0  0  0  0
  -15.8657  -28.0837   22.7041 H   0  0  0  0  0  0
  -24.5907  -30.7074   25.7846 H   0  0  0  0  0  0
  -24.8978  -32.2863   26.4965 H   0  0  0  0  0  0
  -25.8123  -30.8849   27.0230 H   0  0  0  0  0  0
  -26.2839  -29.6794   24.1184 H   0  0  0  0  0  0
  -27.4093  -29.7265   25.4572 H   0  0  0  0  0  0
  -27.8672  -30.4372   23.9262 H   0  0  0  0  0  0
  -27.2661  -33.3591   26.2097 H   0  0  0  0  0  0
  -28.3831  -32.6899   25.0296 H   0  0  0  0  0  0
  -28.0743  -31.8417   26.5380 H   0  0  0  0  0  0
  -28.2599  -38.0107   24.7516 H   0  0  0  0  0  0
  -28.1076  -36.2639   24.6274 H   0  0  0  0  0  0
  -27.2298  -37.1452   25.8868 H   0  0  0  0  0  0
  -20.9285  -29.8743   21.6959 H   0  0  0  0  0  0
  -26.0189  -38.2883   24.1422 H   0  0  0  0  0  0
  -29.2780  -19.9484   20.4497 H   0  0  0  0  0  0
  -28.7058  -17.5765   20.1475 H   0  0  0  0  0  0
  -32.1551  -16.4293   22.4672 H   0  0  0  0  0  0
  -28.5574  -24.6255   22.0820 H   0  0  0  0  0  0
  -27.7973  -23.5083   20.9778 H   0  0  0  0  0  0
  -29.2346  -22.8231   18.8401 H   0  0  0  0  0  0
  -30.5508  -23.8630   18.3542 H   0  0  0  0  0  0
  -31.9515  -23.1156   20.1843 H   0  0  0  0  0  0
  -31.3194  -21.6898   19.3943 H   0  0  0  0  0  0
  -30.3554  -25.1054   20.5238 H   0  0  0  0  0  0
  -33.5587  -18.0070   23.4532 H   0  0  0  0  0  0
  -32.8337  -19.5479   23.8879 H   0  0  0  0  0  0
  -33.8292  -19.4180   22.4320 H   0  0  0  0  0  0
  -32.4045  -21.2291   21.6541 H   0  0  0  0  0  0
  -31.3626  -21.2007   23.0269 H   0  0  0  0  0  0
  -27.6902  -24.9846   19.1132 H   0  0  0  0  0  0
  -29.0625  -25.7992   18.4167 H   0  0  0  0  0  0
  -29.0467  -15.2339   21.3885 H   0  0  0  0  0  0
  1 25  1  0  0  0
  1 30  2  0  0  0
  1 86  1  0  0  0
  2  3  1  0  0  0
  2 25  1  0  0  0
  2 88  1  0  0  0
  2 89  1  0  0  0
  3  4  1  0  0  0
  3 90  1  0  0  0
  3 91  1  0  0  0
  4  5  1  0  0  0
  4 92  1  0  0  0
  4 93  1  0  0  0
  5  6  1  0  0  0
  5 26  1  0  0  0
  5 94  1  0  0  0
  6 25  1  0  0  0
  6 95  1  0  0  0
  6 96  1  0  0  0
  7  8  2  0  0  0
  7 26  1  0  0  0
  7 29  1  0  0  0
  8  9  1  0  0  0
  8 22  1  0  0  0
  9 10  1  0  0  0
  9 27  2  0  0  0
 10 11  2  0  0  0
 10 15  1  0  0  0
 11 12  1  0  0  0
 11 97  1  0  0  0
 12 13  2  0  0  0
 12 98  1  0  0  0
 13 14  1  0  0  0
 13 31  1  0  0  0
 14 15  2  0  0  0
 14 99  1  0  0  0
 15100  1  0  0  0
 16 17  2  0  0  0
 16 21  1  0  0  0
 16 31  1  0  0  0
 17 18  1  0  0  0
 17101  1  0  0  0
 18 19  2  0  0  0
 18102  1  0  0  0
 19 20  1  0  0  0
 19 24  1  0  0  0
 20 21  2  0  0  0
 20103  1  0  0  0
 21 23  1  0  0  0
 22 28  1  0  0  0
 22 32  2  0  0  0
 26 27  1  0  0  0
 28104  1  0  0  0
 28105  1  0  0  0
 29106  1  0  0  0
 29107  1  0  0  0
 33 34  1  0  0  0
 33 66  1  0  0  0
 33 70  2  0  0  0
 34 36  1  0  0  0
 34 59  1  0  0  0
 34108  1  0  0  0
 35 44  2  0  0  0
 35 45  1  0  0  0
 35 68  1  0  0  0
 36 56  1  0  0  0
 36109  1  0  0  0
 37 39  1  0  0  0
 37 47  1  0  0  0
 37 66  1  0  0  0
 37110  1  0  0  0
 38 43  2  0  0  0
 38 46  1  0  0  0
 38 47  1  0  0  0
 39 64  1  0  0  0
 39 67  2  0  0  0
 40 52  1  0  0  0
 40 53  2  0  0  0
 40 58  1  0  0  0
 41111  1  0  0  0
 41112  1  0  0  0
 41113  1  0  0  0
 41 48  1  0  0  0
 42 43  1  0  0  0
 42 66  1  0  0  0
 42114  1  0  0  0
 42115  1  0  0  0
 43 44  1  0  0  0
 44116  1  0  0  0
 45 46  2  0  0  0
 45117  1  0  0  0
 46118  1  0  0  0
 47119  1  0  0  0
 47120  1  0  0  0
 48 56  1  0  0  0
 48 65  1  0  0  0
 48121  1  0  0  0
 49 50  1  0  0  0
 49 53  1  0  0  0
 49 64  1  0  0  0
 49122  1  0  0  0
 50 51  1  0  0  0
 50123  1  0  0  0
 50124  1  0  0  0
 51 52  1  0  0  0
 51125  1  0  0  0
 51126  1  0  0  0
 52127  1  0  0  0
 52128  1  0  0  0
 53 54  1  0  0  0
 54 55  2  0  0  0
 54129  1  0  0  0
 55 57  1  0  0  0
 55130  1  0  0  0
 56 69  2  0  0  0
 57 58  2  0  0  0
 57131  1  0  0  0
 58132  1  0  0  0
 59 60  1  0  0  0
 59 61  1  0  0  0
 59 62  1  0  0  0
 60133  1  0  0  0
 60134  1  0  0  0
 60135  1  0  0  0
 61136  1  0  0  0
 61137  1  0  0  0
 61138  1  0  0  0
 62139  1  0  0  0
 62140  1  0  0  0
 62141  1  0  0  0
 63 65  1  0  0  0
 63142  1  0  0  0
 63143  1  0  0  0
 63144  1  0  0  0
 64145  1  0  0  0
 65146  1  0  0  0
 68 84  1  0  0  0
 71 72  2  0  0  0
 71 74  1  0  0  0
 71147  1  0  0  0
 72 76  1  0  0  0
 72148  1  0  0  0
 73 75  1  0  0  0
 73 76  2  0  0  0
 73149  1  0  0  0
 74 75  2  0  0  0
 74 83  1  0  0  0
 75 82  1  0  0  0
 76 86  1  0  0  0
 77 78  1  0  0  0
 77 85  1  0  0  0
 77 87  2  0  0  0
 78 81  1  0  0  0
 78150  1  0  0  0
 78151  1  0  0  0
 79 80  1  0  0  0
 79 81  1  0  0  0
 79152  1  0  0  0
 79153  1  0  0  0
 80 85  1  0  0  0
 80154  1  0  0  0
 80155  1  0  0  0
 81 84  1  0  0  0
 81156  1  0  0  0
 82157  1  0  0  0
 82158  1  0  0  0
 82159  1  0  0  0
 83 85  1  0  0  0
 83160  1  0  0  0
 83161  1  0  0  0
 84162  1  0  0  0
 84163  1  0  0  0
 86164  1  0  0  0
M  ISO  4   1 100  68 101  84 101  86 100
M  END
> <chiral flag>
0

> <version>
0

> <s_m_source_file>
/data/baiqing/PycharmProjects/Reinvent-master-3.2/result/LINK_invent/BTK/process_docking_weight1_custom_product_contain_oxygen_bond_distance_aromatic_linkinvent_7_9_3/rearranged_h_0056.sdf

> <i_m_source_file_index>
13

> <r_mmod_Potential_Energy-OPLS-2005>
-43.9675598144531

> <r_mmod_Stretch_Energy-OPLS-2005>
39.4512634277344

> <r_mmod_Bend_Energy-OPLS-2005>
110.577415466309

> <r_mmod_Torsional_Energy-OPLS-2005>
237.706619262695

> <r_mmod_Improper_Torsional_Energy-OPLS-2005>
3.79059600830078

> <r_mmod_Van_der_Waal_Energy-OPLS-2005>
168.959182739258

> <r_mmod_Electrostatic_Energy-OPLS-2005>
-387.002990722656

> <r_mmod_Solvation_Energy-OPLS-2005>
-230.420486450195

> <b_mmod_Minimization_Converged-OPLS-2005>
0

> <r_mmod_RMS_Derivative-OPLS-2005>
2.50771951675415

$$$$
13
                    3D
 Structure written by MMmdl.
155163  0  0  1  0            999 V2000
  -30.7100  -14.5166   20.5519 C   0  0  0  0  0  0
  -30.4169  -12.3308   19.4349 C   0  0  0  0  0  0
  -29.4933  -12.4993   18.2119 C   0  0  0  0  0  0
  -28.0167  -12.3547   18.6267 C   0  0  0  0  0  0
  -27.6550  -13.2154   19.8671 C   0  0  2  0  0  0
  -28.6990  -13.0455   20.9943 C   0  0  0  0  0  0
  -25.2554  -13.8174   20.5679 C   0  0  0  0  0  0
  -24.1826  -13.0440   20.9199 C   0  0  0  0  0  0
  -24.6394  -11.6913   20.8751 C   0  0  0  0  0  0
  -23.9065  -10.4294   21.0412 C   0  0  0  0  0  0
  -24.3617   -9.4207   21.9187 C   0  0  0  0  0  0
  -23.6292   -8.2242   22.0755 C   0  0  0  0  0  0
  -22.4274   -8.0282   21.3545 C   0  0  0  0  0  0
  -21.9910   -9.0257   20.4648 C   0  0  0  0  0  0
  -22.7239  -10.2136   20.3059 C   0  0  0  0  0  0
  -21.6852   -6.0736   22.5279 C   0  0  0  0  0  0
  -21.4013   -6.5640   23.8213 C   0  0  0  0  0  0
  -21.3658   -5.6793   24.9175 C   0  0  0  0  0  0
  -21.6045   -4.3056   24.7226 C   0  0  0  0  0  0
  -21.8818   -3.8147   23.4347 C   0  0  0  0  0  0
  -21.9192   -4.6963   22.3403 C   0  0  0  0  0  0
  -22.7847  -13.5233   21.1854 C   0  0  0  0  0  0
  -22.1661   -4.2149   21.0980 F   0  0  0  0  0  0
  -21.5628   -3.4539   25.7739 F   0  0  0  0  0  0
  -30.0231  -13.3449   20.4290 N   0  0  0  0  0  0
  -26.2993  -12.9362   20.3342 N   0  0  0  0  0  0
  -25.9322  -11.6516   20.5776 N   0  0  0  0  0  0
  -22.0487  -12.8228   22.0411 N   0  0  0  0  0  0
  -25.4244  -15.1888   20.4038 N   0  0  0  0  0  0
  -31.8544  -14.6428   20.1084 O   0  0  0  0  0  0
  -21.6639   -6.8879   21.4242 O   0  0  0  0  0  0
  -22.3534  -14.5540   20.6701 O   0  0  0  0  0  0
  -24.6183  -31.8658   23.2085 C   0  0  0  0  0  0
  -25.9064  -32.4812   23.8388 C   0  0  1  0  0  0
  -27.2254  -27.4005   20.1069 C   0  0  0  0  0  0
  -25.5908  -33.8610   24.2317 N   0  0  0  0  0  0
  -23.4082  -30.4899   21.5492 C   0  0  2  0  0  0
  -24.8557  -28.9567   20.1097 C   0  0  0  0  0  0
  -22.7433  -29.4648   22.4970 C   0  0  0  0  0  0
  -18.0275  -28.1378   22.8488 C   0  0  0  0  0  0
  -24.1488  -36.7311   23.2638 C   0  0  0  0  0  0
  -25.9413  -30.8225   21.3670 C   0  0  0  0  0  0
  -26.0194  -29.4561   20.7104 C   0  0  0  0  0  0
  -27.2116  -28.6872   20.7031 C   0  0  0  0  0  0
  -26.0496  -26.9351   19.4803 C   0  0  0  0  0  0
  -24.8679  -27.6976   19.4875 C   0  0  0  0  0  0
  -23.6185  -29.8257   20.1627 C   0  0  0  0  0  0
  -25.4109  -36.3105   24.0335 C   0  0  1  0  0  0
  -20.5869  -28.3671   23.1305 C   0  0  2  0  0  0
  -20.6766  -26.9403   22.5413 C   0  0  0  0  0  0
  -19.5744  -26.6385   21.5209 C   0  0  0  0  0  0
  -18.1923  -26.7922   22.1621 C   0  0  0  0  0  0
  -19.1526  -28.8840   23.2893 C   0  0  0  0  0  0
  -18.9454  -30.1445   23.8906 C   0  0  0  0  0  0
  -17.6457  -30.6584   24.0564 C   0  0  0  0  0  0
  -25.9038  -34.9471   23.5124 C   0  0  0  0  0  0
  -16.5348  -29.9086   23.6328 C   0  0  0  0  0  0
  -16.7265  -28.6502   23.0349 C   0  0  0  0  0  0
  -26.4479  -31.6596   25.0725 C   0  0  0  0  0  0
  -25.3738  -31.3710   26.1470 C   0  0  0  0  0  0
  -27.0309  -30.3033   24.6117 C   0  0  0  0  0  0
  -27.6054  -32.4317   25.7487 C   0  0  0  0  0  0
  -27.5581  -37.1810   24.8465 C   0  0  0  0  0  0
  -21.4157  -29.3036   22.3713 N   0  0  0  0  0  0
  -26.4295  -37.3791   23.9408 N   0  0  0  0  0  0
  -24.6743  -31.0736   22.0998 N   0  0  0  0  0  0
  -23.4192  -28.8188   23.3022 O   0  0  0  0  0  0
  -28.3399  -26.5796   20.1446 O   0  0  0  0  0  0
  -26.5602  -34.8927   22.4687 O   0  0  0  0  0  0
  -23.5367  -32.1422   23.7461 O   0  0  0  0  0  0
  -32.3133  -18.4046   21.9813 C   0  0  0  0  0  0
  -31.5462  -19.5393   21.6759 C   0  0  0  0  0  0
  -31.7987  -17.1192   21.7553 C   0  0  0  0  0  0
  -29.7120  -18.0999   20.9339 C   0  0  0  0  0  0
  -30.2427  -19.4195   21.1381 C   0  0  0  0  0  0
  -30.5051  -16.9346   21.2148 C   0  0  0  0  0  0
  -28.8529  -22.8984   20.7240 C   0  0  0  0  0  0
  -29.1365  -24.2294   20.6646 C   0  0  0  0  0  0
  -29.8897  -21.8679   20.5942 C   0  0  0  0  0  0
  -28.3021  -17.9429   20.3800 C   0  0  0  0  0  0
  -28.1145  -25.3529   20.8870 C   0  0  0  0  0  0
  -29.4585  -20.6119   20.8892 N   0  0  0  0  0  0
  -30.0150  -15.5884   21.0142 N   0  0  0  0  0  0
  -31.0448  -22.1096   20.2334 O   0  0  0  0  0  0
  -31.4619  -12.4182   19.1324 H   0  0  0  0  0  0
  -30.3152  -11.3307   19.8590 H   0  0  0  0  0  0
  -29.7402  -11.7610   17.4479 H   0  0  0  0  0  0
  -29.6550  -13.4777   17.7567 H   0  0  0  0  0  0
  -27.8384  -11.3008   18.8438 H   0  0  0  0  0  0
  -27.3633  -12.6059   17.7903 H   0  0  0  0  0  0
  -27.6844  -14.2556   19.5423 H   0  0  0  0  0  0
  -28.6844  -12.0244   21.3784 H   0  0  0  0  0  0
  -28.4611  -13.6853   21.8453 H   0  0  0  0  0  0
  -25.2762   -9.5681   22.4763 H   0  0  0  0  0  0
  -24.0001   -7.4632   22.7473 H   0  0  0  0  0  0
  -21.0841   -8.8777   19.8953 H   0  0  0  0  0  0
  -22.3699  -10.9677   19.6169 H   0  0  0  0  0  0
  -21.2006   -7.6148   23.9716 H   0  0  0  0  0  0
  -21.1481   -6.0523   25.9078 H   0  0  0  0  0  0
  -22.0599   -2.7609   23.2848 H   0  0  0  0  0  0
  -22.4100  -11.9889   22.4801 H   0  0  0  0  0  0
  -21.1105  -13.1256   22.2615 H   0  0  0  0  0  0
  -24.6502  -15.8375   20.4963 H   0  0  0  0  0  0
  -26.2575  -15.6187   20.0251 H   0  0  0  0  0  0
  -26.7135  -32.5515   23.1151 H   0  0  0  0  0  0
  -25.0063  -33.9767   25.0466 H   0  0  0  0  0  0
  -22.6981  -31.3078   21.4101 H   0  0  0  0  0  0
  -23.3746  -35.9648   23.3310 H   0  0  0  0  0  0
  -24.3581  -36.8917   22.2051 H   0  0  0  0  0  0
  -23.7245  -37.6520   23.6647 H   0  0  0  0  0  0
  -26.0590  -31.5894   20.6001 H   0  0  0  0  0  0
  -26.8268  -30.8737   21.9887 H   0  0  0  0  0  0
  -28.1063  -29.0618   21.1805 H   0  0  0  0  0  0
  -26.0398  -25.9690   18.9951 H   0  0  0  0  0  0
  -23.9764  -27.3102   19.0135 H   0  0  0  0  0  0
  -23.7278  -30.6026   19.4049 H   0  0  0  0  0  0
  -22.7415  -29.2476   19.8656 H   0  0  0  0  0  0
  -25.1285  -36.1971   25.0828 H   0  0  0  0  0  0
  -20.9961  -28.3240   24.1425 H   0  0  0  0  0  0
  -20.5668  -26.2280   23.3603 H   0  0  0  0  0  0
  -21.6637  -26.7444   22.1206 H   0  0  0  0  0  0
  -19.6909  -25.6300   21.1231 H   0  0  0  0  0  0
  -19.6684  -27.3202   20.6745 H   0  0  0  0  0  0
  -17.4193  -26.6670   21.4024 H   0  0  0  0  0  0
  -18.0326  -26.0061   22.9014 H   0  0  0  0  0  0
  -19.7933  -30.7255   24.2283 H   0  0  0  0  0  0
  -17.5015  -31.6266   24.5163 H   0  0  0  0  0  0
  -15.5349  -30.2993   23.7648 H   0  0  0  0  0  0
  -15.8662  -28.0828   22.7060 H   0  0  0  0  0  0
  -24.5910  -30.7058   25.7808 H   0  0  0  0  0  0
  -24.8931  -32.2867   26.4922 H   0  0  0  0  0  0
  -25.8086  -30.8877   27.0227 H   0  0  0  0  0  0
  -26.2857  -29.6796   24.1165 H   0  0  0  0  0  0
  -27.4063  -29.7271   25.4583 H   0  0  0  0  0  0
  -27.8702  -30.4342   23.9281 H   0  0  0  0  0  0
  -27.2673  -33.3608   26.2086 H   0  0  0  0  0  0
  -28.3851  -32.6890   25.0305 H   0  0  0  0  0  0
  -28.0735  -31.8426   26.5383 H   0  0  0  0  0  0
  -28.2607  -38.0100   24.7507 H   0  0  0  0  0  0
  -28.1068  -36.2631   24.6295 H   0  0  0  0  0  0
  -27.2298  -37.1469   25.8869 H   0  0  0  0  0  0
  -20.9322  -29.8765   21.6938 H   0  0  0  0  0  0
  -26.0185  -38.2870   24.1404 H   0  0  0  0  0  0
  -33.3031  -18.5210   22.4000 H   0  0  0  0  0  0
  -31.9773  -20.5072   21.8881 H   0  0  0  0  0  0
  -32.4175  -16.2713   22.0138 H   0  0  0  0  0  0
  -27.8304  -22.5945   20.8979 H   0  0  0  0  0  0
  -30.1532  -24.5543   20.4929 H   0  0  0  0  0  0
  -27.6227  -18.6779   20.8107 H   0  0  0  0  0  0
  -27.8768  -16.9648   20.5965 H   0  0  0  0  0  0
  -28.3098  -18.0774   19.2983 H   0  0  0  0  0  0
  -28.1497  -25.6116   21.9461 H   0  0  0  0  0  0
  -27.1226  -24.9332   20.7168 H   0  0  0  0  0  0
  -28.4600  -20.5131   21.0017 H   0  0  0  0  0  0
  -29.0342  -15.4304   21.1835 H   0  0  0  0  0  0
  1 25  1  0  0  0
  1 30  2  0  0  0
  1 83  1  0  0  0
  2  3  1  0  0  0
  2 25  1  0  0  0
  2 85  1  0  0  0
  2 86  1  0  0  0
  3  4  1  0  0  0
  3 87  1  0  0  0
  3 88  1  0  0  0
  4  5  1  0  0  0
  4 89  1  0  0  0
  4 90  1  0  0  0
  5  6  1  0  0  0
  5 26  1  0  0  0
  5 91  1  0  0  0
  6 25  1  0  0  0
  6 92  1  0  0  0
  6 93  1  0  0  0
  7  8  2  0  0  0
  7 26  1  0  0  0
  7 29  1  0  0  0
  8  9  1  0  0  0
  8 22  1  0  0  0
  9 10  1  0  0  0
  9 27  2  0  0  0
 10 11  2  0  0  0
 10 15  1  0  0  0
 11 12  1  0  0  0
 11 94  1  0  0  0
 12 13  2  0  0  0
 12 95  1  0  0  0
 13 14  1  0  0  0
 13 31  1  0  0  0
 14 15  2  0  0  0
 14 96  1  0  0  0
 15 97  1  0  0  0
 16 17  2  0  0  0
 16 21  1  0  0  0
 16 31  1  0  0  0
 17 18  1  0  0  0
 17 98  1  0  0  0
 18 19  2  0  0  0
 18 99  1  0  0  0
 19 20  1  0  0  0
 19 24  1  0  0  0
 20 21  2  0  0  0
 20100  1  0  0  0
 21 23  1  0  0  0
 22 28  1  0  0  0
 22 32  2  0  0  0
 26 27  1  0  0  0
 28101  1  0  0  0
 28102  1  0  0  0
 29103  1  0  0  0
 29104  1  0  0  0
 33 34  1  0  0  0
 33 66  1  0  0  0
 33 70  2  0  0  0
 34 36  1  0  0  0
 34 59  1  0  0  0
 34105  1  0  0  0
 35 44  2  0  0  0
 35 45  1  0  0  0
 35 68  1  0  0  0
 36 56  1  0  0  0
 36106  1  0  0  0
 37 39  1  0  0  0
 37 47  1  0  0  0
 37 66  1  0  0  0
 37107  1  0  0  0
 38 43  2  0  0  0
 38 46  1  0  0  0
 38 47  1  0  0  0
 39 64  1  0  0  0
 39 67  2  0  0  0
 40 52  1  0  0  0
 40 53  2  0  0  0
 40 58  1  0  0  0
 41108  1  0  0  0
 41109  1  0  0  0
 41110  1  0  0  0
 41 48  1  0  0  0
 42 43  1  0  0  0
 42 66  1  0  0  0
 42111  1  0  0  0
 42112  1  0  0  0
 43 44  1  0  0  0
 44113  1  0  0  0
 45 46  2  0  0  0
 45114  1  0  0  0
 46115  1  0  0  0
 47116  1  0  0  0
 47117  1  0  0  0
 48 56  1  0  0  0
 48 65  1  0  0  0
 48118  1  0  0  0
 49 50  1  0  0  0
 49 53  1  0  0  0
 49 64  1  0  0  0
 49119  1  0  0  0
 50 51  1  0  0  0
 50120  1  0  0  0
 50121  1  0  0  0
 51 52  1  0  0  0
 51122  1  0  0  0
 51123  1  0  0  0
 52124  1  0  0  0
 52125  1  0  0  0
 53 54  1  0  0  0
 54 55  2  0  0  0
 54126  1  0  0  0
 55 57  1  0  0  0
 55127  1  0  0  0
 56 69  2  0  0  0
 57 58  2  0  0  0
 57128  1  0  0  0
 58129  1  0  0  0
 59 60  1  0  0  0
 59 61  1  0  0  0
 59 62  1  0  0  0
 60130  1  0  0  0
 60131  1  0  0  0
 60132  1  0  0  0
 61133  1  0  0  0
 61134  1  0  0  0
 61135  1  0  0  0
 62136  1  0  0  0
 62137  1  0  0  0
 62138  1  0  0  0
 63 65  1  0  0  0
 63139  1  0  0  0
 63140  1  0  0  0
 63141  1  0  0  0
 64142  1  0  0  0
 65143  1  0  0  0
 68 81  1  0  0  0
 71 72  2  0  0  0
 71 73  1  0  0  0
 71144  1  0  0  0
 72 75  1  0  0  0
 72145  1  0  0  0
 73 76  2  0  0  0
 73146  1  0  0  0
 74 75  2  0  0  0
 74 76  1  0  0  0
 74 80  1  0  0  0
 75 82  1  0  0  0
 76 83  1  0  0  0
 77 78  2  0  0  0
 77 79  1  0  0  0
 77147  1  0  0  0
 78 81  1  0  0  0
 78148  1  0  0  0
 79 82  1  0  0  0
 79 84  2  0  0  0
 80149  1  0  0  0
 80150  1  0  0  0
 80151  1  0  0  0
 81152  1  0  0  0
 81153  1  0  0  0
 82154  1  0  0  0
 83155  1  0  0  0
M  ISO  4   1 100  68 101  81 101  83 100
M  END
> <chiral flag>
0

> <version>
0

> <s_m_source_file>
/data/baiqing/PycharmProjects/Reinvent-master-3.2/result/LINK_invent/BTK/process_docking_weight1_custom_product_contain_oxygen_bond_distance_aromatic_linkinvent_7_9_3/rearranged_h_0056.sdf

> <i_m_source_file_index>
14

> <r_mmod_Potential_Energy-OPLS-2005>
-74.8466110229492

> <r_mmod_Stretch_Energy-OPLS-2005>
51.0112075805664

> <r_mmod_Bend_Energy-OPLS-2005>
97.910888671875

> <r_mmod_Torsional_Energy-OPLS-2005>
252.653030395508

> <r_mmod_Improper_Torsional_Energy-OPLS-2005>
4.76074838638306

> <r_mmod_Van_der_Waal_Energy-OPLS-2005>
161.103469848633

> <r_mmod_Electrostatic_Energy-OPLS-2005>
-429.371063232422

> <r_mmod_Solvation_Energy-OPLS-2005>
-235.198303222656

> <b_mmod_Minimization_Converged-OPLS-2005>
0

> <r_mmod_RMS_Derivative-OPLS-2005>
0.32180991768837

$$$$
14
                    3D
 Structure written by MMmdl.
151159  0  0  1  0            999 V2000
  -30.5505  -14.8082   20.4769 C   0  0  0  0  0  0
  -30.4422  -12.5065   19.4592 C   0  0  0  0  0  0
  -29.5140  -12.5426   18.2251 C   0  0  0  0  0  0
  -28.0340  -12.3694   18.6245 C   0  0  0  0  0  0
  -27.6377  -13.2387   19.8473 C   0  0  2  0  0  0
  -28.6850  -13.1646   20.9786 C   0  0  0  0  0  0
  -25.2496  -13.8201   20.5657 C   0  0  0  0  0  0
  -24.1808  -13.0414   20.9187 C   0  0  0  0  0  0
  -24.6423  -11.6909   20.8736 C   0  0  0  0  0  0
  -23.9098  -10.4282   21.0417 C   0  0  0  0  0  0
  -24.3638   -9.4189   21.9189 C   0  0  0  0  0  0
  -23.6296   -8.2230   22.0763 C   0  0  0  0  0  0
  -22.4284   -8.0278   21.3536 C   0  0  0  0  0  0
  -21.9928   -9.0265   20.4653 C   0  0  0  0  0  0
  -22.7268  -10.2139   20.3065 C   0  0  0  0  0  0
  -21.6852   -6.0730   22.5279 C   0  0  0  0  0  0
  -21.4037   -6.5642   23.8210 C   0  0  0  0  0  0
  -21.3660   -5.6800   24.9168 C   0  0  0  0  0  0
  -21.6030   -4.3058   24.7216 C   0  0  0  0  0  0
  -21.8834   -3.8145   23.4341 C   0  0  0  0  0  0
  -21.9211   -4.6962   22.3401 C   0  0  0  0  0  0
  -22.7837  -13.5197   21.1841 C   0  0  0  0  0  0
  -22.1668   -4.2148   21.0977 F   0  0  0  0  0  0
  -21.5612   -3.4551   25.7725 F   0  0  0  0  0  0
  -29.9697  -13.5594   20.3910 N   0  0  0  0  0  0
  -26.2922  -12.9414   20.3237 N   0  0  0  0  0  0
  -25.9349  -11.6552   20.5699 N   0  0  0  0  0  0
  -22.0509  -12.8186   22.0404 N   0  0  0  0  0  0
  -25.4146  -15.1931   20.4071 N   0  0  0  0  0  0
  -31.7553  -14.9300   20.2216 O   0  0  0  0  0  0
  -21.6634   -6.8883   21.4239 O   0  0  0  0  0  0
  -22.3507  -14.5490   20.6692 O   0  0  0  0  0  0
  -24.6364  -31.8496   23.1957 C   0  0  0  0  0  0
  -25.9167  -32.4731   23.8321 C   0  0  1  0  0  0
  -27.2071  -27.2206   20.1367 C   0  0  0  0  0  0
  -25.5941  -33.8524   24.2238 N   0  0  0  0  0  0
  -23.4351  -30.4737   21.5368 C   0  0  2  0  0  0
  -24.8792  -28.9082   20.1151 C   0  0  0  0  0  0
  -22.7507  -29.4582   22.4871 C   0  0  0  0  0  0
  -18.0294  -28.1405   22.8475 C   0  0  0  0  0  0
  -24.1491  -36.7278   23.2644 C   0  0  0  0  0  0
  -25.9840  -30.7470   21.3843 C   0  0  0  0  0  0
  -26.0520  -29.3631   20.7341 C   0  0  0  0  0  0
  -27.2209  -28.5280   20.7403 C   0  0  0  0  0  0
  -26.0188  -26.8453   19.4832 C   0  0  0  0  0  0
  -24.8679  -27.6565   19.4823 C   0  0  0  0  0  0
  -23.6576  -29.8066   20.1541 C   0  0  0  0  0  0
  -25.4118  -36.3061   24.0333 C   0  0  1  0  0  0
  -20.5892  -28.3723   23.1239 C   0  0  2  0  0  0
  -20.6768  -26.9439   22.5390 C   0  0  0  0  0  0
  -19.5750  -26.6386   21.5199 C   0  0  0  0  0  0
  -18.1933  -26.7935   22.1610 C   0  0  0  0  0  0
  -19.1544  -28.8883   23.2846 C   0  0  0  0  0  0
  -18.9465  -30.1464   23.8901 C   0  0  0  0  0  0
  -17.6467  -30.6594   24.0569 C   0  0  0  0  0  0
  -25.9056  -34.9425   23.5091 C   0  0  0  0  0  0
  -16.5361  -29.9098   23.6329 C   0  0  0  0  0  0
  -16.7281  -28.6507   23.0370 C   0  0  0  0  0  0
  -26.4520  -31.6574   25.0730 C   0  0  0  0  0  0
  -25.3737  -31.3739   26.1450 C   0  0  0  0  0  0
  -27.0365  -30.2976   24.6269 C   0  0  0  0  0  0
  -27.6055  -32.4324   25.7523 C   0  0  0  0  0  0
  -27.5584  -37.1799   24.8459 C   0  0  0  0  0  0
  -21.4210  -29.3060   22.3609 N   0  0  0  0  0  0
  -26.4294  -37.3757   23.9412 N   0  0  0  0  0  0
  -24.7048  -31.0426   22.0951 N   0  0  0  0  0  0
  -23.4173  -28.8122   23.3000 O   0  0  0  0  0  0
  -28.2742  -26.2893   20.1004 O   0  0  0  0  0  0
  -26.5617  -34.8906   22.4657 O   0  0  0  0  0  0
  -23.5497  -32.1345   23.7214 O   0  0  0  0  0  0
  -30.7965  -17.6455   21.9756 C   0  0  0  0  0  0
  -30.9860  -18.9613   22.4504 C   0  0  0  0  0  0
  -29.2434  -18.5405   20.3257 C   0  0  0  0  0  0
  -29.9256  -17.3668   20.9007 C   0  0  0  0  0  0
  -29.4366  -19.9245   20.7921 C   0  0  0  0  0  0
  -30.3384  -20.0717   21.8741 C   0  0  0  0  0  0
  -28.5254  -23.8365   20.1741 C   0  0  0  0  0  0
  -28.4359  -22.3499   20.8342 C   0  0  0  0  0  0
  -29.3497  -23.9507   18.9052 C   0  0  0  0  0  0
  -27.9683  -24.9383   20.6760 N   0  0  0  0  0  0
  -28.9070  -21.1982   20.1881 N   0  0  0  0  0  0
  -29.7014  -15.9215   20.5588 N   0  0  0  0  0  0
  -27.8921  -22.2364   21.9376 O   0  0  0  0  0  0
  -30.6436  -21.3051   22.3486 F   0  0  0  0  0  0
  -31.4759  -12.6686   19.1496 H   0  0  0  0  0  0
  -30.4181  -11.5250   19.9359 H   0  0  0  0  0  0
  -29.7995  -11.7801   17.5003 H   0  0  0  0  0  0
  -29.6421  -13.4992   17.7180 H   0  0  0  0  0  0
  -27.8586  -11.3146   18.8384 H   0  0  0  0  0  0
  -27.3942  -12.6197   17.7762 H   0  0  0  0  0  0
  -27.6227  -14.2634   19.4778 H   0  0  0  0  0  0
  -28.7442  -12.1573   21.3921 H   0  0  0  0  0  0
  -28.4133  -13.8210   21.8069 H   0  0  0  0  0  0
  -25.2802   -9.5639   22.4740 H   0  0  0  0  0  0
  -23.9994   -7.4636   22.7498 H   0  0  0  0  0  0
  -21.0853   -8.8805   19.8971 H   0  0  0  0  0  0
  -22.3752  -10.9673   19.6158 H   0  0  0  0  0  0
  -21.2042   -7.6164   23.9705 H   0  0  0  0  0  0
  -21.1454   -6.0530   25.9067 H   0  0  0  0  0  0
  -22.0618   -2.7609   23.2842 H   0  0  0  0  0  0
  -22.4171  -11.9837   22.4738 H   0  0  0  0  0  0
  -21.1146  -13.1217   22.2670 H   0  0  0  0  0  0
  -24.6393  -15.8391   20.5056 H   0  0  0  0  0  0
  -26.2346  -15.6314   20.0092 H   0  0  0  0  0  0
  -26.7235  -32.5350   23.1055 H   0  0  0  0  0  0
  -25.0123  -33.9625   25.0419 H   0  0  0  0  0  0
  -22.7377  -31.3003   21.3859 H   0  0  0  0  0  0
  -23.3755  -35.9601   23.3288 H   0  0  0  0  0  0
  -24.3585  -36.8907   22.2062 H   0  0  0  0  0  0
  -23.7229  -37.6471   23.6674 H   0  0  0  0  0  0
  -26.1273  -31.5011   20.6086 H   0  0  0  0  0  0
  -26.8582  -30.7949   22.0243 H   0  0  0  0  0  0
  -28.1219  -28.8683   21.2314 H   0  0  0  0  0  0
  -25.9711  -25.8874   18.9850 H   0  0  0  0  0  0
  -23.9707  -27.3041   18.9937 H   0  0  0  0  0  0
  -23.7966  -30.5801   19.3976 H   0  0  0  0  0  0
  -22.7742  -29.2470   19.8437 H   0  0  0  0  0  0
  -25.1302  -36.1923   25.0826 H   0  0  0  0  0  0
  -20.9983  -28.3316   24.1361 H   0  0  0  0  0  0
  -20.5657  -26.2346   23.3596 H   0  0  0  0  0  0
  -21.6644  -26.7432   22.1218 H   0  0  0  0  0  0
  -19.6911  -25.6287   21.1247 H   0  0  0  0  0  0
  -19.6710  -27.3173   20.6720 H   0  0  0  0  0  0
  -17.4197  -26.6683   21.4018 H   0  0  0  0  0  0
  -18.0362  -26.0082   22.9025 H   0  0  0  0  0  0
  -19.7946  -30.7264   24.2302 H   0  0  0  0  0  0
  -17.5031  -31.6287   24.5169 H   0  0  0  0  0  0
  -15.5364  -30.3020   23.7647 H   0  0  0  0  0  0
  -15.8669  -28.0808   22.7129 H   0  0  0  0  0  0
  -24.5902  -30.7101   25.7788 H   0  0  0  0  0  0
  -24.8958  -32.2909   26.4900 H   0  0  0  0  0  0
  -25.8058  -30.8901   27.0220 H   0  0  0  0  0  0
  -26.2955  -29.6719   24.1284 H   0  0  0  0  0  0
  -27.3991  -29.7274   25.4834 H   0  0  0  0  0  0
  -27.8866  -30.4231   23.9558 H   0  0  0  0  0  0
  -27.2646  -33.3626   26.2096 H   0  0  0  0  0  0
  -28.3892  -32.6876   25.0374 H   0  0  0  0  0  0
  -28.0701  -31.8448   26.5458 H   0  0  0  0  0  0
  -28.2590  -38.0112   24.7515 H   0  0  0  0  0  0
  -28.1089  -36.2634   24.6281 H   0  0  0  0  0  0
  -27.2284  -37.1450   25.8854 H   0  0  0  0  0  0
  -20.9413  -29.8830   21.6838 H   0  0  0  0  0  0
  -26.0173  -38.2826   24.1413 H   0  0  0  0  0  0
  -31.3111  -16.8393   22.4788 H   0  0  0  0  0  0
  -31.6597  -19.1304   23.2779 H   0  0  0  0  0  0
  -28.5608  -18.3760   19.5026 H   0  0  0  0  0  0
  -29.7264  -22.9908   18.5598 H   0  0  0  0  0  0
  -30.2088  -24.6010   19.0738 H   0  0  0  0  0  0
  -28.7428  -24.3752   18.1083 H   0  0  0  0  0  0
  -29.0555  -21.2953   19.1927 H   0  0  0  0  0  0
  -28.7283  -15.6665   20.4911 H   0  0  0  0  0  0
  1 25  1  0  0  0
  1 30  2  0  0  0
  1 82  1  0  0  0
  2  3  1  0  0  0
  2 25  1  0  0  0
  2 85  1  0  0  0
  2 86  1  0  0  0
  3  4  1  0  0  0
  3 87  1  0  0  0
  3 88  1  0  0  0
  4  5  1  0  0  0
  4 89  1  0  0  0
  4 90  1  0  0  0
  5  6  1  0  0  0
  5 26  1  0  0  0
  5 91  1  0  0  0
  6 25  1  0  0  0
  6 92  1  0  0  0
  6 93  1  0  0  0
  7  8  2  0  0  0
  7 26  1  0  0  0
  7 29  1  0  0  0
  8  9  1  0  0  0
  8 22  1  0  0  0
  9 10  1  0  0  0
  9 27  2  0  0  0
 10 11  2  0  0  0
 10 15  1  0  0  0
 11 12  1  0  0  0
 11 94  1  0  0  0
 12 13  2  0  0  0
 12 95  1  0  0  0
 13 14  1  0  0  0
 13 31  1  0  0  0
 14 15  2  0  0  0
 14 96  1  0  0  0
 15 97  1  0  0  0
 16 17  2  0  0  0
 16 21  1  0  0  0
 16 31  1  0  0  0
 17 18  1  0  0  0
 17 98  1  0  0  0
 18 19  2  0  0  0
 18 99  1  0  0  0
 19 20  1  0  0  0
 19 24  1  0  0  0
 20 21  2  0  0  0
 20100  1  0  0  0
 21 23  1  0  0  0
 22 28  1  0  0  0
 22 32  2  0  0  0
 26 27  1  0  0  0
 28101  1  0  0  0
 28102  1  0  0  0
 29103  1  0  0  0
 29104  1  0  0  0
 33 34  1  0  0  0
 33 66  1  0  0  0
 33 70  2  0  0  0
 34 36  1  0  0  0
 34 59  1  0  0  0
 34105  1  0  0  0
 35 44  2  0  0  0
 35 45  1  0  0  0
 35 68  1  0  0  0
 36 56  1  0  0  0
 36106  1  0  0  0
 37 39  1  0  0  0
 37 47  1  0  0  0
 37 66  1  0  0  0
 37107  1  0  0  0
 38 43  2  0  0  0
 38 46  1  0  0  0
 38 47  1  0  0  0
 39 64  1  0  0  0
 39 67  2  0  0  0
 40 52  1  0  0  0
 40 53  2  0  0  0
 40 58  1  0  0  0
 41108  1  0  0  0
 41109  1  0  0  0
 41110  1  0  0  0
 41 48  1  0  0  0
 42 43  1  0  0  0
 42 66  1  0  0  0
 42111  1  0  0  0
 42112  1  0  0  0
 43 44  1  0  0  0
 44113  1  0  0  0
 45 46  2  0  0  0
 45114  1  0  0  0
 46115  1  0  0  0
 47116  1  0  0  0
 47117  1  0  0  0
 48 56  1  0  0  0
 48 65  1  0  0  0
 48118  1  0  0  0
 49 50  1  0  0  0
 49 53  1  0  0  0
 49 64  1  0  0  0
 49119  1  0  0  0
 50 51  1  0  0  0
 50120  1  0  0  0
 50121  1  0  0  0
 51 52  1  0  0  0
 51122  1  0  0  0
 51123  1  0  0  0
 52124  1  0  0  0
 52125  1  0  0  0
 53 54  1  0  0  0
 54 55  2  0  0  0
 54126  1  0  0  0
 55 57  1  0  0  0
 55127  1  0  0  0
 56 69  2  0  0  0
 57 58  2  0  0  0
 57128  1  0  0  0
 58129  1  0  0  0
 59 60  1  0  0  0
 59 61  1  0  0  0
 59 62  1  0  0  0
 60130  1  0  0  0
 60131  1  0  0  0
 60132  1  0  0  0
 61133  1  0  0  0
 61134  1  0  0  0
 61135  1  0  0  0
 62136  1  0  0  0
 62137  1  0  0  0
 62138  1  0  0  0
 63 65  1  0  0  0
 63139  1  0  0  0
 63140  1  0  0  0
 63141  1  0  0  0
 64142  1  0  0  0
 65143  1  0  0  0
 68 80  1  0  0  0
 71 72  2  0  0  0
 71 74  1  0  0  0
 71144  1  0  0  0
 72 76  1  0  0  0
 72145  1  0  0  0
 73 74  2  0  0  0
 73 75  1  0  0  0
 73146  1  0  0  0
 74 82  1  0  0  0
 75 76  2  0  0  0
 75 81  1  0  0  0
 76 84  1  0  0  0
 77 78  1  0  0  0
 77 79  1  0  0  0
 77 80  2  0  0  0
 78 81  1  0  0  0
 78 83  2  0  0  0
 79147  1  0  0  0
 79148  1  0  0  0
 79149  1  0  0  0
 81150  1  0  0  0
 82151  1  0  0  0
M  ISO  4   1 100  68 101  80 101  82 100
M  END
> <chiral flag>
0

> <version>
0

> <s_m_source_file>
/data/baiqing/PycharmProjects/Reinvent-master-3.2/result/LINK_invent/BTK/process_docking_weight1_custom_product_contain_oxygen_bond_distance_aromatic_linkinvent_7_9_3/rearranged_h_0056.sdf

> <i_m_source_file_index>
15

> <r_mmod_Potential_Energy-OPLS-2005>
245.234588623047

> <r_mmod_Stretch_Energy-OPLS-2005>
165.414886474609

> <r_mmod_Bend_Energy-OPLS-2005>
175.477096557617

> <r_mmod_Torsional_Energy-OPLS-2005>
264.991577148438

> <r_mmod_Improper_Torsional_Energy-OPLS-2005>
8.85708713531494

> <r_mmod_Van_der_Waal_Energy-OPLS-2005>
137.563507080078

> <r_mmod_Electrostatic_Energy-OPLS-2005>
-364.249725341797

> <r_mmod_Solvation_Energy-OPLS-2005>
-257.649627685547

> <b_mmod_Minimization_Converged-OPLS-2005>
0

> <r_mmod_RMS_Derivative-OPLS-2005>
3.88784527778625

$$$$
15
                    3D
 Structure written by MMmdl.
163171  0  0  1  0            999 V2000
  -30.7403  -14.3775   20.6852 C   0  0  0  0  0  0
  -30.4129  -12.3011   19.3859 C   0  0  0  0  0  0
  -29.4760  -12.5447   18.1876 C   0  0  0  0  0  0
  -28.0004  -12.3962   18.6045 C   0  0  0  0  0  0
  -27.6614  -13.2025   19.8853 C   0  0  2  0  0  0
  -28.7009  -12.9251   20.9934 C   0  0  0  0  0  0
  -25.2584  -13.8157   20.5665 C   0  0  0  0  0  0
  -24.1824  -13.0443   20.9158 C   0  0  0  0  0  0
  -24.6356  -11.6905   20.8709 C   0  0  0  0  0  0
  -23.9027  -10.4298   21.0390 C   0  0  0  0  0  0
  -24.3583   -9.4227   21.9182 C   0  0  0  0  0  0
  -23.6270   -8.2256   22.0754 C   0  0  0  0  0  0
  -22.4272   -8.0273   21.3525 C   0  0  0  0  0  0
  -21.9890   -9.0243   20.4640 C   0  0  0  0  0  0
  -22.7198  -10.2129   20.3048 C   0  0  0  0  0  0
  -21.6846   -6.0722   22.5270 C   0  0  0  0  0  0
  -21.4020   -6.5638   23.8201 C   0  0  0  0  0  0
  -21.3667   -5.6798   24.9165 C   0  0  0  0  0  0
  -21.6041   -4.3056   24.7227 C   0  0  0  0  0  0
  -21.8822   -3.8142   23.4346 C   0  0  0  0  0  0
  -21.9200   -4.6953   22.3392 C   0  0  0  0  0  0
  -22.7852  -13.5235   21.1840 C   0  0  0  0  0  0
  -22.1664   -4.2134   21.0970 F   0  0  0  0  0  0
  -21.5637   -3.4547   25.7740 F   0  0  0  0  0  0
  -30.0382  -13.2372   20.4553 N   0  0  0  0  0  0
  -26.3001  -12.9314   20.3396 N   0  0  0  0  0  0
  -25.9287  -11.6473   20.5758 N   0  0  0  0  0  0
  -22.0496  -12.8211   22.0388 N   0  0  0  0  0  0
  -25.4336  -15.1872   20.4044 N   0  0  0  0  0  0
  -31.7946  -14.6456   20.0960 O   0  0  0  0  0  0
  -21.6641   -6.8862   21.4221 O   0  0  0  0  0  0
  -22.3544  -14.5545   20.6708 O   0  0  0  0  0  0
  -24.6096  -31.8686   23.2107 C   0  0  0  0  0  0
  -25.9008  -32.4822   23.8381 C   0  0  1  0  0  0
  -27.2433  -27.4523   20.0788 C   0  0  0  0  0  0
  -25.5852  -33.8604   24.2299 N   0  0  0  0  0  0
  -23.3953  -30.4899   21.5524 C   0  0  2  0  0  0
  -24.8428  -28.9495   20.1225 C   0  0  0  0  0  0
  -22.7353  -29.4667   22.5024 C   0  0  0  0  0  0
  -18.0251  -28.1371   22.8527 C   0  0  0  0  0  0
  -24.1484  -36.7324   23.2632 C   0  0  0  0  0  0
  -25.9218  -30.8346   21.3642 C   0  0  0  0  0  0
  -25.9983  -29.4674   20.7164 C   0  0  0  0  0  0
  -27.1951  -28.7194   20.7028 C   0  0  0  0  0  0
  -26.0632  -26.9377   19.4932 C   0  0  0  0  0  0
  -24.8644  -27.6798   19.5190 C   0  0  0  0  0  0
  -23.6031  -29.8125   20.1724 C   0  0  0  0  0  0
  -25.4116  -36.3086   24.0312 C   0  0  1  0  0  0
  -20.5841  -28.3650   23.1353 C   0  0  2  0  0  0
  -20.6766  -26.9405   22.5413 C   0  0  0  0  0  0
  -19.5736  -26.6402   21.5216 C   0  0  0  0  0  0
  -18.1917  -26.7933   22.1635 C   0  0  0  0  0  0
  -19.1499  -28.8828   23.2943 C   0  0  0  0  0  0
  -18.9441  -30.1446   23.8940 C   0  0  0  0  0  0
  -17.6456  -30.6610   24.0578 C   0  0  0  0  0  0
  -25.9031  -34.9450   23.5109 C   0  0  0  0  0  0
  -16.5334  -29.9111   23.6354 C   0  0  0  0  0  0
  -16.7246  -28.6515   23.0391 C   0  0  0  0  0  0
  -26.4447  -31.6608   25.0699 C   0  0  0  0  0  0
  -25.3693  -31.3712   26.1428 C   0  0  0  0  0  0
  -27.0306  -30.3037   24.6103 C   0  0  0  0  0  0
  -27.6004  -32.4318   25.7498 C   0  0  0  0  0  0
  -27.5582  -37.1824   24.8456 C   0  0  0  0  0  0
  -21.4083  -29.3027   22.3759 N   0  0  0  0  0  0
  -26.4299  -37.3777   23.9384 N   0  0  0  0  0  0
  -24.6599  -31.0778   22.1012 N   0  0  0  0  0  0
  -23.4149  -28.8211   23.3045 O   0  0  0  0  0  0
  -28.4583  -26.7973   20.0658 O   0  0  0  0  0  0
  -26.5619  -34.8910   22.4689 O   0  0  0  0  0  0
  -23.5294  -32.1427   23.7514 O   0  0  0  0  0  0
  -32.5672  -17.7450   22.9477 C   0  0  0  0  0  0
  -31.7577  -18.8938   22.9651 C   0  0  0  0  0  0
  -32.0421  -16.5276   22.4858 C   0  0  0  0  0  0
  -30.4095  -18.8362   22.5462 C   0  0  0  0  0  0
  -29.8686  -17.5975   22.0947 C   0  0  0  0  0  0
  -30.7041  -16.4497   22.0382 C   0  0  0  0  0  0
  -28.6459  -21.9742   21.2829 C   0  0  0  0  0  0
  -28.4095  -17.4734   21.6612 C   0  0  0  0  0  0
  -30.3992  -20.5226   20.2445 C   0  0  0  0  0  0
  -29.5924  -20.1346   22.5939 C   0  0  0  0  0  0
  -28.7268  -22.9884   20.1214 C   0  0  0  0  0  0
  -28.2094  -24.4009   20.4991 C   0  0  0  0  0  0
  -28.5923  -25.4971   19.4869 C   0  0  0  0  0  0
  -30.1832  -15.2101   21.5815 N   0  0  0  0  0  0
  -29.4896  -20.9097   21.3350 N   0  0  0  0  0  0
  -27.8235  -22.1897   22.1796 O   0  0  0  0  0  0
  -31.4539  -12.4143   19.0764 H   0  0  0  0  0  0
  -30.3203  -11.2734   19.7412 H   0  0  0  0  0  0
  -29.7081  -11.8566   17.3745 H   0  0  0  0  0  0
  -29.6422  -13.5501   17.7941 H   0  0  0  0  0  0
  -27.7989  -11.3366   18.7646 H   0  0  0  0  0  0
  -27.3481  -12.7091   17.7873 H   0  0  0  0  0  0
  -27.7238  -14.2587   19.6250 H   0  0  0  0  0  0
  -28.6706  -11.8748   21.2852 H   0  0  0  0  0  0
  -28.4482  -13.4755   21.9025 H   0  0  0  0  0  0
  -25.2721   -9.5726   22.4770 H   0  0  0  0  0  0
  -23.9991   -7.4658   22.7486 H   0  0  0  0  0  0
  -21.0827   -8.8739   19.8939 H   0  0  0  0  0  0
  -22.3636  -10.9667   19.6162 H   0  0  0  0  0  0
  -21.2013   -7.6152   23.9687 H   0  0  0  0  0  0
  -21.1492   -6.0539   25.9067 H   0  0  0  0  0  0
  -22.0602   -2.7604   23.2849 H   0  0  0  0  0  0
  -22.4123  -11.9840   22.4710 H   0  0  0  0  0  0
  -21.1117  -13.1225   22.2629 H   0  0  0  0  0  0
  -24.6653  -15.8439   20.4941 H   0  0  0  0  0  0
  -26.2847  -15.6146   20.0618 H   0  0  0  0  0  0
  -26.7061  -32.5558   23.1143 H   0  0  0  0  0  0
  -24.9869  -33.9737   25.0348 H   0  0  0  0  0  0
  -22.6809  -31.3044   21.4124 H   0  0  0  0  0  0
  -23.3715  -35.9684   23.3238 H   0  0  0  0  0  0
  -24.3545  -36.9022   22.2052 H   0  0  0  0  0  0
  -23.7283  -37.6519   23.6719 H   0  0  0  0  0  0
  -26.0211  -31.5969   20.5901 H   0  0  0  0  0  0
  -26.8131  -30.8932   21.9782 H   0  0  0  0  0  0
  -28.0885  -29.1141   21.1673 H   0  0  0  0  0  0
  -26.0467  -25.9725   19.0108 H   0  0  0  0  0  0
  -23.9686  -27.2714   19.0708 H   0  0  0  0  0  0
  -23.7041  -30.5798   19.4039 H   0  0  0  0  0  0
  -22.7305  -29.2203   19.8931 H   0  0  0  0  0  0
  -25.1312  -36.1933   25.0807 H   0  0  0  0  0  0
  -20.9929  -28.3228   24.1468 H   0  0  0  0  0  0
  -20.5729  -26.2237   23.3570 H   0  0  0  0  0  0
  -21.6637  -26.7525   22.1170 H   0  0  0  0  0  0
  -19.6894  -25.6331   21.1211 H   0  0  0  0  0  0
  -19.6672  -27.3235   20.6769 H   0  0  0  0  0  0
  -17.4188  -26.6684   21.4023 H   0  0  0  0  0  0
  -18.0296  -26.0065   22.9014 H   0  0  0  0  0  0
  -19.7917  -30.7252   24.2305 H   0  0  0  0  0  0
  -17.5024  -31.6299   24.5159 H   0  0  0  0  0  0
  -15.5342  -30.3046   23.7668 H   0  0  0  0  0  0
  -15.8626  -28.0867   22.7108 H   0  0  0  0  0  0
  -24.5846  -30.7107   25.7732 H   0  0  0  0  0  0
  -24.8900  -32.2863   26.4893 H   0  0  0  0  0  0
  -25.7990  -30.8836   27.0181 H   0  0  0  0  0  0
  -26.2893  -29.6758   24.1131 H   0  0  0  0  0  0
  -27.4028  -29.7315   25.4622 H   0  0  0  0  0  0
  -27.8734  -30.4319   23.9298 H   0  0  0  0  0  0
  -27.2636  -33.3652   26.2019 H   0  0  0  0  0  0
  -28.3874  -32.6799   25.0364 H   0  0  0  0  0  0
  -28.0581  -31.8445   26.5470 H   0  0  0  0  0  0
  -28.2587  -38.0137   24.7522 H   0  0  0  0  0  0
  -28.1096  -36.2653   24.6289 H   0  0  0  0  0  0
  -27.2259  -37.1503   25.8850 H   0  0  0  0  0  0
  -20.9213  -29.8703   21.6971 H   0  0  0  0  0  0
  -26.0154  -38.2846   24.1368 H   0  0  0  0  0  0
  -33.5945  -17.7948   23.2835 H   0  0  0  0  0  0
  -32.1827  -19.8269   23.3074 H   0  0  0  0  0  0
  -32.6764  -15.6505   22.4795 H   0  0  0  0  0  0
  -27.8463  -16.9054   22.4039 H   0  0  0  0  0  0
  -28.3380  -16.9465   20.7093 H   0  0  0  0  0  0
  -27.9076  -18.4299   21.5242 H   0  0  0  0  0  0
  -30.2861  -21.0868   19.3223 H   0  0  0  0  0  0
  -30.2431  -19.4789   19.9702 H   0  0  0  0  0  0
  -31.4344  -20.6312   20.5723 H   0  0  0  0  0  0
  -30.0488  -20.7940   23.3352 H   0  0  0  0  0  0
  -28.6049  -19.9127   22.9996 H   0  0  0  0  0  0
  -28.1804  -22.5968   19.2615 H   0  0  0  0  0  0
  -29.7689  -23.0967   19.8212 H   0  0  0  0  0  0
  -28.6309  -24.6774   21.4657 H   0  0  0  0  0  0
  -27.1275  -24.3814   20.6307 H   0  0  0  0  0  0
  -28.0690  -25.3948   18.5355 H   0  0  0  0  0  0
  -29.6495  -25.3935   19.2393 H   0  0  0  0  0  0
  -29.2568  -14.9635   21.8925 H   0  0  0  0  0  0
  1 25  1  0  0  0
  1 30  2  0  0  0
  1 84  1  0  0  0
  2  3  1  0  0  0
  2 25  1  0  0  0
  2 87  1  0  0  0
  2 88  1  0  0  0
  3  4  1  0  0  0
  3 89  1  0  0  0
  3 90  1  0  0  0
  4  5  1  0  0  0
  4 91  1  0  0  0
  4 92  1  0  0  0
  5  6  1  0  0  0
  5 26  1  0  0  0
  5 93  1  0  0  0
  6 25  1  0  0  0
  6 94  1  0  0  0
  6 95  1  0  0  0
  7  8  2  0  0  0
  7 26  1  0  0  0
  7 29  1  0  0  0
  8  9  1  0  0  0
  8 22  1  0  0  0
  9 10  1  0  0  0
  9 27  2  0  0  0
 10 11  2  0  0  0
 10 15  1  0  0  0
 11 12  1  0  0  0
 11 96  1  0  0  0
 12 13  2  0  0  0
 12 97  1  0  0  0
 13 14  1  0  0  0
 13 31  1  0  0  0
 14 15  2  0  0  0
 14 98  1  0  0  0
 15 99  1  0  0  0
 16 17  2  0  0  0
 16 21  1  0  0  0
 16 31  1  0  0  0
 17 18  1  0  0  0
 17100  1  0  0  0
 18 19  2  0  0  0
 18101  1  0  0  0
 19 20  1  0  0  0
 19 24  1  0  0  0
 20 21  2  0  0  0
 20102  1  0  0  0
 21 23  1  0  0  0
 22 28  1  0  0  0
 22 32  2  0  0  0
 26 27  1  0  0  0
 28103  1  0  0  0
 28104  1  0  0  0
 29105  1  0  0  0
 29106  1  0  0  0
 33 34  1  0  0  0
 33 66  1  0  0  0
 33 70  2  0  0  0
 34 36  1  0  0  0
 34 59  1  0  0  0
 34107  1  0  0  0
 35 44  2  0  0  0
 35 45  1  0  0  0
 35 68  1  0  0  0
 36 56  1  0  0  0
 36108  1  0  0  0
 37 39  1  0  0  0
 37 47  1  0  0  0
 37 66  1  0  0  0
 37109  1  0  0  0
 38 43  2  0  0  0
 38 46  1  0  0  0
 38 47  1  0  0  0
 39 64  1  0  0  0
 39 67  2  0  0  0
 40 52  1  0  0  0
 40 53  2  0  0  0
 40 58  1  0  0  0
 41110  1  0  0  0
 41111  1  0  0  0
 41112  1  0  0  0
 41 48  1  0  0  0
 42 43  1  0  0  0
 42 66  1  0  0  0
 42113  1  0  0  0
 42114  1  0  0  0
 43 44  1  0  0  0
 44115  1  0  0  0
 45 46  2  0  0  0
 45116  1  0  0  0
 46117  1  0  0  0
 47118  1  0  0  0
 47119  1  0  0  0
 48 56  1  0  0  0
 48 65  1  0  0  0
 48120  1  0  0  0
 49 50  1  0  0  0
 49 53  1  0  0  0
 49 64  1  0  0  0
 49121  1  0  0  0
 50 51  1  0  0  0
 50122  1  0  0  0
 50123  1  0  0  0
 51 52  1  0  0  0
 51124  1  0  0  0
 51125  1  0  0  0
 52126  1  0  0  0
 52127  1  0  0  0
 53 54  1  0  0  0
 54 55  2  0  0  0
 54128  1  0  0  0
 55 57  1  0  0  0
 55129  1  0  0  0
 56 69  2  0  0  0
 57 58  2  0  0  0
 57130  1  0  0  0
 58131  1  0  0  0
 59 60  1  0  0  0
 59 61  1  0  0  0
 59 62  1  0  0  0
 60132  1  0  0  0
 60133  1  0  0  0
 60134  1  0  0  0
 61135  1  0  0  0
 61136  1  0  0  0
 61137  1  0  0  0
 62138  1  0  0  0
 62139  1  0  0  0
 62140  1  0  0  0
 63 65  1  0  0  0
 63141  1  0  0  0
 63142  1  0  0  0
 63143  1  0  0  0
 64144  1  0  0  0
 65145  1  0  0  0
 68 83  1  0  0  0
 71 72  2  0  0  0
 71 73  1  0  0  0
 71146  1  0  0  0
 72 74  1  0  0  0
 72147  1  0  0  0
 73 76  2  0  0  0
 73148  1  0  0  0
 74 75  2  0  0  0
 74 80  1  0  0  0
 75 76  1  0  0  0
 75 78  1  0  0  0
 76 84  1  0  0  0
 77 81  1  0  0  0
 77 85  1  0  0  0
 77 86  2  0  0  0
 78149  1  0  0  0
 78150  1  0  0  0
 78151  1  0  0  0
 79 85  1  0  0  0
 79152  1  0  0  0
 79153  1  0  0  0
 79154  1  0  0  0
 80 85  1  0  0  0
 80155  1  0  0  0
 80156  1  0  0  0
 81 82  1  0  0  0
 81157  1  0  0  0
 81158  1  0  0  0
 82 83  1  0  0  0
 82159  1  0  0  0
 82160  1  0  0  0
 83161  1  0  0  0
 83162  1  0  0  0
 84163  1  0  0  0
M  ISO  4   1 100  68 101  83 101  84 100
M  END
> <chiral flag>
0

> <version>
0

> <s_m_source_file>
/data/baiqing/PycharmProjects/Reinvent-master-3.2/result/LINK_invent/BTK/process_docking_weight1_custom_product_contain_oxygen_bond_distance_aromatic_linkinvent_7_9_3/rearranged_h_0056.sdf

> <i_m_source_file_index>
16

> <r_mmod_Potential_Energy-OPLS-2005>
-98.4508209228516

> <r_mmod_Stretch_Energy-OPLS-2005>
39.0367813110352

> <r_mmod_Bend_Energy-OPLS-2005>
105.585975646973

> <r_mmod_Torsional_Energy-OPLS-2005>
226.913696289062

> <r_mmod_Improper_Torsional_Energy-OPLS-2005>
2.24807524681091

> <r_mmod_Van_der_Waal_Energy-OPLS-2005>
173.586791992188

> <r_mmod_Electrostatic_Energy-OPLS-2005>
-427.780517578125

> <r_mmod_Solvation_Energy-OPLS-2005>
-226.376434326172

> <b_mmod_Minimization_Converged-OPLS-2005>
0

> <r_mmod_RMS_Derivative-OPLS-2005>
3.09857320785522

$$$$
16
                    3D
 Structure written by MMmdl.
167176  0  0  1  0            999 V2000
  -30.6272  -14.6507   20.4268 C   0  0  0  0  0  0
  -30.4364  -12.3606   19.4888 C   0  0  0  0  0  0
  -29.5138  -12.3622   18.2494 C   0  0  0  0  0  0
  -28.0223  -12.3157   18.6443 C   0  0  0  0  0  0
  -27.6480  -13.2161   19.8545 C   0  0  2  0  0  0
  -28.6914  -13.1162   20.9880 C   0  0  0  0  0  0
  -25.2539  -13.8185   20.5701 C   0  0  0  0  0  0
  -24.1805  -13.0444   20.9204 C   0  0  0  0  0  0
  -24.6378  -11.6923   20.8759 C   0  0  0  0  0  0
  -23.9061  -10.4295   21.0412 C   0  0  0  0  0  0
  -24.3625   -9.4211   21.9185 C   0  0  0  0  0  0
  -23.6301   -8.2245   22.0758 C   0  0  0  0  0  0
  -22.4281   -8.0282   21.3554 C   0  0  0  0  0  0
  -21.9919   -9.0251   20.4651 C   0  0  0  0  0  0
  -22.7239  -10.2136   20.3056 C   0  0  0  0  0  0
  -21.6856   -6.0736   22.5287 C   0  0  0  0  0  0
  -21.4010   -6.5643   23.8220 C   0  0  0  0  0  0
  -21.3663   -5.6804   24.9189 C   0  0  0  0  0  0
  -21.6047   -4.3062   24.7241 C   0  0  0  0  0  0
  -21.8810   -3.8149   23.4358 C   0  0  0  0  0  0
  -21.9193   -4.6962   22.3414 C   0  0  0  0  0  0
  -22.7837  -13.5229   21.1885 C   0  0  0  0  0  0
  -22.1654   -4.2150   21.0991 F   0  0  0  0  0  0
  -21.5644   -3.4542   25.7752 F   0  0  0  0  0  0
  -30.0034  -13.4312   20.4087 N   0  0  0  0  0  0
  -26.2961  -12.9369   20.3323 N   0  0  0  0  0  0
  -25.9310  -11.6531   20.5825 N   0  0  0  0  0  0
  -22.0500  -12.8196   22.0450 N   0  0  0  0  0  0
  -25.4237  -15.1905   20.4125 N   0  0  0  0  0  0
  -31.8133  -14.7650   20.1054 O   0  0  0  0  0  0
  -21.6642   -6.8877   21.4251 O   0  0  0  0  0  0
  -22.3518  -14.5547   20.6763 O   0  0  0  0  0  0
  -24.6239  -31.8640   23.2068 C   0  0  0  0  0  0
  -25.9102  -32.4795   23.8386 C   0  0  1  0  0  0
  -27.2135  -27.3438   20.1106 C   0  0  0  0  0  0
  -25.5931  -33.8601   24.2300 N   0  0  0  0  0  0
  -23.4147  -30.4921   21.5490 C   0  0  2  0  0  0
  -24.8589  -28.9585   20.1063 C   0  0  0  0  0  0
  -22.7452  -29.4663   22.4946 C   0  0  0  0  0  0
  -18.0284  -28.1389   22.8485 C   0  0  0  0  0  0
  -24.1488  -36.7311   23.2636 C   0  0  0  0  0  0
  -25.9555  -30.8003   21.3774 C   0  0  0  0  0  0
  -26.0279  -29.4334   20.7144 C   0  0  0  0  0  0
  -27.2093  -28.6368   20.7108 C   0  0  0  0  0  0
  -26.0251  -26.9302   19.4593 C   0  0  0  0  0  0
  -24.8577  -27.7108   19.4701 C   0  0  0  0  0  0
  -23.6258  -29.8341   20.1615 C   0  0  0  0  0  0
  -25.4112  -36.3095   24.0326 C   0  0  1  0  0  0
  -20.5878  -28.3700   23.1276 C   0  0  2  0  0  0
  -20.6779  -26.9428   22.5401 C   0  0  0  0  0  0
  -19.5759  -26.6386   21.5206 C   0  0  0  0  0  0
  -18.1935  -26.7931   22.1618 C   0  0  0  0  0  0
  -19.1535  -28.8860   23.2874 C   0  0  0  0  0  0
  -18.9465  -30.1460   23.8892 C   0  0  0  0  0  0
  -17.6470  -30.6594   24.0562 C   0  0  0  0  0  0
  -25.9054  -34.9465   23.5110 C   0  0  0  0  0  0
  -16.5359  -29.9095   23.6331 C   0  0  0  0  0  0
  -16.7272  -28.6510   23.0355 C   0  0  0  0  0  0
  -26.4486  -31.6604   25.0755 C   0  0  0  0  0  0
  -25.3715  -31.3742   26.1477 C   0  0  0  0  0  0
  -27.0340  -30.3030   24.6216 C   0  0  0  0  0  0
  -27.6046  -32.4344   25.7523 C   0  0  0  0  0  0
  -27.5586  -37.1803   24.8457 C   0  0  0  0  0  0
  -21.4172  -29.3058   22.3673 N   0  0  0  0  0  0
  -26.4290  -37.3789   23.9410 N   0  0  0  0  0  0
  -24.6831  -31.0675   22.1012 N   0  0  0  0  0  0
  -23.4183  -28.8196   23.3016 O   0  0  0  0  0  0
  -28.3099  -26.4731   20.1934 O   0  0  0  0  0  0
  -26.5620  -34.8921   22.4673 O   0  0  0  0  0  0
  -23.5408  -32.1445   23.7399 O   0  0  0  0  0  0
  -29.6951  -18.2552   17.7495 C   0  0  0  0  0  0
  -29.6890  -18.3106   20.5387 C   0  0  0  0  0  0
  -29.5435  -19.4895   18.3961 C   0  0  0  0  0  0
  -29.8219  -17.0489   18.4585 C   0  0  0  0  0  0
  -29.5591  -19.5555   19.8137 C   0  0  0  0  0  0
  -29.8347  -17.0314   19.8837 C   0  0  0  0  0  0
  -28.2636  -21.2743   21.0361 C   0  0  0  0  0  0
  -28.0838  -22.7529   21.5094 C   0  0  0  0  0  0
  -29.8860  -23.3008   19.8063 C   0  0  0  0  0  0
  -30.4546  -21.9056   20.2286 C   0  0  0  0  0  0
  -28.9259  -23.9297   20.8557 C   0  0  2  0  0  0
  -29.2917  -20.7048   17.5137 C   0  0  0  0  0  0
  -29.8331  -15.7947   17.6135 C   0  0  0  0  0  0
  -29.7661  -24.6093   21.9580 C   0  0  0  0  0  0
  -27.9671  -25.0376   20.2278 C   0  0  0  0  0  0
  -29.4171  -20.8714   20.4413 N   0  0  0  0  0  0
  -29.8359  -15.7570   20.6169 N   0  0  0  0  0  0
  -27.3315  -20.4916   21.2503 O   0  0  0  0  0  0
  -31.4773  -12.4758   19.1798 H   0  0  0  0  0  0
  -30.3817  -11.3983   19.9985 H   0  0  0  0  0  0
  -29.7414  -11.4862   17.6394 H   0  0  0  0  0  0
  -29.7273  -13.2021   17.5998 H   0  0  0  0  0  0
  -27.8022  -11.2765   18.8899 H   0  0  0  0  0  0
  -27.3944  -12.5550   17.7856 H   0  0  0  0  0  0
  -27.6518  -14.2426   19.4926 H   0  0  0  0  0  0
  -28.6970  -12.1165   21.4259 H   0  0  0  0  0  0
  -28.4438  -13.8016   21.8003 H   0  0  0  0  0  0
  -25.2771   -9.5696   22.4753 H   0  0  0  0  0  0
  -24.0021   -7.4633   22.7469 H   0  0  0  0  0  0
  -21.0863   -8.8767   19.8941 H   0  0  0  0  0  0
  -22.3694  -10.9683   19.6171 H   0  0  0  0  0  0
  -21.1984   -7.6148   23.9722 H   0  0  0  0  0  0
  -21.1504   -6.0538   25.9098 H   0  0  0  0  0  0
  -22.0582   -2.7607   23.2869 H   0  0  0  0  0  0
  -22.4146  -11.9830   22.4763 H   0  0  0  0  0  0
  -21.1140  -13.1217   22.2753 H   0  0  0  0  0  0
  -24.6507  -15.8393   20.5076 H   0  0  0  0  0  0
  -26.2787  -15.6393   20.1096 H   0  0  0  0  0  0
  -26.7173  -32.5463   23.1143 H   0  0  0  0  0  0
  -25.0062  -33.9756   25.0430 H   0  0  0  0  0  0
  -22.7076  -31.3126   21.4114 H   0  0  0  0  0  0
  -23.3749  -35.9641   23.3282 H   0  0  0  0  0  0
  -24.3577  -36.8956   22.2051 H   0  0  0  0  0  0
  -23.7243  -37.6508   23.6675 H   0  0  0  0  0  0
  -26.0894  -31.5661   20.6116 H   0  0  0  0  0  0
  -26.8354  -30.8426   22.0085 H   0  0  0  0  0  0
  -28.1015  -28.9891   21.2090 H   0  0  0  0  0  0
  -25.9603  -25.9818   18.9476 H   0  0  0  0  0  0
  -23.9623  -27.3456   18.9849 H   0  0  0  0  0  0
  -23.7389  -30.6139   19.4078 H   0  0  0  0  0  0
  -22.7447  -29.2634   19.8616 H   0  0  0  0  0  0
  -25.1283  -36.1952   25.0818 H   0  0  0  0  0  0
  -20.9972  -28.3280   24.1397 H   0  0  0  0  0  0
  -20.5692  -26.2314   23.3599 H   0  0  0  0  0  0
  -21.6648  -26.7469   22.1196 H   0  0  0  0  0  0
  -19.6926  -25.6292   21.1253 H   0  0  0  0  0  0
  -19.6695  -27.3173   20.6716 H   0  0  0  0  0  0
  -17.4204  -26.6666   21.4024 H   0  0  0  0  0  0
  -18.0347  -26.0072   22.9016 H   0  0  0  0  0  0
  -19.7944  -30.7270   24.2261 H   0  0  0  0  0  0
  -17.5033  -31.6275   24.5166 H   0  0  0  0  0  0
  -15.5363  -30.3007   23.7662 H   0  0  0  0  0  0
  -15.8667  -28.0835   22.7080 H   0  0  0  0  0  0
  -24.5877  -30.7109   25.7797 H   0  0  0  0  0  0
  -24.8915  -32.2909   26.4913 H   0  0  0  0  0  0
  -25.8025  -30.8906   27.0252 H   0  0  0  0  0  0
  -26.2932  -29.6782   24.1213 H   0  0  0  0  0  0
  -27.4008  -29.7286   25.4734 H   0  0  0  0  0  0
  -27.8811  -30.4319   23.9473 H   0  0  0  0  0  0
  -27.2656  -33.3639   26.2110 H   0  0  0  0  0  0
  -28.3848  -32.6921   25.0349 H   0  0  0  0  0  0
  -28.0731  -31.8474   26.5433 H   0  0  0  0  0  0
  -28.2576  -38.0128   24.7542 H   0  0  0  0  0  0
  -28.1114  -36.2660   24.6237 H   0  0  0  0  0  0
  -27.2310  -37.1400   25.8861 H   0  0  0  0  0  0
  -20.9343  -29.8791   21.6896 H   0  0  0  0  0  0
  -26.0174  -38.2862   24.1424 H   0  0  0  0  0  0
  -29.6599  -18.2284   16.6688 H   0  0  0  0  0  0
  -29.6595  -18.3412   21.6193 H   0  0  0  0  0  0
  -28.2509  -22.7385   22.5867 H   0  0  0  0  0  0
  -27.0173  -22.9535   21.4124 H   0  0  0  0  0  0
  -29.3639  -23.1925   18.8563 H   0  0  0  0  0  0
  -30.7093  -23.9851   19.5943 H   0  0  0  0  0  0
  -31.0240  -22.0055   21.1535 H   0  0  0  0  0  0
  -31.1770  -21.5616   19.4884 H   0  0  0  0  0  0
  -29.0333  -20.4057   16.4973 H   0  0  0  0  0  0
  -30.1755  -21.3369   17.4446 H   0  0  0  0  0  0
  -28.4539  -21.2937   17.8874 H   0  0  0  0  0  0
  -29.6881  -16.0064   16.5542 H   0  0  0  0  0  0
  -29.0048  -15.1630   17.9216 H   0  0  0  0  0  0
  -30.7793  -15.2642   17.7049 H   0  0  0  0  0  0
  -30.4121  -23.9001   22.4759 H   0  0  0  0  0  0
  -29.1278  -25.0810   22.7065 H   0  0  0  0  0  0
  -30.4048  -25.3915   21.5439 H   0  0  0  0  0  0
  -27.0452  -24.9858   20.8088 H   0  0  0  0  0  0
  -27.7005  -24.7211   19.2189 H   0  0  0  0  0  0
  -28.9717  -15.5557   21.0986 H   0  0  0  0  0  0
  1 25  1  0  0  0
  1 30  2  0  0  0
  1 87  1  0  0  0
  2  3  1  0  0  0
  2 25  1  0  0  0
  2 89  1  0  0  0
  2 90  1  0  0  0
  3  4  1  0  0  0
  3 91  1  0  0  0
  3 92  1  0  0  0
  4  5  1  0  0  0
  4 93  1  0  0  0
  4 94  1  0  0  0
  5  6  1  0  0  0
  5 26  1  0  0  0
  5 95  1  0  0  0
  6 25  1  0  0  0
  6 96  1  0  0  0
  6 97  1  0  0  0
  7  8  2  0  0  0
  7 26  1  0  0  0
  7 29  1  0  0  0
  8  9  1  0  0  0
  8 22  1  0  0  0
  9 10  1  0  0  0
  9 27  2  0  0  0
 10 11  2  0  0  0
 10 15  1  0  0  0
 11 12  1  0  0  0
 11 98  1  0  0  0
 12 13  2  0  0  0
 12 99  1  0  0  0
 13 14  1  0  0  0
 13 31  1  0  0  0
 14 15  2  0  0  0
 14100  1  0  0  0
 15101  1  0  0  0
 16 17  2  0  0  0
 16 21  1  0  0  0
 16 31  1  0  0  0
 17 18  1  0  0  0
 17102  1  0  0  0
 18 19  2  0  0  0
 18103  1  0  0  0
 19 20  1  0  0  0
 19 24  1  0  0  0
 20 21  2  0  0  0
 20104  1  0  0  0
 21 23  1  0  0  0
 22 28  1  0  0  0
 22 32  2  0  0  0
 26 27  1  0  0  0
 28105  1  0  0  0
 28106  1  0  0  0
 29107  1  0  0  0
 29108  1  0  0  0
 33 34  1  0  0  0
 33 66  1  0  0  0
 33 70  2  0  0  0
 34 36  1  0  0  0
 34 59  1  0  0  0
 34109  1  0  0  0
 35 44  2  0  0  0
 35 45  1  0  0  0
 35 68  1  0  0  0
 36 56  1  0  0  0
 36110  1  0  0  0
 37 39  1  0  0  0
 37 47  1  0  0  0
 37 66  1  0  0  0
 37111  1  0  0  0
 38 43  2  0  0  0
 38 46  1  0  0  0
 38 47  1  0  0  0
 39 64  1  0  0  0
 39 67  2  0  0  0
 40 52  1  0  0  0
 40 53  2  0  0  0
 40 58  1  0  0  0
 41112  1  0  0  0
 41113  1  0  0  0
 41114  1  0  0  0
 41 48  1  0  0  0
 42 43  1  0  0  0
 42 66  1  0  0  0
 42115  1  0  0  0
 42116  1  0  0  0
 43 44  1  0  0  0
 44117  1  0  0  0
 45 46  2  0  0  0
 45118  1  0  0  0
 46119  1  0  0  0
 47120  1  0  0  0
 47121  1  0  0  0
 48 56  1  0  0  0
 48 65  1  0  0  0
 48122  1  0  0  0
 49 50  1  0  0  0
 49 53  1  0  0  0
 49 64  1  0  0  0
 49123  1  0  0  0
 50 51  1  0  0  0
 50124  1  0  0  0
 50125  1  0  0  0
 51 52  1  0  0  0
 51126  1  0  0  0
 51127  1  0  0  0
 52128  1  0  0  0
 52129  1  0  0  0
 53 54  1  0  0  0
 54 55  2  0  0  0
 54130  1  0  0  0
 55 57  1  0  0  0
 55131  1  0  0  0
 56 69  2  0  0  0
 57 58  2  0  0  0
 57132  1  0  0  0
 58133  1  0  0  0
 59 60  1  0  0  0
 59 61  1  0  0  0
 59 62  1  0  0  0
 60134  1  0  0  0
 60135  1  0  0  0
 60136  1  0  0  0
 61137  1  0  0  0
 61138  1  0  0  0
 61139  1  0  0  0
 62140  1  0  0  0
 62141  1  0  0  0
 62142  1  0  0  0
 63 65  1  0  0  0
 63143  1  0  0  0
 63144  1  0  0  0
 63145  1  0  0  0
 64146  1  0  0  0
 65147  1  0  0  0
 68 85  1  0  0  0
 71 73  2  0  0  0
 71 74  1  0  0  0
 71148  1  0  0  0
 72 75  2  0  0  0
 72 76  1  0  0  0
 72149  1  0  0  0
 73 75  1  0  0  0
 73 82  1  0  0  0
 74 76  2  0  0  0
 74 83  1  0  0  0
 75 86  1  0  0  0
 76 87  1  0  0  0
 77 78  1  0  0  0
 77 86  1  0  0  0
 77 88  2  0  0  0
 78 81  1  0  0  0
 78150  1  0  0  0
 78151  1  0  0  0
 79 80  1  0  0  0
 79 81  1  0  0  0
 79152  1  0  0  0
 79153  1  0  0  0
 80 86  1  0  0  0
 80154  1  0  0  0
 80155  1  0  0  0
 81 84  1  0  0  0
 81 85  1  0  0  0
 82156  1  0  0  0
 82157  1  0  0  0
 82158  1  0  0  0
 83159  1  0  0  0
 83160  1  0  0  0
 83161  1  0  0  0
 84162  1  0  0  0
 84163  1  0  0  0
 84164  1  0  0  0
 85165  1  0  0  0
 85166  1  0  0  0
 87167  1  0  0  0
M  ISO  4   1 100  68 101  85 101  87 100
M  END
> <chiral flag>
0

> <version>
0

> <s_m_source_file>
/data/baiqing/PycharmProjects/Reinvent-master-3.2/result/LINK_invent/BTK/process_docking_weight1_custom_product_contain_oxygen_bond_distance_aromatic_linkinvent_7_9_3/rearranged_h_0056.sdf

> <i_m_source_file_index>
17

> <r_mmod_Potential_Energy-OPLS-2005>
217.779739379883

> <r_mmod_Stretch_Energy-OPLS-2005>
83.3177108764648

> <r_mmod_Bend_Energy-OPLS-2005>
141.18115234375

> <r_mmod_Torsional_Energy-OPLS-2005>
349.394775390625

> <r_mmod_Improper_Torsional_Energy-OPLS-2005>
6.86404657363892

> <r_mmod_Van_der_Waal_Energy-OPLS-2005>
173.300201416016

> <r_mmod_Electrostatic_Energy-OPLS-2005>
-375.389892578125

> <r_mmod_Solvation_Energy-OPLS-2005>
-217.099029541016

> <b_mmod_Minimization_Converged-OPLS-2005>
0

> <r_mmod_RMS_Derivative-OPLS-2005>
1.46534287929535

$$$$
17
                    3D
 Structure written by MMmdl.
165173  0  0  1  0            999 V2000
  -30.7051  -14.4259   20.5514 C   0  0  0  0  0  0
  -30.4205  -12.2708   19.4144 C   0  0  0  0  0  0
  -29.4918  -12.4935   18.2018 C   0  0  0  0  0  0
  -28.0117  -12.3676   18.6144 C   0  0  0  0  0  0
  -27.6659  -13.2008   19.8780 C   0  0  2  0  0  0
  -28.7068  -12.9588   20.9959 C   0  0  0  0  0  0
  -25.2623  -13.8157   20.5694 C   0  0  0  0  0  0
  -24.1859  -13.0444   20.9177 C   0  0  0  0  0  0
  -24.6397  -11.6906   20.8732 C   0  0  0  0  0  0
  -23.9059  -10.4294   21.0405 C   0  0  0  0  0  0
  -24.3612   -9.4210   21.9185 C   0  0  0  0  0  0
  -23.6290   -8.2244   22.0756 C   0  0  0  0  0  0
  -22.4273   -8.0282   21.3547 C   0  0  0  0  0  0
  -21.9907   -9.0254   20.4648 C   0  0  0  0  0  0
  -22.7232  -10.2136   20.3056 C   0  0  0  0  0  0
  -21.6853   -6.0737   22.5280 C   0  0  0  0  0  0
  -21.4012   -6.5639   23.8213 C   0  0  0  0  0  0
  -21.3659   -5.6794   24.9176 C   0  0  0  0  0  0
  -21.6044   -4.3057   24.7227 C   0  0  0  0  0  0
  -21.8819   -3.8149   23.4349 C   0  0  0  0  0  0
  -21.9191   -4.6965   22.3405 C   0  0  0  0  0  0
  -22.7880  -13.5248   21.1831 C   0  0  0  0  0  0
  -22.1661   -4.2152   21.0982 F   0  0  0  0  0  0
  -21.5629   -3.4540   25.7740 F   0  0  0  0  0  0
  -30.0442  -13.2451   20.4477 N   0  0  0  0  0  0
  -26.3051  -12.9313   20.3384 N   0  0  0  0  0  0
  -25.9322  -11.6477   20.5773 N   0  0  0  0  0  0
  -22.0510  -12.8243   22.0387 N   0  0  0  0  0  0
  -25.4366  -15.1875   20.4118 N   0  0  0  0  0  0
  -31.8390  -14.6113   20.1001 O   0  0  0  0  0  0
  -21.6638   -6.8881   21.4243 O   0  0  0  0  0  0
  -22.3568  -14.5555   20.6684 O   0  0  0  0  0  0
  -24.6125  -31.8687   23.2095 C   0  0  0  0  0  0
  -25.9033  -32.4824   23.8389 C   0  0  1  0  0  0
  -27.2394  -27.4508   20.0922 C   0  0  0  0  0  0
  -25.5910  -33.8618   24.2333 N   0  0  0  0  0  0
  -23.3998  -30.4916   21.5499 C   0  0  2  0  0  0
  -24.8458  -28.9581   20.1156 C   0  0  0  0  0  0
  -22.7407  -29.4647   22.4986 C   0  0  0  0  0  0
  -18.0276  -28.1371   22.8483 C   0  0  0  0  0  0
  -24.1488  -36.7310   23.2641 C   0  0  0  0  0  0
  -25.9266  -30.8396   21.3594 C   0  0  0  0  0  0
  -26.0044  -29.4754   20.7063 C   0  0  0  0  0  0
  -27.2032  -28.7302   20.6877 C   0  0  0  0  0  0
  -26.0587  -26.9383   19.5047 C   0  0  0  0  0  0
  -24.8670  -27.6882   19.5133 C   0  0  0  0  0  0
  -23.6078  -29.8243   20.1641 C   0  0  0  0  0  0
  -25.4105  -36.3102   24.0345 C   0  0  1  0  0  0
  -20.5867  -28.3644   23.1329 C   0  0  2  0  0  0
  -20.6761  -26.9382   22.5418 C   0  0  0  0  0  0
  -19.5743  -26.6373   21.5212 C   0  0  0  0  0  0
  -18.1921  -26.7915   22.1622 C   0  0  0  0  0  0
  -19.1528  -28.8822   23.2901 C   0  0  0  0  0  0
  -18.9456  -30.1430   23.8907 C   0  0  0  0  0  0
  -17.6461  -30.6573   24.0558 C   0  0  0  0  0  0
  -25.9037  -34.9474   23.5133 C   0  0  0  0  0  0
  -16.5350  -29.9077   23.6319 C   0  0  0  0  0  0
  -16.7267  -28.6496   23.0332 C   0  0  0  0  0  0
  -26.4468  -31.6591   25.0706 C   0  0  0  0  0  0
  -25.3750  -31.3701   26.1472 C   0  0  0  0  0  0
  -27.0298  -30.3046   24.6047 C   0  0  0  0  0  0
  -27.6040  -32.4307   25.7476 C   0  0  0  0  0  0
  -27.5581  -37.1803   24.8464 C   0  0  0  0  0  0
  -21.4138  -29.3022   22.3746 N   0  0  0  0  0  0
  -26.4291  -37.3785   23.9415 N   0  0  0  0  0  0
  -24.6643  -31.0809   22.0987 N   0  0  0  0  0  0
  -23.4190  -28.8183   23.3013 O   0  0  0  0  0  0
  -28.4301  -26.7571   20.0964 O   0  0  0  0  0  0
  -26.5583  -34.8925   22.4684 O   0  0  0  0  0  0
  -23.5322  -32.1423   23.7517 O   0  0  0  0  0  0
  -30.4696  -18.5551   19.0284 C   0  0  0  0  0  0
  -29.9587  -19.5298   19.8997 C   0  0  0  0  0  0
  -30.4970  -17.2096   19.4244 C   0  0  0  0  0  0
  -29.4808  -19.1774   21.1806 C   0  0  0  0  0  0
  -29.5166  -17.8055   21.5920 C   0  0  0  0  0  0
  -30.0267  -16.8166   20.7024 C   0  0  0  0  0  0
  -27.0870  -20.8247   23.4380 C   0  0  0  0  0  0
  -28.9038  -20.2533   22.0315 C   0  0  0  0  0  0
  -29.3556  -22.7267   21.9335 C   0  0  0  0  0  0
  -29.0121  -17.3734   22.9717 C   0  0  0  0  0  0
  -25.6731  -20.5851   23.8994 C   0  0  0  0  0  0
  -29.7936  -23.2217   20.5475 C   0  0  0  0  0  0
  -29.7602  -24.7605   20.3828 C   0  0  0  0  0  0
  -28.3648  -25.3320   20.0743 C   0  0  0  0  0  0
  -27.6295  -20.1181   22.5252 N   0  0  0  0  0  0
  -29.9770  -15.4321   21.0659 N   0  0  0  0  0  0
  -29.7155  -21.2470   22.3008 N   0  3  0  0  0  0
  -28.8174  -23.4149   22.8058 O   0  0  0  0  0  0
  -31.4657  -12.3600   19.1132 H   0  0  0  0  0  0
  -30.3102  -11.2563   19.8000 H   0  0  0  0  0  0
  -29.7197  -11.7712   17.4164 H   0  0  0  0  0  0
  -29.6727  -13.4794   17.7709 H   0  0  0  0  0  0
  -27.8090  -11.3125   18.8010 H   0  0  0  0  0  0
  -27.3643  -12.6576   17.7861 H   0  0  0  0  0  0
  -27.7175  -14.2508   19.5896 H   0  0  0  0  0  0
  -28.6696  -11.9207   21.3288 H   0  0  0  0  0  0
  -28.4775  -13.5530   21.8814 H   0  0  0  0  0  0
  -25.2760   -9.5687   22.4760 H   0  0  0  0  0  0
  -24.0001   -7.4636   22.7475 H   0  0  0  0  0  0
  -21.0839   -8.8774   19.8953 H   0  0  0  0  0  0
  -22.3693  -10.9677   19.6165 H   0  0  0  0  0  0
  -21.2003   -7.6146   23.9720 H   0  0  0  0  0  0
  -21.1481   -6.0522   25.9080 H   0  0  0  0  0  0
  -22.0599   -2.7611   23.2848 H   0  0  0  0  0  0
  -22.4104  -11.9892   22.4771 H   0  0  0  0  0  0
  -21.1128  -13.1276   22.2579 H   0  0  0  0  0  0
  -24.6718  -15.8449   20.5187 H   0  0  0  0  0  0
  -26.2911  -15.6246   20.0904 H   0  0  0  0  0  0
  -26.7107  -32.5539   23.1158 H   0  0  0  0  0  0
  -25.0078  -33.9773   25.0491 H   0  0  0  0  0  0
  -22.6873  -31.3073   21.4104 H   0  0  0  0  0  0
  -23.3747  -35.9647   23.3302 H   0  0  0  0  0  0
  -24.3601  -36.8921   22.2057 H   0  0  0  0  0  0
  -23.7244  -37.6520   23.6650 H   0  0  0  0  0  0
  -26.0353  -31.6075   20.5921 H   0  0  0  0  0  0
  -26.8158  -30.8932   21.9751 H   0  0  0  0  0  0
  -28.1006  -29.1284   21.1412 H   0  0  0  0  0  0
  -26.0426  -25.9692   19.0278 H   0  0  0  0  0  0
  -23.9755  -27.2830   19.0550 H   0  0  0  0  0  0
  -23.7165  -30.5995   19.4045 H   0  0  0  0  0  0
  -22.7325  -29.2444   19.8657 H   0  0  0  0  0  0
  -25.1275  -36.1970   25.0838 H   0  0  0  0  0  0
  -20.9948  -28.3199   24.1454 H   0  0  0  0  0  0
  -20.5672  -26.2246   23.3600 H   0  0  0  0  0  0
  -21.6631  -26.7425   22.1209 H   0  0  0  0  0  0
  -19.6912  -25.6290   21.1223 H   0  0  0  0  0  0
  -19.6699  -27.3200   20.6756 H   0  0  0  0  0  0
  -17.4194  -26.6672   21.4016 H   0  0  0  0  0  0
  -18.0310  -26.0053   22.9014 H   0  0  0  0  0  0
  -19.7935  -30.7229   24.2291 H   0  0  0  0  0  0
  -17.5019  -31.6261   24.5145 H   0  0  0  0  0  0
  -15.5349  -30.2975   23.7643 H   0  0  0  0  0  0
  -15.8668  -28.0824   22.7025 H   0  0  0  0  0  0
  -24.5910  -30.7061   25.7826 H   0  0  0  0  0  0
  -24.8958  -32.2859   26.4935 H   0  0  0  0  0  0
  -25.8113  -30.8862   27.0220 H   0  0  0  0  0  0
  -26.2827  -29.6822   24.1112 H   0  0  0  0  0  0
  -27.4115  -29.7264   25.4472 H   0  0  0  0  0  0
  -27.8635  -30.4392   23.9155 H   0  0  0  0  0  0
  -27.2651  -33.3592   26.2081 H   0  0  0  0  0  0
  -28.3836  -32.6897   25.0303 H   0  0  0  0  0  0
  -28.0721  -31.8421   26.5373 H   0  0  0  0  0  0
  -28.2571  -38.0120   24.7515 H   0  0  0  0  0  0
  -28.1097  -36.2653   24.6262 H   0  0  0  0  0  0
  -27.2308  -37.1418   25.8867 H   0  0  0  0  0  0
  -20.9292  -29.8768   21.6994 H   0  0  0  0  0  0
  -26.0183  -38.2861   24.1431 H   0  0  0  0  0  0
  -30.8198  -18.8378   18.0457 H   0  0  0  0  0  0
  -29.9127  -20.5504   19.5596 H   0  0  0  0  0  0
  -30.8653  -16.4842   18.7115 H   0  0  0  0  0  0
  -27.5999  -21.6235   23.9783 H   0  0  0  0  0  0
  -29.1771  -18.1401   23.7281 H   0  0  0  0  0  0
  -29.5224  -16.4842   23.3400 H   0  0  0  0  0  0
  -27.9434  -17.1606   22.9303 H   0  0  0  0  0  0
  -25.6171  -19.6528   24.4611 H   0  0  0  0  0  0
  -24.9967  -20.5244   23.0471 H   0  0  0  0  0  0
  -25.3484  -21.3995   24.5463 H   0  0  0  0  0  0
  -29.1690  -22.7525   19.7884 H   0  0  0  0  0  0
  -30.8110  -22.8718   20.3769 H   0  0  0  0  0  0
  -30.4352  -25.0426   19.5742 H   0  0  0  0  0  0
  -30.1609  -25.2369   21.2796 H   0  0  0  0  0  0
  -27.6405  -24.9781   20.8104 H   0  0  0  0  0  0
  -28.0438  -24.9841   19.0916 H   0  0  0  0  0  0
  -29.1612  -15.1378   21.5815 H   0  0  0  0  0  0
  -30.7135  -21.0730   22.1942 H   0  0  0  0  0  0
  1 25  1  0  0  0
  1 30  2  0  0  0
  1 86  1  0  0  0
  2  3  1  0  0  0
  2 25  1  0  0  0
  2 89  1  0  0  0
  2 90  1  0  0  0
  3  4  1  0  0  0
  3 91  1  0  0  0
  3 92  1  0  0  0
  4  5  1  0  0  0
  4 93  1  0  0  0
  4 94  1  0  0  0
  5  6  1  0  0  0
  5 26  1  0  0  0
  5 95  1  0  0  0
  6 25  1  0  0  0
  6 96  1  0  0  0
  6 97  1  0  0  0
  7  8  2  0  0  0
  7 26  1  0  0  0
  7 29  1  0  0  0
  8  9  1  0  0  0
  8 22  1  0  0  0
  9 10  1  0  0  0
  9 27  2  0  0  0
 10 11  2  0  0  0
 10 15  1  0  0  0
 11 12  1  0  0  0
 11 98  1  0  0  0
 12 13  2  0  0  0
 12 99  1  0  0  0
 13 14  1  0  0  0
 13 31  1  0  0  0
 14 15  2  0  0  0
 14100  1  0  0  0
 15101  1  0  0  0
 16 17  2  0  0  0
 16 21  1  0  0  0
 16 31  1  0  0  0
 17 18  1  0  0  0
 17102  1  0  0  0
 18 19  2  0  0  0
 18103  1  0  0  0
 19 20  1  0  0  0
 19 24  1  0  0  0
 20 21  2  0  0  0
 20104  1  0  0  0
 21 23  1  0  0  0
 22 28  1  0  0  0
 22 32  2  0  0  0
 26 27  1  0  0  0
 28105  1  0  0  0
 28106  1  0  0  0
 29107  1  0  0  0
 29108  1  0  0  0
 33 34  1  0  0  0
 33 66  1  0  0  0
 33 70  2  0  0  0
 34 36  1  0  0  0
 34 59  1  0  0  0
 34109  1  0  0  0
 35 44  2  0  0  0
 35 45  1  0  0  0
 35 68  1  0  0  0
 36 56  1  0  0  0
 36110  1  0  0  0
 37 39  1  0  0  0
 37 47  1  0  0  0
 37 66  1  0  0  0
 37111  1  0  0  0
 38 43  2  0  0  0
 38 46  1  0  0  0
 38 47  1  0  0  0
 39 64  1  0  0  0
 39 67  2  0  0  0
 40 52  1  0  0  0
 40 53  2  0  0  0
 40 58  1  0  0  0
 41112  1  0  0  0
 41113  1  0  0  0
 41114  1  0  0  0
 41 48  1  0  0  0
 42 43  1  0  0  0
 42 66  1  0  0  0
 42115  1  0  0  0
 42116  1  0  0  0
 43 44  1  0  0  0
 44117  1  0  0  0
 45 46  2  0  0  0
 45118  1  0  0  0
 46119  1  0  0  0
 47120  1  0  0  0
 47121  1  0  0  0
 48 56  1  0  0  0
 48 65  1  0  0  0
 48122  1  0  0  0
 49 50  1  0  0  0
 49 53  1  0  0  0
 49 64  1  0  0  0
 49123  1  0  0  0
 50 51  1  0  0  0
 50124  1  0  0  0
 50125  1  0  0  0
 51 52  1  0  0  0
 51126  1  0  0  0
 51127  1  0  0  0
 52128  1  0  0  0
 52129  1  0  0  0
 53 54  1  0  0  0
 54 55  2  0  0  0
 54130  1  0  0  0
 55 57  1  0  0  0
 55131  1  0  0  0
 56 69  2  0  0  0
 57 58  2  0  0  0
 57132  1  0  0  0
 58133  1  0  0  0
 59 60  1  0  0  0
 59 61  1  0  0  0
 59 62  1  0  0  0
 60134  1  0  0  0
 60135  1  0  0  0
 60136  1  0  0  0
 61137  1  0  0  0
 61138  1  0  0  0
 61139  1  0  0  0
 62140  1  0  0  0
 62141  1  0  0  0
 62142  1  0  0  0
 63 65  1  0  0  0
 63143  1  0  0  0
 63144  1  0  0  0
 63145  1  0  0  0
 64146  1  0  0  0
 65147  1  0  0  0
 68 84  1  0  0  0
 71 72  2  0  0  0
 71 73  1  0  0  0
 71148  1  0  0  0
 72 74  1  0  0  0
 72149  1  0  0  0
 73 76  2  0  0  0
 73150  1  0  0  0
 74 75  2  0  0  0
 74 78  1  0  0  0
 75 76  1  0  0  0
 75 80  1  0  0  0
 76 86  1  0  0  0
 77 81  1  0  0  0
 77 85  2  0  0  0
 77151  1  0  0  0
 78 85  1  0  0  0
 78 87  2  0  0  0
 79 82  1  0  0  0
 79 87  1  0  0  0
 79 88  2  0  0  0
 80152  1  0  0  0
 80153  1  0  0  0
 80154  1  0  0  0
 81155  1  0  0  0
 81156  1  0  0  0
 81157  1  0  0  0
 82 83  1  0  0  0
 82158  1  0  0  0
 82159  1  0  0  0
 83 84  1  0  0  0
 83160  1  0  0  0
 83161  1  0  0  0
 84162  1  0  0  0
 84163  1  0  0  0
 86164  1  0  0  0
 87165  1  0  0  0
M  CHG  1  87   1
M  ISO  4   1 100  68 101  84 101  86 100
M  END
> <chiral flag>
0

> <version>
0

> <s_m_source_file>
/data/baiqing/PycharmProjects/Reinvent-master-3.2/result/LINK_invent/BTK/process_docking_weight1_custom_product_contain_oxygen_bond_distance_aromatic_linkinvent_7_9_3/rearranged_h_0056.sdf

> <i_m_source_file_index>
18

> <r_mmod_Potential_Energy-OPLS-2005>
-50.0985107421875

> <r_mmod_Stretch_Energy-OPLS-2005>
43.5946884155273

> <r_mmod_Bend_Energy-OPLS-2005>
127.283592224121

> <r_mmod_Torsional_Energy-OPLS-2005>
279.886871337891

> <r_mmod_Improper_Torsional_Energy-OPLS-2005>
7.62992334365845

> <r_mmod_Van_der_Waal_Energy-OPLS-2005>
170.674407958984

> <r_mmod_Electrostatic_Energy-OPLS-2005>
-208.924621582031

> <r_mmod_Solvation_Energy-OPLS-2005>
-481.020324707031

> <b_mmod_Minimization_Converged-OPLS-2005>
0

> <r_mmod_RMS_Derivative-OPLS-2005>
1.32887387275696

$$$$
18
                    3D
 Structure written by MMmdl.
170179  0  0  1  0            999 V2000
  -30.7154  -14.4664   20.5612 C   0  0  0  0  0  0
  -30.4107  -12.3016   19.4295 C   0  0  0  0  0  0
  -29.4876  -12.5010   18.2105 C   0  0  0  0  0  0
  -28.0102  -12.3605   18.6224 C   0  0  0  0  0  0
  -27.6548  -13.2114   19.8699 C   0  0  2  0  0  0
  -28.6936  -13.0168   20.9965 C   0  0  0  0  0  0
  -25.2556  -13.8180   20.5676 C   0  0  0  0  0  0
  -24.1821  -13.0458   20.9190 C   0  0  0  0  0  0
  -24.6378  -11.6921   20.8758 C   0  0  0  0  0  0
  -23.9050  -10.4303   21.0416 C   0  0  0  0  0  0
  -24.3611   -9.4218   21.9190 C   0  0  0  0  0  0
  -23.6293   -8.2253   22.0755 C   0  0  0  0  0  0
  -22.4279   -8.0286   21.3546 C   0  0  0  0  0  0
  -21.9912   -9.0257   20.4648 C   0  0  0  0  0  0
  -22.7228  -10.2139   20.3062 C   0  0  0  0  0  0
  -21.6850   -6.0735   22.5280 C   0  0  0  0  0  0
  -21.4010   -6.5640   23.8208 C   0  0  0  0  0  0
  -21.3660   -5.6794   24.9173 C   0  0  0  0  0  0
  -21.6045   -4.3059   24.7222 C   0  0  0  0  0  0
  -21.8817   -3.8150   23.4344 C   0  0  0  0  0  0
  -21.9191   -4.6966   22.3398 C   0  0  0  0  0  0
  -22.7842  -13.5247   21.1844 C   0  0  0  0  0  0
  -22.1663   -4.2147   21.0977 F   0  0  0  0  0  0
  -21.5625   -3.4541   25.7738 F   0  0  0  0  0  0
  -30.0243  -13.3013   20.4380 N   0  0  0  0  0  0
  -26.2986  -12.9357   20.3348 N   0  0  0  0  0  0
  -25.9304  -11.6518   20.5777 N   0  0  0  0  0  0
  -22.0476  -12.8246   22.0394 N   0  0  0  0  0  0
  -25.4293  -15.1901   20.4045 N   0  0  0  0  0  0
  -31.8869  -14.5529   20.1999 O   0  0  0  0  0  0
  -21.6646   -6.8885   21.4242 O   0  0  0  0  0  0
  -22.3531  -14.5551   20.6681 O   0  0  0  0  0  0
  -24.6109  -31.8725   23.2113 C   0  0  0  0  0  0
  -25.9024  -32.4857   23.8383 C   0  0  1  0  0  0
  -27.2232  -27.4545   20.0920 C   0  0  0  0  0  0
  -25.5893  -33.8649   24.2314 N   0  0  0  0  0  0
  -23.3941  -30.4916   21.5584 C   0  0  2  0  0  0
  -24.8380  -28.9570   20.1191 C   0  0  0  0  0  0
  -22.7381  -29.4652   22.5090 C   0  0  0  0  0  0
  -18.0251  -28.1329   22.8519 C   0  0  0  0  0  0
  -24.1489  -36.7321   23.2631 C   0  0  0  0  0  0
  -25.9188  -30.8415   21.3612 C   0  0  0  0  0  0
  -25.9968  -29.4740   20.7155 C   0  0  0  0  0  0
  -27.1936  -28.7251   20.7090 C   0  0  0  0  0  0
  -26.0571  -26.9488   19.4865 C   0  0  0  0  0  0
  -24.8607  -27.6918   19.5056 C   0  0  0  0  0  0
  -23.5951  -29.8179   20.1744 C   0  0  0  0  0  0
  -25.4108  -36.3126   24.0334 C   0  0  1  0  0  0
  -20.5834  -28.3601   23.1372 C   0  0  2  0  0  0
  -20.6746  -26.9355   22.5431 C   0  0  0  0  0  0
  -19.5726  -26.6363   21.5226 C   0  0  0  0  0  0
  -18.1897  -26.7891   22.1632 C   0  0  0  0  0  0
  -19.1498  -28.8791   23.2930 C   0  0  0  0  0  0
  -18.9440  -30.1409   23.8915 C   0  0  0  0  0  0
  -17.6448  -30.6569   24.0553 C   0  0  0  0  0  0
  -25.9034  -34.9500   23.5122 C   0  0  0  0  0  0
  -16.5328  -29.9058   23.6342 C   0  0  0  0  0  0
  -16.7241  -28.6460   23.0383 C   0  0  0  0  0  0
  -26.4430  -31.6626   25.0711 C   0  0  0  0  0  0
  -25.3679  -31.3739   26.1452 C   0  0  0  0  0  0
  -27.0253  -30.3073   24.6064 C   0  0  0  0  0  0
  -27.6006  -32.4343   25.7476 C   0  0  0  0  0  0
  -27.5597  -37.1789   24.8446 C   0  0  0  0  0  0
  -21.4116  -29.2995   22.3808 N   0  0  0  0  0  0
  -26.4287  -37.3814   23.9417 N   0  0  0  0  0  0
  -24.6598  -31.0813   22.1026 N   0  0  0  0  0  0
  -23.4184  -28.8218   23.3118 O   0  0  0  0  0  0
  -28.3724  -26.7095   20.0337 O   0  0  0  0  0  0
  -26.5618  -34.8953   22.4699 O   0  0  0  0  0  0
  -23.5320  -32.1502   23.7524 O   0  0  0  0  0  0
  -30.6780  -19.7549   20.8786 C   0  0  0  0  0  0
  -31.4898  -18.9068   20.1202 C   0  0  0  0  0  0
  -29.6221  -19.2408   21.6621 C   0  0  0  0  0  0
  -29.4239  -17.8227   21.6996 C   0  0  0  0  0  0
  -30.2605  -16.9429   20.9378 C   0  0  0  0  0  0
  -31.2720  -17.5238   20.1167 C   0  0  0  0  0  0
  -28.1230  -23.1344   23.9900 C   0  0  0  0  0  0
  -28.8468  -23.6194   20.7753 C   0  0  0  0  0  0
  -27.1551  -23.9695   23.5617 C   0  0  0  0  0  0
  -28.1946  -24.6497   21.3518 C   0  0  0  0  0  0
  -29.1390  -22.5082   23.2228 C   0  0  0  0  0  0
  -28.4345  -22.2371   20.9272 C   0  0  0  0  0  0
  -26.9087  -24.4890   22.1558 C   0  0  0  0  0  0
  -28.2810  -17.2416   22.5341 C   0  0  0  0  0  0
  -31.6546  -22.1580   23.1131 C   0  0  0  0  0  0
  -28.7149  -20.2135   22.4533 C   0  0  0  0  0  0
  -28.7432  -26.0714   21.2523 C   0  0  0  0  0  0
  -28.8426  -21.6732   22.1905 N   0  0  0  0  0  0
  -29.9909  -15.5251   20.9875 N   0  0  0  0  0  0
  -30.3984  -22.6561   23.6900 N   0  3  0  0  0  0
  -27.8985  -21.5427   20.0561 O   0  0  0  0  0  0
  -32.0299  -16.8113   19.2562 F   0  0  0  0  0  0
  -31.4558  -12.3860   19.1264 H   0  0  0  0  0  0
  -30.2996  -11.2963   19.8387 H   0  0  0  0  0  0
  -29.7290  -11.7780   17.4308 H   0  0  0  0  0  0
  -29.6553  -13.4883   17.7766 H   0  0  0  0  0  0
  -27.8229  -11.3065   18.8286 H   0  0  0  0  0  0
  -27.3602  -12.6271   17.7888 H   0  0  0  0  0  0
  -27.6933  -14.2551   19.5577 H   0  0  0  0  0  0
  -28.6644  -11.9931   21.3724 H   0  0  0  0  0  0
  -28.4594  -13.6514   21.8536 H   0  0  0  0  0  0
  -25.2747   -9.5692   22.4770 H   0  0  0  0  0  0
  -23.9996   -7.4641   22.7480 H   0  0  0  0  0  0
  -21.0838   -8.8780   19.8951 H   0  0  0  0  0  0
  -22.3690  -10.9684   19.6178 H   0  0  0  0  0  0
  -21.2013   -7.6150   23.9711 H   0  0  0  0  0  0
  -21.1480   -6.0528   25.9073 H   0  0  0  0  0  0
  -22.0600   -2.7614   23.2845 H   0  0  0  0  0  0
  -22.4089  -11.9907   22.4785 H   0  0  0  0  0  0
  -21.1093  -13.1275   22.2589 H   0  0  0  0  0  0
  -24.6572  -15.8424   20.4854 H   0  0  0  0  0  0
  -26.2720  -15.6169   20.0416 H   0  0  0  0  0  0
  -26.7109  -32.5560   23.1151 H   0  0  0  0  0  0
  -24.9994  -33.9804   25.0432 H   0  0  0  0  0  0
  -22.6802  -31.3064   21.4250 H   0  0  0  0  0  0
  -23.3772  -35.9634   23.3275 H   0  0  0  0  0  0
  -24.3567  -36.8938   22.2042 H   0  0  0  0  0  0
  -23.7231  -37.6514   23.6667 H   0  0  0  0  0  0
  -26.0223  -31.6054   20.5886 H   0  0  0  0  0  0
  -26.8089  -30.8998   21.9759 H   0  0  0  0  0  0
  -28.0924  -29.1191   21.1641 H   0  0  0  0  0  0
  -26.0757  -25.9823   19.0055 H   0  0  0  0  0  0
  -23.9675  -27.2907   19.0456 H   0  0  0  0  0  0
  -23.6834  -30.5894   19.4084 H   0  0  0  0  0  0
  -22.7206  -29.2251   19.8979 H   0  0  0  0  0  0
  -25.1281  -36.1984   25.0827 H   0  0  0  0  0  0
  -20.9897  -28.3154   24.1506 H   0  0  0  0  0  0
  -20.5671  -26.2198   23.3590 H   0  0  0  0  0  0
  -21.6611  -26.7431   22.1202 H   0  0  0  0  0  0
  -19.6877  -25.6290   21.1225 H   0  0  0  0  0  0
  -19.6664  -27.3200   20.6785 H   0  0  0  0  0  0
  -17.4172  -26.6681   21.4013 H   0  0  0  0  0  0
  -18.0250  -25.9997   22.8986 H   0  0  0  0  0  0
  -19.7915  -30.7208   24.2294 H   0  0  0  0  0  0
  -17.5009  -31.6256   24.5117 H   0  0  0  0  0  0
  -15.5327  -30.2959   23.7667 H   0  0  0  0  0  0
  -15.8639  -28.0780   22.7125 H   0  0  0  0  0  0
  -24.5838  -30.7123   25.7758 H   0  0  0  0  0  0
  -24.8887  -32.2899   26.4913 H   0  0  0  0  0  0
  -25.7987  -30.8884   27.0214 H   0  0  0  0  0  0
  -26.2805  -29.6843   24.1105 H   0  0  0  0  0  0
  -27.4000  -29.7294   25.4513 H   0  0  0  0  0  0
  -27.8640  -30.4381   23.9228 H   0  0  0  0  0  0
  -27.2637  -33.3639   26.2083 H   0  0  0  0  0  0
  -28.3797  -32.6900   25.0289 H   0  0  0  0  0  0
  -28.0708  -31.8465   26.5356 H   0  0  0  0  0  0
  -28.2567  -38.0139   24.7600 H   0  0  0  0  0  0
  -28.1143  -36.2675   24.6153 H   0  0  0  0  0  0
  -27.2322  -37.1278   25.8845 H   0  0  0  0  0  0
  -20.9289  -29.8706   21.7022 H   0  0  0  0  0  0
  -26.0184  -38.2880   24.1483 H   0  0  0  0  0  0
  -30.8797  -20.8119   20.8063 H   0  0  0  0  0  0
  -32.2730  -19.3237   19.5045 H   0  0  0  0  0  0
  -28.1655  -22.9264   25.0508 H   0  0  0  0  0  0
  -29.7496  -23.8113   20.2145 H   0  0  0  0  0  0
  -26.4607  -24.3399   24.3039 H   0  0  0  0  0  0
  -26.3996  -25.4530   22.2174 H   0  0  0  0  0  0
  -26.2080  -23.8260   21.6447 H   0  0  0  0  0  0
  -28.0331  -17.8601   23.3949 H   0  0  0  0  0  0
  -28.5190  -16.2595   22.9417 H   0  0  0  0  0  0
  -27.3820  -17.1435   21.9240 H   0  0  0  0  0  0
  -32.5010  -22.5023   23.7067 H   0  0  0  0  0  0
  -31.7878  -22.5379   22.1001 H   0  0  0  0  0  0
  -31.6841  -21.0693   23.0944 H   0  0  0  0  0  0
  -28.9188  -20.0656   23.5140 H   0  0  0  0  0  0
  -27.6689  -19.9408   22.3038 H   0  0  0  0  0  0
  -29.8323  -26.0226   21.2672 H   0  0  0  0  0  0
  -28.4585  -26.6533   22.1306 H   0  0  0  0  0  0
  -29.0865  -15.2754   21.3535 H   0  0  0  0  0  0
  -30.5166  -23.2505   24.5005 H   0  0  0  0  0  0
  1 25  1  0  0  0
  1 30  2  0  0  0
  1 89  1  0  0  0
  2  3  1  0  0  0
  2 25  1  0  0  0
  2 93  1  0  0  0
  2 94  1  0  0  0
  3  4  1  0  0  0
  3 95  1  0  0  0
  3 96  1  0  0  0
  4  5  1  0  0  0
  4 97  1  0  0  0
  4 98  1  0  0  0
  5  6  1  0  0  0
  5 26  1  0  0  0
  5 99  1  0  0  0
  6 25  1  0  0  0
  6100  1  0  0  0
  6101  1  0  0  0
  7  8  2  0  0  0
  7 26  1  0  0  0
  7 29  1  0  0  0
  8  9  1  0  0  0
  8 22  1  0  0  0
  9 10  1  0  0  0
  9 27  2  0  0  0
 10 11  2  0  0  0
 10 15  1  0  0  0
 11 12  1  0  0  0
 11102  1  0  0  0
 12 13  2  0  0  0
 12103  1  0  0  0
 13 14  1  0  0  0
 13 31  1  0  0  0
 14 15  2  0  0  0
 14104  1  0  0  0
 15105  1  0  0  0
 16 17  2  0  0  0
 16 21  1  0  0  0
 16 31  1  0  0  0
 17 18  1  0  0  0
 17106  1  0  0  0
 18 19  2  0  0  0
 18107  1  0  0  0
 19 20  1  0  0  0
 19 24  1  0  0  0
 20 21  2  0  0  0
 20108  1  0  0  0
 21 23  1  0  0  0
 22 28  1  0  0  0
 22 32  2  0  0  0
 26 27  1  0  0  0
 28109  1  0  0  0
 28110  1  0  0  0
 29111  1  0  0  0
 29112  1  0  0  0
 33 34  1  0  0  0
 33 66  1  0  0  0
 33 70  2  0  0  0
 34 36  1  0  0  0
 34 59  1  0  0  0
 34113  1  0  0  0
 35 44  2  0  0  0
 35 45  1  0  0  0
 35 68  1  0  0  0
 36 56  1  0  0  0
 36114  1  0  0  0
 37 39  1  0  0  0
 37 47  1  0  0  0
 37 66  1  0  0  0
 37115  1  0  0  0
 38 43  2  0  0  0
 38 46  1  0  0  0
 38 47  1  0  0  0
 39 64  1  0  0  0
 39 67  2  0  0  0
 40 52  1  0  0  0
 40 53  2  0  0  0
 40 58  1  0  0  0
 41116  1  0  0  0
 41117  1  0  0  0
 41118  1  0  0  0
 41 48  1  0  0  0
 42 43  1  0  0  0
 42 66  1  0  0  0
 42119  1  0  0  0
 42120  1  0  0  0
 43 44  1  0  0  0
 44121  1  0  0  0
 45 46  2  0  0  0
 45122  1  0  0  0
 46123  1  0  0  0
 47124  1  0  0  0
 47125  1  0  0  0
 48 56  1  0  0  0
 48 65  1  0  0  0
 48126  1  0  0  0
 49 50  1  0  0  0
 49 53  1  0  0  0
 49 64  1  0  0  0
 49127  1  0  0  0
 50 51  1  0  0  0
 50128  1  0  0  0
 50129  1  0  0  0
 51 52  1  0  0  0
 51130  1  0  0  0
 51131  1  0  0  0
 52132  1  0  0  0
 52133  1  0  0  0
 53 54  1  0  0  0
 54 55  2  0  0  0
 54134  1  0  0  0
 55 57  1  0  0  0
 55135  1  0  0  0
 56 69  2  0  0  0
 57 58  2  0  0  0
 57136  1  0  0  0
 58137  1  0  0  0
 59 60  1  0  0  0
 59 61  1  0  0  0
 59 62  1  0  0  0
 60138  1  0  0  0
 60139  1  0  0  0
 60140  1  0  0  0
 61141  1  0  0  0
 61142  1  0  0  0
 61143  1  0  0  0
 62144  1  0  0  0
 62145  1  0  0  0
 62146  1  0  0  0
 63 65  1  0  0  0
 63147  1  0  0  0
 63148  1  0  0  0
 63149  1  0  0  0
 64150  1  0  0  0
 65151  1  0  0  0
 68 87  1  0  0  0
 71 72  2  0  0  0
 71 73  1  0  0  0
 71152  1  0  0  0
 72 76  1  0  0  0
 72153  1  0  0  0
 73 74  2  0  0  0
 73 86  1  0  0  0
 74 75  1  0  0  0
 74 84  1  0  0  0
 75 76  2  0  0  0
 75 89  1  0  0  0
 76 92  1  0  0  0
 77 79  2  0  0  0
 77 81  1  0  0  0
 77154  1  0  0  0
 78 80  2  0  0  0
 78 82  1  0  0  0
 78155  1  0  0  0
 79 83  1  0  0  0
 79156  1  0  0  0
 80 83  1  0  0  0
 80 87  1  0  0  0
 81 88  1  0  0  0
 81 90  2  0  0  0
 82 88  1  0  0  0
 82 91  2  0  0  0
 83157  1  0  0  0
 83158  1  0  0  0
 84159  1  0  0  0
 84160  1  0  0  0
 84161  1  0  0  0
 85 90  1  0  0  0
 85162  1  0  0  0
 85163  1  0  0  0
 85164  1  0  0  0
 86 88  1  0  0  0
 86165  1  0  0  0
 86166  1  0  0  0
 87167  1  0  0  0
 87168  1  0  0  0
 89169  1  0  0  0
 90170  1  0  0  0
M  CHG  1  90   1
M  ISO  4   1 100  68 101  87 101  89 100
M  END
> <chiral flag>
0

> <version>
0

> <s_m_source_file>
/data/baiqing/PycharmProjects/Reinvent-master-3.2/result/LINK_invent/BTK/process_docking_weight1_custom_product_contain_oxygen_bond_distance_aromatic_linkinvent_7_9_3/rearranged_h_0056.sdf

> <i_m_source_file_index>
19

> <r_mmod_Potential_Energy-OPLS-2005>
51.9941291809082

> <r_mmod_Stretch_Energy-OPLS-2005>
44.0666618347168

> <r_mmod_Bend_Energy-OPLS-2005>
119.145141601562

> <r_mmod_Torsional_Energy-OPLS-2005>
396.3603515625

> <r_mmod_Improper_Torsional_Energy-OPLS-2005>
6.38246202468872

> <r_mmod_Van_der_Waal_Energy-OPLS-2005>
159.389114379883

> <r_mmod_Electrostatic_Energy-OPLS-2005>
-234.502593994141

> <r_mmod_Solvation_Energy-OPLS-2005>
-454.53564453125

> <b_mmod_Minimization_Converged-OPLS-2005>
0

> <r_mmod_RMS_Derivative-OPLS-2005>
2.58344864845276

$$$$
19
                    3D
 Structure written by MMmdl.
163171  0  0  1  0            999 V2000
  -30.7483  -14.4211   20.6742 C   0  0  0  0  0  0
  -30.4124  -12.3236   19.4025 C   0  0  0  0  0  0
  -29.4825  -12.5338   18.1945 C   0  0  0  0  0  0
  -28.0046  -12.3905   18.6066 C   0  0  0  0  0  0
  -27.6629  -13.2087   19.8796 C   0  0  2  0  0  0
  -28.7020  -12.9496   20.9881 C   0  0  0  0  0  0
  -25.2603  -13.8174   20.5723 C   0  0  0  0  0  0
  -24.1843  -13.0441   20.9178 C   0  0  0  0  0  0
  -24.6393  -11.6917   20.8705 C   0  0  0  0  0  0
  -23.9037  -10.4309   21.0382 C   0  0  0  0  0  0
  -24.3589   -9.4236   21.9168 C   0  0  0  0  0  0
  -23.6280   -8.2260   22.0726 C   0  0  0  0  0  0
  -22.4262   -8.0292   21.3526 C   0  0  0  0  0  0
  -21.9896   -9.0260   20.4622 C   0  0  0  0  0  0
  -22.7208  -10.2147   20.3036 C   0  0  0  0  0  0
  -21.6856   -6.0732   22.5284 C   0  0  0  0  0  0
  -21.4023   -6.5632   23.8225 C   0  0  0  0  0  0
  -21.3661   -5.6772   24.9179 C   0  0  0  0  0  0
  -21.6042   -4.3035   24.7217 C   0  0  0  0  0  0
  -21.8827   -3.8127   23.4341 C   0  0  0  0  0  0
  -21.9201   -4.6955   22.3403 C   0  0  0  0  0  0
  -22.7871  -13.5238   21.1872 C   0  0  0  0  0  0
  -22.1679   -4.2157   21.0977 F   0  0  0  0  0  0
  -21.5632   -3.4509   25.7722 F   0  0  0  0  0  0
  -30.0290  -13.2841   20.4527 N   0  0  0  0  0  0
  -26.3030  -12.9344   20.3386 N   0  0  0  0  0  0
  -25.9316  -11.6490   20.5716 N   0  0  0  0  0  0
  -22.0495  -12.8208   22.0401 N   0  0  0  0  0  0
  -25.4337  -15.1876   20.4213 N   0  0  0  0  0  0
  -31.7817  -14.6776   20.0503 O   0  0  0  0  0  0
  -21.6642   -6.8874   21.4239 O   0  0  0  0  0  0
  -22.3563  -14.5549   20.6739 O   0  0  0  0  0  0
  -24.6153  -31.8693   23.2092 C   0  0  0  0  0  0
  -25.9052  -32.4822   23.8392 C   0  0  1  0  0  0
  -27.2241  -27.4234   20.0996 C   0  0  0  0  0  0
  -25.5937  -33.8626   24.2327 N   0  0  0  0  0  0
  -23.4021  -30.4899   21.5527 C   0  0  2  0  0  0
  -24.8460  -28.9531   20.1199 C   0  0  0  0  0  0
  -22.7430  -29.4630   22.5004 C   0  0  0  0  0  0
  -18.0311  -28.1331   22.8492 C   0  0  0  0  0  0
  -24.1491  -36.7296   23.2636 C   0  0  0  0  0  0
  -25.9338  -30.8321   21.3627 C   0  0  0  0  0  0
  -26.0111  -29.4669   20.7060 C   0  0  0  0  0  0
  -27.2074  -28.7127   20.6849 C   0  0  0  0  0  0
  -26.0407  -26.9171   19.5247 C   0  0  0  0  0  0
  -24.8554  -27.6769   19.5305 C   0  0  0  0  0  0
  -23.6101  -29.8230   20.1674 C   0  0  0  0  0  0
  -25.4113  -36.3108   24.0328 C   0  0  1  0  0  0
  -20.5905  -28.3591   23.1329 C   0  0  2  0  0  0
  -20.6787  -26.9333   22.5407 C   0  0  0  0  0  0
  -19.5752  -26.6319   21.5221 C   0  0  0  0  0  0
  -18.1934  -26.7886   22.1618 C   0  0  0  0  0  0
  -19.1565  -28.8778   23.2923 C   0  0  0  0  0  0
  -18.9493  -30.1391   23.8920 C   0  0  0  0  0  0
  -17.6499  -30.6531   24.0589 C   0  0  0  0  0  0
  -25.9044  -34.9479   23.5101 C   0  0  0  0  0  0
  -16.5383  -29.9047   23.6335 C   0  0  0  0  0  0
  -16.7302  -28.6467   23.0325 C   0  0  0  0  0  0
  -26.4484  -31.6599   25.0718 C   0  0  0  0  0  0
  -25.3756  -31.3716   26.1467 C   0  0  0  0  0  0
  -27.0317  -30.3037   24.6099 C   0  0  0  0  0  0
  -27.6044  -32.4340   25.7487 C   0  0  0  0  0  0
  -27.5581  -37.1804   24.8469 C   0  0  0  0  0  0
  -21.4172  -29.2957   22.3728 N   0  0  0  0  0  0
  -26.4300  -37.3787   23.9403 N   0  0  0  0  0  0
  -24.6684  -31.0781   22.0993 N   0  0  0  0  0  0
  -23.4221  -28.8197   23.3047 O   0  0  0  0  0  0
  -28.3758  -26.6693   20.0635 O   0  0  0  0  0  0
  -26.5590  -34.8925   22.4660 O   0  0  0  0  0  0
  -23.5342  -32.1462   23.7476 O   0  0  0  0  0  0
  -27.1162  -17.8751   22.2853 C   0  0  0  0  0  0
  -28.3789  -15.8786   22.8833 C   0  0  0  0  0  0
  -29.0575  -17.2194   20.9618 C   0  0  0  0  0  0
  -27.2996  -16.7516   23.1132 C   0  0  0  0  0  0
  -27.9930  -18.1309   21.2060 C   0  0  0  0  0  0
  -29.2510  -16.0831   21.7949 C   0  0  0  0  0  0
  -28.7756  -21.5649   20.5466 C   0  0  0  0  0  0
  -26.3279  -16.4581   24.2405 C   0  0  0  0  0  0
  -26.5730  -21.1231   21.5639 C   0  0  0  0  0  0
  -27.7212  -19.3183   20.2653 C   0  0  0  0  0  0
  -28.7947  -22.9826   21.1713 C   0  0  0  0  0  0
  -28.4046  -24.1442   20.2106 C   0  0  0  0  0  0
  -28.3905  -25.5223   20.9291 C   0  0  0  0  0  0
  -30.3935  -15.2326   21.6888 N   0  0  0  0  0  0
  -27.7766  -20.6865   20.8449 N   0  0  0  0  0  0
  -29.7112  -21.2635   19.8011 O   0  0  0  0  0  0
  -31.4566  -12.4242   19.1021 H   0  0  0  0  0  0
  -30.3131  -11.3026   19.7743 H   0  0  0  0  0  0
  -29.7186  -11.8117   17.4134 H   0  0  0  0  0  0
  -29.6494  -13.5224   17.7653 H   0  0  0  0  0  0
  -27.8058  -11.3314   18.7769 H   0  0  0  0  0  0
  -27.3577  -12.6896   17.7816 H   0  0  0  0  0  0
  -27.7200  -14.2665   19.6194 H   0  0  0  0  0  0
  -28.6842  -11.8996   21.2771 H   0  0  0  0  0  0
  -28.4499  -13.4906   21.8949 H   0  0  0  0  0  0
  -25.2732   -9.5728   22.4744 H   0  0  0  0  0  0
  -24.0010   -7.4635   22.7409 H   0  0  0  0  0  0
  -21.0835   -8.8742   19.8912 H   0  0  0  0  0  0
  -22.3634  -10.9672   19.6151 H   0  0  0  0  0  0
  -21.2011   -7.6136   23.9730 H   0  0  0  0  0  0
  -21.1483   -6.0505   25.9085 H   0  0  0  0  0  0
  -22.0598   -2.7588   23.2823 H   0  0  0  0  0  0
  -22.4080  -11.9851   22.4762 H   0  0  0  0  0  0
  -21.1103  -13.1228   22.2592 H   0  0  0  0  0  0
  -24.6936  -15.8520   20.6150 H   0  0  0  0  0  0
  -26.3248  -15.6294   20.2336 H   0  0  0  0  0  0
  -26.7111  -32.5517   23.1150 H   0  0  0  0  0  0
  -25.0157  -33.9817   25.0512 H   0  0  0  0  0  0
  -22.6874  -31.3038   21.4137 H   0  0  0  0  0  0
  -23.3770  -35.9617   23.3328 H   0  0  0  0  0  0
  -24.3569  -36.8874   22.2043 H   0  0  0  0  0  0
  -23.7240  -37.6502   23.6636 H   0  0  0  0  0  0
  -26.0552  -31.6040   20.6021 H   0  0  0  0  0  0
  -26.8182  -30.8765   21.9866 H   0  0  0  0  0  0
  -28.1111  -29.1117   21.1235 H   0  0  0  0  0  0
  -26.0291  -25.9323   19.0779 H   0  0  0  0  0  0
  -23.9532  -27.2731   19.0902 H   0  0  0  0  0  0
  -23.7209  -30.6010   19.4095 H   0  0  0  0  0  0
  -22.7321  -29.2478   19.8688 H   0  0  0  0  0  0
  -25.1302  -36.1959   25.0820 H   0  0  0  0  0  0
  -21.0021  -28.3129   24.1438 H   0  0  0  0  0  0
  -20.5711  -26.2194   23.3579 H   0  0  0  0  0  0
  -21.6650  -26.7376   22.1180 H   0  0  0  0  0  0
  -19.6893  -25.6236   21.1243 H   0  0  0  0  0  0
  -19.6702  -27.3137   20.6756 H   0  0  0  0  0  0
  -17.4229  -26.6670   21.4003 H   0  0  0  0  0  0
  -18.0322  -26.0014   22.8999 H   0  0  0  0  0  0
  -19.7983  -30.7188   24.2284 H   0  0  0  0  0  0
  -17.5058  -31.6185   24.5241 H   0  0  0  0  0  0
  -15.5383  -30.2937   23.7657 H   0  0  0  0  0  0
  -15.8706  -28.0797   22.7003 H   0  0  0  0  0  0
  -24.5911  -30.7079   25.7815 H   0  0  0  0  0  0
  -24.8988  -32.2890   26.4933 H   0  0  0  0  0  0
  -25.8118  -30.8877   27.0211 H   0  0  0  0  0  0
  -26.2858  -29.6793   24.1165 H   0  0  0  0  0  0
  -27.4103  -29.7265   25.4544 H   0  0  0  0  0  0
  -27.8687  -30.4351   23.9234 H   0  0  0  0  0  0
  -27.2626  -33.3611   26.2094 H   0  0  0  0  0  0
  -28.3841  -32.6944   25.0322 H   0  0  0  0  0  0
  -28.0739  -31.8468   26.5388 H   0  0  0  0  0  0
  -28.2613  -38.0088   24.7510 H   0  0  0  0  0  0
  -28.1067  -36.2625   24.6323 H   0  0  0  0  0  0
  -27.2296  -37.1465   25.8870 H   0  0  0  0  0  0
  -20.9319  -29.8657   21.6947 H   0  0  0  0  0  0
  -26.0193  -38.2859   24.1417 H   0  0  0  0  0  0
  -26.2758  -18.5273   22.4679 H   0  0  0  0  0  0
  -28.5358  -15.0431   23.5494 H   0  0  0  0  0  0
  -29.7352  -17.4065   20.1393 H   0  0  0  0  0  0
  -25.8917  -17.3727   24.6419 H   0  0  0  0  0  0
  -26.8303  -15.9407   25.0573 H   0  0  0  0  0  0
  -25.5164  -15.8216   23.8842 H   0  0  0  0  0  0
  -26.1931  -22.0656   21.1641 H   0  0  0  0  0  0
  -26.7894  -21.2614   22.6242 H   0  0  0  0  0  0
  -25.7516  -20.4111   21.4848 H   0  0  0  0  0  0
  -26.7160  -19.1747   19.8643 H   0  0  0  0  0  0
  -28.3621  -19.2296   19.3870 H   0  0  0  0  0  0
  -29.8189  -23.1591   21.5021 H   0  0  0  0  0  0
  -28.2038  -23.0251   22.0849 H   0  0  0  0  0  0
  -27.4277  -23.9542   19.7669 H   0  0  0  0  0  0
  -29.1159  -24.1656   19.3836 H   0  0  0  0  0  0
  -27.5648  -25.5548   21.6441 H   0  0  0  0  0  0
  -29.2936  -25.6160   21.5297 H   0  0  0  0  0  0
  -31.2224  -15.7189   21.9966 H   0  0  0  0  0  0
  1 25  1  0  0  0
  1 30  2  0  0  0
  1 84  1  0  0  0
  2  3  1  0  0  0
  2 25  1  0  0  0
  2 87  1  0  0  0
  2 88  1  0  0  0
  3  4  1  0  0  0
  3 89  1  0  0  0
  3 90  1  0  0  0
  4  5  1  0  0  0
  4 91  1  0  0  0
  4 92  1  0  0  0
  5  6  1  0  0  0
  5 26  1  0  0  0
  5 93  1  0  0  0
  6 25  1  0  0  0
  6 94  1  0  0  0
  6 95  1  0  0  0
  7  8  2  0  0  0
  7 26  1  0  0  0
  7 29  1  0  0  0
  8  9  1  0  0  0
  8 22  1  0  0  0
  9 10  1  0  0  0
  9 27  2  0  0  0
 10 11  2  0  0  0
 10 15  1  0  0  0
 11 12  1  0  0  0
 11 96  1  0  0  0
 12 13  2  0  0  0
 12 97  1  0  0  0
 13 14  1  0  0  0
 13 31  1  0  0  0
 14 15  2  0  0  0
 14 98  1  0  0  0
 15 99  1  0  0  0
 16 17  2  0  0  0
 16 21  1  0  0  0
 16 31  1  0  0  0
 17 18  1  0  0  0
 17100  1  0  0  0
 18 19  2  0  0  0
 18101  1  0  0  0
 19 20  1  0  0  0
 19 24  1  0  0  0
 20 21  2  0  0  0
 20102  1  0  0  0
 21 23  1  0  0  0
 22 28  1  0  0  0
 22 32  2  0  0  0
 26 27  1  0  0  0
 28103  1  0  0  0
 28104  1  0  0  0
 29105  1  0  0  0
 29106  1  0  0  0
 33 34  1  0  0  0
 33 66  1  0  0  0
 33 70  2  0  0  0
 34 36  1  0  0  0
 34 59  1  0  0  0
 34107  1  0  0  0
 35 44  2  0  0  0
 35 45  1  0  0  0
 35 68  1  0  0  0
 36 56  1  0  0  0
 36108  1  0  0  0
 37 39  1  0  0  0
 37 47  1  0  0  0
 37 66  1  0  0  0
 37109  1  0  0  0
 38 43  2  0  0  0
 38 46  1  0  0  0
 38 47  1  0  0  0
 39 64  1  0  0  0
 39 67  2  0  0  0
 40 52  1  0  0  0
 40 53  2  0  0  0
 40 58  1  0  0  0
 41110  1  0  0  0
 41111  1  0  0  0
 41112  1  0  0  0
 41 48  1  0  0  0
 42 43  1  0  0  0
 42 66  1  0  0  0
 42113  1  0  0  0
 42114  1  0  0  0
 43 44  1  0  0  0
 44115  1  0  0  0
 45 46  2  0  0  0
 45116  1  0  0  0
 46117  1  0  0  0
 47118  1  0  0  0
 47119  1  0  0  0
 48 56  1  0  0  0
 48 65  1  0  0  0
 48120  1  0  0  0
 49 50  1  0  0  0
 49 53  1  0  0  0
 49 64  1  0  0  0
 49121  1  0  0  0
 50 51  1  0  0  0
 50122  1  0  0  0
 50123  1  0  0  0
 51 52  1  0  0  0
 51124  1  0  0  0
 51125  1  0  0  0
 52126  1  0  0  0
 52127  1  0  0  0
 53 54  1  0  0  0
 54 55  2  0  0  0
 54128  1  0  0  0
 55 57  1  0  0  0
 55129  1  0  0  0
 56 69  2  0  0  0
 57 58  2  0  0  0
 57130  1  0  0  0
 58131  1  0  0  0
 59 60  1  0  0  0
 59 61  1  0  0  0
 59 62  1  0  0  0
 60132  1  0  0  0
 60133  1  0  0  0
 60134  1  0  0  0
 61135  1  0  0  0
 61136  1  0  0  0
 61137  1  0  0  0
 62138  1  0  0  0
 62139  1  0  0  0
 62140  1  0  0  0
 63 65  1  0  0  0
 63141  1  0  0  0
 63142  1  0  0  0
 63143  1  0  0  0
 64144  1  0  0  0
 65145  1  0  0  0
 68 83  1  0  0  0
 71 74  2  0  0  0
 71 75  1  0  0  0
 71146  1  0  0  0
 72 74  1  0  0  0
 72 76  2  0  0  0
 72147  1  0  0  0
 73 75  2  0  0  0
 73 76  1  0  0  0
 73148  1  0  0  0
 74 78  1  0  0  0
 75 80  1  0  0  0
 76 84  1  0  0  0
 77 81  1  0  0  0
 77 85  1  0  0  0
 77 86  2  0  0  0
 78149  1  0  0  0
 78150  1  0  0  0
 78151  1  0  0  0
 79 85  1  0  0  0
 79152  1  0  0  0
 79153  1  0  0  0
 79154  1  0  0  0
 80 85  1  0  0  0
 80155  1  0  0  0
 80156  1  0  0  0
 81 82  1  0  0  0
 81157  1  0  0  0
 81158  1  0  0  0
 82 83  1  0  0  0
 82159  1  0  0  0
 82160  1  0  0  0
 83161  1  0  0  0
 83162  1  0  0  0
 84163  1  0  0  0
M  ISO  4   1 100  68 101  83 101  84 100
M  END
> <chiral flag>
0

> <version>
0

> <s_m_source_file>
/data/baiqing/PycharmProjects/Reinvent-master-3.2/result/LINK_invent/BTK/process_docking_weight1_custom_product_contain_oxygen_bond_distance_aromatic_linkinvent_7_9_3/rearranged_h_0056.sdf

> <i_m_source_file_index>
20

> <r_mmod_Potential_Energy-OPLS-2005>
-18.3071022033691

> <r_mmod_Stretch_Energy-OPLS-2005>
42.7424201965332

> <r_mmod_Bend_Energy-OPLS-2005>
117.601150512695

> <r_mmod_Torsional_Energy-OPLS-2005>
294.928863525391

> <r_mmod_Improper_Torsional_Energy-OPLS-2005>
7.88332366943359

> <r_mmod_Van_der_Waal_Energy-OPLS-2005>
140.21501159668

> <r_mmod_Electrostatic_Energy-OPLS-2005>
-417.111907958984

> <r_mmod_Solvation_Energy-OPLS-2005>
-214.963287353516

> <b_mmod_Minimization_Converged-OPLS-2005>
0

> <r_mmod_RMS_Derivative-OPLS-2005>
3.09842562675476

$$$$
20
                    3D
 Structure written by MMmdl.
154162  0  0  1  0            999 V2000
  -30.6338  -14.7361   20.3943 C   0  0  0  0  0  0
  -30.4262  -12.4371   19.4686 C   0  0  0  0  0  0
  -29.5063  -12.4917   18.2295 C   0  0  0  0  0  0
  -28.0341  -12.3226   18.6482 C   0  0  0  0  0  0
  -27.6411  -13.2335   19.8424 C   0  0  2  0  0  0
  -28.6902  -13.1904   20.9762 C   0  0  0  0  0  0
  -25.2510  -13.8209   20.5669 C   0  0  0  0  0  0
  -24.1818  -13.0449   20.9202 C   0  0  0  0  0  0
  -24.6421  -11.6925   20.8759 C   0  0  0  0  0  0
  -23.9098  -10.4301   21.0424 C   0  0  0  0  0  0
  -24.3639   -9.4205   21.9189 C   0  0  0  0  0  0
  -23.6309   -8.2246   22.0753 C   0  0  0  0  0  0
  -22.4286   -8.0289   21.3552 C   0  0  0  0  0  0
  -21.9932   -9.0264   20.4645 C   0  0  0  0  0  0
  -22.7275  -10.2143   20.3060 C   0  0  0  0  0  0
  -21.6852   -6.0744   22.5281 C   0  0  0  0  0  0
  -21.4015   -6.5642   23.8213 C   0  0  0  0  0  0
  -21.3656   -5.6789   24.9179 C   0  0  0  0  0  0
  -21.6045   -4.3059   24.7229 C   0  0  0  0  0  0
  -21.8820   -3.8152   23.4348 C   0  0  0  0  0  0
  -21.9197   -4.6967   22.3411 C   0  0  0  0  0  0
  -22.7833  -13.5213   21.1857 C   0  0  0  0  0  0
  -22.1663   -4.2149   21.0991 F   0  0  0  0  0  0
  -21.5627   -3.4542   25.7750 F   0  0  0  0  0  0
  -29.9928  -13.5173   20.3848 N   0  0  0  0  0  0
  -26.2940  -12.9414   20.3257 N   0  0  0  0  0  0
  -25.9345  -11.6553   20.5754 N   0  0  0  0  0  0
  -22.0497  -12.8198   22.0415 N   0  0  0  0  0  0
  -25.4207  -15.1938   20.4065 N   0  0  0  0  0  0
  -31.8387  -14.7798   20.1368 O   0  0  0  0  0  0
  -21.6648   -6.8893   21.4246 O   0  0  0  0  0  0
  -22.3518  -14.5528   20.6718 O   0  0  0  0  0  0
  -24.6318  -31.8556   23.1976 C   0  0  0  0  0  0
  -25.9148  -32.4741   23.8309 C   0  0  1  0  0  0
  -27.2308  -27.2752   20.1040 C   0  0  0  0  0  0
  -25.5962  -33.8541   24.2252 N   0  0  0  0  0  0
  -23.4261  -30.4783   21.5411 C   0  0  2  0  0  0
  -24.8715  -28.9235   20.1097 C   0  0  0  0  0  0
  -22.7507  -29.4609   22.4914 C   0  0  0  0  0  0
  -18.0291  -28.1381   22.8471 C   0  0  0  0  0  0
  -24.1496  -36.7278   23.2638 C   0  0  0  0  0  0
  -25.9728  -30.7685   21.3773 C   0  0  0  0  0  0
  -26.0419  -29.3931   20.7155 C   0  0  0  0  0  0
  -27.2167  -28.5791   20.7052 C   0  0  0  0  0  0
  -26.0242  -26.8610   19.4917 C   0  0  0  0  0  0
  -24.8653  -27.6633   19.4924 C   0  0  0  0  0  0
  -23.6430  -29.8111   20.1574 C   0  0  0  0  0  0
  -25.4117  -36.3064   24.0343 C   0  0  1  0  0  0
  -20.5906  -28.3696   23.1261 C   0  0  2  0  0  0
  -20.6792  -26.9411   22.5407 C   0  0  0  0  0  0
  -19.5767  -26.6385   21.5207 C   0  0  0  0  0  0
  -18.1941  -26.7927   22.1614 C   0  0  0  0  0  0
  -19.1554  -28.8859   23.2851 C   0  0  0  0  0  0
  -18.9487  -30.1455   23.8869 C   0  0  0  0  0  0
  -17.6488  -30.6577   24.0557 C   0  0  0  0  0  0
  -25.9075  -34.9432   23.5099 C   0  0  0  0  0  0
  -16.5369  -29.9085   23.6329 C   0  0  0  0  0  0
  -16.7285  -28.6508   23.0338 C   0  0  0  0  0  0
  -26.4506  -31.6571   25.0695 C   0  0  0  0  0  0
  -25.3737  -31.3742   26.1431 C   0  0  0  0  0  0
  -27.0382  -30.2998   24.6195 C   0  0  0  0  0  0
  -27.6048  -32.4329   25.7481 C   0  0  0  0  0  0
  -27.5581  -37.1773   24.8452 C   0  0  0  0  0  0
  -21.4220  -29.3033   22.3664 N   0  0  0  0  0  0
  -26.4272  -37.3772   23.9440 N   0  0  0  0  0  0
  -24.6959  -31.0531   22.0947 N   0  0  0  0  0  0
  -23.4224  -28.8155   23.3000 O   0  0  0  0  0  0
  -28.3677  -26.4353   20.1710 O   0  0  0  0  0  0
  -26.5641  -34.8907   22.4664 O   0  0  0  0  0  0
  -23.5482  -32.1375   23.7294 O   0  0  0  0  0  0
  -31.3388  -18.6577   18.3074 C   0  0  0  0  0  0
  -30.7392  -19.8389   18.7789 C   0  0  0  0  0  0
  -31.0552  -17.4072   18.8832 C   0  0  0  0  0  0
  -29.5122  -18.5099   20.4154 C   0  0  0  0  0  0
  -29.7993  -19.8285   19.8368 C   0  0  0  0  0  0
  -30.1546  -17.2719   19.9654 C   0  0  0  0  0  0
  -29.1227  -22.3641   19.6613 C   0  0  0  0  0  0
  -28.4821  -18.4003   21.5254 C   0  0  0  0  0  0
  -28.7649  -23.7308   20.4199 C   0  0  0  0  0  0
  -28.4698  -25.0698   19.5522 C   0  0  0  0  0  0
  -29.2603  -21.1391   20.3135 N   0  0  0  0  0  0
  -29.8803  -15.9018   20.4968 N   0  0  0  0  0  0
  -29.2494  -22.4370   18.4372 O   0  0  0  0  0  0
  -31.4697  -12.5404   19.1643 H   0  0  0  0  0  0
  -30.3555  -11.4655   19.9598 H   0  0  0  0  0  0
  -29.7843  -11.7153   17.5150 H   0  0  0  0  0  0
  -29.6355  -13.4443   17.7115 H   0  0  0  0  0  0
  -27.8942  -11.2762   18.9232 H   0  0  0  0  0  0
  -27.3741  -12.5022   17.7986 H   0  0  0  0  0  0
  -27.6306  -14.2493   19.4461 H   0  0  0  0  0  0
  -28.7189  -12.2047   21.4434 H   0  0  0  0  0  0
  -28.4332  -13.8981   21.7654 H   0  0  0  0  0  0
  -25.2787   -9.5670   22.4751 H   0  0  0  0  0  0
  -24.0012   -7.4639   22.7466 H   0  0  0  0  0  0
  -21.0858   -8.8796   19.8951 H   0  0  0  0  0  0
  -22.3743  -10.9679   19.6158 H   0  0  0  0  0  0
  -21.2003   -7.6147   23.9719 H   0  0  0  0  0  0
  -21.1468   -6.0527   25.9083 H   0  0  0  0  0  0
  -22.0601   -2.7608   23.2861 H   0  0  0  0  0  0
  -22.4119  -11.9856   22.4799 H   0  0  0  0  0  0
  -21.1104  -13.1196   22.2625 H   0  0  0  0  0  0
  -24.6463  -15.8418   20.5013 H   0  0  0  0  0  0
  -26.2598  -15.6303   20.0468 H   0  0  0  0  0  0
  -26.7210  -32.5380   23.1045 H   0  0  0  0  0  0
  -25.0088  -33.9660   25.0388 H   0  0  0  0  0  0
  -22.7200  -31.3006   21.3951 H   0  0  0  0  0  0
  -23.3761  -35.9592   23.3285 H   0  0  0  0  0  0
  -24.3578  -36.8916   22.2046 H   0  0  0  0  0  0
  -23.7231  -37.6456   23.6675 H   0  0  0  0  0  0
  -26.1201  -31.5310   20.6111 H   0  0  0  0  0  0
  -26.8470  -30.8089   22.0151 H   0  0  0  0  0  0
  -28.1152  -28.9326   21.1916 H   0  0  0  0  0  0
  -25.9220  -25.8951   19.0267 H   0  0  0  0  0  0
  -23.9628  -27.2914   19.0266 H   0  0  0  0  0  0
  -23.7709  -30.5877   19.4019 H   0  0  0  0  0  0
  -22.7594  -29.2499   19.8482 H   0  0  0  0  0  0
  -25.1281  -36.1894   25.0836 H   0  0  0  0  0  0
  -20.9981  -28.3302   24.1391 H   0  0  0  0  0  0
  -20.5731  -26.2299   23.3621 H   0  0  0  0  0  0
  -21.6659  -26.7458   22.1178 H   0  0  0  0  0  0
  -19.6936  -25.6305   21.1227 H   0  0  0  0  0  0
  -19.6710  -27.3209   20.6763 H   0  0  0  0  0  0
  -17.4223  -26.6679   21.4006 H   0  0  0  0  0  0
  -18.0312  -26.0056   22.9006 H   0  0  0  0  0  0
  -19.7971  -30.7249   24.2241 H   0  0  0  0  0  0
  -17.5058  -31.6258   24.5164 H   0  0  0  0  0  0
  -15.5370  -30.2976   23.7681 H   0  0  0  0  0  0
  -15.8686  -28.0822   22.7061 H   0  0  0  0  0  0
  -24.5909  -30.7090   25.7786 H   0  0  0  0  0  0
  -24.8922  -32.2916   26.4814 H   0  0  0  0  0  0
  -25.8056  -30.8948   27.0237 H   0  0  0  0  0  0
  -26.2980  -29.6706   24.1231 H   0  0  0  0  0  0
  -27.4095  -29.7273   25.4694 H   0  0  0  0  0  0
  -27.8840  -30.4268   23.9438 H   0  0  0  0  0  0
  -27.2638  -33.3653   26.2009 H   0  0  0  0  0  0
  -28.3888  -32.6873   25.0340 H   0  0  0  0  0  0
  -28.0689  -31.8489   26.5441 H   0  0  0  0  0  0
  -28.2547  -38.0116   24.7573 H   0  0  0  0  0  0
  -28.1137  -36.2647   24.6193 H   0  0  0  0  0  0
  -27.2315  -37.1321   25.8852 H   0  0  0  0  0  0
  -20.9436  -29.8743   21.6840 H   0  0  0  0  0  0
  -26.0154  -38.2843   24.1473 H   0  0  0  0  0  0
  -32.0387  -18.7124   17.4850 H   0  0  0  0  0  0
  -31.0383  -20.7642   18.3077 H   0  0  0  0  0  0
  -31.5408  -16.5454   18.4491 H   0  0  0  0  0  0
  -27.9828  -19.3482   21.7202 H   0  0  0  0  0  0
  -28.9505  -18.0656   22.4513 H   0  0  0  0  0  0
  -27.7112  -17.6779   21.2511 H   0  0  0  0  0  0
  -29.6075  -23.9456   21.0770 H   0  0  0  0  0  0
  -27.9131  -23.5363   21.0709 H   0  0  0  0  0  0
  -27.6455  -24.8553   18.8786 H   0  0  0  0  0  0
  -29.3136  -25.1770   18.8703 H   0  0  0  0  0  0
  -29.0080  -21.1603   21.2929 H   0  0  0  0  0  0
  -28.9474  -15.7639   20.8543 H   0  0  0  0  0  0
  1 25  1  0  0  0
  1 30  2  0  0  0
  1 82  1  0  0  0
  2  3  1  0  0  0
  2 25  1  0  0  0
  2 84  1  0  0  0
  2 85  1  0  0  0
  3  4  1  0  0  0
  3 86  1  0  0  0
  3 87  1  0  0  0
  4  5  1  0  0  0
  4 88  1  0  0  0
  4 89  1  0  0  0
  5  6  1  0  0  0
  5 26  1  0  0  0
  5 90  1  0  0  0
  6 25  1  0  0  0
  6 91  1  0  0  0
  6 92  1  0  0  0
  7  8  2  0  0  0
  7 26  1  0  0  0
  7 29  1  0  0  0
  8  9  1  0  0  0
  8 22  1  0  0  0
  9 10  1  0  0  0
  9 27  2  0  0  0
 10 11  2  0  0  0
 10 15  1  0  0  0
 11 12  1  0  0  0
 11 93  1  0  0  0
 12 13  2  0  0  0
 12 94  1  0  0  0
 13 14  1  0  0  0
 13 31  1  0  0  0
 14 15  2  0  0  0
 14 95  1  0  0  0
 15 96  1  0  0  0
 16 17  2  0  0  0
 16 21  1  0  0  0
 16 31  1  0  0  0
 17 18  1  0  0  0
 17 97  1  0  0  0
 18 19  2  0  0  0
 18 98  1  0  0  0
 19 20  1  0  0  0
 19 24  1  0  0  0
 20 21  2  0  0  0
 20 99  1  0  0  0
 21 23  1  0  0  0
 22 28  1  0  0  0
 22 32  2  0  0  0
 26 27  1  0  0  0
 28100  1  0  0  0
 28101  1  0  0  0
 29102  1  0  0  0
 29103  1  0  0  0
 33 34  1  0  0  0
 33 66  1  0  0  0
 33 70  2  0  0  0
 34 36  1  0  0  0
 34 59  1  0  0  0
 34104  1  0  0  0
 35 44  2  0  0  0
 35 45  1  0  0  0
 35 68  1  0  0  0
 36 56  1  0  0  0
 36105  1  0  0  0
 37 39  1  0  0  0
 37 47  1  0  0  0
 37 66  1  0  0  0
 37106  1  0  0  0
 38 43  2  0  0  0
 38 46  1  0  0  0
 38 47  1  0  0  0
 39 64  1  0  0  0
 39 67  2  0  0  0
 40 52  1  0  0  0
 40 53  2  0  0  0
 40 58  1  0  0  0
 41107  1  0  0  0
 41108  1  0  0  0
 41109  1  0  0  0
 41 48  1  0  0  0
 42 43  1  0  0  0
 42 66  1  0  0  0
 42110  1  0  0  0
 42111  1  0  0  0
 43 44  1  0  0  0
 44112  1  0  0  0
 45 46  2  0  0  0
 45113  1  0  0  0
 46114  1  0  0  0
 47115  1  0  0  0
 47116  1  0  0  0
 48 56  1  0  0  0
 48 65  1  0  0  0
 48117  1  0  0  0
 49 50  1  0  0  0
 49 53  1  0  0  0
 49 64  1  0  0  0
 49118  1  0  0  0
 50 51  1  0  0  0
 50119  1  0  0  0
 50120  1  0  0  0
 51 52  1  0  0  0
 51121  1  0  0  0
 51122  1  0  0  0
 52123  1  0  0  0
 52124  1  0  0  0
 53 54  1  0  0  0
 54 55  2  0  0  0
 54125  1  0  0  0
 55 57  1  0  0  0
 55126  1  0  0  0
 56 69  2  0  0  0
 57 58  2  0  0  0
 57127  1  0  0  0
 58128  1  0  0  0
 59 60  1  0  0  0
 59 61  1  0  0  0
 59 62  1  0  0  0
 60129  1  0  0  0
 60130  1  0  0  0
 60131  1  0  0  0
 61132  1  0  0  0
 61133  1  0  0  0
 61134  1  0  0  0
 62135  1  0  0  0
 62136  1  0  0  0
 62137  1  0  0  0
 63 65  1  0  0  0
 63138  1  0  0  0
 63139  1  0  0  0
 63140  1  0  0  0
 64141  1  0  0  0
 65142  1  0  0  0
 68 80  1  0  0  0
 71 72  2  0  0  0
 71 73  1  0  0  0
 71143  1  0  0  0
 72 75  1  0  0  0
 72144  1  0  0  0
 73 76  2  0  0  0
 73145  1  0  0  0
 74 75  2  0  0  0
 74 76  1  0  0  0
 74 78  1  0  0  0
 75 81  1  0  0  0
 76 82  1  0  0  0
 77 79  1  0  0  0
 77 81  1  0  0  0
 77 83  2  0  0  0
 78146  1  0  0  0
 78147  1  0  0  0
 78148  1  0  0  0
 79 80  1  0  0  0
 79149  1  0  0  0
 79150  1  0  0  0
 80151  1  0  0  0
 80152  1  0  0  0
 81153  1  0  0  0
 82154  1  0  0  0
M  ISO  4   1 100  68 101  80 101  82 100
M  END
> <chiral flag>
0

> <version>
0

> <s_m_source_file>
/data/baiqing/PycharmProjects/Reinvent-master-3.2/result/LINK_invent/BTK/process_docking_weight1_custom_product_contain_oxygen_bond_distance_aromatic_linkinvent_7_9_3/rearranged_h_0056.sdf

> <i_m_source_file_index>
21

> <r_mmod_Potential_Energy-OPLS-2005>
117.764953613281

> <r_mmod_Stretch_Energy-OPLS-2005>
129.998931884766

> <r_mmod_Bend_Energy-OPLS-2005>
169.362945556641

> <r_mmod_Torsional_Energy-OPLS-2005>
234.195861816406

> <r_mmod_Improper_Torsional_Energy-OPLS-2005>
5.24265193939209

> <r_mmod_Van_der_Waal_Energy-OPLS-2005>
147.551635742188

> <r_mmod_Electrostatic_Energy-OPLS-2005>
-415.662475585938

> <r_mmod_Solvation_Energy-OPLS-2005>
-232.739059448242

> <b_mmod_Minimization_Converged-OPLS-2005>
0

> <r_mmod_RMS_Derivative-OPLS-2005>
2.96246910095215

$$$$
21
                    3D
 Structure written by MMmdl.
151159  0  0  1  0            999 V2000
  -30.5192  -15.0448   20.4000 C   0  0  0  0  0  0
  -30.4373  -12.6529   19.5054 C   0  0  0  0  0  0
  -29.5234  -12.5406   18.2626 C   0  0  0  0  0  0
  -28.0600  -12.3119   18.6829 C   0  0  0  0  0  0
  -27.6224  -13.2582   19.8309 C   0  0  2  0  0  0
  -28.6639  -13.3365   20.9669 C   0  0  0  0  0  0
  -25.2430  -13.8230   20.5712 C   0  0  0  0  0  0
  -24.1766  -13.0441   20.9245 C   0  0  0  0  0  0
  -24.6397  -11.6931   20.8765 C   0  0  0  0  0  0
  -23.9084  -10.4295   21.0411 C   0  0  0  0  0  0
  -24.3631   -9.4208   21.9187 C   0  0  0  0  0  0
  -23.6303   -8.2245   22.0754 C   0  0  0  0  0  0
  -22.4284   -8.0284   21.3546 C   0  0  0  0  0  0
  -21.9924   -9.0258   20.4646 C   0  0  0  0  0  0
  -22.7257  -10.2135   20.3058 C   0  0  0  0  0  0
  -21.6855   -6.0737   22.5278 C   0  0  0  0  0  0
  -21.4016   -6.5641   23.8211 C   0  0  0  0  0  0
  -21.3659   -5.6794   24.9173 C   0  0  0  0  0  0
  -21.6044   -4.3057   24.7224 C   0  0  0  0  0  0
  -21.8819   -3.8148   23.4346 C   0  0  0  0  0  0
  -21.9195   -4.6965   22.3403 C   0  0  0  0  0  0
  -22.7785  -13.5204   21.1895 C   0  0  0  0  0  0
  -22.1663   -4.2151   21.0981 F   0  0  0  0  0  0
  -21.5627   -3.4540   25.7736 F   0  0  0  0  0  0
  -29.9251  -13.7742   20.3546 N   0  0  0  0  0  0
  -26.2856  -12.9479   20.3227 N   0  0  0  0  0  0
  -25.9330  -11.6600   20.5738 N   0  0  0  0  0  0
  -22.0439  -12.8185   22.0446 N   0  0  0  0  0  0
  -25.4062  -15.1959   20.4093 N   0  0  0  0  0  0
  -31.7334  -15.0606   20.1651 O   0  0  0  0  0  0
  -21.6645   -6.8883   21.4242 O   0  0  0  0  0  0
  -22.3466  -14.5506   20.6735 O   0  0  0  0  0  0
  -24.6501  -31.8368   23.1828 C   0  0  0  0  0  0
  -25.9242  -32.4659   23.8240 C   0  0  1  0  0  0
  -27.2142  -27.0649   20.1612 C   0  0  0  0  0  0
  -25.5959  -33.8467   24.2151 N   0  0  0  0  0  0
  -23.4577  -30.4550   21.5292 C   0  0  2  0  0  0
  -24.9084  -28.8703   20.1099 C   0  0  0  0  0  0
  -22.7600  -29.4512   22.4826 C   0  0  0  0  0  0
  -18.0307  -28.1404   22.8469 C   0  0  0  0  0  0
  -24.1491  -36.7235   23.2645 C   0  0  0  0  0  0
  -26.0196  -30.6882   21.3925 C   0  0  0  0  0  0
  -26.0890  -29.2930   20.7336 C   0  0  0  0  0  0
  -27.2418  -28.4084   20.7391 C   0  0  0  0  0  0
  -26.0059  -26.7628   19.4949 C   0  0  0  0  0  0
  -24.8838  -27.6211   19.4732 C   0  0  0  0  0  0
  -23.6888  -29.7815   20.1505 C   0  0  0  0  0  0
  -25.4125  -36.3008   24.0311 C   0  0  1  0  0  0
  -20.5927  -28.3732   23.1216 C   0  0  2  0  0  0
  -20.6790  -26.9427   22.5402 C   0  0  0  0  0  0
  -19.5763  -26.6380   21.5213 C   0  0  0  0  0  0
  -18.1945  -26.7940   22.1622 C   0  0  0  0  0  0
  -19.1568  -28.8885   23.2834 C   0  0  0  0  0  0
  -18.9484  -30.1481   23.8865 C   0  0  0  0  0  0
  -17.6481  -30.6597   24.0555 C   0  0  0  0  0  0
  -25.9080  -34.9387   23.5044 C   0  0  0  0  0  0
  -16.5368  -29.9088   23.6343 C   0  0  0  0  0  0
  -16.7292  -28.6507   23.0359 C   0  0  0  0  0  0
  -26.4539  -31.6554   25.0712 C   0  0  0  0  0  0
  -25.3702  -31.3773   26.1393 C   0  0  0  0  0  0
  -27.0409  -30.2935   24.6352 C   0  0  0  0  0  0
  -27.6056  -32.4333   25.7503 C   0  0  0  0  0  0
  -27.5574  -37.1771   24.8465 C   0  0  0  0  0  0
  -21.4283  -29.3045   22.3575 N   0  0  0  0  0  0
  -26.4280  -37.3732   23.9414 N   0  0  0  0  0  0
  -24.7296  -31.0163   22.0894 N   0  0  0  0  0  0
  -23.4212  -28.8063   23.3005 O   0  0  0  0  0  0
  -28.2383  -26.0274   20.2358 O   0  0  0  0  0  0
  -26.5675  -34.8894   22.4630 O   0  0  0  0  0  0
  -23.5600  -32.1271   23.7003 O   0  0  0  0  0  0
  -31.8472  -19.5156   20.5568 C   0  0  0  0  0  0
  -30.9632  -20.6133   20.4697 C   0  0  0  0  0  0
  -31.4215  -18.1703   20.5527 C   0  0  0  0  0  0
  -29.1464  -19.0071   20.3767 C   0  0  0  0  0  0
  -29.5605  -20.4671   20.3758 C   0  0  0  0  0  0
  -30.0623  -17.8012   20.4595 C   0  0  0  0  0  0
  -28.9826  -23.2110   20.3511 C   0  0  0  0  0  0
  -27.6629  -18.7124   20.2794 C   0  0  0  0  0  0
  -27.9022  -24.4797   20.0839 C   0  0  0  0  0  0
  -28.7117  -21.7859   20.2603 N   0  0  0  0  0  0
  -29.7447  -16.2664   20.4821 N   0  0  0  0  0  0
  -30.1168  -23.5773   20.6672 O   0  0  0  0  0  0
  -31.4679  -12.8185   19.1875 H   0  0  0  0  0  0
  -30.4480  -11.7166   20.0660 H   0  0  0  0  0  0
  -29.8595  -11.7295   17.6152 H   0  0  0  0  0  0
  -29.5962  -13.4553   17.6718 H   0  0  0  0  0  0
  -27.9702  -11.2746   19.0076 H   0  0  0  0  0  0
  -27.3958  -12.4211   17.8247 H   0  0  0  0  0  0
  -27.5687  -14.2493   19.3796 H   0  0  0  0  0  0
  -28.7763  -12.3752   21.4703 H   0  0  0  0  0  0
  -28.3471  -14.0515   21.7279 H   0  0  0  0  0  0
  -25.2774   -9.5682   22.4766 H   0  0  0  0  0  0
  -24.0008   -7.4635   22.7473 H   0  0  0  0  0  0
  -21.0856   -8.8782   19.8950 H   0  0  0  0  0  0
  -22.3717  -10.9677   19.6170 H   0  0  0  0  0  0
  -21.2008   -7.6148   23.9716 H   0  0  0  0  0  0
  -21.1480   -6.0522   25.9076 H   0  0  0  0  0  0
  -22.0599   -2.7610   23.2845 H   0  0  0  0  0  0
  -22.4071  -11.9854   22.4835 H   0  0  0  0  0  0
  -21.1051  -13.1193   22.2649 H   0  0  0  0  0  0
  -24.6263  -15.8376   20.5020 H   0  0  0  0  0  0
  -26.2286  -15.6293   20.0124 H   0  0  0  0  0  0
  -26.7304  -32.5238   23.0955 H   0  0  0  0  0  0
  -25.0078  -33.9572   25.0280 H   0  0  0  0  0  0
  -22.7644  -31.2837   21.3694 H   0  0  0  0  0  0
  -23.3763  -35.9557   23.3282 H   0  0  0  0  0  0
  -24.3572  -36.8894   22.2065 H   0  0  0  0  0  0
  -23.7236  -37.6416   23.6699 H   0  0  0  0  0  0
  -26.1849  -31.4388   20.6183 H   0  0  0  0  0  0
  -26.8864  -30.7393   22.0399 H   0  0  0  0  0  0
  -28.1377  -28.7266   21.2529 H   0  0  0  0  0  0
  -25.8890  -25.8096   19.0023 H   0  0  0  0  0  0
  -23.9843  -27.2921   18.9717 H   0  0  0  0  0  0
  -23.8321  -30.5545   19.3949 H   0  0  0  0  0  0
  -22.8018  -29.2288   19.8361 H   0  0  0  0  0  0
  -25.1318  -36.1822   25.0803 H   0  0  0  0  0  0
  -21.0017  -28.3327   24.1338 H   0  0  0  0  0  0
  -20.5681  -26.2346   23.3627 H   0  0  0  0  0  0
  -21.6654  -26.7421   22.1202 H   0  0  0  0  0  0
  -19.6925  -25.6285   21.1258 H   0  0  0  0  0  0
  -19.6707  -27.3174   20.6733 H   0  0  0  0  0  0
  -17.4213  -26.6675   21.4027 H   0  0  0  0  0  0
  -18.0343  -26.0101   22.9038 H   0  0  0  0  0  0
  -19.7962  -30.7301   24.2220 H   0  0  0  0  0  0
  -17.5036  -31.6277   24.5159 H   0  0  0  0  0  0
  -15.5368  -30.2980   23.7694 H   0  0  0  0  0  0
  -15.8688  -28.0815   22.7101 H   0  0  0  0  0  0
  -24.5888  -30.7115   25.7711 H   0  0  0  0  0  0
  -24.8887  -32.2967   26.4732 H   0  0  0  0  0  0
  -25.7964  -30.8998   27.0225 H   0  0  0  0  0  0
  -26.3042  -29.6642   24.1346 H   0  0  0  0  0  0
  -27.3973  -29.7259   25.4960 H   0  0  0  0  0  0
  -27.8972  -30.4143   23.9716 H   0  0  0  0  0  0
  -27.2647  -33.3676   26.1975 H   0  0  0  0  0  0
  -28.3924  -32.6821   25.0370 H   0  0  0  0  0  0
  -28.0654  -31.8523   26.5507 H   0  0  0  0  0  0
  -28.2570  -38.0089   24.7524 H   0  0  0  0  0  0
  -28.1092  -36.2614   24.6275 H   0  0  0  0  0  0
  -27.2290  -37.1395   25.8868 H   0  0  0  0  0  0
  -20.9504  -29.8753   21.6740 H   0  0  0  0  0  0
  -26.0137  -38.2793   24.1431 H   0  0  0  0  0  0
  -32.9070  -19.7159   20.6283 H   0  0  0  0  0  0
  -31.4147  -21.5925   20.4686 H   0  0  0  0  0  0
  -32.1887  -17.4153   20.6329 H   0  0  0  0  0  0
  -27.0630  -19.5656   20.5943 H   0  0  0  0  0  0
  -27.3934  -17.8696   20.9159 H   0  0  0  0  0  0
  -27.3950  -18.4654   19.2522 H   0  0  0  0  0  0
  -27.0416  -24.2796   20.7225 H   0  0  0  0  0  0
  -27.5502  -24.3333   19.0630 H   0  0  0  0  0  0
  -27.7366  -21.6149   20.0552 H   0  0  0  0  0  0
  -28.7600  -16.0647   20.5598 H   0  0  0  0  0  0
  1 25  1  0  0  0
  1 30  2  0  0  0
  1 81  1  0  0  0
  2  3  1  0  0  0
  2 25  1  0  0  0
  2 83  1  0  0  0
  2 84  1  0  0  0
  3  4  1  0  0  0
  3 85  1  0  0  0
  3 86  1  0  0  0
  4  5  1  0  0  0
  4 87  1  0  0  0
  4 88  1  0  0  0
  5  6  1  0  0  0
  5 26  1  0  0  0
  5 89  1  0  0  0
  6 25  1  0  0  0
  6 90  1  0  0  0
  6 91  1  0  0  0
  7  8  2  0  0  0
  7 26  1  0  0  0
  7 29  1  0  0  0
  8  9  1  0  0  0
  8 22  1  0  0  0
  9 10  1  0  0  0
  9 27  2  0  0  0
 10 11  2  0  0  0
 10 15  1  0  0  0
 11 12  1  0  0  0
 11 92  1  0  0  0
 12 13  2  0  0  0
 12 93  1  0  0  0
 13 14  1  0  0  0
 13 31  1  0  0  0
 14 15  2  0  0  0
 14 94  1  0  0  0
 15 95  1  0  0  0
 16 17  2  0  0  0
 16 21  1  0  0  0
 16 31  1  0  0  0
 17 18  1  0  0  0
 17 96  1  0  0  0
 18 19  2  0  0  0
 18 97  1  0  0  0
 19 20  1  0  0  0
 19 24  1  0  0  0
 20 21  2  0  0  0
 20 98  1  0  0  0
 21 23  1  0  0  0
 22 28  1  0  0  0
 22 32  2  0  0  0
 26 27  1  0  0  0
 28 99  1  0  0  0
 28100  1  0  0  0
 29101  1  0  0  0
 29102  1  0  0  0
 33 34  1  0  0  0
 33 66  1  0  0  0
 33 70  2  0  0  0
 34 36  1  0  0  0
 34 59  1  0  0  0
 34103  1  0  0  0
 35 44  2  0  0  0
 35 45  1  0  0  0
 35 68  1  0  0  0
 36 56  1  0  0  0
 36104  1  0  0  0
 37 39  1  0  0  0
 37 47  1  0  0  0
 37 66  1  0  0  0
 37105  1  0  0  0
 38 43  2  0  0  0
 38 46  1  0  0  0
 38 47  1  0  0  0
 39 64  1  0  0  0
 39 67  2  0  0  0
 40 52  1  0  0  0
 40 53  2  0  0  0
 40 58  1  0  0  0
 41106  1  0  0  0
 41107  1  0  0  0
 41108  1  0  0  0
 41 48  1  0  0  0
 42 43  1  0  0  0
 42 66  1  0  0  0
 42109  1  0  0  0
 42110  1  0  0  0
 43 44  1  0  0  0
 44111  1  0  0  0
 45 46  2  0  0  0
 45112  1  0  0  0
 46113  1  0  0  0
 47114  1  0  0  0
 47115  1  0  0  0
 48 56  1  0  0  0
 48 65  1  0  0  0
 48116  1  0  0  0
 49 50  1  0  0  0
 49 53  1  0  0  0
 49 64  1  0  0  0
 49117  1  0  0  0
 50 51  1  0  0  0
 50118  1  0  0  0
 50119  1  0  0  0
 51 52  1  0  0  0
 51120  1  0  0  0
 51121  1  0  0  0
 52122  1  0  0  0
 52123  1  0  0  0
 53 54  1  0  0  0
 54 55  2  0  0  0
 54124  1  0  0  0
 55 57  1  0  0  0
 55125  1  0  0  0
 56 69  2  0  0  0
 57 58  2  0  0  0
 57126  1  0  0  0
 58127  1  0  0  0
 59 60  1  0  0  0
 59 61  1  0  0  0
 59 62  1  0  0  0
 60128  1  0  0  0
 60129  1  0  0  0
 60130  1  0  0  0
 61131  1  0  0  0
 61132  1  0  0  0
 61133  1  0  0  0
 62134  1  0  0  0
 62135  1  0  0  0
 62136  1  0  0  0
 63 65  1  0  0  0
 63137  1  0  0  0
 63138  1  0  0  0
 63139  1  0  0  0
 64140  1  0  0  0
 65141  1  0  0  0
 68 79  1  0  0  0
 71 72  2  0  0  0
 71 73  1  0  0  0
 71142  1  0  0  0
 72 75  1  0  0  0
 72143  1  0  0  0
 73 76  2  0  0  0
 73144  1  0  0  0
 74 75  2  0  0  0
 74 76  1  0  0  0
 74 78  1  0  0  0
 75 80  1  0  0  0
 76 81  1  0  0  0
 77 79  1  0  0  0
 77 80  1  0  0  0
 77 82  2  0  0  0
 78145  1  0  0  0
 78146  1  0  0  0
 78147  1  0  0  0
 79148  1  0  0  0
 79149  1  0  0  0
 80150  1  0  0  0
 81151  1  0  0  0
M  ISO  4   1 100  68 101  79 101  81 100
M  END
> <chiral flag>
0

> <version>
0

> <s_m_source_file>
/data/baiqing/PycharmProjects/Reinvent-master-3.2/result/LINK_invent/BTK/process_docking_weight1_custom_product_contain_oxygen_bond_distance_aromatic_linkinvent_7_9_3/rearranged_h_0056.sdf

> <i_m_source_file_index>
22

> <r_mmod_Potential_Energy-OPLS-2005>
614.957214355469

> <r_mmod_Stretch_Energy-OPLS-2005>
349.086029052734

> <r_mmod_Bend_Energy-OPLS-2005>
269.695526123047

> <r_mmod_Torsional_Energy-OPLS-2005>
219.103088378906

> <r_mmod_Improper_Torsional_Energy-OPLS-2005>
5.0651650428772

> <r_mmod_Van_der_Waal_Energy-OPLS-2005>
132.757369995117

> <r_mmod_Electrostatic_Energy-OPLS-2005>
-379.003723144531

> <r_mmod_Solvation_Energy-OPLS-2005>
-246.746368408203

> <b_mmod_Minimization_Converged-OPLS-2005>
0

> <r_mmod_RMS_Derivative-OPLS-2005>
0.562134504318237

$$$$
22
                    3D
 Structure written by MMmdl.
160168  0  0  1  0            999 V2000
  -29.7177  -15.7103   20.9124 C   0  0  0  0  0  0
  -30.3299  -13.2501   19.7836 C   0  0  0  0  0  0
  -29.5689  -12.7931   18.4825 C   0  0  0  0  0  0
  -28.1344  -12.3450   18.7965 C   0  0  0  0  0  0
  -27.5395  -13.2795   19.8692 C   0  0  2  0  0  0
  -28.4223  -13.4540   21.1094 C   0  0  0  0  0  0
  -25.1923  -13.8200   20.5684 C   0  0  0  0  0  0
  -24.1361  -13.0365   20.9250 C   0  0  0  0  0  0
  -24.6053  -11.6862   20.8714 C   0  0  0  0  0  0
  -23.8846  -10.4236   21.0399 C   0  0  0  0  0  0
  -24.3491   -9.4190   21.9169 C   0  0  0  0  0  0
  -23.6227   -8.2192   22.0728 C   0  0  0  0  0  0
  -22.4209   -8.0208   21.3525 C   0  0  0  0  0  0
  -21.9793   -9.0141   20.4612 C   0  0  0  0  0  0
  -22.7055  -10.2042   20.3023 C   0  0  0  0  0  0
  -21.6830   -6.0685   22.5286 C   0  0  0  0  0  0
  -21.4002   -6.5604   23.8214 C   0  0  0  0  0  0
  -21.3656   -5.6769   24.9194 C   0  0  0  0  0  0
  -21.6051   -4.3029   24.7243 C   0  0  0  0  0  0
  -21.8821   -3.8102   23.4368 C   0  0  0  0  0  0
  -21.9191   -4.6918   22.3414 C   0  0  0  0  0  0
  -22.7447  -13.5132   21.2002 C   0  0  0  0  0  0
  -22.1666   -4.2100   21.0994 F   0  0  0  0  0  0
  -21.5646   -3.4525   25.7762 F   0  0  0  0  0  0
  -29.5295  -14.2687   20.6587 N   0  0  0  0  0  0
  -26.2152  -12.9388   20.2934 N   0  0  0  0  0  0
  -25.8915  -11.6508   20.5511 N   0  0  0  0  0  0
  -22.0144  -12.8117   22.0591 N   0  0  0  0  0  0
  -25.3713  -15.1960   20.4335 N   0  0  0  0  0  0
  -30.9154  -15.8875   20.5408 O   0  0  0  0  0  0
  -21.6600   -6.8798   21.4233 O   0  0  0  0  0  0
  -22.3157  -14.5462   20.6879 O   0  0  0  0  0  0
  -24.8032  -31.8606   23.2960 C   0  0  0  0  0  0
  -26.0298  -32.5240   23.9164 C   0  0  1  0  0  0
  -26.0055  -27.3441   20.2089 C   0  0  0  0  0  0
  -25.6541  -33.8926   24.2772 N   0  0  0  0  0  0
  -23.9763  -30.0353   21.8611 C   0  0  2  0  0  0
  -25.1339  -29.6403   19.6830 C   0  0  0  0  0  0
  -23.9260  -28.4100   22.5263 C   0  0  0  0  0  0
  -18.1663  -27.8448   22.7920 C   0  0  0  0  0  0
  -24.1480  -36.7392   23.2550 C   0  0  0  0  0  0
  -26.2736  -30.7787   21.5862 C   0  0  0  0  0  0
  -26.1893  -29.6398   20.5928 C   0  0  0  0  0  0
  -26.7719  -28.3942   20.8034 C   0  0  0  0  0  0
  -25.9408  -27.4798   18.8616 C   0  0  0  0  0  0
  -25.1281  -28.6227   18.6611 C   0  0  0  0  0  0
  -23.9659  -30.4039   20.2769 C   0  0  0  0  0  0
  -25.4063  -36.3235   24.0329 C   0  0  1  0  0  0
  -20.9056  -27.1488   22.8194 C   0  0  2  0  0  0
  -20.4822  -26.0627   21.9638 C   0  0  0  0  0  0
  -19.3041  -26.4210   21.1174 C   0  0  0  0  0  0
  -18.0689  -26.5972   21.9873 C   0  0  0  0  0  0
  -19.4888  -28.2809   23.1546 C   0  0  0  0  0  0
  -19.3218  -29.6647   23.6766 C   0  0  0  0  0  0
  -18.0838  -30.3670   23.9181 C   0  0  0  0  0  0
  -25.9129  -34.9636   23.5192 C   0  0  0  0  0  0
  -16.8535  -29.7801   23.6043 C   0  0  0  0  0  0
  -16.9216  -28.5151   23.0188 C   0  0  0  0  0  0
  -26.5133  -31.7007   25.1638 C   0  0  0  0  0  0
  -25.4019  -31.3873   26.1945 C   0  0  0  0  0  0
  -27.1546  -30.3550   24.7520 C   0  0  0  0  0  0
  -27.6231  -32.4962   25.8725 C   0  0  0  0  0  0
  -27.5551  -37.1936   24.8479 C   0  0  0  0  0  0
  -22.7492  -27.2614   22.4644 N   0  0  0  0  0  0
  -26.4233  -37.3927   23.9463 N   0  0  0  0  0  0
  -25.0255  -30.8946   22.3609 N   0  0  0  0  0  0
  -24.7448  -28.3007   23.3816 O   0  0  0  0  0  0
  -24.5501  -27.1942   20.4326 O   0  0  0  0  0  0
  -26.5501  -34.8997   22.4639 O   0  0  0  0  0  0
  -23.6826  -32.1753   23.7473 O   0  0  0  0  0  0
  -26.5190  -19.5774   23.8866 C   0  0  0  0  0  0
  -25.7566  -20.4098   24.7849 C   0  0  0  0  0  0
  -26.3605  -21.5067   22.4871 C   0  0  0  0  0  0
  -26.9804  -19.9510   22.5966 C   0  0  0  0  0  0
  -25.4625  -22.5533   23.4425 C   0  0  0  0  0  0
  -25.2726  -21.7574   24.6097 C   0  0  0  0  0  0
  -22.9401  -27.0322   24.9342 C   0  0  0  0  0  0
  -28.1319  -18.6343   21.6583 C   0  0  0  0  0  0
  -24.6503  -24.3638   23.4689 C   0  0  0  0  0  0
  -22.0856  -28.7666   24.1174 C   0  0  0  0  0  0
  -21.6739  -29.1836   21.7862 C   0  0  0  0  0  0
  -22.8561  -28.0939   20.2604 C   0  0  0  0  0  0
  -23.7266  -25.6339   24.5147 N   0  0  0  0  0  0
  -28.6499  -16.8341   21.4381 N   0  0  0  0  0  0
  -22.7604  -27.0460   26.1492 O   0  0  0  0  0  0
  -24.4003  -22.4521   25.9282 Cl  0  0  0  0  0  0
  -31.2828  -13.6912   19.4867 H   0  0  0  0  0  0
  -30.6089  -12.3834   20.3843 H   0  0  0  0  0  0
  -30.1161  -12.0088   17.9582 H   0  0  0  0  0  0
  -29.5292  -13.6440   17.8020 H   0  0  0  0  0  0
  -28.1607  -11.3216   19.1738 H   0  0  0  0  0  0
  -27.5208  -12.3419   17.8948 H   0  0  0  0  0  0
  -27.4562  -14.2475   19.3720 H   0  0  0  0  0  0
  -28.7230  -12.4972   21.5411 H   0  0  0  0  0  0
  -27.8849  -13.9896   21.8937 H   0  0  0  0  0  0
  -25.2646   -9.5712   22.4731 H   0  0  0  0  0  0
  -23.9967   -7.4577   22.7429 H   0  0  0  0  0  0
  -21.0736   -8.8589   19.8921 H   0  0  0  0  0  0
  -22.3474  -10.9559   19.6110 H   0  0  0  0  0  0
  -21.1978   -7.6108   23.9712 H   0  0  0  0  0  0
  -21.1488   -6.0498   25.9092 H   0  0  0  0  0  0
  -22.0601   -2.7562   23.2882 H   0  0  0  0  0  0
  -22.3775  -11.9760   22.4954 H   0  0  0  0  0  0
  -21.0748  -13.1100   22.2825 H   0  0  0  0  0  0
  -24.6037  -15.8513   20.5385 H   0  0  0  0  0  0
  -26.2082  -15.6280   20.0659 H   0  0  0  0  0  0
  -26.8651  -32.5786   23.2192 H   0  0  0  0  0  0
  -25.0748  -34.0036   25.0978 H   0  0  0  0  0  0
  -23.2059  -30.6120   22.3023 H   0  0  0  0  0  0
  -23.3698  -35.9769   23.3198 H   0  0  0  0  0  0
  -24.3602  -36.9013   22.1968 H   0  0  0  0  0  0
  -23.7254  -37.6606   23.6545 H   0  0  0  0  0  0
  -26.4336  -31.7104   21.0395 H   0  0  0  0  0  0
  -27.1608  -30.6253   22.1907 H   0  0  0  0  0  0
  -27.4230  -28.2061   21.6444 H   0  0  0  0  0  0
  -25.7069  -26.6375   18.2262 H   0  0  0  0  0  0
  -24.4031  -28.6213   17.8593 H   0  0  0  0  0  0
  -24.2025  -31.4611   20.1481 H   0  0  0  0  0  0
  -23.0091  -30.4058   19.7574 H   0  0  0  0  0  0
  -25.1197  -36.2093   25.0813 H   0  0  0  0  0  0
  -20.8227  -26.6203   23.7683 H   0  0  0  0  0  0
  -20.2120  -25.1789   22.5495 H   0  0  0  0  0  0
  -21.2857  -25.7076   21.3238 H   0  0  0  0  0  0
  -19.1129  -25.5982   20.4278 H   0  0  0  0  0  0
  -19.5013  -27.2856   20.4815 H   0  0  0  0  0  0
  -17.2057  -26.6567   21.3232 H   0  0  0  0  0  0
  -17.9039  -25.7431   22.6440 H   0  0  0  0  0  0
  -20.1739  -30.2884   23.8843 H   0  0  0  0  0  0
  -18.1120  -31.3687   24.3234 H   0  0  0  0  0  0
  -15.9116  -30.2898   23.7600 H   0  0  0  0  0  0
  -16.0007  -28.0484   22.6963 H   0  0  0  0  0  0
  -24.6725  -30.6698   25.8160 H   0  0  0  0  0  0
  -24.8617  -32.2855   26.4958 H   0  0  0  0  0  0
  -25.8202  -30.9479   27.1013 H   0  0  0  0  0  0
  -26.4736  -29.6988   24.2267 H   0  0  0  0  0  0
  -27.4802  -29.7989   25.6312 H   0  0  0  0  0  0
  -28.0463  -30.4961   24.1395 H   0  0  0  0  0  0
  -27.2392  -33.4112   26.3226 H   0  0  0  0  0  0
  -28.4153  -32.7849   25.1824 H   0  0  0  0  0  0
  -28.0811  -31.9251   26.6802 H   0  0  0  0  0  0
  -28.2526  -38.0268   24.7501 H   0  0  0  0  0  0
  -28.1065  -36.2788   24.6275 H   0  0  0  0  0  0
  -27.2301  -37.1575   25.8892 H   0  0  0  0  0  0
  -23.1695  -26.3850   22.7417 H   0  0  0  0  0  0
  -26.0053  -38.2950   24.1574 H   0  0  0  0  0  0
  -26.7795  -18.5884   24.2413 H   0  0  0  0  0  0
  -25.5201  -19.9600   25.7387 H   0  0  0  0  0  0
  -26.6147  -21.9633   21.5393 H   0  0  0  0  0  0
  -29.1119  -19.0669   21.8503 H   0  0  0  0  0  0
  -27.9348  -18.9054   20.6228 H   0  0  0  0  0  0
  -24.0509  -24.3450   22.5599 H   0  0  0  0  0  0
  -25.5117  -24.9615   23.1772 H   0  0  0  0  0  0
  -22.7197  -29.5777   24.4860 H   0  0  0  0  0  0
  -21.2613  -28.8790   24.8091 H   0  0  0  0  0  0
  -21.4918  -30.2394   21.5794 H   0  0  0  0  0  0
  -20.6979  -28.9962   21.3558 H   0  0  0  0  0  0
  -22.6826  -28.4794   19.2580 H   0  0  0  0  0  0
  -22.2379  -27.2168   20.0742 H   0  0  0  0  0  0
  -23.7843  -25.1911   25.4212 H   0  0  0  0  0  0
  -27.8373  -16.2925   21.7015 H   0  0  0  0  0  0
  1 25  1  0  0  0
  1 30  2  0  0  0
  1 84  1  0  0  0
  2  3  1  0  0  0
  2 25  1  0  0  0
  2 87  1  0  0  0
  2 88  1  0  0  0
  3  4  1  0  0  0
  3 89  1  0  0  0
  3 90  1  0  0  0
  4  5  1  0  0  0
  4 91  1  0  0  0
  4 92  1  0  0  0
  5  6  1  0  0  0
  5 26  1  0  0  0
  5 93  1  0  0  0
  6 25  1  0  0  0
  6 94  1  0  0  0
  6 95  1  0  0  0
  7  8  2  0  0  0
  7 26  1  0  0  0
  7 29  1  0  0  0
  8  9  1  0  0  0
  8 22  1  0  0  0
  9 10  1  0  0  0
  9 27  2  0  0  0
 10 11  2  0  0  0
 10 15  1  0  0  0
 11 12  1  0  0  0
 11 96  1  0  0  0
 12 13  2  0  0  0
 12 97  1  0  0  0
 13 14  1  0  0  0
 13 31  1  0  0  0
 14 15  2  0  0  0
 14 98  1  0  0  0
 15 99  1  0  0  0
 16 17  2  0  0  0
 16 21  1  0  0  0
 16 31  1  0  0  0
 17 18  1  0  0  0
 17100  1  0  0  0
 18 19  2  0  0  0
 18101  1  0  0  0
 19 20  1  0  0  0
 19 24  1  0  0  0
 20 21  2  0  0  0
 20102  1  0  0  0
 21 23  1  0  0  0
 22 28  1  0  0  0
 22 32  2  0  0  0
 26 27  1  0  0  0
 28103  1  0  0  0
 28104  1  0  0  0
 29105  1  0  0  0
 29106  1  0  0  0
 33 34  1  0  0  0
 33 66  1  0  0  0
 33 70  2  0  0  0
 34 36  1  0  0  0
 34 59  1  0  0  0
 34107  1  0  0  0
 35 44  2  0  0  0
 35 45  1  0  0  0
 35 68  1  0  0  0
 36 56  1  0  0  0
 36108  1  0  0  0
 37 39  1  0  0  0
 37 47  1  0  0  0
 37 66  1  0  0  0
 37109  1  0  0  0
 38 43  2  0  0  0
 38 46  1  0  0  0
 38 47  1  0  0  0
 39 64  1  0  0  0
 39 67  2  0  0  0
 40 52  1  0  0  0
 40 53  2  0  0  0
 40 58  1  0  0  0
 41110  1  0  0  0
 41111  1  0  0  0
 41112  1  0  0  0
 41 48  1  0  0  0
 42 43  1  0  0  0
 42 66  1  0  0  0
 42113  1  0  0  0
 42114  1  0  0  0
 43 44  1  0  0  0
 44115  1  0  0  0
 45 46  2  0  0  0
 45116  1  0  0  0
 46117  1  0  0  0
 47118  1  0  0  0
 47119  1  0  0  0
 48 56  1  0  0  0
 48 65  1  0  0  0
 48120  1  0  0  0
 49 50  1  0  0  0
 49 53  1  0  0  0
 49 64  1  0  0  0
 49121  1  0  0  0
 50 51  1  0  0  0
 50122  1  0  0  0
 50123  1  0  0  0
 51 52  1  0  0  0
 51124  1  0  0  0
 51125  1  0  0  0
 52126  1  0  0  0
 52127  1  0  0  0
 53 54  1  0  0  0
 54 55  2  0  0  0
 54128  1  0  0  0
 55 57  1  0  0  0
 55129  1  0  0  0
 56 69  2  0  0  0
 57 58  2  0  0  0
 57130  1  0  0  0
 58131  1  0  0  0
 59 60  1  0  0  0
 59 61  1  0  0  0
 59 62  1  0  0  0
 60132  1  0  0  0
 60133  1  0  0  0
 60134  1  0  0  0
 61135  1  0  0  0
 61136  1  0  0  0
 61137  1  0  0  0
 62138  1  0  0  0
 62139  1  0  0  0
 62140  1  0  0  0
 63 65  1  0  0  0
 63141  1  0  0  0
 63142  1  0  0  0
 63143  1  0  0  0
 64144  1  0  0  0
 65145  1  0  0  0
 68 82  1  0  0  0
 71 72  2  0  0  0
 71 74  1  0  0  0
 71146  1  0  0  0
 72 76  1  0  0  0
 72147  1  0  0  0
 73 74  2  0  0  0
 73 75  1  0  0  0
 73148  1  0  0  0
 74 78  1  0  0  0
 75 76  2  0  0  0
 75 79  1  0  0  0
 76 86  1  0  0  0
 77 80  1  0  0  0
 77 83  1  0  0  0
 77 85  2  0  0  0
 78 84  1  0  0  0
 78149  1  0  0  0
 78150  1  0  0  0
 79 83  1  0  0  0
 79151  1  0  0  0
 79152  1  0  0  0
 80 81  1  0  0  0
 80153  1  0  0  0
 80154  1  0  0  0
 81 82  1  0  0  0
 81155  1  0  0  0
 81156  1  0  0  0
 82157  1  0  0  0
 82158  1  0  0  0
 83159  1  0  0  0
 84160  1  0  0  0
M  ISO  4   1 100  68 101  82 101  84 100
M  END
> <chiral flag>
0

> <version>
0

> <s_m_source_file>
/data/baiqing/PycharmProjects/Reinvent-master-3.2/result/LINK_invent/BTK/process_docking_weight1_custom_product_contain_oxygen_bond_distance_aromatic_linkinvent_7_9_3/rearranged_h_0056.sdf

> <i_m_source_file_index>
23

> <r_mmod_Potential_Energy-OPLS-2005>
12669.18359375

> <r_mmod_Stretch_Energy-OPLS-2005>
4880.80078125

> <r_mmod_Bend_Energy-OPLS-2005>
1528.35803222656

> <r_mmod_Torsional_Energy-OPLS-2005>
568.860534667969

> <r_mmod_Improper_Torsional_Energy-OPLS-2005>
61.2278099060059

> <r_mmod_Van_der_Waal_Energy-OPLS-2005>
1724.41735839844

> <r_mmod_Electrostatic_Energy-OPLS-2005>
-474.092071533203

> <r_mmod_Solvation_Energy-OPLS-2005>
-222.690795898438

> <b_mmod_Minimization_Converged-OPLS-2005>
0

> <r_mmod_RMS_Derivative-OPLS-2005>
5.69777393341064

$$$$
23
                    3D
 Structure written by MMmdl.
157165  0  0  1  0            999 V2000
  -30.7295  -14.3739   20.6863 C   0  0  0  0  0  0
  -30.4261  -12.2932   19.3921 C   0  0  0  0  0  0
  -29.4936  -12.5493   18.1931 C   0  0  0  0  0  0
  -28.0132  -12.4008   18.5968 C   0  0  0  0  0  0
  -27.6708  -13.1986   19.8848 C   0  0  2  0  0  0
  -28.7041  -12.9090   20.9934 C   0  0  0  0  0  0
  -25.2615  -13.8155   20.5608 C   0  0  0  0  0  0
  -24.1858  -13.0438   20.9142 C   0  0  0  0  0  0
  -24.6374  -11.6903   20.8657 C   0  0  0  0  0  0
  -23.9026  -10.4289   21.0316 C   0  0  0  0  0  0
  -24.3594   -9.4224   21.9108 C   0  0  0  0  0  0
  -23.6292   -8.2253   22.0702 C   0  0  0  0  0  0
  -22.4270   -8.0261   21.3524 C   0  0  0  0  0  0
  -21.9866   -9.0206   20.4623 C   0  0  0  0  0  0
  -22.7158  -10.2095   20.2999 C   0  0  0  0  0  0
  -21.6884   -6.0710   22.5262 C   0  0  0  0  0  0
  -21.4023   -6.5625   23.8174 C   0  0  0  0  0  0
  -21.3662   -5.6783   24.9155 C   0  0  0  0  0  0
  -21.6052   -4.3040   24.7210 C   0  0  0  0  0  0
  -21.8845   -3.8130   23.4325 C   0  0  0  0  0  0
  -21.9210   -4.6942   22.3391 C   0  0  0  0  0  0
  -22.7883  -13.5222   21.1837 C   0  0  0  0  0  0
  -22.1686   -4.2130   21.0964 F   0  0  0  0  0  0
  -21.5610   -3.4518   25.7723 F   0  0  0  0  0  0
  -30.0498  -13.2157   20.4699 N   0  0  0  0  0  0
  -26.3046  -12.9296   20.3347 N   0  0  0  0  0  0
  -25.9307  -11.6468   20.5749 N   0  0  0  0  0  0
  -22.0562  -12.8209   22.0429 N   0  0  0  0  0  0
  -25.4375  -15.1860   20.3899 N   0  0  0  0  0  0
  -31.7423  -14.7013   20.0565 O   0  0  0  0  0  0
  -21.6670   -6.8823   21.4211 O   0  0  0  0  0  0
  -22.3536  -14.5491   20.6641 O   0  0  0  0  0  0
  -24.6107  -31.8695   23.2093 C   0  0  0  0  0  0
  -25.9032  -32.4838   23.8357 C   0  0  1  0  0  0
  -27.2448  -27.4579   20.1099 C   0  0  0  0  0  0
  -25.5922  -33.8634   24.2296 N   0  0  0  0  0  0
  -23.3957  -30.4924   21.5476 C   0  0  2  0  0  0
  -24.8441  -28.9575   20.1159 C   0  0  0  0  0  0
  -22.7357  -29.4673   22.4988 C   0  0  0  0  0  0
  -18.0273  -28.1358   22.8483 C   0  0  0  0  0  0
  -24.1495  -36.7319   23.2644 C   0  0  0  0  0  0
  -25.9194  -30.8537   21.3456 C   0  0  0  0  0  0
  -26.0032  -29.4880   20.6950 C   0  0  0  0  0  0
  -27.2065  -28.7503   20.6766 C   0  0  0  0  0  0
  -26.0644  -26.9321   19.5349 C   0  0  0  0  0  0
  -24.8702  -27.6796   19.5318 C   0  0  0  0  0  0
  -23.6013  -29.8197   20.1625 C   0  0  0  0  0  0
  -25.4111  -36.3105   24.0334 C   0  0  1  0  0  0
  -20.5879  -28.3646   23.1309 C   0  0  2  0  0  0
  -20.6767  -26.9377   22.5400 C   0  0  0  0  0  0
  -19.5753  -26.6363   21.5201 C   0  0  0  0  0  0
  -18.1932  -26.7909   22.1610 C   0  0  0  0  0  0
  -19.1520  -28.8811   23.2911 C   0  0  0  0  0  0
  -18.9465  -30.1442   23.8902 C   0  0  0  0  0  0
  -17.6470  -30.6591   24.0559 C   0  0  0  0  0  0
  -25.9035  -34.9484   23.5092 C   0  0  0  0  0  0
  -16.5357  -29.9086   23.6354 C   0  0  0  0  0  0
  -16.7255  -28.6502   23.0358 C   0  0  0  0  0  0
  -26.4494  -31.6633   25.0687 C   0  0  0  0  0  0
  -25.3787  -31.3718   26.1476 C   0  0  0  0  0  0
  -27.0342  -30.3086   24.6040 C   0  0  0  0  0  0
  -27.6055  -32.4363   25.7444 C   0  0  0  0  0  0
  -27.5593  -37.1779   24.8455 C   0  0  0  0  0  0
  -21.4102  -29.3023   22.3709 N   0  0  0  0  0  0
  -26.4278  -37.3805   23.9440 N   0  0  0  0  0  0
  -24.6597  -31.0862   22.0919 N   0  0  0  0  0  0
  -23.4137  -28.8191   23.3003 O   0  0  0  0  0  0
  -28.4377  -26.7689   20.1442 O   0  0  0  0  0  0
  -26.5593  -34.8938   22.4656 O   0  0  0  0  0  0
  -23.5317  -32.1392   23.7525 O   0  0  0  0  0  0
  -31.1362  -16.9321   23.0286 C   0  0  0  0  0  0
  -31.2359  -18.3066   23.3111 C   0  0  0  0  0  0
  -29.8619  -17.4532   21.0113 C   0  0  0  0  0  0
  -29.9585  -18.8392   21.2872 C   0  0  0  0  0  0
  -30.4453  -16.5032   21.8815 C   0  0  0  0  0  0
  -30.6403  -19.2581   22.4645 C   0  0  0  0  0  0
  -29.3956  -22.2742   20.0668 C   0  0  0  0  0  0
  -29.2401  -19.8176   20.3484 C   0  0  0  0  0  0
  -30.3123  -23.5062   20.0270 C   0  0  0  0  0  0
  -29.7206  -24.7843   20.6906 C   0  0  0  0  0  0
  -28.4099  -25.3410   20.0732 C   0  0  0  0  0  0
  -30.2390  -15.1171   21.6860 N   0  0  0  0  0  0
  -29.9593  -21.0560   20.0336 N   0  0  0  0  0  0
  -28.1761  -22.4142   20.1532 O   0  0  0  0  0  0
  -30.7478  -20.9125   22.9516 Cl  0  0  0  0  0  0
  -31.4653  -12.4198   19.0883 H   0  0  0  0  0  0
  -30.3385  -11.2606   19.7369 H   0  0  0  0  0  0
  -29.7342  -11.8662   17.3764 H   0  0  0  0  0  0
  -29.6722  -13.5568   17.8136 H   0  0  0  0  0  0
  -27.8127  -11.3405   18.7497 H   0  0  0  0  0  0
  -27.3683  -12.7178   17.7750 H   0  0  0  0  0  0
  -27.7377  -14.2608   19.6443 H   0  0  0  0  0  0
  -28.6653  -11.8541   21.2740 H   0  0  0  0  0  0
  -28.4396  -13.4484   21.9030 H   0  0  0  0  0  0
  -25.2733   -9.5738   22.4664 H   0  0  0  0  0  0
  -24.0046   -7.4659   22.7388 H   0  0  0  0  0  0
  -21.0813   -8.8653   19.8937 H   0  0  0  0  0  0
  -22.3559  -10.9602   19.6103 H   0  0  0  0  0  0
  -21.2015   -7.6133   23.9663 H   0  0  0  0  0  0
  -21.1471   -6.0522   25.9053 H   0  0  0  0  0  0
  -22.0628   -2.7590   23.2839 H   0  0  0  0  0  0
  -22.4270  -11.9935   22.4881 H   0  0  0  0  0  0
  -21.1114  -13.1082   22.2545 H   0  0  0  0  0  0
  -24.6665  -15.8408   20.4581 H   0  0  0  0  0  0
  -26.2889  -15.6104   20.0390 H   0  0  0  0  0  0
  -26.7089  -32.5555   23.1116 H   0  0  0  0  0  0
  -25.0168  -33.9828   25.0506 H   0  0  0  0  0  0
  -22.6849  -31.3096   21.4068 H   0  0  0  0  0  0
  -23.3775  -35.9634   23.3286 H   0  0  0  0  0  0
  -24.3575  -36.8949   22.2048 H   0  0  0  0  0  0
  -23.7193  -37.6496   23.6671 H   0  0  0  0  0  0
  -26.0234  -31.6205   20.5732 H   0  0  0  0  0  0
  -26.8066  -30.9121   21.9602 H   0  0  0  0  0  0
  -28.1048  -29.1659   21.1089 H   0  0  0  0  0  0
  -26.0561  -25.9437   19.0986 H   0  0  0  0  0  0
  -23.9754  -27.2560   19.0951 H   0  0  0  0  0  0
  -23.6951  -30.5929   19.3994 H   0  0  0  0  0  0
  -22.7262  -29.2374   19.8711 H   0  0  0  0  0  0
  -25.1265  -36.1958   25.0813 H   0  0  0  0  0  0
  -21.0002  -28.3204   24.1418 H   0  0  0  0  0  0
  -20.5694  -26.2228   23.3567 H   0  0  0  0  0  0
  -21.6630  -26.7432   22.1171 H   0  0  0  0  0  0
  -19.6928  -25.6275   21.1225 H   0  0  0  0  0  0
  -19.6720  -27.3182   20.6730 H   0  0  0  0  0  0
  -17.4195  -26.6676   21.4003 H   0  0  0  0  0  0
  -18.0350  -26.0022   22.8964 H   0  0  0  0  0  0
  -19.7944  -30.7264   24.2230 H   0  0  0  0  0  0
  -17.5038  -31.6272   24.5134 H   0  0  0  0  0  0
  -15.5367  -30.2992   23.7701 H   0  0  0  0  0  0
  -15.8656  -28.0840   22.7082 H   0  0  0  0  0  0
  -24.5945  -30.7096   25.7831 H   0  0  0  0  0  0
  -24.9060  -32.2890   26.4984 H   0  0  0  0  0  0
  -25.8196  -30.8824   27.0186 H   0  0  0  0  0  0
  -26.2862  -29.6764   24.1259 H   0  0  0  0  0  0
  -27.4326  -29.7396   25.4460 H   0  0  0  0  0  0
  -27.8581  -30.4424   23.9030 H   0  0  0  0  0  0
  -27.2657  -33.3627   26.2070 H   0  0  0  0  0  0
  -28.3833  -32.6975   25.0273 H   0  0  0  0  0  0
  -28.0779  -31.8477   26.5307 H   0  0  0  0  0  0
  -28.2551  -38.0142   24.7615 H   0  0  0  0  0  0
  -28.1127  -36.2667   24.6128 H   0  0  0  0  0  0
  -27.2335  -37.1267   25.8862 H   0  0  0  0  0  0
  -20.9245  -29.8711   21.6925 H   0  0  0  0  0  0
  -26.0166  -38.2858   24.1545 H   0  0  0  0  0  0
  -31.5760  -16.2205   23.7116 H   0  0  0  0  0  0
  -31.7590  -18.6384   24.1977 H   0  0  0  0  0  0
  -29.3062  -17.1149   20.1458 H   0  0  0  0  0  0
  -28.2855  -20.0397   20.8279 H   0  0  0  0  0  0
  -28.9866  -19.3195   19.4105 H   0  0  0  0  0  0
  -30.5742  -23.7216   18.9911 H   0  0  0  0  0  0
  -31.2556  -23.2538   20.5215 H   0  0  0  0  0  0
  -30.4842  -25.5618   20.6335 H   0  0  0  0  0  0
  -29.5684  -24.6141   21.7582 H   0  0  0  0  0  0
  -27.5552  -24.9405   20.6269 H   0  0  0  0  0  0
  -28.3042  -25.0369   19.0289 H   0  0  0  0  0  0
  -29.5060  -14.6870   22.2326 H   0  0  0  0  0  0
  -30.9563  -20.9826   19.8870 H   0  0  0  0  0  0
  1 25  1  0  0  0
  1 30  2  0  0  0
  1 82  1  0  0  0
  2  3  1  0  0  0
  2 25  1  0  0  0
  2 86  1  0  0  0
  2 87  1  0  0  0
  3  4  1  0  0  0
  3 88  1  0  0  0
  3 89  1  0  0  0
  4  5  1  0  0  0
  4 90  1  0  0  0
  4 91  1  0  0  0
  5  6  1  0  0  0
  5 26  1  0  0  0
  5 92  1  0  0  0
  6 25  1  0  0  0
  6 93  1  0  0  0
  6 94  1  0  0  0
  7  8  2  0  0  0
  7 26  1  0  0  0
  7 29  1  0  0  0
  8  9  1  0  0  0
  8 22  1  0  0  0
  9 10  1  0  0  0
  9 27  2  0  0  0
 10 11  2  0  0  0
 10 15  1  0  0  0
 11 12  1  0  0  0
 11 95  1  0  0  0
 12 13  2  0  0  0
 12 96  1  0  0  0
 13 14  1  0  0  0
 13 31  1  0  0  0
 14 15  2  0  0  0
 14 97  1  0  0  0
 15 98  1  0  0  0
 16 17  2  0  0  0
 16 21  1  0  0  0
 16 31  1  0  0  0
 17 18  1  0  0  0
 17 99  1  0  0  0
 18 19  2  0  0  0
 18100  1  0  0  0
 19 20  1  0  0  0
 19 24  1  0  0  0
 20 21  2  0  0  0
 20101  1  0  0  0
 21 23  1  0  0  0
 22 28  1  0  0  0
 22 32  2  0  0  0
 26 27  1  0  0  0
 28102  1  0  0  0
 28103  1  0  0  0
 29104  1  0  0  0
 29105  1  0  0  0
 33 34  1  0  0  0
 33 66  1  0  0  0
 33 70  2  0  0  0
 34 36  1  0  0  0
 34 59  1  0  0  0
 34106  1  0  0  0
 35 44  2  0  0  0
 35 45  1  0  0  0
 35 68  1  0  0  0
 36 56  1  0  0  0
 36107  1  0  0  0
 37 39  1  0  0  0
 37 47  1  0  0  0
 37 66  1  0  0  0
 37108  1  0  0  0
 38 43  2  0  0  0
 38 46  1  0  0  0
 38 47  1  0  0  0
 39 64  1  0  0  0
 39 67  2  0  0  0
 40 52  1  0  0  0
 40 53  2  0  0  0
 40 58  1  0  0  0
 41109  1  0  0  0
 41110  1  0  0  0
 41111  1  0  0  0
 41 48  1  0  0  0
 42 43  1  0  0  0
 42 66  1  0  0  0
 42112  1  0  0  0
 42113  1  0  0  0
 43 44  1  0  0  0
 44114  1  0  0  0
 45 46  2  0  0  0
 45115  1  0  0  0
 46116  1  0  0  0
 47117  1  0  0  0
 47118  1  0  0  0
 48 56  1  0  0  0
 48 65  1  0  0  0
 48119  1  0  0  0
 49 50  1  0  0  0
 49 53  1  0  0  0
 49 64  1  0  0  0
 49120  1  0  0  0
 50 51  1  0  0  0
 50121  1  0  0  0
 50122  1  0  0  0
 51 52  1  0  0  0
 51123  1  0  0  0
 51124  1  0  0  0
 52125  1  0  0  0
 52126  1  0  0  0
 53 54  1  0  0  0
 54 55  2  0  0  0
 54127  1  0  0  0
 55 57  1  0  0  0
 55128  1  0  0  0
 56 69  2  0  0  0
 57 58  2  0  0  0
 57129  1  0  0  0
 58130  1  0  0  0
 59 60  1  0  0  0
 59 61  1  0  0  0
 59 62  1  0  0  0
 60131  1  0  0  0
 60132  1  0  0  0
 60133  1  0  0  0
 61134  1  0  0  0
 61135  1  0  0  0
 61136  1  0  0  0
 62137  1  0  0  0
 62138  1  0  0  0
 62139  1  0  0  0
 63 65  1  0  0  0
 63140  1  0  0  0
 63141  1  0  0  0
 63142  1  0  0  0
 64143  1  0  0  0
 65144  1  0  0  0
 68 81  1  0  0  0
 71 72  2  0  0  0
 71 75  1  0  0  0
 71145  1  0  0  0
 72 76  1  0  0  0
 72146  1  0  0  0
 73 74  1  0  0  0
 73 75  2  0  0  0
 73147  1  0  0  0
 74 76  2  0  0  0
 74 78  1  0  0  0
 75 82  1  0  0  0
 76 85  1  0  0  0
 77 79  1  0  0  0
 77 83  1  0  0  0
 77 84  2  0  0  0
 78 83  1  0  0  0
 78148  1  0  0  0
 78149  1  0  0  0
 79 80  1  0  0  0
 79150  1  0  0  0
 79151  1  0  0  0
 80 81  1  0  0  0
 80152  1  0  0  0
 80153  1  0  0  0
 81154  1  0  0  0
 81155  1  0  0  0
 82156  1  0  0  0
 83157  1  0  0  0
M  ISO  4   1 100  68 101  81 101  82 100
M  END
> <chiral flag>
0

> <version>
0

> <s_m_source_file>
/data/baiqing/PycharmProjects/Reinvent-master-3.2/result/LINK_invent/BTK/process_docking_weight1_custom_product_contain_oxygen_bond_distance_aromatic_linkinvent_7_9_3/rearranged_h_0056.sdf

> <i_m_source_file_index>
24

> <r_mmod_Potential_Energy-OPLS-2005>
-167.23876953125

> <r_mmod_Stretch_Energy-OPLS-2005>
36.3024673461914

> <r_mmod_Bend_Energy-OPLS-2005>
94.9621124267578

> <r_mmod_Torsional_Energy-OPLS-2005>
232.102966308594

> <r_mmod_Improper_Torsional_Energy-OPLS-2005>
3.52596092224121

> <r_mmod_Van_der_Waal_Energy-OPLS-2005>
161.110931396484

> <r_mmod_Electrostatic_Energy-OPLS-2005>
-470.1884765625

> <r_mmod_Solvation_Energy-OPLS-2005>
-234.483795166016

> <b_mmod_Minimization_Converged-OPLS-2005>
0

> <r_mmod_RMS_Derivative-OPLS-2005>
5.89052772521973

$$$$
24
                    3D
 Structure written by MMmdl.
158167  0  0  1  0            999 V2000
  -30.6180  -14.6321   20.5097 C   0  0  0  0  0  0
  -30.4419  -12.3883   19.4512 C   0  0  0  0  0  0
  -29.5091  -12.5087   18.2247 C   0  0  0  0  0  0
  -28.0315  -12.3467   18.6354 C   0  0  0  0  0  0
  -27.6563  -13.2125   19.8673 C   0  0  2  0  0  0
  -28.7007  -13.0537   20.9959 C   0  0  0  0  0  0
  -25.2578  -13.8163   20.5679 C   0  0  0  0  0  0
  -24.1838  -13.0437   20.9190 C   0  0  0  0  0  0
  -24.6397  -11.6903   20.8739 C   0  0  0  0  0  0
  -23.9062  -10.4291   21.0408 C   0  0  0  0  0  0
  -24.3613   -9.4208   21.9186 C   0  0  0  0  0  0
  -23.6290   -8.2243   22.0756 C   0  0  0  0  0  0
  -22.4272   -8.0282   21.3545 C   0  0  0  0  0  0
  -21.9907   -9.0255   20.4647 C   0  0  0  0  0  0
  -22.7235  -10.2136   20.3058 C   0  0  0  0  0  0
  -21.6853   -6.0737   22.5278 C   0  0  0  0  0  0
  -21.4014   -6.5639   23.8212 C   0  0  0  0  0  0
  -21.3659   -5.6794   24.9174 C   0  0  0  0  0  0
  -21.6045   -4.3057   24.7224 C   0  0  0  0  0  0
  -21.8819   -3.8148   23.4345 C   0  0  0  0  0  0
  -21.9191   -4.6966   22.3401 C   0  0  0  0  0  0
  -22.7862  -13.5238   21.1852 C   0  0  0  0  0  0
  -22.1662   -4.2151   21.0980 F   0  0  0  0  0  0
  -21.5627   -3.4541   25.7738 F   0  0  0  0  0  0
  -30.0181  -13.4017   20.4373 N   0  0  0  0  0  0
  -26.3003  -12.9333   20.3330 N   0  0  0  0  0  0
  -25.9325  -11.6493   20.5762 N   0  0  0  0  0  0
  -22.0498  -12.8233   22.0404 N   0  0  0  0  0  0
  -25.4297  -15.1882   20.4074 N   0  0  0  0  0  0
  -31.7731  -14.8080   20.1094 O   0  0  0  0  0  0
  -21.6637   -6.8880   21.4240 O   0  0  0  0  0  0
  -22.3552  -14.5545   20.6697 O   0  0  0  0  0  0
  -24.6264  -31.8603   23.2033 C   0  0  0  0  0  0
  -25.9117  -32.4781   23.8355 C   0  0  1  0  0  0
  -27.2234  -27.3211   20.1136 C   0  0  0  0  0  0
  -25.5932  -33.8579   24.2284 N   0  0  0  0  0  0
  -23.4194  -30.4851   21.5460 C   0  0  2  0  0  0
  -24.8656  -28.9440   20.1094 C   0  0  0  0  0  0
  -22.7476  -29.4627   22.4936 C   0  0  0  0  0  0
  -18.0288  -28.1382   22.8481 C   0  0  0  0  0  0
  -24.1491  -36.7293   23.2637 C   0  0  0  0  0  0
  -25.9612  -30.7917   21.3749 C   0  0  0  0  0  0
  -26.0353  -29.4206   20.7147 C   0  0  0  0  0  0
  -27.2171  -28.6211   20.7073 C   0  0  0  0  0  0
  -26.0290  -26.9019   19.4801 C   0  0  0  0  0  0
  -24.8647  -27.6897   19.4833 C   0  0  0  0  0  0
  -23.6337  -29.8232   20.1603 C   0  0  0  0  0  0
  -25.4113  -36.3081   24.0330 C   0  0  1  0  0  0
  -20.5888  -28.3686   23.1284 C   0  0  2  0  0  0
  -20.6777  -26.9408   22.5409 C   0  0  0  0  0  0
  -19.5752  -26.6380   21.5212 C   0  0  0  0  0  0
  -18.1931  -26.7925   22.1621 C   0  0  0  0  0  0
  -19.1540  -28.8851   23.2878 C   0  0  0  0  0  0
  -18.9466  -30.1453   23.8895 C   0  0  0  0  0  0
  -17.6466  -30.6583   24.0561 C   0  0  0  0  0  0
  -25.9053  -34.9451   23.5104 C   0  0  0  0  0  0
  -16.5356  -29.9081   23.6330 C   0  0  0  0  0  0
  -16.7276  -28.6500   23.0347 C   0  0  0  0  0  0
  -26.4502  -31.6585   25.0722 C   0  0  0  0  0  0
  -25.3736  -31.3726   26.1453 C   0  0  0  0  0  0
  -27.0345  -30.3009   24.6172 C   0  0  0  0  0  0
  -27.6061  -32.4321   25.7494 C   0  0  0  0  0  0
  -27.5580  -37.1797   24.8463 C   0  0  0  0  0  0
  -21.4190  -29.3044   22.3682 N   0  0  0  0  0  0
  -26.4290  -37.3775   23.9411 N   0  0  0  0  0  0
  -24.6878  -31.0619   22.0983 N   0  0  0  0  0  0
  -23.4202  -28.8159   23.3007 O   0  0  0  0  0  0
  -28.3361  -26.4641   20.1730 O   0  0  0  0  0  0
  -26.5615  -34.8917   22.4666 O   0  0  0  0  0  0
  -23.5429  -32.1401   23.7363 O   0  0  0  0  0  0
  -28.6305  -19.2828   21.0029 C   0  0  0  0  0  0
  -30.8535  -19.2904   20.1055 C   0  0  0  0  0  0
  -28.7018  -17.8649   21.1337 C   0  0  0  0  0  0
  -30.9250  -17.8683   20.2321 C   0  0  0  0  0  0
  -29.7052  -20.0551   20.4802 C   0  0  0  0  0  0
  -29.8428  -17.1110   20.7508 C   0  0  0  0  0  0
  -28.7192  -22.4492   20.6851 C   0  0  0  0  0  0
  -30.8215  -22.2712   19.7961 C   0  0  0  0  0  0
  -29.1768  -23.9380   20.5005 C   0  0  1  0  0  0
  -30.3571  -23.7274   19.5456 C   0  0  1  0  0  0
  -31.4833  -24.7612   19.6938 C   0  0  0  0  0  0
  -28.0867  -25.0068   20.0402 C   0  0  0  0  0  0
  -29.6751  -21.5305   20.3324 N   0  0  0  0  0  0
  -29.8024  -15.6567   20.9113 N   0  0  0  0  0  0
  -27.5946  -22.1815   21.1183 O   0  0  0  0  0  0
  -31.4824  -12.5183   19.1485 H   0  0  0  0  0  0
  -30.3806  -11.3894   19.8858 H   0  0  0  0  0  0
  -29.7725  -11.7603   17.4759 H   0  0  0  0  0  0
  -29.6515  -13.4800   17.7483 H   0  0  0  0  0  0
  -27.8657  -11.2927   18.8614 H   0  0  0  0  0  0
  -27.3775  -12.5826   17.7949 H   0  0  0  0  0  0
  -27.6790  -14.2499   19.5334 H   0  0  0  0  0  0
  -28.7113  -12.0269   21.3648 H   0  0  0  0  0  0
  -28.4445  -13.6715   21.8578 H   0  0  0  0  0  0
  -25.2759   -9.5687   22.4759 H   0  0  0  0  0  0
  -24.0002   -7.4638   22.7476 H   0  0  0  0  0  0
  -21.0840   -8.8775   19.8953 H   0  0  0  0  0  0
  -22.3695  -10.9675   19.6169 H   0  0  0  0  0  0
  -21.2006   -7.6148   23.9717 H   0  0  0  0  0  0
  -21.1481   -6.0523   25.9077 H   0  0  0  0  0  0
  -22.0598   -2.7611   23.2845 H   0  0  0  0  0  0
  -22.4107  -11.9890   22.4790 H   0  0  0  0  0  0
  -21.1119  -13.1266   22.2611 H   0  0  0  0  0  0
  -24.6577  -15.8390   20.5029 H   0  0  0  0  0  0
  -26.2688  -15.6218   20.0438 H   0  0  0  0  0  0
  -26.7181  -32.5456   23.1099 H   0  0  0  0  0  0
  -25.0094  -33.9723   25.0437 H   0  0  0  0  0  0
  -22.7124  -31.3054   21.4040 H   0  0  0  0  0  0
  -23.3756  -35.9624   23.3299 H   0  0  0  0  0  0
  -24.3587  -36.8915   22.2052 H   0  0  0  0  0  0
  -23.7240  -37.6491   23.6663 H   0  0  0  0  0  0
  -26.0924  -31.5566   20.6081 H   0  0  0  0  0  0
  -26.8418  -30.8389   22.0037 H   0  0  0  0  0  0
  -28.1127  -28.9808   21.1941 H   0  0  0  0  0  0
  -25.9609  -25.9457   18.9838 H   0  0  0  0  0  0
  -23.9692  -27.3191   19.0035 H   0  0  0  0  0  0
  -23.7518  -30.6012   19.4056 H   0  0  0  0  0  0
  -22.7543  -29.2525   19.8567 H   0  0  0  0  0  0
  -25.1290  -36.1933   25.0822 H   0  0  0  0  0  0
  -20.9979  -28.3261   24.1407 H   0  0  0  0  0  0
  -20.5682  -26.2293   23.3606 H   0  0  0  0  0  0
  -21.6645  -26.7436   22.1199 H   0  0  0  0  0  0
  -19.6916  -25.6292   21.1237 H   0  0  0  0  0  0
  -19.6695  -27.3195   20.6746 H   0  0  0  0  0  0
  -17.4200  -26.6677   21.4024 H   0  0  0  0  0  0
  -18.0329  -26.0064   22.9015 H   0  0  0  0  0  0
  -19.7943  -30.7267   24.2263 H   0  0  0  0  0  0
  -17.5021  -31.6265   24.5160 H   0  0  0  0  0  0
  -15.5356  -30.2980   23.7660 H   0  0  0  0  0  0
  -15.8677  -28.0822   22.7061 H   0  0  0  0  0  0
  -24.5915  -30.7069   25.7787 H   0  0  0  0  0  0
  -24.8928  -32.2895   26.4873 H   0  0  0  0  0  0
  -25.8064  -30.8908   27.0230 H   0  0  0  0  0  0
  -26.2914  -29.6758   24.1205 H   0  0  0  0  0  0
  -27.4057  -29.7266   25.4671 H   0  0  0  0  0  0
  -27.8779  -30.4298   23.9384 H   0  0  0  0  0  0
  -27.2671  -33.3623   26.2064 H   0  0  0  0  0  0
  -28.3877  -32.6872   25.0327 H   0  0  0  0  0  0
  -28.0721  -31.8450   26.5417 H   0  0  0  0  0  0
  -28.2586  -38.0105   24.7520 H   0  0  0  0  0  0
  -28.1085  -36.2634   24.6275 H   0  0  0  0  0  0
  -27.2302  -37.1432   25.8867 H   0  0  0  0  0  0
  -20.9367  -29.8773   21.6901 H   0  0  0  0  0  0
  -26.0174  -38.2848   24.1421 H   0  0  0  0  0  0
  -27.7163  -19.7610   21.3201 H   0  0  0  0  0  0
  -31.7247  -19.7876   19.7057 H   0  0  0  0  0  0
  -27.8408  -17.3515   21.5395 H   0  0  0  0  0  0
  -31.8321  -17.3698   19.9209 H   0  0  0  0  0  0
  -31.6276  -22.2368   20.5309 H   0  0  0  0  0  0
  -31.1912  -21.8264   18.8716 H   0  0  0  0  0  0
  -29.5483  -24.2391   21.4806 H   0  0  0  0  0  0
  -29.9781  -23.7841   18.5232 H   0  0  0  0  0  0
  -31.9178  -24.7397   20.6940 H   0  0  0  0  0  0
  -31.1133  -25.7714   19.5152 H   0  0  0  0  0  0
  -32.2849  -24.5726   18.9793 H   0  0  0  0  0  0
  -27.1841  -24.7824   20.6109 H   0  0  0  0  0  0
  -27.8436  -24.7994   18.9974 H   0  0  0  0  0  0
  -28.9246  -15.3101   21.2663 H   0  0  0  0  0  0
  1 25  1  0  0  0
  1 30  2  0  0  0
  1 84  1  0  0  0
  2  3  1  0  0  0
  2 25  1  0  0  0
  2 86  1  0  0  0
  2 87  1  0  0  0
  3  4  1  0  0  0
  3 88  1  0  0  0
  3 89  1  0  0  0
  4  5  1  0  0  0
  4 90  1  0  0  0
  4 91  1  0  0  0
  5  6  1  0  0  0
  5 26  1  0  0  0
  5 92  1  0  0  0
  6 25  1  0  0  0
  6 93  1  0  0  0
  6 94  1  0  0  0
  7  8  2  0  0  0
  7 26  1  0  0  0
  7 29  1  0  0  0
  8  9  1  0  0  0
  8 22  1  0  0  0
  9 10  1  0  0  0
  9 27  2  0  0  0
 10 11  2  0  0  0
 10 15  1  0  0  0
 11 12  1  0  0  0
 11 95  1  0  0  0
 12 13  2  0  0  0
 12 96  1  0  0  0
 13 14  1  0  0  0
 13 31  1  0  0  0
 14 15  2  0  0  0
 14 97  1  0  0  0
 15 98  1  0  0  0
 16 17  2  0  0  0
 16 21  1  0  0  0
 16 31  1  0  0  0
 17 18  1  0  0  0
 17 99  1  0  0  0
 18 19  2  0  0  0
 18100  1  0  0  0
 19 20  1  0  0  0
 19 24  1  0  0  0
 20 21  2  0  0  0
 20101  1  0  0  0
 21 23  1  0  0  0
 22 28  1  0  0  0
 22 32  2  0  0  0
 26 27  1  0  0  0
 28102  1  0  0  0
 28103  1  0  0  0
 29104  1  0  0  0
 29105  1  0  0  0
 33 34  1  0  0  0
 33 66  1  0  0  0
 33 70  2  0  0  0
 34 36  1  0  0  0
 34 59  1  0  0  0
 34106  1  0  0  0
 35 44  2  0  0  0
 35 45  1  0  0  0
 35 68  1  0  0  0
 36 56  1  0  0  0
 36107  1  0  0  0
 37 39  1  0  0  0
 37 47  1  0  0  0
 37 66  1  0  0  0
 37108  1  0  0  0
 38 43  2  0  0  0
 38 46  1  0  0  0
 38 47  1  0  0  0
 39 64  1  0  0  0
 39 67  2  0  0  0
 40 52  1  0  0  0
 40 53  2  0  0  0
 40 58  1  0  0  0
 41109  1  0  0  0
 41110  1  0  0  0
 41111  1  0  0  0
 41 48  1  0  0  0
 42 43  1  0  0  0
 42 66  1  0  0  0
 42112  1  0  0  0
 42113  1  0  0  0
 43 44  1  0  0  0
 44114  1  0  0  0
 45 46  2  0  0  0
 45115  1  0  0  0
 46116  1  0  0  0
 47117  1  0  0  0
 47118  1  0  0  0
 48 56  1  0  0  0
 48 65  1  0  0  0
 48119  1  0  0  0
 49 50  1  0  0  0
 49 53  1  0  0  0
 49 64  1  0  0  0
 49120  1  0  0  0
 50 51  1  0  0  0
 50121  1  0  0  0
 50122  1  0  0  0
 51 52  1  0  0  0
 51123  1  0  0  0
 51124  1  0  0  0
 52125  1  0  0  0
 52126  1  0  0  0
 53 54  1  0  0  0
 54 55  2  0  0  0
 54127  1  0  0  0
 55 57  1  0  0  0
 55128  1  0  0  0
 56 69  2  0  0  0
 57 58  2  0  0  0
 57129  1  0  0  0
 58130  1  0  0  0
 59 60  1  0  0  0
 59 61  1  0  0  0
 59 62  1  0  0  0
 60131  1  0  0  0
 60132  1  0  0  0
 60133  1  0  0  0
 61134  1  0  0  0
 61135  1  0  0  0
 61136  1  0  0  0
 62137  1  0  0  0
 62138  1  0  0  0
 62139  1  0  0  0
 63 65  1  0  0  0
 63140  1  0  0  0
 63141  1  0  0  0
 63142  1  0  0  0
 64143  1  0  0  0
 65144  1  0  0  0
 68 82  1  0  0  0
 71 73  2  0  0  0
 71 75  1  0  0  0
 71145  1  0  0  0
 72 74  1  0  0  0
 72 75  2  0  0  0
 72146  1  0  0  0
 73 76  1  0  0  0
 73147  1  0  0  0
 74 76  2  0  0  0
 74148  1  0  0  0
 75 83  1  0  0  0
 76 84  1  0  0  0
 77 79  1  0  0  0
 77 83  1  0  0  0
 77 85  2  0  0  0
 78 80  1  0  0  0
 78 83  1  0  0  0
 78149  1  0  0  0
 78150  1  0  0  0
 79 80  1  0  0  0
 79 82  1  0  0  0
 79151  1  0  0  0
 80 81  1  0  0  0
 80152  1  0  0  0
 81153  1  0  0  0
 81154  1  0  0  0
 81155  1  0  0  0
 82156  1  0  0  0
 82157  1  0  0  0
 84158  1  0  0  0
M  ISO  4   1 100  68 101  82 101  84 100
M  END
> <chiral flag>
0

> <version>
0

> <s_m_source_file>
/data/baiqing/PycharmProjects/Reinvent-master-3.2/result/LINK_invent/BTK/process_docking_weight1_custom_product_contain_oxygen_bond_distance_aromatic_linkinvent_7_9_3/rearranged_h_0056.sdf

> <i_m_source_file_index>
25

> <r_mmod_Potential_Energy-OPLS-2005>
158.002075195312

> <r_mmod_Stretch_Energy-OPLS-2005>
81.1240692138672

> <r_mmod_Bend_Energy-OPLS-2005>
169.884582519531

> <r_mmod_Torsional_Energy-OPLS-2005>
255.154159545898

> <r_mmod_Improper_Torsional_Energy-OPLS-2005>
3.90219712257385

> <r_mmod_Van_der_Waal_Energy-OPLS-2005>
147.379196166992

> <r_mmod_Electrostatic_Energy-OPLS-2005>
-332.520233154297

> <r_mmod_Solvation_Energy-OPLS-2005>
-214.367736816406

> <b_mmod_Minimization_Converged-OPLS-2005>
0

> <r_mmod_RMS_Derivative-OPLS-2005>
0.553734064102173

$$$$
25
                    3D
 Structure written by MMmdl.
155163  0  0  1  0            999 V2000
  -30.6775  -14.4649   20.6072 C   0  0  0  0  0  0
  -30.4342  -12.3132   19.4155 C   0  0  0  0  0  0
  -29.4987  -12.5196   18.2049 C   0  0  0  0  0  0
  -28.0186  -12.3719   18.6149 C   0  0  0  0  0  0
  -27.6650  -13.1985   19.8799 C   0  0  2  0  0  0
  -28.7034  -12.9453   20.9959 C   0  0  0  0  0  0
  -25.2595  -13.8137   20.5654 C   0  0  0  0  0  0
  -24.1843  -13.0430   20.9187 C   0  0  0  0  0  0
  -24.6382  -11.6892   20.8728 C   0  0  0  0  0  0
  -23.9041  -10.4287   21.0397 C   0  0  0  0  0  0
  -24.3595   -9.4208   21.9178 C   0  0  0  0  0  0
  -23.6274   -8.2242   22.0755 C   0  0  0  0  0  0
  -22.4263   -8.0269   21.3538 C   0  0  0  0  0  0
  -21.9889   -9.0247   20.4653 C   0  0  0  0  0  0
  -22.7210  -10.2128   20.3054 C   0  0  0  0  0  0
  -21.6854   -6.0727   22.5278 C   0  0  0  0  0  0
  -21.4014   -6.5636   23.8211 C   0  0  0  0  0  0
  -21.3660   -5.6788   24.9174 C   0  0  0  0  0  0
  -21.6049   -4.3052   24.7223 C   0  0  0  0  0  0
  -21.8817   -3.8141   23.4344 C   0  0  0  0  0  0
  -21.9196   -4.6956   22.3401 C   0  0  0  0  0  0
  -22.7869  -13.5248   21.1837 C   0  0  0  0  0  0
  -22.1660   -4.2143   21.0977 F   0  0  0  0  0  0
  -21.5635   -3.4535   25.7737 F   0  0  0  0  0  0
  -30.0390  -13.2719   20.4594 N   0  0  0  0  0  0
  -26.3031  -12.9291   20.3363 N   0  0  0  0  0  0
  -25.9311  -11.6459   20.5760 N   0  0  0  0  0  0
  -22.0498  -12.8254   22.0400 N   0  0  0  0  0  0
  -25.4315  -15.1838   20.3989 N   0  0  0  0  0  0
  -31.7833  -14.7016   20.1080 O   0  0  0  0  0  0
  -21.6634   -6.8861   21.4235 O   0  0  0  0  0  0
  -22.3567  -14.5556   20.6678 O   0  0  0  0  0  0
  -24.6127  -31.8676   23.2089 C   0  0  0  0  0  0
  -25.9022  -32.4822   23.8384 C   0  0  1  0  0  0
  -27.2401  -27.4356   20.0895 C   0  0  0  0  0  0
  -25.5864  -33.8615   24.2306 N   0  0  0  0  0  0
  -23.4001  -30.4899   21.5501 C   0  0  2  0  0  0
  -24.8457  -28.9529   20.1161 C   0  0  0  0  0  0
  -22.7395  -29.4653   22.4999 C   0  0  0  0  0  0
  -18.0272  -28.1382   22.8480 C   0  0  0  0  0  0
  -24.1484  -36.7319   23.2636 C   0  0  0  0  0  0
  -25.9269  -30.8323   21.3625 C   0  0  0  0  0  0
  -26.0030  -29.4639   20.7143 C   0  0  0  0  0  0
  -27.1968  -28.7084   20.7056 C   0  0  0  0  0  0
  -26.0579  -26.9325   19.4975 C   0  0  0  0  0  0
  -24.8672  -27.6852   19.5092 C   0  0  0  0  0  0
  -23.6068  -29.8184   20.1653 C   0  0  0  0  0  0
  -25.4099  -36.3110   24.0334 C   0  0  1  0  0  0
  -20.5853  -28.3652   23.1334 C   0  0  2  0  0  0
  -20.6752  -26.9395   22.5425 C   0  0  0  0  0  0
  -19.5739  -26.6387   21.5211 C   0  0  0  0  0  0
  -18.1921  -26.7924   22.1622 C   0  0  0  0  0  0
  -19.1519  -28.8833   23.2900 C   0  0  0  0  0  0
  -18.9444  -30.1438   23.8912 C   0  0  0  0  0  0
  -17.6448  -30.6579   24.0575 C   0  0  0  0  0  0
  -25.9023  -34.9476   23.5122 C   0  0  0  0  0  0
  -16.5339  -29.9087   23.6332 C   0  0  0  0  0  0
  -16.7262  -28.6510   23.0340 C   0  0  0  0  0  0
  -26.4450  -31.6607   25.0717 C   0  0  0  0  0  0
  -25.3712  -31.3713   26.1470 C   0  0  0  0  0  0
  -27.0273  -30.3051   24.6086 C   0  0  0  0  0  0
  -27.6034  -32.4322   25.7474 C   0  0  0  0  0  0
  -27.5587  -37.1804   24.8454 C   0  0  0  0  0  0
  -21.4125  -29.3027   22.3746 N   0  0  0  0  0  0
  -26.4284  -37.3797   23.9416 N   0  0  0  0  0  0
  -24.6646  -31.0784   22.0986 N   0  0  0  0  0  0
  -23.4177  -28.8192   23.3038 O   0  0  0  0  0  0
  -28.4375  -26.7447   20.1070 O   0  0  0  0  0  0
  -26.5612  -34.8932   22.4702 O   0  0  0  0  0  0
  -23.5323  -32.1418   23.7491 O   0  0  0  0  0  0
  -28.7314  -17.4797   21.0460 C   0  0  0  0  0  0
  -28.6685  -18.8767   20.8716 C   0  0  0  0  0  0
  -31.1548  -17.5823   21.0549 C   0  0  0  0  0  0
  -31.1062  -18.9918   20.8998 C   0  0  0  0  0  0
  -29.9714  -16.8118   21.1083 C   0  0  0  0  0  0
  -29.8496  -19.6538   20.7852 C   0  0  0  0  0  0
  -29.1935  -23.2465   20.0467 C   0  0  0  0  0  0
  -28.3210  -24.2765   19.9565 C   0  0  0  0  0  0
  -28.8334  -21.9706   20.6554 C   0  0  0  0  0  0
  -28.6327  -25.6010   19.2674 C   0  0  0  0  0  0
  -32.4141  -19.7850   20.8736 C   0  0  0  0  0  0
  -29.8187  -21.0627   20.5084 N   0  0  0  0  0  0
  -29.9585  -15.3930   21.2707 N   0  0  0  0  0  0
  -27.7726  -21.7478   21.2439 O   0  0  0  0  0  0
  -33.4896  -18.9961   20.8917 F   0  0  0  0  0  0
  -32.4769  -20.5415   19.7760 F   0  0  0  0  0  0
  -32.4707  -20.5837   21.9399 F   0  0  0  0  0  0
  -31.4760  -12.4352   19.1135 H   0  0  0  0  0  0
  -30.3531  -11.2936   19.7944 H   0  0  0  0  0  0
  -29.7409  -11.8050   17.4170 H   0  0  0  0  0  0
  -29.6638  -13.5110   17.7802 H   0  0  0  0  0  0
  -27.8294  -11.3138   18.7995 H   0  0  0  0  0  0
  -27.3673  -12.6545   17.7866 H   0  0  0  0  0  0
  -27.7197  -14.2511   19.6012 H   0  0  0  0  0  0
  -28.6838  -11.8971   21.2998 H   0  0  0  0  0  0
  -28.4522  -13.5037   21.8990 H   0  0  0  0  0  0
  -25.2735   -9.5697   22.4757 H   0  0  0  0  0  0
  -23.9996   -7.4636   22.7470 H   0  0  0  0  0  0
  -21.0826   -8.8743   19.8960 H   0  0  0  0  0  0
  -22.3646  -10.9662   19.6167 H   0  0  0  0  0  0
  -21.1997   -7.6144   23.9710 H   0  0  0  0  0  0
  -21.1491   -6.0521   25.9078 H   0  0  0  0  0  0
  -22.0598   -2.7604   23.2845 H   0  0  0  0  0  0
  -22.4091  -11.9915   22.4802 H   0  0  0  0  0  0
  -21.1126  -13.1301   22.2601 H   0  0  0  0  0  0
  -24.6515  -15.8280   20.4712 H   0  0  0  0  0  0
  -26.2607  -15.6078   20.0030 H   0  0  0  0  0  0
  -26.7097  -32.5537   23.1155 H   0  0  0  0  0  0
  -24.9990  -33.9772   25.0435 H   0  0  0  0  0  0
  -22.6893  -31.3063   21.4107 H   0  0  0  0  0  0
  -23.3746  -35.9658   23.3289 H   0  0  0  0  0  0
  -24.3584  -36.8946   22.2057 H   0  0  0  0  0  0
  -23.7229  -37.6512   23.6659 H   0  0  0  0  0  0
  -26.0351  -31.5965   20.5914 H   0  0  0  0  0  0
  -26.8150  -30.8895   21.9797 H   0  0  0  0  0  0
  -28.0912  -29.1015   21.1685 H   0  0  0  0  0  0
  -26.0307  -25.9576   19.0343 H   0  0  0  0  0  0
  -23.9750  -27.2820   19.0500 H   0  0  0  0  0  0
  -23.7106  -30.5898   19.4010 H   0  0  0  0  0  0
  -22.7304  -29.2365   19.8725 H   0  0  0  0  0  0
  -25.1281  -36.1969   25.0829 H   0  0  0  0  0  0
  -20.9954  -28.3212   24.1452 H   0  0  0  0  0  0
  -20.5646  -26.2263   23.3608 H   0  0  0  0  0  0
  -21.6624  -26.7439   22.1227 H   0  0  0  0  0  0
  -19.6899  -25.6301   21.1236 H   0  0  0  0  0  0
  -19.6682  -27.3204   20.6750 H   0  0  0  0  0  0
  -17.4191  -26.6675   21.4035 H   0  0  0  0  0  0
  -18.0320  -26.0064   22.9015 H   0  0  0  0  0  0
  -19.7916  -30.7249   24.2303 H   0  0  0  0  0  0
  -17.5000  -31.6272   24.5157 H   0  0  0  0  0  0
  -15.5334  -30.2999   23.7637 H   0  0  0  0  0  0
  -15.8663  -28.0841   22.7044 H   0  0  0  0  0  0
  -24.5866  -30.7084   25.7800 H   0  0  0  0  0  0
  -24.8928  -32.2880   26.4938 H   0  0  0  0  0  0
  -25.8061  -30.8855   27.0215 H   0  0  0  0  0  0
  -26.2816  -29.6822   24.1132 H   0  0  0  0  0  0
  -27.4033  -29.7275   25.4541 H   0  0  0  0  0  0
  -27.8657  -30.4371   23.9241 H   0  0  0  0  0  0
  -27.2647  -33.3596   26.2104 H   0  0  0  0  0  0
  -28.3810  -32.6916   25.0278 H   0  0  0  0  0  0
  -28.0737  -31.8408   26.5339 H   0  0  0  0  0  0
  -28.2589  -38.0121   24.7541 H   0  0  0  0  0  0
  -28.1101  -36.2655   24.6228 H   0  0  0  0  0  0
  -27.2321  -37.1401   25.8861 H   0  0  0  0  0  0
  -20.9287  -29.8762   21.6976 H   0  0  0  0  0  0
  -26.0173  -38.2870   24.1443 H   0  0  0  0  0  0
  -27.8075  -16.9222   21.1068 H   0  0  0  0  0  0
  -27.6936  -19.3304   20.7823 H   0  0  0  0  0  0
  -32.1133  -17.0933   21.1405 H   0  0  0  0  0  0
  -30.1844  -23.3749   19.6349 H   0  0  0  0  0  0
  -27.3240  -24.1811   20.3624 H   0  0  0  0  0  0
  -28.0844  -25.6768   18.3284 H   0  0  0  0  0  0
  -29.6844  -25.5993   18.9780 H   0  0  0  0  0  0
  -30.6699  -21.4338   20.1085 H   0  0  0  0  0  0
  -29.0979  -15.0158   21.6380 H   0  0  0  0  0  0
  1 25  1  0  0  0
  1 30  2  0  0  0
  1 83  1  0  0  0
  2  3  1  0  0  0
  2 25  1  0  0  0
  2 88  1  0  0  0
  2 89  1  0  0  0
  3  4  1  0  0  0
  3 90  1  0  0  0
  3 91  1  0  0  0
  4  5  1  0  0  0
  4 92  1  0  0  0
  4 93  1  0  0  0
  5  6  1  0  0  0
  5 26  1  0  0  0
  5 94  1  0  0  0
  6 25  1  0  0  0
  6 95  1  0  0  0
  6 96  1  0  0  0
  7  8  2  0  0  0
  7 26  1  0  0  0
  7 29  1  0  0  0
  8  9  1  0  0  0
  8 22  1  0  0  0
  9 10  1  0  0  0
  9 27  2  0  0  0
 10 11  2  0  0  0
 10 15  1  0  0  0
 11 12  1  0  0  0
 11 97  1  0  0  0
 12 13  2  0  0  0
 12 98  1  0  0  0
 13 14  1  0  0  0
 13 31  1  0  0  0
 14 15  2  0  0  0
 14 99  1  0  0  0
 15100  1  0  0  0
 16 17  2  0  0  0
 16 21  1  0  0  0
 16 31  1  0  0  0
 17 18  1  0  0  0
 17101  1  0  0  0
 18 19  2  0  0  0
 18102  1  0  0  0
 19 20  1  0  0  0
 19 24  1  0  0  0
 20 21  2  0  0  0
 20103  1  0  0  0
 21 23  1  0  0  0
 22 28  1  0  0  0
 22 32  2  0  0  0
 26 27  1  0  0  0
 28104  1  0  0  0
 28105  1  0  0  0
 29106  1  0  0  0
 29107  1  0  0  0
 33 34  1  0  0  0
 33 66  1  0  0  0
 33 70  2  0  0  0
 34 36  1  0  0  0
 34 59  1  0  0  0
 34108  1  0  0  0
 35 44  2  0  0  0
 35 45  1  0  0  0
 35 68  1  0  0  0
 36 56  1  0  0  0
 36109  1  0  0  0
 37 39  1  0  0  0
 37 47  1  0  0  0
 37 66  1  0  0  0
 37110  1  0  0  0
 38 43  2  0  0  0
 38 46  1  0  0  0
 38 47  1  0  0  0
 39 64  1  0  0  0
 39 67  2  0  0  0
 40 52  1  0  0  0
 40 53  2  0  0  0
 40 58  1  0  0  0
 41111  1  0  0  0
 41112  1  0  0  0
 41113  1  0  0  0
 41 48  1  0  0  0
 42 43  1  0  0  0
 42 66  1  0  0  0
 42114  1  0  0  0
 42115  1  0  0  0
 43 44  1  0  0  0
 44116  1  0  0  0
 45 46  2  0  0  0
 45117  1  0  0  0
 46118  1  0  0  0
 47119  1  0  0  0
 47120  1  0  0  0
 48 56  1  0  0  0
 48 65  1  0  0  0
 48121  1  0  0  0
 49 50  1  0  0  0
 49 53  1  0  0  0
 49 64  1  0  0  0
 49122  1  0  0  0
 50 51  1  0  0  0
 50123  1  0  0  0
 50124  1  0  0  0
 51 52  1  0  0  0
 51125  1  0  0  0
 51126  1  0  0  0
 52127  1  0  0  0
 52128  1  0  0  0
 53 54  1  0  0  0
 54 55  2  0  0  0
 54129  1  0  0  0
 55 57  1  0  0  0
 55130  1  0  0  0
 56 69  2  0  0  0
 57 58  2  0  0  0
 57131  1  0  0  0
 58132  1  0  0  0
 59 60  1  0  0  0
 59 61  1  0  0  0
 59 62  1  0  0  0
 60133  1  0  0  0
 60134  1  0  0  0
 60135  1  0  0  0
 61136  1  0  0  0
 61137  1  0  0  0
 61138  1  0  0  0
 62139  1  0  0  0
 62140  1  0  0  0
 62141  1  0  0  0
 63 65  1  0  0  0
 63142  1  0  0  0
 63143  1  0  0  0
 63144  1  0  0  0
 64145  1  0  0  0
 65146  1  0  0  0
 68 80  1  0  0  0
 71 72  2  0  0  0
 71 75  1  0  0  0
 71147  1  0  0  0
 72 76  1  0  0  0
 72148  1  0  0  0
 73 74  1  0  0  0
 73 75  2  0  0  0
 73149  1  0  0  0
 74 76  2  0  0  0
 74 81  1  0  0  0
 75 83  1  0  0  0
 76 82  1  0  0  0
 77 78  2  0  0  0
 77 79  1  0  0  0
 77150  1  0  0  0
 78 80  1  0  0  0
 78151  1  0  0  0
 79 82  1  0  0  0
 79 84  2  0  0  0
 80152  1  0  0  0
 80153  1  0  0  0
 81 85  1  0  0  0
 81 86  1  0  0  0
 81 87  1  0  0  0
 82154  1  0  0  0
 83155  1  0  0  0
M  ISO  4   1 100  68 101  80 101  83 100
M  END
> <chiral flag>
0

> <version>
0

> <s_m_source_file>
/data/baiqing/PycharmProjects/Reinvent-master-3.2/result/LINK_invent/BTK/process_docking_weight1_custom_product_contain_oxygen_bond_distance_aromatic_linkinvent_7_9_3/rearranged_h_0056.sdf

> <i_m_source_file_index>
26

> <r_mmod_Potential_Energy-OPLS-2005>
-84.7263946533203

> <r_mmod_Stretch_Energy-OPLS-2005>
38.693416595459

> <r_mmod_Bend_Energy-OPLS-2005>
108.927276611328

> <r_mmod_Torsional_Energy-OPLS-2005>
218.246475219727

> <r_mmod_Improper_Torsional_Energy-OPLS-2005>
4.8456244468689

> <r_mmod_Van_der_Waal_Energy-OPLS-2005>
161.787139892578

> <r_mmod_Electrostatic_Energy-OPLS-2005>
-406.852081298828

> <r_mmod_Solvation_Energy-OPLS-2005>
-222.110107421875

> <b_mmod_Minimization_Converged-OPLS-2005>
0

> <r_mmod_RMS_Derivative-OPLS-2005>
1.56236326694489

$$$$
26
                    3D
 Structure written by MMmdl.
164172  0  0  1  0            999 V2000
  -30.6269  -14.7207   20.4298 C   0  0  0  0  0  0
  -30.4263  -12.4305   19.4786 C   0  0  0  0  0  0
  -29.5092  -12.5002   18.2379 C   0  0  0  0  0  0
  -28.0347  -12.3303   18.6508 C   0  0  0  0  0  0
  -27.6434  -13.2331   19.8523 C   0  0  2  0  0  0
  -28.6872  -13.1673   20.9886 C   0  0  0  0  0  0
  -25.2518  -13.8205   20.5695 C   0  0  0  0  0  0
  -24.1810  -13.0446   20.9206 C   0  0  0  0  0  0
  -24.6403  -11.6924   20.8749 C   0  0  0  0  0  0
  -23.9089  -10.4296   21.0410 C   0  0  0  0  0  0
  -24.3635   -9.4207   21.9188 C   0  0  0  0  0  0
  -23.6302   -8.2247   22.0757 C   0  0  0  0  0  0
  -22.4286   -8.0288   21.3545 C   0  0  0  0  0  0
  -21.9928   -9.0267   20.4647 C   0  0  0  0  0  0
  -22.7263  -10.2138   20.3056 C   0  0  0  0  0  0
  -21.6854   -6.0745   22.5275 C   0  0  0  0  0  0
  -21.4020   -6.5648   23.8210 C   0  0  0  0  0  0
  -21.3662   -5.6795   24.9172 C   0  0  0  0  0  0
  -21.6040   -4.3057   24.7219 C   0  0  0  0  0  0
  -21.8814   -3.8148   23.4338 C   0  0  0  0  0  0
  -21.9191   -4.6969   22.3396 C   0  0  0  0  0  0
  -22.7830  -13.5222   21.1872 C   0  0  0  0  0  0
  -22.1653   -4.2154   21.0973 F   0  0  0  0  0  0
  -21.5628   -3.4537   25.7729 F   0  0  0  0  0  0
  -29.9937  -13.4994   20.4073 N   0  0  0  0  0  0
  -26.2949  -12.9415   20.3293 N   0  0  0  0  0  0
  -25.9338  -11.6556   20.5766 N   0  0  0  0  0  0
  -22.0488  -12.8192   22.0427 N   0  0  0  0  0  0
  -25.4221  -15.1930   20.4106 N   0  0  0  0  0  0
  -31.8216  -14.7860   20.1283 O   0  0  0  0  0  0
  -21.6640   -6.8889   21.4242 O   0  0  0  0  0  0
  -22.3506  -14.5533   20.6736 O   0  0  0  0  0  0
  -24.6298  -31.8562   23.1998 C   0  0  0  0  0  0
  -25.9126  -32.4770   23.8336 C   0  0  1  0  0  0
  -27.2192  -27.2721   20.1130 C   0  0  0  0  0  0
  -25.5940  -33.8575   24.2255 N   0  0  0  0  0  0
  -23.4253  -30.4805   21.5437 C   0  0  2  0  0  0
  -24.8691  -28.9290   20.1094 C   0  0  0  0  0  0
  -22.7497  -29.4611   22.4929 C   0  0  0  0  0  0
  -18.0289  -28.1387   22.8493 C   0  0  0  0  0  0
  -24.1490  -36.7289   23.2639 C   0  0  0  0  0  0
  -25.9704  -30.7722   21.3766 C   0  0  0  0  0  0
  -26.0410  -29.3969   20.7152 C   0  0  0  0  0  0
  -27.2154  -28.5799   20.7070 C   0  0  0  0  0  0
  -26.0129  -26.8613   19.4982 C   0  0  0  0  0  0
  -24.8602  -27.6697   19.4927 C   0  0  0  0  0  0
  -23.6411  -29.8169   20.1585 C   0  0  0  0  0  0
  -25.4118  -36.3075   24.0317 C   0  0  1  0  0  0
  -20.5890  -28.3689   23.1282 C   0  0  2  0  0  0
  -20.6782  -26.9413   22.5411 C   0  0  0  0  0  0
  -19.5757  -26.6372   21.5226 C   0  0  0  0  0  0
  -18.1928  -26.7935   22.1616 C   0  0  0  0  0  0
  -19.1544  -28.8854   23.2881 C   0  0  0  0  0  0
  -18.9470  -30.1465   23.8886 C   0  0  0  0  0  0
  -17.6469  -30.6594   24.0559 C   0  0  0  0  0  0
  -25.9052  -34.9449   23.5076 C   0  0  0  0  0  0
  -16.5358  -29.9087   23.6339 C   0  0  0  0  0  0
  -16.7274  -28.6505   23.0356 C   0  0  0  0  0  0
  -26.4485  -31.6612   25.0737 C   0  0  0  0  0  0
  -25.3702  -31.3776   26.1457 C   0  0  0  0  0  0
  -27.0340  -30.3037   24.6224 C   0  0  0  0  0  0
  -27.6031  -32.4368   25.7522 C   0  0  0  0  0  0
  -27.5577  -37.1798   24.8463 C   0  0  0  0  0  0
  -21.4200  -29.3055   22.3684 N   0  0  0  0  0  0
  -26.4288  -37.3777   23.9404 N   0  0  0  0  0  0
  -24.6948  -31.0548   22.0961 N   0  0  0  0  0  0
  -23.4214  -28.8141   23.3004 O   0  0  0  0  0  0
  -28.3419  -26.4168   20.1820 O   0  0  0  0  0  0
  -26.5622  -34.8921   22.4644 O   0  0  0  0  0  0
  -23.5450  -32.1361   23.7311 O   0  0  0  0  0  0
  -31.2550  -18.8113   18.6185 C   0  0  0  0  0  0
  -30.6075  -19.9355   19.1683 C   0  0  0  0  0  0
  -31.0103  -17.5100   19.0992 C   0  0  0  0  0  0
  -29.4207  -18.4407   20.6757 C   0  0  0  0  0  0
  -29.6556  -19.8022   20.2014 C   0  0  0  0  0  0
  -30.1046  -17.2644   20.1587 C   0  0  0  0  0  0
  -28.4370  -23.7399   20.3817 C   0  0  0  0  0  0
  -28.9668  -22.5108   20.0137 C   0  0  0  0  0  0
  -27.3970  -20.5006   22.6186 C   0  0  0  0  0  0
  -25.7539  -18.6222   22.9501 C   0  0  0  0  0  0
  -25.4865  -20.7761   24.2669 C   0  0  0  0  0  0
  -28.4144  -25.0727   19.5241 C   0  0  0  0  0  0
  -28.9990  -21.1304   20.8084 C   0  0  1  0  0  0
  -25.9365  -20.1493   22.9346 C   0  0  0  0  0  0
  -29.8662  -15.8684   20.6160 N   0  0  0  0  0  0
  -27.6731  -20.8650   21.3597 N   0  0  0  0  0  0
  -28.2575  -20.4147   23.4970 O   0  0  0  0  0  0
  -31.4707  -12.5349   19.1781 H   0  0  0  0  0  0
  -30.3518  -11.4544   19.9608 H   0  0  0  0  0  0
  -29.7862  -11.7289   17.5175 H   0  0  0  0  0  0
  -29.6422  -13.4571   17.7305 H   0  0  0  0  0  0
  -27.8887  -11.2822   18.9147 H   0  0  0  0  0  0
  -27.3777  -12.5243   17.8026 H   0  0  0  0  0  0
  -27.6398  -14.2545   19.4714 H   0  0  0  0  0  0
  -28.7111  -12.1738   21.4383 H   0  0  0  0  0  0
  -28.4287  -13.8598   21.7914 H   0  0  0  0  0  0
  -25.2787   -9.5662   22.4765 H   0  0  0  0  0  0
  -23.9995   -7.4635   22.7478 H   0  0  0  0  0  0
  -21.0861   -8.8797   19.8951 H   0  0  0  0  0  0
  -22.3739  -10.9683   19.6160 H   0  0  0  0  0  0
  -21.2020   -7.6158   23.9718 H   0  0  0  0  0  0
  -21.1486   -6.0525   25.9073 H   0  0  0  0  0  0
  -22.0588   -2.7611   23.2835 H   0  0  0  0  0  0
  -22.4110  -11.9823   22.4757 H   0  0  0  0  0  0
  -21.1124  -13.1209   22.2692 H   0  0  0  0  0  0
  -24.6549  -15.8463   20.5218 H   0  0  0  0  0  0
  -26.2693  -15.6307   20.0729 H   0  0  0  0  0  0
  -26.7189  -32.5412   23.1074 H   0  0  0  0  0  0
  -25.0150  -33.9735   25.0441 H   0  0  0  0  0  0
  -22.7219  -31.3022   21.4003 H   0  0  0  0  0  0
  -23.3765  -35.9611   23.3291 H   0  0  0  0  0  0
  -24.3584  -36.8921   22.2059 H   0  0  0  0  0  0
  -23.7223  -37.6472   23.6674 H   0  0  0  0  0  0
  -26.1104  -31.5359   20.6101 H   0  0  0  0  0  0
  -26.8479  -30.8173   22.0101 H   0  0  0  0  0  0
  -28.1142  -28.9371   21.1899 H   0  0  0  0  0  0
  -25.9035  -25.8904   19.0439 H   0  0  0  0  0  0
  -23.9569  -27.3031   19.0245 H   0  0  0  0  0  0
  -23.7640  -30.5941   19.4033 H   0  0  0  0  0  0
  -22.7578  -29.2511   19.8553 H   0  0  0  0  0  0
  -25.1300  -36.1913   25.0807 H   0  0  0  0  0  0
  -20.9970  -28.3243   24.1405 H   0  0  0  0  0  0
  -20.5704  -26.2294   23.3609 H   0  0  0  0  0  0
  -21.6641  -26.7456   22.1175 H   0  0  0  0  0  0
  -19.6922  -25.6276   21.1265 H   0  0  0  0  0  0
  -19.6695  -27.3175   20.6752 H   0  0  0  0  0  0
  -17.4202  -26.6707   21.4008 H   0  0  0  0  0  0
  -18.0299  -26.0077   22.9004 H   0  0  0  0  0  0
  -19.7946  -30.7298   24.2231 H   0  0  0  0  0  0
  -17.5022  -31.6279   24.5153 H   0  0  0  0  0  0
  -15.5360  -30.2994   23.7689 H   0  0  0  0  0  0
  -15.8661  -28.0844   22.7071 H   0  0  0  0  0  0
  -24.5884  -30.7115   25.7781 H   0  0  0  0  0  0
  -24.8896  -32.2962   26.4837 H   0  0  0  0  0  0
  -25.8003  -30.8983   27.0260 H   0  0  0  0  0  0
  -26.2928  -29.6802   24.1208 H   0  0  0  0  0  0
  -27.3986  -29.7278   25.4736 H   0  0  0  0  0  0
  -27.8814  -30.4332   23.9491 H   0  0  0  0  0  0
  -27.2622  -33.3680   26.2063 H   0  0  0  0  0  0
  -28.3863  -32.6911   25.0370 H   0  0  0  0  0  0
  -28.0676  -31.8528   26.5476 H   0  0  0  0  0  0
  -28.2568  -38.0117   24.7522 H   0  0  0  0  0  0
  -28.1083  -36.2641   24.6260 H   0  0  0  0  0  0
  -27.2301  -37.1407   25.8867 H   0  0  0  0  0  0
  -20.9371  -29.8831   21.6945 H   0  0  0  0  0  0
  -26.0161  -38.2840   24.1423 H   0  0  0  0  0  0
  -31.9645  -18.9496   17.8141 H   0  0  0  0  0  0
  -30.8684  -20.9094   18.7819 H   0  0  0  0  0  0
  -31.5378  -16.6998   18.6178 H   0  0  0  0  0  0
  -28.7120  -18.2923   21.4763 H   0  0  0  0  0  0
  -27.9594  -23.8182   21.3469 H   0  0  0  0  0  0
  -29.4240  -22.4750   19.0378 H   0  0  0  0  0  0
  -26.0451  -18.1795   21.9970 H   0  0  0  0  0  0
  -24.7144  -18.3495   23.1292 H   0  0  0  0  0  0
  -26.3570  -18.1555   23.7292 H   0  0  0  0  0  0
  -25.6077  -21.8601   24.2548 H   0  0  0  0  0  0
  -26.0635  -20.3878   25.1071 H   0  0  0  0  0  0
  -24.4354  -20.5667   24.4664 H   0  0  0  0  0  0
  -27.6773  -24.9505   18.7350 H   0  0  0  0  0  0
  -29.3547  -25.0785   18.9718 H   0  0  0  0  0  0
  -29.6640  -21.3654   21.6420 H   0  0  0  0  0  0
  -25.3029  -20.5599   22.1476 H   0  0  0  0  0  0
  -28.9552  -15.6959   21.0121 H   0  0  0  0  0  0
  -26.9028  -20.9037   20.7071 H   0  0  0  0  0  0
  1 25  1  0  0  0
  1 30  2  0  0  0
  1 85  1  0  0  0
  2  3  1  0  0  0
  2 25  1  0  0  0
  2 88  1  0  0  0
  2 89  1  0  0  0
  3  4  1  0  0  0
  3 90  1  0  0  0
  3 91  1  0  0  0
  4  5  1  0  0  0
  4 92  1  0  0  0
  4 93  1  0  0  0
  5  6  1  0  0  0
  5 26  1  0  0  0
  5 94  1  0  0  0
  6 25  1  0  0  0
  6 95  1  0  0  0
  6 96  1  0  0  0
  7  8  2  0  0  0
  7 26  1  0  0  0
  7 29  1  0  0  0
  8  9  1  0  0  0
  8 22  1  0  0  0
  9 10  1  0  0  0
  9 27  2  0  0  0
 10 11  2  0  0  0
 10 15  1  0  0  0
 11 12  1  0  0  0
 11 97  1  0  0  0
 12 13  2  0  0  0
 12 98  1  0  0  0
 13 14  1  0  0  0
 13 31  1  0  0  0
 14 15  2  0  0  0
 14 99  1  0  0  0
 15100  1  0  0  0
 16 17  2  0  0  0
 16 21  1  0  0  0
 16 31  1  0  0  0
 17 18  1  0  0  0
 17101  1  0  0  0
 18 19  2  0  0  0
 18102  1  0  0  0
 19 20  1  0  0  0
 19 24  1  0  0  0
 20 21  2  0  0  0
 20103  1  0  0  0
 21 23  1  0  0  0
 22 28  1  0  0  0
 22 32  2  0  0  0
 26 27  1  0  0  0
 28104  1  0  0  0
 28105  1  0  0  0
 29106  1  0  0  0
 29107  1  0  0  0
 33 34  1  0  0  0
 33 66  1  0  0  0
 33 70  2  0  0  0
 34 36  1  0  0  0
 34 59  1  0  0  0
 34108  1  0  0  0
 35 44  2  0  0  0
 35 45  1  0  0  0
 35 68  1  0  0  0
 36 56  1  0  0  0
 36109  1  0  0  0
 37 39  1  0  0  0
 37 47  1  0  0  0
 37 66  1  0  0  0
 37110  1  0  0  0
 38 43  2  0  0  0
 38 46  1  0  0  0
 38 47  1  0  0  0
 39 64  1  0  0  0
 39 67  2  0  0  0
 40 52  1  0  0  0
 40 53  2  0  0  0
 40 58  1  0  0  0
 41111  1  0  0  0
 41112  1  0  0  0
 41113  1  0  0  0
 41 48  1  0  0  0
 42 43  1  0  0  0
 42 66  1  0  0  0
 42114  1  0  0  0
 42115  1  0  0  0
 43 44  1  0  0  0
 44116  1  0  0  0
 45 46  2  0  0  0
 45117  1  0  0  0
 46118  1  0  0  0
 47119  1  0  0  0
 47120  1  0  0  0
 48 56  1  0  0  0
 48 65  1  0  0  0
 48121  1  0  0  0
 49 50  1  0  0  0
 49 53  1  0  0  0
 49 64  1  0  0  0
 49122  1  0  0  0
 50 51  1  0  0  0
 50123  1  0  0  0
 50124  1  0  0  0
 51 52  1  0  0  0
 51125  1  0  0  0
 51126  1  0  0  0
 52127  1  0  0  0
 52128  1  0  0  0
 53 54  1  0  0  0
 54 55  2  0  0  0
 54129  1  0  0  0
 55 57  1  0  0  0
 55130  1  0  0  0
 56 69  2  0  0  0
 57 58  2  0  0  0
 57131  1  0  0  0
 58132  1  0  0  0
 59 60  1  0  0  0
 59 61  1  0  0  0
 59 62  1  0  0  0
 60133  1  0  0  0
 60134  1  0  0  0
 60135  1  0  0  0
 61136  1  0  0  0
 61137  1  0  0  0
 61138  1  0  0  0
 62139  1  0  0  0
 62140  1  0  0  0
 62141  1  0  0  0
 63 65  1  0  0  0
 63142  1  0  0  0
 63143  1  0  0  0
 63144  1  0  0  0
 64145  1  0  0  0
 65146  1  0  0  0
 68 82  1  0  0  0
 71 72  2  0  0  0
 71 73  1  0  0  0
 71147  1  0  0  0
 72 75  1  0  0  0
 72148  1  0  0  0
 73 76  2  0  0  0
 73149  1  0  0  0
 74 75  2  0  0  0
 74 76  1  0  0  0
 74150  1  0  0  0
 75 83  1  0  0  0
 76 85  1  0  0  0
 77 78  2  0  0  0
 77 82  1  0  0  0
 77151  1  0  0  0
 78 83  1  0  0  0
 78152  1  0  0  0
 79 84  1  0  0  0
 79 86  1  0  0  0
 79 87  2  0  0  0
 80153  1  0  0  0
 80154  1  0  0  0
 80155  1  0  0  0
 80 84  1  0  0  0
 81 84  1  0  0  0
 81156  1  0  0  0
 81157  1  0  0  0
 81158  1  0  0  0
 82159  1  0  0  0
 82160  1  0  0  0
 83 86  1  0  0  0
 83161  1  0  0  0
 84162  1  0  0  0
 85163  1  0  0  0
 86164  1  0  0  0
M  ISO  4   1 100  68 101  82 101  85 100
M  END
> <chiral flag>
0

> <version>
0

> <s_m_source_file>
/data/baiqing/PycharmProjects/Reinvent-master-3.2/result/LINK_invent/BTK/process_docking_weight1_custom_product_contain_oxygen_bond_distance_aromatic_linkinvent_7_9_3/rearranged_h_0056.sdf

> <i_m_source_file_index>
27

> <r_mmod_Potential_Energy-OPLS-2005>
27.4178524017334

> <r_mmod_Stretch_Energy-OPLS-2005>
117.069770812988

> <r_mmod_Bend_Energy-OPLS-2005>
160.710052490234

> <r_mmod_Torsional_Energy-OPLS-2005>
227.445770263672

> <r_mmod_Improper_Torsional_Energy-OPLS-2005>
4.6236367225647

> <r_mmod_Van_der_Waal_Energy-OPLS-2005>
143.392990112305

> <r_mmod_Electrostatic_Energy-OPLS-2005>
-472.695983886719

> <r_mmod_Solvation_Energy-OPLS-2005>
-228.94596862793

> <b_mmod_Minimization_Converged-OPLS-2005>
0

> <r_mmod_RMS_Derivative-OPLS-2005>
1.66952574253082

$$$$
27
                    3D
 Structure written by MMmdl.
160168  0  0  1  0            999 V2000
  -30.5832  -14.7559   20.5251 C   0  0  0  0  0  0
  -30.4471  -12.4800   19.4630 C   0  0  0  0  0  0
  -29.5191  -12.5418   18.2283 C   0  0  0  0  0  0
  -28.0410  -12.3516   18.6320 C   0  0  0  0  0  0
  -27.6426  -13.2258   19.8505 C   0  0  2  0  0  0
  -28.6865  -13.1347   20.9851 C   0  0  0  0  0  0
  -25.2486  -13.8163   20.5649 C   0  0  0  0  0  0
  -24.1784  -13.0424   20.9190 C   0  0  0  0  0  0
  -24.6341  -11.6896   20.8711 C   0  0  0  0  0  0
  -23.8990  -10.4305   21.0406 C   0  0  0  0  0  0
  -24.3551   -9.4239   21.9185 C   0  0  0  0  0  0
  -23.6263   -8.2256   22.0744 C   0  0  0  0  0  0
  -22.4255   -8.0263   21.3520 C   0  0  0  0  0  0
  -21.9872   -9.0224   20.4631 C   0  0  0  0  0  0
  -22.7168  -10.2136   20.3049 C   0  0  0  0  0  0
  -21.6873   -6.0710   22.5278 C   0  0  0  0  0  0
  -21.4008   -6.5608   23.8197 C   0  0  0  0  0  0
  -21.3660   -5.6756   24.9158 C   0  0  0  0  0  0
  -21.6048   -4.3022   24.7230 C   0  0  0  0  0  0
  -21.8811   -3.8107   23.4344 C   0  0  0  0  0  0
  -21.9188   -4.6924   22.3393 C   0  0  0  0  0  0
  -22.7804  -13.5250   21.1836 C   0  0  0  0  0  0
  -22.1667   -4.2098   21.0980 F   0  0  0  0  0  0
  -21.5637   -3.4505   25.7747 F   0  0  0  0  0  0
  -29.9849  -13.5181   20.4143 N   0  0  0  0  0  0
  -26.2908  -12.9354   20.3222 N   0  0  0  0  0  0
  -25.9267  -11.6508   20.5677 N   0  0  0  0  0  0
  -22.0390  -12.8291   22.0388 N   0  0  0  0  0  0
  -25.4149  -15.1910   20.4050 N   0  0  0  0  0  0
  -31.7752  -14.8918   20.2284 O   0  0  0  0  0  0
  -21.6628   -6.8862   21.4235 O   0  0  0  0  0  0
  -22.3513  -14.5543   20.6658 O   0  0  0  0  0  0
  -24.6311  -31.8565   23.1951 C   0  0  0  0  0  0
  -25.9130  -32.4767   23.8301 C   0  0  1  0  0  0
  -27.2301  -27.2606   20.1507 C   0  0  0  0  0  0
  -25.5891  -33.8553   24.2245 N   0  0  0  0  0  0
  -23.4295  -30.4808   21.5363 C   0  0  2  0  0  0
  -24.8791  -28.9239   20.1092 C   0  0  0  0  0  0
  -22.7500  -29.4647   22.4870 C   0  0  0  0  0  0
  -18.0297  -28.1470   22.8543 C   0  0  0  0  0  0
  -24.1424  -36.7282   23.2636 C   0  0  0  0  0  0
  -25.9664  -30.7859   21.3547 C   0  0  0  0  0  0
  -26.0484  -29.3966   20.7173 C   0  0  0  0  0  0
  -27.2272  -28.5809   20.7204 C   0  0  0  0  0  0
  -26.0338  -26.8552   19.5129 C   0  0  0  0  0  0
  -24.8766  -27.6613   19.4953 C   0  0  0  0  0  0
  -23.6502  -29.8141   20.1524 C   0  0  0  0  0  0
  -25.4042  -36.3083   24.0342 C   0  0  1  0  0  0
  -20.5894  -28.3756   23.1306 C   0  0  2  0  0  0
  -20.6771  -26.9471   22.5480 C   0  0  0  0  0  0
  -19.5720  -26.6428   21.5307 C   0  0  0  0  0  0
  -18.1895  -26.8008   22.1706 C   0  0  0  0  0  0
  -19.1549  -28.8926   23.2930 C   0  0  0  0  0  0
  -18.9482  -30.1513   23.8961 C   0  0  0  0  0  0
  -17.6487  -30.6683   24.0598 C   0  0  0  0  0  0
  -25.9000  -34.9445   23.5114 C   0  0  0  0  0  0
  -16.5371  -29.9208   23.6345 C   0  0  0  0  0  0
  -16.7287  -28.6621   23.0394 C   0  0  0  0  0  0
  -26.4492  -31.6575   25.0658 C   0  0  0  0  0  0
  -25.3716  -31.3766   26.1383 C   0  0  0  0  0  0
  -27.0276  -30.2998   24.6038 C   0  0  0  0  0  0
  -27.6036  -32.4284   25.7469 C   0  0  0  0  0  0
  -27.5541  -37.1781   24.8461 C   0  0  0  0  0  0
  -21.4197  -29.3108   22.3654 N   0  0  0  0  0  0
  -26.4213  -37.3811   23.9467 N   0  0  0  0  0  0
  -24.6975  -31.0553   22.0913 N   0  0  0  0  0  0
  -23.4212  -28.8157   23.2942 O   0  0  0  0  0  0
  -28.3389  -26.3792   20.1646 O   0  0  0  0  0  0
  -26.5617  -34.8956   22.4689 O   0  0  0  0  0  0
  -23.5452  -32.1377   23.7273 O   0  0  0  0  0  0
  -30.3594  -18.6981   23.1136 C   0  0  0  0  0  0
  -30.3095  -17.4139   22.5277 C   0  0  0  0  0  0
  -29.6316  -18.4652   20.4483 C   0  0  0  0  0  0
  -29.6957  -19.8171   21.0107 C   0  0  0  0  0  0
  -30.0706  -19.8827   22.3879 C   0  0  0  0  0  0
  -29.9482  -17.2408   21.1752 C   0  0  0  0  0  0
  -29.5551  -21.1078   20.1218 C   0  0  0  0  0  0
  -30.2123  -21.2026   23.1397 C   0  0  0  0  0  0
  -30.5764  -24.2294   20.0670 C   0  0  0  0  0  0
  -28.7737  -23.6691   18.4228 C   0  0  0  0  0  0
  -28.1648  -24.9240   20.5446 C   0  0  0  0  0  0
  -29.1160  -23.7491   19.9266 C   0  0  0  0  0  0
  -29.7392  -15.8519   20.6902 N   0  0  0  0  0  0
  -29.0478  -22.3345   20.5634 N   0  0  0  0  0  0
  -29.9655  -20.9966   18.9673 O   0  0  0  0  0  0
  -31.4814  -12.6428   19.1569 H   0  0  0  0  0  0
  -30.4224  -11.4927   19.9260 H   0  0  0  0  0  0
  -29.8143  -11.7943   17.4914 H   0  0  0  0  0  0
  -29.6361  -13.5106   17.7382 H   0  0  0  0  0  0
  -27.8923  -11.2984   18.8712 H   0  0  0  0  0  0
  -27.3881  -12.5674   17.7839 H   0  0  0  0  0  0
  -27.6415  -14.2544   19.4903 H   0  0  0  0  0  0
  -28.7267  -12.1244   21.3929 H   0  0  0  0  0  0
  -28.4113  -13.7861   21.8170 H   0  0  0  0  0  0
  -25.2701   -9.5732   22.4744 H   0  0  0  0  0  0
  -23.9969   -7.4649   22.7476 H   0  0  0  0  0  0
  -21.0789   -8.8716   19.8972 H   0  0  0  0  0  0
  -22.3596  -10.9631   19.6134 H   0  0  0  0  0  0
  -21.2010   -7.6127   23.9682 H   0  0  0  0  0  0
  -21.1497   -6.0503   25.9059 H   0  0  0  0  0  0
  -22.0601   -2.7573   23.2847 H   0  0  0  0  0  0
  -22.3937  -11.9996   22.4895 H   0  0  0  0  0  0
  -21.0972  -13.1341   22.2441 H   0  0  0  0  0  0
  -24.6369  -15.8363   20.4993 H   0  0  0  0  0  0
  -26.2381  -15.6234   20.0040 H   0  0  0  0  0  0
  -26.7178  -32.5465   23.1037 H   0  0  0  0  0  0
  -24.9960  -33.9638   25.0347 H   0  0  0  0  0  0
  -22.7306  -31.3059   21.3885 H   0  0  0  0  0  0
  -23.3710  -35.9599   23.3288 H   0  0  0  0  0  0
  -24.3572  -36.8914   22.2070 H   0  0  0  0  0  0
  -23.7124  -37.6450   23.6663 H   0  0  0  0  0  0
  -26.0535  -31.5337   20.5633 H   0  0  0  0  0  0
  -26.8668  -30.8803   21.9517 H   0  0  0  0  0  0
  -28.1182  -28.9579   21.2048 H   0  0  0  0  0  0
  -25.9856  -25.8955   19.0248 H   0  0  0  0  0  0
  -23.9806  -27.2995   19.0084 H   0  0  0  0  0  0
  -23.7753  -30.5927   19.3966 H   0  0  0  0  0  0
  -22.7678  -29.2487   19.8475 H   0  0  0  0  0  0
  -25.1210  -36.1920   25.0840 H   0  0  0  0  0  0
  -21.0041  -28.3356   24.1401 H   0  0  0  0  0  0
  -20.5698  -26.2386   23.3720 H   0  0  0  0  0  0
  -21.6620  -26.7522   22.1206 H   0  0  0  0  0  0
  -19.6836  -25.6332   21.1351 H   0  0  0  0  0  0
  -19.6608  -27.3233   20.6823 H   0  0  0  0  0  0
  -17.4177  -26.6819   21.4094 H   0  0  0  0  0  0
  -18.0219  -26.0192   22.9125 H   0  0  0  0  0  0
  -19.7947  -30.7328   24.2346 H   0  0  0  0  0  0
  -17.5060  -31.6360   24.5215 H   0  0  0  0  0  0
  -15.5374  -30.3174   23.7614 H   0  0  0  0  0  0
  -15.8679  -28.0978   22.7074 H   0  0  0  0  0  0
  -24.5933  -30.7025   25.7784 H   0  0  0  0  0  0
  -24.8837  -32.2949   26.4659 H   0  0  0  0  0  0
  -25.8054  -30.9113   27.0242 H   0  0  0  0  0  0
  -26.2808  -29.6803   24.1044 H   0  0  0  0  0  0
  -27.3983  -29.7180   25.4485 H   0  0  0  0  0  0
  -27.8682  -30.4294   23.9216 H   0  0  0  0  0  0
  -27.2647  -33.3623   26.1974 H   0  0  0  0  0  0
  -28.3936  -32.6766   25.0368 H   0  0  0  0  0  0
  -28.0586  -31.8421   26.5465 H   0  0  0  0  0  0
  -28.2517  -38.0112   24.7597 H   0  0  0  0  0  0
  -28.1067  -36.2665   24.6156 H   0  0  0  0  0  0
  -27.2324  -37.1295   25.8874 H   0  0  0  0  0  0
  -20.9349  -29.8923   21.6964 H   0  0  0  0  0  0
  -26.0080  -38.2852   24.1614 H   0  0  0  0  0  0
  -30.6306  -18.7668   24.1606 H   0  0  0  0  0  0
  -30.5153  -16.5582   23.1563 H   0  0  0  0  0  0
  -29.3405  -18.3730   19.4111 H   0  0  0  0  0  0
  -30.5115  -21.0477   24.1780 H   0  0  0  0  0  0
  -29.2648  -21.7402   23.1652 H   0  0  0  0  0  0
  -30.9698  -21.8349   22.6748 H   0  0  0  0  0  0
  -30.7445  -25.1539   19.5102 H   0  0  0  0  0  0
  -31.2871  -23.4921   19.6895 H   0  0  0  0  0  0
  -30.8346  -24.4309   21.1064 H   0  0  0  0  0  0
  -28.5906  -24.6597   18.0055 H   0  0  0  0  0  0
  -27.8819  -23.0677   18.2417 H   0  0  0  0  0  0
  -29.5897  -23.2442   17.8389 H   0  0  0  0  0  0
  -28.2868  -24.9025   21.6265 H   0  0  0  0  0  0
  -27.1298  -24.6161   20.3968 H   0  0  0  0  0  0
  -28.7682  -15.5793   20.6731 H   0  0  0  0  0  0
  -28.6723  -22.3099   21.4997 H   0  0  0  0  0  0
  1 25  1  0  0  0
  1 30  2  0  0  0
  1 83  1  0  0  0
  2  3  1  0  0  0
  2 25  1  0  0  0
  2 86  1  0  0  0
  2 87  1  0  0  0
  3  4  1  0  0  0
  3 88  1  0  0  0
  3 89  1  0  0  0
  4  5  1  0  0  0
  4 90  1  0  0  0
  4 91  1  0  0  0
  5  6  1  0  0  0
  5 26  1  0  0  0
  5 92  1  0  0  0
  6 25  1  0  0  0
  6 93  1  0  0  0
  6 94  1  0  0  0
  7  8  2  0  0  0
  7 26  1  0  0  0
  7 29  1  0  0  0
  8  9  1  0  0  0
  8 22  1  0  0  0
  9 10  1  0  0  0
  9 27  2  0  0  0
 10 11  2  0  0  0
 10 15  1  0  0  0
 11 12  1  0  0  0
 11 95  1  0  0  0
 12 13  2  0  0  0
 12 96  1  0  0  0
 13 14  1  0  0  0
 13 31  1  0  0  0
 14 15  2  0  0  0
 14 97  1  0  0  0
 15 98  1  0  0  0
 16 17  2  0  0  0
 16 21  1  0  0  0
 16 31  1  0  0  0
 17 18  1  0  0  0
 17 99  1  0  0  0
 18 19  2  0  0  0
 18100  1  0  0  0
 19 20  1  0  0  0
 19 24  1  0  0  0
 20 21  2  0  0  0
 20101  1  0  0  0
 21 23  1  0  0  0
 22 28  1  0  0  0
 22 32  2  0  0  0
 26 27  1  0  0  0
 28102  1  0  0  0
 28103  1  0  0  0
 29104  1  0  0  0
 29105  1  0  0  0
 33 34  1  0  0  0
 33 66  1  0  0  0
 33 70  2  0  0  0
 34 36  1  0  0  0
 34 59  1  0  0  0
 34106  1  0  0  0
 35 44  2  0  0  0
 35 45  1  0  0  0
 35 68  1  0  0  0
 36 56  1  0  0  0
 36107  1  0  0  0
 37 39  1  0  0  0
 37 47  1  0  0  0
 37 66  1  0  0  0
 37108  1  0  0  0
 38 43  2  0  0  0
 38 46  1  0  0  0
 38 47  1  0  0  0
 39 64  1  0  0  0
 39 67  2  0  0  0
 40 52  1  0  0  0
 40 53  2  0  0  0
 40 58  1  0  0  0
 41109  1  0  0  0
 41110  1  0  0  0
 41111  1  0  0  0
 41 48  1  0  0  0
 42 43  1  0  0  0
 42 66  1  0  0  0
 42112  1  0  0  0
 42113  1  0  0  0
 43 44  1  0  0  0
 44114  1  0  0  0
 45 46  2  0  0  0
 45115  1  0  0  0
 46116  1  0  0  0
 47117  1  0  0  0
 47118  1  0  0  0
 48 56  1  0  0  0
 48 65  1  0  0  0
 48119  1  0  0  0
 49 50  1  0  0  0
 49 53  1  0  0  0
 49 64  1  0  0  0
 49120  1  0  0  0
 50 51  1  0  0  0
 50121  1  0  0  0
 50122  1  0  0  0
 51 52  1  0  0  0
 51123  1  0  0  0
 51124  1  0  0  0
 52125  1  0  0  0
 52126  1  0  0  0
 53 54  1  0  0  0
 54 55  2  0  0  0
 54127  1  0  0  0
 55 57  1  0  0  0
 55128  1  0  0  0
 56 69  2  0  0  0
 57 58  2  0  0  0
 57129  1  0  0  0
 58130  1  0  0  0
 59 60  1  0  0  0
 59 61  1  0  0  0
 59 62  1  0  0  0
 60131  1  0  0  0
 60132  1  0  0  0
 60133  1  0  0  0
 61134  1  0  0  0
 61135  1  0  0  0
 61136  1  0  0  0
 62137  1  0  0  0
 62138  1  0  0  0
 62139  1  0  0  0
 63 65  1  0  0  0
 63140  1  0  0  0
 63141  1  0  0  0
 63142  1  0  0  0
 64143  1  0  0  0
 65144  1  0  0  0
 68 81  1  0  0  0
 71 72  2  0  0  0
 71 75  1  0  0  0
 71145  1  0  0  0
 72 76  1  0  0  0
 72146  1  0  0  0
 73 74  1  0  0  0
 73 76  2  0  0  0
 73147  1  0  0  0
 74 75  2  0  0  0
 74 77  1  0  0  0
 75 78  1  0  0  0
 76 83  1  0  0  0
 77 84  1  0  0  0
 77 85  2  0  0  0
 78148  1  0  0  0
 78149  1  0  0  0
 78150  1  0  0  0
 79151  1  0  0  0
 79152  1  0  0  0
 79153  1  0  0  0
 79 82  1  0  0  0
 80 82  1  0  0  0
 80154  1  0  0  0
 80155  1  0  0  0
 80156  1  0  0  0
 81 82  1  0  0  0
 81157  1  0  0  0
 81158  1  0  0  0
 82 84  1  0  0  0
 83159  1  0  0  0
 84160  1  0  0  0
M  ISO  4   1 100  68 101  81 101  83 100
M  END
> <chiral flag>
0

> <version>
0

> <s_m_source_file>
/data/baiqing/PycharmProjects/Reinvent-master-3.2/result/LINK_invent/BTK/process_docking_weight1_custom_product_contain_oxygen_bond_distance_aromatic_linkinvent_7_9_3/rearranged_h_0056.sdf

> <i_m_source_file_index>
28

> <r_mmod_Potential_Energy-OPLS-2005>
171.561141967773

> <r_mmod_Stretch_Energy-OPLS-2005>
142.36653137207

> <r_mmod_Bend_Energy-OPLS-2005>
174.169052124023

> <r_mmod_Torsional_Energy-OPLS-2005>
268.227722167969

> <r_mmod_Improper_Torsional_Energy-OPLS-2005>
9.73570251464844

> <r_mmod_Van_der_Waal_Energy-OPLS-2005>
137.614532470703

> <r_mmod_Electrostatic_Energy-OPLS-2005>
-417.259338378906

> <r_mmod_Solvation_Energy-OPLS-2005>
-229.421768188477

> <b_mmod_Minimization_Converged-OPLS-2005>
0

> <r_mmod_RMS_Derivative-OPLS-2005>
5.38274335861206

$$$$
28
                    3D
 Structure written by MMmdl.
154162  0  0  1  0            999 V2000
  -30.7022  -14.4836   20.4842 C   0  0  0  0  0  0
  -30.4122  -12.2890   19.4415 C   0  0  0  0  0  0
  -29.4976  -12.4848   18.2145 C   0  0  0  0  0  0
  -28.0165  -12.3562   18.6213 C   0  0  0  0  0  0
  -27.6566  -13.2125   19.8662 C   0  0  2  0  0  0
  -28.6984  -13.0372   20.9955 C   0  0  0  0  0  0
  -25.2575  -13.8174   20.5676 C   0  0  0  0  0  0
  -24.1834  -13.0444   20.9180 C   0  0  0  0  0  0
  -24.6395  -11.6910   20.8735 C   0  0  0  0  0  0
  -23.9064  -10.4295   21.0401 C   0  0  0  0  0  0
  -24.3617   -9.4211   21.9182 C   0  0  0  0  0  0
  -23.6294   -8.2246   22.0754 C   0  0  0  0  0  0
  -22.4277   -8.0280   21.3541 C   0  0  0  0  0  0
  -21.9911   -9.0251   20.4644 C   0  0  0  0  0  0
  -22.7238  -10.2132   20.3050 C   0  0  0  0  0  0
  -21.6855   -6.0734   22.5281 C   0  0  0  0  0  0
  -21.4011   -6.5640   23.8212 C   0  0  0  0  0  0
  -21.3660   -5.6794   24.9177 C   0  0  0  0  0  0
  -21.6045   -4.3056   24.7227 C   0  0  0  0  0  0
  -21.8820   -3.8148   23.4348 C   0  0  0  0  0  0
  -21.9195   -4.6962   22.3404 C   0  0  0  0  0  0
  -22.7858  -13.5238   21.1844 C   0  0  0  0  0  0
  -22.1665   -4.2150   21.0980 F   0  0  0  0  0  0
  -21.5630   -3.4539   25.7740 F   0  0  0  0  0  0
  -30.0289  -13.3050   20.4335 N   0  0  0  0  0  0
  -26.3005  -12.9350   20.3335 N   0  0  0  0  0  0
  -25.9324  -11.6508   20.5764 N   0  0  0  0  0  0
  -22.0499  -12.8224   22.0395 N   0  0  0  0  0  0
  -25.4300  -15.1889   20.4085 N   0  0  0  0  0  0
  -31.8917  -14.5788   20.1728 O   0  0  0  0  0  0
  -21.6640   -6.8874   21.4241 O   0  0  0  0  0  0
  -22.3545  -14.5548   20.6698 O   0  0  0  0  0  0
  -24.6142  -31.8681   23.2100 C   0  0  0  0  0  0
  -25.9042  -32.4820   23.8390 C   0  0  1  0  0  0
  -27.2321  -27.4385   20.1050 C   0  0  0  0  0  0
  -25.5909  -33.8618   24.2331 N   0  0  0  0  0  0
  -23.4016  -30.4904   21.5510 C   0  0  2  0  0  0
  -24.8486  -28.9550   20.1153 C   0  0  0  0  0  0
  -22.7401  -29.4660   22.5003 C   0  0  0  0  0  0
  -18.0265  -28.1369   22.8491 C   0  0  0  0  0  0
  -24.1490  -36.7311   23.2638 C   0  0  0  0  0  0
  -25.9295  -30.8359   21.3614 C   0  0  0  0  0  0
  -26.0085  -29.4711   20.7077 C   0  0  0  0  0  0
  -27.2066  -28.7220   20.6939 C   0  0  0  0  0  0
  -26.0588  -26.9323   19.5075 C   0  0  0  0  0  0
  -24.8685  -27.6854   19.5105 C   0  0  0  0  0  0
  -23.6093  -29.8200   20.1661 C   0  0  0  0  0  0
  -25.4113  -36.3109   24.0335 C   0  0  1  0  0  0
  -20.5855  -28.3660   23.1319 C   0  0  2  0  0  0
  -20.6763  -26.9397   22.5416 C   0  0  0  0  0  0
  -19.5743  -26.6378   21.5210 C   0  0  0  0  0  0
  -18.1916  -26.7917   22.1618 C   0  0  0  0  0  0
  -19.1515  -28.8829   23.2901 C   0  0  0  0  0  0
  -18.9446  -30.1438   23.8908 C   0  0  0  0  0  0
  -17.6451  -30.6583   24.0560 C   0  0  0  0  0  0
  -25.9036  -34.9474   23.5130 C   0  0  0  0  0  0
  -16.5343  -29.9081   23.6332 C   0  0  0  0  0  0
  -16.7254  -28.6496   23.0356 C   0  0  0  0  0  0
  -26.4478  -31.6591   25.0710 C   0  0  0  0  0  0
  -25.3751  -31.3678   26.1458 C   0  0  0  0  0  0
  -27.0310  -30.3035   24.6073 C   0  0  0  0  0  0
  -27.6051  -32.4310   25.7481 C   0  0  0  0  0  0
  -27.5583  -37.1812   24.8464 C   0  0  0  0  0  0
  -21.4131  -29.3028   22.3729 N   0  0  0  0  0  0
  -26.4302  -37.3794   23.9403 N   0  0  0  0  0  0
  -24.6666  -31.0787   22.0996 N   0  0  0  0  0  0
  -23.4172  -28.8210   23.3050 O   0  0  0  0  0  0
  -28.3869  -26.6900   20.1115 O   0  0  0  0  0  0
  -26.5594  -34.8924   22.4687 O   0  0  0  0  0  0
  -23.5341  -32.1433   23.7502 O   0  0  0  0  0  0
  -31.0242  -18.1222   18.0655 C   0  0  0  0  0  0
  -30.5214  -19.3110   18.6158 C   0  0  0  0  0  0
  -30.8263  -16.8999   18.7265 C   0  0  0  0  0  0
  -29.7872  -19.2913   19.8254 C   0  0  0  0  0  0
  -30.1464  -16.8432   19.9700 C   0  0  0  0  0  0
  -29.6161  -18.0505   20.5028 C   0  0  0  0  0  0
  -28.9420  -21.6518   19.7842 C   0  0  0  0  0  0
  -28.5725  -22.8624   20.6614 C   0  0  0  0  0  0
  -28.6032  -24.2253   19.9093 C   0  0  0  0  0  0
  -28.2968  -25.4381   20.8129 C   0  0  0  0  0  0
  -29.2705  -20.4971   20.4061 N   0  0  0  0  0  0
  -29.9477  -15.5902   20.6519 N   0  0  0  0  0  0
  -28.8930  -21.7694   18.5572 O   0  0  0  0  0  0
  -28.9401  -18.0205   21.6776 F   0  0  0  0  0  0
  -31.4616  -12.3596   19.1490 H   0  0  0  0  0  0
  -30.2871  -11.2887   19.8591 H   0  0  0  0  0  0
  -29.7387  -11.7513   17.4436 H   0  0  0  0  0  0
  -29.6750  -13.4654   17.7700 H   0  0  0  0  0  0
  -27.8242  -11.3026   18.8275 H   0  0  0  0  0  0
  -27.3709  -12.6220   17.7833 H   0  0  0  0  0  0
  -27.6869  -14.2531   19.5433 H   0  0  0  0  0  0
  -28.6659  -12.0220   21.3930 H   0  0  0  0  0  0
  -28.4782  -13.6965   21.8368 H   0  0  0  0  0  0
  -25.2762   -9.5693   22.4754 H   0  0  0  0  0  0
  -24.0008   -7.4640   22.7474 H   0  0  0  0  0  0
  -21.0845   -8.8762   19.8948 H   0  0  0  0  0  0
  -22.3696  -10.9665   19.6153 H   0  0  0  0  0  0
  -21.1998   -7.6146   23.9717 H   0  0  0  0  0  0
  -21.1484   -6.0522   25.9079 H   0  0  0  0  0  0
  -22.0599   -2.7611   23.2848 H   0  0  0  0  0  0
  -22.4113  -11.9880   22.4775 H   0  0  0  0  0  0
  -21.1112  -13.1241   22.2590 H   0  0  0  0  0  0
  -24.6643  -15.8448   20.5175 H   0  0  0  0  0  0
  -26.2817  -15.6279   20.0830 H   0  0  0  0  0  0
  -26.7112  -32.5537   23.1153 H   0  0  0  0  0  0
  -25.0075  -33.9778   25.0489 H   0  0  0  0  0  0
  -22.6907  -31.3072   21.4112 H   0  0  0  0  0  0
  -23.3749  -35.9648   23.3316 H   0  0  0  0  0  0
  -24.3580  -36.8914   22.2049 H   0  0  0  0  0  0
  -23.7247  -37.6522   23.6644 H   0  0  0  0  0  0
  -26.0418  -31.6032   20.5942 H   0  0  0  0  0  0
  -26.8173  -30.8881   21.9800 H   0  0  0  0  0  0
  -28.1038  -29.1157   21.1514 H   0  0  0  0  0  0
  -26.0650  -25.9566   19.0431 H   0  0  0  0  0  0
  -23.9764  -27.2819   19.0519 H   0  0  0  0  0  0
  -23.7137  -30.5938   19.4046 H   0  0  0  0  0  0
  -22.7340  -29.2369   19.8735 H   0  0  0  0  0  0
  -25.1295  -36.1977   25.0828 H   0  0  0  0  0  0
  -20.9938  -28.3218   24.1441 H   0  0  0  0  0  0
  -20.5677  -26.2262   23.3597 H   0  0  0  0  0  0
  -21.6635  -26.7451   22.1201 H   0  0  0  0  0  0
  -19.6912  -25.6293   21.1228 H   0  0  0  0  0  0
  -19.6687  -27.3199   20.6751 H   0  0  0  0  0  0
  -17.4194  -26.6674   21.4006 H   0  0  0  0  0  0
  -18.0313  -26.0043   22.8996 H   0  0  0  0  0  0
  -19.7929  -30.7248   24.2277 H   0  0  0  0  0  0
  -17.5012  -31.6269   24.5151 H   0  0  0  0  0  0
  -15.5344  -30.2993   23.7653 H   0  0  0  0  0  0
  -15.8649  -28.0819   22.7078 H   0  0  0  0  0  0
  -24.5926  -30.7028   25.7788 H   0  0  0  0  0  0
  -24.8936  -32.2823   26.4928 H   0  0  0  0  0  0
  -25.8108  -30.8827   27.0201 H   0  0  0  0  0  0
  -26.2844  -29.6788   24.1151 H   0  0  0  0  0  0
  -27.4119  -29.7273   25.4517 H   0  0  0  0  0  0
  -27.8663  -30.4358   23.9190 H   0  0  0  0  0  0
  -27.2666  -33.3597   26.2086 H   0  0  0  0  0  0
  -28.3851  -32.6895   25.0307 H   0  0  0  0  0  0
  -28.0730  -31.8416   26.5377 H   0  0  0  0  0  0
  -28.2609  -38.0104   24.7513 H   0  0  0  0  0  0
  -28.1076  -36.2636   24.6298 H   0  0  0  0  0  0
  -27.2293  -37.1464   25.8865 H   0  0  0  0  0  0
  -20.9293  -29.8730   21.6935 H   0  0  0  0  0  0
  -26.0191  -38.2876   24.1394 H   0  0  0  0  0  0
  -31.5676  -18.1500   17.1314 H   0  0  0  0  0  0
  -30.7176  -20.2324   18.0881 H   0  0  0  0  0  0
  -31.2167  -16.0099   18.2540 H   0  0  0  0  0  0
  -29.2610  -22.8989   21.5066 H   0  0  0  0  0  0
  -27.5782  -22.6925   21.0756 H   0  0  0  0  0  0
  -27.8865  -24.2053   19.0879 H   0  0  0  0  0  0
  -29.5844  -24.3644   19.4536 H   0  0  0  0  0  0
  -29.0232  -25.4708   21.6258 H   0  0  0  0  0  0
  -27.3244  -25.3032   21.2923 H   0  0  0  0  0  0
  -29.1193  -20.4647   21.4056 H   0  0  0  0  0  0
  -29.0606  -15.4746   21.1176 H   0  0  0  0  0  0
  1 25  1  0  0  0
  1 30  2  0  0  0
  1 82  1  0  0  0
  2  3  1  0  0  0
  2 25  1  0  0  0
  2 85  1  0  0  0
  2 86  1  0  0  0
  3  4  1  0  0  0
  3 87  1  0  0  0
  3 88  1  0  0  0
  4  5  1  0  0  0
  4 89  1  0  0  0
  4 90  1  0  0  0
  5  6  1  0  0  0
  5 26  1  0  0  0
  5 91  1  0  0  0
  6 25  1  0  0  0
  6 92  1  0  0  0
  6 93  1  0  0  0
  7  8  2  0  0  0
  7 26  1  0  0  0
  7 29  1  0  0  0
  8  9  1  0  0  0
  8 22  1  0  0  0
  9 10  1  0  0  0
  9 27  2  0  0  0
 10 11  2  0  0  0
 10 15  1  0  0  0
 11 12  1  0  0  0
 11 94  1  0  0  0
 12 13  2  0  0  0
 12 95  1  0  0  0
 13 14  1  0  0  0
 13 31  1  0  0  0
 14 15  2  0  0  0
 14 96  1  0  0  0
 15 97  1  0  0  0
 16 17  2  0  0  0
 16 21  1  0  0  0
 16 31  1  0  0  0
 17 18  1  0  0  0
 17 98  1  0  0  0
 18 19  2  0  0  0
 18 99  1  0  0  0
 19 20  1  0  0  0
 19 24  1  0  0  0
 20 21  2  0  0  0
 20100  1  0  0  0
 21 23  1  0  0  0
 22 28  1  0  0  0
 22 32  2  0  0  0
 26 27  1  0  0  0
 28101  1  0  0  0
 28102  1  0  0  0
 29103  1  0  0  0
 29104  1  0  0  0
 33 34  1  0  0  0
 33 66  1  0  0  0
 33 70  2  0  0  0
 34 36  1  0  0  0
 34 59  1  0  0  0
 34105  1  0  0  0
 35 44  2  0  0  0
 35 45  1  0  0  0
 35 68  1  0  0  0
 36 56  1  0  0  0
 36106  1  0  0  0
 37 39  1  0  0  0
 37 47  1  0  0  0
 37 66  1  0  0  0
 37107  1  0  0  0
 38 43  2  0  0  0
 38 46  1  0  0  0
 38 47  1  0  0  0
 39 64  1  0  0  0
 39 67  2  0  0  0
 40 52  1  0  0  0
 40 53  2  0  0  0
 40 58  1  0  0  0
 41108  1  0  0  0
 41109  1  0  0  0
 41110  1  0  0  0
 41 48  1  0  0  0
 42 43  1  0  0  0
 42 66  1  0  0  0
 42111  1  0  0  0
 42112  1  0  0  0
 43 44  1  0  0  0
 44113  1  0  0  0
 45 46  2  0  0  0
 45114  1  0  0  0
 46115  1  0  0  0
 47116  1  0  0  0
 47117  1  0  0  0
 48 56  1  0  0  0
 48 65  1  0  0  0
 48118  1  0  0  0
 49 50  1  0  0  0
 49 53  1  0  0  0
 49 64  1  0  0  0
 49119  1  0  0  0
 50 51  1  0  0  0
 50120  1  0  0  0
 50121  1  0  0  0
 51 52  1  0  0  0
 51122  1  0  0  0
 51123  1  0  0  0
 52124  1  0  0  0
 52125  1  0  0  0
 53 54  1  0  0  0
 54 55  2  0  0  0
 54126  1  0  0  0
 55 57  1  0  0  0
 55127  1  0  0  0
 56 69  2  0  0  0
 57 58  2  0  0  0
 57128  1  0  0  0
 58129  1  0  0  0
 59 60  1  0  0  0
 59 61  1  0  0  0
 59 62  1  0  0  0
 60130  1  0  0  0
 60131  1  0  0  0
 60132  1  0  0  0
 61133  1  0  0  0
 61134  1  0  0  0
 61135  1  0  0  0
 62136  1  0  0  0
 62137  1  0  0  0
 62138  1  0  0  0
 63 65  1  0  0  0
 63139  1  0  0  0
 63140  1  0  0  0
 63141  1  0  0  0
 64142  1  0  0  0
 65143  1  0  0  0
 68 80  1  0  0  0
 71 72  2  0  0  0
 71 73  1  0  0  0
 71144  1  0  0  0
 72 74  1  0  0  0
 72145  1  0  0  0
 73 75  2  0  0  0
 73146  1  0  0  0
 74 76  2  0  0  0
 74 81  1  0  0  0
 75 76  1  0  0  0
 75 82  1  0  0  0
 76 84  1  0  0  0
 77 78  1  0  0  0
 77 81  1  0  0  0
 77 83  2  0  0  0
 78 79  1  0  0  0
 78147  1  0  0  0
 78148  1  0  0  0
 79 80  1  0  0  0
 79149  1  0  0  0
 79150  1  0  0  0
 80151  1  0  0  0
 80152  1  0  0  0
 81153  1  0  0  0
 82154  1  0  0  0
M  ISO  4   1 100  68 101  80 101  82 100
M  END
> <chiral flag>
0

> <version>
0

> <s_m_source_file>
/data/baiqing/PycharmProjects/Reinvent-master-3.2/result/LINK_invent/BTK/process_docking_weight1_custom_product_contain_oxygen_bond_distance_aromatic_linkinvent_7_9_3/rearranged_h_0056.sdf

> <i_m_source_file_index>
29

> <r_mmod_Potential_Energy-OPLS-2005>
-101.005226135254

> <r_mmod_Stretch_Energy-OPLS-2005>
39.1512603759766

> <r_mmod_Bend_Energy-OPLS-2005>
90.4416046142578

> <r_mmod_Torsional_Energy-OPLS-2005>
264.130920410156

> <r_mmod_Improper_Torsional_Energy-OPLS-2005>
6.5025782585144

> <r_mmod_Van_der_Waal_Energy-OPLS-2005>
160.78515625

> <r_mmod_Electrostatic_Energy-OPLS-2005>
-461.2880859375

> <r_mmod_Solvation_Energy-OPLS-2005>
-219.880462646484

> <b_mmod_Minimization_Converged-OPLS-2005>
0

> <r_mmod_RMS_Derivative-OPLS-2005>
0.824169039726257

$$$$
29
                    3D
 Structure written by MMmdl.
152160  0  0  1  0            999 V2000
  -30.6996  -14.5320   20.5541 C   0  0  0  0  0  0
  -30.4208  -12.3401   19.4376 C   0  0  0  0  0  0
  -29.4958  -12.5040   18.2145 C   0  0  0  0  0  0
  -28.0195  -12.3542   18.6300 C   0  0  0  0  0  0
  -27.6567  -13.2147   19.8697 C   0  0  2  0  0  0
  -28.7009  -13.0452   20.9970 C   0  0  0  0  0  0
  -25.2570  -13.8176   20.5692 C   0  0  0  0  0  0
  -24.1828  -13.0443   20.9185 C   0  0  0  0  0  0
  -24.6393  -11.6913   20.8741 C   0  0  0  0  0  0
  -23.9062  -10.4295   21.0408 C   0  0  0  0  0  0
  -24.3615   -9.4210   21.9187 C   0  0  0  0  0  0
  -23.6290   -8.2244   22.0755 C   0  0  0  0  0  0
  -22.4273   -8.0282   21.3544 C   0  0  0  0  0  0
  -21.9908   -9.0255   20.4647 C   0  0  0  0  0  0
  -22.7234  -10.2136   20.3058 C   0  0  0  0  0  0
  -21.6854   -6.0736   22.5277 C   0  0  0  0  0  0
  -21.4013   -6.5640   23.8210 C   0  0  0  0  0  0
  -21.3659   -5.6792   24.9172 C   0  0  0  0  0  0
  -21.6046   -4.3055   24.7223 C   0  0  0  0  0  0
  -21.8817   -3.8147   23.4344 C   0  0  0  0  0  0
  -21.9191   -4.6963   22.3401 C   0  0  0  0  0  0
  -22.7849  -13.5237   21.1847 C   0  0  0  0  0  0
  -22.1662   -4.2149   21.0979 F   0  0  0  0  0  0
  -21.5630   -3.4540   25.7737 F   0  0  0  0  0  0
  -30.0241  -13.3526   20.4328 N   0  0  0  0  0  0
  -26.3005  -12.9358   20.3357 N   0  0  0  0  0  0
  -25.9325  -11.6511   20.5776 N   0  0  0  0  0  0
  -22.0489  -12.8230   22.0403 N   0  0  0  0  0  0
  -25.4287  -15.1895   20.4099 N   0  0  0  0  0  0
  -31.8364  -14.6746   20.0954 O   0  0  0  0  0  0
  -21.6639   -6.8879   21.4239 O   0  0  0  0  0  0
  -22.3539  -14.5546   20.6698 O   0  0  0  0  0  0
  -24.6197  -31.8650   23.2079 C   0  0  0  0  0  0
  -25.9071  -32.4808   23.8389 C   0  0  1  0  0  0
  -27.2240  -27.3872   20.1078 C   0  0  0  0  0  0
  -25.5912  -33.8608   24.2314 N   0  0  0  0  0  0
  -23.4102  -30.4899   21.5491 C   0  0  2  0  0  0
  -24.8574  -28.9569   20.1095 C   0  0  0  0  0  0
  -22.7443  -29.4645   22.4964 C   0  0  0  0  0  0
  -18.0278  -28.1378   22.8487 C   0  0  0  0  0  0
  -24.1487  -36.7307   23.2639 C   0  0  0  0  0  0
  -25.9452  -30.8173   21.3694 C   0  0  0  0  0  0
  -26.0222  -29.4505   20.7119 C   0  0  0  0  0  0
  -27.2123  -28.6755   20.7048 C   0  0  0  0  0  0
  -26.0461  -26.9356   19.4727 C   0  0  0  0  0  0
  -24.8675  -27.7015   19.4819 C   0  0  0  0  0  0
  -23.6212  -29.8275   20.1627 C   0  0  0  0  0  0
  -25.4109  -36.3102   24.0336 C   0  0  1  0  0  0
  -20.5874  -28.3673   23.1299 C   0  0  2  0  0  0
  -20.6769  -26.9404   22.5412 C   0  0  0  0  0  0
  -19.5748  -26.6383   21.5210 C   0  0  0  0  0  0
  -18.1925  -26.7922   22.1619 C   0  0  0  0  0  0
  -19.1530  -28.8842   23.2890 C   0  0  0  0  0  0
  -18.9457  -30.1446   23.8905 C   0  0  0  0  0  0
  -17.6460  -30.6584   24.0564 C   0  0  0  0  0  0
  -25.9041  -34.9469   23.5120 C   0  0  0  0  0  0
  -16.5350  -29.9085   23.6332 C   0  0  0  0  0  0
  -16.7267  -28.6503   23.0347 C   0  0  0  0  0  0
  -26.4483  -31.6596   25.0729 C   0  0  0  0  0  0
  -25.3736  -31.3710   26.1467 C   0  0  0  0  0  0
  -27.0317  -30.3033   24.6128 C   0  0  0  0  0  0
  -27.6051  -32.4322   25.7494 C   0  0  0  0  0  0
  -27.5579  -37.1809   24.8467 C   0  0  0  0  0  0
  -21.4164  -29.3038   22.3705 N   0  0  0  0  0  0
  -26.4293  -37.3787   23.9409 N   0  0  0  0  0  0
  -24.6769  -31.0720   22.1000 N   0  0  0  0  0  0
  -23.4197  -28.8181   23.3016 O   0  0  0  0  0  0
  -28.3344  -26.5542   20.1527 O   0  0  0  0  0  0
  -26.5607  -34.8923   22.4683 O   0  0  0  0  0  0
  -23.5378  -32.1417   23.7449 O   0  0  0  0  0  0
  -29.8043  -18.0264   20.8779 C   0  0  0  0  0  0
  -31.4904  -19.4713   21.7666 C   0  0  0  0  0  0
  -30.4896  -16.9069   21.2732 C   0  0  0  0  0  0
  -30.3059  -19.3948   21.1230 C   0  0  0  0  0  0
  -31.7390  -17.0676   22.0495 C   0  0  0  0  0  0
  -28.9090  -22.8464   20.6504 C   0  0  0  0  0  0
  -29.1501  -24.1893   20.6757 C   0  0  0  0  0  0
  -29.9851  -21.8450   20.6485 C   0  0  0  0  0  0
  -28.0619  -25.2707   20.7860 C   0  0  0  0  0  0
  -32.1784  -18.3325   22.1902 N   0  0  0  0  0  0
  -29.5512  -20.5576   20.7826 N   0  0  0  0  0  0
  -29.9954  -15.5908   21.0376 N   0  0  0  0  0  0
  -32.3580  -16.1468   22.5874 O   0  0  0  0  0  0
  -31.1791  -22.1436   20.5533 O   0  0  0  0  0  0
  -31.4656  -12.4327   19.1357 H   0  0  0  0  0  0
  -30.3227  -11.3396   19.8615 H   0  0  0  0  0  0
  -29.7454  -11.7669   17.4501 H   0  0  0  0  0  0
  -29.6542  -13.4833   17.7594 H   0  0  0  0  0  0
  -27.8437  -11.3002   18.8488 H   0  0  0  0  0  0
  -27.3649  -12.6030   17.7941 H   0  0  0  0  0  0
  -27.6862  -14.2547   19.5443 H   0  0  0  0  0  0
  -28.6909  -12.0230   21.3781 H   0  0  0  0  0  0
  -28.4597  -13.6806   21.8505 H   0  0  0  0  0  0
  -25.2760   -9.5685   22.4761 H   0  0  0  0  0  0
  -23.9998   -7.4636   22.7475 H   0  0  0  0  0  0
  -21.0839   -8.8773   19.8953 H   0  0  0  0  0  0
  -22.3693  -10.9675   19.6167 H   0  0  0  0  0  0
  -21.2006   -7.6148   23.9713 H   0  0  0  0  0  0
  -21.1485   -6.0524   25.9075 H   0  0  0  0  0  0
  -22.0596   -2.7609   23.2844 H   0  0  0  0  0  0
  -22.4102  -11.9886   22.4782 H   0  0  0  0  0  0
  -21.1109  -13.1259   22.2616 H   0  0  0  0  0  0
  -24.6604  -15.8434   20.5158 H   0  0  0  0  0  0
  -26.2776  -15.6282   20.0764 H   0  0  0  0  0  0
  -26.7139  -32.5505   23.1149 H   0  0  0  0  0  0
  -25.0075  -33.9769   25.0468 H   0  0  0  0  0  0
  -22.7009  -31.3085   21.4104 H   0  0  0  0  0  0
  -23.3747  -35.9642   23.3313 H   0  0  0  0  0  0
  -24.3583  -36.8911   22.2051 H   0  0  0  0  0  0
  -23.7242  -37.6515   23.6648 H   0  0  0  0  0  0
  -26.0657  -31.5836   20.6025 H   0  0  0  0  0  0
  -26.8298  -30.8674   21.9925 H   0  0  0  0  0  0
  -28.1069  -29.0462   21.1859 H   0  0  0  0  0  0
  -26.0263  -25.9783   18.9718 H   0  0  0  0  0  0
  -23.9767  -27.3204   19.0020 H   0  0  0  0  0  0
  -23.7327  -30.6053   19.4065 H   0  0  0  0  0  0
  -22.7435  -29.2517   19.8631 H   0  0  0  0  0  0
  -25.1287  -36.1966   25.0829 H   0  0  0  0  0  0
  -20.9967  -28.3239   24.1418 H   0  0  0  0  0  0
  -20.5669  -26.2284   23.3605 H   0  0  0  0  0  0
  -21.6639  -26.7439   22.1205 H   0  0  0  0  0  0
  -19.6918  -25.6297   21.1230 H   0  0  0  0  0  0
  -19.6689  -27.3200   20.6745 H   0  0  0  0  0  0
  -17.4198  -26.6674   21.4017 H   0  0  0  0  0  0
  -18.0323  -26.0056   22.9007 H   0  0  0  0  0  0
  -19.7933  -30.7257   24.2279 H   0  0  0  0  0  0
  -17.5016  -31.6265   24.5162 H   0  0  0  0  0  0
  -15.5351  -30.2992   23.7652 H   0  0  0  0  0  0
  -15.8663  -28.0829   22.7055 H   0  0  0  0  0  0
  -24.5923  -30.7039   25.7805 H   0  0  0  0  0  0
  -24.8911  -32.2864   26.4899 H   0  0  0  0  0  0
  -25.8081  -30.8897   27.0237 H   0  0  0  0  0  0
  -26.2871  -29.6794   24.1167 H   0  0  0  0  0  0
  -27.4064  -29.7269   25.4598 H   0  0  0  0  0  0
  -27.8717  -30.4346   23.9301 H   0  0  0  0  0  0
  -27.2667  -33.3620   26.2079 H   0  0  0  0  0  0
  -28.3857  -32.6885   25.0317 H   0  0  0  0  0  0
  -28.0722  -31.8441   26.5405 H   0  0  0  0  0  0
  -28.2600  -38.0101   24.7505 H   0  0  0  0  0  0
  -28.1068  -36.2633   24.6300 H   0  0  0  0  0  0
  -27.2301  -37.1467   25.8871 H   0  0  0  0  0  0
  -20.9334  -29.8775   21.6934 H   0  0  0  0  0  0
  -26.0181  -38.2866   24.1407 H   0  0  0  0  0  0
  -28.8767  -17.9047   20.3376 H   0  0  0  0  0  0
  -31.9829  -20.3866   22.0631 H   0  0  0  0  0  0
  -27.8829  -22.5068   20.6610 H   0  0  0  0  0  0
  -30.1683  -24.5530   20.6655 H   0  0  0  0  0  0
  -27.9208  -25.4666   21.8499 H   0  0  0  0  0  0
  -27.1327  -24.8177   20.4421 H   0  0  0  0  0  0
  -33.0355  -18.4765   22.7049 H   0  0  0  0  0  0
  -28.5515  -20.4243   20.7179 H   0  0  0  0  0  0
  -29.0210  -15.4336   21.2381 H   0  0  0  0  0  0
  1 25  1  0  0  0
  1 30  2  0  0  0
  1 82  1  0  0  0
  2  3  1  0  0  0
  2 25  1  0  0  0
  2 85  1  0  0  0
  2 86  1  0  0  0
  3  4  1  0  0  0
  3 87  1  0  0  0
  3 88  1  0  0  0
  4  5  1  0  0  0
  4 89  1  0  0  0
  4 90  1  0  0  0
  5  6  1  0  0  0
  5 26  1  0  0  0
  5 91  1  0  0  0
  6 25  1  0  0  0
  6 92  1  0  0  0
  6 93  1  0  0  0
  7  8  2  0  0  0
  7 26  1  0  0  0
  7 29  1  0  0  0
  8  9  1  0  0  0
  8 22  1  0  0  0
  9 10  1  0  0  0
  9 27  2  0  0  0
 10 11  2  0  0  0
 10 15  1  0  0  0
 11 12  1  0  0  0
 11 94  1  0  0  0
 12 13  2  0  0  0
 12 95  1  0  0  0
 13 14  1  0  0  0
 13 31  1  0  0  0
 14 15  2  0  0  0
 14 96  1  0  0  0
 15 97  1  0  0  0
 16 17  2  0  0  0
 16 21  1  0  0  0
 16 31  1  0  0  0
 17 18  1  0  0  0
 17 98  1  0  0  0
 18 19  2  0  0  0
 18 99  1  0  0  0
 19 20  1  0  0  0
 19 24  1  0  0  0
 20 21  2  0  0  0
 20100  1  0  0  0
 21 23  1  0  0  0
 22 28  1  0  0  0
 22 32  2  0  0  0
 26 27  1  0  0  0
 28101  1  0  0  0
 28102  1  0  0  0
 29103  1  0  0  0
 29104  1  0  0  0
 33 34  1  0  0  0
 33 66  1  0  0  0
 33 70  2  0  0  0
 34 36  1  0  0  0
 34 59  1  0  0  0
 34105  1  0  0  0
 35 44  2  0  0  0
 35 45  1  0  0  0
 35 68  1  0  0  0
 36 56  1  0  0  0
 36106  1  0  0  0
 37 39  1  0  0  0
 37 47  1  0  0  0
 37 66  1  0  0  0
 37107  1  0  0  0
 38 43  2  0  0  0
 38 46  1  0  0  0
 38 47  1  0  0  0
 39 64  1  0  0  0
 39 67  2  0  0  0
 40 52  1  0  0  0
 40 53  2  0  0  0
 40 58  1  0  0  0
 41108  1  0  0  0
 41109  1  0  0  0
 41110  1  0  0  0
 41 48  1  0  0  0
 42 43  1  0  0  0
 42 66  1  0  0  0
 42111  1  0  0  0
 42112  1  0  0  0
 43 44  1  0  0  0
 44113  1  0  0  0
 45 46  2  0  0  0
 45114  1  0  0  0
 46115  1  0  0  0
 47116  1  0  0  0
 47117  1  0  0  0
 48 56  1  0  0  0
 48 65  1  0  0  0
 48118  1  0  0  0
 49 50  1  0  0  0
 49 53  1  0  0  0
 49 64  1  0  0  0
 49119  1  0  0  0
 50 51  1  0  0  0
 50120  1  0  0  0
 50121  1  0  0  0
 51 52  1  0  0  0
 51122  1  0  0  0
 51123  1  0  0  0
 52124  1  0  0  0
 52125  1  0  0  0
 53 54  1  0  0  0
 54 55  2  0  0  0
 54126  1  0  0  0
 55 57  1  0  0  0
 55127  1  0  0  0
 56 69  2  0  0  0
 57 58  2  0  0  0
 57128  1  0  0  0
 58129  1  0  0  0
 59 60  1  0  0  0
 59 61  1  0  0  0
 59 62  1  0  0  0
 60130  1  0  0  0
 60131  1  0  0  0
 60132  1  0  0  0
 61133  1  0  0  0
 61134  1  0  0  0
 61135  1  0  0  0
 62136  1  0  0  0
 62137  1  0  0  0
 62138  1  0  0  0
 63 65  1  0  0  0
 63139  1  0  0  0
 63140  1  0  0  0
 63141  1  0  0  0
 64142  1  0  0  0
 65143  1  0  0  0
 68 79  1  0  0  0
 71 73  2  0  0  0
 71 74  1  0  0  0
 71144  1  0  0  0
 72 74  2  0  0  0
 72 80  1  0  0  0
 72145  1  0  0  0
 73 75  1  0  0  0
 73 82  1  0  0  0
 74 81  1  0  0  0
 75 80  1  0  0  0
 75 83  2  0  0  0
 76 77  2  0  0  0
 76 78  1  0  0  0
 76146  1  0  0  0
 77 79  1  0  0  0
 77147  1  0  0  0
 78 81  1  0  0  0
 78 84  2  0  0  0
 79148  1  0  0  0
 79149  1  0  0  0
 80150  1  0  0  0
 81151  1  0  0  0
 82152  1  0  0  0
M  ISO  4   1 100  68 101  79 101  82 100
M  END
> <chiral flag>
0

> <version>
0

> <s_m_source_file>
/data/baiqing/PycharmProjects/Reinvent-master-3.2/result/LINK_invent/BTK/process_docking_weight1_custom_product_contain_oxygen_bond_distance_aromatic_linkinvent_7_9_3/rearranged_h_0056.sdf

> <i_m_source_file_index>
30

> <r_mmod_Potential_Energy-OPLS-2005>
-187.910690307617

> <r_mmod_Stretch_Energy-OPLS-2005>
54.7489547729492

> <r_mmod_Bend_Energy-OPLS-2005>
109.690376281738

> <r_mmod_Torsional_Energy-OPLS-2005>
243.396118164062

> <r_mmod_Improper_Torsional_Energy-OPLS-2005>
4.66492509841919

> <r_mmod_Van_der_Waal_Energy-OPLS-2005>
173.405212402344

> <r_mmod_Electrostatic_Energy-OPLS-2005>
-529.233337402344

> <r_mmod_Solvation_Energy-OPLS-2005>
-269.439208984375

> <b_mmod_Minimization_Converged-OPLS-2005>
0

> <r_mmod_RMS_Derivative-OPLS-2005>
0.507503271102905

$$$$
30
                    3D
 Structure written by MMmdl.
172181  0  0  1  0            999 V2000
  -30.7427  -14.4220   20.5797 C   0  0  0  0  0  0
  -30.4081  -12.2765   19.4237 C   0  0  0  0  0  0
  -29.4908  -12.5006   18.2055 C   0  0  0  0  0  0
  -28.0105  -12.3686   18.6148 C   0  0  0  0  0  0
  -27.6578  -13.2085   19.8717 C   0  0  2  0  0  0
  -28.6984  -12.9996   20.9938 C   0  0  0  0  0  0
  -25.2578  -13.8178   20.5691 C   0  0  0  0  0  0
  -24.1828  -13.0455   20.9169 C   0  0  0  0  0  0
  -24.6382  -11.6918   20.8741 C   0  0  0  0  0  0
  -23.9057  -10.4298   21.0405 C   0  0  0  0  0  0
  -24.3618   -9.4207   21.9174 C   0  0  0  0  0  0
  -23.6285   -8.2249   22.0748 C   0  0  0  0  0  0
  -22.4267   -8.0288   21.3540 C   0  0  0  0  0  0
  -21.9901   -9.0262   20.4642 C   0  0  0  0  0  0
  -22.7237  -10.2135   20.3043 C   0  0  0  0  0  0
  -21.6844   -6.0744   22.5277 C   0  0  0  0  0  0
  -21.4021   -6.5652   23.8212 C   0  0  0  0  0  0
  -21.3657   -5.6799   24.9172 C   0  0  0  0  0  0
  -21.6040   -4.3058   24.7222 C   0  0  0  0  0  0
  -21.8821   -3.8153   23.4342 C   0  0  0  0  0  0
  -21.9188   -4.6971   22.3398 C   0  0  0  0  0  0
  -22.7853  -13.5251   21.1835 C   0  0  0  0  0  0
  -22.1659   -4.2156   21.0973 F   0  0  0  0  0  0
  -21.5611   -3.4544   25.7737 F   0  0  0  0  0  0
  -30.0355  -13.2677   20.4417 N   0  0  0  0  0  0
  -26.3004  -12.9346   20.3364 N   0  0  0  0  0  0
  -25.9301  -11.6505   20.5761 N   0  0  0  0  0  0
  -22.0505  -12.8247   22.0401 N   0  0  0  0  0  0
  -25.4308  -15.1893   20.4142 N   0  0  0  0  0  0
  -31.8794  -14.5458   20.1199 O   0  0  0  0  0  0
  -21.6627   -6.8890   21.4244 O   0  0  0  0  0  0
  -22.3536  -14.5554   20.6681 O   0  0  0  0  0  0
  -24.6097  -31.8703   23.2123 C   0  0  0  0  0  0
  -25.9009  -32.4836   23.8409 C   0  0  1  0  0  0
  -27.2390  -27.4749   20.0982 C   0  0  0  0  0  0
  -25.5882  -33.8633   24.2343 N   0  0  0  0  0  0
  -23.3969  -30.4922   21.5505 C   0  0  2  0  0  0
  -24.8474  -28.9632   20.1113 C   0  0  0  0  0  0
  -22.7387  -29.4664   22.4998 C   0  0  0  0  0  0
  -18.0267  -28.1374   22.8495 C   0  0  0  0  0  0
  -24.1484  -36.7323   23.2634 C   0  0  0  0  0  0
  -25.9198  -30.8494   21.3591 C   0  0  0  0  0  0
  -26.0006  -29.4857   20.7104 C   0  0  0  0  0  0
  -27.2003  -28.7467   20.7075 C   0  0  0  0  0  0
  -26.0804  -26.9602   19.4852 C   0  0  0  0  0  0
  -24.8800  -27.6979   19.4957 C   0  0  0  0  0  0
  -23.6044  -29.8221   20.1643 C   0  0  0  0  0  0
  -25.4099  -36.3121   24.0343 C   0  0  1  0  0  0
  -20.5856  -28.3654   23.1331 C   0  0  2  0  0  0
  -20.6757  -26.9393   22.5426 C   0  0  0  0  0  0
  -19.5740  -26.6384   21.5216 C   0  0  0  0  0  0
  -18.1916  -26.7923   22.1623 C   0  0  0  0  0  0
  -19.1516  -28.8830   23.2912 C   0  0  0  0  0  0
  -18.9444  -30.1438   23.8920 C   0  0  0  0  0  0
  -17.6448  -30.6584   24.0566 C   0  0  0  0  0  0
  -25.9027  -34.9485   23.5142 C   0  0  0  0  0  0
  -16.5340  -29.9088   23.6324 C   0  0  0  0  0  0
  -16.7257  -28.6502   23.0346 C   0  0  0  0  0  0
  -26.4462  -31.6599   25.0716 C   0  0  0  0  0  0
  -25.3748  -31.3693   26.1481 C   0  0  0  0  0  0
  -27.0281  -30.3047   24.6051 C   0  0  0  0  0  0
  -27.6052  -32.4309   25.7465 C   0  0  0  0  0  0
  -27.5594  -37.1793   24.8448 C   0  0  0  0  0  0
  -21.4120  -29.3026   22.3741 N   0  0  0  0  0  0
  -26.4281  -37.3811   23.9431 N   0  0  0  0  0  0
  -24.6600  -31.0841   22.0999 N   0  0  0  0  0  0
  -23.4179  -28.8212   23.3027 O   0  0  0  0  0  0
  -28.3742  -26.7087   20.1244 O   0  0  0  0  0  0
  -26.5590  -34.8932   22.4703 O   0  0  0  0  0  0
  -23.5301  -32.1434   23.7546 O   0  0  0  0  0  0
  -30.2728  -19.1004   23.6568 C   0  0  0  0  0  0
  -30.1697  -18.2774   22.5257 C   0  0  0  0  0  0
  -29.4020  -20.1878   23.8024 C   0  0  0  0  0  0
  -29.1541  -18.4749   21.5592 C   0  0  0  0  0  0
  -28.3676  -20.4083   22.8716 C   0  0  0  0  0  0
  -28.1631  -19.4783   21.8102 C   0  0  0  0  0  0
  -29.0585  -23.6500   23.4094 C   0  0  0  0  0  0
  -29.0217  -18.3608   19.1006 C   0  0  0  0  0  0
  -29.7141  -16.3197   20.1212 C   0  0  0  0  0  0
  -29.2646  -17.7289   20.2695 C   0  0  0  0  0  0
  -30.0803  -24.6522   22.8469 C   0  0  0  0  0  0
  -29.4469  -23.9559   20.5350 C   0  0  0  0  0  0
  -28.2878  -23.1165   21.0977 C   0  0  0  0  0  0
  -29.7642  -25.1627   21.4282 C   0  0  1  0  0  0
  -25.6345  -19.1214   21.8633 C   0  0  0  0  0  0
  -26.8507  -19.5218   21.0120 C   0  0  0  0  0  0
  -27.5715  -21.7095   23.0069 C   0  0  0  0  0  0
  -28.6523  -26.2287   21.4382 C   0  0  0  0  0  0
  -30.0432  -15.5152   21.0598 N   0  0  0  0  0  0
  -28.3599  -22.8682   22.5491 N   0  0  0  0  0  0
  -28.9632  -23.5476   24.6359 O   0  0  0  0  0  0
  -31.4566  -12.3402   19.1271 H   0  0  0  0  0  0
  -30.2746  -11.2694   19.8203 H   0  0  0  0  0  0
  -29.7266  -11.7788   17.4225 H   0  0  0  0  0  0
  -29.6715  -13.4886   17.7775 H   0  0  0  0  0  0
  -27.8170  -11.3133   18.8105 H   0  0  0  0  0  0
  -27.3616  -12.6458   17.7835 H   0  0  0  0  0  0
  -27.6949  -14.2549   19.5715 H   0  0  0  0  0  0
  -28.6580  -11.9750   21.3668 H   0  0  0  0  0  0
  -28.4728  -13.6360   21.8507 H   0  0  0  0  0  0
  -25.2772   -9.5670   22.4735 H   0  0  0  0  0  0
  -23.9972   -7.4649   22.7485 H   0  0  0  0  0  0
  -21.0812   -8.8790   19.8977 H   0  0  0  0  0  0
  -22.3698  -10.9663   19.6134 H   0  0  0  0  0  0
  -21.2039   -7.6161   23.9722 H   0  0  0  0  0  0
  -21.1462   -6.0530   25.9069 H   0  0  0  0  0  0
  -22.0605   -2.7614   23.2839 H   0  0  0  0  0  0
  -22.4115  -11.9899   22.4770 H   0  0  0  0  0  0
  -21.1128  -13.1276   22.2616 H   0  0  0  0  0  0
  -24.6769  -15.8517   20.5550 H   0  0  0  0  0  0
  -26.3065  -15.6293   20.1637 H   0  0  0  0  0  0
  -26.7083  -32.5572   23.1184 H   0  0  0  0  0  0
  -25.0038  -33.9801   25.0491 H   0  0  0  0  0  0
  -22.6834  -31.3074   21.4117 H   0  0  0  0  0  0
  -23.3751  -35.9648   23.3274 H   0  0  0  0  0  0
  -24.3594  -36.8956   22.2053 H   0  0  0  0  0  0
  -23.7218  -37.6517   23.6656 H   0  0  0  0  0  0
  -26.0226  -31.6151   20.5890 H   0  0  0  0  0  0
  -26.8108  -30.9084   21.9720 H   0  0  0  0  0  0
  -28.0895  -29.1461   21.1754 H   0  0  0  0  0  0
  -26.1053  -25.9842   19.0208 H   0  0  0  0  0  0
  -23.9932  -27.2902   19.0303 H   0  0  0  0  0  0
  -23.7046  -30.5962   19.4025 H   0  0  0  0  0  0
  -22.7315  -29.2352   19.8725 H   0  0  0  0  0  0
  -25.1266  -36.1984   25.0833 H   0  0  0  0  0  0
  -20.9947  -28.3215   24.1452 H   0  0  0  0  0  0
  -20.5658  -26.2258   23.3607 H   0  0  0  0  0  0
  -21.6628  -26.7440   22.1217 H   0  0  0  0  0  0
  -19.6901  -25.6300   21.1231 H   0  0  0  0  0  0
  -19.6685  -27.3207   20.6758 H   0  0  0  0  0  0
  -17.4189  -26.6676   21.4020 H   0  0  0  0  0  0
  -18.0314  -26.0056   22.9011 H   0  0  0  0  0  0
  -19.7924  -30.7246   24.2300 H   0  0  0  0  0  0
  -17.5007  -31.6266   24.5160 H   0  0  0  0  0  0
  -15.5343  -30.2998   23.7637 H   0  0  0  0  0  0
  -15.8652  -28.0831   22.7049 H   0  0  0  0  0  0
  -24.5906  -30.7055   25.7824 H   0  0  0  0  0  0
  -24.8959  -32.2845   26.4969 H   0  0  0  0  0  0
  -25.8119  -30.8833   27.0212 H   0  0  0  0  0  0
  -26.2804  -29.6814   24.1127 H   0  0  0  0  0  0
  -27.4091  -29.7271   25.4485 H   0  0  0  0  0  0
  -27.8624  -30.4378   23.9159 H   0  0  0  0  0  0
  -27.2677  -33.3582   26.2102 H   0  0  0  0  0  0
  -28.3823  -32.6910   25.0267 H   0  0  0  0  0  0
  -28.0762  -31.8397   26.5326 H   0  0  0  0  0  0
  -28.2559  -38.0146   24.7590 H   0  0  0  0  0  0
  -28.1145  -36.2687   24.6142 H   0  0  0  0  0  0
  -27.2335  -37.1280   25.8851 H   0  0  0  0  0  0
  -20.9272  -29.8746   21.6969 H   0  0  0  0  0  0
  -26.0172  -38.2877   24.1493 H   0  0  0  0  0  0
  -31.0668  -18.9390   24.3727 H   0  0  0  0  0  0
  -30.9337  -17.5265   22.3853 H   0  0  0  0  0  0
  -29.5418  -20.8689   24.6314 H   0  0  0  0  0  0
  -28.7427  -19.4044   19.0748 H   0  0  0  0  0  0
  -29.1048  -17.8676   18.1420 H   0  0  0  0  0  0
  -29.7711  -16.0123   19.0691 H   0  0  0  0  0  0
  -31.0470  -24.1478   22.8398 H   0  0  0  0  0  0
  -30.1830  -25.4907   23.5366 H   0  0  0  0  0  0
  -29.2229  -24.2743   19.5159 H   0  0  0  0  0  0
  -30.3348  -23.3261   20.4599 H   0  0  0  0  0  0
  -28.2619  -22.1708   20.5585 H   0  0  0  0  0  0
  -27.3406  -23.6154   20.8877 H   0  0  0  0  0  0
  -30.6633  -25.6408   21.0373 H   0  0  0  0  0  0
  -24.7214  -19.1534   21.2676 H   0  0  0  0  0  0
  -25.4872  -19.7762   22.7205 H   0  0  0  0  0  0
  -25.7432  -18.1046   22.2429 H   0  0  0  0  0  0
  -26.8442  -18.8235   20.1812 H   0  0  0  0  0  0
  -26.7057  -20.5025   20.5622 H   0  0  0  0  0  0
  -27.2607  -21.8231   24.0473 H   0  0  0  0  0  0
  -26.6376  -21.6903   22.4507 H   0  0  0  0  0  0
  -28.9623  -27.0626   22.0700 H   0  0  0  0  0  0
  -27.7445  -25.8202   21.8869 H   0  0  0  0  0  0
  1 25  1  0  0  0
  1 30  2  0  0  0
  1 89  1  0  0  0
  2  3  1  0  0  0
  2 25  1  0  0  0
  2 92  1  0  0  0
  2 93  1  0  0  0
  3  4  1  0  0  0
  3 94  1  0  0  0
  3 95  1  0  0  0
  4  5  1  0  0  0
  4 96  1  0  0  0
  4 97  1  0  0  0
  5  6  1  0  0  0
  5 26  1  0  0  0
  5 98  1  0  0  0
  6 25  1  0  0  0
  6 99  1  0  0  0
  6100  1  0  0  0
  7  8  2  0  0  0
  7 26  1  0  0  0
  7 29  1  0  0  0
  8  9  1  0  0  0
  8 22  1  0  0  0
  9 10  1  0  0  0
  9 27  2  0  0  0
 10 11  2  0  0  0
 10 15  1  0  0  0
 11 12  1  0  0  0
 11101  1  0  0  0
 12 13  2  0  0  0
 12102  1  0  0  0
 13 14  1  0  0  0
 13 31  1  0  0  0
 14 15  2  0  0  0
 14103  1  0  0  0
 15104  1  0  0  0
 16 17  2  0  0  0
 16 21  1  0  0  0
 16 31  1  0  0  0
 17 18  1  0  0  0
 17105  1  0  0  0
 18 19  2  0  0  0
 18106  1  0  0  0
 19 20  1  0  0  0
 19 24  1  0  0  0
 20 21  2  0  0  0
 20107  1  0  0  0
 21 23  1  0  0  0
 22 28  1  0  0  0
 22 32  2  0  0  0
 26 27  1  0  0  0
 28108  1  0  0  0
 28109  1  0  0  0
 29110  1  0  0  0
 29111  1  0  0  0
 33 34  1  0  0  0
 33 66  1  0  0  0
 33 70  2  0  0  0
 34 36  1  0  0  0
 34 59  1  0  0  0
 34112  1  0  0  0
 35 44  2  0  0  0
 35 45  1  0  0  0
 35 68  1  0  0  0
 36 56  1  0  0  0
 36113  1  0  0  0
 37 39  1  0  0  0
 37 47  1  0  0  0
 37 66  1  0  0  0
 37114  1  0  0  0
 38 43  2  0  0  0
 38 46  1  0  0  0
 38 47  1  0  0  0
 39 64  1  0  0  0
 39 67  2  0  0  0
 40 52  1  0  0  0
 40 53  2  0  0  0
 40 58  1  0  0  0
 41115  1  0  0  0
 41116  1  0  0  0
 41117  1  0  0  0
 41 48  1  0  0  0
 42 43  1  0  0  0
 42 66  1  0  0  0
 42118  1  0  0  0
 42119  1  0  0  0
 43 44  1  0  0  0
 44120  1  0  0  0
 45 46  2  0  0  0
 45121  1  0  0  0
 46122  1  0  0  0
 47123  1  0  0  0
 47124  1  0  0  0
 48 56  1  0  0  0
 48 65  1  0  0  0
 48125  1  0  0  0
 49 50  1  0  0  0
 49 53  1  0  0  0
 49 64  1  0  0  0
 49126  1  0  0  0
 50 51  1  0  0  0
 50127  1  0  0  0
 50128  1  0  0  0
 51 52  1  0  0  0
 51129  1  0  0  0
 51130  1  0  0  0
 52131  1  0  0  0
 52132  1  0  0  0
 53 54  1  0  0  0
 54 55  2  0  0  0
 54133  1  0  0  0
 55 57  1  0  0  0
 55134  1  0  0  0
 56 69  2  0  0  0
 57 58  2  0  0  0
 57135  1  0  0  0
 58136  1  0  0  0
 59 60  1  0  0  0
 59 61  1  0  0  0
 59 62  1  0  0  0
 60137  1  0  0  0
 60138  1  0  0  0
 60139  1  0  0  0
 61140  1  0  0  0
 61141  1  0  0  0
 61142  1  0  0  0
 62143  1  0  0  0
 62144  1  0  0  0
 62145  1  0  0  0
 63 65  1  0  0  0
 63146  1  0  0  0
 63147  1  0  0  0
 63148  1  0  0  0
 64149  1  0  0  0
 65150  1  0  0  0
 68 88  1  0  0  0
 71 72  2  0  0  0
 71 73  1  0  0  0
 71151  1  0  0  0
 72 74  1  0  0  0
 72152  1  0  0  0
 73 75  2  0  0  0
 73153  1  0  0  0
 74 76  2  0  0  0
 74 80  1  0  0  0
 75 76  1  0  0  0
 75 87  1  0  0  0
 76 86  1  0  0  0
 77 81  1  0  0  0
 77 90  1  0  0  0
 77 91  2  0  0  0
 78 80  2  0  0  0
 78154  1  0  0  0
 78155  1  0  0  0
 79 80  1  0  0  0
 79 89  2  0  0  0
 79156  1  0  0  0
 81 84  1  0  0  0
 81157  1  0  0  0
 81158  1  0  0  0
 82 83  1  0  0  0
 82 84  1  0  0  0
 82159  1  0  0  0
 82160  1  0  0  0
 83 90  1  0  0  0
 83161  1  0  0  0
 83162  1  0  0  0
 84 88  1  0  0  0
 84163  1  0  0  0
 85 86  1  0  0  0
 85164  1  0  0  0
 85165  1  0  0  0
 85166  1  0  0  0
 86167  1  0  0  0
 86168  1  0  0  0
 87 90  1  0  0  0
 87169  1  0  0  0
 87170  1  0  0  0
 88171  1  0  0  0
 88172  1  0  0  0
M  ISO  4   1 100  68 101  88 101  89 100
M  END
> <chiral flag>
0

> <version>
0

> <s_m_source_file>
/data/baiqing/PycharmProjects/Reinvent-master-3.2/result/LINK_invent/BTK/process_docking_weight1_custom_product_contain_oxygen_bond_distance_aromatic_linkinvent_7_9_3/rearranged_h_0056.sdf

> <i_m_source_file_index>
31

> <r_mmod_Potential_Energy-OPLS-2005>
40.6735725402832

> <r_mmod_Stretch_Energy-OPLS-2005>
41.3991203308105

> <r_mmod_Bend_Energy-OPLS-2005>
102.648750305176

> <r_mmod_Torsional_Energy-OPLS-2005>
264.953582763672

> <r_mmod_Improper_Torsional_Energy-OPLS-2005>
6.57858610153198

> <r_mmod_Van_der_Waal_Energy-OPLS-2005>
180.755462646484

> <r_mmod_Electrostatic_Energy-OPLS-2005>
-371.529113769531

> <r_mmod_Solvation_Energy-OPLS-2005>
-196.234191894531

> <b_mmod_Minimization_Converged-OPLS-2005>
0

> <r_mmod_RMS_Derivative-OPLS-2005>
1.19845604896545

$$$$
31
                    3D
 Structure written by MMmdl.
164172  0  0  1  0            999 V2000
  -30.6871  -14.4974   20.4926 C   0  0  0  0  0  0
  -30.4188  -12.2999   19.4340 C   0  0  0  0  0  0
  -29.4939  -12.4813   18.2114 C   0  0  0  0  0  0
  -28.0140  -12.3547   18.6235 C   0  0  0  0  0  0
  -27.6580  -13.2107   19.8686 C   0  0  2  0  0  0
  -28.7011  -13.0252   20.9950 C   0  0  0  0  0  0
  -25.2580  -13.8181   20.5698 C   0  0  0  0  0  0
  -24.1836  -13.0453   20.9196 C   0  0  0  0  0  0
  -24.6391  -11.6919   20.8754 C   0  0  0  0  0  0
  -23.9058  -10.4300   21.0425 C   0  0  0  0  0  0
  -24.3613   -9.4207   21.9193 C   0  0  0  0  0  0
  -23.6286   -8.2243   22.0760 C   0  0  0  0  0  0
  -22.4262   -8.0288   21.3555 C   0  0  0  0  0  0
  -21.9896   -9.0263   20.4657 C   0  0  0  0  0  0
  -22.7230  -10.2142   20.3070 C   0  0  0  0  0  0
  -21.6849   -6.0738   22.5282 C   0  0  0  0  0  0
  -21.4016   -6.5643   23.8217 C   0  0  0  0  0  0
  -21.3658   -5.6794   24.9180 C   0  0  0  0  0  0
  -21.6039   -4.3057   24.7227 C   0  0  0  0  0  0
  -21.8814   -3.8150   23.4349 C   0  0  0  0  0  0
  -21.9192   -4.6968   22.3405 C   0  0  0  0  0  0
  -22.7853  -13.5252   21.1846 C   0  0  0  0  0  0
  -22.1659   -4.2158   21.0982 F   0  0  0  0  0  0
  -21.5622   -3.4539   25.7739 F   0  0  0  0  0  0
  -30.0308  -13.3079   20.4339 N   0  0  0  0  0  0
  -26.3010  -12.9352   20.3354 N   0  0  0  0  0  0
  -25.9317  -11.6512   20.5776 N   0  0  0  0  0  0
  -22.0486  -12.8266   22.0413 N   0  0  0  0  0  0
  -25.4308  -15.1897   20.4112 N   0  0  0  0  0  0
  -31.8603  -14.6248   20.1317 O   0  0  0  0  0  0
  -21.6638   -6.8879   21.4239 O   0  0  0  0  0  0
  -22.3544  -14.5552   20.6680 O   0  0  0  0  0  0
  -24.6145  -31.8677   23.2097 C   0  0  0  0  0  0
  -25.9034  -32.4825   23.8398 C   0  0  1  0  0  0
  -27.2298  -27.4265   20.1133 C   0  0  0  0  0  0
  -25.5885  -33.8621   24.2332 N   0  0  0  0  0  0
  -23.4036  -30.4904   21.5498 C   0  0  2  0  0  0
  -24.8526  -28.9568   20.1142 C   0  0  0  0  0  0
  -22.7414  -29.4651   22.4984 C   0  0  0  0  0  0
  -18.0274  -28.1373   22.8497 C   0  0  0  0  0  0
  -24.1483  -36.7309   23.2640 C   0  0  0  0  0  0
  -25.9335  -30.8343   21.3637 C   0  0  0  0  0  0
  -26.0135  -29.4687   20.7095 C   0  0  0  0  0  0
  -27.2098  -28.7127   20.7012 C   0  0  0  0  0  0
  -26.0577  -26.9344   19.5026 C   0  0  0  0  0  0
  -24.8705  -27.6902   19.5041 C   0  0  0  0  0  0
  -23.6128  -29.8219   20.1646 C   0  0  0  0  0  0
  -25.4105  -36.3113   24.0340 C   0  0  1  0  0  0
  -20.5865  -28.3659   23.1319 C   0  0  2  0  0  0
  -20.6759  -26.9391   22.5425 C   0  0  0  0  0  0
  -19.5742  -26.6379   21.5217 C   0  0  0  0  0  0
  -18.1919  -26.7922   22.1623 C   0  0  0  0  0  0
  -19.1524  -28.8833   23.2906 C   0  0  0  0  0  0
  -18.9451  -30.1439   23.8916 C   0  0  0  0  0  0
  -17.6454  -30.6579   24.0566 C   0  0  0  0  0  0
  -25.9031  -34.9476   23.5137 C   0  0  0  0  0  0
  -16.5345  -29.9082   23.6326 C   0  0  0  0  0  0
  -16.7264  -28.6495   23.0356 C   0  0  0  0  0  0
  -26.4466  -31.6603   25.0722 C   0  0  0  0  0  0
  -25.3734  -31.3712   26.1473 C   0  0  0  0  0  0
  -27.0297  -30.3044   24.6100 C   0  0  0  0  0  0
  -27.6048  -32.4321   25.7475 C   0  0  0  0  0  0
  -27.5584  -37.1808   24.8466 C   0  0  0  0  0  0
  -21.4140  -29.3024   22.3722 N   0  0  0  0  0  0
  -26.4297  -37.3793   23.9408 N   0  0  0  0  0  0
  -24.6686  -31.0780   22.0995 N   0  0  0  0  0  0
  -23.4185  -28.8195   23.3028 O   0  0  0  0  0  0
  -28.3638  -26.6436   20.1370 O   0  0  0  0  0  0
  -26.5597  -34.8926   22.4701 O   0  0  0  0  0  0
  -23.5335  -32.1423   23.7491 O   0  0  0  0  0  0
  -30.5577  -18.2715   18.2121 C   0  0  0  0  0  0
  -30.5910  -17.0312   18.8684 C   0  0  0  0  0  0
  -29.3715  -17.9965   20.7315 C   0  0  0  0  0  0
  -29.3457  -19.2714   20.0932 C   0  0  0  0  0  0
  -29.9266  -19.3889   18.7937 C   0  0  0  0  0  0
  -29.9899  -16.8653   20.1381 C   0  0  0  0  0  0
  -31.8884  -25.2436   18.5414 C   0  0  0  0  0  0
  -31.1027  -25.4537   19.6080 C   0  0  0  0  0  0
  -28.6260  -20.4210   20.7771 C   0  0  0  0  0  0
  -29.8711  -20.6603   17.9530 C   0  0  0  0  0  0
  -30.5418  -24.3539   20.4883 C   0  0  0  0  0  0
  -28.5372  -22.9053   21.1383 C   0  0  0  0  0  0
  -28.2425  -25.4468   20.9385 C   0  0  0  0  0  0
  -29.0044  -24.1976   20.3944 C   0  0  1  0  0  0
  -29.9243  -15.5778   20.7777 N   0  0  0  0  0  0
  -29.1293  -21.6595   20.6222 N   0  0  0  0  0  0
  -27.6357  -20.2013   21.4775 O   0  0  0  0  0  0
  -31.4643  -12.3876   19.1316 H   0  0  0  0  0  0
  -30.3133  -11.2978   19.8512 H   0  0  0  0  0  0
  -29.7290  -11.7377   17.4485 H   0  0  0  0  0  0
  -29.6688  -13.4553   17.7516 H   0  0  0  0  0  0
  -27.8200  -11.3019   18.8322 H   0  0  0  0  0  0
  -27.3659  -12.6207   17.7876 H   0  0  0  0  0  0
  -27.6912  -14.2526   19.5497 H   0  0  0  0  0  0
  -28.6727  -12.0038   21.3763 H   0  0  0  0  0  0
  -28.4761  -13.6669   21.8481 H   0  0  0  0  0  0
  -25.2761   -9.5681   22.4767 H   0  0  0  0  0  0
  -24.0002   -7.4629   22.7465 H   0  0  0  0  0  0
  -21.0830   -8.8787   19.8961 H   0  0  0  0  0  0
  -22.3695  -10.9686   19.6184 H   0  0  0  0  0  0
  -21.2014   -7.6153   23.9723 H   0  0  0  0  0  0
  -21.1480   -6.0530   25.9085 H   0  0  0  0  0  0
  -22.0593   -2.7612   23.2848 H   0  0  0  0  0  0
  -22.4085  -11.9954   22.4855 H   0  0  0  0  0  0
  -21.1099  -13.1303   22.2592 H   0  0  0  0  0  0
  -24.6656  -15.8453   20.5264 H   0  0  0  0  0  0
  -26.2822  -15.6279   20.0827 H   0  0  0  0  0  0
  -26.7107  -32.5544   23.1168 H   0  0  0  0  0  0
  -25.0034  -33.9785   25.0476 H   0  0  0  0  0  0
  -22.6919  -31.3066   21.4101 H   0  0  0  0  0  0
  -23.3745  -35.9641   23.3319 H   0  0  0  0  0  0
  -24.3576  -36.8905   22.2051 H   0  0  0  0  0  0
  -23.7237  -37.6517   23.6646 H   0  0  0  0  0  0
  -26.0492  -31.6028   20.5979 H   0  0  0  0  0  0
  -26.8197  -30.8860   21.9846 H   0  0  0  0  0  0
  -28.1067  -29.0993   21.1650 H   0  0  0  0  0  0
  -26.0608  -25.9579   19.0386 H   0  0  0  0  0  0
  -23.9789  -27.2902   19.0412 H   0  0  0  0  0  0
  -23.7185  -30.5963   19.4038 H   0  0  0  0  0  0
  -22.7377  -29.2393   19.8708 H   0  0  0  0  0  0
  -25.1284  -36.1982   25.0834 H   0  0  0  0  0  0
  -20.9968  -28.3230   24.1436 H   0  0  0  0  0  0
  -20.5650  -26.2269   23.3614 H   0  0  0  0  0  0
  -21.6634  -26.7422   22.1229 H   0  0  0  0  0  0
  -19.6901  -25.6294   21.1236 H   0  0  0  0  0  0
  -19.6683  -27.3196   20.6754 H   0  0  0  0  0  0
  -17.4191  -26.6682   21.4020 H   0  0  0  0  0  0
  -18.0308  -26.0057   22.9010 H   0  0  0  0  0  0
  -19.7926  -30.7252   24.2294 H   0  0  0  0  0  0
  -17.5007  -31.6262   24.5162 H   0  0  0  0  0  0
  -15.5346  -30.2990   23.7639 H   0  0  0  0  0  0
  -15.8663  -28.0815   22.7075 H   0  0  0  0  0  0
  -24.5899  -30.7069   25.7812 H   0  0  0  0  0  0
  -24.8932  -32.2868   26.4932 H   0  0  0  0  0  0
  -25.8080  -30.8870   27.0226 H   0  0  0  0  0  0
  -26.2842  -29.6805   24.1154 H   0  0  0  0  0  0
  -27.4068  -29.7279   25.4558 H   0  0  0  0  0  0
  -27.8677  -30.4360   23.9251 H   0  0  0  0  0  0
  -27.2671  -33.3605   26.2091 H   0  0  0  0  0  0
  -28.3828  -32.6908   25.0281 H   0  0  0  0  0  0
  -28.0752  -31.8426   26.5354 H   0  0  0  0  0  0
  -28.2617  -38.0091   24.7506 H   0  0  0  0  0  0
  -28.1066  -36.2626   24.6300 H   0  0  0  0  0  0
  -27.2305  -37.1470   25.8870 H   0  0  0  0  0  0
  -20.9298  -29.8740   21.6940 H   0  0  0  0  0  0
  -26.0191  -38.2874   24.1403 H   0  0  0  0  0  0
  -31.0047  -18.3471   17.2296 H   0  0  0  0  0  0
  -31.0583  -16.2052   18.3523 H   0  0  0  0  0  0
  -28.8930  -17.8874   21.6955 H   0  0  0  0  0  0
  -32.2575  -26.0715   17.9526 H   0  0  0  0  0  0
  -32.1759  -24.2472   18.2366 H   0  0  0  0  0  0
  -30.8436  -26.4690   19.8761 H   0  0  0  0  0  0
  -30.1104  -20.4537   16.9094 H   0  0  0  0  0  0
  -30.5920  -21.3969   18.3081 H   0  0  0  0  0  0
  -28.8741  -21.1029   17.9637 H   0  0  0  0  0  0
  -30.8356  -24.5505   21.5203 H   0  0  0  0  0  0
  -31.0356  -23.4231   20.2099 H   0  0  0  0  0  0
  -27.4496  -22.8300   21.0771 H   0  0  0  0  0  0
  -28.7760  -22.9819   22.1999 H   0  0  0  0  0  0
  -28.5995  -25.6786   21.9427 H   0  0  0  0  0  0
  -27.1946  -25.1740   21.0708 H   0  0  0  0  0  0
  -28.7319  -24.0752   19.3450 H   0  0  0  0  0  0
  -29.0720  -15.3826   21.2807 H   0  0  0  0  0  0
  -29.9737  -21.7361   20.0734 H   0  0  0  0  0  0
  1 25  1  0  0  0
  1 30  2  0  0  0
  1 85  1  0  0  0
  2  3  1  0  0  0
  2 25  1  0  0  0
  2 88  1  0  0  0
  2 89  1  0  0  0
  3  4  1  0  0  0
  3 90  1  0  0  0
  3 91  1  0  0  0
  4  5  1  0  0  0
  4 92  1  0  0  0
  4 93  1  0  0  0
  5  6  1  0  0  0
  5 26  1  0  0  0
  5 94  1  0  0  0
  6 25  1  0  0  0
  6 95  1  0  0  0
  6 96  1  0  0  0
  7  8  2  0  0  0
  7 26  1  0  0  0
  7 29  1  0  0  0
  8  9  1  0  0  0
  8 22  1  0  0  0
  9 10  1  0  0  0
  9 27  2  0  0  0
 10 11  2  0  0  0
 10 15  1  0  0  0
 11 12  1  0  0  0
 11 97  1  0  0  0
 12 13  2  0  0  0
 12 98  1  0  0  0
 13 14  1  0  0  0
 13 31  1  0  0  0
 14 15  2  0  0  0
 14 99  1  0  0  0
 15100  1  0  0  0
 16 17  2  0  0  0
 16 21  1  0  0  0
 16 31  1  0  0  0
 17 18  1  0  0  0
 17101  1  0  0  0
 18 19  2  0  0  0
 18102  1  0  0  0
 19 20  1  0  0  0
 19 24  1  0  0  0
 20 21  2  0  0  0
 20103  1  0  0  0
 21 23  1  0  0  0
 22 28  1  0  0  0
 22 32  2  0  0  0
 26 27  1  0  0  0
 28104  1  0  0  0
 28105  1  0  0  0
 29106  1  0  0  0
 29107  1  0  0  0
 33 34  1  0  0  0
 33 66  1  0  0  0
 33 70  2  0  0  0
 34 36  1  0  0  0
 34 59  1  0  0  0
 34108  1  0  0  0
 35 44  2  0  0  0
 35 45  1  0  0  0
 35 68  1  0  0  0
 36 56  1  0  0  0
 36109  1  0  0  0
 37 39  1  0  0  0
 37 47  1  0  0  0
 37 66  1  0  0  0
 37110  1  0  0  0
 38 43  2  0  0  0
 38 46  1  0  0  0
 38 47  1  0  0  0
 39 64  1  0  0  0
 39 67  2  0  0  0
 40 52  1  0  0  0
 40 53  2  0  0  0
 40 58  1  0  0  0
 41111  1  0  0  0
 41112  1  0  0  0
 41113  1  0  0  0
 41 48  1  0  0  0
 42 43  1  0  0  0
 42 66  1  0  0  0
 42114  1  0  0  0
 42115  1  0  0  0
 43 44  1  0  0  0
 44116  1  0  0  0
 45 46  2  0  0  0
 45117  1  0  0  0
 46118  1  0  0  0
 47119  1  0  0  0
 47120  1  0  0  0
 48 56  1  0  0  0
 48 65  1  0  0  0
 48121  1  0  0  0
 49 50  1  0  0  0
 49 53  1  0  0  0
 49 64  1  0  0  0
 49122  1  0  0  0
 50 51  1  0  0  0
 50123  1  0  0  0
 50124  1  0  0  0
 51 52  1  0  0  0
 51125  1  0  0  0
 51126  1  0  0  0
 52127  1  0  0  0
 52128  1  0  0  0
 53 54  1  0  0  0
 54 55  2  0  0  0
 54129  1  0  0  0
 55 57  1  0  0  0
 55130  1  0  0  0
 56 69  2  0  0  0
 57 58  2  0  0  0
 57131  1  0  0  0
 58132  1  0  0  0
 59 60  1  0  0  0
 59 61  1  0  0  0
 59 62  1  0  0  0
 60133  1  0  0  0
 60134  1  0  0  0
 60135  1  0  0  0
 61136  1  0  0  0
 61137  1  0  0  0
 61138  1  0  0  0
 62139  1  0  0  0
 62140  1  0  0  0
 62141  1  0  0  0
 63 65  1  0  0  0
 63142  1  0  0  0
 63143  1  0  0  0
 63144  1  0  0  0
 64145  1  0  0  0
 65146  1  0  0  0
 68 83  1  0  0  0
 71 72  2  0  0  0
 71 75  1  0  0  0
 71147  1  0  0  0
 72 76  1  0  0  0
 72148  1  0  0  0
 73 74  1  0  0  0
 73 76  2  0  0  0
 73149  1  0  0  0
 74 75  2  0  0  0
 74 79  1  0  0  0
 75 80  1  0  0  0
 76 85  1  0  0  0
 77 78  2  0  0  0
 77150  1  0  0  0
 77151  1  0  0  0
 78 81  1  0  0  0
 78152  1  0  0  0
 79 86  1  0  0  0
 79 87  2  0  0  0
 80153  1  0  0  0
 80154  1  0  0  0
 80155  1  0  0  0
 81156  1  0  0  0
 81157  1  0  0  0
 81 84  1  0  0  0
 82 84  1  0  0  0
 82 86  1  0  0  0
 82158  1  0  0  0
 82159  1  0  0  0
 83 84  1  0  0  0
 83160  1  0  0  0
 83161  1  0  0  0
 84162  1  0  0  0
 85163  1  0  0  0
 86164  1  0  0  0
M  ISO  4   1 100  68 101  83 101  85 100
M  END
> <chiral flag>
0

> <version>
0

> <s_m_source_file>
/data/baiqing/PycharmProjects/Reinvent-master-3.2/result/LINK_invent/BTK/process_docking_weight1_custom_product_contain_oxygen_bond_distance_aromatic_linkinvent_7_9_3/rearranged_h_0056.sdf

> <i_m_source_file_index>
32

> <r_mmod_Potential_Energy-OPLS-2005>
-39.2848625183105

> <r_mmod_Stretch_Energy-OPLS-2005>
43.7100486755371

> <r_mmod_Bend_Energy-OPLS-2005>
97.3577346801758

> <r_mmod_Torsional_Energy-OPLS-2005>
270.227416992188

> <r_mmod_Improper_Torsional_Energy-OPLS-2005>
5.95271778106689

> <r_mmod_Van_der_Waal_Energy-OPLS-2005>
158.299255371094

> <r_mmod_Electrostatic_Energy-OPLS-2005>
-416.011901855469

> <r_mmod_Solvation_Energy-OPLS-2005>
-217.88932800293

> <b_mmod_Minimization_Converged-OPLS-2005>
0

> <r_mmod_RMS_Derivative-OPLS-2005>
1.26338732242584

$$$$
32
                    3D
 Structure written by MMmdl.
157165  0  0  1  0            999 V2000
  -30.6510  -14.5276   20.5151 C   0  0  0  0  0  0
  -30.4196  -12.3170   19.4504 C   0  0  0  0  0  0
  -29.4973  -12.4939   18.2247 C   0  0  0  0  0  0
  -28.0168  -12.3581   18.6307 C   0  0  0  0  0  0
  -27.6545  -13.2048   19.8812 C   0  0  2  0  0  0
  -28.6958  -13.0117   21.0085 C   0  0  0  0  0  0
  -25.2542  -13.8161   20.5710 C   0  0  0  0  0  0
  -24.1796  -13.0434   20.9196 C   0  0  0  0  0  0
  -24.6351  -11.6902   20.8761 C   0  0  0  0  0  0
  -23.9033  -10.4282   21.0420 C   0  0  0  0  0  0
  -24.3597   -9.4203   21.9192 C   0  0  0  0  0  0
  -23.6280   -8.2236   22.0758 C   0  0  0  0  0  0
  -22.4263   -8.0269   21.3543 C   0  0  0  0  0  0
  -21.9892   -9.0238   20.4652 C   0  0  0  0  0  0
  -22.7211  -10.2127   20.3065 C   0  0  0  0  0  0
  -21.6852   -6.0724   22.5270 C   0  0  0  0  0  0
  -21.4012   -6.5630   23.8206 C   0  0  0  0  0  0
  -21.3667   -5.6794   24.9176 C   0  0  0  0  0  0
  -21.6052   -4.3048   24.7229 C   0  0  0  0  0  0
  -21.8816   -3.8134   23.4351 C   0  0  0  0  0  0
  -21.9194   -4.6955   22.3406 C   0  0  0  0  0  0
  -22.7824  -13.5236   21.1848 C   0  0  0  0  0  0
  -22.1656   -4.2143   21.0980 F   0  0  0  0  0  0
  -21.5646   -3.4533   25.7741 F   0  0  0  0  0  0
  -30.0246  -13.3192   20.4544 N   0  0  0  0  0  0
  -26.2968  -12.9315   20.3406 N   0  0  0  0  0  0
  -25.9273  -11.6478   20.5805 N   0  0  0  0  0  0
  -22.0471  -12.8231   22.0412 N   0  0  0  0  0  0
  -25.4270  -15.1878   20.4120 N   0  0  0  0  0  0
  -31.7875  -14.7125   20.0692 O   0  0  0  0  0  0
  -21.6634   -6.8863   21.4231 O   0  0  0  0  0  0
  -22.3523  -14.5542   20.6697 O   0  0  0  0  0  0
  -24.6140  -31.8643   23.2049 C   0  0  0  0  0  0
  -25.9016  -32.4812   23.8358 C   0  0  1  0  0  0
  -27.2388  -27.4010   20.1000 C   0  0  0  0  0  0
  -25.5871  -33.8616   24.2277 N   0  0  0  0  0  0
  -23.4045  -30.4833   21.5467 C   0  0  2  0  0  0
  -24.8516  -28.9407   20.1159 C   0  0  0  0  0  0
  -22.7412  -29.4610   22.4974 C   0  0  0  0  0  0
  -18.0247  -28.1367   22.8473 C   0  0  0  0  0  0
  -24.1487  -36.7317   23.2640 C   0  0  0  0  0  0
  -25.9351  -30.8176   21.3648 C   0  0  0  0  0  0
  -26.0107  -29.4480   20.7146 C   0  0  0  0  0  0
  -27.2014  -28.6823   20.7072 C   0  0  0  0  0  0
  -26.0589  -26.9131   19.4957 C   0  0  0  0  0  0
  -24.8711  -27.6725   19.5077 C   0  0  0  0  0  0
  -23.6153  -29.8123   20.1631 C   0  0  0  0  0  0
  -25.4115  -36.3113   24.0327 C   0  0  1  0  0  0
  -20.5843  -28.3637   23.1317 C   0  0  2  0  0  0
  -20.6746  -26.9372   22.5421 C   0  0  0  0  0  0
  -19.5739  -26.6366   21.5201 C   0  0  0  0  0  0
  -18.1905  -26.7906   22.1601 C   0  0  0  0  0  0
  -19.1504  -28.8817   23.2884 C   0  0  0  0  0  0
  -18.9445  -30.1425   23.8892 C   0  0  0  0  0  0
  -17.6457  -30.6584   24.0547 C   0  0  0  0  0  0
  -25.9047  -34.9478   23.5104 C   0  0  0  0  0  0
  -16.5335  -29.9090   23.6334 C   0  0  0  0  0  0
  -16.7238  -28.6508   23.0340 C   0  0  0  0  0  0
  -26.4438  -31.6611   25.0706 C   0  0  0  0  0  0
  -25.3717  -31.3717   26.1467 C   0  0  0  0  0  0
  -27.0252  -30.3047   24.6093 C   0  0  0  0  0  0
  -27.6006  -32.4334   25.7476 C   0  0  0  0  0  0
  -27.5580  -37.1815   24.8459 C   0  0  0  0  0  0
  -21.4136  -29.3005   22.3734 N   0  0  0  0  0  0
  -26.4299  -37.3802   23.9399 N   0  0  0  0  0  0
  -24.6688  -31.0710   22.0963 N   0  0  0  0  0  0
  -23.4171  -28.8171   23.3035 O   0  0  0  0  0  0
  -28.4250  -26.6850   20.1345 O   0  0  0  0  0  0
  -26.5635  -34.8945   22.4681 O   0  0  0  0  0  0
  -23.5325  -32.1381   23.7439 O   0  0  0  0  0  0
  -28.9501  -19.0943   18.6897 C   0  0  0  0  0  0
  -29.1263  -16.6740   18.8938 C   0  0  0  0  0  0
  -29.4958  -19.2686   19.9766 C   0  0  0  0  0  0
  -29.8180  -18.0984   20.7622 C   0  0  0  0  0  0
  -29.6490  -16.7864   20.2032 C   0  0  0  0  0  0
  -28.7699  -17.8121   18.1516 C   0  0  0  0  0  0
  -29.0744  -22.9887   20.4689 C   0  0  0  0  0  0
  -29.7563  -20.7006   20.3858 C   0  0  0  0  0  0
  -30.3368  -18.2154   22.1945 C   0  0  0  0  0  0
  -28.0644  -24.1523   20.3642 C   0  0  0  0  0  0
  -28.5605  -25.3779   19.5261 C   0  0  0  0  0  0
  -28.8431  -21.7341   20.2389 N   0  0  0  0  0  0
  -29.8910  -15.5657   20.9445 N   0  0  0  0  0  0
  -30.9633  -20.9385   20.8099 N   0  3  0  0  0  0
  -28.2555  -17.6670   16.9061 F   0  0  0  0  0  0
  -31.4663  -12.4142   19.1568 H   0  0  0  0  0  0
  -30.3156  -11.3119   19.8628 H   0  0  0  0  0  0
  -29.7402  -11.7532   17.4614 H   0  0  0  0  0  0
  -29.6690  -13.4697   17.7692 H   0  0  0  0  0  0
  -27.8290  -11.3035   18.8342 H   0  0  0  0  0  0
  -27.3688  -12.6245   17.7942 H   0  0  0  0  0  0
  -27.6823  -14.2470   19.5722 H   0  0  0  0  0  0
  -28.6763  -11.9829   21.3715 H   0  0  0  0  0  0
  -28.4560  -13.6312   21.8735 H   0  0  0  0  0  0
  -25.2747   -9.5690   22.4759 H   0  0  0  0  0  0
  -24.0005   -7.4628   22.7467 H   0  0  0  0  0  0
  -21.0833   -8.8741   19.8952 H   0  0  0  0  0  0
  -22.3655  -10.9667   19.6168 H   0  0  0  0  0  0
  -21.1981   -7.6140   23.9707 H   0  0  0  0  0  0
  -21.1504   -6.0524   25.9083 H   0  0  0  0  0  0
  -22.0590   -2.7592   23.2849 H   0  0  0  0  0  0
  -22.4076  -11.9886   22.4797 H   0  0  0  0  0  0
  -21.1094  -13.1261   22.2632 H   0  0  0  0  0  0
  -24.6572  -15.8410   20.5118 H   0  0  0  0  0  0
  -26.2811  -15.6281   20.0954 H   0  0  0  0  0  0
  -26.7081  -32.5496   23.1116 H   0  0  0  0  0  0
  -24.9987  -33.9773   25.0393 H   0  0  0  0  0  0
  -22.6913  -31.2970   21.4043 H   0  0  0  0  0  0
  -23.3761  -35.9644   23.3318 H   0  0  0  0  0  0
  -24.3573  -36.8926   22.2057 H   0  0  0  0  0  0
  -23.7247  -37.6522   23.6653 H   0  0  0  0  0  0
  -26.0535  -31.5798   20.5933 H   0  0  0  0  0  0
  -26.8194  -30.8676   21.9887 H   0  0  0  0  0  0
  -28.0968  -29.0687   21.1738 H   0  0  0  0  0  0
  -26.0366  -25.9454   19.0174 H   0  0  0  0  0  0
  -23.9779  -27.2718   19.0474 H   0  0  0  0  0  0
  -23.7294  -30.5853   19.4024 H   0  0  0  0  0  0
  -22.7386  -29.2347   19.8654 H   0  0  0  0  0  0
  -25.1303  -36.1976   25.0827 H   0  0  0  0  0  0
  -20.9887  -28.3203   24.1451 H   0  0  0  0  0  0
  -20.5620  -26.2234   23.3597 H   0  0  0  0  0  0
  -21.6620  -26.7394   22.1226 H   0  0  0  0  0  0
  -19.6899  -25.6276   21.1228 H   0  0  0  0  0  0
  -19.6713  -27.3181   20.6742 H   0  0  0  0  0  0
  -17.4167  -26.6602   21.4017 H   0  0  0  0  0  0
  -18.0333  -26.0049   22.9008 H   0  0  0  0  0  0
  -19.7933  -30.7220   24.2256 H   0  0  0  0  0  0
  -17.5030  -31.6273   24.5138 H   0  0  0  0  0  0
  -15.5341  -30.3002   23.7681 H   0  0  0  0  0  0
  -15.8621  -28.0850   22.7056 H   0  0  0  0  0  0
  -24.5892  -30.7049   25.7821 H   0  0  0  0  0  0
  -24.8904  -32.2868   26.4933 H   0  0  0  0  0  0
  -25.8095  -30.8891   27.0215 H   0  0  0  0  0  0
  -26.2780  -29.6851   24.1115 H   0  0  0  0  0  0
  -27.3967  -29.7254   25.4557 H   0  0  0  0  0  0
  -27.8650  -30.4354   23.9264 H   0  0  0  0  0  0
  -27.2609  -33.3617   26.2087 H   0  0  0  0  0  0
  -28.3810  -32.6927   25.0308 H   0  0  0  0  0  0
  -28.0681  -31.8439   26.5376 H   0  0  0  0  0  0
  -28.2603  -38.0108   24.7507 H   0  0  0  0  0  0
  -28.1066  -36.2637   24.6282 H   0  0  0  0  0  0
  -27.2286  -37.1469   25.8859 H   0  0  0  0  0  0
  -20.9283  -29.8751   21.6988 H   0  0  0  0  0  0
  -26.0187  -38.2874   24.1427 H   0  0  0  0  0  0
  -28.6939  -19.9571   18.0957 H   0  0  0  0  0  0
  -28.9739  -15.7083   18.4355 H   0  0  0  0  0  0
  -30.0587  -23.3436   20.7869 H   0  0  0  0  0  0
  -31.4239  -18.1413   22.2122 H   0  0  0  0  0  0
  -29.9409  -17.4181   22.8230 H   0  0  0  0  0  0
  -30.0462  -19.1528   22.6699 H   0  0  0  0  0  0
  -27.8414  -24.4793   21.3798 H   0  0  0  0  0  0
  -27.1234  -23.7815   19.9590 H   0  0  0  0  0  0
  -28.1343  -25.3671   18.5210 H   0  0  0  0  0  0
  -29.6332  -25.2709   19.3605 H   0  0  0  0  0  0
  -29.1058  -15.2585   21.5009 H   0  0  0  0  0  0
  -31.6886  -20.2241   20.8184 H   0  0  0  0  0  0
  -31.2828  -21.8522   21.1106 H   0  0  0  0  0  0
  1 25  1  0  0  0
  1 30  2  0  0  0
  1 83  1  0  0  0
  2  3  1  0  0  0
  2 25  1  0  0  0
  2 86  1  0  0  0
  2 87  1  0  0  0
  3  4  1  0  0  0
  3 88  1  0  0  0
  3 89  1  0  0  0
  4  5  1  0  0  0
  4 90  1  0  0  0
  4 91  1  0  0  0
  5  6  1  0  0  0
  5 26  1  0  0  0
  5 92  1  0  0  0
  6 25  1  0  0  0
  6 93  1  0  0  0
  6 94  1  0  0  0
  7  8  2  0  0  0
  7 26  1  0  0  0
  7 29  1  0  0  0
  8  9  1  0  0  0
  8 22  1  0  0  0
  9 10  1  0  0  0
  9 27  2  0  0  0
 10 11  2  0  0  0
 10 15  1  0  0  0
 11 12  1  0  0  0
 11 95  1  0  0  0
 12 13  2  0  0  0
 12 96  1  0  0  0
 13 14  1  0  0  0
 13 31  1  0  0  0
 14 15  2  0  0  0
 14 97  1  0  0  0
 15 98  1  0  0  0
 16 17  2  0  0  0
 16 21  1  0  0  0
 16 31  1  0  0  0
 17 18  1  0  0  0
 17 99  1  0  0  0
 18 19  2  0  0  0
 18100  1  0  0  0
 19 20  1  0  0  0
 19 24  1  0  0  0
 20 21  2  0  0  0
 20101  1  0  0  0
 21 23  1  0  0  0
 22 28  1  0  0  0
 22 32  2  0  0  0
 26 27  1  0  0  0
 28102  1  0  0  0
 28103  1  0  0  0
 29104  1  0  0  0
 29105  1  0  0  0
 33 34  1  0  0  0
 33 66  1  0  0  0
 33 70  2  0  0  0
 34 36  1  0  0  0
 34 59  1  0  0  0
 34106  1  0  0  0
 35 44  2  0  0  0
 35 45  1  0  0  0
 35 68  1  0  0  0
 36 56  1  0  0  0
 36107  1  0  0  0
 37 39  1  0  0  0
 37 47  1  0  0  0
 37 66  1  0  0  0
 37108  1  0  0  0
 38 43  2  0  0  0
 38 46  1  0  0  0
 38 47  1  0  0  0
 39 64  1  0  0  0
 39 67  2  0  0  0
 40 52  1  0  0  0
 40 53  2  0  0  0
 40 58  1  0  0  0
 41109  1  0  0  0
 41110  1  0  0  0
 41111  1  0  0  0
 41 48  1  0  0  0
 42 43  1  0  0  0
 42 66  1  0  0  0
 42112  1  0  0  0
 42113  1  0  0  0
 43 44  1  0  0  0
 44114  1  0  0  0
 45 46  2  0  0  0
 45115  1  0  0  0
 46116  1  0  0  0
 47117  1  0  0  0
 47118  1  0  0  0
 48 56  1  0  0  0
 48 65  1  0  0  0
 48119  1  0  0  0
 49 50  1  0  0  0
 49 53  1  0  0  0
 49 64  1  0  0  0
 49120  1  0  0  0
 50 51  1  0  0  0
 50121  1  0  0  0
 50122  1  0  0  0
 51 52  1  0  0  0
 51123  1  0  0  0
 51124  1  0  0  0
 52125  1  0  0  0
 52126  1  0  0  0
 53 54  1  0  0  0
 54 55  2  0  0  0
 54127  1  0  0  0
 55 57  1  0  0  0
 55128  1  0  0  0
 56 69  2  0  0  0
 57 58  2  0  0  0
 57129  1  0  0  0
 58130  1  0  0  0
 59 60  1  0  0  0
 59 61  1  0  0  0
 59 62  1  0  0  0
 60131  1  0  0  0
 60132  1  0  0  0
 60133  1  0  0  0
 61134  1  0  0  0
 61135  1  0  0  0
 61136  1  0  0  0
 62137  1  0  0  0
 62138  1  0  0  0
 62139  1  0  0  0
 63 65  1  0  0  0
 63140  1  0  0  0
 63141  1  0  0  0
 63142  1  0  0  0
 64143  1  0  0  0
 65144  1  0  0  0
 68 81  1  0  0  0
 71 73  2  0  0  0
 71 76  1  0  0  0
 71145  1  0  0  0
 72 75  1  0  0  0
 72 76  2  0  0  0
 72146  1  0  0  0
 73 74  1  0  0  0
 73 78  1  0  0  0
 74 75  2  0  0  0
 74 79  1  0  0  0
 75 83  1  0  0  0
 76 85  1  0  0  0
 77 80  1  0  0  0
 77 82  2  0  0  0
 77147  1  0  0  0
 78 82  1  0  0  0
 78 84  2  0  0  0
 79148  1  0  0  0
 79149  1  0  0  0
 79150  1  0  0  0
 80 81  1  0  0  0
 80151  1  0  0  0
 80152  1  0  0  0
 81153  1  0  0  0
 81154  1  0  0  0
 83155  1  0  0  0
 84156  1  0  0  0
 84157  1  0  0  0
M  CHG  1  84   1
M  ISO  4   1 100  68 101  81 101  83 100
M  END
> <chiral flag>
0

> <version>
0

> <s_m_source_file>
/data/baiqing/PycharmProjects/Reinvent-master-3.2/result/LINK_invent/BTK/process_docking_weight1_custom_product_contain_oxygen_bond_distance_aromatic_linkinvent_7_9_3/rearranged_h_0056.sdf

> <i_m_source_file_index>
33

> <r_mmod_Potential_Energy-OPLS-2005>
11.1139478683472

> <r_mmod_Stretch_Energy-OPLS-2005>
60.3196640014648

> <r_mmod_Bend_Energy-OPLS-2005>
126.157539367676

> <r_mmod_Torsional_Energy-OPLS-2005>
260.901062011719

> <r_mmod_Improper_Torsional_Energy-OPLS-2005>
7.49417781829834

> <r_mmod_Van_der_Waal_Energy-OPLS-2005>
158.618392944336

> <r_mmod_Electrostatic_Energy-OPLS-2005>
-149.48600769043

> <r_mmod_Solvation_Energy-OPLS-2005>
-472.920806884766

> <b_mmod_Minimization_Converged-OPLS-2005>
0

> <r_mmod_RMS_Derivative-OPLS-2005>
2.10811352729797

$$$$
33
                    3D
 Structure written by MMmdl.
165173  0  0  1  0            999 V2000
  -30.7121  -14.4303   20.5965 C   0  0  0  0  0  0
  -30.4212  -12.2911   19.4055 C   0  0  0  0  0  0
  -29.4863  -12.5070   18.1980 C   0  0  0  0  0  0
  -28.0086  -12.3687   18.6147 C   0  0  0  0  0  0
  -27.6626  -13.2002   19.8787 C   0  0  2  0  0  0
  -28.7054  -12.9551   20.9925 C   0  0  0  0  0  0
  -25.2593  -13.8152   20.5697 C   0  0  0  0  0  0
  -24.1831  -13.0439   20.9176 C   0  0  0  0  0  0
  -24.6380  -11.6901   20.8736 C   0  0  0  0  0  0
  -23.9043  -10.4283   21.0404 C   0  0  0  0  0  0
  -24.3604   -9.4203   21.9186 C   0  0  0  0  0  0
  -23.6285   -8.2240   22.0757 C   0  0  0  0  0  0
  -22.4265   -8.0279   21.3548 C   0  0  0  0  0  0
  -21.9895   -9.0249   20.4651 C   0  0  0  0  0  0
  -22.7219  -10.2127   20.3058 C   0  0  0  0  0  0
  -21.6846   -6.0733   22.5281 C   0  0  0  0  0  0
  -21.4011   -6.5632   23.8214 C   0  0  0  0  0  0
  -21.3658   -5.6788   24.9177 C   0  0  0  0  0  0
  -21.6045   -4.3056   24.7227 C   0  0  0  0  0  0
  -21.8818   -3.8146   23.4344 C   0  0  0  0  0  0
  -21.9191   -4.6960   22.3402 C   0  0  0  0  0  0
  -22.7856  -13.5240   21.1852 C   0  0  0  0  0  0
  -22.1657   -4.2150   21.0981 F   0  0  0  0  0  0
  -21.5629   -3.4541   25.7737 F   0  0  0  0  0  0
  -30.0387  -13.2601   20.4422 N   0  0  0  0  0  0
  -26.3025  -12.9305   20.3393 N   0  0  0  0  0  0
  -25.9304  -11.6468   20.5780 N   0  0  0  0  0  0
  -22.0496  -12.8237   22.0416 N   0  0  0  0  0  0
  -25.4354  -15.1869   20.4116 N   0  0  0  0  0  0
  -31.8323  -14.6335   20.1178 O   0  0  0  0  0  0
  -21.6634   -6.8876   21.4246 O   0  0  0  0  0  0
  -22.3550  -14.5558   20.6721 O   0  0  0  0  0  0
  -24.6124  -31.8676   23.2110 C   0  0  0  0  0  0
  -25.9013  -32.4825   23.8417 C   0  0  1  0  0  0
  -27.2434  -27.4462   20.1019 C   0  0  0  0  0  0
  -25.5884  -33.8623   24.2347 N   0  0  0  0  0  0
  -23.4020  -30.4883   21.5508 C   0  0  2  0  0  0
  -24.8508  -28.9545   20.1182 C   0  0  0  0  0  0
  -22.7401  -29.4640   22.5010 C   0  0  0  0  0  0
  -18.0255  -28.1370   22.8488 C   0  0  0  0  0  0
  -24.1487  -36.7304   23.2641 C   0  0  0  0  0  0
  -25.9281  -30.8392   21.3606 C   0  0  0  0  0  0
  -26.0100  -29.4738   20.7092 C   0  0  0  0  0  0
  -27.2105  -28.7296   20.6919 C   0  0  0  0  0  0
  -26.0685  -26.9371   19.5057 C   0  0  0  0  0  0
  -24.8740  -27.6847   19.5147 C   0  0  0  0  0  0
  -23.6102  -29.8180   20.1673 C   0  0  0  0  0  0
  -25.4107  -36.3115   24.0348 C   0  0  1  0  0  0
  -20.5849  -28.3647   23.1320 C   0  0  2  0  0  0
  -20.6752  -26.9383   22.5417 C   0  0  0  0  0  0
  -19.5741  -26.6368   21.5206 C   0  0  0  0  0  0
  -18.1906  -26.7915   22.1603 C   0  0  0  0  0  0
  -19.1512  -28.8822   23.2904 C   0  0  0  0  0  0
  -18.9447  -30.1426   23.8914 C   0  0  0  0  0  0
  -17.6456  -30.6583   24.0563 C   0  0  0  0  0  0
  -25.9032  -34.9476   23.5147 C   0  0  0  0  0  0
  -16.5340  -29.9081   23.6336 C   0  0  0  0  0  0
  -16.7250  -28.6497   23.0359 C   0  0  0  0  0  0
  -26.4461  -31.6600   25.0733 C   0  0  0  0  0  0
  -25.3760  -31.3669   26.1507 C   0  0  0  0  0  0
  -27.0282  -30.3056   24.6065 C   0  0  0  0  0  0
  -27.6045  -32.4321   25.7481 C   0  0  0  0  0  0
  -27.5592  -37.1790   24.8454 C   0  0  0  0  0  0
  -21.4129  -29.3023   22.3747 N   0  0  0  0  0  0
  -26.4282  -37.3809   23.9436 N   0  0  0  0  0  0
  -24.6657  -31.0788   22.1000 N   0  0  0  0  0  0
  -23.4175  -28.8185   23.3049 O   0  0  0  0  0  0
  -28.4201  -26.7288   20.0802 O   0  0  0  0  0  0
  -26.5596  -34.8912   22.4704 O   0  0  0  0  0  0
  -23.5312  -32.1408   23.7520 O   0  0  0  0  0  0
  -29.7025  -19.1001   20.7359 C   0  0  0  0  0  0
  -29.4236  -17.7180   20.6890 C   0  0  0  0  0  0
  -31.5178  -17.2561   21.8439 C   0  0  0  0  0  0
  -30.8813  -19.5734   21.3526 C   0  0  0  0  0  0
  -30.3355  -16.7864   21.2299 C   0  0  0  0  0  0
  -31.7858  -18.6395   21.9106 C   0  0  0  0  0  0
  -32.8417  -18.7454   18.4835 C   0  0  0  0  0  0
  -30.1346  -23.5927   20.3514 C   0  0  0  0  0  0
  -32.4302  -20.0231   18.4709 C   0  0  0  0  0  0
  -29.1919  -24.4157   19.8393 C   0  0  0  0  0  0
  -30.8741  -22.6689   19.4910 C   0  0  0  0  0  0
  -33.8289  -22.0527   19.0235 C   0  0  0  0  0  0
  -31.1599  -21.0784   21.4176 C   0  0  0  0  0  0
  -28.3663  -25.4104   20.6401 C   0  0  0  0  0  0
  -32.7813  -21.0451   19.5422 C   0  0  1  0  0  0
  -30.0102  -15.4033   21.2015 N   0  0  0  0  0  0
  -31.5784  -21.6882   20.1321 N   0  0  0  0  0  0
  -30.9459  -22.8304   18.2684 O   0  0  0  0  0  0
  -32.9207  -19.0667   22.5143 F   0  0  0  0  0  0
  -31.4648  -12.3937   19.1013 H   0  0  0  0  0  0
  -30.3232  -11.2750   19.7895 H   0  0  0  0  0  0
  -29.7175  -11.7906   17.4086 H   0  0  0  0  0  0
  -29.6552  -13.4974   17.7723 H   0  0  0  0  0  0
  -27.8153  -11.3120   18.8042 H   0  0  0  0  0  0
  -27.3556  -12.6530   17.7883 H   0  0  0  0  0  0
  -27.7146  -14.2512   19.5941 H   0  0  0  0  0  0
  -28.6756  -11.9118   21.3105 H   0  0  0  0  0  0
  -28.4704  -13.5322   21.8883 H   0  0  0  0  0  0
  -25.2744   -9.5682   22.4764 H   0  0  0  0  0  0
  -23.9996   -7.4628   22.7471 H   0  0  0  0  0  0
  -21.0830   -8.8763   19.8956 H   0  0  0  0  0  0
  -22.3678  -10.9670   19.6170 H   0  0  0  0  0  0
  -21.2000   -7.6139   23.9722 H   0  0  0  0  0  0
  -21.1480   -6.0517   25.9083 H   0  0  0  0  0  0
  -22.0597   -2.7610   23.2847 H   0  0  0  0  0  0
  -22.4093  -11.9867   22.4756 H   0  0  0  0  0  0
  -21.1134  -13.1284   22.2658 H   0  0  0  0  0  0
  -24.6764  -15.8491   20.5280 H   0  0  0  0  0  0
  -26.2934  -15.6222   20.0993 H   0  0  0  0  0  0
  -26.7082  -32.5554   23.1186 H   0  0  0  0  0  0
  -25.0053  -33.9797   25.0506 H   0  0  0  0  0  0
  -22.6873  -31.3024   21.4099 H   0  0  0  0  0  0
  -23.3759  -35.9619   23.3268 H   0  0  0  0  0  0
  -24.3597  -36.8961   22.2063 H   0  0  0  0  0  0
  -23.7212  -37.6488   23.6669 H   0  0  0  0  0  0
  -26.0345  -31.6069   20.5925 H   0  0  0  0  0  0
  -26.8155  -30.8957   21.9784 H   0  0  0  0  0  0
  -28.1091  -29.1302   21.1393 H   0  0  0  0  0  0
  -26.0742  -25.9667   19.0284 H   0  0  0  0  0  0
  -23.9839  -27.2790   19.0549 H   0  0  0  0  0  0
  -23.7124  -30.5903   19.4036 H   0  0  0  0  0  0
  -22.7353  -29.2331   19.8801 H   0  0  0  0  0  0
  -25.1278  -36.1978   25.0840 H   0  0  0  0  0  0
  -20.9927  -28.3209   24.1445 H   0  0  0  0  0  0
  -20.5633  -26.2259   23.3604 H   0  0  0  0  0  0
  -21.6634  -26.7410   22.1222 H   0  0  0  0  0  0
  -19.6910  -25.6281   21.1226 H   0  0  0  0  0  0
  -19.6695  -27.3188   20.6747 H   0  0  0  0  0  0
  -17.4184  -26.6661   21.3999 H   0  0  0  0  0  0
  -18.0304  -26.0047   22.8987 H   0  0  0  0  0  0
  -19.7929  -30.7235   24.2286 H   0  0  0  0  0  0
  -17.5015  -31.6272   24.5151 H   0  0  0  0  0  0
  -15.5347  -30.2993   23.7663 H   0  0  0  0  0  0
  -15.8640  -28.0823   22.7080 H   0  0  0  0  0  0
  -24.5981  -30.6934   25.7881 H   0  0  0  0  0  0
  -24.8877  -32.2789   26.4950 H   0  0  0  0  0  0
  -25.8177  -30.8892   27.0263 H   0  0  0  0  0  0
  -26.2797  -29.6816   24.1160 H   0  0  0  0  0  0
  -27.4125  -29.7290   25.4487 H   0  0  0  0  0  0
  -27.8592  -30.4380   23.9136 H   0  0  0  0  0  0
  -27.2678  -33.3633   26.2039 H   0  0  0  0  0  0
  -28.3856  -32.6866   25.0309 H   0  0  0  0  0  0
  -28.0690  -31.8454   26.5417 H   0  0  0  0  0  0
  -28.2562  -38.0137   24.7607 H   0  0  0  0  0  0
  -28.1152  -36.2685   24.6152 H   0  0  0  0  0  0
  -27.2330  -37.1288   25.8858 H   0  0  0  0  0  0
  -20.9279  -29.8750   21.6983 H   0  0  0  0  0  0
  -26.0172  -38.2871   24.1499 H   0  0  0  0  0  0
  -29.0026  -19.8004   20.3028 H   0  0  0  0  0  0
  -28.5087  -17.3816   20.2211 H   0  0  0  0  0  0
  -32.2210  -16.5613   22.2806 H   0  0  0  0  0  0
  -32.5619  -18.0598   17.6970 H   0  0  0  0  0  0
  -33.4660  -18.3624   19.2778 H   0  0  0  0  0  0
  -30.3533  -23.6434   21.4081 H   0  0  0  0  0  0
  -31.8098  -20.3642   17.6533 H   0  0  0  0  0  0
  -28.9668  -24.3825   18.7820 H   0  0  0  0  0  0
  -34.7572  -21.5416   18.7640 H   0  0  0  0  0  0
  -34.0733  -22.7953   19.7837 H   0  0  0  0  0  0
  -33.4987  -22.5815   18.1291 H   0  0  0  0  0  0
  -31.9294  -21.2836   22.1629 H   0  0  0  0  0  0
  -30.2486  -21.5210   21.8187 H   0  0  0  0  0  0
  -28.7424  -25.4585   21.6626 H   0  0  0  0  0  0
  -27.3517  -25.0174   20.7103 H   0  0  0  0  0  0
  -33.2940  -20.5037   20.3383 H   0  0  0  0  0  0
  -29.0640  -15.1521   21.4439 H   0  0  0  0  0  0
  1 25  1  0  0  0
  1 30  2  0  0  0
  1 86  1  0  0  0
  2  3  1  0  0  0
  2 25  1  0  0  0
  2 90  1  0  0  0
  2 91  1  0  0  0
  3  4  1  0  0  0
  3 92  1  0  0  0
  3 93  1  0  0  0
  4  5  1  0  0  0
  4 94  1  0  0  0
  4 95  1  0  0  0
  5  6  1  0  0  0
  5 26  1  0  0  0
  5 96  1  0  0  0
  6 25  1  0  0  0
  6 97  1  0  0  0
  6 98  1  0  0  0
  7  8  2  0  0  0
  7 26  1  0  0  0
  7 29  1  0  0  0
  8  9  1  0  0  0
  8 22  1  0  0  0
  9 10  1  0  0  0
  9 27  2  0  0  0
 10 11  2  0  0  0
 10 15  1  0  0  0
 11 12  1  0  0  0
 11 99  1  0  0  0
 12 13  2  0  0  0
 12100  1  0  0  0
 13 14  1  0  0  0
 13 31  1  0  0  0
 14 15  2  0  0  0
 14101  1  0  0  0
 15102  1  0  0  0
 16 17  2  0  0  0
 16 21  1  0  0  0
 16 31  1  0  0  0
 17 18  1  0  0  0
 17103  1  0  0  0
 18 19  2  0  0  0
 18104  1  0  0  0
 19 20  1  0  0  0
 19 24  1  0  0  0
 20 21  2  0  0  0
 20105  1  0  0  0
 21 23  1  0  0  0
 22 28  1  0  0  0
 22 32  2  0  0  0
 26 27  1  0  0  0
 28106  1  0  0  0
 28107  1  0  0  0
 29108  1  0  0  0
 29109  1  0  0  0
 33 34  1  0  0  0
 33 66  1  0  0  0
 33 70  2  0  0  0
 34 36  1  0  0  0
 34 59  1  0  0  0
 34110  1  0  0  0
 35 44  2  0  0  0
 35 45  1  0  0  0
 35 68  1  0  0  0
 36 56  1  0  0  0
 36111  1  0  0  0
 37 39  1  0  0  0
 37 47  1  0  0  0
 37 66  1  0  0  0
 37112  1  0  0  0
 38 43  2  0  0  0
 38 46  1  0  0  0
 38 47  1  0  0  0
 39 64  1  0  0  0
 39 67  2  0  0  0
 40 52  1  0  0  0
 40 53  2  0  0  0
 40 58  1  0  0  0
 41113  1  0  0  0
 41114  1  0  0  0
 41115  1  0  0  0
 41 48  1  0  0  0
 42 43  1  0  0  0
 42 66  1  0  0  0
 42116  1  0  0  0
 42117  1  0  0  0
 43 44  1  0  0  0
 44118  1  0  0  0
 45 46  2  0  0  0
 45119  1  0  0  0
 46120  1  0  0  0
 47121  1  0  0  0
 47122  1  0  0  0
 48 56  1  0  0  0
 48 65  1  0  0  0
 48123  1  0  0  0
 49 50  1  0  0  0
 49 53  1  0  0  0
 49 64  1  0  0  0
 49124  1  0  0  0
 50 51  1  0  0  0
 50125  1  0  0  0
 50126  1  0  0  0
 51 52  1  0  0  0
 51127  1  0  0  0
 51128  1  0  0  0
 52129  1  0  0  0
 52130  1  0  0  0
 53 54  1  0  0  0
 54 55  2  0  0  0
 54131  1  0  0  0
 55 57  1  0  0  0
 55132  1  0  0  0
 56 69  2  0  0  0
 57 58  2  0  0  0
 57133  1  0  0  0
 58134  1  0  0  0
 59 60  1  0  0  0
 59 61  1  0  0  0
 59 62  1  0  0  0
 60135  1  0  0  0
 60136  1  0  0  0
 60137  1  0  0  0
 61138  1  0  0  0
 61139  1  0  0  0
 61140  1  0  0  0
 62141  1  0  0  0
 62142  1  0  0  0
 62143  1  0  0  0
 63 65  1  0  0  0
 63144  1  0  0  0
 63145  1  0  0  0
 63146  1  0  0  0
 64147  1  0  0  0
 65148  1  0  0  0
 68 84  1  0  0  0
 71 72  2  0  0  0
 71 74  1  0  0  0
 71149  1  0  0  0
 72 75  1  0  0  0
 72150  1  0  0  0
 73 75  2  0  0  0
 73 76  1  0  0  0
 73151  1  0  0  0
 74 76  2  0  0  0
 74 83  1  0  0  0
 75 86  1  0  0  0
 76 89  1  0  0  0
 77 79  2  0  0  0
 77152  1  0  0  0
 77153  1  0  0  0
 78 80  2  0  0  0
 78 81  1  0  0  0
 78154  1  0  0  0
 79 85  1  0  0  0
 79155  1  0  0  0
 80 84  1  0  0  0
 80156  1  0  0  0
 81 87  1  0  0  0
 81 88  2  0  0  0
 82157  1  0  0  0
 82158  1  0  0  0
 82159  1  0  0  0
 82 85  1  0  0  0
 83 87  1  0  0  0
 83160  1  0  0  0
 83161  1  0  0  0
 84162  1  0  0  0
 84163  1  0  0  0
 85 87  1  0  0  0
 85164  1  0  0  0
 86165  1  0  0  0
M  ISO  4   1 100  68 101  84 101  86 100
M  END
> <chiral flag>
0

> <version>
0

> <s_m_source_file>
/data/baiqing/PycharmProjects/Reinvent-master-3.2/result/LINK_invent/BTK/process_docking_weight1_custom_product_contain_oxygen_bond_distance_aromatic_linkinvent_7_9_3/rearranged_h_0056.sdf

> <i_m_source_file_index>
34

> <r_mmod_Potential_Energy-OPLS-2005>
2.83179783821106

> <r_mmod_Stretch_Energy-OPLS-2005>
40.2287788391113

> <r_mmod_Bend_Energy-OPLS-2005>
95.2358627319336

> <r_mmod_Torsional_Energy-OPLS-2005>
264.871948242188

> <r_mmod_Improper_Torsional_Energy-OPLS-2005>
4.69431495666504

> <r_mmod_Van_der_Waal_Energy-OPLS-2005>
161.881958007812

> <r_mmod_Electrostatic_Energy-OPLS-2005>
-355.950592041016

> <r_mmod_Solvation_Energy-OPLS-2005>
-217.678283691406

> <b_mmod_Minimization_Converged-OPLS-2005>
0

> <r_mmod_RMS_Derivative-OPLS-2005>
1.79806792736053

$$$$
34
                    3D
 Structure written by MMmdl.
162171  0  0  1  0            999 V2000
  -30.7116  -14.4248   20.6211 C   0  0  0  0  0  0
  -30.4257  -12.2921   19.4112 C   0  0  0  0  0  0
  -29.4949  -12.5199   18.2025 C   0  0  0  0  0  0
  -28.0154  -12.3810   18.6120 C   0  0  0  0  0  0
  -27.6680  -13.2018   19.8825 C   0  0  2  0  0  0
  -28.7061  -12.9416   20.9982 C   0  0  0  0  0  0
  -25.2604  -13.8146   20.5658 C   0  0  0  0  0  0
  -24.1856  -13.0430   20.9180 C   0  0  0  0  0  0
  -24.6404  -11.6901   20.8728 C   0  0  0  0  0  0
  -23.9067  -10.4289   21.0398 C   0  0  0  0  0  0
  -24.3612   -9.4203   21.9182 C   0  0  0  0  0  0
  -23.6285   -8.2241   22.0752 C   0  0  0  0  0  0
  -22.4272   -8.0276   21.3548 C   0  0  0  0  0  0
  -21.9909   -9.0250   20.4650 C   0  0  0  0  0  0
  -22.7233  -10.2130   20.3054 C   0  0  0  0  0  0
  -21.6855   -6.0735   22.5279 C   0  0  0  0  0  0
  -21.4017   -6.5642   23.8211 C   0  0  0  0  0  0
  -21.3655   -5.6790   24.9175 C   0  0  0  0  0  0
  -21.6044   -4.3053   24.7226 C   0  0  0  0  0  0
  -21.8817   -3.8147   23.4348 C   0  0  0  0  0  0
  -21.9195   -4.6963   22.3407 C   0  0  0  0  0  0
  -22.7875  -13.5236   21.1837 C   0  0  0  0  0  0
  -22.1660   -4.2150   21.0982 F   0  0  0  0  0  0
  -21.5625   -3.4539   25.7741 F   0  0  0  0  0  0
  -30.0457  -13.2490   20.4612 N   0  0  0  0  0  0
  -26.3054  -12.9317   20.3376 N   0  0  0  0  0  0
  -25.9332  -11.6483   20.5750 N   0  0  0  0  0  0
  -22.0518  -12.8229   22.0391 N   0  0  0  0  0  0
  -25.4312  -15.1846   20.3985 N   0  0  0  0  0  0
  -31.8042  -14.6574   20.0918 O   0  0  0  0  0  0
  -21.6638   -6.8875   21.4244 O   0  0  0  0  0  0
  -22.3561  -14.5551   20.6685 O   0  0  0  0  0  0
  -24.6122  -31.8679   23.2114 C   0  0  0  0  0  0
  -25.9019  -32.4823   23.8385 C   0  0  1  0  0  0
  -27.2451  -27.4438   20.0822 C   0  0  0  0  0  0
  -25.5897  -33.8620   24.2315 N   0  0  0  0  0  0
  -23.4004  -30.4906   21.5514 C   0  0  2  0  0  0
  -24.8467  -28.9583   20.1132 C   0  0  0  0  0  0
  -22.7398  -29.4640   22.4978 C   0  0  0  0  0  0
  -18.0269  -28.1386   22.8447 C   0  0  0  0  0  0
  -24.1493  -36.7322   23.2635 C   0  0  0  0  0  0
  -25.9261  -30.8345   21.3626 C   0  0  0  0  0  0
  -26.0034  -29.4693   20.7110 C   0  0  0  0  0  0
  -27.1987  -28.7167   20.6952 C   0  0  0  0  0  0
  -26.0650  -26.9484   19.4754 C   0  0  0  0  0  0
  -24.8723  -27.6972   19.4955 C   0  0  0  0  0  0
  -23.6076  -29.8243   20.1645 C   0  0  0  0  0  0
  -25.4112  -36.3100   24.0330 C   0  0  1  0  0  0
  -20.5858  -28.3655   23.1312 C   0  0  2  0  0  0
  -20.6758  -26.9387   22.5420 C   0  0  0  0  0  0
  -19.5745  -26.6370   21.5206 C   0  0  0  0  0  0
  -18.1919  -26.7923   22.1601 C   0  0  0  0  0  0
  -19.1518  -28.8830   23.2873 C   0  0  0  0  0  0
  -18.9459  -30.1433   23.8884 C   0  0  0  0  0  0
  -17.6464  -30.6573   24.0558 C   0  0  0  0  0  0
  -25.9043  -34.9472   23.5117 C   0  0  0  0  0  0
  -16.5342  -29.9086   23.6332 C   0  0  0  0  0  0
  -16.7262  -28.6527   23.0301 C   0  0  0  0  0  0
  -26.4450  -31.6606   25.0709 C   0  0  0  0  0  0
  -25.3718  -31.3749   26.1465 C   0  0  0  0  0  0
  -27.0277  -30.3050   24.6081 C   0  0  0  0  0  0
  -27.6020  -32.4316   25.7484 C   0  0  0  0  0  0
  -27.5584  -37.1803   24.8456 C   0  0  0  0  0  0
  -21.4132  -29.3024   22.3707 N   0  0  0  0  0  0
  -26.4296  -37.3788   23.9412 N   0  0  0  0  0  0
  -24.6644  -31.0777   22.1016 N   0  0  0  0  0  0
  -23.4167  -28.8172   23.3002 O   0  0  0  0  0  0
  -28.4564  -26.7743   20.1117 O   0  0  0  0  0  0
  -26.5596  -34.8934   22.4666 O   0  0  0  0  0  0
  -23.5319  -32.1425   23.7527 O   0  0  0  0  0  0
  -28.8878  -17.4245   20.8969 C   0  0  0  0  0  0
  -31.3000  -17.4889   21.1848 C   0  0  0  0  0  0
  -28.8690  -18.8064   20.6163 C   0  0  0  0  0  0
  -31.2996  -18.8778   20.9244 C   0  0  0  0  0  0
  -30.0842  -19.5399   20.6045 C   0  0  0  0  0  0
  -30.0991  -16.7486   21.1389 C   0  0  0  0  0  0
  -30.0329  -22.7726   18.9399 C   0  0  0  0  0  0
  -29.7052  -23.1725   20.1707 C   0  0  0  0  0  0
  -30.2769  -21.3473   18.9524 C   0  0  0  0  0  0
  -29.7256  -22.0075   21.1271 C   0  0  0  0  0  0
  -27.5332  -19.4633   20.2998 C   0  0  0  0  0  0
  -32.6183  -19.6335   20.9659 C   0  0  0  0  0  0
  -29.3826  -24.5900   20.6377 C   0  0  0  0  0  0
  -28.6128  -25.4434   19.6059 C   0  0  0  0  0  0
  -30.0888  -20.9160   20.2212 N   0  0  0  0  0  0
  -30.0547  -15.3437   21.3500 N   0  0  0  0  0  0
  -30.5979  -20.6465   17.9878 O   0  0  0  0  0  0
  -31.4686  -12.3960   19.1086 H   0  0  0  0  0  0
  -30.3238  -11.2704   19.7815 H   0  0  0  0  0  0
  -29.7275  -11.8104   17.4076 H   0  0  0  0  0  0
  -29.6686  -13.5127   17.7853 H   0  0  0  0  0  0
  -27.8171  -11.3234   18.7871 H   0  0  0  0  0  0
  -27.3677  -12.6751   17.7856 H   0  0  0  0  0  0
  -27.7245  -14.2560   19.6094 H   0  0  0  0  0  0
  -28.6744  -11.8943   21.3031 H   0  0  0  0  0  0
  -28.4589  -13.5027   21.9000 H   0  0  0  0  0  0
  -25.2755   -9.5677   22.4754 H   0  0  0  0  0  0
  -23.9995   -7.4636   22.7470 H   0  0  0  0  0  0
  -21.0842   -8.8770   19.8954 H   0  0  0  0  0  0
  -22.3692  -10.9670   19.6161 H   0  0  0  0  0  0
  -21.2014   -7.6149   23.9717 H   0  0  0  0  0  0
  -21.1476   -6.0522   25.9074 H   0  0  0  0  0  0
  -22.0602   -2.7612   23.2851 H   0  0  0  0  0  0
  -22.4122  -11.9881   22.4776 H   0  0  0  0  0  0
  -21.1135  -13.1261   22.2594 H   0  0  0  0  0  0
  -24.6578  -15.8348   20.4801 H   0  0  0  0  0  0
  -26.2650  -15.6080   20.0124 H   0  0  0  0  0  0
  -26.7089  -32.5540   23.1153 H   0  0  0  0  0  0
  -25.0037  -33.9777   25.0453 H   0  0  0  0  0  0
  -22.6881  -31.3072   21.4142 H   0  0  0  0  0  0
  -23.3740  -35.9671   23.3296 H   0  0  0  0  0  0
  -24.3601  -36.8941   22.2052 H   0  0  0  0  0  0
  -23.7251  -37.6522   23.6662 H   0  0  0  0  0  0
  -26.0317  -31.6008   20.5926 H   0  0  0  0  0  0
  -26.8161  -30.8915   21.9769 H   0  0  0  0  0  0
  -28.0915  -29.1124   21.1572 H   0  0  0  0  0  0
  -26.0247  -25.9965   18.9706 H   0  0  0  0  0  0
  -23.9859  -27.2985   19.0231 H   0  0  0  0  0  0
  -23.7170  -30.6011   19.4065 H   0  0  0  0  0  0
  -22.7338  -29.2424   19.8652 H   0  0  0  0  0  0
  -25.1277  -36.1969   25.0824 H   0  0  0  0  0  0
  -20.9936  -28.3239   24.1443 H   0  0  0  0  0  0
  -20.5666  -26.2260   23.3603 H   0  0  0  0  0  0
  -21.6634  -26.7430   22.1215 H   0  0  0  0  0  0
  -19.6925  -25.6294   21.1215 H   0  0  0  0  0  0
  -19.6729  -27.3190   20.6746 H   0  0  0  0  0  0
  -17.4189  -26.6648   21.3995 H   0  0  0  0  0  0
  -18.0319  -26.0082   22.9020 H   0  0  0  0  0  0
  -19.7947  -30.7224   24.2256 H   0  0  0  0  0  0
  -17.5039  -31.6267   24.5141 H   0  0  0  0  0  0
  -15.5349  -30.2971   23.7698 H   0  0  0  0  0  0
  -15.8663  -28.0873   22.6978 H   0  0  0  0  0  0
  -24.5905  -30.7067   25.7834 H   0  0  0  0  0  0
  -24.8889  -32.2920   26.4850 H   0  0  0  0  0  0
  -25.8055  -30.8979   27.0262 H   0  0  0  0  0  0
  -26.2820  -29.6836   24.1111 H   0  0  0  0  0  0
  -27.4011  -29.7264   25.4538 H   0  0  0  0  0  0
  -27.8673  -30.4362   23.9250 H   0  0  0  0  0  0
  -27.2629  -33.3626   26.2044 H   0  0  0  0  0  0
  -28.3843  -32.6856   25.0319 H   0  0  0  0  0  0
  -28.0659  -31.8442   26.5417 H   0  0  0  0  0  0
  -28.2557  -38.0137   24.7505 H   0  0  0  0  0  0
  -28.1097  -36.2651   24.6242 H   0  0  0  0  0  0
  -27.2299  -37.1407   25.8856 H   0  0  0  0  0  0
  -20.9275  -29.8792   21.6975 H   0  0  0  0  0  0
  -26.0175  -38.2852   24.1456 H   0  0  0  0  0  0
  -27.9601  -16.8710   20.8823 H   0  0  0  0  0  0
  -32.2307  -16.9831   21.4046 H   0  0  0  0  0  0
  -30.1138  -23.3981   18.0644 H   0  0  0  0  0  0
  -28.7518  -21.8500   21.5917 H   0  0  0  0  0  0
  -30.4792  -22.1431   21.9030 H   0  0  0  0  0  0
  -26.7640  -18.7185   20.0868 H   0  0  0  0  0  0
  -27.6072  -20.1134   19.4280 H   0  0  0  0  0  0
  -27.1930  -20.0605   21.1455 H   0  0  0  0  0  0
  -33.4051  -19.0315   21.4231 H   0  0  0  0  0  0
  -32.5280  -20.5515   21.5475 H   0  0  0  0  0  0
  -32.9385  -19.8920   19.9563 H   0  0  0  0  0  0
  -30.3172  -25.0799   20.9140 H   0  0  0  0  0  0
  -28.7893  -24.5210   21.5499 H   0  0  0  0  0  0
  -27.6874  -24.9217   19.3823 H   0  0  0  0  0  0
  -29.1709  -25.5126   18.6711 H   0  0  0  0  0  0
  -29.1933  -14.9905   21.7387 H   0  0  0  0  0  0
  1 25  1  0  0  0
  1 30  2  0  0  0
  1 86  1  0  0  0
  2  3  1  0  0  0
  2 25  1  0  0  0
  2 88  1  0  0  0
  2 89  1  0  0  0
  3  4  1  0  0  0
  3 90  1  0  0  0
  3 91  1  0  0  0
  4  5  1  0  0  0
  4 92  1  0  0  0
  4 93  1  0  0  0
  5  6  1  0  0  0
  5 26  1  0  0  0
  5 94  1  0  0  0
  6 25  1  0  0  0
  6 95  1  0  0  0
  6 96  1  0  0  0
  7  8  2  0  0  0
  7 26  1  0  0  0
  7 29  1  0  0  0
  8  9  1  0  0  0
  8 22  1  0  0  0
  9 10  1  0  0  0
  9 27  2  0  0  0
 10 11  2  0  0  0
 10 15  1  0  0  0
 11 12  1  0  0  0
 11 97  1  0  0  0
 12 13  2  0  0  0
 12 98  1  0  0  0
 13 14  1  0  0  0
 13 31  1  0  0  0
 14 15  2  0  0  0
 14 99  1  0  0  0
 15100  1  0  0  0
 16 17  2  0  0  0
 16 21  1  0  0  0
 16 31  1  0  0  0
 17 18  1  0  0  0
 17101  1  0  0  0
 18 19  2  0  0  0
 18102  1  0  0  0
 19 20  1  0  0  0
 19 24  1  0  0  0
 20 21  2  0  0  0
 20103  1  0  0  0
 21 23  1  0  0  0
 22 28  1  0  0  0
 22 32  2  0  0  0
 26 27  1  0  0  0
 28104  1  0  0  0
 28105  1  0  0  0
 29106  1  0  0  0
 29107  1  0  0  0
 33 34  1  0  0  0
 33 66  1  0  0  0
 33 70  2  0  0  0
 34 36  1  0  0  0
 34 59  1  0  0  0
 34108  1  0  0  0
 35 44  2  0  0  0
 35 45  1  0  0  0
 35 68  1  0  0  0
 36 56  1  0  0  0
 36109  1  0  0  0
 37 39  1  0  0  0
 37 47  1  0  0  0
 37 66  1  0  0  0
 37110  1  0  0  0
 38 43  2  0  0  0
 38 46  1  0  0  0
 38 47  1  0  0  0
 39 64  1  0  0  0
 39 67  2  0  0  0
 40 52  1  0  0  0
 40 53  2  0  0  0
 40 58  1  0  0  0
 41111  1  0  0  0
 41112  1  0  0  0
 41113  1  0  0  0
 41 48  1  0  0  0
 42 43  1  0  0  0
 42 66  1  0  0  0
 42114  1  0  0  0
 42115  1  0  0  0
 43 44  1  0  0  0
 44116  1  0  0  0
 45 46  2  0  0  0
 45117  1  0  0  0
 46118  1  0  0  0
 47119  1  0  0  0
 47120  1  0  0  0
 48 56  1  0  0  0
 48 65  1  0  0  0
 48121  1  0  0  0
 49 50  1  0  0  0
 49 53  1  0  0  0
 49 64  1  0  0  0
 49122  1  0  0  0
 50 51  1  0  0  0
 50123  1  0  0  0
 50124  1  0  0  0
 51 52  1  0  0  0
 51125  1  0  0  0
 51126  1  0  0  0
 52127  1  0  0  0
 52128  1  0  0  0
 53 54  1  0  0  0
 54 55  2  0  0  0
 54129  1  0  0  0
 55 57  1  0  0  0
 55130  1  0  0  0
 56 69  2  0  0  0
 57 58  2  0  0  0
 57131  1  0  0  0
 58132  1  0  0  0
 59 60  1  0  0  0
 59 61  1  0  0  0
 59 62  1  0  0  0
 60133  1  0  0  0
 60134  1  0  0  0
 60135  1  0  0  0
 61136  1  0  0  0
 61137  1  0  0  0
 61138  1  0  0  0
 62139  1  0  0  0
 62140  1  0  0  0
 62141  1  0  0  0
 63 65  1  0  0  0
 63142  1  0  0  0
 63143  1  0  0  0
 63144  1  0  0  0
 64145  1  0  0  0
 65146  1  0  0  0
 68 84  1  0  0  0
 71 73  2  0  0  0
 71 76  1  0  0  0
 71147  1  0  0  0
 72 74  1  0  0  0
 72 76  2  0  0  0
 72148  1  0  0  0
 73 75  1  0  0  0
 73 81  1  0  0  0
 74 75  2  0  0  0
 74 82  1  0  0  0
 75 85  1  0  0  0
 76 86  1  0  0  0
 77 78  2  0  0  0
 77 79  1  0  0  0
 77149  1  0  0  0
 78 80  1  0  0  0
 78 83  1  0  0  0
 79 85  1  0  0  0
 79 87  2  0  0  0
 80 85  1  0  0  0
 80150  1  0  0  0
 80151  1  0  0  0
 81152  1  0  0  0
 81153  1  0  0  0
 81154  1  0  0  0
 82155  1  0  0  0
 82156  1  0  0  0
 82157  1  0  0  0
 83 84  1  0  0  0
 83158  1  0  0  0
 83159  1  0  0  0
 84160  1  0  0  0
 84161  1  0  0  0
 86162  1  0  0  0
M  ISO  4   1 100  68 101  84 101  86 100
M  END
> <chiral flag>
0

> <version>
0

> <s_m_source_file>
/data/baiqing/PycharmProjects/Reinvent-master-3.2/result/LINK_invent/BTK/process_docking_weight1_custom_product_contain_oxygen_bond_distance_aromatic_linkinvent_7_9_3/rearranged_h_0056.sdf

> <i_m_source_file_index>
35

> <r_mmod_Potential_Energy-OPLS-2005>
68.7691268920898

> <r_mmod_Stretch_Energy-OPLS-2005>
36.647159576416

> <r_mmod_Bend_Energy-OPLS-2005>
151.120956420898

> <r_mmod_Torsional_Energy-OPLS-2005>
289.76611328125

> <r_mmod_Improper_Torsional_Energy-OPLS-2005>
4.86925363540649

> <r_mmod_Van_der_Waal_Energy-OPLS-2005>
145.980239868164

> <r_mmod_Electrostatic_Energy-OPLS-2005>
-346.586364746094

> <r_mmod_Solvation_Energy-OPLS-2005>
-222.977767944336

> <b_mmod_Minimization_Converged-OPLS-2005>
0

> <r_mmod_RMS_Derivative-OPLS-2005>
2.3409469127655

$$$$
35
                    3D
 Structure written by MMmdl.
163172  0  0  1  0            999 V2000
  -30.6767  -14.5757   20.5582 C   0  0  0  0  0  0
  -30.4249  -12.3610   19.4659 C   0  0  0  0  0  0
  -29.5162  -12.5165   18.2297 C   0  0  0  0  0  0
  -28.0333  -12.3693   18.6271 C   0  0  0  0  0  0
  -27.6582  -13.2202   19.8706 C   0  0  2  0  0  0
  -28.6925  -13.0580   21.0045 C   0  0  0  0  0  0
  -25.2574  -13.8167   20.5661 C   0  0  0  0  0  0
  -24.1828  -13.0439   20.9157 C   0  0  0  0  0  0
  -24.6390  -11.6908   20.8697 C   0  0  0  0  0  0
  -23.9045  -10.4301   21.0389 C   0  0  0  0  0  0
  -24.3604   -9.4217   21.9164 C   0  0  0  0  0  0
  -23.6285   -8.2249   22.0741 C   0  0  0  0  0  0
  -22.4258   -8.0277   21.3543 C   0  0  0  0  0  0
  -21.9896   -9.0252   20.4650 C   0  0  0  0  0  0
  -22.7213  -10.2129   20.3050 C   0  0  0  0  0  0
  -21.6862   -6.0725   22.5279 C   0  0  0  0  0  0
  -21.4022   -6.5634   23.8208 C   0  0  0  0  0  0
  -21.3661   -5.6776   24.9168 C   0  0  0  0  0  0
  -21.6049   -4.3042   24.7218 C   0  0  0  0  0  0
  -21.8811   -3.8139   23.4339 C   0  0  0  0  0  0
  -21.9189   -4.6960   22.3392 C   0  0  0  0  0  0
  -22.7854  -13.5237   21.1836 C   0  0  0  0  0  0
  -22.1669   -4.2138   21.0971 F   0  0  0  0  0  0
  -21.5629   -3.4526   25.7735 F   0  0  0  0  0  0
  -30.0144  -13.3829   20.4510 N   0  0  0  0  0  0
  -26.3009  -12.9367   20.3305 N   0  0  0  0  0  0
  -25.9326  -11.6513   20.5697 N   0  0  0  0  0  0
  -22.0502  -12.8237   22.0408 N   0  0  0  0  0  0
  -25.4325  -15.1875   20.4064 N   0  0  0  0  0  0
  -31.8265  -14.6846   20.1261 O   0  0  0  0  0  0
  -21.6638   -6.8867   21.4234 O   0  0  0  0  0  0
  -22.3543  -14.5548   20.6685 O   0  0  0  0  0  0
  -24.6220  -31.8627   23.2062 C   0  0  0  0  0  0
  -25.9094  -32.4789   23.8368 C   0  0  1  0  0  0
  -27.2189  -27.3651   20.1026 C   0  0  0  0  0  0
  -25.5915  -33.8590   24.2289 N   0  0  0  0  0  0
  -23.4119  -30.4888   21.5475 C   0  0  2  0  0  0
  -24.8529  -28.9477   20.1104 C   0  0  0  0  0  0
  -22.7459  -29.4642   22.4955 C   0  0  0  0  0  0
  -18.0278  -28.1373   22.8484 C   0  0  0  0  0  0
  -24.1479  -36.7300   23.2639 C   0  0  0  0  0  0
  -25.9484  -30.8061   21.3704 C   0  0  0  0  0  0
  -26.0182  -29.4373   20.7133 C   0  0  0  0  0  0
  -27.2007  -28.6518   20.7067 C   0  0  0  0  0  0
  -26.0355  -26.9162   19.4747 C   0  0  0  0  0  0
  -24.8599  -27.6893   19.4887 C   0  0  0  0  0  0
  -23.6234  -29.8266   20.1600 C   0  0  0  0  0  0
  -25.4099  -36.3101   24.0332 C   0  0  1  0  0  0
  -20.5879  -28.3671   23.1288 C   0  0  2  0  0  0
  -20.6765  -26.9395   22.5410 C   0  0  0  0  0  0
  -19.5743  -26.6378   21.5207 C   0  0  0  0  0  0
  -18.1923  -26.7917   22.1621 C   0  0  0  0  0  0
  -19.1531  -28.8835   23.2885 C   0  0  0  0  0  0
  -18.9458  -30.1439   23.8896 C   0  0  0  0  0  0
  -17.6461  -30.6577   24.0563 C   0  0  0  0  0  0
  -25.9038  -34.9464   23.5113 C   0  0  0  0  0  0
  -16.5352  -29.9081   23.6321 C   0  0  0  0  0  0
  -16.7267  -28.6497   23.0345 C   0  0  0  0  0  0
  -26.4482  -31.6601   25.0728 C   0  0  0  0  0  0
  -25.3733  -31.3752   26.1475 C   0  0  0  0  0  0
  -27.0314  -30.3027   24.6162 C   0  0  0  0  0  0
  -27.6029  -32.4347   25.7506 C   0  0  0  0  0  0
  -27.5573  -37.1806   24.8457 C   0  0  0  0  0  0
  -21.4178  -29.3031   22.3689 N   0  0  0  0  0  0
  -26.4279  -37.3789   23.9415 N   0  0  0  0  0  0
  -24.6788  -31.0695   22.0985 N   0  0  0  0  0  0
  -23.4206  -28.8174   23.3009 O   0  0  0  0  0  0
  -28.3607  -26.5741   20.1824 O   0  0  0  0  0  0
  -26.5610  -34.8926   22.4678 O   0  0  0  0  0  0
  -23.5398  -32.1405   23.7427 O   0  0  0  0  0  0
  -32.0440  -18.8488   21.0494 C   0  0  0  0  0  0
  -31.6892  -17.4897   20.9963 C   0  0  0  0  0  0
  -29.3595  -18.1088   21.2463 C   0  0  0  0  0  0
  -31.0728  -19.8554   21.2158 C   0  0  0  0  0  0
  -29.7034  -19.5031   21.3223 C   0  0  0  0  0  0
  -30.3384  -17.0720   21.0672 C   0  0  0  0  0  0
  -27.2683  -21.0858   19.7456 C   0  0  0  0  0  0
  -28.4242  -22.9421   20.7437 C   0  0  0  0  0  0
  -26.4668  -22.0233   18.8389 C   0  0  0  0  0  0
  -27.2290  -23.3106   18.5399 C   0  0  0  0  0  0
  -27.7022  -24.0048   19.8307 C   0  0  2  0  0  0
  -31.5533  -21.2921   21.3430 C   0  0  0  0  0  0
  -28.6440  -20.5964   21.6814 C   0  0  0  0  0  0
  -28.4931  -25.3276   19.4368 C   0  0  0  0  0  0
  -28.1576  -21.5849   20.6490 N   0  0  0  0  0  0
  -29.9633  -15.6592   21.0050 N   0  0  0  0  0  0
  -27.0218  -19.8770   19.6465 O   0  0  0  0  0  0
  -29.2058  -23.3826   21.5920 O   0  0  0  0  0  0
  -31.4747  -12.4498   19.1800 H   0  0  0  0  0  0
  -30.3234  -11.3621   19.8944 H   0  0  0  0  0  0
  -29.7833  -11.7766   17.4744 H   0  0  0  0  0  0
  -29.6842  -13.4934   17.7733 H   0  0  0  0  0  0
  -27.8465  -11.3153   18.8330 H   0  0  0  0  0  0
  -27.3913  -12.6360   17.7864 H   0  0  0  0  0  0
  -27.6874  -14.2613   19.5498 H   0  0  0  0  0  0
  -28.6912  -12.0362   21.3837 H   0  0  0  0  0  0
  -28.4417  -13.6865   21.8593 H   0  0  0  0  0  0
  -25.2764   -9.5697   22.4718 H   0  0  0  0  0  0
  -24.0010   -7.4640   22.7443 H   0  0  0  0  0  0
  -21.0836   -8.8757   19.8963 H   0  0  0  0  0  0
  -22.3666  -10.9664   19.6148 H   0  0  0  0  0  0
  -21.2032   -7.6142   23.9708 H   0  0  0  0  0  0
  -21.1496   -6.0513   25.9063 H   0  0  0  0  0  0
  -22.0593   -2.7606   23.2832 H   0  0  0  0  0  0
  -22.4115  -11.9908   22.4808 H   0  0  0  0  0  0
  -21.1112  -13.1276   22.2579 H   0  0  0  0  0  0
  -24.6660  -15.8439   20.4991 H   0  0  0  0  0  0
  -26.2749  -15.6167   20.0437 H   0  0  0  0  0  0
  -26.7160  -32.5467   23.1120 H   0  0  0  0  0  0
  -25.0076  -33.9734   25.0444 H   0  0  0  0  0  0
  -22.7038  -31.3078   21.4088 H   0  0  0  0  0  0
  -23.3742  -35.9632   23.3304 H   0  0  0  0  0  0
  -24.3569  -36.8916   22.2053 H   0  0  0  0  0  0
  -23.7227  -37.6500   23.6650 H   0  0  0  0  0  0
  -26.0769  -31.5707   20.6029 H   0  0  0  0  0  0
  -26.8320  -30.8520   21.9956 H   0  0  0  0  0  0
  -28.0984  -29.0214   21.1821 H   0  0  0  0  0  0
  -25.9886  -25.9566   18.9869 H   0  0  0  0  0  0
  -23.9636  -27.3050   19.0202 H   0  0  0  0  0  0
  -23.7506  -30.6058   19.4078 H   0  0  0  0  0  0
  -22.7418  -29.2617   19.8514 H   0  0  0  0  0  0
  -25.1279  -36.1954   25.0821 H   0  0  0  0  0  0
  -20.9970  -28.3244   24.1412 H   0  0  0  0  0  0
  -20.5657  -26.2284   23.3611 H   0  0  0  0  0  0
  -21.6636  -26.7424   22.1212 H   0  0  0  0  0  0
  -19.6904  -25.6294   21.1225 H   0  0  0  0  0  0
  -19.6677  -27.3199   20.6745 H   0  0  0  0  0  0
  -17.4194  -26.6659   21.4024 H   0  0  0  0  0  0
  -18.0329  -26.0054   22.9017 H   0  0  0  0  0  0
  -19.7933  -30.7245   24.2281 H   0  0  0  0  0  0
  -17.5016  -31.6253   24.5175 H   0  0  0  0  0  0
  -15.5354  -30.2986   23.7634 H   0  0  0  0  0  0
  -15.8669  -28.0820   22.7056 H   0  0  0  0  0  0
  -24.5862  -30.7147   25.7825 H   0  0  0  0  0  0
  -24.8981  -32.2935   26.4935 H   0  0  0  0  0  0
  -25.8067  -30.8902   27.0232 H   0  0  0  0  0  0
  -26.2879  -29.6806   24.1165 H   0  0  0  0  0  0
  -27.3997  -29.7252   25.4655 H   0  0  0  0  0  0
  -27.8756  -30.4317   23.9384 H   0  0  0  0  0  0
  -27.2604  -33.3635   26.2084 H   0  0  0  0  0  0
  -28.3837  -32.6942   25.0345 H   0  0  0  0  0  0
  -28.0698  -31.8487   26.5434 H   0  0  0  0  0  0
  -28.2589  -38.0110   24.7518 H   0  0  0  0  0  0
  -28.1075  -36.2640   24.6260 H   0  0  0  0  0  0
  -27.2299  -37.1435   25.8864 H   0  0  0  0  0  0
  -20.9355  -29.8768   21.6914 H   0  0  0  0  0  0
  -26.0167  -38.2864   24.1421 H   0  0  0  0  0  0
  -33.0915  -19.1142   20.9972 H   0  0  0  0  0  0
  -32.5031  -16.7858   20.9159 H   0  0  0  0  0  0
  -28.3198  -17.8342   21.3597 H   0  0  0  0  0  0
  -25.5211  -22.2505   19.3344 H   0  0  0  0  0  0
  -26.2147  -21.5069   17.9108 H   0  0  0  0  0  0
  -26.5843  -23.9712   17.9609 H   0  0  0  0  0  0
  -28.0860  -23.0860   17.9018 H   0  0  0  0  0  0
  -26.8156  -24.3050   20.3893 H   0  0  0  0  0  0
  -32.6376  -21.3414   21.4431 H   0  0  0  0  0  0
  -31.1425  -21.7781   22.2281 H   0  0  0  0  0  0
  -31.2813  -21.8701   20.4593 H   0  0  0  0  0  0
  -29.0156  -21.1178   22.5634 H   0  0  0  0  0  0
  -27.7684  -20.0834   22.0868 H   0  0  0  0  0  0
  -28.2870  -25.5772   18.3945 H   0  0  0  0  0  0
  -29.5585  -25.0937   19.4343 H   0  0  0  0  0  0
  -29.0078  -15.4521   21.2522 H   0  0  0  0  0  0
  1 25  1  0  0  0
  1 30  2  0  0  0
  1 86  1  0  0  0
  2  3  1  0  0  0
  2 25  1  0  0  0
  2 89  1  0  0  0
  2 90  1  0  0  0
  3  4  1  0  0  0
  3 91  1  0  0  0
  3 92  1  0  0  0
  4  5  1  0  0  0
  4 93  1  0  0  0
  4 94  1  0  0  0
  5  6  1  0  0  0
  5 26  1  0  0  0
  5 95  1  0  0  0
  6 25  1  0  0  0
  6 96  1  0  0  0
  6 97  1  0  0  0
  7  8  2  0  0  0
  7 26  1  0  0  0
  7 29  1  0  0  0
  8  9  1  0  0  0
  8 22  1  0  0  0
  9 10  1  0  0  0
  9 27  2  0  0  0
 10 11  2  0  0  0
 10 15  1  0  0  0
 11 12  1  0  0  0
 11 98  1  0  0  0
 12 13  2  0  0  0
 12 99  1  0  0  0
 13 14  1  0  0  0
 13 31  1  0  0  0
 14 15  2  0  0  0
 14100  1  0  0  0
 15101  1  0  0  0
 16 17  2  0  0  0
 16 21  1  0  0  0
 16 31  1  0  0  0
 17 18  1  0  0  0
 17102  1  0  0  0
 18 19  2  0  0  0
 18103  1  0  0  0
 19 20  1  0  0  0
 19 24  1  0  0  0
 20 21  2  0  0  0
 20104  1  0  0  0
 21 23  1  0  0  0
 22 28  1  0  0  0
 22 32  2  0  0  0
 26 27  1  0  0  0
 28105  1  0  0  0
 28106  1  0  0  0
 29107  1  0  0  0
 29108  1  0  0  0
 33 34  1  0  0  0
 33 66  1  0  0  0
 33 70  2  0  0  0
 34 36  1  0  0  0
 34 59  1  0  0  0
 34109  1  0  0  0
 35 44  2  0  0  0
 35 45  1  0  0  0
 35 68  1  0  0  0
 36 56  1  0  0  0
 36110  1  0  0  0
 37 39  1  0  0  0
 37 47  1  0  0  0
 37 66  1  0  0  0
 37111  1  0  0  0
 38 43  2  0  0  0
 38 46  1  0  0  0
 38 47  1  0  0  0
 39 64  1  0  0  0
 39 67  2  0  0  0
 40 52  1  0  0  0
 40 53  2  0  0  0
 40 58  1  0  0  0
 41112  1  0  0  0
 41113  1  0  0  0
 41114  1  0  0  0
 41 48  1  0  0  0
 42 43  1  0  0  0
 42 66  1  0  0  0
 42115  1  0  0  0
 42116  1  0  0  0
 43 44  1  0  0  0
 44117  1  0  0  0
 45 46  2  0  0  0
 45118  1  0  0  0
 46119  1  0  0  0
 47120  1  0  0  0
 47121  1  0  0  0
 48 56  1  0  0  0
 48 65  1  0  0  0
 48122  1  0  0  0
 49 50  1  0  0  0
 49 53  1  0  0  0
 49 64  1  0  0  0
 49123  1  0  0  0
 50 51  1  0  0  0
 50124  1  0  0  0
 50125  1  0  0  0
 51 52  1  0  0  0
 51126  1  0  0  0
 51127  1  0  0  0
 52128  1  0  0  0
 52129  1  0  0  0
 53 54  1  0  0  0
 54 55  2  0  0  0
 54130  1  0  0  0
 55 57  1  0  0  0
 55131  1  0  0  0
 56 69  2  0  0  0
 57 58  2  0  0  0
 57132  1  0  0  0
 58133  1  0  0  0
 59 60  1  0  0  0
 59 61  1  0  0  0
 59 62  1  0  0  0
 60134  1  0  0  0
 60135  1  0  0  0
 60136  1  0  0  0
 61137  1  0  0  0
 61138  1  0  0  0
 61139  1  0  0  0
 62140  1  0  0  0
 62141  1  0  0  0
 62142  1  0  0  0
 63 65  1  0  0  0
 63143  1  0  0  0
 63144  1  0  0  0
 63145  1  0  0  0
 64146  1  0  0  0
 65147  1  0  0  0
 68 84  1  0  0  0
 71 72  2  0  0  0
 71 74  1  0  0  0
 71148  1  0  0  0
 72 76  1  0  0  0
 72149  1  0  0  0
 73 75  1  0  0  0
 73 76  2  0  0  0
 73150  1  0  0  0
 74 75  2  0  0  0
 74 82  1  0  0  0
 75 83  1  0  0  0
 76 86  1  0  0  0
 77 79  1  0  0  0
 77 85  1  0  0  0
 77 87  2  0  0  0
 78 81  1  0  0  0
 78 85  1  0  0  0
 78 88  2  0  0  0
 79 80  1  0  0  0
 79151  1  0  0  0
 79152  1  0  0  0
 80 81  1  0  0  0
 80153  1  0  0  0
 80154  1  0  0  0
 81 84  1  0  0  0
 81155  1  0  0  0
 82156  1  0  0  0
 82157  1  0  0  0
 82158  1  0  0  0
 83 85  1  0  0  0
 83159  1  0  0  0
 83160  1  0  0  0
 84161  1  0  0  0
 84162  1  0  0  0
 86163  1  0  0  0
M  ISO  4   1 100  68 101  84 101  86 100
M  END
> <chiral flag>
0

> <version>
0

> <s_m_source_file>
/data/baiqing/PycharmProjects/Reinvent-master-3.2/result/LINK_invent/BTK/process_docking_weight1_custom_product_contain_oxygen_bond_distance_aromatic_linkinvent_7_9_3/rearranged_h_0056.sdf

> <i_m_source_file_index>
36

> <r_mmod_Potential_Energy-OPLS-2005>
-29.7566623687744

> <r_mmod_Stretch_Energy-OPLS-2005>
76.1169738769531

> <r_mmod_Bend_Energy-OPLS-2005>
150.047317504883

> <r_mmod_Torsional_Energy-OPLS-2005>
201.285842895508

> <r_mmod_Improper_Torsional_Energy-OPLS-2005>
5.19477987289429

> <r_mmod_Van_der_Waal_Energy-OPLS-2005>
171.459655761719

> <r_mmod_Electrostatic_Energy-OPLS-2005>
-434.249206542969

> <r_mmod_Solvation_Energy-OPLS-2005>
-230.752288818359

> <b_mmod_Minimization_Converged-OPLS-2005>
0

> <r_mmod_RMS_Derivative-OPLS-2005>
2.9392192363739

$$$$
36
                    3D
 Structure written by MMmdl.
161169  0  0  1  0            999 V2000
  -30.7166  -14.4463   20.6100 C   0  0  0  0  0  0
  -30.4087  -12.2963   19.4272 C   0  0  0  0  0  0
  -29.4907  -12.4862   18.2052 C   0  0  0  0  0  0
  -28.0102  -12.3514   18.6129 C   0  0  0  0  0  0
  -27.6508  -13.2050   19.8591 C   0  0  2  0  0  0
  -28.6852  -12.9959   20.9857 C   0  0  0  0  0  0
  -25.2533  -13.8168   20.5635 C   0  0  0  0  0  0
  -24.1800  -13.0438   20.9174 C   0  0  0  0  0  0
  -24.6355  -11.6908   20.8728 C   0  0  0  0  0  0
  -23.9032  -10.4294   21.0399 C   0  0  0  0  0  0
  -24.3589   -9.4212   21.9178 C   0  0  0  0  0  0
  -23.6278   -8.2242   22.0752 C   0  0  0  0  0  0
  -22.4267   -8.0270   21.3541 C   0  0  0  0  0  0
  -21.9888   -9.0238   20.4640 C   0  0  0  0  0  0
  -22.7208  -10.2125   20.3045 C   0  0  0  0  0  0
  -21.6847   -6.0735   22.5283 C   0  0  0  0  0  0
  -21.4015   -6.5641   23.8215 C   0  0  0  0  0  0
  -21.3658   -5.6792   24.9178 C   0  0  0  0  0  0
  -21.6041   -4.3056   24.7228 C   0  0  0  0  0  0
  -21.8816   -3.8148   23.4351 C   0  0  0  0  0  0
  -21.9190   -4.6965   22.3405 C   0  0  0  0  0  0
  -22.7825  -13.5234   21.1861 C   0  0  0  0  0  0
  -22.1658   -4.2148   21.0982 F   0  0  0  0  0  0
  -21.5626   -3.4539   25.7740 F   0  0  0  0  0  0
  -30.0161  -13.2946   20.4322 N   0  0  0  0  0  0
  -26.2936  -12.9328   20.3245 N   0  0  0  0  0  0
  -25.9260  -11.6487   20.5689 N   0  0  0  0  0  0
  -22.0470  -12.8222   22.0423 N   0  0  0  0  0  0
  -25.4293  -15.1879   20.4071 N   0  0  0  0  0  0
  -31.8340  -14.6314   20.1130 O   0  0  0  0  0  0
  -21.6634   -6.8874   21.4245 O   0  0  0  0  0  0
  -22.3504  -14.5538   20.6711 O   0  0  0  0  0  0
  -24.6128  -31.8698   23.2121 C   0  0  0  0  0  0
  -25.9027  -32.4836   23.8384 C   0  0  1  0  0  0
  -27.2279  -27.4156   20.0949 C   0  0  0  0  0  0
  -25.5898  -33.8630   24.2329 N   0  0  0  0  0  0
  -23.3980  -30.4949   21.5533 C   0  0  2  0  0  0
  -24.8425  -28.9621   20.1170 C   0  0  0  0  0  0
  -22.7411  -29.4681   22.5027 C   0  0  0  0  0  0
  -18.0259  -28.1387   22.8503 C   0  0  0  0  0  0
  -24.1468  -36.7282   23.2642 C   0  0  0  0  0  0
  -25.9322  -30.8288   21.3700 C   0  0  0  0  0  0
  -26.0047  -29.4639   20.7125 C   0  0  0  0  0  0
  -27.1962  -28.7008   20.6968 C   0  0  0  0  0  0
  -26.0410  -26.9432   19.4799 C   0  0  0  0  0  0
  -24.8583  -27.7025   19.4989 C   0  0  0  0  0  0
  -23.6052  -29.8277   20.1701 C   0  0  0  0  0  0
  -25.4110  -36.3111   24.0338 C   0  0  1  0  0  0
  -20.5855  -28.3652   23.1343 C   0  0  2  0  0  0
  -20.6770  -26.9398   22.5436 C   0  0  0  0  0  0
  -19.5744  -26.6391   21.5238 C   0  0  0  0  0  0
  -18.1907  -26.7935   22.1640 C   0  0  0  0  0  0
  -19.1509  -28.8844   23.2905 C   0  0  0  0  0  0
  -18.9458  -30.1458   23.8897 C   0  0  0  0  0  0
  -17.6470  -30.6605   24.0563 C   0  0  0  0  0  0
  -25.9042  -34.9483   23.5134 C   0  0  0  0  0  0
  -16.5349  -29.9099   23.6345 C   0  0  0  0  0  0
  -16.7257  -28.6516   23.0359 C   0  0  0  0  0  0
  -26.4450  -31.6617   25.0718 C   0  0  0  0  0  0
  -25.3721  -31.3726   26.1473 C   0  0  0  0  0  0
  -27.0280  -30.3058   24.6106 C   0  0  0  0  0  0
  -27.6023  -32.4356   25.7471 C   0  0  0  0  0  0
  -27.5577  -37.1794   24.8488 C   0  0  0  0  0  0
  -21.4147  -29.3004   22.3764 N   0  0  0  0  0  0
  -26.4290  -37.3815   23.9414 N   0  0  0  0  0  0
  -24.6655  -31.0799   22.1032 N   0  0  0  0  0  0
  -23.4210  -28.8250   23.3070 O   0  0  0  0  0  0
  -28.4178  -26.7002   20.1345 O   0  0  0  0  0  0
  -26.5612  -34.8938   22.4698 O   0  0  0  0  0  0
  -23.5334  -32.1446   23.7531 O   0  0  0  0  0  0
  -32.2071  -16.9146   23.9223 C   0  0  0  0  0  0
  -31.5921  -15.9901   23.0676 C   0  0  0  0  0  0
  -30.4361  -17.8215   21.9256 C   0  0  0  0  0  0
  -31.9614  -18.2934   23.7789 C   0  0  0  0  0  0
  -31.0845  -18.7733   22.7650 C   0  0  0  0  0  0
  -30.7095  -16.4296   22.0589 C   0  0  0  0  0  0
  -29.2112  -23.0648   20.7070 C   0  0  0  0  0  0
  -28.9627  -24.3910   20.8515 C   0  0  0  0  0  0
  -29.6290  -22.2451   21.8531 C   0  0  0  0  0  0
  -32.6503  -19.2389   24.7559 C   0  0  0  0  0  0
  -30.5470  -20.5854   20.2295 C   0  0  0  0  0  0
  -30.8781  -20.3080   22.7038 C   0  0  0  0  0  0
  -28.4890  -25.3139   19.7317 C   0  0  0  0  0  0
  -30.0734  -15.4418   21.2532 N   0  0  0  0  0  0
  -30.2044  -21.0269   21.5874 N   0  0  0  0  0  0
  -29.4829  -22.6511   23.0119 O   0  0  0  0  0  0
  -31.4576  -12.3805   19.1386 H   0  0  0  0  0  0
  -30.2971  -11.2909   19.8367 H   0  0  0  0  0  0
  -29.7349  -11.7525   17.4352 H   0  0  0  0  0  0
  -29.6646  -13.4678   17.7614 H   0  0  0  0  0  0
  -27.8250  -11.2970   18.8235 H   0  0  0  0  0  0
  -27.3614  -12.6083   17.7746 H   0  0  0  0  0  0
  -27.6912  -14.2495   19.5464 H   0  0  0  0  0  0
  -28.6537  -11.9622   21.3326 H   0  0  0  0  0  0
  -28.4357  -13.6029   21.8558 H   0  0  0  0  0  0
  -25.2739   -9.5696   22.4752 H   0  0  0  0  0  0
  -23.9993   -7.4635   22.7461 H   0  0  0  0  0  0
  -21.0828   -8.8738   19.8939 H   0  0  0  0  0  0
  -22.3661  -10.9650   19.6143 H   0  0  0  0  0  0
  -21.2011   -7.6148   23.9720 H   0  0  0  0  0  0
  -21.1480   -6.0524   25.9078 H   0  0  0  0  0  0
  -22.0597   -2.7608   23.2847 H   0  0  0  0  0  0
  -22.4084  -11.9872   22.4797 H   0  0  0  0  0  0
  -21.1084  -13.1228   22.2635 H   0  0  0  0  0  0
  -24.6676  -15.8482   20.5154 H   0  0  0  0  0  0
  -26.2851  -15.6218   20.0839 H   0  0  0  0  0  0
  -26.7095  -32.5549   23.1138 H   0  0  0  0  0  0
  -25.0059  -33.9794   25.0475 H   0  0  0  0  0  0
  -22.6824  -31.3091   21.4182 H   0  0  0  0  0  0
  -23.3764  -35.9587   23.3348 H   0  0  0  0  0  0
  -24.3565  -36.8855   22.2054 H   0  0  0  0  0  0
  -23.7188  -37.6477   23.6636 H   0  0  0  0  0  0
  -26.0545  -31.5966   20.6053 H   0  0  0  0  0  0
  -26.8193  -30.8761   21.9922 H   0  0  0  0  0  0
  -28.0929  -29.0946   21.1525 H   0  0  0  0  0  0
  -25.9729  -25.9996   18.9634 H   0  0  0  0  0  0
  -23.9661  -27.3100   19.0330 H   0  0  0  0  0  0
  -23.7126  -30.6031   19.4097 H   0  0  0  0  0  0
  -22.7270  -29.2457   19.8789 H   0  0  0  0  0  0
  -25.1283  -36.1976   25.0834 H   0  0  0  0  0  0
  -20.9911  -28.3199   24.1475 H   0  0  0  0  0  0
  -20.5723  -26.2239   23.3599 H   0  0  0  0  0  0
  -21.6627  -26.7484   22.1186 H   0  0  0  0  0  0
  -19.6908  -25.6304   21.1242 H   0  0  0  0  0  0
  -19.6682  -27.3226   20.6787 H   0  0  0  0  0  0
  -17.4184  -26.6681   21.4031 H   0  0  0  0  0  0
  -18.0295  -26.0065   22.9028 H   0  0  0  0  0  0
  -19.7935  -30.7267   24.2250 H   0  0  0  0  0  0
  -17.5030  -31.6290   24.5155 H   0  0  0  0  0  0
  -15.5351  -30.3018   23.7692 H   0  0  0  0  0  0
  -15.8639  -28.0863   22.7080 H   0  0  0  0  0  0
  -24.5898  -30.7063   25.7824 H   0  0  0  0  0  0
  -24.8893  -32.2878   26.4910 H   0  0  0  0  0  0
  -25.8079  -30.8915   27.0228 H   0  0  0  0  0  0
  -26.2831  -29.6847   24.1119 H   0  0  0  0  0  0
  -27.4000  -29.7283   25.4566 H   0  0  0  0  0  0
  -27.8678  -30.4386   23.9286 H   0  0  0  0  0  0
  -27.2629  -33.3657   26.2036 H   0  0  0  0  0  0
  -28.3804  -32.6925   25.0276 H   0  0  0  0  0  0
  -28.0694  -31.8489   26.5380 H   0  0  0  0  0  0
  -28.2622  -38.0065   24.7530 H   0  0  0  0  0  0
  -28.1033  -36.2603   24.6318 H   0  0  0  0  0  0
  -27.2285  -37.1443   25.8886 H   0  0  0  0  0  0
  -20.9332  -29.8635   21.6885 H   0  0  0  0  0  0
  -26.0181  -38.2883   24.1456 H   0  0  0  0  0  0
  -32.8677  -16.5505   24.6985 H   0  0  0  0  0  0
  -31.7919  -14.9361   23.2036 H   0  0  0  0  0  0
  -29.7372  -18.1525   21.1730 H   0  0  0  0  0  0
  -29.0741  -22.6190   19.7334 H   0  0  0  0  0  0
  -29.0918  -24.8624   21.8154 H   0  0  0  0  0  0
  -31.9336  -19.8886   25.2585 H   0  0  0  0  0  0
  -33.3821  -19.8625   24.2402 H   0  0  0  0  0  0
  -33.1852  -18.6892   25.5317 H   0  0  0  0  0  0
  -31.0411  -21.3817   19.6700 H   0  0  0  0  0  0
  -29.6514  -20.2810   19.6860 H   0  0  0  0  0  0
  -31.2477  -19.7515   20.2321 H   0  0  0  0  0  0
  -31.8689  -20.7635   22.7423 H   0  0  0  0  0  0
  -30.4031  -20.5529   23.6543 H   0  0  0  0  0  0
  -29.2041  -25.2519   18.9087 H   0  0  0  0  0  0
  -27.5723  -24.8788   19.3539 H   0  0  0  0  0  0
  -29.0830  -15.3106   21.4035 H   0  0  0  0  0  0
  1 25  1  0  0  0
  1 30  2  0  0  0
  1 84  1  0  0  0
  2  3  1  0  0  0
  2 25  1  0  0  0
  2 87  1  0  0  0
  2 88  1  0  0  0
  3  4  1  0  0  0
  3 89  1  0  0  0
  3 90  1  0  0  0
  4  5  1  0  0  0
  4 91  1  0  0  0
  4 92  1  0  0  0
  5  6  1  0  0  0
  5 26  1  0  0  0
  5 93  1  0  0  0
  6 25  1  0  0  0
  6 94  1  0  0  0
  6 95  1  0  0  0
  7  8  2  0  0  0
  7 26  1  0  0  0
  7 29  1  0  0  0
  8  9  1  0  0  0
  8 22  1  0  0  0
  9 10  1  0  0  0
  9 27  2  0  0  0
 10 11  2  0  0  0
 10 15  1  0  0  0
 11 12  1  0  0  0
 11 96  1  0  0  0
 12 13  2  0  0  0
 12 97  1  0  0  0
 13 14  1  0  0  0
 13 31  1  0  0  0
 14 15  2  0  0  0
 14 98  1  0  0  0
 15 99  1  0  0  0
 16 17  2  0  0  0
 16 21  1  0  0  0
 16 31  1  0  0  0
 17 18  1  0  0  0
 17100  1  0  0  0
 18 19  2  0  0  0
 18101  1  0  0  0
 19 20  1  0  0  0
 19 24  1  0  0  0
 20 21  2  0  0  0
 20102  1  0  0  0
 21 23  1  0  0  0
 22 28  1  0  0  0
 22 32  2  0  0  0
 26 27  1  0  0  0
 28103  1  0  0  0
 28104  1  0  0  0
 29105  1  0  0  0
 29106  1  0  0  0
 33 34  1  0  0  0
 33 66  1  0  0  0
 33 70  2  0  0  0
 34 36  1  0  0  0
 34 59  1  0  0  0
 34107  1  0  0  0
 35 44  2  0  0  0
 35 45  1  0  0  0
 35 68  1  0  0  0
 36 56  1  0  0  0
 36108  1  0  0  0
 37 39  1  0  0  0
 37 47  1  0  0  0
 37 66  1  0  0  0
 37109  1  0  0  0
 38 43  2  0  0  0
 38 46  1  0  0  0
 38 47  1  0  0  0
 39 64  1  0  0  0
 39 67  2  0  0  0
 40 52  1  0  0  0
 40 53  2  0  0  0
 40 58  1  0  0  0
 41110  1  0  0  0
 41111  1  0  0  0
 41112  1  0  0  0
 41 48  1  0  0  0
 42 43  1  0  0  0
 42 66  1  0  0  0
 42113  1  0  0  0
 42114  1  0  0  0
 43 44  1  0  0  0
 44115  1  0  0  0
 45 46  2  0  0  0
 45116  1  0  0  0
 46117  1  0  0  0
 47118  1  0  0  0
 47119  1  0  0  0
 48 56  1  0  0  0
 48 65  1  0  0  0
 48120  1  0  0  0
 49 50  1  0  0  0
 49 53  1  0  0  0
 49 64  1  0  0  0
 49121  1  0  0  0
 50 51  1  0  0  0
 50122  1  0  0  0
 50123  1  0  0  0
 51 52  1  0  0  0
 51124  1  0  0  0
 51125  1  0  0  0
 52126  1  0  0  0
 52127  1  0  0  0
 53 54  1  0  0  0
 54 55  2  0  0  0
 54128  1  0  0  0
 55 57  1  0  0  0
 55129  1  0  0  0
 56 69  2  0  0  0
 57 58  2  0  0  0
 57130  1  0  0  0
 58131  1  0  0  0
 59 60  1  0  0  0
 59 61  1  0  0  0
 59 62  1  0  0  0
 60132  1  0  0  0
 60133  1  0  0  0
 60134  1  0  0  0
 61135  1  0  0  0
 61136  1  0  0  0
 61137  1  0  0  0
 62138  1  0  0  0
 62139  1  0  0  0
 62140  1  0  0  0
 63 65  1  0  0  0
 63141  1  0  0  0
 63142  1  0  0  0
 63143  1  0  0  0
 64144  1  0  0  0
 65145  1  0  0  0
 68 83  1  0  0  0
 71 72  2  0  0  0
 71 74  1  0  0  0
 71146  1  0  0  0
 72 76  1  0  0  0
 72147  1  0  0  0
 73 75  1  0  0  0
 73 76  2  0  0  0
 73148  1  0  0  0
 74 75  2  0  0  0
 74 80  1  0  0  0
 75 82  1  0  0  0
 76 84  1  0  0  0
 77 78  2  0  0  0
 77 79  1  0  0  0
 77149  1  0  0  0
 78 83  1  0  0  0
 78150  1  0  0  0
 79 85  1  0  0  0
 79 86  2  0  0  0
 80151  1  0  0  0
 80152  1  0  0  0
 80153  1  0  0  0
 81 85  1  0  0  0
 81154  1  0  0  0
 81155  1  0  0  0
 81156  1  0  0  0
 82 85  1  0  0  0
 82157  1  0  0  0
 82158  1  0  0  0
 83159  1  0  0  0
 83160  1  0  0  0
 84161  1  0  0  0
M  ISO  4   1 100  68 101  83 101  84 100
M  END
> <chiral flag>
0

> <version>
0

> <s_m_source_file>
/data/baiqing/PycharmProjects/Reinvent-master-3.2/result/LINK_invent/BTK/process_docking_weight1_custom_product_contain_oxygen_bond_distance_aromatic_linkinvent_7_9_3/rearranged_h_0056.sdf

> <i_m_source_file_index>
37

> <r_mmod_Potential_Energy-OPLS-2005>
-14.9768238067627

> <r_mmod_Stretch_Energy-OPLS-2005>
47.679141998291

> <r_mmod_Bend_Energy-OPLS-2005>
130.268630981445

> <r_mmod_Torsional_Energy-OPLS-2005>
243.962707519531

> <r_mmod_Improper_Torsional_Energy-OPLS-2005>
4.69213485717773

> <r_mmod_Van_der_Waal_Energy-OPLS-2005>
182.781021118164

> <r_mmod_Electrostatic_Energy-OPLS-2005>
-404.363098144531

> <r_mmod_Solvation_Energy-OPLS-2005>
-233.858489990234

> <b_mmod_Minimization_Converged-OPLS-2005>
0

> <r_mmod_RMS_Derivative-OPLS-2005>
3.67152190208435

$$$$
37
                    3D
 Structure written by MMmdl.
163171  0  0  1  0            999 V2000
  -30.7199  -14.5211   20.4688 C   0  0  0  0  0  0
  -30.4105  -12.3145   19.4533 C   0  0  0  0  0  0
  -29.4987  -12.4753   18.2198 C   0  0  0  0  0  0
  -28.0201  -12.3433   18.6295 C   0  0  0  0  0  0
  -27.6498  -13.2225   19.8551 C   0  0  2  0  0  0
  -28.6936  -13.0957   20.9886 C   0  0  0  0  0  0
  -25.2521  -13.8205   20.5682 C   0  0  0  0  0  0
  -24.1806  -13.0458   20.9222 C   0  0  0  0  0  0
  -24.6390  -11.6933   20.8752 C   0  0  0  0  0  0
  -23.9072  -10.4302   21.0408 C   0  0  0  0  0  0
  -24.3621   -9.4217   21.9189 C   0  0  0  0  0  0
  -23.6312   -8.2249   22.0750 C   0  0  0  0  0  0
  -22.4293   -8.0282   21.3539 C   0  0  0  0  0  0
  -21.9925   -9.0261   20.4642 C   0  0  0  0  0  0
  -22.7243  -10.2145   20.3058 C   0  0  0  0  0  0
  -21.6854   -6.0750   22.5293 C   0  0  0  0  0  0
  -21.4012   -6.5648   23.8230 C   0  0  0  0  0  0
  -21.3663   -5.6793   24.9185 C   0  0  0  0  0  0
  -21.6051   -4.3055   24.7229 C   0  0  0  0  0  0
  -21.8808   -3.8158   23.4343 C   0  0  0  0  0  0
  -21.9178   -4.6976   22.3406 C   0  0  0  0  0  0
  -22.7819  -13.5244   21.1864 C   0  0  0  0  0  0
  -22.1642   -4.2163   21.0980 F   0  0  0  0  0  0
  -21.5630   -3.4538   25.7738 F   0  0  0  0  0  0
  -30.0201  -13.3552   20.4168 N   0  0  0  0  0  0
  -26.2964  -12.9409   20.3292 N   0  0  0  0  0  0
  -25.9315  -11.6555   20.5763 N   0  0  0  0  0  0
  -22.0419  -12.8265   22.0402 N   0  0  0  0  0  0
  -25.4206  -15.1924   20.4096 N   0  0  0  0  0  0
  -31.9248  -14.5614   20.2169 O   0  0  0  0  0  0
  -21.6637   -6.8896   21.4256 O   0  0  0  0  0  0
  -22.3519  -14.5535   20.6676 O   0  0  0  0  0  0
  -24.6202  -31.8691   23.2134 C   0  0  0  0  0  0
  -25.9083  -32.4842   23.8427 C   0  0  1  0  0  0
  -27.2094  -27.3863   20.0965 C   0  0  0  0  0  0
  -25.5942  -33.8642   24.2360 N   0  0  0  0  0  0
  -23.4096  -30.5015   21.5525 C   0  0  2  0  0  0
  -24.8492  -28.9749   20.1100 C   0  0  0  0  0  0
  -22.7451  -29.4695   22.4938 C   0  0  0  0  0  0
  -18.0297  -28.1404   22.8489 C   0  0  0  0  0  0
  -24.1486  -36.7335   23.2633 C   0  0  0  0  0  0
  -25.9457  -30.8196   21.3764 C   0  0  0  0  0  0
  -26.0149  -29.4520   20.7219 C   0  0  0  0  0  0
  -27.1941  -28.6632   20.7208 C   0  0  0  0  0  0
  -26.0248  -26.9634   19.4414 C   0  0  0  0  0  0
  -24.8510  -27.7315   19.4679 C   0  0  0  0  0  0
  -23.6214  -29.8537   20.1611 C   0  0  0  0  0  0
  -25.4105  -36.3129   24.0340 C   0  0  1  0  0  0
  -20.5894  -28.3715   23.1285 C   0  0  2  0  0  0
  -20.6802  -26.9450   22.5404 C   0  0  0  0  0  0
  -19.5771  -26.6406   21.5215 C   0  0  0  0  0  0
  -18.1944  -26.7950   22.1620 C   0  0  0  0  0  0
  -19.1545  -28.8866   23.2892 C   0  0  0  0  0  0
  -18.9476  -30.1463   23.8923 C   0  0  0  0  0  0
  -17.6478  -30.6607   24.0573 C   0  0  0  0  0  0
  -25.9043  -34.9495   23.5135 C   0  0  0  0  0  0
  -16.5369  -29.9124   23.6311 C   0  0  0  0  0  0
  -16.7285  -28.6534   23.0341 C   0  0  0  0  0  0
  -26.4485  -31.6621   25.0764 C   0  0  0  0  0  0
  -25.3740  -31.3754   26.1508 C   0  0  0  0  0  0
  -27.0310  -30.3058   24.6149 C   0  0  0  0  0  0
  -27.6060  -32.4337   25.7537 C   0  0  0  0  0  0
  -27.5585  -37.1822   24.8459 C   0  0  0  0  0  0
  -21.4176  -29.3082   22.3673 N   0  0  0  0  0  0
  -26.4290  -37.3815   23.9415 N   0  0  0  0  0  0
  -24.6776  -31.0775   22.1056 N   0  0  0  0  0  0
  -23.4201  -28.8204   23.2972 O   0  0  0  0  0  0
  -28.3444  -26.5799   20.1614 O   0  0  0  0  0  0
  -26.5584  -34.8932   22.4684 O   0  0  0  0  0  0
  -23.5381  -32.1463   23.7494 O   0  0  0  0  0  0
  -31.2272  -19.3452   18.6909 C   0  0  0  0  0  0
  -31.2138  -16.9260   18.7691 C   0  0  0  0  0  0
  -29.9274  -18.1910   20.4137 C   0  0  0  0  0  0
  -31.6563  -18.1183   18.1612 C   0  0  0  0  0  0
  -30.3461  -19.4090   19.7941 C   0  0  0  0  0  0
  -30.3844  -16.9293   19.9215 C   0  0  0  0  0  0
  -32.5871  -18.1287   17.0164 C   0  0  0  0  0  0
  -33.2943  -17.0813   16.5540 C   0  0  0  0  0  0
  -29.9485  -20.7694   20.2337 C   0  0  0  0  0  0
  -34.2296  -17.1428   15.3652 C   0  0  0  0  0  0
  -29.1723  -24.1213   20.2480 C   0  0  0  0  0  0
  -29.7232  -23.1828   19.1340 C   0  0  0  0  0  0
  -28.2244  -25.2169   19.6714 C   0  0  0  0  0  0
  -29.8937  -21.0978   21.5186 N   0  0  0  0  0  0
  -30.0009  -15.6726   20.5374 N   0  0  0  0  0  0
  -29.7108  -21.6932   19.2779 N   0  3  0  0  0  0
  -31.4592  -12.3817   19.1581 H   0  0  0  0  0  0
  -30.2879  -11.3270   19.9003 H   0  0  0  0  0  0
  -29.7476  -11.7218   17.4711 H   0  0  0  0  0  0
  -29.6684  -13.4444   17.7469 H   0  0  0  0  0  0
  -27.8391  -11.2926   18.8597 H   0  0  0  0  0  0
  -27.3712  -12.5795   17.7866 H   0  0  0  0  0  0
  -27.6683  -14.2551   19.5056 H   0  0  0  0  0  0
  -28.6682  -12.0970   21.4293 H   0  0  0  0  0  0
  -28.4703  -13.7929   21.7972 H   0  0  0  0  0  0
  -25.2758   -9.5710   22.4776 H   0  0  0  0  0  0
  -24.0019   -7.4637   22.7475 H   0  0  0  0  0  0
  -21.0849   -8.8796   19.8954 H   0  0  0  0  0  0
  -22.3700  -10.9694   19.6178 H   0  0  0  0  0  0
  -21.2018   -7.6159   23.9754 H   0  0  0  0  0  0
  -21.1493   -6.0510   25.9092 H   0  0  0  0  0  0
  -22.0579   -2.7620   23.2837 H   0  0  0  0  0  0
  -22.4005  -11.9985   22.4907 H   0  0  0  0  0  0
  -21.1024  -13.1325   22.2521 H   0  0  0  0  0  0
  -24.6517  -15.8447   20.5293 H   0  0  0  0  0  0
  -26.2684  -15.6354   20.0777 H   0  0  0  0  0  0
  -26.7154  -32.5524   23.1187 H   0  0  0  0  0  0
  -25.0117  -33.9803   25.0521 H   0  0  0  0  0  0
  -22.7003  -31.3213   21.4211 H   0  0  0  0  0  0
  -23.3749  -35.9668   23.3294 H   0  0  0  0  0  0
  -24.3576  -36.8946   22.2048 H   0  0  0  0  0  0
  -23.7230  -37.6538   23.6640 H   0  0  0  0  0  0
  -26.0629  -31.5805   20.6034 H   0  0  0  0  0  0
  -26.8337  -30.8705   21.9955 H   0  0  0  0  0  0
  -28.0843  -29.0213   21.2188 H   0  0  0  0  0  0
  -25.9537  -26.0387   18.8900 H   0  0  0  0  0  0
  -23.9610  -27.3660   18.9749 H   0  0  0  0  0  0
  -23.7536  -30.6407   19.4179 H   0  0  0  0  0  0
  -22.7389  -29.2961   19.8435 H   0  0  0  0  0  0
  -25.1269  -36.2007   25.0832 H   0  0  0  0  0  0
  -20.9994  -28.3307   24.1404 H   0  0  0  0  0  0
  -20.5741  -26.2337   23.3609 H   0  0  0  0  0  0
  -21.6667  -26.7517   22.1172 H   0  0  0  0  0  0
  -19.6942  -25.6315   21.1256 H   0  0  0  0  0  0
  -19.6704  -27.3211   20.6740 H   0  0  0  0  0  0
  -17.4222  -26.6706   21.4015 H   0  0  0  0  0  0
  -18.0342  -26.0095   22.9021 H   0  0  0  0  0  0
  -19.7948  -30.7259   24.2324 H   0  0  0  0  0  0
  -17.5041  -31.6277   24.5201 H   0  0  0  0  0  0
  -15.5376  -30.3045   23.7612 H   0  0  0  0  0  0
  -15.8683  -28.0864   22.7045 H   0  0  0  0  0  0
  -24.5892  -30.7120   25.7846 H   0  0  0  0  0  0
  -24.8958  -32.2930   26.4951 H   0  0  0  0  0  0
  -25.8078  -30.8919   27.0271 H   0  0  0  0  0  0
  -26.2856  -29.6845   24.1169 H   0  0  0  0  0  0
  -27.4038  -29.7268   25.4606 H   0  0  0  0  0  0
  -27.8715  -30.4378   23.9333 H   0  0  0  0  0  0
  -27.2671  -33.3609   26.2169 H   0  0  0  0  0  0
  -28.3854  -32.6943   25.0368 H   0  0  0  0  0  0
  -28.0753  -31.8435   26.5417 H   0  0  0  0  0  0
  -28.2597  -38.0125   24.7513 H   0  0  0  0  0  0
  -28.1082  -36.2655   24.6270 H   0  0  0  0  0  0
  -27.2304  -37.1459   25.8860 H   0  0  0  0  0  0
  -20.9350  -29.8831   21.6911 H   0  0  0  0  0  0
  -26.0187  -38.2893   24.1420 H   0  0  0  0  0  0
  -31.5955  -20.2560   18.2385 H   0  0  0  0  0  0
  -31.5253  -15.9925   18.3289 H   0  0  0  0  0  0
  -29.2714  -18.2281   21.2711 H   0  0  0  0  0  0
  -32.6912  -19.0761   16.5057 H   0  0  0  0  0  0
  -33.2297  -16.1137   17.0304 H   0  0  0  0  0  0
  -34.2507  -18.1363   14.9179 H   0  0  0  0  0  0
  -33.9109  -16.4353   14.6001 H   0  0  0  0  0  0
  -35.2433  -16.8820   15.6710 H   0  0  0  0  0  0
  -30.0176  -24.6047   20.7389 H   0  0  0  0  0  0
  -28.6482  -23.5610   21.0219 H   0  0  0  0  0  0
  -30.7440  -23.4927   18.9075 H   0  0  0  0  0  0
  -29.1755  -23.3679   18.2089 H   0  0  0  0  0  0
  -27.2379  -24.8047   19.8787 H   0  0  0  0  0  0
  -28.3194  -25.2816   18.5875 H   0  0  0  0  0  0
  -30.1006  -20.4004   22.2183 H   0  0  0  0  0  0
  -29.5944  -22.0089   21.8216 H   0  0  0  0  0  0
  -29.0568  -15.6017   20.8844 H   0  0  0  0  0  0
  -29.6429  -21.2428   18.3717 H   0  0  0  0  0  0
  1 25  1  0  0  0
  1 30  2  0  0  0
  1 85  1  0  0  0
  2  3  1  0  0  0
  2 25  1  0  0  0
  2 87  1  0  0  0
  2 88  1  0  0  0
  3  4  1  0  0  0
  3 89  1  0  0  0
  3 90  1  0  0  0
  4  5  1  0  0  0
  4 91  1  0  0  0
  4 92  1  0  0  0
  5  6  1  0  0  0
  5 26  1  0  0  0
  5 93  1  0  0  0
  6 25  1  0  0  0
  6 94  1  0  0  0
  6 95  1  0  0  0
  7  8  2  0  0  0
  7 26  1  0  0  0
  7 29  1  0  0  0
  8  9  1  0  0  0
  8 22  1  0  0  0
  9 10  1  0  0  0
  9 27  2  0  0  0
 10 11  2  0  0  0
 10 15  1  0  0  0
 11 12  1  0  0  0
 11 96  1  0  0  0
 12 13  2  0  0  0
 12 97  1  0  0  0
 13 14  1  0  0  0
 13 31  1  0  0  0
 14 15  2  0  0  0
 14 98  1  0  0  0
 15 99  1  0  0  0
 16 17  2  0  0  0
 16 21  1  0  0  0
 16 31  1  0  0  0
 17 18  1  0  0  0
 17100  1  0  0  0
 18 19  2  0  0  0
 18101  1  0  0  0
 19 20  1  0  0  0
 19 24  1  0  0  0
 20 21  2  0  0  0
 20102  1  0  0  0
 21 23  1  0  0  0
 22 28  1  0  0  0
 22 32  2  0  0  0
 26 27  1  0  0  0
 28103  1  0  0  0
 28104  1  0  0  0
 29105  1  0  0  0
 29106  1  0  0  0
 33 34  1  0  0  0
 33 66  1  0  0  0
 33 70  2  0  0  0
 34 36  1  0  0  0
 34 59  1  0  0  0
 34107  1  0  0  0
 35 44  2  0  0  0
 35 45  1  0  0  0
 35 68  1  0  0  0
 36 56  1  0  0  0
 36108  1  0  0  0
 37 39  1  0  0  0
 37 47  1  0  0  0
 37 66  1  0  0  0
 37109  1  0  0  0
 38 43  2  0  0  0
 38 46  1  0  0  0
 38 47  1  0  0  0
 39 64  1  0  0  0
 39 67  2  0  0  0
 40 52  1  0  0  0
 40 53  2  0  0  0
 40 58  1  0  0  0
 41110  1  0  0  0
 41111  1  0  0  0
 41112  1  0  0  0
 41 48  1  0  0  0
 42 43  1  0  0  0
 42 66  1  0  0  0
 42113  1  0  0  0
 42114  1  0  0  0
 43 44  1  0  0  0
 44115  1  0  0  0
 45 46  2  0  0  0
 45116  1  0  0  0
 46117  1  0  0  0
 47118  1  0  0  0
 47119  1  0  0  0
 48 56  1  0  0  0
 48 65  1  0  0  0
 48120  1  0  0  0
 49 50  1  0  0  0
 49 53  1  0  0  0
 49 64  1  0  0  0
 49121  1  0  0  0
 50 51  1  0  0  0
 50122  1  0  0  0
 50123  1  0  0  0
 51 52  1  0  0  0
 51124  1  0  0  0
 51125  1  0  0  0
 52126  1  0  0  0
 52127  1  0  0  0
 53 54  1  0  0  0
 54 55  2  0  0  0
 54128  1  0  0  0
 55 57  1  0  0  0
 55129  1  0  0  0
 56 69  2  0  0  0
 57 58  2  0  0  0
 57130  1  0  0  0
 58131  1  0  0  0
 59 60  1  0  0  0
 59 61  1  0  0  0
 59 62  1  0  0  0
 60132  1  0  0  0
 60133  1  0  0  0
 60134  1  0  0  0
 61135  1  0  0  0
 61136  1  0  0  0
 61137  1  0  0  0
 62138  1  0  0  0
 62139  1  0  0  0
 62140  1  0  0  0
 63 65  1  0  0  0
 63141  1  0  0  0
 63142  1  0  0  0
 63143  1  0  0  0
 64144  1  0  0  0
 65145  1  0  0  0
 68 83  1  0  0  0
 71 74  2  0  0  0
 71 75  1  0  0  0
 71146  1  0  0  0
 72 74  1  0  0  0
 72 76  2  0  0  0
 72147  1  0  0  0
 73 75  2  0  0  0
 73 76  1  0  0  0
 73148  1  0  0  0
 74 77  1  0  0  0
 75 79  1  0  0  0
 76 85  1  0  0  0
 77 78  2  0  0  0
 77149  1  0  0  0
 78 80  1  0  0  0
 78150  1  0  0  0
 79 84  1  0  0  0
 79 86  2  0  0  0
 80151  1  0  0  0
 80152  1  0  0  0
 80153  1  0  0  0
 81 82  1  0  0  0
 81 83  1  0  0  0
 81154  1  0  0  0
 81155  1  0  0  0
 82 86  1  0  0  0
 82156  1  0  0  0
 82157  1  0  0  0
 83158  1  0  0  0
 83159  1  0  0  0
 84160  1  0  0  0
 84161  1  0  0  0
 85162  1  0  0  0
 86163  1  0  0  0
M  CHG  1  86   1
M  ISO  4   1 100  68 101  83 101  85 100
M  END
> <chiral flag>
0

> <version>
0

> <s_m_source_file>
/data/baiqing/PycharmProjects/Reinvent-master-3.2/result/LINK_invent/BTK/process_docking_weight1_custom_product_contain_oxygen_bond_distance_aromatic_linkinvent_7_9_3/rearranged_h_0056.sdf

> <i_m_source_file_index>
38

> <r_mmod_Potential_Energy-OPLS-2005>
-150.076202392578

> <r_mmod_Stretch_Energy-OPLS-2005>
49.3468856811523

> <r_mmod_Bend_Energy-OPLS-2005>
143.008346557617

> <r_mmod_Torsional_Energy-OPLS-2005>
259.7421875

> <r_mmod_Improper_Torsional_Energy-OPLS-2005>
7.32541036605835

> <r_mmod_Van_der_Waal_Energy-OPLS-2005>
173.7841796875

> <r_mmod_Electrostatic_Energy-OPLS-2005>
-397.696594238281

> <r_mmod_Solvation_Energy-OPLS-2005>
-420.342498779297

> <b_mmod_Minimization_Converged-OPLS-2005>
0

> <r_mmod_RMS_Derivative-OPLS-2005>
2.3419291973114

$$$$
38
                    3D
 Structure written by MMmdl.
157165  0  0  1  0            999 V2000
  -30.7468  -14.4474   20.5615 C   0  0  0  0  0  0
  -30.4049  -12.2827   19.4436 C   0  0  0  0  0  0
  -29.4972  -12.5078   18.2200 C   0  0  0  0  0  0
  -28.0164  -12.3837   18.6215 C   0  0  0  0  0  0
  -27.6632  -13.2198   19.8813 C   0  0  2  0  0  0
  -28.7013  -13.0306   21.0113 C   0  0  0  0  0  0
  -25.2615  -13.8164   20.5738 C   0  0  0  0  0  0
  -24.1851  -13.0414   20.9182 C   0  0  0  0  0  0
  -24.6422  -11.6891   20.8751 C   0  0  0  0  0  0
  -23.9065  -10.4280   21.0411 C   0  0  0  0  0  0
  -24.3601   -9.4193   21.9188 C   0  0  0  0  0  0
  -23.6283   -8.2232   22.0754 C   0  0  0  0  0  0
  -22.4282   -8.0263   21.3538 C   0  0  0  0  0  0
  -21.9905   -9.0242   20.4658 C   0  0  0  0  0  0
  -22.7222  -10.2131   20.3080 C   0  0  0  0  0  0
  -21.6880   -6.0712   22.5277 C   0  0  0  0  0  0
  -21.4008   -6.5623   23.8193 C   0  0  0  0  0  0
  -21.3666   -5.6790   24.9161 C   0  0  0  0  0  0
  -21.6052   -4.3054   24.7227 C   0  0  0  0  0  0
  -21.8825   -3.8124   23.4359 C   0  0  0  0  0  0
  -21.9187   -4.6930   22.3398 C   0  0  0  0  0  0
  -22.7878  -13.5213   21.1857 C   0  0  0  0  0  0
  -22.1680   -4.2101   21.0988 F   0  0  0  0  0  0
  -21.5625   -3.4554   25.7751 F   0  0  0  0  0  0
  -30.0374  -13.2913   20.4547 N   0  0  0  0  0  0
  -26.3049  -12.9367   20.3416 N   0  0  0  0  0  0
  -25.9355  -11.6509   20.5765 N   0  0  0  0  0  0
  -22.0514  -12.8233   22.0440 N   0  0  0  0  0  0
  -25.4402  -15.1861   20.4206 N   0  0  0  0  0  0
  -31.8880  -14.5371   20.1029 O   0  0  0  0  0  0
  -21.6662   -6.8856   21.4239 O   0  0  0  0  0  0
  -22.3584  -14.5541   20.6734 O   0  0  0  0  0  0
  -24.6062  -31.8725   23.2142 C   0  0  0  0  0  0
  -25.8983  -32.4836   23.8437 C   0  0  1  0  0  0
  -27.2378  -27.4866   20.0844 C   0  0  0  0  0  0
  -25.5907  -33.8641   24.2382 N   0  0  0  0  0  0
  -23.3905  -30.4988   21.5535 C   0  0  2  0  0  0
  -24.8402  -28.9758   20.1076 C   0  0  0  0  0  0
  -22.7432  -29.4660   22.5021 C   0  0  0  0  0  0
  -18.0319  -28.1460   22.8467 C   0  0  0  0  0  0
  -24.1501  -36.7290   23.2650 C   0  0  0  0  0  0
  -25.9155  -30.8546   21.3613 C   0  0  0  0  0  0
  -25.9927  -29.4946   20.7061 C   0  0  0  0  0  0
  -27.1924  -28.7549   20.6967 C   0  0  0  0  0  0
  -26.0645  -26.9714   19.4805 C   0  0  0  0  0  0
  -24.8682  -27.7123   19.4924 C   0  0  0  0  0  0
  -23.5943  -29.8318   20.1632 C   0  0  0  0  0  0
  -25.4106  -36.3088   24.0354 C   0  0  1  0  0  0
  -20.5881  -28.3660   23.1368 C   0  0  2  0  0  0
  -20.6756  -26.9415   22.5432 C   0  0  0  0  0  0
  -19.5817  -26.6576   21.5110 C   0  0  0  0  0  0
  -18.1928  -26.8100   22.1404 C   0  0  0  0  0  0
  -19.1576  -28.8838   23.2972 C   0  0  0  0  0  0
  -18.9524  -30.1412   23.9056 C   0  0  0  0  0  0
  -17.6536  -30.6584   24.0732 C   0  0  0  0  0  0
  -25.9023  -34.9470   23.5148 C   0  0  0  0  0  0
  -16.5408  -29.9129   23.6457 C   0  0  0  0  0  0
  -16.7304  -28.6593   23.0384 C   0  0  0  0  0  0
  -26.4464  -31.6562   25.0715 C   0  0  0  0  0  0
  -25.3779  -31.3659   26.1491 C   0  0  0  0  0  0
  -27.0325  -30.3024   24.6054 C   0  0  0  0  0  0
  -27.6069  -32.4249   25.7447 C   0  0  0  0  0  0
  -27.5571  -37.1791   24.8464 C   0  0  0  0  0  0
  -21.4152  -29.3045   22.3807 N   0  0  0  0  0  0
  -26.4276  -37.3760   23.9422 N   0  0  0  0  0  0
  -24.6552  -31.0885   22.1013 N   0  0  0  0  0  0
  -23.4270  -28.8181   23.2995 O   0  0  0  0  0  0
  -28.4384  -26.8202   20.0799 O   0  0  0  0  0  0
  -26.5613  -34.8908   22.4725 O   0  0  0  0  0  0
  -23.5289  -32.1457   23.7580 O   0  0  0  0  0  0
  -31.6838  -18.7515   19.8876 C   0  0  0  0  0  0
  -30.7932  -19.6871   20.4235 C   0  0  0  0  0  0
  -31.4881  -17.3850   20.1207 C   0  0  0  0  0  0
  -29.4781  -17.8777   21.4050 C   0  0  0  0  0  0
  -29.6756  -19.2641   21.1795 C   0  0  0  0  0  0
  -30.3794  -16.9119   20.8792 C   0  0  0  0  0  0
  -29.3099  -22.6686   21.2539 C   0  0  0  0  0  0
  -28.6771  -20.2993   21.7082 C   0  0  0  0  0  0
  -30.0011  -23.4061   20.1024 C   0  0  0  0  0  0
  -29.8561  -24.9309   20.0940 C   0  0  0  0  0  0
  -28.4139  -25.4106   19.9342 C   0  0  0  0  0  0
  -30.1089  -15.5115   21.0941 N   0  0  0  0  0  0
  -28.7115  -21.5233   20.9082 N   0  0  0  0  0  0
  -29.4021  -23.0698   22.4160 O   0  0  0  0  0  0
  -31.4548  -12.3328   19.1477 H   0  0  0  0  0  0
  -30.2648  -11.2780   19.8442 H   0  0  0  0  0  0
  -29.7361  -11.7941   17.4291 H   0  0  0  0  0  0
  -29.6853  -13.4978   17.8046 H   0  0  0  0  0  0
  -27.8042  -11.3295   18.7929 H   0  0  0  0  0  0
  -27.3805  -12.6915   17.7903 H   0  0  0  0  0  0
  -27.7026  -14.2684   19.5820 H   0  0  0  0  0  0
  -28.6666  -12.0130   21.4024 H   0  0  0  0  0  0
  -28.4742  -13.6802   21.8563 H   0  0  0  0  0  0
  -25.2750   -9.5691   22.4752 H   0  0  0  0  0  0
  -24.0002   -7.4641   22.7490 H   0  0  0  0  0  0
  -21.0818   -8.8746   19.8999 H   0  0  0  0  0  0
  -22.3642  -10.9661   19.6204 H   0  0  0  0  0  0
  -21.2026   -7.6143   23.9672 H   0  0  0  0  0  0
  -21.1492   -6.0543   25.9058 H   0  0  0  0  0  0
  -22.0610   -2.7589   23.2883 H   0  0  0  0  0  0
  -22.4115  -11.9858   22.4770 H   0  0  0  0  0  0
  -21.1143  -13.1298   22.2681 H   0  0  0  0  0  0
  -24.6869  -15.8531   20.5413 H   0  0  0  0  0  0
  -26.3098  -15.6159   20.1264 H   0  0  0  0  0  0
  -26.7065  -32.5596   23.1232 H   0  0  0  0  0  0
  -24.9980  -33.9831   25.0466 H   0  0  0  0  0  0
  -22.6760  -31.3159   21.4206 H   0  0  0  0  0  0
  -23.3731  -35.9647   23.3302 H   0  0  0  0  0  0
  -24.3583  -36.8905   22.2062 H   0  0  0  0  0  0
  -23.7299  -37.6511   23.6664 H   0  0  0  0  0  0
  -26.0342  -31.6227   20.5943 H   0  0  0  0  0  0
  -26.7993  -30.9005   21.9821 H   0  0  0  0  0  0
  -28.0862  -29.1553   21.1595 H   0  0  0  0  0  0
  -26.0657  -26.0165   18.9764 H   0  0  0  0  0  0
  -23.9799  -27.3094   19.0241 H   0  0  0  0  0  0
  -23.6817  -30.6095   19.4041 H   0  0  0  0  0  0
  -22.7263  -29.2357   19.8759 H   0  0  0  0  0  0
  -25.1280  -36.1947   25.0844 H   0  0  0  0  0  0
  -20.9989  -28.3191   24.1480 H   0  0  0  0  0  0
  -20.5591  -26.2198   23.3539 H   0  0  0  0  0  0
  -21.6674  -26.7540   22.1301 H   0  0  0  0  0  0
  -19.7067  -25.6605   21.0882 H   0  0  0  0  0  0
  -19.6942  -27.3605   20.6848 H   0  0  0  0  0  0
  -17.4259  -26.6973   21.3719 H   0  0  0  0  0  0
  -18.0191  -26.0179   22.8678 H   0  0  0  0  0  0
  -19.8014  -30.7192   24.2451 H   0  0  0  0  0  0
  -17.5097  -31.6252   24.5327 H   0  0  0  0  0  0
  -15.5432  -30.3053   23.7804 H   0  0  0  0  0  0
  -15.8671  -28.0987   22.7010 H   0  0  0  0  0  0
  -24.5949  -30.7010   25.7836 H   0  0  0  0  0  0
  -24.8984  -32.2817   26.4953 H   0  0  0  0  0  0
  -25.8153  -30.8828   27.0236 H   0  0  0  0  0  0
  -26.2894  -29.6737   24.1132 H   0  0  0  0  0  0
  -27.4192  -29.7281   25.4488 H   0  0  0  0  0  0
  -27.8672  -30.4387   23.9169 H   0  0  0  0  0  0
  -27.2732  -33.3540   26.2073 H   0  0  0  0  0  0
  -28.3815  -32.6791   25.0201 H   0  0  0  0  0  0
  -28.0778  -31.8319   26.5299 H   0  0  0  0  0  0
  -28.2585  -38.0080   24.7461 H   0  0  0  0  0  0
  -28.1066  -36.2612   24.6313 H   0  0  0  0  0  0
  -27.2306  -37.1471   25.8870 H   0  0  0  0  0  0
  -20.9226  -29.8921   21.7214 H   0  0  0  0  0  0
  -26.0156  -38.2845   24.1336 H   0  0  0  0  0  0
  -32.5171  -19.0940   19.2896 H   0  0  0  0  0  0
  -30.9927  -20.7295   20.2218 H   0  0  0  0  0  0
  -32.2229  -16.7379   19.6697 H   0  0  0  0  0  0
  -28.6085  -17.5660   21.9705 H   0  0  0  0  0  0
  -28.8797  -20.5003   22.7631 H   0  0  0  0  0  0
  -27.6673  -19.8873   21.6562 H   0  0  0  0  0  0
  -29.6539  -23.0064   19.1492 H   0  0  0  0  0  0
  -31.0647  -23.1691   20.1509 H   0  0  0  0  0  0
  -30.4380  -25.3055   19.2486 H   0  0  0  0  0  0
  -30.3091  -25.3668   20.9858 H   0  0  0  0  0  0
  -27.7641  -24.9753   20.6957 H   0  0  0  0  0  0
  -28.0476  -25.1165   18.9495 H   0  0  0  0  0  0
  -29.2335  -15.2924   21.5456 H   0  0  0  0  0  0
  -28.6265  -21.3630   19.9130 H   0  0  0  0  0  0
  1 25  1  0  0  0
  1 30  2  0  0  0
  1 82  1  0  0  0
  2  3  1  0  0  0
  2 25  1  0  0  0
  2 85  1  0  0  0
  2 86  1  0  0  0
  3  4  1  0  0  0
  3 87  1  0  0  0
  3 88  1  0  0  0
  4  5  1  0  0  0
  4 89  1  0  0  0
  4 90  1  0  0  0
  5  6  1  0  0  0
  5 26  1  0  0  0
  5 91  1  0  0  0
  6 25  1  0  0  0
  6 92  1  0  0  0
  6 93  1  0  0  0
  7  8  2  0  0  0
  7 26  1  0  0  0
  7 29  1  0  0  0
  8  9  1  0  0  0
  8 22  1  0  0  0
  9 10  1  0  0  0
  9 27  2  0  0  0
 10 11  2  0  0  0
 10 15  1  0  0  0
 11 12  1  0  0  0
 11 94  1  0  0  0
 12 13  2  0  0  0
 12 95  1  0  0  0
 13 14  1  0  0  0
 13 31  1  0  0  0
 14 15  2  0  0  0
 14 96  1  0  0  0
 15 97  1  0  0  0
 16 17  2  0  0  0
 16 21  1  0  0  0
 16 31  1  0  0  0
 17 18  1  0  0  0
 17 98  1  0  0  0
 18 19  2  0  0  0
 18 99  1  0  0  0
 19 20  1  0  0  0
 19 24  1  0  0  0
 20 21  2  0  0  0
 20100  1  0  0  0
 21 23  1  0  0  0
 22 28  1  0  0  0
 22 32  2  0  0  0
 26 27  1  0  0  0
 28101  1  0  0  0
 28102  1  0  0  0
 29103  1  0  0  0
 29104  1  0  0  0
 33 34  1  0  0  0
 33 66  1  0  0  0
 33 70  2  0  0  0
 34 36  1  0  0  0
 34 59  1  0  0  0
 34105  1  0  0  0
 35 44  2  0  0  0
 35 45  1  0  0  0
 35 68  1  0  0  0
 36 56  1  0  0  0
 36106  1  0  0  0
 37 39  1  0  0  0
 37 47  1  0  0  0
 37 66  1  0  0  0
 37107  1  0  0  0
 38 43  2  0  0  0
 38 46  1  0  0  0
 38 47  1  0  0  0
 39 64  1  0  0  0
 39 67  2  0  0  0
 40 52  1  0  0  0
 40 53  2  0  0  0
 40 58  1  0  0  0
 41108  1  0  0  0
 41109  1  0  0  0
 41110  1  0  0  0
 41 48  1  0  0  0
 42 43  1  0  0  0
 42 66  1  0  0  0
 42111  1  0  0  0
 42112  1  0  0  0
 43 44  1  0  0  0
 44113  1  0  0  0
 45 46  2  0  0  0
 45114  1  0  0  0
 46115  1  0  0  0
 47116  1  0  0  0
 47117  1  0  0  0
 48 56  1  0  0  0
 48 65  1  0  0  0
 48118  1  0  0  0
 49 50  1  0  0  0
 49 53  1  0  0  0
 49 64  1  0  0  0
 49119  1  0  0  0
 50 51  1  0  0  0
 50120  1  0  0  0
 50121  1  0  0  0
 51 52  1  0  0  0
 51122  1  0  0  0
 51123  1  0  0  0
 52124  1  0  0  0
 52125  1  0  0  0
 53 54  1  0  0  0
 54 55  2  0  0  0
 54126  1  0  0  0
 55 57  1  0  0  0
 55127  1  0  0  0
 56 69  2  0  0  0
 57 58  2  0  0  0
 57128  1  0  0  0
 58129  1  0  0  0
 59 60  1  0  0  0
 59 61  1  0  0  0
 59 62  1  0  0  0
 60130  1  0  0  0
 60131  1  0  0  0
 60132  1  0  0  0
 61133  1  0  0  0
 61134  1  0  0  0
 61135  1  0  0  0
 62136  1  0  0  0
 62137  1  0  0  0
 62138  1  0  0  0
 63 65  1  0  0  0
 63139  1  0  0  0
 63140  1  0  0  0
 63141  1  0  0  0
 64142  1  0  0  0
 65143  1  0  0  0
 68 81  1  0  0  0
 71 72  2  0  0  0
 71 73  1  0  0  0
 71144  1  0  0  0
 72 75  1  0  0  0
 72145  1  0  0  0
 73 76  2  0  0  0
 73146  1  0  0  0
 74 75  2  0  0  0
 74 76  1  0  0  0
 74147  1  0  0  0
 75 78  1  0  0  0
 76 82  1  0  0  0
 77 79  1  0  0  0
 77 83  1  0  0  0
 77 84  2  0  0  0
 78 83  1  0  0  0
 78148  1  0  0  0
 78149  1  0  0  0
 79 80  1  0  0  0
 79150  1  0  0  0
 79151  1  0  0  0
 80 81  1  0  0  0
 80152  1  0  0  0
 80153  1  0  0  0
 81154  1  0  0  0
 81155  1  0  0  0
 82156  1  0  0  0
 83157  1  0  0  0
M  ISO  4   1 100  68 101  81 101  82 100
M  END
> <chiral flag>
0

> <version>
0

> <s_m_source_file>
/data/baiqing/PycharmProjects/Reinvent-master-3.2/result/LINK_invent/BTK/process_docking_weight1_custom_product_contain_oxygen_bond_distance_aromatic_linkinvent_7_9_3/rearranged_h_0056.sdf

> <i_m_source_file_index>
39

> <r_mmod_Potential_Energy-OPLS-2005>
-165.289016723633

> <r_mmod_Stretch_Energy-OPLS-2005>
35.4242286682129

> <r_mmod_Bend_Energy-OPLS-2005>
102.426948547363

> <r_mmod_Torsional_Energy-OPLS-2005>
210.467224121094

> <r_mmod_Improper_Torsional_Energy-OPLS-2005>
5.59003734588623

> <r_mmod_Van_der_Waal_Energy-OPLS-2005>
172.608367919922

> <r_mmod_Electrostatic_Energy-OPLS-2005>
-465.573211669922

> <r_mmod_Solvation_Energy-OPLS-2005>
-240.933349609375

> <b_mmod_Minimization_Converged-OPLS-2005>
0

> <r_mmod_RMS_Derivative-OPLS-2005>
6.16086769104004

$$$$
39
                    3D
 Structure written by MMmdl.
164173  0  0  1  0            999 V2000
  -30.7186  -14.4452   20.6381 C   0  0  0  0  0  0
  -30.4297  -12.3142   19.4136 C   0  0  0  0  0  0
  -29.4972  -12.5288   18.2033 C   0  0  0  0  0  0
  -28.0192  -12.3714   18.6107 C   0  0  0  0  0  0
  -27.6662  -13.1939   19.8762 C   0  0  2  0  0  0
  -28.7070  -12.9570   20.9966 C   0  0  0  0  0  0
  -25.2597  -13.8110   20.5635 C   0  0  0  0  0  0
  -24.1856  -13.0412   20.9202 C   0  0  0  0  0  0
  -24.6396  -11.6878   20.8758 C   0  0  0  0  0  0
  -23.9058  -10.4271   21.0435 C   0  0  0  0  0  0
  -24.3604   -9.4180   21.9207 C   0  0  0  0  0  0
  -23.6271   -8.2218   22.0769 C   0  0  0  0  0  0
  -22.4254   -8.0269   21.3554 C   0  0  0  0  0  0
  -21.9895   -9.0245   20.4660 C   0  0  0  0  0  0
  -22.7230  -10.2118   20.3078 C   0  0  0  0  0  0
  -21.6840   -6.0720   22.5279 C   0  0  0  0  0  0
  -21.4002   -6.5630   23.8207 C   0  0  0  0  0  0
  -21.3663   -5.6788   24.9171 C   0  0  0  0  0  0
  -21.6045   -4.3050   24.7224 C   0  0  0  0  0  0
  -21.8823   -3.8131   23.4346 C   0  0  0  0  0  0
  -21.9191   -4.6950   22.3404 C   0  0  0  0  0  0
  -22.7884  -13.5234   21.1865 C   0  0  0  0  0  0
  -22.1681   -4.2141   21.0978 F   0  0  0  0  0  0
  -21.5617   -3.4530   25.7740 F   0  0  0  0  0  0
  -30.0494  -13.2698   20.4665 N   0  0  0  0  0  0
  -26.3036  -12.9270   20.3320 N   0  0  0  0  0  0
  -25.9312  -11.6444   20.5734 N   0  0  0  0  0  0
  -22.0490  -12.8243   22.0409 N   0  0  0  0  0  0
  -25.4243  -15.1816   20.3928 N   0  0  0  0  0  0
  -31.7694  -14.7178   20.0477 O   0  0  0  0  0  0
  -21.6623   -6.8858   21.4243 O   0  0  0  0  0  0
  -22.3595  -14.5552   20.6719 O   0  0  0  0  0  0
  -24.6173  -31.8660   23.2086 C   0  0  0  0  0  0
  -25.9055  -32.4812   23.8383 C   0  0  1  0  0  0
  -27.2404  -27.4170   20.0900 C   0  0  0  0  0  0
  -25.5911  -33.8610   24.2322 N   0  0  0  0  0  0
  -23.4061  -30.4889   21.5510 C   0  0  2  0  0  0
  -24.8509  -28.9528   20.1180 C   0  0  0  0  0  0
  -22.7424  -29.4643   22.4991 C   0  0  0  0  0  0
  -18.0281  -28.1365   22.8494 C   0  0  0  0  0  0
  -24.1495  -36.7311   23.2634 C   0  0  0  0  0  0
  -25.9370  -30.8266   21.3637 C   0  0  0  0  0  0
  -26.0139  -29.4594   20.7105 C   0  0  0  0  0  0
  -27.2087  -28.6995   20.6922 C   0  0  0  0  0  0
  -26.0483  -26.9274   19.5025 C   0  0  0  0  0  0
  -24.8633  -27.6849   19.5156 C   0  0  0  0  0  0
  -23.6148  -29.8214   20.1664 C   0  0  0  0  0  0
  -25.4107  -36.3102   24.0337 C   0  0  1  0  0  0
  -20.5872  -28.3660   23.1314 C   0  0  2  0  0  0
  -20.6775  -26.9394   22.5421 C   0  0  0  0  0  0
  -19.5749  -26.6374   21.5219 C   0  0  0  0  0  0
  -18.1926  -26.7912   22.1625 C   0  0  0  0  0  0
  -19.1530  -28.8830   23.2897 C   0  0  0  0  0  0
  -18.9455  -30.1437   23.8900 C   0  0  0  0  0  0
  -17.6457  -30.6570   24.0568 C   0  0  0  0  0  0
  -25.9032  -34.9468   23.5120 C   0  0  0  0  0  0
  -16.5350  -29.9074   23.6322 C   0  0  0  0  0  0
  -16.7272  -28.6492   23.0343 C   0  0  0  0  0  0
  -26.4475  -31.6587   25.0708 C   0  0  0  0  0  0
  -25.3748  -31.3709   26.1465 C   0  0  0  0  0  0
  -27.0284  -30.3025   24.6074 C   0  0  0  0  0  0
  -27.6059  -32.4296   25.7463 C   0  0  0  0  0  0
  -27.5584  -37.1803   24.8452 C   0  0  0  0  0  0
  -21.4152  -29.3023   22.3718 N   0  0  0  0  0  0
  -26.4294  -37.3785   23.9401 N   0  0  0  0  0  0
  -24.6718  -31.0743   22.0997 N   0  0  0  0  0  0
  -23.4187  -28.8178   23.3035 O   0  0  0  0  0  0
  -28.4235  -26.6911   20.0965 O   0  0  0  0  0  0
  -26.5591  -34.8922   22.4681 O   0  0  0  0  0  0
  -23.5365  -32.1416   23.7477 O   0  0  0  0  0  0
  -30.2120  -19.0383   21.8933 C   0  0  0  0  0  0
  -30.6411  -17.6898   21.9649 C   0  0  0  0  0  0
  -28.8097  -17.0509   20.5110 C   0  0  0  0  0  0
  -29.0513  -19.4023   21.1661 C   0  0  0  0  0  0
  -28.3670  -18.3920   20.4287 C   0  0  0  0  0  0
  -29.9196  -16.6788   21.2941 C   0  0  0  0  0  0
  -29.7248  -22.9150   21.6724 C   0  0  0  0  0  0
  -30.2882  -24.2363   21.1137 C   0  0  0  0  0  0
  -29.8799  -23.3911   18.8133 C   0  0  0  0  0  0
  -29.0870  -22.1931   19.3744 C   0  0  0  0  0  0
  -29.7848  -24.6366   19.7113 C   0  0  1  0  0  0
  -28.4571  -20.8144   21.3359 C   0  0  0  0  0  0
  -28.3861  -25.3125   19.6801 C   0  0  0  0  0  0
  -27.1159  -18.6869   19.5982 C   0  0  0  0  0  0
  -29.2199  -21.9780   20.8272 N   0  0  0  0  0  0
  -30.1687  -15.2928   21.5232 N   0  0  0  0  0  0
  -29.7628  -22.7549   22.8961 O   0  0  0  0  0  0
  -26.7615  -17.6405   18.8499 F   0  0  0  0  0  0
  -26.0898  -18.9778   20.3979 F   0  0  0  0  0  0
  -27.3311  -19.7083   18.7707 F   0  0  0  0  0  0
  -31.4726  -12.4237   19.1120 H   0  0  0  0  0  0
  -30.3370  -11.2939   19.7898 H   0  0  0  0  0  0
  -29.7426  -11.8222   17.4092 H   0  0  0  0  0  0
  -29.6573  -13.5253   17.7861 H   0  0  0  0  0  0
  -27.8286  -11.3116   18.7869 H   0  0  0  0  0  0
  -27.3723  -12.6625   17.7822 H   0  0  0  0  0  0
  -27.7112  -14.2404   19.5855 H   0  0  0  0  0  0
  -28.6834  -11.9123   21.3117 H   0  0  0  0  0  0
  -28.4465  -13.5260   21.8888 H   0  0  0  0  0  0
  -25.2755   -9.5619   22.4783 H   0  0  0  0  0  0
  -23.9968   -7.4593   22.7467 H   0  0  0  0  0  0
  -21.0831   -8.8757   19.8961 H   0  0  0  0  0  0
  -22.3706  -10.9657   19.6176 H   0  0  0  0  0  0
  -21.1999   -7.6143   23.9711 H   0  0  0  0  0  0
  -21.1493   -6.0517   25.9071 H   0  0  0  0  0  0
  -22.0606   -2.7588   23.2852 H   0  0  0  0  0  0
  -22.4074  -11.9911   22.4831 H   0  0  0  0  0  0
  -21.1113  -13.1304   22.2572 H   0  0  0  0  0  0
  -24.6279  -15.8078   20.4456 H   0  0  0  0  0  0
  -26.2127  -15.5971   19.9185 H   0  0  0  0  0  0
  -26.7123  -32.5517   23.1145 H   0  0  0  0  0  0
  -25.0087  -33.9769   25.0487 H   0  0  0  0  0  0
  -22.6962  -31.3062   21.4121 H   0  0  0  0  0  0
  -23.3747  -35.9656   23.3303 H   0  0  0  0  0  0
  -24.3602  -36.8914   22.2048 H   0  0  0  0  0  0
  -23.7265  -37.6524   23.6644 H   0  0  0  0  0  0
  -26.0505  -31.5925   20.5948 H   0  0  0  0  0  0
  -26.8252  -30.8810   21.9818 H   0  0  0  0  0  0
  -28.1076  -29.0894   21.1490 H   0  0  0  0  0  0
  -26.0019  -25.9603   19.0258 H   0  0  0  0  0  0
  -23.9673  -27.2842   19.0622 H   0  0  0  0  0  0
  -23.7262  -30.5965   19.4077 H   0  0  0  0  0  0
  -22.7381  -29.2435   19.8686 H   0  0  0  0  0  0
  -25.1285  -36.1967   25.0832 H   0  0  0  0  0  0
  -20.9968  -28.3232   24.1432 H   0  0  0  0  0  0
  -20.5687  -26.2263   23.3608 H   0  0  0  0  0  0
  -21.6642  -26.7433   22.1209 H   0  0  0  0  0  0
  -19.6911  -25.6292   21.1225 H   0  0  0  0  0  0
  -19.6679  -27.3200   20.6763 H   0  0  0  0  0  0
  -17.4204  -26.6685   21.4019 H   0  0  0  0  0  0
  -18.0301  -26.0043   22.9001 H   0  0  0  0  0  0
  -19.7930  -30.7265   24.2254 H   0  0  0  0  0  0
  -17.5004  -31.6242   24.5179 H   0  0  0  0  0  0
  -15.5348  -30.2978   23.7621 H   0  0  0  0  0  0
  -15.8681  -28.0809   22.7046 H   0  0  0  0  0  0
  -24.5922  -30.7046   25.7814 H   0  0  0  0  0  0
  -24.8950  -32.2879   26.4899 H   0  0  0  0  0  0
  -25.8114  -30.8894   27.0224 H   0  0  0  0  0  0
  -26.2810  -29.6795   24.1146 H   0  0  0  0  0  0
  -27.4072  -29.7245   25.4511 H   0  0  0  0  0  0
  -27.8641  -30.4328   23.9194 H   0  0  0  0  0  0
  -27.2683  -33.3588   26.2063 H   0  0  0  0  0  0
  -28.3858  -32.6864   25.0280 H   0  0  0  0  0  0
  -28.0735  -31.8404   26.5361 H   0  0  0  0  0  0
  -28.2598  -38.0105   24.7515 H   0  0  0  0  0  0
  -28.1092  -36.2643   24.6258 H   0  0  0  0  0  0
  -27.2310  -37.1422   25.8858 H   0  0  0  0  0  0
  -20.9318  -29.8750   21.6946 H   0  0  0  0  0  0
  -26.0181  -38.2860   24.1420 H   0  0  0  0  0  0
  -30.7403  -19.7876   22.4675 H   0  0  0  0  0  0
  -31.4892  -17.4333   22.5859 H   0  0  0  0  0  0
  -28.2467  -16.2867   20.0053 H   0  0  0  0  0  0
  -31.3710  -24.1161   21.0776 H   0  0  0  0  0  0
  -30.0987  -25.0426   21.8226 H   0  0  0  0  0  0
  -29.5497  -23.6172   17.7981 H   0  0  0  0  0  0
  -30.9286  -23.1043   18.7217 H   0  0  0  0  0  0
  -29.3914  -21.2875   18.8486 H   0  0  0  0  0  0
  -28.0296  -22.3374   19.1480 H   0  0  0  0  0  0
  -30.4839  -25.3668   19.3018 H   0  0  0  0  0  0
  -28.2532  -20.9177   22.4028 H   0  0  0  0  0  0
  -27.4611  -20.8759   20.9055 H   0  0  0  0  0  0
  -27.6803  -24.7511   20.2947 H   0  0  0  0  0  0
  -28.0257  -25.2713   18.6515 H   0  0  0  0  0  0
  -29.4500  -14.8354   22.0660 H   0  0  0  0  0  0
  1 25  1  0  0  0
  1 30  2  0  0  0
  1 86  1  0  0  0
  2  3  1  0  0  0
  2 25  1  0  0  0
  2 91  1  0  0  0
  2 92  1  0  0  0
  3  4  1  0  0  0
  3 93  1  0  0  0
  3 94  1  0  0  0
  4  5  1  0  0  0
  4 95  1  0  0  0
  4 96  1  0  0  0
  5  6  1  0  0  0
  5 26  1  0  0  0
  5 97  1  0  0  0
  6 25  1  0  0  0
  6 98  1  0  0  0
  6 99  1  0  0  0
  7  8  2  0  0  0
  7 26  1  0  0  0
  7 29  1  0  0  0
  8  9  1  0  0  0
  8 22  1  0  0  0
  9 10  1  0  0  0
  9 27  2  0  0  0
 10 11  2  0  0  0
 10 15  1  0  0  0
 11 12  1  0  0  0
 11100  1  0  0  0
 12 13  2  0  0  0
 12101  1  0  0  0
 13 14  1  0  0  0
 13 31  1  0  0  0
 14 15  2  0  0  0
 14102  1  0  0  0
 15103  1  0  0  0
 16 17  2  0  0  0
 16 21  1  0  0  0
 16 31  1  0  0  0
 17 18  1  0  0  0
 17104  1  0  0  0
 18 19  2  0  0  0
 18105  1  0  0  0
 19 20  1  0  0  0
 19 24  1  0  0  0
 20 21  2  0  0  0
 20106  1  0  0  0
 21 23  1  0  0  0
 22 28  1  0  0  0
 22 32  2  0  0  0
 26 27  1  0  0  0
 28107  1  0  0  0
 28108  1  0  0  0
 29109  1  0  0  0
 29110  1  0  0  0
 33 34  1  0  0  0
 33 66  1  0  0  0
 33 70  2  0  0  0
 34 36  1  0  0  0
 34 59  1  0  0  0
 34111  1  0  0  0
 35 44  2  0  0  0
 35 45  1  0  0  0
 35 68  1  0  0  0
 36 56  1  0  0  0
 36112  1  0  0  0
 37 39  1  0  0  0
 37 47  1  0  0  0
 37 66  1  0  0  0
 37113  1  0  0  0
 38 43  2  0  0  0
 38 46  1  0  0  0
 38 47  1  0  0  0
 39 64  1  0  0  0
 39 67  2  0  0  0
 40 52  1  0  0  0
 40 53  2  0  0  0
 40 58  1  0  0  0
 41114  1  0  0  0
 41115  1  0  0  0
 41116  1  0  0  0
 41 48  1  0  0  0
 42 43  1  0  0  0
 42 66  1  0  0  0
 42117  1  0  0  0
 42118  1  0  0  0
 43 44  1  0  0  0
 44119  1  0  0  0
 45 46  2  0  0  0
 45120  1  0  0  0
 46121  1  0  0  0
 47122  1  0  0  0
 47123  1  0  0  0
 48 56  1  0  0  0
 48 65  1  0  0  0
 48124  1  0  0  0
 49 50  1  0  0  0
 49 53  1  0  0  0
 49 64  1  0  0  0
 49125  1  0  0  0
 50 51  1  0  0  0
 50126  1  0  0  0
 50127  1  0  0  0
 51 52  1  0  0  0
 51128  1  0  0  0
 51129  1  0  0  0
 52130  1  0  0  0
 52131  1  0  0  0
 53 54  1  0  0  0
 54 55  2  0  0  0
 54132  1  0  0  0
 55 57  1  0  0  0
 55133  1  0  0  0
 56 69  2  0  0  0
 57 58  2  0  0  0
 57134  1  0  0  0
 58135  1  0  0  0
 59 60  1  0  0  0
 59 61  1  0  0  0
 59 62  1  0  0  0
 60136  1  0  0  0
 60137  1  0  0  0
 60138  1  0  0  0
 61139  1  0  0  0
 61140  1  0  0  0
 61141  1  0  0  0
 62142  1  0  0  0
 62143  1  0  0  0
 62144  1  0  0  0
 63 65  1  0  0  0
 63145  1  0  0  0
 63146  1  0  0  0
 63147  1  0  0  0
 64148  1  0  0  0
 65149  1  0  0  0
 68 83  1  0  0  0
 71 72  2  0  0  0
 71 74  1  0  0  0
 71150  1  0  0  0
 72 76  1  0  0  0
 72151  1  0  0  0
 73 75  1  0  0  0
 73 76  2  0  0  0
 73152  1  0  0  0
 74 75  2  0  0  0
 74 82  1  0  0  0
 75 84  1  0  0  0
 76 86  1  0  0  0
 77 78  1  0  0  0
 77 85  1  0  0  0
 77 87  2  0  0  0
 78 81  1  0  0  0
 78153  1  0  0  0
 78154  1  0  0  0
 79 80  1  0  0  0
 79 81  1  0  0  0
 79155  1  0  0  0
 79156  1  0  0  0
 80 85  1  0  0  0
 80157  1  0  0  0
 80158  1  0  0  0
 81 83  1  0  0  0
 81159  1  0  0  0
 82 85  1  0  0  0
 82160  1  0  0  0
 82161  1  0  0  0
 83162  1  0  0  0
 83163  1  0  0  0
 84 88  1  0  0  0
 84 89  1  0  0  0
 84 90  1  0  0  0
 86164  1  0  0  0
M  ISO  4   1 100  68 101  83 101  86 100
M  END
> <chiral flag>
0

> <version>
0

> <s_m_source_file>
/data/baiqing/PycharmProjects/Reinvent-master-3.2/result/LINK_invent/BTK/process_docking_weight1_custom_product_contain_oxygen_bond_distance_aromatic_linkinvent_7_9_3/rearranged_h_0056.sdf

> <i_m_source_file_index>
40

> <r_mmod_Potential_Energy-OPLS-2005>
16.565071105957

> <r_mmod_Stretch_Energy-OPLS-2005>
44.0019226074219

> <r_mmod_Bend_Energy-OPLS-2005>
112.34398651123

> <r_mmod_Torsional_Energy-OPLS-2005>
268.805389404297

> <r_mmod_Improper_Torsional_Energy-OPLS-2005>
8.29999256134033

> <r_mmod_Van_der_Waal_Energy-OPLS-2005>
161.156585693359

> <r_mmod_Electrostatic_Energy-OPLS-2005>
-371.405792236328

> <r_mmod_Solvation_Energy-OPLS-2005>
-217.907028198242

> <b_mmod_Minimization_Converged-OPLS-2005>
0

> <r_mmod_RMS_Derivative-OPLS-2005>
2.02697825431824

$$$$
40
                    3D
 Structure written by MMmdl.
152160  0  0  1  0            999 V2000
  -30.7016  -14.4235   20.6444 C   0  0  0  0  0  0
  -30.4319  -12.3014   19.4109 C   0  0  0  0  0  0
  -29.4954  -12.5244   18.2047 C   0  0  0  0  0  0
  -28.0191  -12.3643   18.6158 C   0  0  0  0  0  0
  -27.6679  -13.1910   19.8786 C   0  0  2  0  0  0
  -28.7030  -12.9310   20.9978 C   0  0  0  0  0  0
  -25.2620  -13.8132   20.5646 C   0  0  0  0  0  0
  -24.1860  -13.0432   20.9180 C   0  0  0  0  0  0
  -24.6397  -11.6892   20.8743 C   0  0  0  0  0  0
  -23.9061  -10.4288   21.0416 C   0  0  0  0  0  0
  -24.3620   -9.4202   21.9192 C   0  0  0  0  0  0
  -23.6289   -8.2239   22.0759 C   0  0  0  0  0  0
  -22.4268   -8.0288   21.3547 C   0  0  0  0  0  0
  -21.9901   -9.0262   20.4647 C   0  0  0  0  0  0
  -22.7238  -10.2137   20.3057 C   0  0  0  0  0  0
  -21.6848   -6.0747   22.5285 C   0  0  0  0  0  0
  -21.4008   -6.5650   23.8223 C   0  0  0  0  0  0
  -21.3652   -5.6798   24.9182 C   0  0  0  0  0  0
  -21.6040   -4.3065   24.7227 C   0  0  0  0  0  0
  -21.8815   -3.8163   23.4349 C   0  0  0  0  0  0
  -21.9186   -4.6976   22.3404 C   0  0  0  0  0  0
  -22.7882  -13.5244   21.1848 C   0  0  0  0  0  0
  -22.1648   -4.2166   21.0980 F   0  0  0  0  0  0
  -21.5634   -3.4548   25.7739 F   0  0  0  0  0  0
  -30.0511  -13.2408   20.4779 N   0  0  0  0  0  0
  -26.3048  -12.9270   20.3352 N   0  0  0  0  0  0
  -25.9314  -11.6447   20.5752 N   0  0  0  0  0  0
  -22.0511  -12.8245   22.0406 N   0  0  0  0  0  0
  -25.4356  -15.1848   20.3991 N   0  0  0  0  0  0
  -31.7288  -14.7253   20.0301 O   0  0  0  0  0  0
  -21.6632   -6.8889   21.4248 O   0  0  0  0  0  0
  -22.3567  -14.5550   20.6696 O   0  0  0  0  0  0
  -24.6129  -31.8680   23.2114 C   0  0  0  0  0  0
  -25.9021  -32.4823   23.8410 C   0  0  1  0  0  0
  -27.2410  -27.4462   20.0792 C   0  0  0  0  0  0
  -25.5883  -33.8622   24.2340 N   0  0  0  0  0  0
  -23.3998  -30.4911   21.5521 C   0  0  2  0  0  0
  -24.8442  -28.9544   20.1178 C   0  0  0  0  0  0
  -22.7402  -29.4652   22.5004 C   0  0  0  0  0  0
  -18.0272  -28.1370   22.8488 C   0  0  0  0  0  0
  -24.1494  -36.7328   23.2648 C   0  0  0  0  0  0
  -25.9275  -30.8318   21.3649 C   0  0  0  0  0  0
  -26.0021  -29.4670   20.7131 C   0  0  0  0  0  0
  -27.1978  -28.7172   20.6955 C   0  0  0  0  0  0
  -26.0551  -26.9350   19.4996 C   0  0  0  0  0  0
  -24.8636  -27.6852   19.5145 C   0  0  0  0  0  0
  -23.6067  -29.8211   20.1667 C   0  0  0  0  0  0
  -25.4117  -36.3117   24.0341 C   0  0  1  0  0  0
  -20.5860  -28.3649   23.1324 C   0  0  2  0  0  0
  -20.6759  -26.9389   22.5412 C   0  0  0  0  0  0
  -19.5736  -26.6375   21.5208 C   0  0  0  0  0  0
  -18.1916  -26.7914   22.1622 C   0  0  0  0  0  0
  -19.1521  -28.8829   23.2900 C   0  0  0  0  0  0
  -18.9447  -30.1439   23.8905 C   0  0  0  0  0  0
  -17.6448  -30.6576   24.0563 C   0  0  0  0  0  0
  -25.9026  -34.9472   23.5141 C   0  0  0  0  0  0
  -16.5340  -29.9077   23.6322 C   0  0  0  0  0  0
  -16.7262  -28.6496   23.0341 C   0  0  0  0  0  0
  -26.4456  -31.6605   25.0737 C   0  0  0  0  0  0
  -25.3727  -31.3692   26.1485 C   0  0  0  0  0  0
  -27.0299  -30.3058   24.6109 C   0  0  0  0  0  0
  -27.6035  -32.4326   25.7494 C   0  0  0  0  0  0
  -27.5564  -37.1857   24.8488 C   0  0  0  0  0  0
  -21.4133  -29.3027   22.3742 N   0  0  0  0  0  0
  -26.4323  -37.3776   23.9362 N   0  0  0  0  0  0
  -24.6649  -31.0786   22.1008 N   0  0  0  0  0  0
  -23.4185  -28.8196   23.3037 O   0  0  0  0  0  0
  -28.4498  -26.7770   20.0811 O   0  0  0  0  0  0
  -26.5585  -34.8914   22.4700 O   0  0  0  0  0  0
  -23.5326  -32.1431   23.7516 O   0  0  0  0  0  0
  -30.7600  -18.7640   18.6643 C   0  0  0  0  0  0
  -30.4223  -17.5785   19.3434 C   0  0  0  0  0  0
  -30.4666  -20.0205   19.2280 C   0  0  0  0  0  0
  -29.5334  -18.9065   21.1760 C   0  0  0  0  0  0
  -29.8121  -17.6371   20.6139 C   0  0  0  0  0  0
  -29.8270  -20.1123   20.4915 C   0  0  0  0  0  0
  -28.4859  -24.3241   20.2044 C   0  0  0  0  0  0
  -29.2920  -16.3805   21.3185 C   0  0  0  0  0  0
  -28.6379  -25.5755   19.3190 C   0  0  0  0  0  0
  -29.4672  -21.3312   21.1112 N   0  0  0  0  0  0
  -29.2923  -23.2778   19.7986 N   0  0  0  0  0  0
  -29.2900  -22.2959   20.4518 N   0  3  0  0  0  0
  -30.1746  -15.2318   21.5754 N   0  0  0  0  0  0
  -27.7012  -24.3466   21.1601 O   0  0  0  0  0  0
  -31.4745  -12.4214   19.1085 H   0  0  0  0  0  0
  -30.3468  -11.2770   19.7759 H   0  0  0  0  0  0
  -29.7375  -11.8241   17.4041 H   0  0  0  0  0  0
  -29.6544  -13.5230   17.7941 H   0  0  0  0  0  0
  -27.8354  -11.3057   18.8035 H   0  0  0  0  0  0
  -27.3647  -12.6423   17.7888 H   0  0  0  0  0  0
  -27.7235  -14.2384   19.5902 H   0  0  0  0  0  0
  -28.6718  -11.8826   21.2986 H   0  0  0  0  0  0
  -28.4363  -13.4899   21.8955 H   0  0  0  0  0  0
  -25.2766   -9.5684   22.4770 H   0  0  0  0  0  0
  -24.0005   -7.4628   22.7466 H   0  0  0  0  0  0
  -21.0839   -8.8784   19.8944 H   0  0  0  0  0  0
  -22.3708  -10.9684   19.6168 H   0  0  0  0  0  0
  -21.1997   -7.6157   23.9736 H   0  0  0  0  0  0
  -21.1476   -6.0523   25.9086 H   0  0  0  0  0  0
  -22.0599   -2.7625   23.2843 H   0  0  0  0  0  0
  -22.4105  -11.9892   22.4786 H   0  0  0  0  0  0
  -21.1144  -13.1299   22.2627 H   0  0  0  0  0  0
  -24.6652  -15.8388   20.4871 H   0  0  0  0  0  0
  -26.2759  -15.6143   20.0347 H   0  0  0  0  0  0
  -26.7089  -32.5527   23.1173 H   0  0  0  0  0  0
  -25.0036  -33.9784   25.0488 H   0  0  0  0  0  0
  -22.6876  -31.3072   21.4131 H   0  0  0  0  0  0
  -23.3724  -35.9701   23.3390 H   0  0  0  0  0  0
  -24.3564  -36.8860   22.2044 H   0  0  0  0  0  0
  -23.7294  -37.6580   23.6612 H   0  0  0  0  0  0
  -26.0425  -31.5975   20.5971 H   0  0  0  0  0  0
  -26.8146  -30.8829   21.9845 H   0  0  0  0  0  0
  -28.0949  -29.1150   21.1494 H   0  0  0  0  0  0
  -26.0198  -25.9598   19.0387 H   0  0  0  0  0  0
  -23.9690  -27.2794   19.0632 H   0  0  0  0  0  0
  -23.7167  -30.5940   19.4050 H   0  0  0  0  0  0
  -22.7304  -29.2403   19.8727 H   0  0  0  0  0  0
  -25.1314  -36.2015   25.0843 H   0  0  0  0  0  0
  -20.9944  -28.3207   24.1447 H   0  0  0  0  0  0
  -20.5659  -26.2254   23.3594 H   0  0  0  0  0  0
  -21.6630  -26.7430   22.1207 H   0  0  0  0  0  0
  -19.6893  -25.6290   21.1227 H   0  0  0  0  0  0
  -19.6679  -27.3194   20.6748 H   0  0  0  0  0  0
  -17.4184  -26.6657   21.4028 H   0  0  0  0  0  0
  -18.0330  -26.0055   22.9022 H   0  0  0  0  0  0
  -19.7924  -30.7253   24.2273 H   0  0  0  0  0  0
  -17.5004  -31.6256   24.5165 H   0  0  0  0  0  0
  -15.5343  -30.2982   23.7639 H   0  0  0  0  0  0
  -15.8659  -28.0821   22.7045 H   0  0  0  0  0  0
  -24.5876  -30.7076   25.7808 H   0  0  0  0  0  0
  -24.8940  -32.2838   26.4998 H   0  0  0  0  0  0
  -25.8069  -30.8798   27.0209 H   0  0  0  0  0  0
  -26.2849  -29.6815   24.1158 H   0  0  0  0  0  0
  -27.4082  -29.7299   25.4566 H   0  0  0  0  0  0
  -27.8679  -30.4410   23.9262 H   0  0  0  0  0  0
  -27.2660  -33.3606   26.2127 H   0  0  0  0  0  0
  -28.3810  -32.6918   25.0294 H   0  0  0  0  0  0
  -28.0744  -31.8414   26.5362 H   0  0  0  0  0  0
  -28.2700  -38.0032   24.7360 H   0  0  0  0  0  0
  -28.0936  -36.2557   24.6564 H   0  0  0  0  0  0
  -27.2239  -37.1815   25.8884 H   0  0  0  0  0  0
  -20.9291  -29.8761   21.6978 H   0  0  0  0  0  0
  -26.0231  -38.2892   24.1230 H   0  0  0  0  0  0
  -31.2244  -18.7076   17.6895 H   0  0  0  0  0  0
  -30.6059  -16.6319   18.8572 H   0  0  0  0  0  0
  -30.7380  -20.9009   18.6611 H   0  0  0  0  0  0
  -29.0371  -18.9618   22.1350 H   0  0  0  0  0  0
  -28.8798  -16.6703   22.2861 H   0  0  0  0  0  0
  -28.4308  -16.0324   20.7498 H   0  0  0  0  0  0
  -28.0091  -25.5099   18.4319 H   0  0  0  0  0  0
  -29.6600  -25.6093   18.9399 H   0  0  0  0  0  0
  -29.7846  -14.6775   22.3246 H   0  0  0  0  0  0
  1 25  1  0  0  0
  1 30  2  0  0  0
  1 83  1  0  0  0
  2  3  1  0  0  0
  2 25  1  0  0  0
  2 85  1  0  0  0
  2 86  1  0  0  0
  3  4  1  0  0  0
  3 87  1  0  0  0
  3 88  1  0  0  0
  4  5  1  0  0  0
  4 89  1  0  0  0
  4 90  1  0  0  0
  5  6  1  0  0  0
  5 26  1  0  0  0
  5 91  1  0  0  0
  6 25  1  0  0  0
  6 92  1  0  0  0
  6 93  1  0  0  0
  7  8  2  0  0  0
  7 26  1  0  0  0
  7 29  1  0  0  0
  8  9  1  0  0  0
  8 22  1  0  0  0
  9 10  1  0  0  0
  9 27  2  0  0  0
 10 11  2  0  0  0
 10 15  1  0  0  0
 11 12  1  0  0  0
 11 94  1  0  0  0
 12 13  2  0  0  0
 12 95  1  0  0  0
 13 14  1  0  0  0
 13 31  1  0  0  0
 14 15  2  0  0  0
 14 96  1  0  0  0
 15 97  1  0  0  0
 16 17  2  0  0  0
 16 21  1  0  0  0
 16 31  1  0  0  0
 17 18  1  0  0  0
 17 98  1  0  0  0
 18 19  2  0  0  0
 18 99  1  0  0  0
 19 20  1  0  0  0
 19 24  1  0  0  0
 20 21  2  0  0  0
 20100  1  0  0  0
 21 23  1  0  0  0
 22 28  1  0  0  0
 22 32  2  0  0  0
 26 27  1  0  0  0
 28101  1  0  0  0
 28102  1  0  0  0
 29103  1  0  0  0
 29104  1  0  0  0
 33 34  1  0  0  0
 33 66  1  0  0  0
 33 70  2  0  0  0
 34 36  1  0  0  0
 34 59  1  0  0  0
 34105  1  0  0  0
 35 44  2  0  0  0
 35 45  1  0  0  0
 35 68  1  0  0  0
 36 56  1  0  0  0
 36106  1  0  0  0
 37 39  1  0  0  0
 37 47  1  0  0  0
 37 66  1  0  0  0
 37107  1  0  0  0
 38 43  2  0  0  0
 38 46  1  0  0  0
 38 47  1  0  0  0
 39 64  1  0  0  0
 39 67  2  0  0  0
 40 52  1  0  0  0
 40 53  2  0  0  0
 40 58  1  0  0  0
 41108  1  0  0  0
 41109  1  0  0  0
 41110  1  0  0  0
 41 48  1  0  0  0
 42 43  1  0  0  0
 42 66  1  0  0  0
 42111  1  0  0  0
 42112  1  0  0  0
 43 44  1  0  0  0
 44113  1  0  0  0
 45 46  2  0  0  0
 45114  1  0  0  0
 46115  1  0  0  0
 47116  1  0  0  0
 47117  1  0  0  0
 48 56  1  0  0  0
 48 65  1  0  0  0
 48118  1  0  0  0
 49 50  1  0  0  0
 49 53  1  0  0  0
 49 64  1  0  0  0
 49119  1  0  0  0
 50 51  1  0  0  0
 50120  1  0  0  0
 50121  1  0  0  0
 51 52  1  0  0  0
 51122  1  0  0  0
 51123  1  0  0  0
 52124  1  0  0  0
 52125  1  0  0  0
 53 54  1  0  0  0
 54 55  2  0  0  0
 54126  1  0  0  0
 55 57  1  0  0  0
 55127  1  0  0  0
 56 69  2  0  0  0
 57 58  2  0  0  0
 57128  1  0  0  0
 58129  1  0  0  0
 59 60  1  0  0  0
 59 61  1  0  0  0
 59 62  1  0  0  0
 60130  1  0  0  0
 60131  1  0  0  0
 60132  1  0  0  0
 61133  1  0  0  0
 61134  1  0  0  0
 61135  1  0  0  0
 62136  1  0  0  0
 62137  1  0  0  0
 62138  1  0  0  0
 63 65  1  0  0  0
 63139  1  0  0  0
 63140  1  0  0  0
 63141  1  0  0  0
 64142  1  0  0  0
 65143  1  0  0  0
 68 79  1  0  0  0
 71 72  2  0  0  0
 71 73  1  0  0  0
 71144  1  0  0  0
 72 75  1  0  0  0
 72145  1  0  0  0
 73 76  2  0  0  0
 73146  1  0  0  0
 74 75  2  0  0  0
 74 76  1  0  0  0
 74147  1  0  0  0
 75 78  1  0  0  0
 76 80  1  0  0  0
 77 79  1  0  0  0
 77 81  1  0  0  0
 77 84  2  0  0  0
 78 83  1  0  0  0
 78148  1  0  0  0
 78149  1  0  0  0
 79150  1  0  0  0
 79151  1  0  0  0
 80 82  2  0  0  0
 81 82  2  0  0  0
 83152  1  0  0  0
M  CHG  1  82   1
M  ISO  4   1 100  68 101  79 101  83 100
M  END
> <chiral flag>
0

> <version>
0

> <s_m_source_file>
/data/baiqing/PycharmProjects/Reinvent-master-3.2/result/LINK_invent/BTK/process_docking_weight1_custom_product_contain_oxygen_bond_distance_aromatic_linkinvent_7_9_3/rearranged_h_0056.sdf

> <i_m_source_file_index>
41

> <r_mmod_Potential_Energy-OPLS-2005>
-346.306579589844

> <r_mmod_Stretch_Energy-OPLS-2005>
36.3685836791992

> <r_mmod_Bend_Energy-OPLS-2005>
118.193359375

> <r_mmod_Torsional_Energy-OPLS-2005>
242.645812988281

> <r_mmod_Improper_Torsional_Energy-OPLS-2005>
7.60417509078979

> <r_mmod_Van_der_Waal_Energy-OPLS-2005>
154.740570068359

> <r_mmod_Electrostatic_Energy-OPLS-2005>
-418.533264160156

> <r_mmod_Solvation_Energy-OPLS-2005>
-497.295837402344

> <b_mmod_Minimization_Converged-OPLS-2005>
0

> <r_mmod_RMS_Derivative-OPLS-2005>
1.48776865005493

$$$$
41
                    3D
 Structure written by MMmdl.
158166  0  0  1  0            999 V2000
  -30.7216  -14.4191   20.6408 C   0  0  0  0  0  0
  -30.4176  -12.2938   19.4197 C   0  0  0  0  0  0
  -29.4895  -12.5122   18.2077 C   0  0  0  0  0  0
  -28.0112  -12.3719   18.6162 C   0  0  0  0  0  0
  -27.6635  -13.2009   19.8805 C   0  0  2  0  0  0
  -28.6984  -12.9528   21.0019 C   0  0  0  0  0  0
  -25.2596  -13.8161   20.5642 C   0  0  0  0  0  0
  -24.1846  -13.0453   20.9163 C   0  0  0  0  0  0
  -24.6376  -11.6913   20.8729 C   0  0  0  0  0  0
  -23.9042  -10.4309   21.0412 C   0  0  0  0  0  0
  -24.3597   -9.4223   21.9192 C   0  0  0  0  0  0
  -23.6280   -8.2253   22.0765 C   0  0  0  0  0  0
  -22.4273   -8.0288   21.3536 C   0  0  0  0  0  0
  -21.9896   -9.0259   20.4635 C   0  0  0  0  0  0
  -22.7219  -10.2147   20.3054 C   0  0  0  0  0  0
  -21.6841   -6.0732   22.5273 C   0  0  0  0  0  0
  -21.4007   -6.5628   23.8207 C   0  0  0  0  0  0
  -21.3661   -5.6788   24.9179 C   0  0  0  0  0  0
  -21.6053   -4.3047   24.7242 C   0  0  0  0  0  0
  -21.8822   -3.8143   23.4352 C   0  0  0  0  0  0
  -21.9183   -4.6958   22.3396 C   0  0  0  0  0  0
  -22.7863  -13.5258   21.1832 C   0  0  0  0  0  0
  -22.1655   -4.2151   21.0983 F   0  0  0  0  0  0
  -21.5631   -3.4535   25.7749 F   0  0  0  0  0  0
  -30.0387  -13.2560   20.4666 N   0  0  0  0  0  0
  -26.3018  -12.9309   20.3362 N   0  0  0  0  0  0
  -25.9301  -11.6474   20.5751 N   0  0  0  0  0  0
  -22.0499  -12.8260   22.0390 N   0  0  0  0  0  0
  -25.4318  -15.1886   20.4018 N   0  0  0  0  0  0
  -31.7959  -14.6429   20.0726 O   0  0  0  0  0  0
  -21.6631   -6.8886   21.4236 O   0  0  0  0  0  0
  -22.3550  -14.5559   20.6680 O   0  0  0  0  0  0
  -24.6142  -31.8689   23.2049 C   0  0  0  0  0  0
  -25.9049  -32.4821   23.8347 C   0  0  1  0  0  0
  -27.2496  -27.4573   20.0705 C   0  0  0  0  0  0
  -25.5896  -33.8617   24.2307 N   0  0  0  0  0  0
  -23.3981  -30.4901   21.5489 C   0  0  2  0  0  0
  -24.8447  -28.9501   20.1213 C   0  0  0  0  0  0
  -22.7397  -29.4659   22.5015 C   0  0  0  0  0  0
  -18.0276  -28.1346   22.8497 C   0  0  0  0  0  0
  -24.1478  -36.7305   23.2639 C   0  0  0  0  0  0
  -25.9244  -30.8381   21.3552 C   0  0  0  0  0  0
  -26.0020  -29.4710   20.7089 C   0  0  0  0  0  0
  -27.2021  -28.7288   20.6845 C   0  0  0  0  0  0
  -26.0631  -26.9326   19.5074 C   0  0  0  0  0  0
  -24.8678  -27.6771   19.5253 C   0  0  0  0  0  0
  -23.6043  -29.8120   20.1677 C   0  0  0  0  0  0
  -25.4098  -36.3108   24.0342 C   0  0  1  0  0  0
  -20.5861  -28.3647   23.1322 C   0  0  2  0  0  0
  -20.6739  -26.9377   22.5433 C   0  0  0  0  0  0
  -19.5736  -26.6354   21.5211 C   0  0  0  0  0  0
  -18.1918  -26.7890   22.1633 C   0  0  0  0  0  0
  -19.1527  -28.8817   23.2895 C   0  0  0  0  0  0
  -18.9468  -30.1428   23.8905 C   0  0  0  0  0  0
  -17.6474  -30.6574   24.0541 C   0  0  0  0  0  0
  -25.9042  -34.9477   23.5131 C   0  0  0  0  0  0
  -16.5363  -29.9077   23.6301 C   0  0  0  0  0  0
  -16.7270  -28.6482   23.0346 C   0  0  0  0  0  0
  -26.4448  -31.6600   25.0682 C   0  0  0  0  0  0
  -25.3686  -31.3744   26.1404 C   0  0  0  0  0  0
  -27.0282  -30.3047   24.6065 C   0  0  0  0  0  0
  -27.5996  -32.4315   25.7477 C   0  0  0  0  0  0
  -27.5579  -37.1797   24.8470 C   0  0  0  0  0  0
  -21.4137  -29.3013   22.3729 N   0  0  0  0  0  0
  -26.4285  -37.3800   23.9431 N   0  0  0  0  0  0
  -24.6636  -31.0797   22.0941 N   0  0  0  0  0  0
  -23.4179  -28.8213   23.3060 O   0  0  0  0  0  0
  -28.4712  -26.8180   20.0508 O   0  0  0  0  0  0
  -26.5609  -34.8929   22.4691 O   0  0  0  0  0  0
  -23.5343  -32.1443   23.7464 O   0  0  0  0  0  0
  -30.8214  -19.5066   21.7953 C   0  0  0  0  0  0
  -31.7016  -17.2505   21.5046 C   0  0  0  0  0  0
  -29.3049  -17.5998   21.7664 C   0  0  0  0  0  0
  -31.9174  -18.6390   21.6176 C   0  0  0  0  0  0
  -29.5100  -18.9942   21.8823 C   0  0  0  0  0  0
  -30.3901  -16.7181   21.5540 C   0  0  0  0  0  0
  -28.3811  -23.2304   20.3866 C   0  0  0  0  0  0
  -28.9090  -24.4716   20.4064 C   0  0  0  0  0  0
  -28.7041  -22.2946   21.4525 C   0  0  0  0  0  0
  -33.3276  -19.1952   21.5554 C   0  0  0  0  0  0
  -28.3279  -19.9263   22.1466 C   0  0  0  0  0  0
  -28.6715  -25.5673   19.3891 C   0  0  0  0  0  0
  -30.1175  -15.3223   21.4369 N   0  0  0  0  0  0
  -28.2289  -21.0631   21.2261 N   0  0  0  0  0  0
  -29.3367  -22.5780   22.4717 O   0  0  0  0  0  0
  -31.4615  -12.3908   19.1174 H   0  0  0  0  0  0
  -30.3151  -11.2744   19.7972 H   0  0  0  0  0  0
  -29.7215  -11.7947   17.4207 H   0  0  0  0  0  0
  -29.6645  -13.5025   17.7840 H   0  0  0  0  0  0
  -27.8147  -11.3153   18.8029 H   0  0  0  0  0  0
  -27.3636  -12.6601   17.7868 H   0  0  0  0  0  0
  -27.7190  -14.2515   19.5956 H   0  0  0  0  0  0
  -28.6701  -11.9081   21.3174 H   0  0  0  0  0  0
  -28.4455  -13.5256   21.8949 H   0  0  0  0  0  0
  -25.2747   -9.5698   22.4761 H   0  0  0  0  0  0
  -23.9978   -7.4656   22.7507 H   0  0  0  0  0  0
  -21.0825   -8.8790   19.8944 H   0  0  0  0  0  0
  -22.3685  -10.9689   19.6156 H   0  0  0  0  0  0
  -21.2002   -7.6133   23.9710 H   0  0  0  0  0  0
  -21.1471   -6.0520   25.9083 H   0  0  0  0  0  0
  -22.0594   -2.7599   23.2858 H   0  0  0  0  0  0
  -22.4092  -11.9899   22.4752 H   0  0  0  0  0  0
  -21.1129  -13.1312   22.2620 H   0  0  0  0  0  0
  -24.6659  -15.8469   20.4999 H   0  0  0  0  0  0
  -26.2865  -15.6206   20.0723 H   0  0  0  0  0  0
  -26.7124  -32.5550   23.1126 H   0  0  0  0  0  0
  -24.9990  -33.9769   25.0398 H   0  0  0  0  0  0
  -22.6847  -31.3048   21.4027 H   0  0  0  0  0  0
  -23.3748  -35.9620   23.3306 H   0  0  0  0  0  0
  -24.3562  -36.8951   22.2055 H   0  0  0  0  0  0
  -23.7227  -37.6502   23.6657 H   0  0  0  0  0  0
  -26.0283  -31.6007   20.5813 H   0  0  0  0  0  0
  -26.8177  -30.8984   21.9682 H   0  0  0  0  0  0
  -28.1021  -29.1357   21.1239 H   0  0  0  0  0  0
  -26.0244  -25.9540   19.0539 H   0  0  0  0  0  0
  -23.9743  -27.2552   19.0884 H   0  0  0  0  0  0
  -23.7049  -30.5790   19.3990 H   0  0  0  0  0  0
  -22.7315  -29.2228   19.8776 H   0  0  0  0  0  0
  -25.1264  -36.1966   25.0830 H   0  0  0  0  0  0
  -20.9949  -28.3216   24.1434 H   0  0  0  0  0  0
  -20.5663  -26.2249   23.3622 H   0  0  0  0  0  0
  -21.6609  -26.7426   22.1232 H   0  0  0  0  0  0
  -19.6894  -25.6274   21.1234 H   0  0  0  0  0  0
  -19.6663  -27.3163   20.6721 H   0  0  0  0  0  0
  -17.4186  -26.6679   21.4030 H   0  0  0  0  0  0
  -18.0310  -26.0014   22.9015 H   0  0  0  0  0  0
  -19.7938  -30.7216   24.2313 H   0  0  0  0  0  0
  -17.5040  -31.6249   24.5143 H   0  0  0  0  0  0
  -15.5379  -30.2991   23.7613 H   0  0  0  0  0  0
  -15.8665  -28.0818   22.7056 H   0  0  0  0  0  0
  -24.5829  -30.7141   25.7730 H   0  0  0  0  0  0
  -24.8887  -32.2924   26.4784 H   0  0  0  0  0  0
  -25.7979  -30.8928   27.0207 H   0  0  0  0  0  0
  -26.2839  -29.6841   24.1055 H   0  0  0  0  0  0
  -27.4005  -29.7240   25.4520 H   0  0  0  0  0  0
  -27.8676  -30.4368   23.9234 H   0  0  0  0  0  0
  -27.2590  -33.3614   26.2036 H   0  0  0  0  0  0
  -28.3808  -32.6917   25.0329 H   0  0  0  0  0  0
  -28.0630  -31.8450   26.5430 H   0  0  0  0  0  0
  -28.2578  -38.0112   24.7554 H   0  0  0  0  0  0
  -28.1108  -36.2652   24.6236 H   0  0  0  0  0  0
  -27.2300  -37.1400   25.8875 H   0  0  0  0  0  0
  -20.9314  -29.8771   21.6975 H   0  0  0  0  0  0
  -26.0183  -38.2886   24.1427 H   0  0  0  0  0  0
  -30.9926  -20.5699   21.8893 H   0  0  0  0  0  0
  -32.5588  -16.6034   21.3864 H   0  0  0  0  0  0
  -28.2982  -17.2089   21.8326 H   0  0  0  0  0  0
  -27.7196  -22.9432   19.5794 H   0  0  0  0  0  0
  -29.5820  -24.7477   21.2082 H   0  0  0  0  0  0
  -33.4046  -20.1433   22.0887 H   0  0  0  0  0  0
  -33.6273  -19.3610   20.5201 H   0  0  0  0  0  0
  -34.0376  -18.5032   22.0093 H   0  0  0  0  0  0
  -28.3976  -20.2814   23.1773 H   0  0  0  0  0  0
  -27.3930  -19.3660   22.0987 H   0  0  0  0  0  0
  -27.9188  -25.2892   18.6556 H   0  0  0  0  0  0
  -29.5948  -25.6721   18.8192 H   0  0  0  0  0  0
  -29.2480  -15.0037   21.8372 H   0  0  0  0  0  0
  -27.6854  -20.9224   20.3863 H   0  0  0  0  0  0
  1 25  1  0  0  0
  1 30  2  0  0  0
  1 83  1  0  0  0
  2  3  1  0  0  0
  2 25  1  0  0  0
  2 86  1  0  0  0
  2 87  1  0  0  0
  3  4  1  0  0  0
  3 88  1  0  0  0
  3 89  1  0  0  0
  4  5  1  0  0  0
  4 90  1  0  0  0
  4 91  1  0  0  0
  5  6  1  0  0  0
  5 26  1  0  0  0
  5 92  1  0  0  0
  6 25  1  0  0  0
  6 93  1  0  0  0
  6 94  1  0  0  0
  7  8  2  0  0  0
  7 26  1  0  0  0
  7 29  1  0  0  0
  8  9  1  0  0  0
  8 22  1  0  0  0
  9 10  1  0  0  0
  9 27  2  0  0  0
 10 11  2  0  0  0
 10 15  1  0  0  0
 11 12  1  0  0  0
 11 95  1  0  0  0
 12 13  2  0  0  0
 12 96  1  0  0  0
 13 14  1  0  0  0
 13 31  1  0  0  0
 14 15  2  0  0  0
 14 97  1  0  0  0
 15 98  1  0  0  0
 16 17  2  0  0  0
 16 21  1  0  0  0
 16 31  1  0  0  0
 17 18  1  0  0  0
 17 99  1  0  0  0
 18 19  2  0  0  0
 18100  1  0  0  0
 19 20  1  0  0  0
 19 24  1  0  0  0
 20 21  2  0  0  0
 20101  1  0  0  0
 21 23  1  0  0  0
 22 28  1  0  0  0
 22 32  2  0  0  0
 26 27  1  0  0  0
 28102  1  0  0  0
 28103  1  0  0  0
 29104  1  0  0  0
 29105  1  0  0  0
 33 34  1  0  0  0
 33 66  1  0  0  0
 33 70  2  0  0  0
 34 36  1  0  0  0
 34 59  1  0  0  0
 34106  1  0  0  0
 35 44  2  0  0  0
 35 45  1  0  0  0
 35 68  1  0  0  0
 36 56  1  0  0  0
 36107  1  0  0  0
 37 39  1  0  0  0
 37 47  1  0  0  0
 37 66  1  0  0  0
 37108  1  0  0  0
 38 43  2  0  0  0
 38 46  1  0  0  0
 38 47  1  0  0  0
 39 64  1  0  0  0
 39 67  2  0  0  0
 40 52  1  0  0  0
 40 53  2  0  0  0
 40 58  1  0  0  0
 41109  1  0  0  0
 41110  1  0  0  0
 41111  1  0  0  0
 41 48  1  0  0  0
 42 43  1  0  0  0
 42 66  1  0  0  0
 42112  1  0  0  0
 42113  1  0  0  0
 43 44  1  0  0  0
 44114  1  0  0  0
 45 46  2  0  0  0
 45115  1  0  0  0
 46116  1  0  0  0
 47117  1  0  0  0
 47118  1  0  0  0
 48 56  1  0  0  0
 48 65  1  0  0  0
 48119  1  0  0  0
 49 50  1  0  0  0
 49 53  1  0  0  0
 49 64  1  0  0  0
 49120  1  0  0  0
 50 51  1  0  0  0
 50121  1  0  0  0
 50122  1  0  0  0
 51 52  1  0  0  0
 51123  1  0  0  0
 51124  1  0  0  0
 52125  1  0  0  0
 52126  1  0  0  0
 53 54  1  0  0  0
 54 55  2  0  0  0
 54127  1  0  0  0
 55 57  1  0  0  0
 55128  1  0  0  0
 56 69  2  0  0  0
 57 58  2  0  0  0
 57129  1  0  0  0
 58130  1  0  0  0
 59 60  1  0  0  0
 59 61  1  0  0  0
 59 62  1  0  0  0
 60131  1  0  0  0
 60132  1  0  0  0
 60133  1  0  0  0
 61134  1  0  0  0
 61135  1  0  0  0
 61136  1  0  0  0
 62137  1  0  0  0
 62138  1  0  0  0
 62139  1  0  0  0
 63 65  1  0  0  0
 63140  1  0  0  0
 63141  1  0  0  0
 63142  1  0  0  0
 64143  1  0  0  0
 65144  1  0  0  0
 68 82  1  0  0  0
 71 74  2  0  0  0
 71 75  1  0  0  0
 71145  1  0  0  0
 72 74  1  0  0  0
 72 76  2  0  0  0
 72146  1  0  0  0
 73 75  2  0  0  0
 73 76  1  0  0  0
 73147  1  0  0  0
 74 80  1  0  0  0
 75 81  1  0  0  0
 76 83  1  0  0  0
 77 78  2  0  0  0
 77 79  1  0  0  0
 77148  1  0  0  0
 78 82  1  0  0  0
 78149  1  0  0  0
 79 84  1  0  0  0
 79 85  2  0  0  0
 80150  1  0  0  0
 80151  1  0  0  0
 80152  1  0  0  0
 81 84  1  0  0  0
 81153  1  0  0  0
 81154  1  0  0  0
 82155  1  0  0  0
 82156  1  0  0  0
 83157  1  0  0  0
 84158  1  0  0  0
M  ISO  4   1 100  68 101  82 101  83 100
M  END
> <chiral flag>
0

> <version>
0

> <s_m_source_file>
/data/baiqing/PycharmProjects/Reinvent-master-3.2/result/LINK_invent/BTK/process_docking_weight1_custom_product_contain_oxygen_bond_distance_aromatic_linkinvent_7_9_3/rearranged_h_0056.sdf

> <i_m_source_file_index>
42

> <r_mmod_Potential_Energy-OPLS-2005>
-197.498947143555

> <r_mmod_Stretch_Energy-OPLS-2005>
34.3820533752441

> <r_mmod_Bend_Energy-OPLS-2005>
105.413925170898

> <r_mmod_Torsional_Energy-OPLS-2005>
196.654159545898

> <r_mmod_Improper_Torsional_Energy-OPLS-2005>
2.78578400611877

> <r_mmod_Van_der_Waal_Energy-OPLS-2005>
161.499084472656

> <r_mmod_Electrostatic_Energy-OPLS-2005>
-467.743408203125

> <r_mmod_Solvation_Energy-OPLS-2005>
-239.983749389648

> <b_mmod_Minimization_Converged-OPLS-2005>
0

> <r_mmod_RMS_Derivative-OPLS-2005>
3.30931162834167

$$$$
42
                    3D
 Structure written by MMmdl.
166175  0  0  1  0            999 V2000
  -30.7562  -14.4327   20.5994 C   0  0  0  0  0  0
  -30.4081  -12.2952   19.4270 C   0  0  0  0  0  0
  -29.4884  -12.5082   18.2092 C   0  0  0  0  0  0
  -28.0112  -12.3736   18.6213 C   0  0  0  0  0  0
  -27.6621  -13.2134   19.8797 C   0  0  2  0  0  0
  -28.7035  -13.0083   21.0047 C   0  0  0  0  0  0
  -25.2582  -13.8180   20.5690 C   0  0  0  0  0  0
  -24.1836  -13.0451   20.9170 C   0  0  0  0  0  0
  -24.6398  -11.6917   20.8736 C   0  0  0  0  0  0
  -23.9064  -10.4302   21.0403 C   0  0  0  0  0  0
  -24.3618   -9.4217   21.9181 C   0  0  0  0  0  0
  -23.6295   -8.2251   22.0756 C   0  0  0  0  0  0
  -22.4278   -8.0287   21.3547 C   0  0  0  0  0  0
  -21.9912   -9.0256   20.4644 C   0  0  0  0  0  0
  -22.7237  -10.2138   20.3052 C   0  0  0  0  0  0
  -21.6853   -6.0739   22.5273 C   0  0  0  0  0  0
  -21.4014   -6.5643   23.8208 C   0  0  0  0  0  0
  -21.3662   -5.6796   24.9170 C   0  0  0  0  0  0
  -21.6043   -4.3057   24.7220 C   0  0  0  0  0  0
  -21.8821   -3.8151   23.4342 C   0  0  0  0  0  0
  -21.9193   -4.6967   22.3398 C   0  0  0  0  0  0
  -22.7858  -13.5242   21.1830 C   0  0  0  0  0  0
  -22.1660   -4.2153   21.0975 F   0  0  0  0  0  0
  -21.5631   -3.4541   25.7735 F   0  0  0  0  0  0
  -30.0381  -13.2870   20.4512 N   0  0  0  0  0  0
  -26.3032  -12.9365   20.3404 N   0  0  0  0  0  0
  -25.9331  -11.6515   20.5789 N   0  0  0  0  0  0
  -22.0499  -12.8232   22.0383 N   0  0  0  0  0  0
  -25.4304  -15.1900   20.4101 N   0  0  0  0  0  0
  -31.8514  -14.5997   20.0556 O   0  0  0  0  0  0
  -21.6644   -6.8885   21.4240 O   0  0  0  0  0  0
  -22.3540  -14.5549   20.6681 O   0  0  0  0  0  0
  -24.6146  -31.8697   23.2134 C   0  0  0  0  0  0
  -25.9042  -32.4830   23.8426 C   0  0  1  0  0  0
  -27.2134  -27.4194   20.1082 C   0  0  0  0  0  0
  -25.5901  -33.8629   24.2356 N   0  0  0  0  0  0
  -23.4031  -30.4956   21.5545 C   0  0  2  0  0  0
  -24.8494  -28.9726   20.1087 C   0  0  0  0  0  0
  -22.7422  -29.4665   22.4994 C   0  0  0  0  0  0
  -18.0272  -28.1385   22.8500 C   0  0  0  0  0  0
  -24.1488  -36.7320   23.2641 C   0  0  0  0  0  0
  -25.9347  -30.8266   21.3770 C   0  0  0  0  0  0
  -26.0076  -29.4606   20.7279 C   0  0  0  0  0  0
  -27.1927  -28.6846   20.7416 C   0  0  0  0  0  0
  -26.0650  -26.9986   19.4060 C   0  0  0  0  0  0
  -24.8726  -27.7381   19.4432 C   0  0  0  0  0  0
  -23.6120  -29.8383   20.1653 C   0  0  0  0  0  0
  -25.4101  -36.3114   24.0349 C   0  0  1  0  0  0
  -20.5866  -28.3677   23.1318 C   0  0  2  0  0  0
  -20.6771  -26.9413   22.5424 C   0  0  0  0  0  0
  -19.5747  -26.6392   21.5226 C   0  0  0  0  0  0
  -18.1919  -26.7933   22.1624 C   0  0  0  0  0  0
  -19.1521  -28.8845   23.2908 C   0  0  0  0  0  0
  -18.9449  -30.1452   23.8921 C   0  0  0  0  0  0
  -17.6450  -30.6591   24.0569 C   0  0  0  0  0  0
  -25.9029  -34.9481   23.5143 C   0  0  0  0  0  0
  -16.5341  -29.9094   23.6332 C   0  0  0  0  0  0
  -16.7262  -28.6511   23.0353 C   0  0  0  0  0  0
  -26.4467  -31.6596   25.0745 C   0  0  0  0  0  0
  -25.3727  -31.3690   26.1482 C   0  0  0  0  0  0
  -27.0313  -30.3039   24.6132 C   0  0  0  0  0  0
  -27.6056  -32.4304   25.7491 C   0  0  0  0  0  0
  -27.5577  -37.1815   24.8467 C   0  0  0  0  0  0
  -21.4149  -29.3037   22.3723 N   0  0  0  0  0  0
  -26.4290  -37.3794   23.9411 N   0  0  0  0  0  0
  -24.6686  -31.0790   22.1056 N   0  0  0  0  0  0
  -23.4195  -28.8203   23.3031 O   0  0  0  0  0  0
  -28.3277  -26.6036   20.1305 O   0  0  0  0  0  0
  -26.5587  -34.8927   22.4702 O   0  0  0  0  0  0
  -23.5337  -32.1462   23.7515 O   0  0  0  0  0  0
  -29.3946  -18.8546   21.4024 C   0  0  0  0  0  0
  -29.5916  -19.0302   24.1969 C   0  0  0  0  0  0
  -30.1032  -17.8595   22.1163 C   0  0  0  0  0  0
  -28.8830  -20.0256   23.4897 C   0  0  0  0  0  0
  -28.7910  -19.9484   22.0739 C   0  0  0  0  0  0
  -30.1963  -17.9552   23.5200 C   0  0  0  0  0  0
  -27.1520  -23.0673   20.7234 C   0  0  0  0  0  0
  -25.9017  -22.4285   20.2940 C   0  0  0  0  0  0
  -28.2648  -22.1958   21.1864 C   0  0  0  0  0  0
  -25.1052  -22.9567   19.3428 C   0  0  0  0  0  0
  -27.1999  -24.4307   20.7409 C   0  0  0  0  0  0
  -25.5508  -21.0893   20.8735 C   0  0  0  0  0  0
  -26.7868  -20.2173   20.7334 C   0  0  0  0  0  0
  -28.1957  -21.1301   24.2779 C   0  0  0  0  0  0
  -30.8476  -16.7554   21.3720 C   0  0  0  0  0  0
  -28.2873  -25.4768   21.0508 C   0  0  0  0  0  0
  -27.9687  -20.8577   21.3316 N   0  0  0  0  0  0
  -30.1936  -15.4404   21.2894 N   0  0  0  0  0  0
  -29.3866  -22.6249   21.4768 O   0  0  0  0  0  0
  -30.8773  -17.0200   24.2250 F   0  0  0  0  0  0
  -31.4552  -12.3654   19.1264 H   0  0  0  0  0  0
  -30.2861  -11.2871   19.8262 H   0  0  0  0  0  0
  -29.7247  -11.7864   17.4262 H   0  0  0  0  0  0
  -29.6632  -13.4957   17.7790 H   0  0  0  0  0  0
  -27.8154  -11.3179   18.8113 H   0  0  0  0  0  0
  -27.3629  -12.6563   17.7909 H   0  0  0  0  0  0
  -27.7051  -14.2610   19.5805 H   0  0  0  0  0  0
  -28.6715  -11.9808   21.3703 H   0  0  0  0  0  0
  -28.4697  -13.6339   21.8666 H   0  0  0  0  0  0
  -25.2763   -9.5695   22.4752 H   0  0  0  0  0  0
  -24.0003   -7.4649   22.7479 H   0  0  0  0  0  0
  -21.0843   -8.8773   19.8950 H   0  0  0  0  0  0
  -22.3694  -10.9677   19.6161 H   0  0  0  0  0  0
  -21.2007   -7.6150   23.9711 H   0  0  0  0  0  0
  -21.1481   -6.0526   25.9073 H   0  0  0  0  0  0
  -22.0601   -2.7612   23.2838 H   0  0  0  0  0  0
  -22.4121  -11.9893   22.4763 H   0  0  0  0  0  0
  -21.1114  -13.1253   22.2588 H   0  0  0  0  0  0
  -24.6666  -15.8479   20.5203 H   0  0  0  0  0  0
  -26.2901  -15.6281   20.1035 H   0  0  0  0  0  0
  -26.7117  -32.5544   23.1195 H   0  0  0  0  0  0
  -25.0062  -33.9800   25.0509 H   0  0  0  0  0  0
  -22.6921  -31.3129   21.4198 H   0  0  0  0  0  0
  -23.3745  -35.9658   23.3304 H   0  0  0  0  0  0
  -24.3584  -36.8924   22.2053 H   0  0  0  0  0  0
  -23.7255  -37.6536   23.6647 H   0  0  0  0  0  0
  -26.0511  -31.5892   20.6059 H   0  0  0  0  0  0
  -26.8222  -30.8789   21.9955 H   0  0  0  0  0  0
  -28.0774  -29.0448   21.2481 H   0  0  0  0  0  0
  -26.0830  -26.0822   18.8346 H   0  0  0  0  0  0
  -23.9945  -27.3716   18.9292 H   0  0  0  0  0  0
  -23.7197  -30.6188   19.4108 H   0  0  0  0  0  0
  -22.7359  -29.2590   19.8683 H   0  0  0  0  0  0
  -25.1275  -36.1979   25.0845 H   0  0  0  0  0  0
  -20.9954  -28.3247   24.1439 H   0  0  0  0  0  0
  -20.5692  -26.2293   23.3615 H   0  0  0  0  0  0
  -21.6638  -26.7470   22.1200 H   0  0  0  0  0  0
  -19.6915  -25.6310   21.1241 H   0  0  0  0  0  0
  -19.6674  -27.3215   20.6764 H   0  0  0  0  0  0
  -17.4196  -26.6699   21.4013 H   0  0  0  0  0  0
  -18.0296  -26.0070   22.9011 H   0  0  0  0  0  0
  -19.7922  -30.7269   24.2297 H   0  0  0  0  0  0
  -17.5001  -31.6270   24.5171 H   0  0  0  0  0  0
  -15.5343  -30.2999   23.7650 H   0  0  0  0  0  0
  -15.8662  -28.0843   22.7049 H   0  0  0  0  0  0
  -24.5958  -30.6962   25.7826 H   0  0  0  0  0  0
  -24.8843  -32.2829   26.4872 H   0  0  0  0  0  0
  -25.8077  -30.8928   27.0278 H   0  0  0  0  0  0
  -26.2883  -29.6789   24.1167 H   0  0  0  0  0  0
  -27.4067  -29.7266   25.4595 H   0  0  0  0  0  0
  -27.8716  -30.4356   23.9311 H   0  0  0  0  0  0
  -27.2712  -33.3620   26.2063 H   0  0  0  0  0  0
  -28.3861  -32.6826   25.0301 H   0  0  0  0  0  0
  -28.0733  -31.8430   26.5403 H   0  0  0  0  0  0
  -28.2603  -38.0103   24.7507 H   0  0  0  0  0  0
  -28.1063  -36.2639   24.6292 H   0  0  0  0  0  0
  -27.2300  -37.1466   25.8872 H   0  0  0  0  0  0
  -20.9316  -29.8753   21.6937 H   0  0  0  0  0  0
  -26.0180  -38.2877   24.1390 H   0  0  0  0  0  0
  -29.3147  -18.7797   20.3265 H   0  0  0  0  0  0
  -29.6682  -19.0766   25.2741 H   0  0  0  0  0  0
  -25.3300  -23.8880   18.8457 H   0  0  0  0  0  0
  -24.2052  -22.4507   19.0238 H   0  0  0  0  0  0
  -26.2473  -24.8880   20.5633 H   0  0  0  0  0  0
  -24.7035  -20.6350   20.3572 H   0  0  0  0  0  0
  -25.2680  -21.2050   21.9209 H   0  0  0  0  0  0
  -26.9925  -20.0231   19.6792 H   0  0  0  0  0  0
  -26.5875  -19.2479   21.1936 H   0  0  0  0  0  0
  -28.1650  -20.9008   25.3434 H   0  0  0  0  0  0
  -27.1660  -21.2640   23.9453 H   0  0  0  0  0  0
  -28.7260  -22.0748   24.1560 H   0  0  0  0  0  0
  -31.8227  -16.6302   21.8474 H   0  0  0  0  0  0
  -31.0597  -17.1106   20.3616 H   0  0  0  0  0  0
  -29.2784  -25.0292   21.0482 H   0  0  0  0  0  0
  -28.1223  -25.8562   22.0605 H   0  0  0  0  0  0
  -29.2918  -15.3068   21.7203 H   0  0  0  0  0  0
  1 25  1  0  0  0
  1 30  2  0  0  0
  1 88  1  0  0  0
  2  3  1  0  0  0
  2 25  1  0  0  0
  2 91  1  0  0  0
  2 92  1  0  0  0
  3  4  1  0  0  0
  3 93  1  0  0  0
  3 94  1  0  0  0
  4  5  1  0  0  0
  4 95  1  0  0  0
  4 96  1  0  0  0
  5  6  1  0  0  0
  5 26  1  0  0  0
  5 97  1  0  0  0
  6 25  1  0  0  0
  6 98  1  0  0  0
  6 99  1  0  0  0
  7  8  2  0  0  0
  7 26  1  0  0  0
  7 29  1  0  0  0
  8  9  1  0  0  0
  8 22  1  0  0  0
  9 10  1  0  0  0
  9 27  2  0  0  0
 10 11  2  0  0  0
 10 15  1  0  0  0
 11 12  1  0  0  0
 11100  1  0  0  0
 12 13  2  0  0  0
 12101  1  0  0  0
 13 14  1  0  0  0
 13 31  1  0  0  0
 14 15  2  0  0  0
 14102  1  0  0  0
 15103  1  0  0  0
 16 17  2  0  0  0
 16 21  1  0  0  0
 16 31  1  0  0  0
 17 18  1  0  0  0
 17104  1  0  0  0
 18 19  2  0  0  0
 18105  1  0  0  0
 19 20  1  0  0  0
 19 24  1  0  0  0
 20 21  2  0  0  0
 20106  1  0  0  0
 21 23  1  0  0  0
 22 28  1  0  0  0
 22 32  2  0  0  0
 26 27  1  0  0  0
 28107  1  0  0  0
 28108  1  0  0  0
 29109  1  0  0  0
 29110  1  0  0  0
 33 34  1  0  0  0
 33 66  1  0  0  0
 33 70  2  0  0  0
 34 36  1  0  0  0
 34 59  1  0  0  0
 34111  1  0  0  0
 35 44  2  0  0  0
 35 45  1  0  0  0
 35 68  1  0  0  0
 36 56  1  0  0  0
 36112  1  0  0  0
 37 39  1  0  0  0
 37 47  1  0  0  0
 37 66  1  0  0  0
 37113  1  0  0  0
 38 43  2  0  0  0
 38 46  1  0  0  0
 38 47  1  0  0  0
 39 64  1  0  0  0
 39 67  2  0  0  0
 40 52  1  0  0  0
 40 53  2  0  0  0
 40 58  1  0  0  0
 41114  1  0  0  0
 41115  1  0  0  0
 41116  1  0  0  0
 41 48  1  0  0  0
 42 43  1  0  0  0
 42 66  1  0  0  0
 42117  1  0  0  0
 42118  1  0  0  0
 43 44  1  0  0  0
 44119  1  0  0  0
 45 46  2  0  0  0
 45120  1  0  0  0
 46121  1  0  0  0
 47122  1  0  0  0
 47123  1  0  0  0
 48 56  1  0  0  0
 48 65  1  0  0  0
 48124  1  0  0  0
 49 50  1  0  0  0
 49 53  1  0  0  0
 49 64  1  0  0  0
 49125  1  0  0  0
 50 51  1  0  0  0
 50126  1  0  0  0
 50127  1  0  0  0
 51 52  1  0  0  0
 51128  1  0  0  0
 51129  1  0  0  0
 52130  1  0  0  0
 52131  1  0  0  0
 53 54  1  0  0  0
 54 55  2  0  0  0
 54132  1  0  0  0
 55 57  1  0  0  0
 55133  1  0  0  0
 56 69  2  0  0  0
 57 58  2  0  0  0
 57134  1  0  0  0
 58135  1  0  0  0
 59 60  1  0  0  0
 59 61  1  0  0  0
 59 62  1  0  0  0
 60136  1  0  0  0
 60137  1  0  0  0
 60138  1  0  0  0
 61139  1  0  0  0
 61140  1  0  0  0
 61141  1  0  0  0
 62142  1  0  0  0
 62143  1  0  0  0
 62144  1  0  0  0
 63 65  1  0  0  0
 63145  1  0  0  0
 63146  1  0  0  0
 63147  1  0  0  0
 64148  1  0  0  0
 65149  1  0  0  0
 68 86  1  0  0  0
 71 73  2  0  0  0
 71 75  1  0  0  0
 71150  1  0  0  0
 72 74  1  0  0  0
 72 76  2  0  0  0
 72151  1  0  0  0
 73 76  1  0  0  0
 73 85  1  0  0  0
 74 75  2  0  0  0
 74 84  1  0  0  0
 75 87  1  0  0  0
 76 90  1  0  0  0
 77 78  1  0  0  0
 77 79  1  0  0  0
 77 81  2  0  0  0
 78 80  2  0  0  0
 78 82  1  0  0  0
 79 87  1  0  0  0
 79 89  2  0  0  0
 80152  1  0  0  0
 80153  1  0  0  0
 81 86  1  0  0  0
 81154  1  0  0  0
 82 83  1  0  0  0
 82155  1  0  0  0
 82156  1  0  0  0
 83 87  1  0  0  0
 83157  1  0  0  0
 83158  1  0  0  0
 84159  1  0  0  0
 84160  1  0  0  0
 84161  1  0  0  0
 85 88  1  0  0  0
 85162  1  0  0  0
 85163  1  0  0  0
 86164  1  0  0  0
 86165  1  0  0  0
 88166  1  0  0  0
M  ISO  4   1 100  68 101  86 101  88 100
M  END
> <chiral flag>
0

> <version>
0

> <s_m_source_file>
/data/baiqing/PycharmProjects/Reinvent-master-3.2/result/LINK_invent/BTK/process_docking_weight1_custom_product_contain_oxygen_bond_distance_aromatic_linkinvent_7_9_3/rearranged_h_0056.sdf

> <i_m_source_file_index>
43

> <r_mmod_Potential_Energy-OPLS-2005>
115.584693908691

> <r_mmod_Stretch_Energy-OPLS-2005>
49.0206451416016

> <r_mmod_Bend_Energy-OPLS-2005>
126.173263549805

> <r_mmod_Torsional_Energy-OPLS-2005>
312.654327392578

> <r_mmod_Improper_Torsional_Energy-OPLS-2005>
3.46544647216797

> <r_mmod_Van_der_Waal_Energy-OPLS-2005>
184.770889282227

> <r_mmod_Electrostatic_Energy-OPLS-2005>
-369.270843505859

> <r_mmod_Solvation_Energy-OPLS-2005>
-207.891906738281

> <b_mmod_Minimization_Converged-OPLS-2005>
0

> <r_mmod_RMS_Derivative-OPLS-2005>
0.965004622936249

$$$$
43
                    3D
 Structure written by MMmdl.
162170  0  0  1  0            999 V2000
  -30.7795  -14.3651   20.7296 C   0  0  0  0  0  0
  -30.4141  -12.3165   19.3929 C   0  0  0  0  0  0
  -29.4821  -12.5563   18.1917 C   0  0  0  0  0  0
  -28.0073  -12.3956   18.6046 C   0  0  0  0  0  0
  -27.6629  -13.2061   19.8810 C   0  0  2  0  0  0
  -28.6992  -12.9181   20.9862 C   0  0  0  0  0  0
  -25.2555  -13.8182   20.5689 C   0  0  0  0  0  0
  -24.1798  -13.0455   20.9202 C   0  0  0  0  0  0
  -24.6366  -11.6925   20.8762 C   0  0  0  0  0  0
  -23.9029  -10.4295   21.0418 C   0  0  0  0  0  0
  -24.3601   -9.4210   21.9191 C   0  0  0  0  0  0
  -23.6285   -8.2235   22.0759 C   0  0  0  0  0  0
  -22.4267   -8.0267   21.3552 C   0  0  0  0  0  0
  -21.9894   -9.0238   20.4661 C   0  0  0  0  0  0
  -22.7204  -10.2122   20.3072 C   0  0  0  0  0  0
  -21.6842   -6.0735   22.5287 C   0  0  0  0  0  0
  -21.4006   -6.5634   23.8220 C   0  0  0  0  0  0
  -21.3661   -5.6785   24.9178 C   0  0  0  0  0  0
  -21.6052   -4.3053   24.7239 C   0  0  0  0  0  0
  -21.8805   -3.8148   23.4362 C   0  0  0  0  0  0
  -21.9185   -4.6963   22.3413 C   0  0  0  0  0  0
  -22.7827  -13.5236   21.1850 C   0  0  0  0  0  0
  -22.1671   -4.2150   21.0996 F   0  0  0  0  0  0
  -21.5620   -3.4532   25.7756 F   0  0  0  0  0  0
  -30.0370  -13.2510   20.4705 N   0  0  0  0  0  0
  -26.3000  -12.9360   20.3383 N   0  0  0  0  0  0
  -25.9281  -11.6517   20.5780 N   0  0  0  0  0  0
  -22.0448  -12.8249   22.0421 N   0  0  0  0  0  0
  -25.4246  -15.1898   20.4107 N   0  0  0  0  0  0
  -31.7573  -14.6816   20.0466 O   0  0  0  0  0  0
  -21.6635   -6.8874   21.4251 O   0  0  0  0  0  0
  -22.3545  -14.5541   20.6685 O   0  0  0  0  0  0
  -24.6105  -31.8715   23.2148 C   0  0  0  0  0  0
  -25.9008  -32.4857   23.8424 C   0  0  1  0  0  0
  -27.2272  -27.4559   20.0658 C   0  0  0  0  0  0
  -25.5919  -33.8655   24.2362 N   0  0  0  0  0  0
  -23.3988  -30.4934   21.5581 C   0  0  2  0  0  0
  -24.8418  -28.9653   20.1219 C   0  0  0  0  0  0
  -22.7395  -29.4631   22.5021 C   0  0  0  0  0  0
  -18.0257  -28.1345   22.8483 C   0  0  0  0  0  0
  -24.1495  -36.7293   23.2624 C   0  0  0  0  0  0
  -25.9334  -30.8358   21.3753 C   0  0  0  0  0  0
  -26.0043  -29.4757   20.7126 C   0  0  0  0  0  0
  -27.2033  -28.7299   20.6786 C   0  0  0  0  0  0
  -26.0414  -26.9593   19.4748 C   0  0  0  0  0  0
  -24.8530  -27.7053   19.5046 C   0  0  0  0  0  0
  -23.6063  -29.8275   20.1735 C   0  0  0  0  0  0
  -25.4114  -36.3107   24.0333 C   0  0  1  0  0  0
  -20.5844  -28.3626   23.1377 C   0  0  2  0  0  0
  -20.6776  -26.9370   22.5487 C   0  0  0  0  0  0
  -19.5762  -26.6362   21.5285 C   0  0  0  0  0  0
  -18.1910  -26.7884   22.1637 C   0  0  0  0  0  0
  -19.1492  -28.8803   23.2913 C   0  0  0  0  0  0
  -18.9405  -30.1425   23.8897 C   0  0  0  0  0  0
  -17.6392  -30.6537   24.0523 C   0  0  0  0  0  0
  -25.9045  -34.9483   23.5125 C   0  0  0  0  0  0
  -16.5288  -29.9025   23.6287 C   0  0  0  0  0  0
  -16.7239  -28.6445   23.0321 C   0  0  0  0  0  0
  -26.4479  -31.6629   25.0725 C   0  0  0  0  0  0
  -25.3768  -31.3729   26.1470 C   0  0  0  0  0  0
  -27.0296  -30.3059   24.6124 C   0  0  0  0  0  0
  -27.6073  -32.4335   25.7482 C   0  0  0  0  0  0
  -27.5587  -37.1798   24.8458 C   0  0  0  0  0  0
  -21.4121  -29.3011   22.3801 N   0  0  0  0  0  0
  -26.4308  -37.3783   23.9390 N   0  0  0  0  0  0
  -24.6654  -31.0793   22.1076 N   0  0  0  0  0  0
  -23.4170  -28.8121   23.3007 O   0  0  0  0  0  0
  -28.4047  -26.7374   20.0604 O   0  0  0  0  0  0
  -26.5557  -34.8921   22.4664 O   0  0  0  0  0  0
  -23.5302  -32.1447   23.7559 O   0  0  0  0  0  0
  -28.6041  -15.4945   23.2523 C   0  0  0  0  0  0
  -27.5232  -16.3107   23.6180 C   0  0  0  0  0  0
  -29.2635  -17.1279   21.5656 C   0  0  0  0  0  0
  -28.1984  -17.9867   21.9511 C   0  0  0  0  0  0
  -29.4466  -15.8671   22.1876 C   0  0  0  0  0  0
  -27.3188  -17.5470   22.9787 C   0  0  0  0  0  0
  -23.8381  -21.6801   20.8556 C   0  0  0  0  0  0
  -25.0105  -21.1625   20.4504 C   0  0  0  0  0  0
  -28.0694  -19.3611   21.3253 C   0  0  0  0  0  0
  -27.2444  -22.4075   20.7580 C   0  0  0  0  0  0
  -27.7438  -24.8417   21.4456 C   0  0  0  0  0  0
  -28.3165  -25.3044   20.0827 C   0  0  0  0  0  0
  -26.3138  -21.2629   21.2253 C   0  0  2  0  0  0
  -30.5565  -15.0344   21.8759 N   0  0  0  0  0  0
  -26.8520  -19.9150   21.4253 N   0  0  0  0  0  0
  -27.3306  -23.4414   21.6136 N   0  0  0  0  0  0
  -29.0285  -19.8990   20.7724 O   0  0  0  0  0  0
  -27.7516  -22.3963   19.6343 O   0  0  0  0  0  0
  -26.2686  -18.3023   23.3913 F   0  0  0  0  0  0
  -31.4578  -12.4227   19.0926 H   0  0  0  0  0  0
  -30.3241  -11.2880   19.7450 H   0  0  0  0  0  0
  -29.7232  -11.8711   17.3792 H   0  0  0  0  0  0
  -29.6485  -13.5607   17.8014 H   0  0  0  0  0  0
  -27.8153  -11.3353   18.7760 H   0  0  0  0  0  0
  -27.3562  -12.6903   17.7820 H   0  0  0  0  0  0
  -27.7273  -14.2642   19.6247 H   0  0  0  0  0  0
  -28.6693  -11.8629   21.2560 H   0  0  0  0  0  0
  -28.4342  -13.4270   21.9010 H   0  0  0  0  0  0
  -25.2745   -9.5689   22.4766 H   0  0  0  0  0  0
  -24.0009   -7.4615   22.7463 H   0  0  0  0  0  0
  -21.0820   -8.8723   19.8977 H   0  0  0  0  0  0
  -22.3634  -10.9657   19.6183 H   0  0  0  0  0  0
  -21.2013   -7.6142   23.9724 H   0  0  0  0  0  0
  -21.1506   -6.0525   25.9079 H   0  0  0  0  0  0
  -22.0596   -2.7620   23.2865 H   0  0  0  0  0  0
  -22.4042  -11.9922   22.4854 H   0  0  0  0  0  0
  -21.1049  -13.1263   22.2577 H   0  0  0  0  0  0
  -24.6550  -15.8390   20.5262 H   0  0  0  0  0  0
  -26.2800  -15.6363   20.1077 H   0  0  0  0  0  0
  -26.7068  -32.5543   23.1181 H   0  0  0  0  0  0
  -25.0156  -33.9898   25.0570 H   0  0  0  0  0  0
  -22.6816  -31.3046   21.4247 H   0  0  0  0  0  0
  -23.3781  -35.9611   23.3286 H   0  0  0  0  0  0
  -24.3577  -36.8871   22.2033 H   0  0  0  0  0  0
  -23.7249  -37.6504   23.6636 H   0  0  0  0  0  0
  -26.0629  -31.6067   20.6158 H   0  0  0  0  0  0
  -26.8178  -30.8785   22.0011 H   0  0  0  0  0  0
  -28.1058  -29.1308   21.1209 H   0  0  0  0  0  0
  -26.0082  -26.0084   18.9681 H   0  0  0  0  0  0
  -23.9583  -27.3117   19.0424 H   0  0  0  0  0  0
  -23.7128  -30.6043   19.4165 H   0  0  0  0  0  0
  -22.7372  -29.2361   19.8776 H   0  0  0  0  0  0
  -25.1322  -36.1961   25.0837 H   0  0  0  0  0  0
  -20.9944  -28.3226   24.1494 H   0  0  0  0  0  0
  -20.5620  -26.2257   23.3668 H   0  0  0  0  0  0
  -21.6678  -26.7351   22.1352 H   0  0  0  0  0  0
  -19.6922  -25.6273   21.1319 H   0  0  0  0  0  0
  -19.6732  -27.3192   20.6825 H   0  0  0  0  0  0
  -17.4235  -26.6665   21.3967 H   0  0  0  0  0  0
  -18.0239  -26.0025   22.9020 H   0  0  0  0  0  0
  -19.7885  -30.7254   24.2257 H   0  0  0  0  0  0
  -17.4924  -31.6223   24.5091 H   0  0  0  0  0  0
  -15.5270  -30.2919   23.7595 H   0  0  0  0  0  0
  -15.8645  -28.0747   22.7043 H   0  0  0  0  0  0
  -24.5983  -30.7038   25.7768 H   0  0  0  0  0  0
  -24.8940  -32.2899   26.4866 H   0  0  0  0  0  0
  -25.8132  -30.8911   27.0232 H   0  0  0  0  0  0
  -26.2839  -29.6843   24.1157 H   0  0  0  0  0  0
  -27.4006  -29.7257   25.4582 H   0  0  0  0  0  0
  -27.8717  -30.4309   23.9313 H   0  0  0  0  0  0
  -27.2731  -33.3629   26.2104 H   0  0  0  0  0  0
  -28.3902  -32.6888   25.0331 H   0  0  0  0  0  0
  -28.0775  -31.8436   26.5368 H   0  0  0  0  0  0
  -28.2608  -38.0090   24.7532 H   0  0  0  0  0  0
  -28.1093  -36.2628   24.6294 H   0  0  0  0  0  0
  -27.2301  -37.1451   25.8859 H   0  0  0  0  0  0
  -20.9271  -29.8806   21.7100 H   0  0  0  0  0  0
  -26.0181  -38.2851   24.1416 H   0  0  0  0  0  0
  -28.7736  -14.5682   23.7836 H   0  0  0  0  0  0
  -26.8526  -15.9875   24.4007 H   0  0  0  0  0  0
  -29.9577  -17.4532   20.8032 H   0  0  0  0  0  0
  -22.9476  -21.5719   20.2531 H   0  0  0  0  0  0
  -23.7464  -22.2188   21.7882 H   0  0  0  0  0  0
  -25.0490  -20.6399   19.5053 H   0  0  0  0  0  0
  -26.8395  -25.4112   21.6577 H   0  0  0  0  0  0
  -28.4369  -25.1134   22.2403 H   0  0  0  0  0  0
  -29.3251  -24.9143   19.9594 H   0  0  0  0  0  0
  -27.7481  -24.9257   19.2324 H   0  0  0  0  0  0
  -26.0096  -21.5370   22.2367 H   0  0  0  0  0  0
  -31.4221  -15.4878   22.1274 H   0  0  0  0  0  0
  -26.2063  -19.3071   21.9133 H   0  0  0  0  0  0
  -26.8857  -23.2693   22.5083 H   0  0  0  0  0  0
  1 25  1  0  0  0
  1 30  2  0  0  0
  1 84  1  0  0  0
  2  3  1  0  0  0
  2 25  1  0  0  0
  2 90  1  0  0  0
  2 91  1  0  0  0
  3  4  1  0  0  0
  3 92  1  0  0  0
  3 93  1  0  0  0
  4  5  1  0  0  0
  4 94  1  0  0  0
  4 95  1  0  0  0
  5  6  1  0  0  0
  5 26  1  0  0  0
  5 96  1  0  0  0
  6 25  1  0  0  0
  6 97  1  0  0  0
  6 98  1  0  0  0
  7  8  2  0  0  0
  7 26  1  0  0  0
  7 29  1  0  0  0
  8  9  1  0  0  0
  8 22  1  0  0  0
  9 10  1  0  0  0
  9 27  2  0  0  0
 10 11  2  0  0  0
 10 15  1  0  0  0
 11 12  1  0  0  0
 11 99  1  0  0  0
 12 13  2  0  0  0
 12100  1  0  0  0
 13 14  1  0  0  0
 13 31  1  0  0  0
 14 15  2  0  0  0
 14101  1  0  0  0
 15102  1  0  0  0
 16 17  2  0  0  0
 16 21  1  0  0  0
 16 31  1  0  0  0
 17 18  1  0  0  0
 17103  1  0  0  0
 18 19  2  0  0  0
 18104  1  0  0  0
 19 20  1  0  0  0
 19 24  1  0  0  0
 20 21  2  0  0  0
 20105  1  0  0  0
 21 23  1  0  0  0
 22 28  1  0  0  0
 22 32  2  0  0  0
 26 27  1  0  0  0
 28106  1  0  0  0
 28107  1  0  0  0
 29108  1  0  0  0
 29109  1  0  0  0
 33 34  1  0  0  0
 33 66  1  0  0  0
 33 70  2  0  0  0
 34 36  1  0  0  0
 34 59  1  0  0  0
 34110  1  0  0  0
 35 44  2  0  0  0
 35 45  1  0  0  0
 35 68  1  0  0  0
 36 56  1  0  0  0
 36111  1  0  0  0
 37 39  1  0  0  0
 37 47  1  0  0  0
 37 66  1  0  0  0
 37112  1  0  0  0
 38 43  2  0  0  0
 38 46  1  0  0  0
 38 47  1  0  0  0
 39 64  1  0  0  0
 39 67  2  0  0  0
 40 52  1  0  0  0
 40 53  2  0  0  0
 40 58  1  0  0  0
 41113  1  0  0  0
 41114  1  0  0  0
 41115  1  0  0  0
 41 48  1  0  0  0
 42 43  1  0  0  0
 42 66  1  0  0  0
 42116  1  0  0  0
 42117  1  0  0  0
 43 44  1  0  0  0
 44118  1  0  0  0
 45 46  2  0  0  0
 45119  1  0  0  0
 46120  1  0  0  0
 47121  1  0  0  0
 47122  1  0  0  0
 48 56  1  0  0  0
 48 65  1  0  0  0
 48123  1  0  0  0
 49 50  1  0  0  0
 49 53  1  0  0  0
 49 64  1  0  0  0
 49124  1  0  0  0
 50 51  1  0  0  0
 50125  1  0  0  0
 50126  1  0  0  0
 51 52  1  0  0  0
 51127  1  0  0  0
 51128  1  0  0  0
 52129  1  0  0  0
 52130  1  0  0  0
 53 54  1  0  0  0
 54 55  2  0  0  0
 54131  1  0  0  0
 55 57  1  0  0  0
 55132  1  0  0  0
 56 69  2  0  0  0
 57 58  2  0  0  0
 57133  1  0  0  0
 58134  1  0  0  0
 59 60  1  0  0  0
 59 61  1  0  0  0
 59 62  1  0  0  0
 60135  1  0  0  0
 60136  1  0  0  0
 60137  1  0  0  0
 61138  1  0  0  0
 61139  1  0  0  0
 61140  1  0  0  0
 62141  1  0  0  0
 62142  1  0  0  0
 62143  1  0  0  0
 63 65  1  0  0  0
 63144  1  0  0  0
 63145  1  0  0  0
 63146  1  0  0  0
 64147  1  0  0  0
 65148  1  0  0  0
 68 82  1  0  0  0
 71 72  2  0  0  0
 71 75  1  0  0  0
 71149  1  0  0  0
 72 76  1  0  0  0
 72150  1  0  0  0
 73 74  1  0  0  0
 73 75  2  0  0  0
 73151  1  0  0  0
 74 76  2  0  0  0
 74 79  1  0  0  0
 75 84  1  0  0  0
 76 89  1  0  0  0
 77 78  2  0  0  0
 77152  1  0  0  0
 77153  1  0  0  0
 78 83  1  0  0  0
 78154  1  0  0  0
 79 85  1  0  0  0
 79 87  2  0  0  0
 80 83  1  0  0  0
 80 86  1  0  0  0
 80 88  2  0  0  0
 81 82  1  0  0  0
 81 86  1  0  0  0
 81155  1  0  0  0
 81156  1  0  0  0
 82157  1  0  0  0
 82158  1  0  0  0
 83 85  1  0  0  0
 83159  1  0  0  0
 84160  1  0  0  0
 85161  1  0  0  0
 86162  1  0  0  0
M  ISO  4   1 100  68 101  82 101  84 100
M  END
> <chiral flag>
0

> <version>
0

> <s_m_source_file>
/data/baiqing/PycharmProjects/Reinvent-master-3.2/result/LINK_invent/BTK/process_docking_weight1_custom_product_contain_oxygen_bond_distance_aromatic_linkinvent_7_9_3/rearranged_h_0056.sdf

> <i_m_source_file_index>
44

> <r_mmod_Potential_Energy-OPLS-2005>
-184.877563476562

> <r_mmod_Stretch_Energy-OPLS-2005>
37.8885078430176

> <r_mmod_Bend_Energy-OPLS-2005>
153.591812133789

> <r_mmod_Torsional_Energy-OPLS-2005>
235.826110839844

> <r_mmod_Improper_Torsional_Energy-OPLS-2005>
10.7635717391968

> <r_mmod_Van_der_Waal_Energy-OPLS-2005>
160.5185546875

> <r_mmod_Electrostatic_Energy-OPLS-2005>
-543.294799804688

> <r_mmod_Solvation_Energy-OPLS-2005>
-249.196197509766

> <b_mmod_Minimization_Converged-OPLS-2005>
0

> <r_mmod_RMS_Derivative-OPLS-2005>
4.09527349472046

$$$$
44
                    3D
 Structure written by MMmdl.
170179  0  0  1  0            999 V2000
  -30.6158  -14.5432   20.5190 C   0  0  0  0  0  0
  -30.4265  -12.3300   19.4252 C   0  0  0  0  0  0
  -29.5086  -12.5373   18.2010 C   0  0  0  0  0  0
  -28.0256  -12.3648   18.5979 C   0  0  0  0  0  0
  -27.6515  -13.1985   19.8547 C   0  0  2  0  0  0
  -28.6939  -12.9887   20.9803 C   0  0  0  0  0  0
  -25.2560  -13.8090   20.5639 C   0  0  0  0  0  0
  -24.1802  -13.0401   20.9129 C   0  0  0  0  0  0
  -24.6322  -11.6864   20.8619 C   0  0  0  0  0  0
  -23.8910  -10.4289   21.0246 C   0  0  0  0  0  0
  -24.3503   -9.4290   21.9060 C   0  0  0  0  0  0
  -23.6261   -8.2268   22.0628 C   0  0  0  0  0  0
  -22.4243   -8.0194   21.3449 C   0  0  0  0  0  0
  -21.9800   -9.0119   20.4573 C   0  0  0  0  0  0
  -22.7038  -10.2050   20.2960 C   0  0  0  0  0  0
  -21.6940   -6.0641   22.5218 C   0  0  0  0  0  0
  -21.4089   -6.5574   23.8137 C   0  0  0  0  0  0
  -21.3666   -5.6730   24.9113 C   0  0  0  0  0  0
  -21.6021   -4.2976   24.7155 C   0  0  0  0  0  0
  -21.8857   -3.8028   23.4301 C   0  0  0  0  0  0
  -21.9258   -4.6864   22.3361 C   0  0  0  0  0  0
  -22.7823  -13.5187   21.1808 C   0  0  0  0  0  0
  -22.1701   -4.2035   21.0938 F   0  0  0  0  0  0
  -21.5656   -3.4484   25.7684 F   0  0  0  0  0  0
  -30.0109  -13.3263   20.4213 N   0  0  0  0  0  0
  -26.2982  -12.9260   20.3246 N   0  0  0  0  0  0
  -25.9262  -11.6430   20.5607 N   0  0  0  0  0  0
  -22.0488  -12.8198   22.0431 N   0  0  0  0  0  0
  -25.4252  -15.1797   20.4065 N   0  0  0  0  0  0
  -31.7810  -14.7342   20.1615 O   0  0  0  0  0  0
  -21.6685   -6.8732   21.4148 O   0  0  0  0  0  0
  -22.3504  -14.5459   20.6602 O   0  0  0  0  0  0
  -24.6302  -31.8533   23.2000 C   0  0  0  0  0  0
  -25.9154  -32.4718   23.8307 C   0  0  1  0  0  0
  -27.2651  -27.3378   20.0358 C   0  0  0  0  0  0
  -25.5938  -33.8541   24.2213 N   0  0  0  0  0  0
  -23.4299  -30.4718   21.5409 C   0  0  2  0  0  0
  -24.8776  -28.9176   20.1074 C   0  0  0  0  0  0
  -22.7487  -29.4577   22.4925 C   0  0  0  0  0  0
  -18.0288  -28.1409   22.8511 C   0  0  0  0  0  0
  -24.1456  -36.7268   23.2656 C   0  0  0  0  0  0
  -25.9700  -30.7705   21.3788 C   0  0  0  0  0  0
  -26.0437  -29.4019   20.7085 C   0  0  0  0  0  0
  -27.2323  -28.6132   20.6799 C   0  0  0  0  0  0
  -26.0753  -26.8974   19.4242 C   0  0  0  0  0  0
  -24.8920  -27.6605   19.4731 C   0  0  0  0  0  0
  -23.6504  -29.8044   20.1573 C   0  0  0  0  0  0
  -25.4088  -36.3060   24.0333 C   0  0  1  0  0  0
  -20.5896  -28.3702   23.1279 C   0  0  2  0  0  0
  -20.6764  -26.9420   22.5427 C   0  0  0  0  0  0
  -19.5742  -26.6407   21.5235 C   0  0  0  0  0  0
  -18.1926  -26.7965   22.1646 C   0  0  0  0  0  0
  -19.1546  -28.8881   23.2900 C   0  0  0  0  0  0
  -18.9472  -30.1469   23.8917 C   0  0  0  0  0  0
  -17.6466  -30.6618   24.0590 C   0  0  0  0  0  0
  -25.9045  -34.9419   23.5098 C   0  0  0  0  0  0
  -16.5351  -29.9134   23.6332 C   0  0  0  0  0  0
  -16.7268  -28.6558   23.0355 C   0  0  0  0  0  0
  -26.4539  -31.6584   25.0711 C   0  0  0  0  0  0
  -25.3769  -31.3766   26.1436 C   0  0  0  0  0  0
  -27.0445  -30.2993   24.6275 C   0  0  0  0  0  0
  -27.6099  -32.4374   25.7473 C   0  0  0  0  0  0
  -27.5554  -37.1777   24.8469 C   0  0  0  0  0  0
  -21.4180  -29.3054   22.3673 N   0  0  0  0  0  0
  -26.4251  -37.3767   23.9432 N   0  0  0  0  0  0
  -24.6953  -31.0477   22.0944 N   0  0  0  0  0  0
  -23.4174  -28.8121   23.3047 O   0  0  0  0  0  0
  -28.3939  -26.5138   20.1266 O   0  0  0  0  0  0
  -26.5653  -34.8920   22.4658 O   0  0  0  0  0  0
  -23.5478  -32.1334   23.7308 O   0  0  0  0  0  0
  -31.1672  -18.7948   22.0901 C   0  0  0  0  0  0
  -31.0016  -17.4142   21.8595 C   0  0  0  0  0  0
  -29.2792  -17.9416   20.2372 C   0  0  0  0  0  0
  -30.3732  -19.7621   21.4238 C   0  0  0  0  0  0
  -29.4310  -19.3547   20.4239 C   0  0  0  0  0  0
  -30.0377  -16.9707   20.9389 C   0  0  0  0  0  0
  -28.2818  -22.9013   19.6527 C   0  0  0  0  0  0
  -30.0981  -22.7470   17.3075 C   0  0  0  0  0  0
  -28.8506  -23.6627   17.2794 C   0  0  0  0  0  0
  -30.2649  -21.9966   18.6359 C   0  0  0  0  0  0
  -28.2842  -24.1344   18.6665 C   0  0  2  0  0  0
  -30.5769  -21.2035   21.8689 C   0  0  0  0  0  0
  -26.2272  -19.7865   18.3073 C   0  0  0  0  0  0
  -28.8753  -25.5567   19.1090 C   0  0  0  0  0  0
  -27.0370  -19.9894   19.6209 C   0  0  0  0  0  0
  -28.5851  -20.2901   19.4803 C   0  0  1  0  0  0
  -28.9718  -21.7569   19.3062 N   0  0  0  0  0  0
  -29.7684  -15.5686   20.7822 N   0  0  0  0  0  0
  -27.5548  -22.9542   20.6418 O   0  0  0  0  0  0
  -28.8475  -19.7341   18.2938 F   0  0  0  0  0  0
  -31.4841  -12.4171   19.1556 H   0  0  0  0  0  0
  -30.3024  -11.3212   19.8182 H   0  0  0  0  0  0
  -29.7666  -11.8231   17.4175 H   0  0  0  0  0  0
  -29.6706  -13.5324   17.7855 H   0  0  0  0  0  0
  -27.8526  -11.3053   18.7879 H   0  0  0  0  0  0
  -27.3733  -12.6228   17.7575 H   0  0  0  0  0  0
  -27.6811  -14.2453   19.5500 H   0  0  0  0  0  0
  -28.6967  -11.9483   21.3155 H   0  0  0  0  0  0
  -28.4552  -13.5895   21.8591 H   0  0  0  0  0  0
  -25.2646   -9.5880   22.4614 H   0  0  0  0  0  0
  -24.0052   -7.4692   22.7358 H   0  0  0  0  0  0
  -21.0718   -8.8504   19.8906 H   0  0  0  0  0  0
  -22.3351  -10.9514   19.6039 H   0  0  0  0  0  0
  -21.2092   -7.6081   23.9612 H   0  0  0  0  0  0
  -21.1483   -6.0457   25.9022 H   0  0  0  0  0  0
  -22.0655   -2.7486   23.2822 H   0  0  0  0  0  0
  -22.4206  -12.0044   22.5091 H   0  0  0  0  0  0
  -21.1017  -13.1018   22.2441 H   0  0  0  0  0  0
  -24.6165  -15.7912   20.4349 H   0  0  0  0  0  0
  -26.2621  -15.6353   20.0622 H   0  0  0  0  0  0
  -26.7205  -32.5400   23.1041 H   0  0  0  0  0  0
  -24.9981  -33.9633   25.0309 H   0  0  0  0  0  0
  -22.7264  -31.2953   21.3932 H   0  0  0  0  0  0
  -23.3731  -35.9599   23.3324 H   0  0  0  0  0  0
  -24.3537  -36.8889   22.2070 H   0  0  0  0  0  0
  -23.7187  -37.6459   23.6681 H   0  0  0  0  0  0
  -26.1138  -31.5395   20.6215 H   0  0  0  0  0  0
  -26.8448  -30.8099   22.0133 H   0  0  0  0  0  0
  -28.1280  -28.9746   21.1648 H   0  0  0  0  0  0
  -26.0418  -25.9413   18.9291 H   0  0  0  0  0  0
  -23.9974  -27.2694   19.0066 H   0  0  0  0  0  0
  -23.7929  -30.5874   19.4122 H   0  0  0  0  0  0
  -22.7669  -29.2504   19.8390 H   0  0  0  0  0  0
  -25.1270  -36.1881   25.0829 H   0  0  0  0  0  0
  -20.9984  -28.3304   24.1406 H   0  0  0  0  0  0
  -20.5654  -26.2336   23.3643 H   0  0  0  0  0  0
  -21.6627  -26.7457   22.1220 H   0  0  0  0  0  0
  -19.6882  -25.6326   21.1270 H   0  0  0  0  0  0
  -19.6670  -27.3221   20.6768 H   0  0  0  0  0  0
  -17.4189  -26.6735   21.4044 H   0  0  0  0  0  0
  -18.0294  -26.0096   22.9016 H   0  0  0  0  0  0
  -19.7935  -30.7290   24.2295 H   0  0  0  0  0  0
  -17.5023  -31.6288   24.5188 H   0  0  0  0  0  0
  -15.5350  -30.3046   23.7634 H   0  0  0  0  0  0
  -15.8669  -28.0876   22.7035 H   0  0  0  0  0  0
  -24.5895  -30.7164   25.7740 H   0  0  0  0  0  0
  -24.9017  -32.2960   26.4868 H   0  0  0  0  0  0
  -25.8061  -30.8897   27.0192 H   0  0  0  0  0  0
  -26.3042  -29.6645   24.1349 H   0  0  0  0  0  0
  -27.4145  -29.7355   25.4846 H   0  0  0  0  0  0
  -27.8910  -30.4237   23.9521 H   0  0  0  0  0  0
  -27.2667  -33.3659   26.2040 H   0  0  0  0  0  0
  -28.3882  -32.6956   25.0289 H   0  0  0  0  0  0
  -28.0787  -31.8517   26.5373 H   0  0  0  0  0  0
  -28.2593  -38.0055   24.7522 H   0  0  0  0  0  0
  -28.1024  -36.2595   24.6279 H   0  0  0  0  0  0
  -27.2300  -37.1411   25.8881 H   0  0  0  0  0  0
  -20.9360  -29.8775   21.6866 H   0  0  0  0  0  0
  -26.0129  -38.2837   24.1482 H   0  0  0  0  0  0
  -31.9107  -19.1026   22.8113 H   0  0  0  0  0  0
  -31.6083  -16.7123   22.4138 H   0  0  0  0  0  0
  -28.5560  -17.5964   19.5039 H   0  0  0  0  0  0
  -31.0038  -23.3174   17.1024 H   0  0  0  0  0  0
  -30.0438  -22.0097   16.5002 H   0  0  0  0  0  0
  -28.0619  -23.0865   16.7910 H   0  0  0  0  0  0
  -29.0343  -24.5017   16.5999 H   0  0  0  0  0  0
  -30.8897  -22.6170   19.2779 H   0  0  0  0  0  0
  -30.8393  -21.0796   18.4844 H   0  0  0  0  0  0
  -27.2340  -24.3081   18.4406 H   0  0  0  0  0  0
  -31.0045  -21.2490   22.8736 H   0  0  0  0  0  0
  -29.6333  -21.7425   21.9197 H   0  0  0  0  0  0
  -31.2727  -21.7237   21.2140 H   0  0  0  0  0  0
  -25.1587  -19.9610   18.4574 H   0  0  0  0  0  0
  -26.3025  -18.7727   17.9042 H   0  0  0  0  0  0
  -26.5623  -20.4523   17.5123 H   0  0  0  0  0  0
  -28.9950  -26.1520   18.2029 H   0  0  0  0  0  0
  -29.8944  -25.3353   19.4236 H   0  0  0  0  0  0
  -26.8706  -19.0654   20.1767 H   0  0  0  0  0  0
  -26.5519  -20.7288   20.2456 H   0  0  0  0  0  0
  -28.7957  -15.3049   20.8285 H   0  0  0  0  0  0
  1 25  1  0  0  0
  1 30  2  0  0  0
  1 88  1  0  0  0
  2  3  1  0  0  0
  2 25  1  0  0  0
  2 91  1  0  0  0
  2 92  1  0  0  0
  3  4  1  0  0  0
  3 93  1  0  0  0
  3 94  1  0  0  0
  4  5  1  0  0  0
  4 95  1  0  0  0
  4 96  1  0  0  0
  5  6  1  0  0  0
  5 26  1  0  0  0
  5 97  1  0  0  0
  6 25  1  0  0  0
  6 98  1  0  0  0
  6 99  1  0  0  0
  7  8  2  0  0  0
  7 26  1  0  0  0
  7 29  1  0  0  0
  8  9  1  0  0  0
  8 22  1  0  0  0
  9 10  1  0  0  0
  9 27  2  0  0  0
 10 11  2  0  0  0
 10 15  1  0  0  0
 11 12  1  0  0  0
 11100  1  0  0  0
 12 13  2  0  0  0
 12101  1  0  0  0
 13 14  1  0  0  0
 13 31  1  0  0  0
 14 15  2  0  0  0
 14102  1  0  0  0
 15103  1  0  0  0
 16 17  2  0  0  0
 16 21  1  0  0  0
 16 31  1  0  0  0
 17 18  1  0  0  0
 17104  1  0  0  0
 18 19  2  0  0  0
 18105  1  0  0  0
 19 20  1  0  0  0
 19 24  1  0  0  0
 20 21  2  0  0  0
 20106  1  0  0  0
 21 23  1  0  0  0
 22 28  1  0  0  0
 22 32  2  0  0  0
 26 27  1  0  0  0
 28107  1  0  0  0
 28108  1  0  0  0
 29109  1  0  0  0
 29110  1  0  0  0
 33 34  1  0  0  0
 33 66  1  0  0  0
 33 70  2  0  0  0
 34 36  1  0  0  0
 34 59  1  0  0  0
 34111  1  0  0  0
 35 44  2  0  0  0
 35 45  1  0  0  0
 35 68  1  0  0  0
 36 56  1  0  0  0
 36112  1  0  0  0
 37 39  1  0  0  0
 37 47  1  0  0  0
 37 66  1  0  0  0
 37113  1  0  0  0
 38 43  2  0  0  0
 38 46  1  0  0  0
 38 47  1  0  0  0
 39 64  1  0  0  0
 39 67  2  0  0  0
 40 52  1  0  0  0
 40 53  2  0  0  0
 40 58  1  0  0  0
 41114  1  0  0  0
 41115  1  0  0  0
 41116  1  0  0  0
 41 48  1  0  0  0
 42 43  1  0  0  0
 42 66  1  0  0  0
 42117  1  0  0  0
 42118  1  0  0  0
 43 44  1  0  0  0
 44119  1  0  0  0
 45 46  2  0  0  0
 45120  1  0  0  0
 46121  1  0  0  0
 47122  1  0  0  0
 47123  1  0  0  0
 48 56  1  0  0  0
 48 65  1  0  0  0
 48124  1  0  0  0
 49 50  1  0  0  0
 49 53  1  0  0  0
 49 64  1  0  0  0
 49125  1  0  0  0
 50 51  1  0  0  0
 50126  1  0  0  0
 50127  1  0  0  0
 51 52  1  0  0  0
 51128  1  0  0  0
 51129  1  0  0  0
 52130  1  0  0  0
 52131  1  0  0  0
 53 54  1  0  0  0
 54 55  2  0  0  0
 54132  1  0  0  0
 55 57  1  0  0  0
 55133  1  0  0  0
 56 69  2  0  0  0
 57 58  2  0  0  0
 57134  1  0  0  0
 58135  1  0  0  0
 59 60  1  0  0  0
 59 61  1  0  0  0
 59 62  1  0  0  0
 60136  1  0  0  0
 60137  1  0  0  0
 60138  1  0  0  0
 61139  1  0  0  0
 61140  1  0  0  0
 61141  1  0  0  0
 62142  1  0  0  0
 62143  1  0  0  0
 62144  1  0  0  0
 63 65  1  0  0  0
 63145  1  0  0  0
 63146  1  0  0  0
 63147  1  0  0  0
 64148  1  0  0  0
 65149  1  0  0  0
 68 84  1  0  0  0
 71 72  2  0  0  0
 71 74  1  0  0  0
 71150  1  0  0  0
 72 76  1  0  0  0
 72151  1  0  0  0
 73 75  1  0  0  0
 73 76  2  0  0  0
 73152  1  0  0  0
 74 75  2  0  0  0
 74 82  1  0  0  0
 75 86  1  0  0  0
 76 88  1  0  0  0
 77 81  1  0  0  0
 77 87  1  0  0  0
 77 89  2  0  0  0
 78 79  1  0  0  0
 78 80  1  0  0  0
 78153  1  0  0  0
 78154  1  0  0  0
 79 81  1  0  0  0
 79155  1  0  0  0
 79156  1  0  0  0
 80 87  1  0  0  0
 80157  1  0  0  0
 80158  1  0  0  0
 81 84  1  0  0  0
 81159  1  0  0  0
 82160  1  0  0  0
 82161  1  0  0  0
 82162  1  0  0  0
 83 85  1  0  0  0
 83163  1  0  0  0
 83164  1  0  0  0
 83165  1  0  0  0
 84166  1  0  0  0
 84167  1  0  0  0
 85 86  1  0  0  0
 85168  1  0  0  0
 85169  1  0  0  0
 86 87  1  0  0  0
 86 90  1  0  0  0
 88170  1  0  0  0
M  ISO  4   1 100  68 101  84 101  88 100
M  END
> <chiral flag>
0

> <version>
0

> <s_m_source_file>
/data/baiqing/PycharmProjects/Reinvent-master-3.2/result/LINK_invent/BTK/process_docking_weight1_custom_product_contain_oxygen_bond_distance_aromatic_linkinvent_7_9_3/rearranged_h_0056.sdf

> <i_m_source_file_index>
45

> <r_mmod_Potential_Energy-OPLS-2005>
252.748794555664

> <r_mmod_Stretch_Energy-OPLS-2005>
87.3473587036133

> <r_mmod_Bend_Energy-OPLS-2005>
212.710632324219

> <r_mmod_Torsional_Energy-OPLS-2005>
309.056091308594

> <r_mmod_Improper_Torsional_Energy-OPLS-2005>
8.6756010055542

> <r_mmod_Van_der_Waal_Energy-OPLS-2005>
158.022644042969

> <r_mmod_Electrostatic_Energy-OPLS-2005>
-345.130340576172

> <r_mmod_Solvation_Energy-OPLS-2005>
-215.057052612305

> <b_mmod_Minimization_Converged-OPLS-2005>
0

> <r_mmod_RMS_Derivative-OPLS-2005>
9.97128963470459

$$$$
45
                    3D
 Structure written by MMmdl.
157165  0  0  1  0            999 V2000
  -30.7439  -14.4695   20.5906 C   0  0  0  0  0  0
  -30.4166  -12.3080   19.4328 C   0  0  0  0  0  0
  -29.4953  -12.4990   18.2132 C   0  0  0  0  0  0
  -28.0166  -12.3637   18.6186 C   0  0  0  0  0  0
  -27.6603  -13.2109   19.8703 C   0  0  2  0  0  0
  -28.7030  -13.0190   20.9939 C   0  0  0  0  0  0
  -25.2564  -13.8175   20.5722 C   0  0  0  0  0  0
  -24.1829  -13.0435   20.9217 C   0  0  0  0  0  0
  -24.6366  -11.6914   20.8727 C   0  0  0  0  0  0
  -23.9015  -10.4295   21.0382 C   0  0  0  0  0  0
  -24.3562   -9.4207   21.9158 C   0  0  0  0  0  0
  -23.6246   -8.2231   22.0723 C   0  0  0  0  0  0
  -22.4238   -8.0240   21.3511 C   0  0  0  0  0  0
  -21.9865   -9.0226   20.4633 C   0  0  0  0  0  0
  -22.7183  -10.2114   20.3040 C   0  0  0  0  0  0
  -21.6854   -6.0683   22.5282 C   0  0  0  0  0  0
  -21.4023   -6.5583   23.8217 C   0  0  0  0  0  0
  -21.3689   -5.6745   24.9187 C   0  0  0  0  0  0
  -21.6043   -4.3000   24.7236 C   0  0  0  0  0  0
  -21.8824   -3.8085   23.4360 C   0  0  0  0  0  0
  -21.9199   -4.6907   22.3408 C   0  0  0  0  0  0
  -22.7838  -13.5221   21.1864 C   0  0  0  0  0  0
  -22.1667   -4.2088   21.0986 F   0  0  0  0  0  0
  -21.5647   -3.4485   25.7750 F   0  0  0  0  0  0
  -30.0378  -13.3110   20.4435 N   0  0  0  0  0  0
  -26.3012  -12.9366   20.3357 N   0  0  0  0  0  0
  -25.9293  -11.6520   20.5721 N   0  0  0  0  0  0
  -22.0422  -12.8293   22.0441 N   0  0  0  0  0  0
  -25.4234  -15.1889   20.4198 N   0  0  0  0  0  0
  -31.8677  -14.6236   20.1067 O   0  0  0  0  0  0
  -21.6616   -6.8816   21.4229 O   0  0  0  0  0  0
  -22.3530  -14.5493   20.6650 O   0  0  0  0  0  0
  -24.6169  -31.8648   23.2083 C   0  0  0  0  0  0
  -25.9044  -32.4822   23.8412 C   0  0  1  0  0  0
  -27.2423  -27.4275   20.0947 C   0  0  0  0  0  0
  -25.5889  -33.8640   24.2337 N   0  0  0  0  0  0
  -23.4093  -30.4875   21.5452 C   0  0  2  0  0  0
  -24.8600  -28.9591   20.1100 C   0  0  0  0  0  0
  -22.7452  -29.4631   22.4942 C   0  0  0  0  0  0
  -18.0316  -28.1411   22.8529 C   0  0  0  0  0  0
  -24.1489  -36.7317   23.2637 C   0  0  0  0  0  0
  -25.9405  -30.8312   21.3634 C   0  0  0  0  0  0
  -26.0225  -29.4669   20.7071 C   0  0  0  0  0  0
  -27.2204  -28.7107   20.6957 C   0  0  0  0  0  0
  -26.0682  -26.9516   19.4685 C   0  0  0  0  0  0
  -24.8764  -27.7033   19.4827 C   0  0  0  0  0  0
  -23.6197  -29.8218   20.1606 C   0  0  0  0  0  0
  -25.4109  -36.3118   24.0334 C   0  0  1  0  0  0
  -20.5887  -28.3689   23.1334 C   0  0  2  0  0  0
  -20.6768  -26.9426   22.5443 C   0  0  0  0  0  0
  -19.5749  -26.6421   21.5224 C   0  0  0  0  0  0
  -18.1937  -26.7977   22.1616 C   0  0  0  0  0  0
  -19.1551  -28.8861   23.2941 C   0  0  0  0  0  0
  -18.9470  -30.1470   23.8921 C   0  0  0  0  0  0
  -17.6465  -30.6607   24.0615 C   0  0  0  0  0  0
  -25.9023  -34.9487   23.5127 C   0  0  0  0  0  0
  -16.5372  -29.9105   23.6355 C   0  0  0  0  0  0
  -16.7283  -28.6545   23.0349 C   0  0  0  0  0  0
  -26.4470  -31.6608   25.0738 C   0  0  0  0  0  0
  -25.3756  -31.3717   26.1482 C   0  0  0  0  0  0
  -27.0284  -30.3055   24.6107 C   0  0  0  0  0  0
  -27.6064  -32.4335   25.7487 C   0  0  0  0  0  0
  -27.5586  -37.1805   24.8458 C   0  0  0  0  0  0
  -21.4175  -29.3032   22.3729 N   0  0  0  0  0  0
  -26.4296  -37.3802   23.9415 N   0  0  0  0  0  0
  -24.6737  -31.0761   22.0967 N   0  0  0  0  0  0
  -23.4234  -28.8153   23.2978 O   0  0  0  0  0  0
  -28.3793  -26.6391   20.1220 O   0  0  0  0  0  0
  -26.5589  -34.8916   22.4691 O   0  0  0  0  0  0
  -23.5352  -32.1387   23.7438 O   0  0  0  0  0  0
  -31.3247  -19.5524   21.6955 C   0  0  0  0  0  0
  -31.8275  -17.1707   21.7366 C   0  0  0  0  0  0
  -29.9972  -19.2954   21.2766 C   0  0  0  0  0  0
  -29.6018  -17.9333   21.0362 C   0  0  0  0  0  0
  -30.5164  -16.8644   21.2921 C   0  0  0  0  0  0
  -32.2347  -18.5033   21.9102 C   0  0  0  0  0  0
  -29.0187  -20.4584   21.2456 C   0  0  0  0  0  0
  -28.2083  -17.5997   20.4870 C   0  0  0  0  0  0
  -29.1713  -24.2181   20.4451 C   0  0  0  0  0  0
  -28.6623  -22.8959   21.0836 C   0  0  0  0  0  0
  -28.1873  -25.3735   20.7895 C   0  0  0  0  0  0
  -30.0889  -15.4935   21.1824 N   0  0  0  0  0  0
  -29.4641  -21.6754   20.8596 N   0  0  0  0  0  0
  -27.8535  -20.2933   21.6188 O   0  0  0  0  0  0
  -33.5020  -18.7795   22.3128 F   0  0  0  0  0  0
  -31.4614  -12.3913   19.1275 H   0  0  0  0  0  0
  -30.3026  -11.3036   19.8437 H   0  0  0  0  0  0
  -29.7345  -11.7680   17.4406 H   0  0  0  0  0  0
  -29.6671  -13.4840   17.7752 H   0  0  0  0  0  0
  -27.8175  -11.3068   18.8076 H   0  0  0  0  0  0
  -27.3708  -12.6447   17.7878 H   0  0  0  0  0  0
  -27.6949  -14.2565   19.5666 H   0  0  0  0  0  0
  -28.6775  -11.9906   21.3577 H   0  0  0  0  0  0
  -28.4558  -13.6430   21.8556 H   0  0  0  0  0  0
  -25.2700   -9.5691   22.4740 H   0  0  0  0  0  0
  -23.9956   -7.4615   22.7438 H   0  0  0  0  0  0
  -21.0798   -8.8736   19.8939 H   0  0  0  0  0  0
  -22.3606  -10.9645   19.6158 H   0  0  0  0  0  0
  -21.1995   -7.6082   23.9705 H   0  0  0  0  0  0
  -21.1542   -6.0466   25.9093 H   0  0  0  0  0  0
  -22.0584   -2.7531   23.2889 H   0  0  0  0  0  0
  -22.3972  -12.0006   22.4985 H   0  0  0  0  0  0
  -21.1006  -13.1348   22.2496 H   0  0  0  0  0  0
  -24.6436  -15.8304   20.5238 H   0  0  0  0  0  0
  -26.2670  -15.6416   20.0942 H   0  0  0  0  0  0
  -26.7136  -32.5542   23.1200 H   0  0  0  0  0  0
  -25.0104  -33.9840   25.0525 H   0  0  0  0  0  0
  -22.6978  -31.3033   21.4051 H   0  0  0  0  0  0
  -23.3752  -35.9647   23.3297 H   0  0  0  0  0  0
  -24.3574  -36.8923   22.2048 H   0  0  0  0  0  0
  -23.7228  -37.6521   23.6640 H   0  0  0  0  0  0
  -26.0542  -31.5985   20.5966 H   0  0  0  0  0  0
  -26.8299  -30.8871   21.9760 H   0  0  0  0  0  0
  -28.1156  -29.0995   21.1620 H   0  0  0  0  0  0
  -26.0643  -25.9958   18.9643 H   0  0  0  0  0  0
  -23.9863  -27.3153   19.0068 H   0  0  0  0  0  0
  -23.7290  -30.5961   19.4019 H   0  0  0  0  0  0
  -22.7475  -29.2319   19.8706 H   0  0  0  0  0  0
  -25.1299  -36.1988   25.0826 H   0  0  0  0  0  0
  -21.0041  -28.3254   24.1437 H   0  0  0  0  0  0
  -20.5669  -26.2283   23.3614 H   0  0  0  0  0  0
  -21.6650  -26.7469   22.1243 H   0  0  0  0  0  0
  -19.6896  -25.6343   21.1227 H   0  0  0  0  0  0
  -19.6674  -27.3247   20.6786 H   0  0  0  0  0  0
  -17.4233  -26.6809   21.3992 H   0  0  0  0  0  0
  -18.0260  -26.0096   22.8964 H   0  0  0  0  0  0
  -19.7938  -30.7336   24.2235 H   0  0  0  0  0  0
  -17.5003  -31.6265   24.5247 H   0  0  0  0  0  0
  -15.5351  -30.3011   23.7628 H   0  0  0  0  0  0
  -15.8694  -28.0882   22.6984 H   0  0  0  0  0  0
  -24.5938  -30.7050   25.7829 H   0  0  0  0  0  0
  -24.8943  -32.2877   26.4930 H   0  0  0  0  0  0
  -25.8109  -30.8896   27.0253 H   0  0  0  0  0  0
  -26.2807  -29.6823   24.1174 H   0  0  0  0  0  0
  -27.4075  -29.7263   25.4556 H   0  0  0  0  0  0
  -27.8665  -30.4377   23.9248 H   0  0  0  0  0  0
  -27.2689  -33.3632   26.2096 H   0  0  0  0  0  0
  -28.3839  -32.6906   25.0281 H   0  0  0  0  0  0
  -28.0784  -31.8457   26.5358 H   0  0  0  0  0  0
  -28.2616  -38.0096   24.7534 H   0  0  0  0  0  0
  -28.1068  -36.2632   24.6265 H   0  0  0  0  0  0
  -27.2308  -37.1461   25.8861 H   0  0  0  0  0  0
  -20.9284  -29.8772   21.7010 H   0  0  0  0  0  0
  -26.0172  -38.2879   24.1422 H   0  0  0  0  0  0
  -31.6572  -20.5622   21.8931 H   0  0  0  0  0  0
  -32.5400  -16.3861   21.9586 H   0  0  0  0  0  0
  -27.4742  -17.5429   21.2937 H   0  0  0  0  0  0
  -28.1886  -16.6581   19.9416 H   0  0  0  0  0  0
  -27.8668  -18.3465   19.7678 H   0  0  0  0  0  0
  -29.2313  -24.0891   19.3653 H   0  0  0  0  0  0
  -30.1744  -24.4554   20.7954 H   0  0  0  0  0  0
  -27.6591  -22.7129   20.6974 H   0  0  0  0  0  0
  -28.5560  -23.0374   22.1631 H   0  0  0  0  0  0
  -28.2334  -25.5674   21.8618 H   0  0  0  0  0  0
  -27.1861  -24.9860   20.6081 H   0  0  0  0  0  0
  -29.1376  -15.2979   21.4430 H   0  0  0  0  0  0
  -30.4148  -21.7607   20.5206 H   0  0  0  0  0  0
  1 25  1  0  0  0
  1 30  2  0  0  0
  1 82  1  0  0  0
  2  3  1  0  0  0
  2 25  1  0  0  0
  2 86  1  0  0  0
  2 87  1  0  0  0
  3  4  1  0  0  0
  3 88  1  0  0  0
  3 89  1  0  0  0
  4  5  1  0  0  0
  4 90  1  0  0  0
  4 91  1  0  0  0
  5  6  1  0  0  0
  5 26  1  0  0  0
  5 92  1  0  0  0
  6 25  1  0  0  0
  6 93  1  0  0  0
  6 94  1  0  0  0
  7  8  2  0  0  0
  7 26  1  0  0  0
  7 29  1  0  0  0
  8  9  1  0  0  0
  8 22  1  0  0  0
  9 10  1  0  0  0
  9 27  2  0  0  0
 10 11  2  0  0  0
 10 15  1  0  0  0
 11 12  1  0  0  0
 11 95  1  0  0  0
 12 13  2  0  0  0
 12 96  1  0  0  0
 13 14  1  0  0  0
 13 31  1  0  0  0
 14 15  2  0  0  0
 14 97  1  0  0  0
 15 98  1  0  0  0
 16 17  2  0  0  0
 16 21  1  0  0  0
 16 31  1  0  0  0
 17 18  1  0  0  0
 17 99  1  0  0  0
 18 19  2  0  0  0
 18100  1  0  0  0
 19 20  1  0  0  0
 19 24  1  0  0  0
 20 21  2  0  0  0
 20101  1  0  0  0
 21 23  1  0  0  0
 22 28  1  0  0  0
 22 32  2  0  0  0
 26 27  1  0  0  0
 28102  1  0  0  0
 28103  1  0  0  0
 29104  1  0  0  0
 29105  1  0  0  0
 33 34  1  0  0  0
 33 66  1  0  0  0
 33 70  2  0  0  0
 34 36  1  0  0  0
 34 59  1  0  0  0
 34106  1  0  0  0
 35 44  2  0  0  0
 35 45  1  0  0  0
 35 68  1  0  0  0
 36 56  1  0  0  0
 36107  1  0  0  0
 37 39  1  0  0  0
 37 47  1  0  0  0
 37 66  1  0  0  0
 37108  1  0  0  0
 38 43  2  0  0  0
 38 46  1  0  0  0
 38 47  1  0  0  0
 39 64  1  0  0  0
 39 67  2  0  0  0
 40 52  1  0  0  0
 40 53  2  0  0  0
 40 58  1  0  0  0
 41109  1  0  0  0
 41110  1  0  0  0
 41111  1  0  0  0
 41 48  1  0  0  0
 42 43  1  0  0  0
 42 66  1  0  0  0
 42112  1  0  0  0
 42113  1  0  0  0
 43 44  1  0  0  0
 44114  1  0  0  0
 45 46  2  0  0  0
 45115  1  0  0  0
 46116  1  0  0  0
 47117  1  0  0  0
 47118  1  0  0  0
 48 56  1  0  0  0
 48 65  1  0  0  0
 48119  1  0  0  0
 49 50  1  0  0  0
 49 53  1  0  0  0
 49 64  1  0  0  0
 49120  1  0  0  0
 50 51  1  0  0  0
 50121  1  0  0  0
 50122  1  0  0  0
 51 52  1  0  0  0
 51123  1  0  0  0
 51124  1  0  0  0
 52125  1  0  0  0
 52126  1  0  0  0
 53 54  1  0  0  0
 54 55  2  0  0  0
 54127  1  0  0  0
 55 57  1  0  0  0
 55128  1  0  0  0
 56 69  2  0  0  0
 57 58  2  0  0  0
 57129  1  0  0  0
 58130  1  0  0  0
 59 60  1  0  0  0
 59 61  1  0  0  0
 59 62  1  0  0  0
 60131  1  0  0  0
 60132  1  0  0  0
 60133  1  0  0  0
 61134  1  0  0  0
 61135  1  0  0  0
 61136  1  0  0  0
 62137  1  0  0  0
 62138  1  0  0  0
 62139  1  0  0  0
 63 65  1  0  0  0
 63140  1  0  0  0
 63141  1  0  0  0
 63142  1  0  0  0
 64143  1  0  0  0
 65144  1  0  0  0
 68 81  1  0  0  0
 71 73  2  0  0  0
 71 76  1  0  0  0
 71145  1  0  0  0
 72 75  1  0  0  0
 72 76  2  0  0  0
 72146  1  0  0  0
 73 74  1  0  0  0
 73 77  1  0  0  0
 74 75  2  0  0  0
 74 78  1  0  0  0
 75 82  1  0  0  0
 76 85  1  0  0  0
 77 83  1  0  0  0
 77 84  2  0  0  0
 78147  1  0  0  0
 78148  1  0  0  0
 78149  1  0  0  0
 79 80  1  0  0  0
 79 81  1  0  0  0
 79150  1  0  0  0
 79151  1  0  0  0
 80 83  1  0  0  0
 80152  1  0  0  0
 80153  1  0  0  0
 81154  1  0  0  0
 81155  1  0  0  0
 82156  1  0  0  0
 83157  1  0  0  0
M  ISO  4   1 100  68 101  81 101  82 100
M  END
> <chiral flag>
0

> <version>
0

> <s_m_source_file>
/data/baiqing/PycharmProjects/Reinvent-master-3.2/result/LINK_invent/BTK/process_docking_weight1_custom_product_contain_oxygen_bond_distance_aromatic_linkinvent_7_9_3/rearranged_h_0056.sdf

> <i_m_source_file_index>
46

> <r_mmod_Potential_Energy-OPLS-2005>
-89.7074203491211

> <r_mmod_Stretch_Energy-OPLS-2005>
47.0000648498535

> <r_mmod_Bend_Energy-OPLS-2005>
100.890739440918

> <r_mmod_Torsional_Energy-OPLS-2005>
251.864074707031

> <r_mmod_Improper_Torsional_Energy-OPLS-2005>
4.1743745803833

> <r_mmod_Van_der_Waal_Energy-OPLS-2005>
160.852066040039

> <r_mmod_Electrostatic_Energy-OPLS-2005>
-446.67626953125

> <r_mmod_Solvation_Energy-OPLS-2005>
-223.385070800781

> <b_mmod_Minimization_Converged-OPLS-2005>
0

> <r_mmod_RMS_Derivative-OPLS-2005>
5.47445106506348

$$$$
46
                    3D
 Structure written by MMmdl.
180188  0  0  1  0            999 V2000
  -30.6841  -14.5976   20.5143 C   0  0  0  0  0  0
  -30.4193  -12.3617   19.4678 C   0  0  0  0  0  0
  -29.5116  -12.5368   18.2339 C   0  0  0  0  0  0
  -28.0304  -12.3653   18.6316 C   0  0  0  0  0  0
  -27.6538  -13.2062   19.8818 C   0  0  2  0  0  0
  -28.7049  -13.0778   21.0099 C   0  0  0  0  0  0
  -25.2580  -13.8101   20.5753 C   0  0  0  0  0  0
  -24.1825  -13.0374   20.9200 C   0  0  0  0  0  0
  -24.6391  -11.6841   20.8717 C   0  0  0  0  0  0
  -23.9053  -10.4228   21.0351 C   0  0  0  0  0  0
  -24.3596   -9.4168   21.9165 C   0  0  0  0  0  0
  -23.6276   -8.2199   22.0721 C   0  0  0  0  0  0
  -22.4273   -8.0230   21.3499 C   0  0  0  0  0  0
  -21.9908   -9.0200   20.4602 C   0  0  0  0  0  0
  -22.7215  -10.2084   20.3008 C   0  0  0  0  0  0
  -21.6856   -6.0710   22.5269 C   0  0  0  0  0  0
  -21.4004   -6.5615   23.8196 C   0  0  0  0  0  0
  -21.3678   -5.6767   24.9169 C   0  0  0  0  0  0
  -21.6059   -4.3030   24.7233 C   0  0  0  0  0  0
  -21.8819   -3.8123   23.4352 C   0  0  0  0  0  0
  -21.9205   -4.6930   22.3397 C   0  0  0  0  0  0
  -22.7866  -13.5160   21.1868 C   0  0  0  0  0  0
  -22.1657   -4.2111   21.0976 F   0  0  0  0  0  0
  -21.5665   -3.4531   25.7762 F   0  0  0  0  0  0
  -30.0293  -13.3928   20.4513 N   0  0  0  0  0  0
  -26.3002  -12.9255   20.3460 N   0  0  0  0  0  0
  -25.9331  -11.6413   20.5811 N   0  0  0  0  0  0
  -22.0502  -12.8123   22.0404 N   0  0  0  0  0  0
  -25.4346  -15.1837   20.4223 N   0  0  0  0  0  0
  -31.8158  -14.7446   20.0504 O   0  0  0  0  0  0
  -21.6625   -6.8837   21.4215 O   0  0  0  0  0  0
  -22.3551  -14.5495   20.6755 O   0  0  0  0  0  0
  -24.6261  -31.8619   23.2127 C   0  0  0  0  0  0
  -25.9123  -32.4797   23.8443 C   0  0  1  0  0  0
  -27.2295  -27.3796   20.1026 C   0  0  0  0  0  0
  -25.5974  -33.8588   24.2378 N   0  0  0  0  0  0
  -23.4203  -30.4882   21.5511 C   0  0  2  0  0  0
  -24.8681  -28.9565   20.1046 C   0  0  0  0  0  0
  -22.7489  -29.4645   22.4961 C   0  0  0  0  0  0
  -18.0295  -28.1373   22.8476 C   0  0  0  0  0  0
  -24.1484  -36.7259   23.2652 C   0  0  0  0  0  0
  -25.9569  -30.8111   21.3753 C   0  0  0  0  0  0
  -26.0345  -29.4484   20.7057 C   0  0  0  0  0  0
  -27.2232  -28.6703   20.6992 C   0  0  0  0  0  0
  -26.0522  -26.9252   19.4757 C   0  0  0  0  0  0
  -24.8745  -27.6987   19.4780 C   0  0  0  0  0  0
  -23.6332  -29.8293   20.1620 C   0  0  0  0  0  0
  -25.4101  -36.3083   24.0372 C   0  0  1  0  0  0
  -20.5891  -28.3677   23.1259 C   0  0  2  0  0  0
  -20.6788  -26.9398   22.5394 C   0  0  0  0  0  0
  -19.5763  -26.6362   21.5205 C   0  0  0  0  0  0
  -18.1935  -26.7921   22.1595 C   0  0  0  0  0  0
  -19.1551  -28.8842   23.2863 C   0  0  0  0  0  0
  -18.9461  -30.1438   23.8877 C   0  0  0  0  0  0
  -17.6459  -30.6578   24.0550 C   0  0  0  0  0  0
  -25.9042  -34.9450   23.5159 C   0  0  0  0  0  0
  -16.5346  -29.9065   23.6346 C   0  0  0  0  0  0
  -16.7280  -28.6478   23.0373 C   0  0  0  0  0  0
  -26.4534  -31.6567   25.0771 C   0  0  0  0  0  0
  -25.3803  -31.3575   26.1498 C   0  0  0  0  0  0
  -27.0426  -30.3040   24.6164 C   0  0  0  0  0  0
  -27.6131  -32.4266   25.7498 C   0  0  0  0  0  0
  -27.5586  -37.1756   24.8471 C   0  0  0  0  0  0
  -21.4212  -29.3035   22.3666 N   0  0  0  0  0  0
  -26.4266  -37.3785   23.9465 N   0  0  0  0  0  0
  -24.6867  -31.0693   22.1039 N   0  0  0  0  0  0
  -23.4207  -28.8196   23.3056 O   0  0  0  0  0  0
  -28.2844  -26.4796   20.2179 O   0  0  0  0  0  0
  -26.5573  -34.8909   22.4706 O   0  0  0  0  0  0
  -23.5426  -32.1371   23.7473 O   0  0  0  0  0  0
  -28.7314  -19.2443   19.0099 C   0  0  0  0  0  0
  -28.8638  -16.8201   19.2038 C   0  0  0  0  0  0
  -30.1289  -18.2209   20.7376 C   0  0  0  0  0  0
  -28.3457  -17.9639   18.5761 C   0  0  0  0  0  0
  -29.6614  -19.4054   20.0587 C   0  0  0  0  0  0
  -29.7182  -16.9056   20.3202 C   0  0  0  0  0  0
  -29.1896  -23.2661   20.5499 C   0  0  0  0  0  0
  -28.4015  -24.2173   21.3519 C   0  0  0  0  0  0
  -29.3215  -21.9444   20.9044 C   0  0  0  0  0  0
  -28.0570  -25.5343   21.2167 C   0  0  0  0  0  0
  -31.8780  -21.9187   18.8656 C   0  0  0  0  0  0
  -32.2442  -22.4925   17.4982 C   0  0  0  0  0  0
  -32.9231  -22.1952   19.9425 C   0  0  0  0  0  0
  -27.3847  -17.7829   17.4200 C   0  0  0  0  0  0
  -31.4317  -23.3667   15.1997 C   0  0  0  0  0  0
  -35.7880  -23.5176   20.4168 C   0  0  0  0  0  0
  -34.4657  -24.9879   21.8723 C   0  0  0  0  0  0
  -31.0885  -22.6030   16.4916 C   0  0  0  0  0  0
  -33.3355  -23.6610   20.1489 C   0  0  0  0  0  0
  -30.2352  -20.8344   20.2960 C   0  0  2  0  0  0
  -30.7640  -21.2972   19.0150 N   0  0  0  0  0  0
  -30.0024  -15.6646   21.0213 N   0  0  0  0  0  0
  -34.4823  -23.7369   21.0843 N   0  3  0  0  0  0
  -33.3815  -22.8577   17.1762 O   0  0  0  0  0  0
  -33.3724  -21.3116   20.6890 O   0  0  0  0  0  0
  -31.4730  -12.4243   19.1905 H   0  0  0  0  0  0
  -30.2820  -11.3638   19.8876 H   0  0  0  0  0  0
  -29.7796  -11.8216   17.4568 H   0  0  0  0  0  0
  -29.6668  -13.5295   17.8032 H   0  0  0  0  0  0
  -27.8529  -11.3058   18.8246 H   0  0  0  0  0  0
  -27.3857  -12.6286   17.7922 H   0  0  0  0  0  0
  -27.6459  -14.2364   19.5562 H   0  0  0  0  0  0
  -28.7090  -12.0625   21.4095 H   0  0  0  0  0  0
  -28.4577  -13.7273   21.8504 H   0  0  0  0  0  0
  -25.2723   -9.5680   22.4757 H   0  0  0  0  0  0
  -23.9988   -7.4603   22.7457 H   0  0  0  0  0  0
  -21.0848   -8.8693   19.8919 H   0  0  0  0  0  0
  -22.3642  -10.9620   19.6119 H   0  0  0  0  0  0
  -21.1929   -7.6109   23.9691 H   0  0  0  0  0  0
  -21.1533   -6.0496   25.9071 H   0  0  0  0  0  0
  -22.0591   -2.7580   23.2874 H   0  0  0  0  0  0
  -22.4106  -11.9768   22.4779 H   0  0  0  0  0  0
  -21.1118  -13.1140   22.2597 H   0  0  0  0  0  0
  -24.6760  -15.8467   20.5287 H   0  0  0  0  0  0
  -26.3067  -15.6253   20.1586 H   0  0  0  0  0  0
  -26.7202  -32.5492   23.1206 H   0  0  0  0  0  0
  -25.0282  -33.9750   25.0632 H   0  0  0  0  0  0
  -22.7143  -31.3107   21.4162 H   0  0  0  0  0  0
  -23.3802  -35.9529   23.3234 H   0  0  0  0  0  0
  -24.3599  -36.8939   22.2077 H   0  0  0  0  0  0
  -23.7147  -37.6409   23.6691 H   0  0  0  0  0  0
  -26.0970  -31.5868   20.6218 H   0  0  0  0  0  0
  -26.8315  -30.8431   22.0120 H   0  0  0  0  0  0
  -28.1179  -29.0290   21.1889 H   0  0  0  0  0  0
  -26.0379  -25.9458   19.0191 H   0  0  0  0  0  0
  -23.9815  -27.3161   19.0063 H   0  0  0  0  0  0
  -23.7537  -30.6143   19.4138 H   0  0  0  0  0  0
  -22.7513  -29.2636   19.8524 H   0  0  0  0  0  0
  -25.1273  -36.1937   25.0853 H   0  0  0  0  0  0
  -20.9981  -28.3250   24.1372 H   0  0  0  0  0  0
  -20.5700  -26.2301   23.3601 H   0  0  0  0  0  0
  -21.6659  -26.7457   22.1152 H   0  0  0  0  0  0
  -19.6937  -25.6277   21.1224 H   0  0  0  0  0  0
  -19.6698  -27.3183   20.6732 H   0  0  0  0  0  0
  -17.4222  -26.6703   21.3967 H   0  0  0  0  0  0
  -18.0308  -26.0045   22.8952 H   0  0  0  0  0  0
  -19.7938  -30.7276   24.2219 H   0  0  0  0  0  0
  -17.5004  -31.6259   24.5161 H   0  0  0  0  0  0
  -15.5342  -30.2949   23.7695 H   0  0  0  0  0  0
  -15.8671  -28.0784   22.7116 H   0  0  0  0  0  0
  -24.6066  -30.6843   25.7799 H   0  0  0  0  0  0
  -24.8900  -32.2660   26.5002 H   0  0  0  0  0  0
  -25.8173  -30.8719   27.0242 H   0  0  0  0  0  0
  -26.2985  -29.6696   24.1340 H   0  0  0  0  0  0
  -27.4380  -29.7363   25.4611 H   0  0  0  0  0  0
  -27.8736  -30.4439   23.9241 H   0  0  0  0  0  0
  -27.2852  -33.3615   26.2051 H   0  0  0  0  0  0
  -28.3927  -32.6716   25.0272 H   0  0  0  0  0  0
  -28.0823  -31.8397   26.5414 H   0  0  0  0  0  0
  -28.2525  -38.0131   24.7660 H   0  0  0  0  0  0
  -28.1153  -36.2674   24.6112 H   0  0  0  0  0  0
  -27.2319  -37.1168   25.8867 H   0  0  0  0  0  0
  -20.9419  -29.8691   21.6792 H   0  0  0  0  0  0
  -26.0153  -38.2844   24.1542 H   0  0  0  0  0  0
  -28.3671  -20.1185   18.4905 H   0  0  0  0  0  0
  -28.5779  -15.8630   18.8108 H   0  0  0  0  0  0
  -30.8195  -18.3310   21.5631 H   0  0  0  0  0  0
  -29.7052  -23.6469   19.6805 H   0  0  0  0  0  0
  -28.0229  -23.7931   22.2728 H   0  0  0  0  0  0
  -28.7594  -21.6006   21.7623 H   0  0  0  0  0  0
  -27.4772  -25.9794   22.0177 H   0  0  0  0  0  0
  -26.9238  -18.7265   17.1274 H   0  0  0  0  0  0
  -26.5877  -17.0894   17.6993 H   0  0  0  0  0  0
  -27.9103  -17.3674   16.5584 H   0  0  0  0  0  0
  -30.5668  -23.3948   14.5364 H   0  0  0  0  0  0
  -32.2489  -22.8952   14.6514 H   0  0  0  0  0  0
  -31.7147  -24.3990   15.4131 H   0  0  0  0  0  0
  -36.6131  -23.6020   21.1252 H   0  0  0  0  0  0
  -35.9474  -24.2518   19.6262 H   0  0  0  0  0  0
  -35.8432  -22.5243   19.9705 H   0  0  0  0  0  0
  -35.2775  -25.0058   22.5997 H   0  0  0  0  0  0
  -33.5291  -25.0916   22.4212 H   0  0  0  0  0  0
  -34.5732  -25.8578   21.2222 H   0  0  0  0  0  0
  -30.2558  -23.0998   16.9920 H   0  0  0  0  0  0
  -30.7496  -21.5950   16.2534 H   0  0  0  0  0  0
  -32.4700  -24.1644   20.5829 H   0  0  0  0  0  0
  -33.5715  -24.1756   19.2191 H   0  0  0  0  0  0
  -31.0132  -20.6878   21.0458 H   0  0  0  0  0  0
  -29.2199  -15.3524   21.5784 H   0  0  0  0  0  0
  -34.3427  -22.9638   21.7241 H   0  0  0  0  0  0
  1 25  1  0  0  0
  1 30  2  0  0  0
  1 92  1  0  0  0
  2  3  1  0  0  0
  2 25  1  0  0  0
  2 96  1  0  0  0
  2 97  1  0  0  0
  3  4  1  0  0  0
  3 98  1  0  0  0
  3 99  1  0  0  0
  4  5  1  0  0  0
  4100  1  0  0  0
  4101  1  0  0  0
  5  6  1  0  0  0
  5 26  1  0  0  0
  5102  1  0  0  0
  6 25  1  0  0  0
  6103  1  0  0  0
  6104  1  0  0  0
  7  8  2  0  0  0
  7 26  1  0  0  0
  7 29  1  0  0  0
  8  9  1  0  0  0
  8 22  1  0  0  0
  9 10  1  0  0  0
  9 27  2  0  0  0
 10 11  2  0  0  0
 10 15  1  0  0  0
 11 12  1  0  0  0
 11105  1  0  0  0
 12 13  2  0  0  0
 12106  1  0  0  0
 13 14  1  0  0  0
 13 31  1  0  0  0
 14 15  2  0  0  0
 14107  1  0  0  0
 15108  1  0  0  0
 16 17  2  0  0  0
 16 21  1  0  0  0
 16 31  1  0  0  0
 17 18  1  0  0  0
 17109  1  0  0  0
 18 19  2  0  0  0
 18110  1  0  0  0
 19 20  1  0  0  0
 19 24  1  0  0  0
 20 21  2  0  0  0
 20111  1  0  0  0
 21 23  1  0  0  0
 22 28  1  0  0  0
 22 32  2  0  0  0
 26 27  1  0  0  0
 28112  1  0  0  0
 28113  1  0  0  0
 29114  1  0  0  0
 29115  1  0  0  0
 33 34  1  0  0  0
 33 66  1  0  0  0
 33 70  2  0  0  0
 34 36  1  0  0  0
 34 59  1  0  0  0
 34116  1  0  0  0
 35 44  2  0  0  0
 35 45  1  0  0  0
 35 68  1  0  0  0
 36 56  1  0  0  0
 36117  1  0  0  0
 37 39  1  0  0  0
 37 47  1  0  0  0
 37 66  1  0  0  0
 37118  1  0  0  0
 38 43  2  0  0  0
 38 46  1  0  0  0
 38 47  1  0  0  0
 39 64  1  0  0  0
 39 67  2  0  0  0
 40 52  1  0  0  0
 40 53  2  0  0  0
 40 58  1  0  0  0
 41119  1  0  0  0
 41120  1  0  0  0
 41121  1  0  0  0
 41 48  1  0  0  0
 42 43  1  0  0  0
 42 66  1  0  0  0
 42122  1  0  0  0
 42123  1  0  0  0
 43 44  1  0  0  0
 44124  1  0  0  0
 45 46  2  0  0  0
 45125  1  0  0  0
 46126  1  0  0  0
 47127  1  0  0  0
 47128  1  0  0  0
 48 56  1  0  0  0
 48 65  1  0  0  0
 48129  1  0  0  0
 49 50  1  0  0  0
 49 53  1  0  0  0
 49 64  1  0  0  0
 49130  1  0  0  0
 50 51  1  0  0  0
 50131  1  0  0  0
 50132  1  0  0  0
 51 52  1  0  0  0
 51133  1  0  0  0
 51134  1  0  0  0
 52135  1  0  0  0
 52136  1  0  0  0
 53 54  1  0  0  0
 54 55  2  0  0  0
 54137  1  0  0  0
 55 57  1  0  0  0
 55138  1  0  0  0
 56 69  2  0  0  0
 57 58  2  0  0  0
 57139  1  0  0  0
 58140  1  0  0  0
 59 60  1  0  0  0
 59 61  1  0  0  0
 59 62  1  0  0  0
 60141  1  0  0  0
 60142  1  0  0  0
 60143  1  0  0  0
 61144  1  0  0  0
 61145  1  0  0  0
 61146  1  0  0  0
 62147  1  0  0  0
 62148  1  0  0  0
 62149  1  0  0  0
 63 65  1  0  0  0
 63150  1  0  0  0
 63151  1  0  0  0
 63152  1  0  0  0
 64153  1  0  0  0
 65154  1  0  0  0
 68 80  1  0  0  0
 71 74  2  0  0  0
 71 75  1  0  0  0
 71155  1  0  0  0
 72 74  1  0  0  0
 72 76  2  0  0  0
 72156  1  0  0  0
 73 75  2  0  0  0
 73 76  1  0  0  0
 73157  1  0  0  0
 74 84  1  0  0  0
 75 90  1  0  0  0
 76 92  1  0  0  0
 77 78  1  0  0  0
 77 79  2  0  0  0
 77158  1  0  0  0
 78 80  2  0  0  0
 78159  1  0  0  0
 79160  1  0  0  0
 79 90  1  0  0  0
 80161  1  0  0  0
 81 82  1  0  0  0
 81 83  1  0  0  0
 81 91  2  0  0  0
 82 88  1  0  0  0
 82 94  2  0  0  0
 83 89  1  0  0  0
 83 95  2  0  0  0
 84162  1  0  0  0
 84163  1  0  0  0
 84164  1  0  0  0
 85 88  1  0  0  0
 85165  1  0  0  0
 85166  1  0  0  0
 85167  1  0  0  0
 86168  1  0  0  0
 86169  1  0  0  0
 86170  1  0  0  0
 86 93  1  0  0  0
 87 93  1  0  0  0
 87171  1  0  0  0
 87172  1  0  0  0
 87173  1  0  0  0
 88174  1  0  0  0
 88175  1  0  0  0
 89 93  1  0  0  0
 89176  1  0  0  0
 89177  1  0  0  0
 90 91  1  0  0  0
 90178  1  0  0  0
 92179  1  0  0  0
 93180  1  0  0  0
M  CHG  1  93   1
M  ISO  4   1 100  68 101  80 101  92 100
M  END
> <chiral flag>
0

> <version>
0

> <s_m_source_file>
/data/baiqing/PycharmProjects/Reinvent-master-3.2/result/LINK_invent/BTK/process_docking_weight1_custom_product_contain_oxygen_bond_distance_aromatic_linkinvent_7_9_3/rearranged_h_0056.sdf

> <i_m_source_file_index>
47

> <r_mmod_Potential_Energy-OPLS-2005>
-15.1510419845581

> <r_mmod_Stretch_Energy-OPLS-2005>
67.5849990844727

> <r_mmod_Bend_Energy-OPLS-2005>
169.62922668457

> <r_mmod_Torsional_Energy-OPLS-2005>
304.975433349609

> <r_mmod_Improper_Torsional_Energy-OPLS-2005>
8.68054580688477

> <r_mmod_Van_der_Waal_Energy-OPLS-2005>
156.44010925293

> <r_mmod_Electrostatic_Energy-OPLS-2005>
-313.320678710938

> <r_mmod_Solvation_Energy-OPLS-2005>
-448.759704589844

> <b_mmod_Minimization_Converged-OPLS-2005>
0

> <r_mmod_RMS_Derivative-OPLS-2005>
4.02434968948364

$$$$
47
                    3D
 Structure written by MMmdl.
163172  0  0  1  0            999 V2000
  -30.6906  -14.4858   20.5830 C   0  0  0  0  0  0
  -30.4288  -12.3183   19.4259 C   0  0  0  0  0  0
  -29.5022  -12.5182   18.2088 C   0  0  0  0  0  0
  -28.0212  -12.3755   18.6145 C   0  0  0  0  0  0
  -27.6638  -13.2089   19.8742 C   0  0  2  0  0  0
  -28.7020  -12.9844   20.9968 C   0  0  0  0  0  0
  -25.2597  -13.8159   20.5672 C   0  0  0  0  0  0
  -24.1844  -13.0444   20.9167 C   0  0  0  0  0  0
  -24.6391  -11.6909   20.8712 C   0  0  0  0  0  0
  -23.9049  -10.4296   21.0394 C   0  0  0  0  0  0
  -24.3603   -9.4215   21.9181 C   0  0  0  0  0  0
  -23.6276   -8.2248   22.0751 C   0  0  0  0  0  0
  -22.4263   -8.0279   21.3537 C   0  0  0  0  0  0
  -21.9892   -9.0253   20.4646 C   0  0  0  0  0  0
  -22.7215  -10.2134   20.3047 C   0  0  0  0  0  0
  -21.6850   -6.0730   22.5277 C   0  0  0  0  0  0
  -21.4017   -6.5636   23.8211 C   0  0  0  0  0  0
  -21.3660   -5.6787   24.9170 C   0  0  0  0  0  0
  -21.6040   -4.3050   24.7223 C   0  0  0  0  0  0
  -21.8821   -3.8140   23.4345 C   0  0  0  0  0  0
  -21.9197   -4.6958   22.3399 C   0  0  0  0  0  0
  -22.7865  -13.5252   21.1828 C   0  0  0  0  0  0
  -22.1668   -4.2147   21.0976 F   0  0  0  0  0  0
  -21.5624   -3.4533   25.7733 F   0  0  0  0  0  0
  -30.0358  -13.2976   20.4532 N   0  0  0  0  0  0
  -26.3031  -12.9335   20.3320 N   0  0  0  0  0  0
  -25.9313  -11.6494   20.5715 N   0  0  0  0  0  0
  -22.0490  -12.8252   22.0378 N   0  0  0  0  0  0
  -25.4325  -15.1873   20.4091 N   0  0  0  0  0  0
  -31.8129  -14.6732   20.1033 O   0  0  0  0  0  0
  -21.6633   -6.8869   21.4234 O   0  0  0  0  0  0
  -22.3559  -14.5565   20.6678 O   0  0  0  0  0  0
  -24.6165  -31.8662   23.2085 C   0  0  0  0  0  0
  -25.9052  -32.4816   23.8382 C   0  0  1  0  0  0
  -27.2377  -27.4172   20.0877 C   0  0  0  0  0  0
  -25.5901  -33.8610   24.2312 N   0  0  0  0  0  0
  -23.4051  -30.4894   21.5490 C   0  0  2  0  0  0
  -24.8513  -28.9515   20.1121 C   0  0  0  0  0  0
  -22.7408  -29.4654   22.4978 C   0  0  0  0  0  0
  -18.0276  -28.1379   22.8492 C   0  0  0  0  0  0
  -24.1486  -36.7309   23.2636 C   0  0  0  0  0  0
  -25.9353  -30.8230   21.3656 C   0  0  0  0  0  0
  -26.0105  -29.4551   20.7144 C   0  0  0  0  0  0
  -27.2006  -28.6898   20.7096 C   0  0  0  0  0  0
  -26.0566  -26.9303   19.4860 C   0  0  0  0  0  0
  -24.8692  -27.6872   19.4991 C   0  0  0  0  0  0
  -23.6142  -29.8210   20.1635 C   0  0  0  0  0  0
  -25.4105  -36.3105   24.0337 C   0  0  1  0  0  0
  -20.5866  -28.3666   23.1312 C   0  0  2  0  0  0
  -20.6764  -26.9400   22.5417 C   0  0  0  0  0  0
  -19.5748  -26.6389   21.5208 C   0  0  0  0  0  0
  -18.1925  -26.7928   22.1621 C   0  0  0  0  0  0
  -19.1525  -28.8836   23.2905 C   0  0  0  0  0  0
  -18.9455  -30.1442   23.8915 C   0  0  0  0  0  0
  -17.6457  -30.6585   24.0570 C   0  0  0  0  0  0
  -25.9036  -34.9473   23.5123 C   0  0  0  0  0  0
  -16.5345  -29.9087   23.6328 C   0  0  0  0  0  0
  -16.7265  -28.6504   23.0344 C   0  0  0  0  0  0
  -26.4475  -31.6598   25.0715 C   0  0  0  0  0  0
  -25.3741  -31.3717   26.1469 C   0  0  0  0  0  0
  -27.0301  -30.3038   24.6101 C   0  0  0  0  0  0
  -27.6055  -32.4314   25.7475 C   0  0  0  0  0  0
  -27.5583  -37.1800   24.8459 C   0  0  0  0  0  0
  -21.4133  -29.3033   22.3713 N   0  0  0  0  0  0
  -26.4290  -37.3792   23.9418 N   0  0  0  0  0  0
  -24.6705  -31.0741   22.0993 N   0  0  0  0  0  0
  -23.4170  -28.8197   23.3031 O   0  0  0  0  0  0
  -28.4076  -26.6784   20.1269 O   0  0  0  0  0  0
  -26.5599  -34.8927   22.4687 O   0  0  0  0  0  0
  -23.5354  -32.1424   23.7466 O   0  0  0  0  0  0
  -29.0591  -19.1131   21.0011 C   0  0  0  0  0  0
  -28.9743  -17.7064   21.1241 C   0  0  0  0  0  0
  -31.3808  -17.5402   20.9275 C   0  0  0  0  0  0
  -30.3043  -19.7598   20.8118 C   0  0  0  0  0  0
  -31.4749  -18.9483   20.8064 C   0  0  0  0  0  0
  -30.1299  -16.8949   21.0613 C   0  0  0  0  0  0
  -27.4715  -23.6355   18.5843 C   0  0  0  0  0  0
  -28.4179  -24.2651   19.3088 C   0  0  0  0  0  0
  -29.2982  -23.4544   20.1798 C   0  0  0  0  0  0
  -28.6656  -21.5172   18.8417 C   0  0  0  0  0  0
  -29.1517  -20.5188   18.0777 C   0  0  0  0  0  0
  -27.3069  -22.1387   18.5648 C   0  0  0  0  0  0
  -32.8614  -19.5605   20.6711 C   0  0  0  0  0  0
  -30.4028  -21.3051   20.6710 C   0  0  0  0  0  0
  -28.7162  -25.7583   19.0629 C   0  0  0  0  0  0
  -29.3719  -22.0966   19.9285 N   0  0  0  0  0  0
  -29.9761  -15.4717   21.1721 N   0  0  0  0  0  0
  -29.9722  -23.9808   21.0742 O   0  0  0  0  0  0
  -31.4735  -12.4228   19.1269 H   0  0  0  0  0  0
  -30.3334  -11.3048   19.8179 H   0  0  0  0  0  0
  -29.7472  -11.7992   17.4263 H   0  0  0  0  0  0
  -29.6713  -13.5060   17.7775 H   0  0  0  0  0  0
  -27.8259  -11.3193   18.8005 H   0  0  0  0  0  0
  -27.3774  -12.6615   17.7821 H   0  0  0  0  0  0
  -27.7096  -14.2582   19.5806 H   0  0  0  0  0  0
  -28.6796  -11.9455   21.3286 H   0  0  0  0  0  0
  -28.4543  -13.5728   21.8814 H   0  0  0  0  0  0
  -25.2751   -9.5701   22.4753 H   0  0  0  0  0  0
  -23.9993   -7.4645   22.7472 H   0  0  0  0  0  0
  -21.0824   -8.8762   19.8958 H   0  0  0  0  0  0
  -22.3667  -10.9665   19.6154 H   0  0  0  0  0  0
  -21.2010   -7.6142   23.9708 H   0  0  0  0  0  0
  -21.1480   -6.0518   25.9073 H   0  0  0  0  0  0
  -22.0601   -2.7601   23.2840 H   0  0  0  0  0  0
  -22.4086  -11.9927   22.4801 H   0  0  0  0  0  0
  -21.1104  -13.1290   22.2559 H   0  0  0  0  0  0
  -24.6631  -15.8405   20.5112 H   0  0  0  0  0  0
  -26.2726  -15.6191   20.0469 H   0  0  0  0  0  0
  -26.7118  -32.5516   23.1138 H   0  0  0  0  0  0
  -25.0064  -33.9769   25.0468 H   0  0  0  0  0  0
  -22.6957  -31.3074   21.4091 H   0  0  0  0  0  0
  -23.3746  -35.9645   23.3305 H   0  0  0  0  0  0
  -24.3584  -36.8915   22.2049 H   0  0  0  0  0  0
  -23.7240  -37.6518   23.6643 H   0  0  0  0  0  0
  -26.0492  -31.5863   20.5949 H   0  0  0  0  0  0
  -26.8230  -30.8781   21.9835 H   0  0  0  0  0  0
  -28.0936  -29.0724   21.1835 H   0  0  0  0  0  0
  -26.0303  -25.9567   19.0245 H   0  0  0  0  0  0
  -23.9751  -27.2878   19.0399 H   0  0  0  0  0  0
  -23.7222  -30.5960   19.4041 H   0  0  0  0  0  0
  -22.7375  -29.2418   19.8681 H   0  0  0  0  0  0
  -25.1279  -36.1969   25.0829 H   0  0  0  0  0  0
  -20.9963  -28.3240   24.1432 H   0  0  0  0  0  0
  -20.5666  -26.2268   23.3603 H   0  0  0  0  0  0
  -21.6638  -26.7446   22.1212 H   0  0  0  0  0  0
  -19.6908  -25.6305   21.1228 H   0  0  0  0  0  0
  -19.6692  -27.3208   20.6748 H   0  0  0  0  0  0
  -17.4193  -26.6675   21.4026 H   0  0  0  0  0  0
  -18.0333  -26.0067   22.9017 H   0  0  0  0  0  0
  -19.7930  -30.7256   24.2289 H   0  0  0  0  0  0
  -17.5014  -31.6266   24.5172 H   0  0  0  0  0  0
  -15.5348  -30.2995   23.7647 H   0  0  0  0  0  0
  -15.8665  -28.0836   22.7042 H   0  0  0  0  0  0
  -24.5905  -30.7070   25.7812 H   0  0  0  0  0  0
  -24.8943  -32.2878   26.4922 H   0  0  0  0  0  0
  -25.8096  -30.8883   27.0222 H   0  0  0  0  0  0
  -26.2841  -29.6800   24.1160 H   0  0  0  0  0  0
  -27.4073  -29.7278   25.4562 H   0  0  0  0  0  0
  -27.8679  -30.4353   23.9248 H   0  0  0  0  0  0
  -27.2681  -33.3604   26.2081 H   0  0  0  0  0  0
  -28.3849  -32.6886   25.0289 H   0  0  0  0  0  0
  -28.0740  -31.8418   26.5365 H   0  0  0  0  0  0
  -28.2592  -38.0107   24.7534 H   0  0  0  0  0  0
  -28.1089  -36.2643   24.6246 H   0  0  0  0  0  0
  -27.2310  -37.1405   25.8863 H   0  0  0  0  0  0
  -20.9284  -29.8747   21.6935 H   0  0  0  0  0  0
  -26.0179  -38.2870   24.1435 H   0  0  0  0  0  0
  -28.1494  -19.6970   21.0370 H   0  0  0  0  0  0
  -27.9999  -17.2544   21.2503 H   0  0  0  0  0  0
  -32.2908  -16.9563   20.9222 H   0  0  0  0  0  0
  -26.8431  -24.1894   17.9026 H   0  0  0  0  0  0
  -28.5784  -20.1183   17.2535 H   0  0  0  0  0  0
  -30.1299  -20.0878   18.2364 H   0  0  0  0  0  0
  -26.9504  -21.8371   17.5787 H   0  0  0  0  0  0
  -26.5659  -21.8165   19.2979 H   0  0  0  0  0  0
  -33.6471  -18.8161   20.8051 H   0  0  0  0  0  0
  -33.0199  -20.3363   21.4206 H   0  0  0  0  0  0
  -32.9932  -19.9983   19.6814 H   0  0  0  0  0  0
  -31.3548  -21.5827   20.2216 H   0  0  0  0  0  0
  -30.4513  -21.6587   21.7021 H   0  0  0  0  0  0
  -28.2493  -26.0837   18.1317 H   0  0  0  0  0  0
  -29.7866  -25.8453   18.8722 H   0  0  0  0  0  0
  -29.0831  -15.1606   21.5223 H   0  0  0  0  0  0
  1 25  1  0  0  0
  1 30  2  0  0  0
  1 87  1  0  0  0
  2  3  1  0  0  0
  2 25  1  0  0  0
  2 89  1  0  0  0
  2 90  1  0  0  0
  3  4  1  0  0  0
  3 91  1  0  0  0
  3 92  1  0  0  0
  4  5  1  0  0  0
  4 93  1  0  0  0
  4 94  1  0  0  0
  5  6  1  0  0  0
  5 26  1  0  0  0
  5 95  1  0  0  0
  6 25  1  0  0  0
  6 96  1  0  0  0
  6 97  1  0  0  0
  7  8  2  0  0  0
  7 26  1  0  0  0
  7 29  1  0  0  0
  8  9  1  0  0  0
  8 22  1  0  0  0
  9 10  1  0  0  0
  9 27  2  0  0  0
 10 11  2  0  0  0
 10 15  1  0  0  0
 11 12  1  0  0  0
 11 98  1  0  0  0
 12 13  2  0  0  0
 12 99  1  0  0  0
 13 14  1  0  0  0
 13 31  1  0  0  0
 14 15  2  0  0  0
 14100  1  0  0  0
 15101  1  0  0  0
 16 17  2  0  0  0
 16 21  1  0  0  0
 16 31  1  0  0  0
 17 18  1  0  0  0
 17102  1  0  0  0
 18 19  2  0  0  0
 18103  1  0  0  0
 19 20  1  0  0  0
 19 24  1  0  0  0
 20 21  2  0  0  0
 20104  1  0  0  0
 21 23  1  0  0  0
 22 28  1  0  0  0
 22 32  2  0  0  0
 26 27  1  0  0  0
 28105  1  0  0  0
 28106  1  0  0  0
 29107  1  0  0  0
 29108  1  0  0  0
 33 34  1  0  0  0
 33 66  1  0  0  0
 33 70  2  0  0  0
 34 36  1  0  0  0
 34 59  1  0  0  0
 34109  1  0  0  0
 35 44  2  0  0  0
 35 45  1  0  0  0
 35 68  1  0  0  0
 36 56  1  0  0  0
 36110  1  0  0  0
 37 39  1  0  0  0
 37 47  1  0  0  0
 37 66  1  0  0  0
 37111  1  0  0  0
 38 43  2  0  0  0
 38 46  1  0  0  0
 38 47  1  0  0  0
 39 64  1  0  0  0
 39 67  2  0  0  0
 40 52  1  0  0  0
 40 53  2  0  0  0
 40 58  1  0  0  0
 41112  1  0  0  0
 41113  1  0  0  0
 41114  1  0  0  0
 41 48  1  0  0  0
 42 43  1  0  0  0
 42 66  1  0  0  0
 42115  1  0  0  0
 42116  1  0  0  0
 43 44  1  0  0  0
 44117  1  0  0  0
 45 46  2  0  0  0
 45118  1  0  0  0
 46119  1  0  0  0
 47120  1  0  0  0
 47121  1  0  0  0
 48 56  1  0  0  0
 48 65  1  0  0  0
 48122  1  0  0  0
 49 50  1  0  0  0
 49 53  1  0  0  0
 49 64  1  0  0  0
 49123  1  0  0  0
 50 51  1  0  0  0
 50124  1  0  0  0
 50125  1  0  0  0
 51 52  1  0  0  0
 51126  1  0  0  0
 51127  1  0  0  0
 52128  1  0  0  0
 52129  1  0  0  0
 53 54  1  0  0  0
 54 55  2  0  0  0
 54130  1  0  0  0
 55 57  1  0  0  0
 55131  1  0  0  0
 56 69  2  0  0  0
 57 58  2  0  0  0
 57132  1  0  0  0
 58133  1  0  0  0
 59 60  1  0  0  0
 59 61  1  0  0  0
 59 62  1  0  0  0
 60134  1  0  0  0
 60135  1  0  0  0
 60136  1  0  0  0
 61137  1  0  0  0
 61138  1  0  0  0
 61139  1  0  0  0
 62140  1  0  0  0
 62141  1  0  0  0
 62142  1  0  0  0
 63 65  1  0  0  0
 63143  1  0  0  0
 63144  1  0  0  0
 63145  1  0  0  0
 64146  1  0  0  0
 65147  1  0  0  0
 68 85  1  0  0  0
 71 72  2  0  0  0
 71 74  1  0  0  0
 71148  1  0  0  0
 72 76  1  0  0  0
 72149  1  0  0  0
 73 75  1  0  0  0
 73 76  2  0  0  0
 73150  1  0  0  0
 74 75  2  0  0  0
 74 84  1  0  0  0
 75 83  1  0  0  0
 76 87  1  0  0  0
 77 78  2  0  0  0
 77 82  1  0  0  0
 77151  1  0  0  0
 78 79  1  0  0  0
 78 85  1  0  0  0
 79 86  1  0  0  0
 79 88  2  0  0  0
 80 81  2  0  0  0
 80 82  1  0  0  0
 80 86  1  0  0  0
 81152  1  0  0  0
 81153  1  0  0  0
 82154  1  0  0  0
 82155  1  0  0  0
 83156  1  0  0  0
 83157  1  0  0  0
 83158  1  0  0  0
 84 86  1  0  0  0
 84159  1  0  0  0
 84160  1  0  0  0
 85161  1  0  0  0
 85162  1  0  0  0
 87163  1  0  0  0
M  ISO  4   1 100  68 101  85 101  87 100
M  END
> <chiral flag>
0

> <version>
0

> <s_m_source_file>
/data/baiqing/PycharmProjects/Reinvent-master-3.2/result/LINK_invent/BTK/process_docking_weight1_custom_product_contain_oxygen_bond_distance_aromatic_linkinvent_7_9_3/rearranged_h_0056.sdf

> <i_m_source_file_index>
48

> <r_mmod_Potential_Energy-OPLS-2005>
47.5925827026367

> <r_mmod_Stretch_Energy-OPLS-2005>
54.7142944335938

> <r_mmod_Bend_Energy-OPLS-2005>
123.854553222656

> <r_mmod_Torsional_Energy-OPLS-2005>
203.411819458008

> <r_mmod_Improper_Torsional_Energy-OPLS-2005>
4.62899398803711

> <r_mmod_Van_der_Waal_Energy-OPLS-2005>
184.355041503906

> <r_mmod_Electrostatic_Energy-OPLS-2005>
-323.768249511719

> <r_mmod_Solvation_Energy-OPLS-2005>
-214.121231079102

> <b_mmod_Minimization_Converged-OPLS-2005>
0

> <r_mmod_RMS_Derivative-OPLS-2005>
1.46669793128967

$$$$
48
                    3D
 Structure written by MMmdl.
157165  0  0  1  0            999 V2000
  -29.8712  -15.6590   20.1770 C   0  0  0  0  0  0
  -30.3626  -13.1122   19.5360 C   0  0  0  0  0  0
  -29.5252  -12.6458   18.3164 C   0  0  0  0  0  0
  -28.0988  -12.2666   18.7499 C   0  0  0  0  0  0
  -27.5469  -13.2647   19.7946 C   0  0  2  0  0  0
  -28.5187  -13.5575   20.9381 C   0  0  0  0  0  0
  -25.2139  -13.8167   20.5672 C   0  0  0  0  0  0
  -24.1573  -13.0376   20.9327 C   0  0  0  0  0  0
  -24.6243  -11.6873   20.8816 C   0  0  0  0  0  0
  -23.8997  -10.4256   21.0451 C   0  0  0  0  0  0
  -24.3591   -9.4194   21.9215 C   0  0  0  0  0  0
  -23.6289   -8.2224   22.0766 C   0  0  0  0  0  0
  -22.4276   -8.0262   21.3545 C   0  0  0  0  0  0
  -21.9890   -9.0229   20.4649 C   0  0  0  0  0  0
  -22.7193  -10.2114   20.3077 C   0  0  0  0  0  0
  -21.6853   -6.0727   22.5284 C   0  0  0  0  0  0
  -21.4006   -6.5633   23.8213 C   0  0  0  0  0  0
  -21.3661   -5.6787   24.9176 C   0  0  0  0  0  0
  -21.6046   -4.3050   24.7228 C   0  0  0  0  0  0
  -21.8824   -3.8143   23.4350 C   0  0  0  0  0  0
  -21.9197   -4.6958   22.3406 C   0  0  0  0  0  0
  -22.7631  -13.5170   21.1968 C   0  0  0  0  0  0
  -22.1666   -4.2143   21.0983 F   0  0  0  0  0  0
  -21.5638   -3.4538   25.7743 F   0  0  0  0  0  0
  -29.6195  -14.2336   20.2665 N   0  0  0  0  0  0
  -26.2396  -12.9352   20.2970 N   0  0  0  0  0  0
  -25.9114  -11.6496   20.5636 N   0  0  0  0  0  0
  -22.0289  -12.8158   22.0509 N   0  0  0  0  0  0
  -25.3803  -15.1902   20.4008 N   0  0  0  0  0  0
  -31.1095  -15.7665   19.9892 O   0  0  0  0  0  0
  -21.6642   -6.8865   21.4243 O   0  0  0  0  0  0
  -22.3351  -14.5480   20.6783 O   0  0  0  0  0  0
  -24.5770  -31.7261   22.9150 C   0  0  0  0  0  0
  -25.8598  -32.3887   23.6135 C   0  0  1  0  0  0
  -27.9124  -27.8275   20.5453 C   0  0  0  0  0  0
  -25.5182  -33.7756   24.0274 N   0  0  0  0  0  0
  -23.5006  -29.6172   21.8225 C   0  0  2  0  0  0
  -25.5995  -27.7836   19.9818 C   0  0  0  0  0  0
  -22.6522  -29.3020   22.9399 C   0  0  0  0  0  0
  -17.9693  -28.1302   22.8523 C   0  0  0  0  0  0
  -24.1466  -36.6997   23.2723 C   0  0  0  0  0  0
  -25.6613  -30.8199   20.4850 C   0  0  0  0  0  0
  -26.3062  -29.2770   19.7328 C   0  0  0  0  0  0
  -27.6683  -29.0806   19.9949 C   0  0  0  0  0  0
  -27.4757  -26.8006   19.6701 C   0  0  0  0  0  0
  -26.1850  -26.8324   19.2919 C   0  0  0  0  0  0
  -23.9866  -27.7694   21.2860 C   0  0  0  0  0  0
  -25.4220  -36.2588   24.0096 C   0  0  1  0  0  0
  -20.4821  -28.2827   23.2910 C   0  0  2  0  0  0
  -20.5788  -26.8778   22.6559 C   0  0  0  0  0  0
  -19.5518  -26.6471   21.5477 C   0  0  0  0  0  0
  -18.1463  -26.7943   22.1448 C   0  0  0  0  0  0
  -19.0825  -28.8526   23.3475 C   0  0  0  0  0  0
  -18.8932  -30.1229   23.9280 C   0  0  0  0  0  0
  -17.6015  -30.6598   24.0517 C   0  0  0  0  0  0
  -25.9163  -34.9083   23.4316 C   0  0  0  0  0  0
  -16.4913  -29.9201   23.6080 C   0  0  0  0  0  0
  -16.6744  -28.6604   23.0093 C   0  0  0  0  0  0
  -26.4155  -31.6691   24.9490 C   0  0  0  0  0  0
  -25.3280  -31.4086   26.0224 C   0  0  0  0  0  0
  -27.0774  -30.3136   24.6631 C   0  0  0  0  0  0
  -27.5390  -32.5043   25.6270 C   0  0  0  0  0  0
  -27.5537  -37.1554   24.8440 C   0  0  0  0  0  0
  -21.3601  -29.2076   22.6347 N   0  0  0  0  0  0
  -26.4254  -37.3467   23.9376 N   0  0  0  0  0  0
  -24.5360  -30.8976   21.7427 N   0  0  0  0  0  0
  -23.2017  -28.8338   23.9205 O   0  0  0  0  0  0
  -27.1761  -27.8743   21.7264 O   0  0  0  0  0  0
  -26.6358  -34.9004   22.4325 O   0  0  0  0  0  0
  -23.5353  -31.9837   23.5408 O   0  0  0  0  0  0
  -25.2551  -20.7157   21.3813 C   0  0  0  0  0  0
  -26.2624  -19.7666   21.0015 C   0  0  0  0  0  0
  -24.9486  -21.9735   20.7561 C   0  0  0  0  0  0
  -26.7567  -21.3987   19.3019 C   0  0  0  0  0  0
  -27.1583  -19.9400   19.9203 C   0  0  0  0  0  0
  -25.6323  -22.5359   19.6481 C   0  0  0  0  0  0
  -23.9899  -25.2662   19.3735 C   0  0  0  0  0  0
  -28.4327  -18.5508   19.6848 C   0  0  0  0  0  0
  -23.5589  -27.1222   18.8127 C   0  0  0  0  0  0
  -23.9173  -29.1213   19.5292 C   0  0  0  0  0  0
  -25.8437  -28.8801   21.9386 C   0  0  0  0  0  0
  -25.0833  -24.1295   19.1380 N   0  0  0  0  0  0
  -28.8074  -16.8361   20.1436 N   0  0  0  0  0  0
  -23.1364  -24.8778   20.1711 O   0  0  0  0  0  0
  -31.3320  -13.4575   19.1766 H   0  0  0  0  0  0
  -30.5822  -12.2777   20.2049 H   0  0  0  0  0  0
  -30.0127  -11.8045   17.8215 H   0  0  0  0  0  0
  -29.4843  -13.4568   17.5859 H   0  0  0  0  0  0
  -28.1399  -11.2700   19.1925 H   0  0  0  0  0  0
  -27.4391  -12.1998   17.8855 H   0  0  0  0  0  0
  -27.4161  -14.1890   19.2304 H   0  0  0  0  0  0
  -28.8212  -12.6638   21.4877 H   0  0  0  0  0  0
  -28.0688  -14.2362   21.6649 H   0  0  0  0  0  0
  -25.2733   -9.5706   22.4784 H   0  0  0  0  0  0
  -24.0012   -7.4620   22.7478 H   0  0  0  0  0  0
  -21.0830   -8.8758   19.8941 H   0  0  0  0  0  0
  -22.3659  -10.9676   19.6205 H   0  0  0  0  0  0
  -21.1980   -7.6139   23.9709 H   0  0  0  0  0  0
  -21.1478   -6.0519   25.9076 H   0  0  0  0  0  0
  -22.0597   -2.7605   23.2853 H   0  0  0  0  0  0
  -22.3919  -11.9842   22.4918 H   0  0  0  0  0  0
  -21.0912  -13.1190   22.2714 H   0  0  0  0  0  0
  -24.5612  -15.7878   20.4364 H   0  0  0  0  0  0
  -26.1050  -15.5650   19.8048 H   0  0  0  0  0  0
  -26.6601  -32.4161   22.8761 H   0  0  0  0  0  0
  -24.8629  -33.8531   24.7921 H   0  0  0  0  0  0
  -22.7446  -30.1657   21.2698 H   0  0  0  0  0  0
  -23.3807  -35.9239   23.3196 H   0  0  0  0  0  0
  -24.3393  -36.9008   22.2177 H   0  0  0  0  0  0
  -23.7186  -37.6011   23.7118 H   0  0  0  0  0  0
  -25.2442  -31.4298   19.6825 H   0  0  0  0  0  0
  -26.5249  -31.4079   20.7958 H   0  0  0  0  0  0
  -28.2519  -29.9275   20.3277 H   0  0  0  0  0  0
  -28.1833  -26.3285   19.0022 H   0  0  0  0  0  0
  -25.9498  -26.5289   18.2816 H   0  0  0  0  0  0
  -23.0568  -27.2806   21.0164 H   0  0  0  0  0  0
  -24.2167  -27.1218   22.1370 H   0  0  0  0  0  0
  -25.1575  -36.1059   25.0579 H   0  0  0  0  0  0
  -20.7932  -28.1824   24.3359 H   0  0  0  0  0  0
  -20.3631  -26.1544   23.4430 H   0  0  0  0  0  0
  -21.5845  -26.6224   22.3393 H   0  0  0  0  0  0
  -19.6766  -25.6563   21.1093 H   0  0  0  0  0  0
  -19.7077  -27.3705   20.7462 H   0  0  0  0  0  0
  -17.4005  -26.6963   21.3524 H   0  0  0  0  0  0
  -17.9514  -25.9948   22.8616 H   0  0  0  0  0  0
  -19.7402  -30.6834   24.3004 H   0  0  0  0  0  0
  -17.4610  -31.6295   24.5055 H   0  0  0  0  0  0
  -15.4943  -30.3274   23.7158 H   0  0  0  0  0  0
  -15.8137  -28.1063   22.6585 H   0  0  0  0  0  0
  -24.5595  -30.7275   25.6556 H   0  0  0  0  0  0
  -24.8294  -32.3294   26.3243 H   0  0  0  0  0  0
  -25.7468  -30.9552   26.9216 H   0  0  0  0  0  0
  -26.3344  -29.5441   24.4975 H   0  0  0  0  0  0
  -27.6373  -29.9563   25.5291 H   0  0  0  0  0  0
  -27.7863  -30.3599   23.8357 H   0  0  0  0  0  0
  -27.1765  -33.4588   26.0101 H   0  0  0  0  0  0
  -28.3455  -32.7213   24.9242 H   0  0  0  0  0  0
  -27.9838  -31.9852   26.4779 H   0  0  0  0  0  0
  -28.2505  -37.9905   24.7586 H   0  0  0  0  0  0
  -28.1082  -36.2425   24.6202 H   0  0  0  0  0  0
  -27.2215  -37.1094   25.8825 H   0  0  0  0  0  0
  -21.0416  -29.5964   21.7587 H   0  0  0  0  0  0
  -26.0006  -38.2452   24.1494 H   0  0  0  0  0  0
  -24.6674  -20.4587   22.2511 H   0  0  0  0  0  0
  -26.3557  -18.8636   21.5922 H   0  0  0  0  0  0
  -24.1371  -22.5471   21.1782 H   0  0  0  0  0  0
  -27.3926  -21.6603   18.4674 H   0  0  0  0  0  0
  -29.3623  -19.0654   19.9220 H   0  0  0  0  0  0
  -28.4701  -18.4874   18.5971 H   0  0  0  0  0  0
  -22.4764  -27.0839   18.6981 H   0  0  0  0  0  0
  -23.8695  -27.1518   17.7686 H   0  0  0  0  0  0
  -22.9467  -29.6067   19.4993 H   0  0  0  0  0  0
  -24.2897  -29.6510   18.6448 H   0  0  0  0  0  0
  -25.4497  -28.5580   22.9035 H   0  0  0  0  0  0
  -26.4495  -29.7111   22.2917 H   0  0  0  0  0  0
  -25.7546  -24.5026   18.4813 H   0  0  0  0  0  0
  -27.9454  -16.4334   20.4787 H   0  0  0  0  0  0
  1 25  1  0  0  0
  1 30  2  0  0  0
  1 83  1  0  0  0
  2  3  1  0  0  0
  2 25  1  0  0  0
  2 85  1  0  0  0
  2 86  1  0  0  0
  3  4  1  0  0  0
  3 87  1  0  0  0
  3 88  1  0  0  0
  4  5  1  0  0  0
  4 89  1  0  0  0
  4 90  1  0  0  0
  5  6  1  0  0  0
  5 26  1  0  0  0
  5 91  1  0  0  0
  6 25  1  0  0  0
  6 92  1  0  0  0
  6 93  1  0  0  0
  7  8  2  0  0  0
  7 26  1  0  0  0
  7 29  1  0  0  0
  8  9  1  0  0  0
  8 22  1  0  0  0
  9 10  1  0  0  0
  9 27  2  0  0  0
 10 11  2  0  0  0
 10 15  1  0  0  0
 11 12  1  0  0  0
 11 94  1  0  0  0
 12 13  2  0  0  0
 12 95  1  0  0  0
 13 14  1  0  0  0
 13 31  1  0  0  0
 14 15  2  0  0  0
 14 96  1  0  0  0
 15 97  1  0  0  0
 16 17  2  0  0  0
 16 21  1  0  0  0
 16 31  1  0  0  0
 17 18  1  0  0  0
 17 98  1  0  0  0
 18 19  2  0  0  0
 18 99  1  0  0  0
 19 20  1  0  0  0
 19 24  1  0  0  0
 20 21  2  0  0  0
 20100  1  0  0  0
 21 23  1  0  0  0
 22 28  1  0  0  0
 22 32  2  0  0  0
 26 27  1  0  0  0
 28101  1  0  0  0
 28102  1  0  0  0
 29103  1  0  0  0
 29104  1  0  0  0
 33 34  1  0  0  0
 33 66  1  0  0  0
 33 70  2  0  0  0
 34 36  1  0  0  0
 34 59  1  0  0  0
 34105  1  0  0  0
 35 44  2  0  0  0
 35 45  1  0  0  0
 35 68  1  0  0  0
 36 56  1  0  0  0
 36106  1  0  0  0
 37 39  1  0  0  0
 37 47  1  0  0  0
 37 66  1  0  0  0
 37107  1  0  0  0
 38 43  2  0  0  0
 38 46  1  0  0  0
 38 47  1  0  0  0
 39 64  1  0  0  0
 39 67  2  0  0  0
 40 52  1  0  0  0
 40 53  2  0  0  0
 40 58  1  0  0  0
 41108  1  0  0  0
 41109  1  0  0  0
 41110  1  0  0  0
 41 48  1  0  0  0
 42 43  1  0  0  0
 42 66  1  0  0  0
 42111  1  0  0  0
 42112  1  0  0  0
 43 44  1  0  0  0
 44113  1  0  0  0
 45 46  2  0  0  0
 45114  1  0  0  0
 46115  1  0  0  0
 47116  1  0  0  0
 47117  1  0  0  0
 48 56  1  0  0  0
 48 65  1  0  0  0
 48118  1  0  0  0
 49 50  1  0  0  0
 49 53  1  0  0  0
 49 64  1  0  0  0
 49119  1  0  0  0
 50 51  1  0  0  0
 50120  1  0  0  0
 50121  1  0  0  0
 51 52  1  0  0  0
 51122  1  0  0  0
 51123  1  0  0  0
 52124  1  0  0  0
 52125  1  0  0  0
 53 54  1  0  0  0
 54 55  2  0  0  0
 54126  1  0  0  0
 55 57  1  0  0  0
 55127  1  0  0  0
 56 69  2  0  0  0
 57 58  2  0  0  0
 57128  1  0  0  0
 58129  1  0  0  0
 59 60  1  0  0  0
 59 61  1  0  0  0
 59 62  1  0  0  0
 60130  1  0  0  0
 60131  1  0  0  0
 60132  1  0  0  0
 61133  1  0  0  0
 61134  1  0  0  0
 61135  1  0  0  0
 62136  1  0  0  0
 62137  1  0  0  0
 62138  1  0  0  0
 63 65  1  0  0  0
 63139  1  0  0  0
 63140  1  0  0  0
 63141  1  0  0  0
 64142  1  0  0  0
 65143  1  0  0  0
 68 81  1  0  0  0
 71 72  2  0  0  0
 71 73  1  0  0  0
 71144  1  0  0  0
 72 75  1  0  0  0
 72145  1  0  0  0
 73 76  2  0  0  0
 73146  1  0  0  0
 74 75  2  0  0  0
 74 76  1  0  0  0
 74147  1  0  0  0
 75 78  1  0  0  0
 76 82  1  0  0  0
 77 79  1  0  0  0
 77 82  1  0  0  0
 77 84  2  0  0  0
 78 83  1  0  0  0
 78148  1  0  0  0
 78149  1  0  0  0
 79 80  1  0  0  0
 79150  1  0  0  0
 79151  1  0  0  0
 80 81  1  0  0  0
 80152  1  0  0  0
 80153  1  0  0  0
 81154  1  0  0  0
 81155  1  0  0  0
 82156  1  0  0  0
 83157  1  0  0  0
M  ISO  4   1 100  68 101  81 101  83 100
M  END
> <chiral flag>
0

> <version>
0

> <s_m_source_file>
/data/baiqing/PycharmProjects/Reinvent-master-3.2/result/LINK_invent/BTK/process_docking_weight1_custom_product_contain_oxygen_bond_distance_aromatic_linkinvent_7_9_3/rearranged_h_0056.sdf

> <i_m_source_file_index>
49

> <r_mmod_Potential_Energy-OPLS-2005>
12125.943359375

> <r_mmod_Stretch_Energy-OPLS-2005>
5841.77978515625

> <r_mmod_Bend_Energy-OPLS-2005>
1005.91033935547

> <r_mmod_Torsional_Energy-OPLS-2005>
647.32421875

> <r_mmod_Improper_Torsional_Energy-OPLS-2005>
68.3739166259766

> <r_mmod_Van_der_Waal_Energy-OPLS-2005>
2222.42626953125

> <r_mmod_Electrostatic_Energy-OPLS-2005>
-463.04541015625

> <r_mmod_Solvation_Energy-OPLS-2005>
-239.257598876953

> <b_mmod_Minimization_Converged-OPLS-2005>
0

> <r_mmod_RMS_Derivative-OPLS-2005>
8.18704319000244

$$$$
49
                    3D
 Structure written by MMmdl.
160168  0  0  1  0            999 V2000
  -30.6958  -14.5209   20.4919 C   0  0  0  0  0  0
  -30.4162  -12.3132   19.4432 C   0  0  0  0  0  0
  -29.4958  -12.4791   18.2164 C   0  0  0  0  0  0
  -28.0165  -12.3466   18.6278 C   0  0  0  0  0  0
  -27.6541  -13.2151   19.8629 C   0  0  2  0  0  0
  -28.6970  -13.0539   20.9928 C   0  0  0  0  0  0
  -25.2561  -13.8169   20.5666 C   0  0  0  0  0  0
  -24.1833  -13.0442   20.9202 C   0  0  0  0  0  0
  -24.6397  -11.6912   20.8749 C   0  0  0  0  0  0
  -23.9069  -10.4297   21.0413 C   0  0  0  0  0  0
  -24.3615   -9.4208   21.9187 C   0  0  0  0  0  0
  -23.6295   -8.2240   22.0754 C   0  0  0  0  0  0
  -22.4277   -8.0286   21.3539 C   0  0  0  0  0  0
  -21.9918   -9.0256   20.4640 C   0  0  0  0  0  0
  -22.7246  -10.2138   20.3057 C   0  0  0  0  0  0
  -21.6854   -6.0741   22.5275 C   0  0  0  0  0  0
  -21.4012   -6.5643   23.8210 C   0  0  0  0  0  0
  -21.3656   -5.6796   24.9174 C   0  0  0  0  0  0
  -21.6047   -4.3058   24.7223 C   0  0  0  0  0  0
  -21.8820   -3.8153   23.4344 C   0  0  0  0  0  0
  -21.9191   -4.6971   22.3401 C   0  0  0  0  0  0
  -22.7858  -13.5236   21.1859 C   0  0  0  0  0  0
  -22.1663   -4.2158   21.0979 F   0  0  0  0  0  0
  -21.5629   -3.4544   25.7733 F   0  0  0  0  0  0
  -30.0246  -13.3369   20.4275 N   0  0  0  0  0  0
  -26.2993  -12.9353   20.3326 N   0  0  0  0  0  0
  -25.9323  -11.6507   20.5776 N   0  0  0  0  0  0
  -22.0505  -12.8214   22.0405 N   0  0  0  0  0  0
  -25.4263  -15.1875   20.4015 N   0  0  0  0  0  0
  -31.8764  -14.6020   20.1501 O   0  0  0  0  0  0
  -21.6637   -6.8885   21.4238 O   0  0  0  0  0  0
  -22.3542  -14.5546   20.6713 O   0  0  0  0  0  0
  -24.6162  -31.8643   23.2088 C   0  0  0  0  0  0
  -25.9047  -32.4791   23.8380 C   0  0  1  0  0  0
  -27.2275  -27.4045   20.0964 C   0  0  0  0  0  0
  -25.5900  -33.8584   24.2325 N   0  0  0  0  0  0
  -23.4026  -30.4882   21.5519 C   0  0  2  0  0  0
  -24.8452  -28.9534   20.1137 C   0  0  0  0  0  0
  -22.7421  -29.4614   22.5007 C   0  0  0  0  0  0
  -18.0273  -28.1344   22.8480 C   0  0  0  0  0  0
  -24.1486  -36.7302   23.2642 C   0  0  0  0  0  0
  -25.9326  -30.8246   21.3621 C   0  0  0  0  0  0
  -26.0075  -29.4561   20.7097 C   0  0  0  0  0  0
  -27.1977  -28.6896   20.6954 C   0  0  0  0  0  0
  -26.0364  -26.9162   19.5083 C   0  0  0  0  0  0
  -24.8566  -27.6843   19.5107 C   0  0  0  0  0  0
  -23.6081  -29.8236   20.1652 C   0  0  0  0  0  0
  -25.4100  -36.3084   24.0342 C   0  0  1  0  0  0
  -20.5859  -28.3615   23.1326 C   0  0  2  0  0  0
  -20.6745  -26.9346   22.5418 C   0  0  0  0  0  0
  -19.5718  -26.6349   21.5201 C   0  0  0  0  0  0
  -18.1898  -26.7893   22.1614 C   0  0  0  0  0  0
  -19.1520  -28.8804   23.2893 C   0  0  0  0  0  0
  -18.9451  -30.1427   23.8881 C   0  0  0  0  0  0
  -17.6444  -30.6547   24.0555 C   0  0  0  0  0  0
  -25.9028  -34.9448   23.5130 C   0  0  0  0  0  0
  -16.5339  -29.9036   23.6327 C   0  0  0  0  0  0
  -16.7263  -28.6468   23.0321 C   0  0  0  0  0  0
  -26.4483  -31.6555   25.0699 C   0  0  0  0  0  0
  -25.3764  -31.3640   26.1455 C   0  0  0  0  0  0
  -27.0331  -30.3013   24.6051 C   0  0  0  0  0  0
  -27.6041  -32.4294   25.7458 C   0  0  0  0  0  0
  -27.5572  -37.1796   24.8465 C   0  0  0  0  0  0
  -21.4145  -29.3001   22.3761 N   0  0  0  0  0  0
  -26.4285  -37.3759   23.9417 N   0  0  0  0  0  0
  -24.6692  -31.0744   22.0986 N   0  0  0  0  0  0
  -23.4205  -28.8139   23.3026 O   0  0  0  0  0  0
  -28.4145  -26.6887   20.1129 O   0  0  0  0  0  0
  -26.5577  -34.8906   22.4686 O   0  0  0  0  0  0
  -23.5359  -32.1391   23.7495 O   0  0  0  0  0  0
  -31.3448  -18.7155   19.0974 C   0  0  0  0  0  0
  -31.2481  -17.4171   19.6147 C   0  0  0  0  0  0
  -30.3131  -19.6499   19.2854 C   0  0  0  0  0  0
  -29.1841  -19.3107   20.0807 C   0  0  0  0  0  0
  -29.0924  -17.9705   20.6050 C   0  0  0  0  0  0
  -30.1117  -16.9948   20.3471 C   0  0  0  0  0  0
  -27.8564  -22.8341   20.0051 C   0  0  0  0  0  0
  -30.4422  -20.9816   18.5602 C   0  0  0  0  0  0
  -27.8694  -17.5770   21.4295 C   0  0  0  0  0  0
  -28.0250  -20.3326   20.2687 C   0  0  0  0  0  0
  -28.1234  -24.2280   20.6242 C   0  0  0  0  0  0
  -28.4820  -25.3416   19.5939 C   0  0  0  0  0  0
  -29.9479  -15.6172   20.7810 N   0  0  0  0  0  0
  -28.3675  -21.7340   20.6024 N   0  0  0  0  0  0
  -27.1446  -22.7533   19.0016 O   0  0  0  0  0  0
  -31.4618  -12.3935   19.1415 H   0  0  0  0  0  0
  -30.3115  -11.3167   19.8742 H   0  0  0  0  0  0
  -29.7394  -11.7308   17.4606 H   0  0  0  0  0  0
  -29.6638  -13.4511   17.7518 H   0  0  0  0  0  0
  -27.8329  -11.2948   18.8495 H   0  0  0  0  0  0
  -27.3664  -12.5951   17.7876 H   0  0  0  0  0  0
  -27.6812  -14.2521   19.5288 H   0  0  0  0  0  0
  -28.6769  -12.0386   21.3920 H   0  0  0  0  0  0
  -28.4692  -13.7082   21.8354 H   0  0  0  0  0  0
  -25.2757   -9.5680   22.4770 H   0  0  0  0  0  0
  -24.0009   -7.4634   22.7470 H   0  0  0  0  0  0
  -21.0854   -8.8764   19.8939 H   0  0  0  0  0  0
  -22.3705  -10.9673   19.6172 H   0  0  0  0  0  0
  -21.1996   -7.6149   23.9720 H   0  0  0  0  0  0
  -21.1482   -6.0523   25.9077 H   0  0  0  0  0  0
  -22.0600   -2.7615   23.2844 H   0  0  0  0  0  0
  -22.4126  -11.9867   22.4765 H   0  0  0  0  0  0
  -21.1119  -13.1221   22.2614 H   0  0  0  0  0  0
  -24.6522  -15.8365   20.4900 H   0  0  0  0  0  0
  -26.2570  -15.6109   20.0098 H   0  0  0  0  0  0
  -26.7115  -32.5493   23.1140 H   0  0  0  0  0  0
  -25.0085  -33.9743   25.0491 H   0  0  0  0  0  0
  -22.6901  -31.3041   21.4169 H   0  0  0  0  0  0
  -23.3739  -35.9643   23.3283 H   0  0  0  0  0  0
  -24.3598  -36.8933   22.2063 H   0  0  0  0  0  0
  -23.7245  -37.6503   23.6673 H   0  0  0  0  0  0
  -26.0451  -31.5914   20.5945 H   0  0  0  0  0  0
  -26.8202  -30.8789   21.9797 H   0  0  0  0  0  0
  -28.0982  -29.0762   21.1514 H   0  0  0  0  0  0
  -25.9856  -25.9421   19.0472 H   0  0  0  0  0  0
  -23.9607  -27.2899   19.0514 H   0  0  0  0  0  0
  -23.7070  -30.5976   19.4032 H   0  0  0  0  0  0
  -22.7316  -29.2416   19.8757 H   0  0  0  0  0  0
  -25.1270  -36.1946   25.0836 H   0  0  0  0  0  0
  -20.9950  -28.3161   24.1444 H   0  0  0  0  0  0
  -20.5611  -26.2206   23.3597 H   0  0  0  0  0  0
  -21.6612  -26.7339   22.1225 H   0  0  0  0  0  0
  -19.6854  -25.6264   21.1205 H   0  0  0  0  0  0
  -19.6667  -27.3185   20.6755 H   0  0  0  0  0  0
  -17.4167  -26.6673   21.4020 H   0  0  0  0  0  0
  -18.0279  -26.0019   22.9000 H   0  0  0  0  0  0
  -19.7924  -30.7266   24.2213 H   0  0  0  0  0  0
  -17.4985  -31.6229   24.5151 H   0  0  0  0  0  0
  -15.5333  -30.2916   23.7652 H   0  0  0  0  0  0
  -15.8677  -28.0802   22.6981 H   0  0  0  0  0  0
  -24.5959  -30.6950   25.7805 H   0  0  0  0  0  0
  -24.8936  -32.2782   26.4910 H   0  0  0  0  0  0
  -25.8144  -30.8815   27.0205 H   0  0  0  0  0  0
  -26.2867  -29.6735   24.1169 H   0  0  0  0  0  0
  -27.4207  -29.7261   25.4468 H   0  0  0  0  0  0
  -27.8638  -30.4344   23.9117 H   0  0  0  0  0  0
  -27.2649  -33.3610   26.2001 H   0  0  0  0  0  0
  -28.3855  -32.6831   25.0278 H   0  0  0  0  0  0
  -28.0697  -31.8441   26.5398 H   0  0  0  0  0  0
  -28.2561  -38.0116   24.7524 H   0  0  0  0  0  0
  -28.1104  -36.2644   24.6275 H   0  0  0  0  0  0
  -27.2314  -37.1421   25.8876 H   0  0  0  0  0  0
  -20.9290  -29.8788   21.7050 H   0  0  0  0  0  0
  -26.0166  -38.2840   24.1423 H   0  0  0  0  0  0
  -32.2154  -18.9753   18.5104 H   0  0  0  0  0  0
  -32.0711  -16.7617   19.3814 H   0  0  0  0  0  0
  -31.2115  -20.9407   17.7875 H   0  0  0  0  0  0
  -30.7142  -21.7813   19.2484 H   0  0  0  0  0  0
  -29.5107  -21.2465   18.0601 H   0  0  0  0  0  0
  -27.8171  -18.1876   22.3311 H   0  0  0  0  0  0
  -27.8611  -16.5402   21.7597 H   0  0  0  0  0  0
  -26.9574  -17.7344   20.8543 H   0  0  0  0  0  0
  -27.3481  -20.0200   21.0600 H   0  0  0  0  0  0
  -27.4272  -20.2904   19.3565 H   0  0  0  0  0  0
  -28.9105  -24.1613   21.3754 H   0  0  0  0  0  0
  -27.2180  -24.5140   21.1587 H   0  0  0  0  0  0
  -27.9335  -25.2417   18.6579 H   0  0  0  0  0  0
  -29.5223  -25.1835   19.3088 H   0  0  0  0  0  0
  -29.0398  -15.3964   21.1567 H   0  0  0  0  0  0
  -28.9389  -21.8677   21.4260 H   0  0  0  0  0  0
  1 25  1  0  0  0
  1 30  2  0  0  0
  1 83  1  0  0  0
  2  3  1  0  0  0
  2 25  1  0  0  0
  2 86  1  0  0  0
  2 87  1  0  0  0
  3  4  1  0  0  0
  3 88  1  0  0  0
  3 89  1  0  0  0
  4  5  1  0  0  0
  4 90  1  0  0  0
  4 91  1  0  0  0
  5  6  1  0  0  0
  5 26  1  0  0  0
  5 92  1  0  0  0
  6 25  1  0  0  0
  6 93  1  0  0  0
  6 94  1  0  0  0
  7  8  2  0  0  0
  7 26  1  0  0  0
  7 29  1  0  0  0
  8  9  1  0  0  0
  8 22  1  0  0  0
  9 10  1  0  0  0
  9 27  2  0  0  0
 10 11  2  0  0  0
 10 15  1  0  0  0
 11 12  1  0  0  0
 11 95  1  0  0  0
 12 13  2  0  0  0
 12 96  1  0  0  0
 13 14  1  0  0  0
 13 31  1  0  0  0
 14 15  2  0  0  0
 14 97  1  0  0  0
 15 98  1  0  0  0
 16 17  2  0  0  0
 16 21  1  0  0  0
 16 31  1  0  0  0
 17 18  1  0  0  0
 17 99  1  0  0  0
 18 19  2  0  0  0
 18100  1  0  0  0
 19 20  1  0  0  0
 19 24  1  0  0  0
 20 21  2  0  0  0
 20101  1  0  0  0
 21 23  1  0  0  0
 22 28  1  0  0  0
 22 32  2  0  0  0
 26 27  1  0  0  0
 28102  1  0  0  0
 28103  1  0  0  0
 29104  1  0  0  0
 29105  1  0  0  0
 33 34  1  0  0  0
 33 66  1  0  0  0
 33 70  2  0  0  0
 34 36  1  0  0  0
 34 59  1  0  0  0
 34106  1  0  0  0
 35 44  2  0  0  0
 35 45  1  0  0  0
 35 68  1  0  0  0
 36 56  1  0  0  0
 36107  1  0  0  0
 37 39  1  0  0  0
 37 47  1  0  0  0
 37 66  1  0  0  0
 37108  1  0  0  0
 38 43  2  0  0  0
 38 46  1  0  0  0
 38 47  1  0  0  0
 39 64  1  0  0  0
 39 67  2  0  0  0
 40 52  1  0  0  0
 40 53  2  0  0  0
 40 58  1  0  0  0
 41109  1  0  0  0
 41110  1  0  0  0
 41111  1  0  0  0
 41 48  1  0  0  0
 42 43  1  0  0  0
 42 66  1  0  0  0
 42112  1  0  0  0
 42113  1  0  0  0
 43 44  1  0  0  0
 44114  1  0  0  0
 45 46  2  0  0  0
 45115  1  0  0  0
 46116  1  0  0  0
 47117  1  0  0  0
 47118  1  0  0  0
 48 56  1  0  0  0
 48 65  1  0  0  0
 48119  1  0  0  0
 49 50  1  0  0  0
 49 53  1  0  0  0
 49 64  1  0  0  0
 49120  1  0  0  0
 50 51  1  0  0  0
 50121  1  0  0  0
 50122  1  0  0  0
 51 52  1  0  0  0
 51123  1  0  0  0
 51124  1  0  0  0
 52125  1  0  0  0
 52126  1  0  0  0
 53 54  1  0  0  0
 54 55  2  0  0  0
 54127  1  0  0  0
 55 57  1  0  0  0
 55128  1  0  0  0
 56 69  2  0  0  0
 57 58  2  0  0  0
 57129  1  0  0  0
 58130  1  0  0  0
 59 60  1  0  0  0
 59 61  1  0  0  0
 59 62  1  0  0  0
 60131  1  0  0  0
 60132  1  0  0  0
 60133  1  0  0  0
 61134  1  0  0  0
 61135  1  0  0  0
 61136  1  0  0  0
 62137  1  0  0  0
 62138  1  0  0  0
 62139  1  0  0  0
 63 65  1  0  0  0
 63140  1  0  0  0
 63141  1  0  0  0
 63142  1  0  0  0
 64143  1  0  0  0
 65144  1  0  0  0
 68 82  1  0  0  0
 71 72  2  0  0  0
 71 73  1  0  0  0
 71145  1  0  0  0
 72 76  1  0  0  0
 72146  1  0  0  0
 73 74  2  0  0  0
 73 78  1  0  0  0
 74 75  1  0  0  0
 74 80  1  0  0  0
 75 76  2  0  0  0
 75 79  1  0  0  0
 76 83  1  0  0  0
 77 81  1  0  0  0
 77 84  1  0  0  0
 77 85  2  0  0  0
 78147  1  0  0  0
 78148  1  0  0  0
 78149  1  0  0  0
 79150  1  0  0  0
 79151  1  0  0  0
 79152  1  0  0  0
 80 84  1  0  0  0
 80153  1  0  0  0
 80154  1  0  0  0
 81 82  1  0  0  0
 81155  1  0  0  0
 81156  1  0  0  0
 82157  1  0  0  0
 82158  1  0  0  0
 83159  1  0  0  0
 84160  1  0  0  0
M  ISO  4   1 100  68 101  82 101  83 100
M  END
> <chiral flag>
0

> <version>
0

> <s_m_source_file>
/data/baiqing/PycharmProjects/Reinvent-master-3.2/result/LINK_invent/BTK/process_docking_weight1_custom_product_contain_oxygen_bond_distance_aromatic_linkinvent_7_9_3/rearranged_h_0056.sdf

> <i_m_source_file_index>
50

> <r_mmod_Potential_Energy-OPLS-2005>
-122.429336547852

> <r_mmod_Stretch_Energy-OPLS-2005>
52.0229568481445

> <r_mmod_Bend_Energy-OPLS-2005>
117.166870117188

> <r_mmod_Torsional_Energy-OPLS-2005>
210.305770874023

> <r_mmod_Improper_Torsional_Energy-OPLS-2005>
5.63744497299194

> <r_mmod_Van_der_Waal_Energy-OPLS-2005>
166.271270751953

> <r_mmod_Electrostatic_Energy-OPLS-2005>
-468.144256591797

> <r_mmod_Solvation_Energy-OPLS-2005>
-227.912048339844

> <b_mmod_Minimization_Converged-OPLS-2005>
0

> <r_mmod_RMS_Derivative-OPLS-2005>
1.92169106006622

$$$$
50
                    3D
 Structure written by MMmdl.
162170  0  0  1  0            999 V2000
  -30.6994  -14.5685   20.5165 C   0  0  0  0  0  0
  -30.4149  -12.3518   19.4511 C   0  0  0  0  0  0
  -29.4969  -12.4968   18.2205 C   0  0  0  0  0  0
  -28.0199  -12.3505   18.6326 C   0  0  0  0  0  0
  -27.6506  -13.2226   19.8630 C   0  0  2  0  0  0
  -28.6950  -13.0860   20.9945 C   0  0  0  0  0  0
  -25.2528  -13.8182   20.5685 C   0  0  0  0  0  0
  -24.1814  -13.0439   20.9211 C   0  0  0  0  0  0
  -24.6395  -11.6915   20.8755 C   0  0  0  0  0  0
  -23.9066  -10.4294   21.0410 C   0  0  0  0  0  0
  -24.3617   -9.4207   21.9184 C   0  0  0  0  0  0
  -23.6293   -8.2242   22.0751 C   0  0  0  0  0  0
  -22.4274   -8.0282   21.3543 C   0  0  0  0  0  0
  -21.9912   -9.0255   20.4646 C   0  0  0  0  0  0
  -22.7239  -10.2135   20.3057 C   0  0  0  0  0  0
  -21.6852   -6.0735   22.5278 C   0  0  0  0  0  0
  -21.4013   -6.5638   23.8212 C   0  0  0  0  0  0
  -21.3659   -5.6790   24.9174 C   0  0  0  0  0  0
  -21.6044   -4.3053   24.7223 C   0  0  0  0  0  0
  -21.8821   -3.8146   23.4345 C   0  0  0  0  0  0
  -21.9194   -4.6964   22.3401 C   0  0  0  0  0  0
  -22.7835  -13.5228   21.1862 C   0  0  0  0  0  0
  -22.1663   -4.2150   21.0978 F   0  0  0  0  0  0
  -21.5628   -3.4535   25.7736 F   0  0  0  0  0  0
  -30.0157  -13.3874   20.4252 N   0  0  0  0  0  0
  -26.2971  -12.9388   20.3327 N   0  0  0  0  0  0
  -25.9325  -11.6533   20.5775 N   0  0  0  0  0  0
  -22.0472  -12.8222   22.0418 N   0  0  0  0  0  0
  -25.4188  -15.1896   20.4039 N   0  0  0  0  0  0
  -31.8557  -14.6515   20.0980 O   0  0  0  0  0  0
  -21.6640   -6.8877   21.4240 O   0  0  0  0  0  0
  -22.3519  -14.5531   20.6705 O   0  0  0  0  0  0
  -24.6200  -31.8636   23.2051 C   0  0  0  0  0  0
  -25.9066  -32.4804   23.8372 C   0  0  1  0  0  0
  -27.2281  -27.3791   20.1123 C   0  0  0  0  0  0
  -25.5908  -33.8603   24.2302 N   0  0  0  0  0  0
  -23.4128  -30.4863   21.5451 C   0  0  2  0  0  0
  -24.8629  -28.9481   20.1080 C   0  0  0  0  0  0
  -22.7447  -29.4636   22.4939 C   0  0  0  0  0  0
  -18.0281  -28.1387   22.8485 C   0  0  0  0  0  0
  -24.1484  -36.7300   23.2639 C   0  0  0  0  0  0
  -25.9479  -30.8135   21.3669 C   0  0  0  0  0  0
  -26.0264  -29.4448   20.7114 C   0  0  0  0  0  0
  -27.2165  -28.6687   20.7088 C   0  0  0  0  0  0
  -26.0522  -26.9163   19.4890 C   0  0  0  0  0  0
  -24.8737  -27.6867   19.4887 C   0  0  0  0  0  0
  -23.6260  -29.8200   20.1594 C   0  0  0  0  0  0
  -25.4108  -36.3098   24.0337 C   0  0  1  0  0  0
  -20.5878  -28.3682   23.1297 C   0  0  2  0  0  0
  -20.6767  -26.9409   22.5420 C   0  0  0  0  0  0
  -19.5750  -26.6392   21.5212 C   0  0  0  0  0  0
  -18.1927  -26.7933   22.1616 C   0  0  0  0  0  0
  -19.1532  -28.8849   23.2891 C   0  0  0  0  0  0
  -18.9459  -30.1452   23.8907 C   0  0  0  0  0  0
  -17.6460  -30.6588   24.0566 C   0  0  0  0  0  0
  -25.9043  -34.9466   23.5119 C   0  0  0  0  0  0
  -16.5350  -29.9089   23.6331 C   0  0  0  0  0  0
  -16.7269  -28.6507   23.0350 C   0  0  0  0  0  0
  -26.4478  -31.6595   25.0716 C   0  0  0  0  0  0
  -25.3734  -31.3726   26.1458 C   0  0  0  0  0  0
  -27.0306  -30.3025   24.6125 C   0  0  0  0  0  0
  -27.6048  -32.4320   25.7480 C   0  0  0  0  0  0
  -27.5581  -37.1803   24.8465 C   0  0  0  0  0  0
  -21.4163  -29.3040   22.3693 N   0  0  0  0  0  0
  -26.4288  -37.3788   23.9413 N   0  0  0  0  0  0
  -24.6786  -31.0698   22.0971 N   0  0  0  0  0  0
  -23.4188  -28.8180   23.3007 O   0  0  0  0  0  0
  -28.3157  -26.5187   20.1687 O   0  0  0  0  0  0
  -26.5603  -34.8924   22.4680 O   0  0  0  0  0  0
  -23.5376  -32.1401   23.7416 O   0  0  0  0  0  0
  -32.2372  -18.7348   21.0784 C   0  0  0  0  0  0
  -31.3218  -19.7923   20.9781 C   0  0  0  0  0  0
  -31.7923  -17.4034   21.0747 C   0  0  0  0  0  0
  -29.9355  -19.5493   20.8921 C   0  0  0  0  0  0
  -29.4892  -18.1758   20.8291 C   0  0  0  0  0  0
  -30.4222  -17.0780   20.9188 C   0  0  0  0  0  0
  -29.5262  -19.4349   24.7737 C   0  0  0  0  0  0
  -29.0423  -20.0896   23.7020 C   0  0  0  0  0  0
  -28.5250  -24.0262   20.9174 C   0  0  0  0  0  0
  -28.9589  -23.2148   21.9235 C   0  0  0  0  0  0
  -29.5984  -21.3741   23.2873 C   0  0  0  0  0  0
  -28.0045  -17.8796   20.6700 C   0  0  0  0  0  0
  -29.0001  -20.8135   20.9269 C   0  0  0  0  0  0
  -28.1733  -25.5139   21.2146 C   0  0  0  0  0  0
  -29.9984  -15.6786   20.9001 N   0  0  0  0  0  0
  -29.2245  -21.8021   22.0399 N   0  0  0  0  0  0
  -30.2711  -22.0750   24.0563 O   0  0  0  0  0  0
  -31.4606  -12.4327   19.1501 H   0  0  0  0  0  0
  -30.3112  -11.3595   19.8931 H   0  0  0  0  0  0
  -29.7510  -11.7473   17.4697 H   0  0  0  0  0  0
  -29.6558  -13.4681   17.7498 H   0  0  0  0  0  0
  -27.8468  -11.2983   18.8608 H   0  0  0  0  0  0
  -27.3671  -12.5888   17.7919 H   0  0  0  0  0  0
  -27.6699  -14.2579   19.5222 H   0  0  0  0  0  0
  -28.6877  -12.0746   21.4037 H   0  0  0  0  0  0
  -28.4540  -13.7477   21.8279 H   0  0  0  0  0  0
  -25.2762   -9.5684   22.4755 H   0  0  0  0  0  0
  -24.0005   -7.4633   22.7468 H   0  0  0  0  0  0
  -21.0842   -8.8773   19.8951 H   0  0  0  0  0  0
  -22.3694  -10.9674   19.6165 H   0  0  0  0  0  0
  -21.2005   -7.6145   23.9714 H   0  0  0  0  0  0
  -21.1478   -6.0519   25.9076 H   0  0  0  0  0  0
  -22.0601   -2.7608   23.2842 H   0  0  0  0  0  0
  -22.4088  -11.9886   22.4812 H   0  0  0  0  0  0
  -21.1086  -13.1243   22.2610 H   0  0  0  0  0  0
  -24.6411  -15.8345   20.4933 H   0  0  0  0  0  0
  -26.2465  -15.6184   20.0133 H   0  0  0  0  0  0
  -26.7139  -32.5492   23.1136 H   0  0  0  0  0  0
  -25.0072  -33.9760   25.0457 H   0  0  0  0  0  0
  -22.7044  -31.3051   21.4034 H   0  0  0  0  0  0
  -23.3747  -35.9632   23.3307 H   0  0  0  0  0  0
  -24.3580  -36.8908   22.2052 H   0  0  0  0  0  0
  -23.7233  -37.6508   23.6645 H   0  0  0  0  0  0
  -26.0699  -31.5785   20.5988 H   0  0  0  0  0  0
  -26.8322  -30.8659   21.9902 H   0  0  0  0  0  0
  -28.1088  -29.0390   21.1934 H   0  0  0  0  0  0
  -26.0425  -25.9390   19.0268 H   0  0  0  0  0  0
  -23.9806  -27.2997   19.0167 H   0  0  0  0  0  0
  -23.7379  -30.5955   19.4009 H   0  0  0  0  0  0
  -22.7494  -29.2424   19.8607 H   0  0  0  0  0  0
  -25.1289  -36.1958   25.0831 H   0  0  0  0  0  0
  -20.9986  -28.3256   24.1410 H   0  0  0  0  0  0
  -20.5658  -26.2296   23.3616 H   0  0  0  0  0  0
  -21.6639  -26.7432   22.1227 H   0  0  0  0  0  0
  -19.6913  -25.6306   21.1238 H   0  0  0  0  0  0
  -19.6699  -27.3202   20.6742 H   0  0  0  0  0  0
  -17.4206  -26.6690   21.4005 H   0  0  0  0  0  0
  -18.0317  -26.0071   22.9009 H   0  0  0  0  0  0
  -19.7936  -30.7267   24.2279 H   0  0  0  0  0  0
  -17.5017  -31.6265   24.5174 H   0  0  0  0  0  0
  -15.5355  -30.2998   23.7651 H   0  0  0  0  0  0
  -15.8666  -28.0831   22.7061 H   0  0  0  0  0  0
  -24.5927  -30.7041   25.7811 H   0  0  0  0  0  0
  -24.8897  -32.2885   26.4859 H   0  0  0  0  0  0
  -25.8088  -30.8945   27.0240 H   0  0  0  0  0  0
  -26.2856  -29.6795   24.1158 H   0  0  0  0  0  0
  -27.4035  -29.7258   25.4601 H   0  0  0  0  0  0
  -27.8715  -30.4327   23.9308 H   0  0  0  0  0  0
  -27.2665  -33.3621   26.2058 H   0  0  0  0  0  0
  -28.3856  -32.6878   25.0306 H   0  0  0  0  0  0
  -28.0712  -31.8441   26.5395 H   0  0  0  0  0  0
  -28.2609  -38.0091   24.7510 H   0  0  0  0  0  0
  -28.1069  -36.2626   24.6289 H   0  0  0  0  0  0
  -27.2306  -37.1457   25.8871 H   0  0  0  0  0  0
  -20.9331  -29.8762   21.6910 H   0  0  0  0  0  0
  -26.0177  -38.2866   24.1417 H   0  0  0  0  0  0
  -33.2926  -18.9455   21.1798 H   0  0  0  0  0  0
  -31.6927  -20.8083   21.0071 H   0  0  0  0  0  0
  -32.5451  -16.6399   21.1975 H   0  0  0  0  0  0
  -29.1045  -18.4879   25.0783 H   0  0  0  0  0  0
  -30.3457  -19.8252   25.3617 H   0  0  0  0  0  0
  -28.2201  -19.6518   23.1578 H   0  0  0  0  0  0
  -28.3520  -23.6561   19.9172 H   0  0  0  0  0  0
  -29.0915  -23.7235   22.8701 H   0  0  0  0  0  0
  -27.4902  -17.9694   21.6267 H   0  0  0  0  0  0
  -27.8222  -16.8794   20.2827 H   0  0  0  0  0  0
  -27.5425  -18.5658   19.9609 H   0  0  0  0  0  0
  -27.9514  -20.5243   20.9644 H   0  0  0  0  0  0
  -29.1274  -21.3311   19.9762 H   0  0  0  0  0  0
  -28.7703  -25.8517   22.0628 H   0  0  0  0  0  0
  -27.1461  -25.4940   21.5851 H   0  0  0  0  0  0
  -29.0279  -15.5084   21.1103 H   0  0  0  0  0  0
  1 25  1  0  0  0
  1 30  2  0  0  0
  1 85  1  0  0  0
  2  3  1  0  0  0
  2 25  1  0  0  0
  2 88  1  0  0  0
  2 89  1  0  0  0
  3  4  1  0  0  0
  3 90  1  0  0  0
  3 91  1  0  0  0
  4  5  1  0  0  0
  4 92  1  0  0  0
  4 93  1  0  0  0
  5  6  1  0  0  0
  5 26  1  0  0  0
  5 94  1  0  0  0
  6 25  1  0  0  0
  6 95  1  0  0  0
  6 96  1  0  0  0
  7  8  2  0  0  0
  7 26  1  0  0  0
  7 29  1  0  0  0
  8  9  1  0  0  0
  8 22  1  0  0  0
  9 10  1  0  0  0
  9 27  2  0  0  0
 10 11  2  0  0  0
 10 15  1  0  0  0
 11 12  1  0  0  0
 11 97  1  0  0  0
 12 13  2  0  0  0
 12 98  1  0  0  0
 13 14  1  0  0  0
 13 31  1  0  0  0
 14 15  2  0  0  0
 14 99  1  0  0  0
 15100  1  0  0  0
 16 17  2  0  0  0
 16 21  1  0  0  0
 16 31  1  0  0  0
 17 18  1  0  0  0
 17101  1  0  0  0
 18 19  2  0  0  0
 18102  1  0  0  0
 19 20  1  0  0  0
 19 24  1  0  0  0
 20 21  2  0  0  0
 20103  1  0  0  0
 21 23  1  0  0  0
 22 28  1  0  0  0
 22 32  2  0  0  0
 26 27  1  0  0  0
 28104  1  0  0  0
 28105  1  0  0  0
 29106  1  0  0  0
 29107  1  0  0  0
 33 34  1  0  0  0
 33 66  1  0  0  0
 33 70  2  0  0  0
 34 36  1  0  0  0
 34 59  1  0  0  0
 34108  1  0  0  0
 35 44  2  0  0  0
 35 45  1  0  0  0
 35 68  1  0  0  0
 36 56  1  0  0  0
 36109  1  0  0  0
 37 39  1  0  0  0
 37 47  1  0  0  0
 37 66  1  0  0  0
 37110  1  0  0  0
 38 43  2  0  0  0
 38 46  1  0  0  0
 38 47  1  0  0  0
 39 64  1  0  0  0
 39 67  2  0  0  0
 40 52  1  0  0  0
 40 53  2  0  0  0
 40 58  1  0  0  0
 41111  1  0  0  0
 41112  1  0  0  0
 41113  1  0  0  0
 41 48  1  0  0  0
 42 43  1  0  0  0
 42 66  1  0  0  0
 42114  1  0  0  0
 42115  1  0  0  0
 43 44  1  0  0  0
 44116  1  0  0  0
 45 46  2  0  0  0
 45117  1  0  0  0
 46118  1  0  0  0
 47119  1  0  0  0
 47120  1  0  0  0
 48 56  1  0  0  0
 48 65  1  0  0  0
 48121  1  0  0  0
 49 50  1  0  0  0
 49 53  1  0  0  0
 49 64  1  0  0  0
 49122  1  0  0  0
 50 51  1  0  0  0
 50123  1  0  0  0
 50124  1  0  0  0
 51 52  1  0  0  0
 51125  1  0  0  0
 51126  1  0  0  0
 52127  1  0  0  0
 52128  1  0  0  0
 53 54  1  0  0  0
 54 55  2  0  0  0
 54129  1  0  0  0
 55 57  1  0  0  0
 55130  1  0  0  0
 56 69  2  0  0  0
 57 58  2  0  0  0
 57131  1  0  0  0
 58132  1  0  0  0
 59 60  1  0  0  0
 59 61  1  0  0  0
 59 62  1  0  0  0
 60133  1  0  0  0
 60134  1  0  0  0
 60135  1  0  0  0
 61136  1  0  0  0
 61137  1  0  0  0
 61138  1  0  0  0
 62139  1  0  0  0
 62140  1  0  0  0
 62141  1  0  0  0
 63 65  1  0  0  0
 63142  1  0  0  0
 63143  1  0  0  0
 63144  1  0  0  0
 64145  1  0  0  0
 65146  1  0  0  0
 68 84  1  0  0  0
 71 72  2  0  0  0
 71 73  1  0  0  0
 71147  1  0  0  0
 72 74  1  0  0  0
 72148  1  0  0  0
 73 76  2  0  0  0
 73149  1  0  0  0
 74 75  2  0  0  0
 74 83  1  0  0  0
 75 76  1  0  0  0
 75 82  1  0  0  0
 76 85  1  0  0  0
 77 78  2  0  0  0
 77150  1  0  0  0
 77151  1  0  0  0
 78 81  1  0  0  0
 78152  1  0  0  0
 79 80  2  0  0  0
 79 84  1  0  0  0
 79153  1  0  0  0
 80 86  1  0  0  0
 80154  1  0  0  0
 81 86  1  0  0  0
 81 87  2  0  0  0
 82155  1  0  0  0
 82156  1  0  0  0
 82157  1  0  0  0
 83 86  1  0  0  0
 83158  1  0  0  0
 83159  1  0  0  0
 84160  1  0  0  0
 84161  1  0  0  0
 85162  1  0  0  0
M  ISO  4   1 100  68 101  84 101  85 100
M  END
> <chiral flag>
0

> <version>
0

> <s_m_source_file>
/data/baiqing/PycharmProjects/Reinvent-master-3.2/result/LINK_invent/BTK/process_docking_weight1_custom_product_contain_oxygen_bond_distance_aromatic_linkinvent_7_9_3/rearranged_h_0056.sdf

> <i_m_source_file_index>
51

> <r_mmod_Potential_Energy-OPLS-2005>
139.960021972656

> <r_mmod_Stretch_Energy-OPLS-2005>
74.8619766235352

> <r_mmod_Bend_Energy-OPLS-2005>
137.921676635742

> <r_mmod_Torsional_Energy-OPLS-2005>
279.974487304688

> <r_mmod_Improper_Torsional_Energy-OPLS-2005>
6.63436698913574

> <r_mmod_Van_der_Waal_Energy-OPLS-2005>
174.506469726562

> <r_mmod_Electrostatic_Energy-OPLS-2005>
-347.562255859375

> <r_mmod_Solvation_Energy-OPLS-2005>
-219.308120727539

> <b_mmod_Minimization_Converged-OPLS-2005>
0

> <r_mmod_RMS_Derivative-OPLS-2005>
0.800213932991028

$$$$
51
                    3D
 Structure written by MMmdl.
155163  0  0  1  0            999 V2000
  -30.7184  -14.4210   20.6324 C   0  0  0  0  0  0
  -30.4181  -12.2917   19.4150 C   0  0  0  0  0  0
  -29.4870  -12.5094   18.2051 C   0  0  0  0  0  0
  -28.0087  -12.3706   18.6158 C   0  0  0  0  0  0
  -27.6629  -13.2004   19.8803 C   0  0  2  0  0  0
  -28.7004  -12.9481   20.9984 C   0  0  0  0  0  0
  -25.2585  -13.8158   20.5656 C   0  0  0  0  0  0
  -24.1825  -13.0437   20.9163 C   0  0  0  0  0  0
  -24.6365  -11.6902   20.8714 C   0  0  0  0  0  0
  -23.9030  -10.4295   21.0391 C   0  0  0  0  0  0
  -24.3585   -9.4220   21.9168 C   0  0  0  0  0  0
  -23.6273   -8.2248   22.0755 C   0  0  0  0  0  0
  -22.4267   -8.0274   21.3536 C   0  0  0  0  0  0
  -21.9890   -9.0238   20.4635 C   0  0  0  0  0  0
  -22.7202  -10.2121   20.3044 C   0  0  0  0  0  0
  -21.6841   -6.0719   22.5262 C   0  0  0  0  0  0
  -21.4011   -6.5620   23.8196 C   0  0  0  0  0  0
  -21.3662   -5.6791   24.9167 C   0  0  0  0  0  0
  -21.6058   -4.3048   24.7228 C   0  0  0  0  0  0
  -21.8821   -3.8137   23.4350 C   0  0  0  0  0  0
  -21.9183   -4.6957   22.3398 C   0  0  0  0  0  0
  -22.7854  -13.5238   21.1831 C   0  0  0  0  0  0
  -22.1656   -4.2141   21.0973 F   0  0  0  0  0  0
  -21.5633   -3.4539   25.7744 F   0  0  0  0  0  0
  -30.0389  -13.2541   20.4616 N   0  0  0  0  0  0
  -26.3011  -12.9306   20.3361 N   0  0  0  0  0  0
  -25.9290  -11.6471   20.5751 N   0  0  0  0  0  0
  -22.0508  -12.8225   22.0394 N   0  0  0  0  0  0
  -25.4318  -15.1880   20.4075 N   0  0  0  0  0  0
  -31.7956  -14.6451   20.0725 O   0  0  0  0  0  0
  -21.6633   -6.8869   21.4230 O   0  0  0  0  0  0
  -22.3534  -14.5534   20.6677 O   0  0  0  0  0  0
  -24.6134  -31.8706   23.2069 C   0  0  0  0  0  0
  -25.9036  -32.4835   23.8372 C   0  0  1  0  0  0
  -27.2440  -27.4547   20.0814 C   0  0  0  0  0  0
  -25.5888  -33.8626   24.2332 N   0  0  0  0  0  0
  -23.3972  -30.4921   21.5499 C   0  0  2  0  0  0
  -24.8428  -28.9554   20.1192 C   0  0  0  0  0  0
  -22.7397  -29.4663   22.5012 C   0  0  0  0  0  0
  -18.0275  -28.1363   22.8495 C   0  0  0  0  0  0
  -24.1474  -36.7306   23.2640 C   0  0  0  0  0  0
  -25.9221  -30.8430   21.3528 C   0  0  0  0  0  0
  -26.0003  -29.4743   20.7090 C   0  0  0  0  0  0
  -27.1980  -28.7291   20.6890 C   0  0  0  0  0  0
  -26.0582  -26.9345   19.5104 C   0  0  0  0  0  0
  -24.8660  -27.6834   19.5220 C   0  0  0  0  0  0
  -23.6013  -29.8158   20.1675 C   0  0  0  0  0  0
  -25.4099  -36.3118   24.0349 C   0  0  1  0  0  0
  -20.5859  -28.3655   23.1326 C   0  0  2  0  0  0
  -20.6740  -26.9385   22.5437 C   0  0  0  0  0  0
  -19.5729  -26.6368   21.5226 C   0  0  0  0  0  0
  -18.1912  -26.7912   22.1639 C   0  0  0  0  0  0
  -19.1525  -28.8827   23.2902 C   0  0  0  0  0  0
  -18.9461  -30.1441   23.8903 C   0  0  0  0  0  0
  -17.6464  -30.6581   24.0552 C   0  0  0  0  0  0
  -25.9037  -34.9481   23.5145 C   0  0  0  0  0  0
  -16.5355  -29.9090   23.6306 C   0  0  0  0  0  0
  -16.7264  -28.6503   23.0336 C   0  0  0  0  0  0
  -26.4445  -31.6600   25.0689 C   0  0  0  0  0  0
  -25.3687  -31.3710   26.1412 C   0  0  0  0  0  0
  -27.0286  -30.3064   24.6036 C   0  0  0  0  0  0
  -27.6009  -32.4311   25.7471 C   0  0  0  0  0  0
  -27.5582  -37.1800   24.8471 C   0  0  0  0  0  0
  -21.4133  -29.3024   22.3744 N   0  0  0  0  0  0
  -26.4288  -37.3808   23.9432 N   0  0  0  0  0  0
  -24.6625  -31.0822   22.0955 N   0  0  0  0  0  0
  -23.4184  -28.8203   23.3040 O   0  0  0  0  0  0
  -28.4628  -26.8103   20.0723 O   0  0  0  0  0  0
  -26.5606  -34.8933   22.4708 O   0  0  0  0  0  0
  -23.5343  -32.1443   23.7486 O   0  0  0  0  0  0
  -29.2325  -17.5813   21.7715 C   0  0  0  0  0  0
  -30.6812  -19.5395   21.6908 C   0  0  0  0  0  0
  -31.6204  -17.3130   21.3695 C   0  0  0  0  0  0
  -29.3961  -18.9838   21.8638 C   0  0  0  0  0  0
  -30.3350  -16.7336   21.5046 C   0  0  0  0  0  0
  -31.7890  -18.7081   21.4522 C   0  0  0  0  0  0
  -28.2353  -23.2313   20.5295 C   0  0  0  0  0  0
  -28.7977  -24.4564   20.5482 C   0  0  0  0  0  0
  -28.5024  -22.2913   21.6058 C   0  0  0  0  0  0
  -28.2037  -19.8807   22.1912 C   0  0  0  0  0  0
  -28.6407  -25.5217   19.4827 C   0  0  0  0  0  0
  -30.1002  -15.3265   21.4167 N   0  0  0  0  0  0
  -28.0752  -21.0541   21.3228 N   0  0  0  0  0  0
  -29.0739  -22.5672   22.6631 O   0  0  0  0  0  0
  -33.0204  -19.2522   21.3091 F   0  0  0  0  0  0
  -31.4618  -12.3873   19.1119 H   0  0  0  0  0  0
  -30.3166  -11.2739   19.7947 H   0  0  0  0  0  0
  -29.7180  -11.7927   17.4163 H   0  0  0  0  0  0
  -29.6609  -13.5000   17.7799 H   0  0  0  0  0  0
  -27.8103  -11.3144   18.8021 H   0  0  0  0  0  0
  -27.3607  -12.6592   17.7871 H   0  0  0  0  0  0
  -27.7182  -14.2516   19.5950 H   0  0  0  0  0  0
  -28.6717  -11.9019   21.3073 H   0  0  0  0  0  0
  -28.4514  -13.5170   21.8952 H   0  0  0  0  0  0
  -25.2730   -9.5697   22.4740 H   0  0  0  0  0  0
  -23.9974   -7.4652   22.7494 H   0  0  0  0  0  0
  -21.0815   -8.8750   19.8945 H   0  0  0  0  0  0
  -22.3649  -10.9656   19.6152 H   0  0  0  0  0  0
  -21.2007   -7.6130   23.9691 H   0  0  0  0  0  0
  -21.1483   -6.0524   25.9066 H   0  0  0  0  0  0
  -22.0602   -2.7603   23.2851 H   0  0  0  0  0  0
  -22.4131  -11.9862   22.4733 H   0  0  0  0  0  0
  -21.1143  -13.1258   22.2651 H   0  0  0  0  0  0
  -24.6668  -15.8464   20.5088 H   0  0  0  0  0  0
  -26.2879  -15.6223   20.0846 H   0  0  0  0  0  0
  -26.7100  -32.5570   23.1149 H   0  0  0  0  0  0
  -24.9989  -33.9791   25.0433 H   0  0  0  0  0  0
  -22.6835  -31.3070   21.4067 H   0  0  0  0  0  0
  -23.3750  -35.9616   23.3302 H   0  0  0  0  0  0
  -24.3558  -36.8951   22.2057 H   0  0  0  0  0  0
  -23.7209  -37.6502   23.6650 H   0  0  0  0  0  0
  -26.0199  -31.6039   20.5770 H   0  0  0  0  0  0
  -26.8179  -30.9095   21.9604 H   0  0  0  0  0  0
  -28.0973  -29.1330   21.1332 H   0  0  0  0  0  0
  -26.0173  -25.9577   19.0542 H   0  0  0  0  0  0
  -23.9725  -27.2691   19.0778 H   0  0  0  0  0  0
  -23.6966  -30.5840   19.3990 H   0  0  0  0  0  0
  -22.7291  -29.2251   19.8797 H   0  0  0  0  0  0
  -25.1259  -36.1989   25.0836 H   0  0  0  0  0  0
  -20.9952  -28.3220   24.1443 H   0  0  0  0  0  0
  -20.5685  -26.2244   23.3622 H   0  0  0  0  0  0
  -21.6608  -26.7449   22.1212 H   0  0  0  0  0  0
  -19.6885  -25.6289   21.1235 H   0  0  0  0  0  0
  -19.6663  -27.3183   20.6749 H   0  0  0  0  0  0
  -17.4183  -26.6702   21.4031 H   0  0  0  0  0  0
  -18.0293  -26.0043   22.9025 H   0  0  0  0  0  0
  -19.7934  -30.7252   24.2290 H   0  0  0  0  0  0
  -17.5025  -31.6258   24.5159 H   0  0  0  0  0  0
  -15.5367  -30.2999   23.7630 H   0  0  0  0  0  0
  -15.8659  -28.0849   22.7021 H   0  0  0  0  0  0
  -24.5841  -30.7105   25.7713 H   0  0  0  0  0  0
  -24.8875  -32.2871   26.4829 H   0  0  0  0  0  0
  -25.7988  -30.8861   27.0189 H   0  0  0  0  0  0
  -26.2836  -29.6853   24.1050 H   0  0  0  0  0  0
  -27.4061  -29.7263   25.4468 H   0  0  0  0  0  0
  -27.8642  -30.4420   23.9168 H   0  0  0  0  0  0
  -27.2627  -33.3619   26.2027 H   0  0  0  0  0  0
  -28.3816  -32.6888   25.0305 H   0  0  0  0  0  0
  -28.0646  -31.8438   26.5416 H   0  0  0  0  0  0
  -28.2574  -38.0122   24.7567 H   0  0  0  0  0  0
  -28.1112  -36.2660   24.6222 H   0  0  0  0  0  0
  -27.2297  -37.1387   25.8873 H   0  0  0  0  0  0
  -20.9298  -29.8775   21.6993 H   0  0  0  0  0  0
  -26.0185  -38.2892   24.1435 H   0  0  0  0  0  0
  -28.2450  -17.1590   21.8977 H   0  0  0  0  0  0
  -30.8329  -20.6066   21.7595 H   0  0  0  0  0  0
  -32.4968  -16.7040   21.2057 H   0  0  0  0  0  0
  -27.5920  -22.9525   19.7056 H   0  0  0  0  0  0
  -29.4426  -24.7348   21.3723 H   0  0  0  0  0  0
  -28.2855  -20.1888   23.2352 H   0  0  0  0  0  0
  -27.2781  -19.3089   22.1338 H   0  0  0  0  0  0
  -27.9138  -25.2446   18.7236 H   0  0  0  0  0  0
  -29.5921  -25.5656   18.9531 H   0  0  0  0  0  0
  -29.2365  -14.9944   21.8175 H   0  0  0  0  0  0
  -27.5927  -20.9164   20.4458 H   0  0  0  0  0  0
  1 25  1  0  0  0
  1 30  2  0  0  0
  1 82  1  0  0  0
  2  3  1  0  0  0
  2 25  1  0  0  0
  2 86  1  0  0  0
  2 87  1  0  0  0
  3  4  1  0  0  0
  3 88  1  0  0  0
  3 89  1  0  0  0
  4  5  1  0  0  0
  4 90  1  0  0  0
  4 91  1  0  0  0
  5  6  1  0  0  0
  5 26  1  0  0  0
  5 92  1  0  0  0
  6 25  1  0  0  0
  6 93  1  0  0  0
  6 94  1  0  0  0
  7  8  2  0  0  0
  7 26  1  0  0  0
  7 29  1  0  0  0
  8  9  1  0  0  0
  8 22  1  0  0  0
  9 10  1  0  0  0
  9 27  2  0  0  0
 10 11  2  0  0  0
 10 15  1  0  0  0
 11 12  1  0  0  0
 11 95  1  0  0  0
 12 13  2  0  0  0
 12 96  1  0  0  0
 13 14  1  0  0  0
 13 31  1  0  0  0
 14 15  2  0  0  0
 14 97  1  0  0  0
 15 98  1  0  0  0
 16 17  2  0  0  0
 16 21  1  0  0  0
 16 31  1  0  0  0
 17 18  1  0  0  0
 17 99  1  0  0  0
 18 19  2  0  0  0
 18100  1  0  0  0
 19 20  1  0  0  0
 19 24  1  0  0  0
 20 21  2  0  0  0
 20101  1  0  0  0
 21 23  1  0  0  0
 22 28  1  0  0  0
 22 32  2  0  0  0
 26 27  1  0  0  0
 28102  1  0  0  0
 28103  1  0  0  0
 29104  1  0  0  0
 29105  1  0  0  0
 33 34  1  0  0  0
 33 66  1  0  0  0
 33 70  2  0  0  0
 34 36  1  0  0  0
 34 59  1  0  0  0
 34106  1  0  0  0
 35 44  2  0  0  0
 35 45  1  0  0  0
 35 68  1  0  0  0
 36 56  1  0  0  0
 36107  1  0  0  0
 37 39  1  0  0  0
 37 47  1  0  0  0
 37 66  1  0  0  0
 37108  1  0  0  0
 38 43  2  0  0  0
 38 46  1  0  0  0
 38 47  1  0  0  0
 39 64  1  0  0  0
 39 67  2  0  0  0
 40 52  1  0  0  0
 40 53  2  0  0  0
 40 58  1  0  0  0
 41109  1  0  0  0
 41110  1  0  0  0
 41111  1  0  0  0
 41 48  1  0  0  0
 42 43  1  0  0  0
 42 66  1  0  0  0
 42112  1  0  0  0
 42113  1  0  0  0
 43 44  1  0  0  0
 44114  1  0  0  0
 45 46  2  0  0  0
 45115  1  0  0  0
 46116  1  0  0  0
 47117  1  0  0  0
 47118  1  0  0  0
 48 56  1  0  0  0
 48 65  1  0  0  0
 48119  1  0  0  0
 49 50  1  0  0  0
 49 53  1  0  0  0
 49 64  1  0  0  0
 49120  1  0  0  0
 50 51  1  0  0  0
 50121  1  0  0  0
 50122  1  0  0  0
 51 52  1  0  0  0
 51123  1  0  0  0
 51124  1  0  0  0
 52125  1  0  0  0
 52126  1  0  0  0
 53 54  1  0  0  0
 54 55  2  0  0  0
 54127  1  0  0  0
 55 57  1  0  0  0
 55128  1  0  0  0
 56 69  2  0  0  0
 57 58  2  0  0  0
 57129  1  0  0  0
 58130  1  0  0  0
 59 60  1  0  0  0
 59 61  1  0  0  0
 59 62  1  0  0  0
 60131  1  0  0  0
 60132  1  0  0  0
 60133  1  0  0  0
 61134  1  0  0  0
 61135  1  0  0  0
 61136  1  0  0  0
 62137  1  0  0  0
 62138  1  0  0  0
 62139  1  0  0  0
 63 65  1  0  0  0
 63140  1  0  0  0
 63141  1  0  0  0
 63142  1  0  0  0
 64143  1  0  0  0
 65144  1  0  0  0
 68 81  1  0  0  0
 71 74  2  0  0  0
 71 75  1  0  0  0
 71145  1  0  0  0
 72 74  1  0  0  0
 72 76  2  0  0  0
 72146  1  0  0  0
 73 75  2  0  0  0
 73 76  1  0  0  0
 73147  1  0  0  0
 74 80  1  0  0  0
 75 82  1  0  0  0
 76 85  1  0  0  0
 77 78  2  0  0  0
 77 79  1  0  0  0
 77148  1  0  0  0
 78 81  1  0  0  0
 78149  1  0  0  0
 79 83  1  0  0  0
 79 84  2  0  0  0
 80 83  1  0  0  0
 80150  1  0  0  0
 80151  1  0  0  0
 81152  1  0  0  0
 81153  1  0  0  0
 82154  1  0  0  0
 83155  1  0  0  0
M  ISO  4   1 100  68 101  81 101  82 100
M  END
> <chiral flag>
0

> <version>
0

> <s_m_source_file>
/data/baiqing/PycharmProjects/Reinvent-master-3.2/result/LINK_invent/BTK/process_docking_weight1_custom_product_contain_oxygen_bond_distance_aromatic_linkinvent_7_9_3/rearranged_h_0056.sdf

> <i_m_source_file_index>
52

> <r_mmod_Potential_Energy-OPLS-2005>
-193.105255126953

> <r_mmod_Stretch_Energy-OPLS-2005>
34.1134300231934

> <r_mmod_Bend_Energy-OPLS-2005>
105.38899230957

> <r_mmod_Torsional_Energy-OPLS-2005>
195.1337890625

> <r_mmod_Improper_Torsional_Energy-OPLS-2005>
2.83023357391357

> <r_mmod_Van_der_Waal_Energy-OPLS-2005>
161.761428833008

> <r_mmod_Electrostatic_Energy-OPLS-2005>
-460.333557128906

> <r_mmod_Solvation_Energy-OPLS-2005>
-241.215835571289

> <b_mmod_Minimization_Converged-OPLS-2005>
0

> <r_mmod_RMS_Derivative-OPLS-2005>
2.80300712585449

$$$$
52
                    3D
 Structure written by MMmdl.
158166  0  0  1  0            999 V2000
  -30.6584  -14.5954   20.4809 C   0  0  0  0  0  0
  -30.4217  -12.3597   19.4578 C   0  0  0  0  0  0
  -29.5130  -12.5224   18.2211 C   0  0  0  0  0  0
  -28.0285  -12.3793   18.6159 C   0  0  0  0  0  0
  -27.6531  -13.2312   19.8603 C   0  0  2  0  0  0
  -28.6952  -13.0812   20.9914 C   0  0  0  0  0  0
  -25.2548  -13.8194   20.5659 C   0  0  0  0  0  0
  -24.1825  -13.0439   20.9154 C   0  0  0  0  0  0
  -24.6430  -11.6915   20.8696 C   0  0  0  0  0  0
  -23.9102  -10.4298   21.0376 C   0  0  0  0  0  0
  -24.3640   -9.4229   21.9168 C   0  0  0  0  0  0
  -23.6325   -8.2257   22.0738 C   0  0  0  0  0  0
  -22.4312   -8.0285   21.3525 C   0  0  0  0  0  0
  -21.9935   -9.0254   20.4638 C   0  0  0  0  0  0
  -22.7266  -10.2129   20.3058 C   0  0  0  0  0  0
  -21.6852   -6.0758   22.5273 C   0  0  0  0  0  0
  -21.4006   -6.5651   23.8211 C   0  0  0  0  0  0
  -21.3668   -5.6791   24.9163 C   0  0  0  0  0  0
  -21.6055   -4.3058   24.7207 C   0  0  0  0  0  0
  -21.8818   -3.8164   23.4322 C   0  0  0  0  0  0
  -21.9176   -4.6983   22.3386 C   0  0  0  0  0  0
  -22.7854  -13.5228   21.1809 C   0  0  0  0  0  0
  -22.1658   -4.2175   21.0959 F   0  0  0  0  0  0
  -21.5635   -3.4549   25.7724 F   0  0  0  0  0  0
  -30.0145  -13.3916   20.4306 N   0  0  0  0  0  0
  -26.2995  -12.9413   20.3278 N   0  0  0  0  0  0
  -25.9368  -11.6548   20.5709 N   0  0  0  0  0  0
  -22.0467  -12.8251   22.0352 N   0  0  0  0  0  0
  -25.4239  -15.1924   20.4103 N   0  0  0  0  0  0
  -31.8462  -14.6879   20.1592 O   0  0  0  0  0  0
  -21.6649   -6.8908   21.4242 O   0  0  0  0  0  0
  -22.3535  -14.5521   20.6637 O   0  0  0  0  0  0
  -24.6244  -31.8636   23.2056 C   0  0  0  0  0  0
  -25.9091  -32.4802   23.8388 C   0  0  1  0  0  0
  -27.2263  -27.3556   20.1320 C   0  0  0  0  0  0
  -25.5901  -33.8599   24.2313 N   0  0  0  0  0  0
  -23.4184  -30.4880   21.5458 C   0  0  2  0  0  0
  -24.8690  -28.9425   20.1150 C   0  0  0  0  0  0
  -22.7471  -29.4655   22.4927 C   0  0  0  0  0  0
  -18.0287  -28.1405   22.8500 C   0  0  0  0  0  0
  -24.1477  -36.7322   23.2641 C   0  0  0  0  0  0
  -25.9556  -30.8052   21.3752 C   0  0  0  0  0  0
  -26.0320  -29.4321   20.7257 C   0  0  0  0  0  0
  -27.2180  -28.6455   20.7322 C   0  0  0  0  0  0
  -26.0518  -26.9044   19.5021 C   0  0  0  0  0  0
  -24.8767  -27.6797   19.4965 C   0  0  0  0  0  0
  -23.6370  -29.8234   20.1596 C   0  0  0  0  0  0
  -25.4094  -36.3117   24.0344 C   0  0  1  0  0  0
  -20.5894  -28.3710   23.1292 C   0  0  2  0  0  0
  -20.6777  -26.9429   22.5425 C   0  0  0  0  0  0
  -19.5745  -26.6390   21.5235 C   0  0  0  0  0  0
  -18.1923  -26.7939   22.1644 C   0  0  0  0  0  0
  -19.1545  -28.8869   23.2890 C   0  0  0  0  0  0
  -18.9464  -30.1470   23.8904 C   0  0  0  0  0  0
  -17.6467  -30.6598   24.0577 C   0  0  0  0  0  0
  -25.9031  -34.9478   23.5135 C   0  0  0  0  0  0
  -16.5358  -29.9110   23.6336 C   0  0  0  0  0  0
  -16.7276  -28.6537   23.0344 C   0  0  0  0  0  0
  -26.4465  -31.6612   25.0766 C   0  0  0  0  0  0
  -25.3682  -31.3750   26.1488 C   0  0  0  0  0  0
  -27.0312  -30.3042   24.6208 C   0  0  0  0  0  0
  -27.6035  -32.4330   25.7524 C   0  0  0  0  0  0
  -27.5578  -37.1814   24.8460 C   0  0  0  0  0  0
  -21.4191  -29.3068   22.3672 N   0  0  0  0  0  0
  -26.4279  -37.3806   23.9414 N   0  0  0  0  0  0
  -24.6847  -31.0680   22.0998 N   0  0  0  0  0  0
  -23.4202  -28.8197   23.3003 O   0  0  0  0  0  0
  -28.3145  -26.4937   20.1256 O   0  0  0  0  0  0
  -26.5617  -34.8945   22.4713 O   0  0  0  0  0  0
  -23.5411  -32.1402   23.7403 O   0  0  0  0  0  0
  -30.9393  -18.4631   18.3352 C   0  0  0  0  0  0
  -30.8384  -17.2170   18.9670 C   0  0  0  0  0  0
  -29.3906  -18.2156   20.6420 C   0  0  0  0  0  0
  -29.4820  -19.5131   20.0137 C   0  0  0  0  0  0
  -30.2592  -19.5998   18.8197 C   0  0  0  0  0  0
  -30.0600  -17.0466   20.1344 C   0  0  0  0  0  0
  -28.4855  -25.6947   21.2499 C   0  0  0  0  0  0
  -28.6525  -20.7113   20.5192 C   0  0  0  0  0  0
  -28.5468  -24.3254   21.3586 C   0  0  0  0  0  0
  -30.3596  -20.8552   17.9606 C   0  0  0  0  0  0
  -28.7554  -23.7140   22.7336 C   0  0  0  0  0  0
  -28.3925  -23.2638   20.2383 C   0  0  0  0  0  0
  -29.8958  -15.7128   20.7116 N   0  0  0  0  0  0
  -29.1496  -21.9736   20.3810 N   0  0  0  0  0  0
  -27.5410  -20.5078   21.0083 O   0  0  0  0  0  0
  -31.4728  -12.4454   19.1743 H   0  0  0  0  0  0
  -30.3074  -11.3627   19.8882 H   0  0  0  0  0  0
  -29.7777  -11.7938   17.4536 H   0  0  0  0  0  0
  -29.6794  -13.5033   17.7717 H   0  0  0  0  0  0
  -27.8302  -11.3269   18.8126 H   0  0  0  0  0  0
  -27.3942  -12.6521   17.7719 H   0  0  0  0  0  0
  -27.6720  -14.2723   19.5333 H   0  0  0  0  0  0
  -28.6843  -12.0676   21.3933 H   0  0  0  0  0  0
  -28.4609  -13.7376   21.8292 H   0  0  0  0  0  0
  -25.2790   -9.5734   22.4736 H   0  0  0  0  0  0
  -24.0035   -7.4676   22.7494 H   0  0  0  0  0  0
  -21.0845   -8.8799   19.8970 H   0  0  0  0  0  0
  -22.3725  -10.9666   19.6177 H   0  0  0  0  0  0
  -21.2012   -7.6158   23.9735 H   0  0  0  0  0  0
  -21.1492   -6.0503   25.9068 H   0  0  0  0  0  0
  -22.0594   -2.7629   23.2793 H   0  0  0  0  0  0
  -22.4067  -11.9960   22.4842 H   0  0  0  0  0  0
  -21.1084  -13.1324   22.2511 H   0  0  0  0  0  0
  -24.6563  -15.8465   20.5282 H   0  0  0  0  0  0
  -26.2790  -15.6352   20.0973 H   0  0  0  0  0  0
  -26.7176  -32.5507   23.1161 H   0  0  0  0  0  0
  -24.9997  -33.9728   25.0426 H   0  0  0  0  0  0
  -22.7131  -31.3094   21.4020 H   0  0  0  0  0  0
  -23.3742  -35.9655   23.3305 H   0  0  0  0  0  0
  -24.3564  -36.8942   22.2058 H   0  0  0  0  0  0
  -23.7233  -37.6524   23.6658 H   0  0  0  0  0  0
  -26.0780  -31.5636   20.6017 H   0  0  0  0  0  0
  -26.8416  -30.8609   21.9959 H   0  0  0  0  0  0
  -28.1138  -29.0080   21.2152 H   0  0  0  0  0  0
  -26.0450  -25.9285   19.0380 H   0  0  0  0  0  0
  -23.9848  -27.2955   19.0207 H   0  0  0  0  0  0
  -23.7677  -30.6034   19.4081 H   0  0  0  0  0  0
  -22.7567  -29.2583   19.8471 H   0  0  0  0  0  0
  -25.1265  -36.1977   25.0834 H   0  0  0  0  0  0
  -20.9989  -28.3301   24.1414 H   0  0  0  0  0  0
  -20.5694  -26.2326   23.3634 H   0  0  0  0  0  0
  -21.6644  -26.7472   22.1208 H   0  0  0  0  0  0
  -19.6896  -25.6294   21.1275 H   0  0  0  0  0  0
  -19.6673  -27.3201   20.6759 H   0  0  0  0  0  0
  -17.4195  -26.6718   21.4037 H   0  0  0  0  0  0
  -18.0302  -26.0080   22.9042 H   0  0  0  0  0  0
  -19.7938  -30.7296   24.2268 H   0  0  0  0  0  0
  -17.5022  -31.6276   24.5191 H   0  0  0  0  0  0
  -15.5357  -30.3020   23.7645 H   0  0  0  0  0  0
  -15.8676  -28.0867   22.7033 H   0  0  0  0  0  0
  -24.5828  -30.7141   25.7804 H   0  0  0  0  0  0
  -24.8904  -32.2925   26.4936 H   0  0  0  0  0  0
  -25.7983  -30.8890   27.0255 H   0  0  0  0  0  0
  -26.2908  -29.6809   24.1182 H   0  0  0  0  0  0
  -27.3965  -29.7276   25.4718 H   0  0  0  0  0  0
  -27.8789  -30.4348   23.9474 H   0  0  0  0  0  0
  -27.2653  -33.3615   26.2123 H   0  0  0  0  0  0
  -28.3819  -32.6902   25.0335 H   0  0  0  0  0  0
  -28.0724  -31.8441   26.5412 H   0  0  0  0  0  0
  -28.2591  -38.0115   24.7510 H   0  0  0  0  0  0
  -28.1076  -36.2649   24.6262 H   0  0  0  0  0  0
  -27.2308  -37.1450   25.8866 H   0  0  0  0  0  0
  -20.9361  -29.8789   21.6885 H   0  0  0  0  0  0
  -26.0178  -38.2892   24.1397 H   0  0  0  0  0  0
  -31.5226  -18.5333   17.4290 H   0  0  0  0  0  0
  -31.3494  -16.3883   18.4978 H   0  0  0  0  0  0
  -28.7710  -18.1134   21.5221 H   0  0  0  0  0  0
  -28.5863  -26.3187   22.1272 H   0  0  0  0  0  0
  -30.7456  -20.6266   16.9680 H   0  0  0  0  0  0
  -31.0368  -21.5800   18.4126 H   0  0  0  0  0  0
  -29.3820  -21.3162   17.8116 H   0  0  0  0  0  0
  -28.7533  -24.4701   23.5204 H   0  0  0  0  0  0
  -29.7101  -23.1899   22.7818 H   0  0  0  0  0  0
  -27.9602  -22.9996   22.9497 H   0  0  0  0  0  0
  -28.6704  -23.7244   19.2893 H   0  0  0  0  0  0
  -27.3280  -23.0363   20.1547 H   0  0  0  0  0  0
  -29.0055  -15.5393   21.1562 H   0  0  0  0  0  0
  -30.1067  -22.0020   20.0590 H   0  0  0  0  0  0
  1 25  1  0  0  0
  1 30  2  0  0  0
  1 83  1  0  0  0
  2  3  1  0  0  0
  2 25  1  0  0  0
  2 86  1  0  0  0
  2 87  1  0  0  0
  3  4  1  0  0  0
  3 88  1  0  0  0
  3 89  1  0  0  0
  4  5  1  0  0  0
  4 90  1  0  0  0
  4 91  1  0  0  0
  5  6  1  0  0  0
  5 26  1  0  0  0
  5 92  1  0  0  0
  6 25  1  0  0  0
  6 93  1  0  0  0
  6 94  1  0  0  0
  7  8  2  0  0  0
  7 26  1  0  0  0
  7 29  1  0  0  0
  8  9  1  0  0  0
  8 22  1  0  0  0
  9 10  1  0  0  0
  9 27  2  0  0  0
 10 11  2  0  0  0
 10 15  1  0  0  0
 11 12  1  0  0  0
 11 95  1  0  0  0
 12 13  2  0  0  0
 12 96  1  0  0  0
 13 14  1  0  0  0
 13 31  1  0  0  0
 14 15  2  0  0  0
 14 97  1  0  0  0
 15 98  1  0  0  0
 16 17  2  0  0  0
 16 21  1  0  0  0
 16 31  1  0  0  0
 17 18  1  0  0  0
 17 99  1  0  0  0
 18 19  2  0  0  0
 18100  1  0  0  0
 19 20  1  0  0  0
 19 24  1  0  0  0
 20 21  2  0  0  0
 20101  1  0  0  0
 21 23  1  0  0  0
 22 28  1  0  0  0
 22 32  2  0  0  0
 26 27  1  0  0  0
 28102  1  0  0  0
 28103  1  0  0  0
 29104  1  0  0  0
 29105  1  0  0  0
 33 34  1  0  0  0
 33 66  1  0  0  0
 33 70  2  0  0  0
 34 36  1  0  0  0
 34 59  1  0  0  0
 34106  1  0  0  0
 35 44  2  0  0  0
 35 45  1  0  0  0
 35 68  1  0  0  0
 36 56  1  0  0  0
 36107  1  0  0  0
 37 39  1  0  0  0
 37 47  1  0  0  0
 37 66  1  0  0  0
 37108  1  0  0  0
 38 43  2  0  0  0
 38 46  1  0  0  0
 38 47  1  0  0  0
 39 64  1  0  0  0
 39 67  2  0  0  0
 40 52  1  0  0  0
 40 53  2  0  0  0
 40 58  1  0  0  0
 41109  1  0  0  0
 41110  1  0  0  0
 41111  1  0  0  0
 41 48  1  0  0  0
 42 43  1  0  0  0
 42 66  1  0  0  0
 42112  1  0  0  0
 42113  1  0  0  0
 43 44  1  0  0  0
 44114  1  0  0  0
 45 46  2  0  0  0
 45115  1  0  0  0
 46116  1  0  0  0
 47117  1  0  0  0
 47118  1  0  0  0
 48 56  1  0  0  0
 48 65  1  0  0  0
 48119  1  0  0  0
 49 50  1  0  0  0
 49 53  1  0  0  0
 49 64  1  0  0  0
 49120  1  0  0  0
 50 51  1  0  0  0
 50121  1  0  0  0
 50122  1  0  0  0
 51 52  1  0  0  0
 51123  1  0  0  0
 51124  1  0  0  0
 52125  1  0  0  0
 52126  1  0  0  0
 53 54  1  0  0  0
 54 55  2  0  0  0
 54127  1  0  0  0
 55 57  1  0  0  0
 55128  1  0  0  0
 56 69  2  0  0  0
 57 58  2  0  0  0
 57129  1  0  0  0
 58130  1  0  0  0
 59 60  1  0  0  0
 59 61  1  0  0  0
 59 62  1  0  0  0
 60131  1  0  0  0
 60132  1  0  0  0
 60133  1  0  0  0
 61134  1  0  0  0
 61135  1  0  0  0
 61136  1  0  0  0
 62137  1  0  0  0
 62138  1  0  0  0
 62139  1  0  0  0
 63 65  1  0  0  0
 63140  1  0  0  0
 63141  1  0  0  0
 63142  1  0  0  0
 64143  1  0  0  0
 65144  1  0  0  0
 68 77  1  0  0  0
 71 72  2  0  0  0
 71 75  1  0  0  0
 71145  1  0  0  0
 72 76  1  0  0  0
 72146  1  0  0  0
 73 74  1  0  0  0
 73 76  2  0  0  0
 73147  1  0  0  0
 74 75  2  0  0  0
 74 78  1  0  0  0
 75 80  1  0  0  0
 76 83  1  0  0  0
 77 79  2  0  0  0
 77148  1  0  0  0
 78 84  1  0  0  0
 78 85  2  0  0  0
 79 81  1  0  0  0
 79 82  1  0  0  0
 80149  1  0  0  0
 80150  1  0  0  0
 80151  1  0  0  0
 81152  1  0  0  0
 81153  1  0  0  0
 81154  1  0  0  0
 82 84  1  0  0  0
 82155  1  0  0  0
 82156  1  0  0  0
 83157  1  0  0  0
 84158  1  0  0  0
M  ISO  4   1 100  68 101  77 101  83 100
M  END
> <chiral flag>
0

> <version>
0

> <s_m_source_file>
/data/baiqing/PycharmProjects/Reinvent-master-3.2/result/LINK_invent/BTK/process_docking_weight1_custom_product_contain_oxygen_bond_distance_aromatic_linkinvent_7_9_3/rearranged_h_0056.sdf

> <i_m_source_file_index>
53

> <r_mmod_Potential_Energy-OPLS-2005>
0.211358606815338

> <r_mmod_Stretch_Energy-OPLS-2005>
67.293830871582

> <r_mmod_Bend_Energy-OPLS-2005>
127.774452209473

> <r_mmod_Torsional_Energy-OPLS-2005>
262.835052490234

> <r_mmod_Improper_Torsional_Energy-OPLS-2005>
6.7619252204895

> <r_mmod_Van_der_Waal_Energy-OPLS-2005>
151.082214355469

> <r_mmod_Electrostatic_Energy-OPLS-2005>
-437.0107421875

> <r_mmod_Solvation_Energy-OPLS-2005>
-217.29524230957

> <b_mmod_Minimization_Converged-OPLS-2005>
0

> <r_mmod_RMS_Derivative-OPLS-2005>
3.6054961681366

$$$$
53
                    3D
 Structure written by MMmdl.
164173  0  0  1  0            999 V2000
  -30.6753  -14.5387   20.5275 C   0  0  0  0  0  0
  -30.4292  -12.3324   19.4480 C   0  0  0  0  0  0
  -29.5054  -12.5085   18.2237 C   0  0  0  0  0  0
  -28.0232  -12.3693   18.6280 C   0  0  0  0  0  0
  -27.6615  -13.2053   19.8852 C   0  0  2  0  0  0
  -28.7076  -13.0237   21.0092 C   0  0  0  0  0  0
  -25.2615  -13.8152   20.5737 C   0  0  0  0  0  0
  -24.1863  -13.0444   20.9198 C   0  0  0  0  0  0
  -24.6411  -11.6908   20.8766 C   0  0  0  0  0  0
  -23.9081  -10.4307   21.0427 C   0  0  0  0  0  0
  -24.3637   -9.4232   21.9197 C   0  0  0  0  0  0
  -23.6326   -8.2264   22.0752 C   0  0  0  0  0  0
  -22.4302   -8.0302   21.3549 C   0  0  0  0  0  0
  -21.9938   -9.0274   20.4650 C   0  0  0  0  0  0
  -22.7261  -10.2159   20.3071 C   0  0  0  0  0  0
  -21.6860   -6.0765   22.5292 C   0  0  0  0  0  0
  -21.4004   -6.5650   23.8234 C   0  0  0  0  0  0
  -21.3663   -5.6795   24.9190 C   0  0  0  0  0  0
  -21.6053   -4.3069   24.7235 C   0  0  0  0  0  0
  -21.8822   -3.8170   23.4348 C   0  0  0  0  0  0
  -21.9195   -4.6984   22.3413 C   0  0  0  0  0  0
  -22.7892  -13.5260   21.1860 C   0  0  0  0  0  0
  -22.1674   -4.2193   21.0980 F   0  0  0  0  0  0
  -21.5639   -3.4537   25.7735 F   0  0  0  0  0  0
  -30.0344  -13.3353   20.4526 N   0  0  0  0  0  0
  -26.3042  -12.9299   20.3443 N   0  0  0  0  0  0
  -25.9334  -11.6463   20.5807 N   0  0  0  0  0  0
  -22.0542  -12.8239   22.0397 N   0  0  0  0  0  0
  -25.4354  -15.1877   20.4160 N   0  0  0  0  0  0
  -31.8161  -14.7088   20.0854 O   0  0  0  0  0  0
  -21.6649   -6.8910   21.4254 O   0  0  0  0  0  0
  -22.3596  -14.5591   20.6739 O   0  0  0  0  0  0
  -24.6180  -31.8660   23.2096 C   0  0  0  0  0  0
  -25.9071  -32.4807   23.8390 C   0  0  1  0  0  0
  -27.2249  -27.3875   20.1069 C   0  0  0  0  0  0
  -25.5920  -33.8610   24.2320 N   0  0  0  0  0  0
  -23.4049  -30.4916   21.5518 C   0  0  2  0  0  0
  -24.8505  -28.9574   20.1125 C   0  0  0  0  0  0
  -22.7404  -29.4651   22.4983 C   0  0  0  0  0  0
  -18.0269  -28.1379   22.8491 C   0  0  0  0  0  0
  -24.1487  -36.7292   23.2636 C   0  0  0  0  0  0
  -25.9398  -30.8154   21.3748 C   0  0  0  0  0  0
  -26.0128  -29.4496   20.7158 C   0  0  0  0  0  0
  -27.1994  -28.6721   20.7110 C   0  0  0  0  0  0
  -26.0432  -26.9330   19.4743 C   0  0  0  0  0  0
  -24.8633  -27.7003   19.4874 C   0  0  0  0  0  0
  -23.6142  -29.8299   20.1642 C   0  0  0  0  0  0
  -25.4113  -36.3098   24.0334 C   0  0  1  0  0  0
  -20.5855  -28.3667   23.1310 C   0  0  2  0  0  0
  -20.6776  -26.9407   22.5420 C   0  0  0  0  0  0
  -19.5751  -26.6391   21.5223 C   0  0  0  0  0  0
  -18.1920  -26.7927   22.1621 C   0  0  0  0  0  0
  -19.1520  -28.8840   23.2894 C   0  0  0  0  0  0
  -18.9450  -30.1449   23.8896 C   0  0  0  0  0  0
  -17.6455  -30.6589   24.0565 C   0  0  0  0  0  0
  -25.9043  -34.9469   23.5122 C   0  0  0  0  0  0
  -16.5343  -29.9086   23.6345 C   0  0  0  0  0  0
  -16.7261  -28.6509   23.0358 C   0  0  0  0  0  0
  -26.4493  -31.6601   25.0736 C   0  0  0  0  0  0
  -25.3747  -31.3727   26.1470 C   0  0  0  0  0  0
  -27.0359  -30.3032   24.6189 C   0  0  0  0  0  0
  -27.6054  -32.4341   25.7493 C   0  0  0  0  0  0
  -27.5580  -37.1804   24.8462 C   0  0  0  0  0  0
  -21.4134  -29.3028   22.3711 N   0  0  0  0  0  0
  -26.4297  -37.3790   23.9406 N   0  0  0  0  0  0
  -24.6717  -31.0727   22.1021 N   0  0  0  0  0  0
  -23.4173  -28.8207   23.3045 O   0  0  0  0  0  0
  -28.3836  -26.6185   20.1616 O   0  0  0  0  0  0
  -26.5598  -34.8911   22.4676 O   0  0  0  0  0  0
  -23.5365  -32.1440   23.7474 O   0  0  0  0  0  0
  -28.7883  -17.9608   18.3276 C   0  0  0  0  0  0
  -29.0673  -16.7802   19.0347 C   0  0  0  0  0  0
  -30.1505  -18.0886   20.7768 C   0  0  0  0  0  0
  -29.2132  -19.2124   18.8139 C   0  0  0  0  0  0
  -29.9059  -19.2978   20.0507 C   0  0  0  0  0  0
  -29.7531  -16.8159   20.2668 C   0  0  0  0  0  0
  -29.8395  -23.0392   20.1781 C   0  0  0  0  0  0
  -27.8454  -22.8594   22.2753 C   0  0  0  0  0  0
  -28.7500  -24.0955   22.2424 C   0  0  0  0  0  0
  -28.6053  -21.6007   21.8166 C   0  0  0  0  0  0
  -29.2931  -24.3527   20.8243 C   0  0  2  0  0  0
  -28.9440  -20.4321   17.9525 C   0  0  0  0  0  0
  -30.5041  -20.6437   20.5414 C   0  0  0  0  0  0
  -28.3041  -25.1810   19.9357 C   0  0  0  0  0  0
  -29.6093  -21.8208   20.7618 N   0  0  0  0  0  0
  -29.9396  -15.5811   20.9836 N   0  0  0  0  0  0
  -30.5666  -23.1551   19.1872 O   0  0  0  0  0  0
  -31.4743  -12.4306   19.1498 H   0  0  0  0  0  0
  -30.3313  -11.3257   19.8588 H   0  0  0  0  0  0
  -29.7572  -11.7759   17.4572 H   0  0  0  0  0  0
  -29.6761  -13.4882   17.7751 H   0  0  0  0  0  0
  -27.8257  -11.3132   18.8130 H   0  0  0  0  0  0
  -27.3834  -12.6523   17.7920 H   0  0  0  0  0  0
  -27.6871  -14.2478   19.5829 H   0  0  0  0  0  0
  -28.7025  -11.9975   21.3800 H   0  0  0  0  0  0
  -28.4664  -13.6509   21.8685 H   0  0  0  0  0  0
  -25.2777   -9.5731   22.4768 H   0  0  0  0  0  0
  -24.0064   -7.4643   22.7436 H   0  0  0  0  0  0
  -21.0892   -8.8807   19.8922 H   0  0  0  0  0  0
  -22.3731  -10.9718   19.6206 H   0  0  0  0  0  0
  -21.1975   -7.6156   23.9748 H   0  0  0  0  0  0
  -21.1483   -6.0523   25.9099 H   0  0  0  0  0  0
  -22.0590   -2.7629   23.2833 H   0  0  0  0  0  0
  -22.4134  -11.9861   22.4737 H   0  0  0  0  0  0
  -21.1162  -13.1275   22.2617 H   0  0  0  0  0  0
  -24.6744  -15.8470   20.5323 H   0  0  0  0  0  0
  -26.2943  -15.6307   20.1172 H   0  0  0  0  0  0
  -26.7124  -32.5497   23.1129 H   0  0  0  0  0  0
  -25.0117  -33.9783   25.0491 H   0  0  0  0  0  0
  -22.6948  -31.3104   21.4169 H   0  0  0  0  0  0
  -23.3764  -35.9609   23.3310 H   0  0  0  0  0  0
  -24.3575  -36.8900   22.2046 H   0  0  0  0  0  0
  -23.7234  -37.6493   23.6651 H   0  0  0  0  0  0
  -26.0706  -31.5895   20.6176 H   0  0  0  0  0  0
  -26.8162  -30.8522   22.0097 H   0  0  0  0  0  0
  -28.0888  -29.0450   21.1981 H   0  0  0  0  0  0
  -26.0029  -25.9852   18.9582 H   0  0  0  0  0  0
  -23.9717  -27.3221   19.0074 H   0  0  0  0  0  0
  -23.7179  -30.6096   19.4085 H   0  0  0  0  0  0
  -22.7351  -29.2548   19.8679 H   0  0  0  0  0  0
  -25.1302  -36.1958   25.0834 H   0  0  0  0  0  0
  -20.9942  -28.3248   24.1431 H   0  0  0  0  0  0
  -20.5714  -26.2271   23.3605 H   0  0  0  0  0  0
  -21.6641  -26.7476   22.1186 H   0  0  0  0  0  0
  -19.6919  -25.6311   21.1237 H   0  0  0  0  0  0
  -19.6695  -27.3211   20.6762 H   0  0  0  0  0  0
  -17.4202  -26.6684   21.4014 H   0  0  0  0  0  0
  -18.0301  -26.0061   22.9004 H   0  0  0  0  0  0
  -19.7932  -30.7270   24.2252 H   0  0  0  0  0  0
  -17.5017  -31.6272   24.5166 H   0  0  0  0  0  0
  -15.5347  -30.2990   23.7687 H   0  0  0  0  0  0
  -15.8656  -28.0839   22.7072 H   0  0  0  0  0  0
  -24.5894  -30.7114   25.7789 H   0  0  0  0  0  0
  -24.8975  -32.2896   26.4937 H   0  0  0  0  0  0
  -25.8069  -30.8859   27.0220 H   0  0  0  0  0  0
  -26.2946  -29.6753   24.1232 H   0  0  0  0  0  0
  -27.4080  -29.7317   25.4706 H   0  0  0  0  0  0
  -27.8797  -30.4322   23.9405 H   0  0  0  0  0  0
  -27.2660  -33.3623   26.2096 H   0  0  0  0  0  0
  -28.3841  -32.6936   25.0312 H   0  0  0  0  0  0
  -28.0753  -31.8468   26.5390 H   0  0  0  0  0  0
  -28.2601  -38.0098   24.7527 H   0  0  0  0  0  0
  -28.1076  -36.2638   24.6281 H   0  0  0  0  0  0
  -27.2292  -37.1438   25.8860 H   0  0  0  0  0  0
  -20.9293  -29.8714   21.6895 H   0  0  0  0  0  0
  -26.0184  -38.2863   24.1424 H   0  0  0  0  0  0
  -28.2579  -17.8946   17.3860 H   0  0  0  0  0  0
  -28.7471  -15.8436   18.6055 H   0  0  0  0  0  0
  -30.6678  -18.1384   21.7264 H   0  0  0  0  0  0
  -26.9793  -23.0210   21.6343 H   0  0  0  0  0  0
  -27.4477  -22.7050   23.2797 H   0  0  0  0  0  0
  -29.5830  -23.9465   22.9325 H   0  0  0  0  0  0
  -28.2159  -24.9751   22.6021 H   0  0  0  0  0  0
  -27.8911  -20.8524   21.4710 H   0  0  0  0  0  0
  -29.1138  -21.1668   22.6776 H   0  0  0  0  0  0
  -30.1755  -24.9838   20.9344 H   0  0  0  0  0  0
  -28.5694  -20.1486   16.9670 H   0  0  0  0  0  0
  -29.8531  -21.0118   17.7958 H   0  0  0  0  0  0
  -28.1977  -21.0698   18.4232 H   0  0  0  0  0  0
  -31.3012  -20.8966   19.8403 H   0  0  0  0  0  0
  -31.0354  -20.4604   21.4766 H   0  0  0  0  0  0
  -27.3068  -24.7968   20.1448 H   0  0  0  0  0  0
  -28.4881  -24.9976   18.8771 H   0  0  0  0  0  0
  -29.1155  -15.2681   21.4762 H   0  0  0  0  0  0
  1 25  1  0  0  0
  1 30  2  0  0  0
  1 86  1  0  0  0
  2  3  1  0  0  0
  2 25  1  0  0  0
  2 88  1  0  0  0
  2 89  1  0  0  0
  3  4  1  0  0  0
  3 90  1  0  0  0
  3 91  1  0  0  0
  4  5  1  0  0  0
  4 92  1  0  0  0
  4 93  1  0  0  0
  5  6  1  0  0  0
  5 26  1  0  0  0
  5 94  1  0  0  0
  6 25  1  0  0  0
  6 95  1  0  0  0
  6 96  1  0  0  0
  7  8  2  0  0  0
  7 26  1  0  0  0
  7 29  1  0  0  0
  8  9  1  0  0  0
  8 22  1  0  0  0
  9 10  1  0  0  0
  9 27  2  0  0  0
 10 11  2  0  0  0
 10 15  1  0  0  0
 11 12  1  0  0  0
 11 97  1  0  0  0
 12 13  2  0  0  0
 12 98  1  0  0  0
 13 14  1  0  0  0
 13 31  1  0  0  0
 14 15  2  0  0  0
 14 99  1  0  0  0
 15100  1  0  0  0
 16 17  2  0  0  0
 16 21  1  0  0  0
 16 31  1  0  0  0
 17 18  1  0  0  0
 17101  1  0  0  0
 18 19  2  0  0  0
 18102  1  0  0  0
 19 20  1  0  0  0
 19 24  1  0  0  0
 20 21  2  0  0  0
 20103  1  0  0  0
 21 23  1  0  0  0
 22 28  1  0  0  0
 22 32  2  0  0  0
 26 27  1  0  0  0
 28104  1  0  0  0
 28105  1  0  0  0
 29106  1  0  0  0
 29107  1  0  0  0
 33 34  1  0  0  0
 33 66  1  0  0  0
 33 70  2  0  0  0
 34 36  1  0  0  0
 34 59  1  0  0  0
 34108  1  0  0  0
 35 44  2  0  0  0
 35 45  1  0  0  0
 35 68  1  0  0  0
 36 56  1  0  0  0
 36109  1  0  0  0
 37 39  1  0  0  0
 37 47  1  0  0  0
 37 66  1  0  0  0
 37110  1  0  0  0
 38 43  2  0  0  0
 38 46  1  0  0  0
 38 47  1  0  0  0
 39 64  1  0  0  0
 39 67  2  0  0  0
 40 52  1  0  0  0
 40 53  2  0  0  0
 40 58  1  0  0  0
 41111  1  0  0  0
 41112  1  0  0  0
 41113  1  0  0  0
 41 48  1  0  0  0
 42 43  1  0  0  0
 42 66  1  0  0  0
 42114  1  0  0  0
 42115  1  0  0  0
 43 44  1  0  0  0
 44116  1  0  0  0
 45 46  2  0  0  0
 45117  1  0  0  0
 46118  1  0  0  0
 47119  1  0  0  0
 47120  1  0  0  0
 48 56  1  0  0  0
 48 65  1  0  0  0
 48121  1  0  0  0
 49 50  1  0  0  0
 49 53  1  0  0  0
 49 64  1  0  0  0
 49122  1  0  0  0
 50 51  1  0  0  0
 50123  1  0  0  0
 50124  1  0  0  0
 51 52  1  0  0  0
 51125  1  0  0  0
 51126  1  0  0  0
 52127  1  0  0  0
 52128  1  0  0  0
 53 54  1  0  0  0
 54 55  2  0  0  0
 54129  1  0  0  0
 55 57  1  0  0  0
 55130  1  0  0  0
 56 69  2  0  0  0
 57 58  2  0  0  0
 57131  1  0  0  0
 58132  1  0  0  0
 59 60  1  0  0  0
 59 61  1  0  0  0
 59 62  1  0  0  0
 60133  1  0  0  0
 60134  1  0  0  0
 60135  1  0  0  0
 61136  1  0  0  0
 61137  1  0  0  0
 61138  1  0  0  0
 62139  1  0  0  0
 62140  1  0  0  0
 62141  1  0  0  0
 63 65  1  0  0  0
 63142  1  0  0  0
 63143  1  0  0  0
 63144  1  0  0  0
 64145  1  0  0  0
 65146  1  0  0  0
 68 84  1  0  0  0
 71 72  2  0  0  0
 71 74  1  0  0  0
 71147  1  0  0  0
 72 76  1  0  0  0
 72148  1  0  0  0
 73 75  1  0  0  0
 73 76  2  0  0  0
 73149  1  0  0  0
 74 75  2  0  0  0
 74 82  1  0  0  0
 75 83  1  0  0  0
 76 86  1  0  0  0
 77 81  1  0  0  0
 77 85  1  0  0  0
 77 87  2  0  0  0
 78 79  1  0  0  0
 78 80  1  0  0  0
 78150  1  0  0  0
 78151  1  0  0  0
 79 81  1  0  0  0
 79152  1  0  0  0
 79153  1  0  0  0
 80 85  1  0  0  0
 80154  1  0  0  0
 80155  1  0  0  0
 81 84  1  0  0  0
 81156  1  0  0  0
 82157  1  0  0  0
 82158  1  0  0  0
 82159  1  0  0  0
 83 85  1  0  0  0
 83160  1  0  0  0
 83161  1  0  0  0
 84162  1  0  0  0
 84163  1  0  0  0
 86164  1  0  0  0
M  ISO  4   1 100  68 101  84 101  86 100
M  END
> <chiral flag>
0

> <version>
0

> <s_m_source_file>
/data/baiqing/PycharmProjects/Reinvent-master-3.2/result/LINK_invent/BTK/process_docking_weight1_custom_product_contain_oxygen_bond_distance_aromatic_linkinvent_7_9_3/rearranged_h_0056.sdf

> <i_m_source_file_index>
54

> <r_mmod_Potential_Energy-OPLS-2005>
55.5764007568359

> <r_mmod_Stretch_Energy-OPLS-2005>
55.4550437927246

> <r_mmod_Bend_Energy-OPLS-2005>
116.716972351074

> <r_mmod_Torsional_Energy-OPLS-2005>
287.849212646484

> <r_mmod_Improper_Torsional_Energy-OPLS-2005>
8.02126502990723

> <r_mmod_Van_der_Waal_Energy-OPLS-2005>
155.983337402344

> <r_mmod_Electrostatic_Energy-OPLS-2005>
-367.160919189453

> <r_mmod_Solvation_Energy-OPLS-2005>
-224.261352539062

> <b_mmod_Minimization_Converged-OPLS-2005>
0

> <r_mmod_RMS_Derivative-OPLS-2005>
3.19482016563416

$$$$
54
                    3D
 Structure written by MMmdl.
164173  0  0  1  0            999 V2000
  -30.7568  -14.4368   20.6408 C   0  0  0  0  0  0
  -30.4083  -12.3185   19.4118 C   0  0  0  0  0  0
  -29.4834  -12.5275   18.2001 C   0  0  0  0  0  0
  -28.0078  -12.3854   18.6154 C   0  0  0  0  0  0
  -27.6599  -13.2149   19.8802 C   0  0  2  0  0  0
  -28.7044  -12.9891   20.9969 C   0  0  0  0  0  0
  -25.2519  -13.8123   20.5612 C   0  0  0  0  0  0
  -24.1810  -13.0394   20.9164 C   0  0  0  0  0  0
  -24.6400  -11.6876   20.8748 C   0  0  0  0  0  0
  -23.9060  -10.4267   21.0403 C   0  0  0  0  0  0
  -24.3603   -9.4186   21.9187 C   0  0  0  0  0  0
  -23.6279   -8.2227   22.0766 C   0  0  0  0  0  0
  -22.4263   -8.0270   21.3551 C   0  0  0  0  0  0
  -21.9888   -9.0239   20.4655 C   0  0  0  0  0  0
  -22.7223  -10.2114   20.3062 C   0  0  0  0  0  0
  -21.6849   -6.0718   22.5279 C   0  0  0  0  0  0
  -21.4012   -6.5627   23.8210 C   0  0  0  0  0  0
  -21.3668   -5.6786   24.9179 C   0  0  0  0  0  0
  -21.6045   -4.3049   24.7236 C   0  0  0  0  0  0
  -21.8820   -3.8133   23.4359 C   0  0  0  0  0  0
  -21.9188   -4.6943   22.3412 C   0  0  0  0  0  0
  -22.7835  -13.5194   21.1834 C   0  0  0  0  0  0
  -22.1652   -4.2121   21.0991 F   0  0  0  0  0  0
  -21.5638   -3.4545   25.7755 F   0  0  0  0  0  0
  -30.0320  -13.2984   20.4459 N   0  0  0  0  0  0
  -26.3020  -12.9346   20.3423 N   0  0  0  0  0  0
  -25.9341  -11.6486   20.5820 N   0  0  0  0  0  0
  -22.0474  -12.8219   22.0417 N   0  0  0  0  0  0
  -25.4083  -15.1817   20.3844 N   0  0  0  0  0  0
  -31.8247  -14.6423   20.0604 O   0  0  0  0  0  0
  -21.6640   -6.8858   21.4238 O   0  0  0  0  0  0
  -22.3522  -14.5512   20.6697 O   0  0  0  0  0  0
  -24.6157  -31.8669   23.2097 C   0  0  0  0  0  0
  -25.9053  -32.4810   23.8389 C   0  0  1  0  0  0
  -27.2373  -27.4242   20.0836 C   0  0  0  0  0  0
  -25.5901  -33.8610   24.2322 N   0  0  0  0  0  0
  -23.4026  -30.4905   21.5508 C   0  0  2  0  0  0
  -24.8471  -28.9543   20.1174 C   0  0  0  0  0  0
  -22.7404  -29.4653   22.4995 C   0  0  0  0  0  0
  -18.0277  -28.1356   22.8502 C   0  0  0  0  0  0
  -24.1487  -36.7313   23.2634 C   0  0  0  0  0  0
  -25.9326  -30.8275   21.3639 C   0  0  0  0  0  0
  -26.0083  -29.4597   20.7140 C   0  0  0  0  0  0
  -27.2002  -28.6982   20.7024 C   0  0  0  0  0  0
  -26.0468  -26.9312   19.4974 C   0  0  0  0  0  0
  -24.8618  -27.6883   19.5102 C   0  0  0  0  0  0
  -23.6097  -29.8214   20.1664 C   0  0  0  0  0  0
  -25.4103  -36.3106   24.0338 C   0  0  1  0  0  0
  -20.5863  -28.3648   23.1321 C   0  0  2  0  0  0
  -20.6763  -26.9382   22.5414 C   0  0  0  0  0  0
  -19.5741  -26.6365   21.5214 C   0  0  0  0  0  0
  -18.1929  -26.7902   22.1627 C   0  0  0  0  0  0
  -19.1523  -28.8817   23.2911 C   0  0  0  0  0  0
  -18.9446  -30.1423   23.8914 C   0  0  0  0  0  0
  -17.6451  -30.6564   24.0558 C   0  0  0  0  0  0
  -25.9032  -34.9468   23.5129 C   0  0  0  0  0  0
  -16.5345  -29.9070   23.6318 C   0  0  0  0  0  0
  -16.7259  -28.6484   23.0344 C   0  0  0  0  0  0
  -26.4473  -31.6583   25.0713 C   0  0  0  0  0  0
  -25.3744  -31.3701   26.1466 C   0  0  0  0  0  0
  -27.0285  -30.3023   24.6084 C   0  0  0  0  0  0
  -27.6047  -32.4301   25.7478 C   0  0  0  0  0  0
  -27.5579  -37.1811   24.8464 C   0  0  0  0  0  0
  -21.4128  -29.3025   22.3734 N   0  0  0  0  0  0
  -26.4289  -37.3792   23.9412 N   0  0  0  0  0  0
  -24.6687  -31.0765   22.1002 N   0  0  0  0  0  0
  -23.4186  -28.8191   23.3026 O   0  0  0  0  0  0
  -28.4255  -26.7114   20.0928 O   0  0  0  0  0  0
  -26.5602  -34.8923   22.4692 O   0  0  0  0  0  0
  -23.5347  -32.1422   23.7490 O   0  0  0  0  0  0
  -27.4567  -17.6905   21.3107 C   0  0  0  0  0  0
  -28.2051  -16.5137   21.5040 C   0  0  0  0  0  0
  -29.4711  -18.8993   20.7206 C   0  0  0  0  0  0
  -28.0712  -18.8935   20.9056 C   0  0  0  0  0  0
  -30.2331  -17.7185   20.9169 C   0  0  0  0  0  0
  -29.5960  -16.4989   21.2852 C   0  0  0  0  0  0
  -27.4762  -22.4711   21.2820 C   0  0  0  0  0  0
  -27.4181  -23.8951   20.7108 C   0  0  0  0  0  0
  -28.7524  -23.1063   18.7159 C   0  0  0  0  0  0
  -28.1553  -21.7035   19.0336 C   0  0  0  0  0  0
  -28.6230  -24.1953   19.8104 C   0  0  1  0  0  0
  -31.7380  -17.7964   20.7270 C   0  0  0  0  0  0
  -27.1581  -20.1069   20.6751 C   0  0  0  0  0  0
  -28.6201  -25.6191   19.1759 C   0  0  0  0  0  0
  -27.7269  -21.4538   20.4224 N   0  0  0  0  0  0
  -30.3378  -15.3113   21.5743 N   0  0  0  0  0  0
  -27.1974  -22.2971   22.4726 O   0  0  0  0  0  0
  -31.4531  -12.4054   19.1090 H   0  0  0  0  0  0
  -30.3007  -11.3046   19.8017 H   0  0  0  0  0  0
  -29.7228  -11.8114   17.4123 H   0  0  0  0  0  0
  -29.6530  -13.5178   17.7766 H   0  0  0  0  0  0
  -27.8138  -11.3284   18.7981 H   0  0  0  0  0  0
  -27.3592  -12.6743   17.7869 H   0  0  0  0  0  0
  -27.7036  -14.2652   19.5921 H   0  0  0  0  0  0
  -28.6815  -11.9493   21.3280 H   0  0  0  0  0  0
  -28.4738  -13.5761   21.8839 H   0  0  0  0  0  0
  -25.2748   -9.5667   22.4762 H   0  0  0  0  0  0
  -23.9979   -7.4618   22.7489 H   0  0  0  0  0  0
  -21.0824   -8.8755   19.8970 H   0  0  0  0  0  0
  -22.3673  -10.9648   19.6174 H   0  0  0  0  0  0
  -21.1998   -7.6132   23.9715 H   0  0  0  0  0  0
  -21.1497   -6.0514   25.9082 H   0  0  0  0  0  0
  -22.0592   -2.7595   23.2866 H   0  0  0  0  0  0
  -22.4058  -11.9884   22.4834 H   0  0  0  0  0  0
  -21.1117  -13.1301   22.2650 H   0  0  0  0  0  0
  -24.6260  -15.8221   20.4636 H   0  0  0  0  0  0
  -26.2621  -15.6311   20.0787 H   0  0  0  0  0  0
  -26.7119  -32.5518   23.1145 H   0  0  0  0  0  0
  -25.0033  -33.9769   25.0457 H   0  0  0  0  0  0
  -22.6916  -31.3080   21.4129 H   0  0  0  0  0  0
  -23.3740  -35.9659   23.3301 H   0  0  0  0  0  0
  -24.3577  -36.8915   22.2047 H   0  0  0  0  0  0
  -23.7252  -37.6526   23.6639 H   0  0  0  0  0  0
  -26.0438  -31.5912   20.5920 H   0  0  0  0  0  0
  -26.8223  -30.8840   21.9799 H   0  0  0  0  0  0
  -28.0967  -29.0884   21.1640 H   0  0  0  0  0  0
  -26.0002  -25.9582   19.0340 H   0  0  0  0  0  0
  -23.9675  -27.2880   19.0541 H   0  0  0  0  0  0
  -23.7141  -30.5945   19.4036 H   0  0  0  0  0  0
  -22.7340  -29.2391   19.8724 H   0  0  0  0  0  0
  -25.1283  -36.1965   25.0834 H   0  0  0  0  0  0
  -20.9965  -28.3205   24.1442 H   0  0  0  0  0  0
  -20.5663  -26.2252   23.3603 H   0  0  0  0  0  0
  -21.6635  -26.7408   22.1211 H   0  0  0  0  0  0
  -19.6895  -25.6280   21.1232 H   0  0  0  0  0  0
  -19.6673  -27.3194   20.6749 H   0  0  0  0  0  0
  -17.4200  -26.6658   21.4034 H   0  0  0  0  0  0
  -18.0313  -26.0034   22.9012 H   0  0  0  0  0  0
  -19.7919  -30.7230   24.2292 H   0  0  0  0  0  0
  -17.5008  -31.6244   24.5162 H   0  0  0  0  0  0
  -15.5348  -30.2974   23.7622 H   0  0  0  0  0  0
  -15.8665  -28.0798   22.7045 H   0  0  0  0  0  0
  -24.5915  -30.7042   25.7816 H   0  0  0  0  0  0
  -24.8935  -32.2860   26.4915 H   0  0  0  0  0  0
  -25.8106  -30.8873   27.0218 H   0  0  0  0  0  0
  -26.2824  -29.6822   24.1099 H   0  0  0  0  0  0
  -27.3999  -29.7223   25.4537 H   0  0  0  0  0  0
  -27.8686  -30.4327   23.9262 H   0  0  0  0  0  0
  -27.2656  -33.3584   26.2092 H   0  0  0  0  0  0
  -28.3842  -32.6887   25.0299 H   0  0  0  0  0  0
  -28.0734  -31.8399   26.5359 H   0  0  0  0  0  0
  -28.2607  -38.0101   24.7500 H   0  0  0  0  0  0
  -28.1060  -36.2625   24.6295 H   0  0  0  0  0  0
  -27.2293  -37.1479   25.8868 H   0  0  0  0  0  0
  -20.9287  -29.8774   21.6985 H   0  0  0  0  0  0
  -26.0171  -38.2868   24.1408 H   0  0  0  0  0  0
  -26.3897  -17.6640   21.4827 H   0  0  0  0  0  0
  -27.6939  -15.6277   21.8481 H   0  0  0  0  0  0
  -29.9688  -19.8130   20.4283 H   0  0  0  0  0  0
  -27.3733  -24.6148   21.5292 H   0  0  0  0  0  0
  -26.4859  -23.9926   20.1542 H   0  0  0  0  0  0
  -28.2683  -23.4561   17.8022 H   0  0  0  0  0  0
  -29.8042  -23.0013   18.4483 H   0  0  0  0  0  0
  -28.8696  -20.9361   18.7333 H   0  0  0  0  0  0
  -27.2837  -21.5513   18.3950 H   0  0  0  0  0  0
  -29.5063  -24.1286   20.4476 H   0  0  0  0  0  0
  -32.0845  -18.8302   20.7305 H   0  0  0  0  0  0
  -32.0201  -17.3549   19.7713 H   0  0  0  0  0  0
  -32.2671  -17.2699   21.5217 H   0  0  0  0  0  0
  -26.4629  -20.1370   21.5159 H   0  0  0  0  0  0
  -26.5215  -19.8567   19.8256 H   0  0  0  0  0  0
  -27.9540  -25.6740   18.3157 H   0  0  0  0  0  0
  -29.6072  -25.7757   18.7390 H   0  0  0  0  0  0
  -31.1565  -15.5680   22.1042 H   0  0  0  0  0  0
  1 25  1  0  0  0
  1 30  2  0  0  0
  1 86  1  0  0  0
  2  3  1  0  0  0
  2 25  1  0  0  0
  2 88  1  0  0  0
  2 89  1  0  0  0
  3  4  1  0  0  0
  3 90  1  0  0  0
  3 91  1  0  0  0
  4  5  1  0  0  0
  4 92  1  0  0  0
  4 93  1  0  0  0
  5  6  1  0  0  0
  5 26  1  0  0  0
  5 94  1  0  0  0
  6 25  1  0  0  0
  6 95  1  0  0  0
  6 96  1  0  0  0
  7  8  2  0  0  0
  7 26  1  0  0  0
  7 29  1  0  0  0
  8  9  1  0  0  0
  8 22  1  0  0  0
  9 10  1  0  0  0
  9 27  2  0  0  0
 10 11  2  0  0  0
 10 15  1  0  0  0
 11 12  1  0  0  0
 11 97  1  0  0  0
 12 13  2  0  0  0
 12 98  1  0  0  0
 13 14  1  0  0  0
 13 31  1  0  0  0
 14 15  2  0  0  0
 14 99  1  0  0  0
 15100  1  0  0  0
 16 17  2  0  0  0
 16 21  1  0  0  0
 16 31  1  0  0  0
 17 18  1  0  0  0
 17101  1  0  0  0
 18 19  2  0  0  0
 18102  1  0  0  0
 19 20  1  0  0  0
 19 24  1  0  0  0
 20 21  2  0  0  0
 20103  1  0  0  0
 21 23  1  0  0  0
 22 28  1  0  0  0
 22 32  2  0  0  0
 26 27  1  0  0  0
 28104  1  0  0  0
 28105  1  0  0  0
 29106  1  0  0  0
 29107  1  0  0  0
 33 34  1  0  0  0
 33 66  1  0  0  0
 33 70  2  0  0  0
 34 36  1  0  0  0
 34 59  1  0  0  0
 34108  1  0  0  0
 35 44  2  0  0  0
 35 45  1  0  0  0
 35 68  1  0  0  0
 36 56  1  0  0  0
 36109  1  0  0  0
 37 39  1  0  0  0
 37 47  1  0  0  0
 37 66  1  0  0  0
 37110  1  0  0  0
 38 43  2  0  0  0
 38 46  1  0  0  0
 38 47  1  0  0  0
 39 64  1  0  0  0
 39 67  2  0  0  0
 40 52  1  0  0  0
 40 53  2  0  0  0
 40 58  1  0  0  0
 41111  1  0  0  0
 41112  1  0  0  0
 41113  1  0  0  0
 41 48  1  0  0  0
 42 43  1  0  0  0
 42 66  1  0  0  0
 42114  1  0  0  0
 42115  1  0  0  0
 43 44  1  0  0  0
 44116  1  0  0  0
 45 46  2  0  0  0
 45117  1  0  0  0
 46118  1  0  0  0
 47119  1  0  0  0
 47120  1  0  0  0
 48 56  1  0  0  0
 48 65  1  0  0  0
 48121  1  0  0  0
 49 50  1  0  0  0
 49 53  1  0  0  0
 49 64  1  0  0  0
 49122  1  0  0  0
 50 51  1  0  0  0
 50123  1  0  0  0
 50124  1  0  0  0
 51 52  1  0  0  0
 51125  1  0  0  0
 51126  1  0  0  0
 52127  1  0  0  0
 52128  1  0  0  0
 53 54  1  0  0  0
 54 55  2  0  0  0
 54129  1  0  0  0
 55 57  1  0  0  0
 55130  1  0  0  0
 56 69  2  0  0  0
 57 58  2  0  0  0
 57131  1  0  0  0
 58132  1  0  0  0
 59 60  1  0  0  0
 59 61  1  0  0  0
 59 62  1  0  0  0
 60133  1  0  0  0
 60134  1  0  0  0
 60135  1  0  0  0
 61136  1  0  0  0
 61137  1  0  0  0
 61138  1  0  0  0
 62139  1  0  0  0
 62140  1  0  0  0
 62141  1  0  0  0
 63 65  1  0  0  0
 63142  1  0  0  0
 63143  1  0  0  0
 63144  1  0  0  0
 64145  1  0  0  0
 65146  1  0  0  0
 68 84  1  0  0  0
 71 72  2  0  0  0
 71 74  1  0  0  0
 71147  1  0  0  0
 72 76  1  0  0  0
 72148  1  0  0  0
 73 74  2  0  0  0
 73 75  1  0  0  0
 73149  1  0  0  0
 74 83  1  0  0  0
 75 76  2  0  0  0
 75 82  1  0  0  0
 76 86  1  0  0  0
 77 78  1  0  0  0
 77 85  1  0  0  0
 77 87  2  0  0  0
 78 81  1  0  0  0
 78150  1  0  0  0
 78151  1  0  0  0
 79 80  1  0  0  0
 79 81  1  0  0  0
 79152  1  0  0  0
 79153  1  0  0  0
 80 85  1  0  0  0
 80154  1  0  0  0
 80155  1  0  0  0
 81 84  1  0  0  0
 81156  1  0  0  0
 82157  1  0  0  0
 82158  1  0  0  0
 82159  1  0  0  0
 83 85  1  0  0  0
 83160  1  0  0  0
 83161  1  0  0  0
 84162  1  0  0  0
 84163  1  0  0  0
 86164  1  0  0  0
M  ISO  4   1 100  68 101  84 101  86 100
M  END
> <chiral flag>
0

> <version>
0

> <s_m_source_file>
/data/baiqing/PycharmProjects/Reinvent-master-3.2/result/LINK_invent/BTK/process_docking_weight1_custom_product_contain_oxygen_bond_distance_aromatic_linkinvent_7_9_3/rearranged_h_0056.sdf

> <i_m_source_file_index>
55

> <r_mmod_Potential_Energy-OPLS-2005>
17.9263343811035

> <r_mmod_Stretch_Energy-OPLS-2005>
42.7345008850098

> <r_mmod_Bend_Energy-OPLS-2005>
137.033737182617

> <r_mmod_Torsional_Energy-OPLS-2005>
300.270690917969

> <r_mmod_Improper_Torsional_Energy-OPLS-2005>
10.0970602035522

> <r_mmod_Van_der_Waal_Energy-OPLS-2005>
156.465744018555

> <r_mmod_Electrostatic_Energy-OPLS-2005>
-427.259033203125

> <r_mmod_Solvation_Energy-OPLS-2005>
-212.410186767578

> <b_mmod_Minimization_Converged-OPLS-2005>
0

> <r_mmod_RMS_Derivative-OPLS-2005>
1.74563527107239

$$$$
55
                    3D
 Structure written by MMmdl.
155163  0  0  1  0            999 V2000
  -27.1365  -17.7523   21.3002 C   0  0  0  0  0  0
  -29.1392  -15.2337   19.9852 C   0  0  0  0  0  0
  -29.2404  -13.8776   18.9370 C   0  0  0  0  0  0
  -28.2712  -12.7407   19.2401 C   0  0  0  0  0  0
  -27.2820  -13.5629   20.0351 C   0  0  2  0  0  0
  -27.7086  -14.5334   21.2468 C   0  0  0  0  0  0
  -24.9873  -13.8244   20.5394 C   0  0  0  0  0  0
  -24.0081  -12.9993   20.9312 C   0  0  0  0  0  0
  -24.5546  -11.6797   20.8903 C   0  0  0  0  0  0
  -23.8739  -10.4068   21.0473 C   0  0  0  0  0  0
  -24.3475   -9.4104   21.9240 C   0  0  0  0  0  0
  -23.6230   -8.2108   22.0774 C   0  0  0  0  0  0
  -22.4214   -8.0125   21.3556 C   0  0  0  0  0  0
  -21.9778   -9.0017   20.4628 C   0  0  0  0  0  0
  -22.7007  -10.1901   20.3047 C   0  0  0  0  0  0
  -21.6827   -6.0659   22.5304 C   0  0  0  0  0  0
  -21.3970   -6.5593   23.8219 C   0  0  0  0  0  0
  -21.3629   -5.6763   24.9198 C   0  0  0  0  0  0
  -21.6044   -4.3027   24.7261 C   0  0  0  0  0  0
  -21.8827   -3.8101   23.4390 C   0  0  0  0  0  0
  -21.9192   -4.6902   22.3438 C   0  0  0  0  0  0
  -22.6248  -13.4631   21.2101 C   0  0  0  0  0  0
  -22.1676   -4.2086   21.1016 F   0  0  0  0  0  0
  -21.5635   -3.4528   25.7780 F   0  0  0  0  0  0
  -27.7466  -16.0580   20.7940 N   0  0  0  0  0  0
  -26.0614  -13.0040   20.3557 N   0  0  0  0  0  0
  -25.8497  -11.6978   20.5945 N   0  0  0  0  0  0
  -21.9230  -12.7692   22.0911 N   0  0  0  0  0  0
  -25.0358  -15.2057   20.3285 N   0  0  0  0  0  0
  -28.5061  -17.7047   21.1526 O   0  0  0  0  0  0
  -21.6597   -6.8742   21.4255 O   0  0  0  0  0  0
  -22.1944  -14.4973   20.7008 O   0  0  0  0  0  0
  -24.7336  -32.0013   23.1956 C   0  0  0  0  0  0
  -26.0055  -32.5343   23.8749 C   0  0  1  0  0  0
  -26.9072  -27.3214   20.0503 C   0  0  0  0  0  0
  -25.6784  -33.9026   24.2821 N   0  0  0  0  0  0
  -23.5535  -30.7954   21.4809 C   0  0  2  0  0  0
  -24.8588  -29.1525   20.0454 C   0  0  0  0  0  0
  -22.9893  -29.8011   22.4710 C   0  0  0  0  0  0
  -19.8431  -26.8260   22.5699 C   0  0  0  0  0  0
  -24.1495  -36.7363   23.2603 C   0  0  0  0  0  0
  -26.0938  -30.8381   21.4155 C   0  0  0  0  0  0
  -26.0351  -29.4709   20.7436 C   0  0  0  0  0  0
  -27.0827  -28.5171   20.8013 C   0  0  0  0  0  0
  -25.9013  -27.2193   19.0988 C   0  0  0  0  0  0
  -24.7819  -28.0253   19.2273 C   0  0  0  0  0  0
  -23.7544  -30.1681   20.0846 C   0  0  0  0  0  0
  -25.4149  -36.3317   24.0315 C   0  0  1  0  0  0
  -21.5927  -28.1946   22.3583 C   0  0  2  0  0  0
  -21.5485  -27.5778   20.9402 C   0  0  0  0  0  0
  -20.1723  -27.3093   20.2930 C   0  0  0  0  0  0
  -19.2338  -27.8137   21.2944 C   0  0  0  0  0  0
  -20.4812  -27.8601   22.9849 C   0  0  0  0  0  0
  -20.3993  -26.4410   22.9423 C   0  0  0  0  0  0
  -19.1405  -25.1342   23.9018 C   0  0  0  0  0  0
  -25.9285  -34.9757   23.5239 C   0  0  0  0  0  0
  -17.8831  -25.4183   24.7757 C   0  0  0  0  0  0
  -18.5856  -25.3489   23.6800 C   0  0  0  0  0  0
  -26.4729  -31.6704   25.1021 C   0  0  0  0  0  0
  -25.3742  -31.3777   26.1501 C   0  0  0  0  0  0
  -27.0392  -30.3044   24.6484 C   0  0  0  0  0  0
  -27.6262  -32.4185   25.8047 C   0  0  0  0  0  0
  -27.5601  -37.1889   24.8469 C   0  0  0  0  0  0
  -21.7113  -29.5676   22.3611 N   0  0  0  0  0  0
  -26.4317  -37.3991   23.9424 N   0  0  0  0  0  0
  -24.8229  -31.2654   22.0558 N   0  0  0  0  0  0
  -23.7128  -29.2233   23.3065 O   0  0  0  0  0  0
  -27.3334  -26.0710   20.3714 O   0  0  0  0  0  0
  -26.5558  -34.9125   22.4625 O   0  0  0  0  0  0
  -23.6386  -32.2892   23.7183 O   0  0  0  0  0  0
  -19.7002  -26.9808   25.0403 C   0  0  0  0  0  0
  -17.9394  -27.3762   23.4068 C   0  0  0  0  0  0
  -21.2659  -25.2339   24.6806 C   0  0  0  0  0  0
  -18.2772  -25.6347   21.5646 C   0  0  0  0  0  0
  -21.6195  -23.7533   23.0587 C   0  0  0  0  0  0
  -20.0937  -24.3370   21.7822 C   0  0  0  0  0  0
  -23.4604  -24.5874   20.7727 C   0  0  0  0  0  0
  -24.7294  -24.8285   20.2056 C   0  0  0  0  0  0
  -22.1757  -24.1776   20.0369 C   0  0  0  0  0  0
  -23.7451  -21.5760   22.5557 C   0  0  0  0  0  0
  -26.1509  -25.2213   20.9328 C   0  0  0  0  0  0
  -20.8451  -24.0414   20.5377 N   0  0  0  0  0  0
  -25.5063  -19.3653   21.8047 N   0  0  0  0  0  0
  -22.2675  -23.9510   18.8331 O   0  0  0  0  0  0
  -29.5203  -16.0402   19.3560 H   0  0  0  0  0  0
  -29.9647  -15.1581   20.6980 H   0  0  0  0  0  0
  -30.2664  -13.5048   18.9215 H   0  0  0  0  0  0
  -29.0534  -14.2280   17.9200 H   0  0  0  0  0  0
  -28.7235  -11.9650   19.8648 H   0  0  0  0  0  0
  -27.8403  -12.2975   18.3422 H   0  0  0  0  0  0
  -26.9715  -14.2379   19.2335 H   0  0  0  0  0  0
  -28.5285  -14.1565   21.8667 H   0  0  0  0  0  0
  -26.9410  -14.5558   22.0155 H   0  0  0  0  0  0
  -25.2584   -9.5725   22.4864 H   0  0  0  0  0  0
  -23.9950   -7.4536   22.7528 H   0  0  0  0  0  0
  -21.0701   -8.8493   19.8958 H   0  0  0  0  0  0
  -22.3416  -10.9448   19.6187 H   0  0  0  0  0  0
  -21.1922   -7.6097   23.9704 H   0  0  0  0  0  0
  -21.1439   -6.0500   25.9094 H   0  0  0  0  0  0
  -22.0630   -2.7564   23.2917 H   0  0  0  0  0  0
  -22.3019  -11.9386   22.5203 H   0  0  0  0  0  0
  -20.9915  -13.0725   22.3397 H   0  0  0  0  0  0
  -24.1949  -15.7774   20.3219 H   0  0  0  0  0  0
  -25.8511  -15.6603   19.9330 H   0  0  0  0  0  0
  -26.8447  -32.5888   23.1804 H   0  0  0  0  0  0
  -25.0783  -34.0168   25.0881 H   0  0  0  0  0  0
  -22.8715  -31.6494   21.3626 H   0  0  0  0  0  0
  -23.3846  -35.9603   23.3263 H   0  0  0  0  0  0
  -24.3619  -36.8977   22.2036 H   0  0  0  0  0  0
  -23.7148  -37.6519   23.6609 H   0  0  0  0  0  0
  -26.3528  -31.5791   20.6561 H   0  0  0  0  0  0
  -26.9346  -30.8107   22.0998 H   0  0  0  0  0  0
  -27.9065  -28.6343   21.4973 H   0  0  0  0  0  0
  -25.8714  -26.3856   18.4100 H   0  0  0  0  0  0
  -23.9066  -27.8420   18.6126 H   0  0  0  0  0  0
  -24.0928  -30.9567   19.4106 H   0  0  0  0  0  0
  -22.8281  -29.8838   19.6055 H   0  0  0  0  0  0
  -25.1284  -36.2170   25.0784 H   0  0  0  0  0  0
  -22.3376  -27.6407   22.9530 H   0  0  0  0  0  0
  -22.1766  -26.7100   20.8987 H   0  0  0  0  0  0
  -22.0746  -28.1928   20.2497 H   0  0  0  0  0  0
  -20.0581  -26.2788   19.9893 H   0  0  0  0  0  0
  -20.0529  -27.8249   19.3406 H   0  0  0  0  0  0
  -19.3205  -28.9096   21.3437 H   0  0  0  0  0  0
  -18.1974  -27.7798   20.9423 H   0  0  0  0  0  0
  -21.5124  -25.9643   22.6980 H   0  0  0  0  0  0
  -19.5870  -23.9527   24.2948 H   0  0  0  0  0  0
  -17.4482  -24.5371   25.2040 H   0  0  0  0  0  0
  -17.3547  -25.1656   23.3760 H   0  0  0  0  0  0
  -24.5849  -30.7372   25.7536 H   0  0  0  0  0  0
  -24.9025  -32.2894   26.5186 H   0  0  0  0  0  0
  -25.7847  -30.8567   27.0186 H   0  0  0  0  0  0
  -26.2986  -29.7022   24.1188 H   0  0  0  0  0  0
  -27.3659  -29.7079   25.5038 H   0  0  0  0  0  0
  -27.9137  -30.4172   24.0061 H   0  0  0  0  0  0
  -27.2933  -33.3506   26.2658 H   0  0  0  0  0  0
  -28.4197  -32.6702   25.0990 H   0  0  0  0  0  0
  -28.0788  -31.8181   26.5970 H   0  0  0  0  0  0
  -28.2588  -38.0220   24.7679 H   0  0  0  0  0  0
  -28.1140  -36.2794   24.6105 H   0  0  0  0  0  0
  -27.2349  -37.1297   25.8870 H   0  0  0  0  0  0
  -21.0616  -30.1178   21.8156 H   0  0  0  0  0  0
  -26.0202  -38.3049   24.1444 H   0  0  0  0  0  0
  -19.7600  -27.6170   25.9136 H   0  0  0  0  0  0
  -17.1801  -28.1571   23.4120 H   0  0  0  0  0  0
  -21.9468  -25.1225   25.5117 H   0  0  0  0  0  0
  -17.7097  -25.6493   20.6491 H   0  0  0  0  0  0
  -23.4497  -24.6998   21.8337 H   0  0  0  0  0  0
  -24.7795  -24.7116   19.1246 H   0  0  0  0  0  0
  -23.4413  -21.0389   23.4550 H   0  0  0  0  0  0
  -24.5723  -22.2139   22.8602 H   0  0  0  0  0  0
  -26.6002  -24.2608   21.1805 H   0  0  0  0  0  0
  -25.8797  -25.6794   21.8852 H   0  0  0  0  0  0
  -20.2253  -23.7591   19.7907 H   0  0  0  0  0  0
  -26.3015  -19.9959   21.9075 H   0  0  0  0  0  0
  1 25  1  0  0  0
  1 30  2  0  0  0
  1 83  1  0  0  0
  2  3  1  0  0  0
  2 25  1  0  0  0
  2 85  1  0  0  0
  2 86  1  0  0  0
  3  4  1  0  0  0
  3 87  1  0  0  0
  3 88  1  0  0  0
  4  5  1  0  0  0
  4 89  1  0  0  0
  4 90  1  0  0  0
  5  6  1  0  0  0
  5 26  1  0  0  0
  5 91  1  0  0  0
  6 25  1  0  0  0
  6 92  1  0  0  0
  6 93  1  0  0  0
  7  8  2  0  0  0
  7 26  1  0  0  0
  7 29  1  0  0  0
  8  9  1  0  0  0
  8 22  1  0  0  0
  9 10  1  0  0  0
  9 27  2  0  0  0
 10 11  2  0  0  0
 10 15  1  0  0  0
 11 12  1  0  0  0
 11 94  1  0  0  0
 12 13  2  0  0  0
 12 95  1  0  0  0
 13 14  1  0  0  0
 13 31  1  0  0  0
 14 15  2  0  0  0
 14 96  1  0  0  0
 15 97  1  0  0  0
 16 17  2  0  0  0
 16 21  1  0  0  0
 16 31  1  0  0  0
 17 18  1  0  0  0
 17 98  1  0  0  0
 18 19  2  0  0  0
 18 99  1  0  0  0
 19 20  1  0  0  0
 19 24  1  0  0  0
 20 21  2  0  0  0
 20100  1  0  0  0
 21 23  1  0  0  0
 22 28  1  0  0  0
 22 32  2  0  0  0
 26 27  1  0  0  0
 28101  1  0  0  0
 28102  1  0  0  0
 29103  1  0  0  0
 29104  1  0  0  0
 33 34  1  0  0  0
 33 66  1  0  0  0
 33 70  2  0  0  0
 34 36  1  0  0  0
 34 59  1  0  0  0
 34105  1  0  0  0
 35 44  2  0  0  0
 35 45  1  0  0  0
 35 68  1  0  0  0
 36 56  1  0  0  0
 36106  1  0  0  0
 37 39  1  0  0  0
 37 47  1  0  0  0
 37 66  1  0  0  0
 37107  1  0  0  0
 38 43  2  0  0  0
 38 46  1  0  0  0
 38 47  1  0  0  0
 39 64  1  0  0  0
 39 67  2  0  0  0
 40 52  1  0  0  0
 40 53  2  0  0  0
 40 58  1  0  0  0
 41108  1  0  0  0
 41109  1  0  0  0
 41110  1  0  0  0
 41 48  1  0  0  0
 42 43  1  0  0  0
 42 66  1  0  0  0
 42111  1  0  0  0
 42112  1  0  0  0
 43 44  1  0  0  0
 44113  1  0  0  0
 45 46  2  0  0  0
 45114  1  0  0  0
 46115  1  0  0  0
 47116  1  0  0  0
 47117  1  0  0  0
 48 56  1  0  0  0
 48 65  1  0  0  0
 48118  1  0  0  0
 49 50  1  0  0  0
 49 53  1  0  0  0
 49 64  1  0  0  0
 49119  1  0  0  0
 50 51  1  0  0  0
 50120  1  0  0  0
 50121  1  0  0  0
 51 52  1  0  0  0
 51122  1  0  0  0
 51123  1  0  0  0
 52124  1  0  0  0
 52125  1  0  0  0
 53 54  1  0  0  0
 54 55  2  0  0  0
 54126  1  0  0  0
 55 57  1  0  0  0
 55127  1  0  0  0
 56 69  2  0  0  0
 57 58  2  0  0  0
 57128  1  0  0  0
 58129  1  0  0  0
 59 60  1  0  0  0
 59 61  1  0  0  0
 59 62  1  0  0  0
 60130  1  0  0  0
 60131  1  0  0  0
 60132  1  0  0  0
 61133  1  0  0  0
 61134  1  0  0  0
 61135  1  0  0  0
 62136  1  0  0  0
 62137  1  0  0  0
 62138  1  0  0  0
 63 65  1  0  0  0
 63139  1  0  0  0
 63140  1  0  0  0
 63141  1  0  0  0
 64142  1  0  0  0
 65143  1  0  0  0
 68 81  1  0  0  0
 71 72  2  0  0  0
 71 73  1  0  0  0
 71144  1  0  0  0
 72 74  1  0  0  0
 72145  1  0  0  0
 73 75  2  0  0  0
 73146  1  0  0  0
 74 76  2  0  0  0
 74147  1  0  0  0
 75 76  1  0  0  0
 75 80  1  0  0  0
 76 82  1  0  0  0
 77 78  2  0  0  0
 77 79  1  0  0  0
 77148  1  0  0  0
 78 81  1  0  0  0
 78149  1  0  0  0
 79 82  1  0  0  0
 79 84  2  0  0  0
 80 83  1  0  0  0
 80150  1  0  0  0
 80151  1  0  0  0
 81152  1  0  0  0
 81153  1  0  0  0
 82154  1  0  0  0
 83155  1  0  0  0
M  ISO  4   1 100  68 101  81 101  83 100
M  END
> <chiral flag>
0

> <version>
0

> <s_m_source_file>
/data/baiqing/PycharmProjects/Reinvent-master-3.2/result/LINK_invent/BTK/process_docking_weight1_custom_product_contain_oxygen_bond_distance_aromatic_linkinvent_7_9_3/rearranged_h_0056.sdf

> <i_m_source_file_index>
56

> <r_mmod_Potential_Energy-OPLS-2005>
49878.05078125

> <r_mmod_Stretch_Energy-OPLS-2005>
22311.548828125

> <r_mmod_Bend_Energy-OPLS-2005>
3670.1953125

> <r_mmod_Torsional_Energy-OPLS-2005>
724.067443847656

> <r_mmod_Improper_Torsional_Energy-OPLS-2005>
80.5148468017578

> <r_mmod_Van_der_Waal_Energy-OPLS-2005>
5006.09326171875

> <r_mmod_Electrostatic_Energy-OPLS-2005>
-432.540344238281

> <r_mmod_Solvation_Energy-OPLS-2005>
-241.870162963867

> <b_mmod_Minimization_Converged-OPLS-2005>
0

> <r_mmod_RMS_Derivative-OPLS-2005>
25.0952053070068

$$$$
56
                    3D
 Structure written by MMmdl.
150158  0  0  1  0            999 V2000
  -30.6707  -14.5526   20.4926 C   0  0  0  0  0  0
  -30.4278  -12.3254   19.4603 C   0  0  0  0  0  0
  -29.5039  -12.4495   18.2293 C   0  0  0  0  0  0
  -28.0238  -12.3299   18.6391 C   0  0  0  0  0  0
  -27.6570  -13.2098   19.8644 C   0  0  2  0  0  0
  -28.6972  -13.0582   20.9977 C   0  0  0  0  0  0
  -25.2582  -13.8165   20.5666 C   0  0  0  0  0  0
  -24.1838  -13.0447   20.9179 C   0  0  0  0  0  0
  -24.6391  -11.6910   20.8749 C   0  0  0  0  0  0
  -23.9061  -10.4293   21.0423 C   0  0  0  0  0  0
  -24.3613   -9.4204   21.9201 C   0  0  0  0  0  0
  -23.6288   -8.2238   22.0758 C   0  0  0  0  0  0
  -22.4268   -8.0280   21.3549 C   0  0  0  0  0  0
  -21.9905   -9.0257   20.4653 C   0  0  0  0  0  0
  -22.7232  -10.2138   20.3069 C   0  0  0  0  0  0
  -21.6845   -6.0731   22.5275 C   0  0  0  0  0  0
  -21.4011   -6.5635   23.8210 C   0  0  0  0  0  0
  -21.3661   -5.6790   24.9173 C   0  0  0  0  0  0
  -21.6046   -4.3053   24.7221 C   0  0  0  0  0  0
  -21.8823   -3.8144   23.4342 C   0  0  0  0  0  0
  -21.9192   -4.6961   22.3398 C   0  0  0  0  0  0
  -22.7864  -13.5249   21.1847 C   0  0  0  0  0  0
  -22.1664   -4.2148   21.0977 F   0  0  0  0  0  0
  -21.5632   -3.4537   25.7735 F   0  0  0  0  0  0
  -30.0242  -13.3525   20.4377 N   0  0  0  0  0  0
  -26.3007  -12.9337   20.3336 N   0  0  0  0  0  0
  -25.9321  -11.6502   20.5794 N   0  0  0  0  0  0
  -22.0506  -12.8243   22.0402 N   0  0  0  0  0  0
  -25.4330  -15.1874   20.4025 N   0  0  0  0  0  0
  -31.8376  -14.6894   20.1142 O   0  0  0  0  0  0
  -21.6638   -6.8873   21.4237 O   0  0  0  0  0  0
  -22.3557  -14.5557   20.6693 O   0  0  0  0  0  0
  -24.6192  -31.8648   23.2075 C   0  0  0  0  0  0
  -25.9067  -32.4809   23.8384 C   0  0  1  0  0  0
  -27.2293  -27.3951   20.1109 C   0  0  0  0  0  0
  -25.5907  -33.8606   24.2318 N   0  0  0  0  0  0
  -23.4102  -30.4888   21.5480 C   0  0  2  0  0  0
  -24.8600  -28.9546   20.1081 C   0  0  0  0  0  0
  -22.7440  -29.4647   22.4959 C   0  0  0  0  0  0
  -18.0279  -28.1385   22.8487 C   0  0  0  0  0  0
  -24.1489  -36.7313   23.2639 C   0  0  0  0  0  0
  -25.9438  -30.8201   21.3668 C   0  0  0  0  0  0
  -26.0229  -29.4530   20.7111 C   0  0  0  0  0  0
  -27.2145  -28.6815   20.7087 C   0  0  0  0  0  0
  -26.0534  -26.9288   19.4854 C   0  0  0  0  0  0
  -24.8725  -27.6944   19.4870 C   0  0  0  0  0  0
  -23.6221  -29.8241   20.1615 C   0  0  0  0  0  0
  -25.4108  -36.3106   24.0337 C   0  0  1  0  0  0
  -20.5875  -28.3681   23.1299 C   0  0  2  0  0  0
  -20.6771  -26.9410   22.5413 C   0  0  0  0  0  0
  -19.5748  -26.6389   21.5211 C   0  0  0  0  0  0
  -18.1926  -26.7930   22.1622 C   0  0  0  0  0  0
  -19.1530  -28.8847   23.2892 C   0  0  0  0  0  0
  -18.9457  -30.1450   23.8908 C   0  0  0  0  0  0
  -17.6459  -30.6586   24.0569 C   0  0  0  0  0  0
  -25.9036  -34.9469   23.5128 C   0  0  0  0  0  0
  -16.5351  -29.9091   23.6327 C   0  0  0  0  0  0
  -16.7268  -28.6510   23.0341 C   0  0  0  0  0  0
  -26.4484  -31.6594   25.0720 C   0  0  0  0  0  0
  -25.3748  -31.3710   26.1470 C   0  0  0  0  0  0
  -27.0313  -30.3030   24.6111 C   0  0  0  0  0  0
  -27.6061  -32.4315   25.7479 C   0  0  0  0  0  0
  -27.5579  -37.1813   24.8469 C   0  0  0  0  0  0
  -21.4161  -29.3042   22.3699 N   0  0  0  0  0  0
  -26.4296  -37.3788   23.9405 N   0  0  0  0  0  0
  -24.6762  -31.0722   22.0993 N   0  0  0  0  0  0
  -23.4194  -28.8181   23.3011 O   0  0  0  0  0  0
  -28.3311  -26.5544   20.1662 O   0  0  0  0  0  0
  -26.5598  -34.8926   22.4689 O   0  0  0  0  0  0
  -23.5373  -32.1413   23.7446 O   0  0  0  0  0  0
  -28.7791  -24.1918   20.7972 C   0  0  0  0  0  0
  -29.7003  -19.2982   18.5899 C   0  0  0  0  0  0
  -29.8398  -18.0624   17.9400 C   0  0  0  0  0  0
  -29.7200  -18.1503   20.7418 C   0  0  0  0  0  0
  -29.6207  -19.3735   19.9998 C   0  0  0  0  0  0
  -29.8832  -16.8840   20.0912 C   0  0  0  0  0  0
  -29.9202  -16.8694   18.6738 C   0  0  0  0  0  0
  -29.3507  -23.0057   20.9868 C   0  0  0  0  0  0
  -28.1198  -25.3439   20.8215 C   0  0  0  0  0  0
  -29.0112  -21.8316   20.1690 C   0  0  0  0  0  0
  -29.5195  -20.6617   20.6534 N   0  0  0  0  0  0
  -29.9183  -15.6343   20.8232 N   0  0  0  0  0  0
  -28.3046  -21.8769   19.1566 O   0  0  0  0  0  0
  -29.9954  -15.7081   17.9853 F   0  0  0  0  0  0
  -31.4722  -12.4228   19.1587 H   0  0  0  0  0  0
  -30.3404  -11.3338   19.9064 H   0  0  0  0  0  0
  -29.7493  -11.6749   17.5013 H   0  0  0  0  0  0
  -29.6734  -13.3966   17.7219 H   0  0  0  0  0  0
  -27.8371  -11.2810   18.8721 H   0  0  0  0  0  0
  -27.3770  -12.5702   17.7951 H   0  0  0  0  0  0
  -27.6831  -14.2446   19.5224 H   0  0  0  0  0  0
  -28.6828  -12.0448   21.4012 H   0  0  0  0  0  0
  -28.4559  -13.7147   21.8350 H   0  0  0  0  0  0
  -25.2761   -9.5673   22.4779 H   0  0  0  0  0  0
  -24.0000   -7.4616   22.7463 H   0  0  0  0  0  0
  -21.0841   -8.8772   19.8947 H   0  0  0  0  0  0
  -22.3696  -10.9680   19.6176 H   0  0  0  0  0  0
  -21.1999   -7.6144   23.9706 H   0  0  0  0  0  0
  -21.1488   -6.0527   25.9075 H   0  0  0  0  0  0
  -22.0603   -2.7607   23.2843 H   0  0  0  0  0  0
  -22.4100  -11.9895   22.4790 H   0  0  0  0  0  0
  -21.1133  -13.1286   22.2618 H   0  0  0  0  0  0
  -24.6641  -15.8440   20.4808 H   0  0  0  0  0  0
  -26.2861  -15.6151   20.0647 H   0  0  0  0  0  0
  -26.7135  -32.5515   23.1142 H   0  0  0  0  0  0
  -25.0068  -33.9760   25.0471 H   0  0  0  0  0  0
  -22.7012  -31.3077   21.4084 H   0  0  0  0  0  0
  -23.3739  -35.9660   23.3324 H   0  0  0  0  0  0
  -24.3581  -36.8901   22.2048 H   0  0  0  0  0  0
  -23.7257  -37.6532   23.6636 H   0  0  0  0  0  0
  -26.0600  -31.5853   20.5982 H   0  0  0  0  0  0
  -26.8301  -30.8743   21.9874 H   0  0  0  0  0  0
  -28.1075  -29.0521   21.1919 H   0  0  0  0  0  0
  -26.0459  -25.9542   19.0174 H   0  0  0  0  0  0
  -23.9810  -27.3058   19.0144 H   0  0  0  0  0  0
  -23.7338  -30.6016   19.4050 H   0  0  0  0  0  0
  -22.7450  -29.2477   19.8613 H   0  0  0  0  0  0
  -25.1285  -36.1973   25.0830 H   0  0  0  0  0  0
  -20.9968  -28.3254   24.1420 H   0  0  0  0  0  0
  -20.5677  -26.2287   23.3604 H   0  0  0  0  0  0
  -21.6643  -26.7453   22.1207 H   0  0  0  0  0  0
  -19.6914  -25.6304   21.1226 H   0  0  0  0  0  0
  -19.6682  -27.3209   20.6746 H   0  0  0  0  0  0
  -17.4194  -26.6674   21.4025 H   0  0  0  0  0  0
  -18.0331  -26.0071   22.9021 H   0  0  0  0  0  0
  -19.7933  -30.7262   24.2288 H   0  0  0  0  0  0
  -17.5015  -31.6266   24.5174 H   0  0  0  0  0  0
  -15.5353  -30.2999   23.7645 H   0  0  0  0  0  0
  -15.8665  -28.0837   22.7046 H   0  0  0  0  0  0
  -24.5903  -30.7077   25.7806 H   0  0  0  0  0  0
  -24.8964  -32.2874   26.4940 H   0  0  0  0  0  0
  -25.8100  -30.8856   27.0215 H   0  0  0  0  0  0
  -26.2856  -29.6786   24.1175 H   0  0  0  0  0  0
  -27.4083  -29.7273   25.4575 H   0  0  0  0  0  0
  -27.8695  -30.4338   23.9263 H   0  0  0  0  0  0
  -27.2677  -33.3598   26.2095 H   0  0  0  0  0  0
  -28.3847  -32.6904   25.0290 H   0  0  0  0  0  0
  -28.0758  -31.8418   26.5361 H   0  0  0  0  0  0
  -28.2620  -38.0087   24.7489 H   0  0  0  0  0  0
  -28.1050  -36.2621   24.6327 H   0  0  0  0  0  0
  -27.2296  -37.1508   25.8872 H   0  0  0  0  0  0
  -20.9325  -29.8772   21.6924 H   0  0  0  0  0  0
  -26.0188  -38.2871   24.1385 H   0  0  0  0  0  0
  -29.6650  -20.1860   17.9771 H   0  0  0  0  0  0
  -29.8793  -18.0241   16.8616 H   0  0  0  0  0  0
  -29.6732  -18.1810   21.8207 H   0  0  0  0  0  0
  -30.0939  -22.8979   21.7637 H   0  0  0  0  0  0
  -27.2502  -25.4187   21.4625 H   0  0  0  0  0  0
  -29.9097  -20.7142   21.5840 H   0  0  0  0  0  0
  -29.0868  -15.4283   21.3545 H   0  0  0  0  0  0
  1 25  1  0  0  0
  1 30  2  0  0  0
  1 82  1  0  0  0
  2  3  1  0  0  0
  2 25  1  0  0  0
  2 85  1  0  0  0
  2 86  1  0  0  0
  3  4  1  0  0  0
  3 87  1  0  0  0
  3 88  1  0  0  0
  4  5  1  0  0  0
  4 89  1  0  0  0
  4 90  1  0  0  0
  5  6  1  0  0  0
  5 26  1  0  0  0
  5 91  1  0  0  0
  6 25  1  0  0  0
  6 92  1  0  0  0
  6 93  1  0  0  0
  7  8  2  0  0  0
  7 26  1  0  0  0
  7 29  1  0  0  0
  8  9  1  0  0  0
  8 22  1  0  0  0
  9 10  1  0  0  0
  9 27  2  0  0  0
 10 11  2  0  0  0
 10 15  1  0  0  0
 11 12  1  0  0  0
 11 94  1  0  0  0
 12 13  2  0  0  0
 12 95  1  0  0  0
 13 14  1  0  0  0
 13 31  1  0  0  0
 14 15  2  0  0  0
 14 96  1  0  0  0
 15 97  1  0  0  0
 16 17  2  0  0  0
 16 21  1  0  0  0
 16 31  1  0  0  0
 17 18  1  0  0  0
 17 98  1  0  0  0
 18 19  2  0  0  0
 18 99  1  0  0  0
 19 20  1  0  0  0
 19 24  1  0  0  0
 20 21  2  0  0  0
 20100  1  0  0  0
 21 23  1  0  0  0
 22 28  1  0  0  0
 22 32  2  0  0  0
 26 27  1  0  0  0
 28101  1  0  0  0
 28102  1  0  0  0
 29103  1  0  0  0
 29104  1  0  0  0
 33 34  1  0  0  0
 33 66  1  0  0  0
 33 70  2  0  0  0
 34 36  1  0  0  0
 34 59  1  0  0  0
 34105  1  0  0  0
 35 44  2  0  0  0
 35 45  1  0  0  0
 35 68  1  0  0  0
 36 56  1  0  0  0
 36106  1  0  0  0
 37 39  1  0  0  0
 37 47  1  0  0  0
 37 66  1  0  0  0
 37107  1  0  0  0
 38 43  2  0  0  0
 38 46  1  0  0  0
 38 47  1  0  0  0
 39 64  1  0  0  0
 39 67  2  0  0  0
 40 52  1  0  0  0
 40 53  2  0  0  0
 40 58  1  0  0  0
 41108  1  0  0  0
 41109  1  0  0  0
 41110  1  0  0  0
 41 48  1  0  0  0
 42 43  1  0  0  0
 42 66  1  0  0  0
 42111  1  0  0  0
 42112  1  0  0  0
 43 44  1  0  0  0
 44113  1  0  0  0
 45 46  2  0  0  0
 45114  1  0  0  0
 46115  1  0  0  0
 47116  1  0  0  0
 47117  1  0  0  0
 48 56  1  0  0  0
 48 65  1  0  0  0
 48118  1  0  0  0
 49 50  1  0  0  0
 49 53  1  0  0  0
 49 64  1  0  0  0
 49119  1  0  0  0
 50 51  1  0  0  0
 50120  1  0  0  0
 50121  1  0  0  0
 51 52  1  0  0  0
 51122  1  0  0  0
 51123  1  0  0  0
 52124  1  0  0  0
 52125  1  0  0  0
 53 54  1  0  0  0
 54 55  2  0  0  0
 54126  1  0  0  0
 55 57  1  0  0  0
 55127  1  0  0  0
 56 69  2  0  0  0
 57 58  2  0  0  0
 57128  1  0  0  0
 58129  1  0  0  0
 59 60  1  0  0  0
 59 61  1  0  0  0
 59 62  1  0  0  0
 60130  1  0  0  0
 60131  1  0  0  0
 60132  1  0  0  0
 61133  1  0  0  0
 61134  1  0  0  0
 61135  1  0  0  0
 62136  1  0  0  0
 62137  1  0  0  0
 62138  1  0  0  0
 63 65  1  0  0  0
 63139  1  0  0  0
 63140  1  0  0  0
 63141  1  0  0  0
 64142  1  0  0  0
 65143  1  0  0  0
 68 79  1  0  0  0
 71 78  2  0  0  0
 71 79  2  0  0  0
 72 73  2  0  0  0
 72 75  1  0  0  0
 72144  1  0  0  0
 73 77  1  0  0  0
 73145  1  0  0  0
 74 75  2  0  0  0
 74 76  1  0  0  0
 74146  1  0  0  0
 75 81  1  0  0  0
 76 77  2  0  0  0
 76 82  1  0  0  0
 77 84  1  0  0  0
 78 80  1  0  0  0
 78147  1  0  0  0
 79148  1  0  0  0
 80 81  1  0  0  0
 80 83  2  0  0  0
 81149  1  0  0  0
 82150  1  0  0  0
M  ISO  4   1 100  68 101  79 101  82 100
M  END
> <chiral flag>
0

> <version>
0

> <s_m_source_file>
/data/baiqing/PycharmProjects/Reinvent-master-3.2/result/LINK_invent/BTK/process_docking_weight1_custom_product_contain_oxygen_bond_distance_aromatic_linkinvent_7_9_3/rearranged_h_0056.sdf

> <i_m_source_file_index>
57

> <r_mmod_Potential_Energy-OPLS-2005>
-145.636703491211

> <r_mmod_Stretch_Energy-OPLS-2005>
50.8724250793457

> <r_mmod_Bend_Energy-OPLS-2005>
102.654113769531

> <r_mmod_Torsional_Energy-OPLS-2005>
174.113357543945

> <r_mmod_Improper_Torsional_Energy-OPLS-2005>
6.01762819290161

> <r_mmod_Van_der_Waal_Energy-OPLS-2005>
157.374298095703

> <r_mmod_Electrostatic_Energy-OPLS-2005>
-433.427307128906

> <r_mmod_Solvation_Energy-OPLS-2005>
-232.456558227539

> <b_mmod_Minimization_Converged-OPLS-2005>
0

> <r_mmod_RMS_Derivative-OPLS-2005>
1.0164361000061

$$$$
57
                    3D
 Structure written by MMmdl.
166175  0  0  1  0            999 V2000
  -30.5567  -14.7879   20.3725 C   0  0  0  0  0  0
  -30.4305  -12.4511   19.5093 C   0  0  0  0  0  0
  -29.5161  -12.4160   18.2660 C   0  0  0  0  0  0
  -28.0279  -12.3237   18.6569 C   0  0  0  0  0  0
  -27.6385  -13.2225   19.8683 C   0  0  2  0  0  0
  -28.6824  -13.1682   20.9994 C   0  0  0  0  0  0
  -25.2492  -13.8205   20.5819 C   0  0  0  0  0  0
  -24.1794  -13.0459   20.9279 C   0  0  0  0  0  0
  -24.6342  -11.6950   20.8822 C   0  0  0  0  0  0
  -23.8996  -10.4346   21.0427 C   0  0  0  0  0  0
  -24.3599   -9.4259   21.9182 C   0  0  0  0  0  0
  -23.6315   -8.2291   22.0738 C   0  0  0  0  0  0
  -22.4309   -8.0315   21.3508 C   0  0  0  0  0  0
  -21.9927   -9.0249   20.4632 C   0  0  0  0  0  0
  -22.7182  -10.2147   20.3067 C   0  0  0  0  0  0
  -21.6903   -6.0788   22.5292 C   0  0  0  0  0  0
  -21.4090   -6.5684   23.8224 C   0  0  0  0  0  0
  -21.3625   -5.6814   24.9162 C   0  0  0  0  0  0
  -21.5990   -4.3074   24.7165 C   0  0  0  0  0  0
  -21.8849   -3.8191   23.4286 C   0  0  0  0  0  0
  -21.9236   -4.7048   22.3372 C   0  0  0  0  0  0
  -22.7819  -13.5245   21.1889 C   0  0  0  0  0  0
  -22.1713   -4.2264   21.0942 F   0  0  0  0  0  0
  -21.5532   -3.4501   25.7618 F   0  0  0  0  0  0
  -29.9744  -13.5351   20.4037 N   0  0  0  0  0  0
  -26.2894  -12.9389   20.3417 N   0  0  0  0  0  0
  -25.9279  -11.6534   20.5933 N   0  0  0  0  0  0
  -22.0468  -12.8216   22.0414 N   0  0  0  0  0  0
  -25.4167  -15.1955   20.4389 N   0  0  0  0  0  0
  -31.7360  -14.9025   20.0265 O   0  0  0  0  0  0
  -21.6671   -6.8934   21.4253 O   0  0  0  0  0  0
  -22.3503  -14.5478   20.6649 O   0  0  0  0  0  0
  -24.6282  -31.8575   23.2014 C   0  0  0  0  0  0
  -25.9147  -32.4740   23.8299 C   0  0  1  0  0  0
  -27.2204  -27.3050   20.0846 C   0  0  0  0  0  0
  -25.5981  -33.8541   24.2225 N   0  0  0  0  0  0
  -23.4187  -30.4792   21.5498 C   0  0  2  0  0  0
  -24.8603  -28.9333   20.1108 C   0  0  0  0  0  0
  -22.7496  -29.4588   22.5009 C   0  0  0  0  0  0
  -18.0271  -28.1383   22.8491 C   0  0  0  0  0  0
  -24.1481  -36.7278   23.2629 C   0  0  0  0  0  0
  -25.9626  -30.7787   21.3756 C   0  0  0  0  0  0
  -26.0330  -29.4063   20.7133 C   0  0  0  0  0  0
  -27.2148  -28.6035   20.6931 C   0  0  0  0  0  0
  -26.0223  -26.8968   19.4529 C   0  0  0  0  0  0
  -24.8584  -27.6845   19.4738 C   0  0  0  0  0  0
  -23.6312  -29.8149   20.1650 C   0  0  0  0  0  0
  -25.4117  -36.3054   24.0304 C   0  0  1  0  0  0
  -20.5871  -28.3669   23.1337 C   0  0  2  0  0  0
  -20.6767  -26.9410   22.5449 C   0  0  0  0  0  0
  -19.5754  -26.6381   21.5244 C   0  0  0  0  0  0
  -18.1924  -26.7933   22.1622 C   0  0  0  0  0  0
  -19.1526  -28.8850   23.2891 C   0  0  0  0  0  0
  -18.9446  -30.1473   23.8872 C   0  0  0  0  0  0
  -17.6442  -30.6590   24.0575 C   0  0  0  0  0  0
  -25.9080  -34.9430   23.5058 C   0  0  0  0  0  0
  -16.5334  -29.9089   23.6346 C   0  0  0  0  0  0
  -16.7257  -28.6517   23.0342 C   0  0  0  0  0  0
  -26.4526  -31.6562   25.0681 C   0  0  0  0  0  0
  -25.3754  -31.3757   26.1416 C   0  0  0  0  0  0
  -27.0350  -30.2956   24.6180 C   0  0  0  0  0  0
  -27.6068  -32.4323   25.7456 C   0  0  0  0  0  0
  -27.5605  -37.1760   24.8446 C   0  0  0  0  0  0
  -21.4213  -29.3009   22.3758 N   0  0  0  0  0  0
  -26.4277  -37.3784   23.9448 N   0  0  0  0  0  0
  -24.6879  -31.0565   22.0973 N   0  0  0  0  0  0
  -23.4230  -28.8176   23.3118 O   0  0  0  0  0  0
  -28.3399  -26.4479   20.1140 O   0  0  0  0  0  0
  -26.5669  -34.8918   22.4638 O   0  0  0  0  0  0
  -23.5451  -32.1382   23.7372 O   0  0  0  0  0  0
  -28.8570  -18.4558   17.8965 C   0  0  0  0  0  0
  -28.8500  -19.6792   18.5777 C   0  0  0  0  0  0
  -29.2376  -17.2522   18.5230 C   0  0  0  0  0  0
  -29.6558  -18.5265   20.5722 C   0  0  0  0  0  0
  -29.2368  -19.7889   19.9308 C   0  0  0  0  0  0
  -29.6216  -17.2246   19.8967 C   0  0  0  0  0  0
  -28.9099  -22.6253   22.4286 C   0  0  0  0  0  0
  -29.2087  -23.7882   21.7986 C   0  0  0  0  0  0
  -28.6006  -21.3537   21.7659 C   0  0  0  0  0  0
  -30.0293  -25.0162   23.8212 C   0  0  0  0  0  0
  -29.5911  -24.9843   22.5515 C   0  0  0  0  0  0
  -29.0676  -22.4059   19.6440 C   0  0  0  0  0  0
  -29.2079  -23.8772   20.2813 C   0  0  1  0  0  0
  -29.1659  -16.0106   17.6537 C   0  0  0  0  0  0
  -30.2132  -18.5573   21.9891 C   0  0  0  0  0  0
  -28.1898  -25.0061   19.7479 C   0  0  0  0  0  0
  -29.1337  -21.1679   20.5247 N   0  0  0  0  0  0
  -29.7511  -15.9007   20.5915 N   0  0  0  0  0  0
  -27.8927  -20.5043   22.3096 O   0  0  0  0  0  0
  -31.4662  -12.5763   19.1923 H   0  0  0  0  0  0
  -30.4014  -11.5079   20.0537 H   0  0  0  0  0  0
  -29.7783  -11.5503   17.6583 H   0  0  0  0  0  0
  -29.6840  -13.2836   17.6355 H   0  0  0  0  0  0
  -27.8517  -11.2769   18.9076 H   0  0  0  0  0  0
  -27.3961  -12.5410   17.7938 H   0  0  0  0  0  0
  -27.6333  -14.2532   19.5194 H   0  0  0  0  0  0
  -28.7184  -12.1699   21.4410 H   0  0  0  0  0  0
  -28.4127  -13.8523   21.8054 H   0  0  0  0  0  0
  -25.2757   -9.5792   22.4703 H   0  0  0  0  0  0
  -24.0087   -7.4704   22.7436 H   0  0  0  0  0  0
  -21.0865   -8.8653   19.8947 H   0  0  0  0  0  0
  -22.3560  -10.9638   19.6160 H   0  0  0  0  0  0
  -21.2139   -7.6214   23.9728 H   0  0  0  0  0  0
  -21.1414   -6.0550   25.9047 H   0  0  0  0  0  0
  -22.0664   -2.7678   23.2688 H   0  0  0  0  0  0
  -22.4185  -11.9889   22.4757 H   0  0  0  0  0  0
  -21.1054  -13.1181   22.2564 H   0  0  0  0  0  0
  -24.6771  -15.8420   20.6906 H   0  0  0  0  0  0
  -26.2536  -15.6561   20.1063 H   0  0  0  0  0  0
  -26.7206  -32.5375   23.1030 H   0  0  0  0  0  0
  -25.0096  -33.9660   25.0342 H   0  0  0  0  0  0
  -22.7059  -31.2944   21.4087 H   0  0  0  0  0  0
  -23.3764  -35.9582   23.3198 H   0  0  0  0  0  0
  -24.3610  -36.9016   22.2072 H   0  0  0  0  0  0
  -23.7170  -37.6413   23.6729 H   0  0  0  0  0  0
  -26.0972  -31.5406   20.6067 H   0  0  0  0  0  0
  -26.8404  -30.8248   22.0073 H   0  0  0  0  0  0
  -28.1123  -28.9732   21.1695 H   0  0  0  0  0  0
  -25.9460  -25.9545   18.9296 H   0  0  0  0  0  0
  -23.9635  -27.3158   18.9915 H   0  0  0  0  0  0
  -23.7473  -30.5863   19.4023 H   0  0  0  0  0  0
  -22.7489  -29.2417   19.8757 H   0  0  0  0  0  0
  -25.1277  -36.1872   25.0788 H   0  0  0  0  0  0
  -20.9898  -28.3210   24.1483 H   0  0  0  0  0  0
  -20.5704  -26.2270   23.3633 H   0  0  0  0  0  0
  -21.6634  -26.7508   22.1215 H   0  0  0  0  0  0
  -19.6935  -25.6301   21.1258 H   0  0  0  0  0  0
  -19.6700  -27.3191   20.6781 H   0  0  0  0  0  0
  -17.4237  -26.6727   21.3991 H   0  0  0  0  0  0
  -18.0292  -26.0063   22.8987 H   0  0  0  0  0  0
  -19.7925  -30.7325   24.2189 H   0  0  0  0  0  0
  -17.4993  -31.6254   24.5206 H   0  0  0  0  0  0
  -15.5332  -30.2982   23.7680 H   0  0  0  0  0  0
  -15.8657  -28.0844   22.7028 H   0  0  0  0  0  0
  -24.5909  -30.7123   25.7769 H   0  0  0  0  0  0
  -24.8969  -32.2948   26.4800 H   0  0  0  0  0  0
  -25.8070  -30.8958   27.0204 H   0  0  0  0  0  0
  -26.2914  -29.6696   24.1235 H   0  0  0  0  0  0
  -27.4037  -29.7244   25.4708 H   0  0  0  0  0  0
  -27.8789  -30.4172   23.9389 H   0  0  0  0  0  0
  -27.2631  -33.3594   26.2059 H   0  0  0  0  0  0
  -28.3863  -32.6958   25.0291 H   0  0  0  0  0  0
  -28.0759  -31.8445   26.5357 H   0  0  0  0  0  0
  -28.2532  -38.0144   24.7644 H   0  0  0  0  0  0
  -28.1182  -36.2700   24.6046 H   0  0  0  0  0  0
  -27.2386  -37.1145   25.8855 H   0  0  0  0  0  0
  -20.9433  -29.8672   21.6893 H   0  0  0  0  0  0
  -26.0127  -38.2822   24.1557 H   0  0  0  0  0  0
  -28.5099  -18.4477   16.8709 H   0  0  0  0  0  0
  -28.5133  -20.5386   18.0163 H   0  0  0  0  0  0
  -28.9050  -22.5870   23.5071 H   0  0  0  0  0  0
  -30.2918  -25.9597   24.2847 H   0  0  0  0  0  0
  -30.1395  -24.1246   24.4173 H   0  0  0  0  0  0
  -29.5385  -25.9425   22.0575 H   0  0  0  0  0  0
  -29.8086  -22.2984   18.8473 H   0  0  0  0  0  0
  -28.0924  -22.3596   19.1586 H   0  0  0  0  0  0
  -30.2042  -24.2356   20.0102 H   0  0  0  0  0  0
  -29.0682  -16.2647   16.5943 H   0  0  0  0  0  0
  -28.2963  -15.4122   17.9128 H   0  0  0  0  0  0
  -30.0771  -15.4233   17.7473 H   0  0  0  0  0  0
  -30.8497  -19.4344   22.1188 H   0  0  0  0  0  0
  -30.8395  -17.6847   22.1731 H   0  0  0  0  0  0
  -29.4316  -18.5554   22.7499 H   0  0  0  0  0  0
  -27.2061  -24.6484   20.0491 H   0  0  0  0  0  0
  -28.1994  -24.9784   18.6567 H   0  0  0  0  0  0
  -28.9123  -15.6526   21.0914 H   0  0  0  0  0  0
  1 25  1  0  0  0
  1 30  2  0  0  0
  1 88  1  0  0  0
  2  3  1  0  0  0
  2 25  1  0  0  0
  2 90  1  0  0  0
  2 91  1  0  0  0
  3  4  1  0  0  0
  3 92  1  0  0  0
  3 93  1  0  0  0
  4  5  1  0  0  0
  4 94  1  0  0  0
  4 95  1  0  0  0
  5  6  1  0  0  0
  5 26  1  0  0  0
  5 96  1  0  0  0
  6 25  1  0  0  0
  6 97  1  0  0  0
  6 98  1  0  0  0
  7  8  2  0  0  0
  7 26  1  0  0  0
  7 29  1  0  0  0
  8  9  1  0  0  0
  8 22  1  0  0  0
  9 10  1  0  0  0
  9 27  2  0  0  0
 10 11  2  0  0  0
 10 15  1  0  0  0
 11 12  1  0  0  0
 11 99  1  0  0  0
 12 13  2  0  0  0
 12100  1  0  0  0
 13 14  1  0  0  0
 13 31  1  0  0  0
 14 15  2  0  0  0
 14101  1  0  0  0
 15102  1  0  0  0
 16 17  2  0  0  0
 16 21  1  0  0  0
 16 31  1  0  0  0
 17 18  1  0  0  0
 17103  1  0  0  0
 18 19  2  0  0  0
 18104  1  0  0  0
 19 20  1  0  0  0
 19 24  1  0  0  0
 20 21  2  0  0  0
 20105  1  0  0  0
 21 23  1  0  0  0
 22 28  1  0  0  0
 22 32  2  0  0  0
 26 27  1  0  0  0
 28106  1  0  0  0
 28107  1  0  0  0
 29108  1  0  0  0
 29109  1  0  0  0
 33 34  1  0  0  0
 33 66  1  0  0  0
 33 70  2  0  0  0
 34 36  1  0  0  0
 34 59  1  0  0  0
 34110  1  0  0  0
 35 44  2  0  0  0
 35 45  1  0  0  0
 35 68  1  0  0  0
 36 56  1  0  0  0
 36111  1  0  0  0
 37 39  1  0  0  0
 37 47  1  0  0  0
 37 66  1  0  0  0
 37112  1  0  0  0
 38 43  2  0  0  0
 38 46  1  0  0  0
 38 47  1  0  0  0
 39 64  1  0  0  0
 39 67  2  0  0  0
 40 52  1  0  0  0
 40 53  2  0  0  0
 40 58  1  0  0  0
 41113  1  0  0  0
 41114  1  0  0  0
 41115  1  0  0  0
 41 48  1  0  0  0
 42 43  1  0  0  0
 42 66  1  0  0  0
 42116  1  0  0  0
 42117  1  0  0  0
 43 44  1  0  0  0
 44118  1  0  0  0
 45 46  2  0  0  0
 45119  1  0  0  0
 46120  1  0  0  0
 47121  1  0  0  0
 47122  1  0  0  0
 48 56  1  0  0  0
 48 65  1  0  0  0
 48123  1  0  0  0
 49 50  1  0  0  0
 49 53  1  0  0  0
 49 64  1  0  0  0
 49124  1  0  0  0
 50 51  1  0  0  0
 50125  1  0  0  0
 50126  1  0  0  0
 51 52  1  0  0  0
 51127  1  0  0  0
 51128  1  0  0  0
 52129  1  0  0  0
 52130  1  0  0  0
 53 54  1  0  0  0
 54 55  2  0  0  0
 54131  1  0  0  0
 55 57  1  0  0  0
 55132  1  0  0  0
 56 69  2  0  0  0
 57 58  2  0  0  0
 57133  1  0  0  0
 58134  1  0  0  0
 59 60  1  0  0  0
 59 61  1  0  0  0
 59 62  1  0  0  0
 60135  1  0  0  0
 60136  1  0  0  0
 60137  1  0  0  0
 61138  1  0  0  0
 61139  1  0  0  0
 61140  1  0  0  0
 62141  1  0  0  0
 62142  1  0  0  0
 62143  1  0  0  0
 63 65  1  0  0  0
 63144  1  0  0  0
 63145  1  0  0  0
 63146  1  0  0  0
 64147  1  0  0  0
 65148  1  0  0  0
 68 86  1  0  0  0
 71 72  2  0  0  0
 71 73  1  0  0  0
 71149  1  0  0  0
 72 75  1  0  0  0
 72150  1  0  0  0
 73 76  2  0  0  0
 73 84  1  0  0  0
 74 75  2  0  0  0
 74 76  1  0  0  0
 74 85  1  0  0  0
 75 87  1  0  0  0
 76 88  1  0  0  0
 77 78  2  0  0  0
 77 79  1  0  0  0
 77151  1  0  0  0
 78 81  1  0  0  0
 78 83  1  0  0  0
 79 87  1  0  0  0
 79 89  2  0  0  0
 80 81  2  0  0  0
 80152  1  0  0  0
 80153  1  0  0  0
 81154  1  0  0  0
 82 83  1  0  0  0
 82 87  1  0  0  0
 82155  1  0  0  0
 82156  1  0  0  0
 83 86  1  0  0  0
 83157  1  0  0  0
 84158  1  0  0  0
 84159  1  0  0  0
 84160  1  0  0  0
 85161  1  0  0  0
 85162  1  0  0  0
 85163  1  0  0  0
 86164  1  0  0  0
 86165  1  0  0  0
 88166  1  0  0  0
M  ISO  4   1 100  68 101  86 101  88 100
M  END
> <chiral flag>
0

> <version>
0

> <s_m_source_file>
/data/baiqing/PycharmProjects/Reinvent-master-3.2/result/LINK_invent/BTK/process_docking_weight1_custom_product_contain_oxygen_bond_distance_aromatic_linkinvent_7_9_3/rearranged_h_0056.sdf

> <i_m_source_file_index>
58

> <r_mmod_Potential_Energy-OPLS-2005>
321.649261474609

> <r_mmod_Stretch_Energy-OPLS-2005>
135.179183959961

> <r_mmod_Bend_Energy-OPLS-2005>
184.84619140625

> <r_mmod_Torsional_Energy-OPLS-2005>
335.630767822266

> <r_mmod_Improper_Torsional_Energy-OPLS-2005>
6.92590284347534

> <r_mmod_Van_der_Waal_Energy-OPLS-2005>
169.045486450195

> <r_mmod_Electrostatic_Energy-OPLS-2005>
-383.560516357422

> <r_mmod_Solvation_Energy-OPLS-2005>
-215.514099121094

> <b_mmod_Minimization_Converged-OPLS-2005>
0

> <r_mmod_RMS_Derivative-OPLS-2005>
6.61482620239258

$$$$
58
                    3D
 Structure written by MMmdl.
159167  0  0  1  0            999 V2000
  -30.6981  -14.4443   20.6071 C   0  0  0  0  0  0
  -30.4309  -12.3099   19.3957 C   0  0  0  0  0  0
  -29.4903  -12.4991   18.1905 C   0  0  0  0  0  0
  -28.0144  -12.3503   18.6143 C   0  0  0  0  0  0
  -27.6617  -13.1961   19.8678 C   0  0  2  0  0  0
  -28.7045  -12.9599   20.9820 C   0  0  0  0  0  0
  -25.2626  -13.8130   20.5662 C   0  0  0  0  0  0
  -24.1876  -13.0430   20.9190 C   0  0  0  0  0  0
  -24.6413  -11.6895   20.8761 C   0  0  0  0  0  0
  -23.9071  -10.4299   21.0427 C   0  0  0  0  0  0
  -24.3629   -9.4207   21.9197 C   0  0  0  0  0  0
  -23.6308   -8.2241   22.0756 C   0  0  0  0  0  0
  -22.4289   -8.0281   21.3537 C   0  0  0  0  0  0
  -21.9926   -9.0270   20.4649 C   0  0  0  0  0  0
  -22.7257  -10.2143   20.3064 C   0  0  0  0  0  0
  -21.6852   -6.0745   22.5288 C   0  0  0  0  0  0
  -21.4000   -6.5640   23.8220 C   0  0  0  0  0  0
  -21.3659   -5.6791   24.9182 C   0  0  0  0  0  0
  -21.6051   -4.3060   24.7233 C   0  0  0  0  0  0
  -21.8815   -3.8152   23.4356 C   0  0  0  0  0  0
  -21.9197   -4.6976   22.3406 C   0  0  0  0  0  0
  -22.7893  -13.5241   21.1875 C   0  0  0  0  0  0
  -22.1660   -4.2162   21.0989 F   0  0  0  0  0  0
  -21.5651   -3.4539   25.7746 F   0  0  0  0  0  0
  -30.0277  -13.2799   20.4205 N   0  0  0  0  0  0
  -26.3043  -12.9281   20.3331 N   0  0  0  0  0  0
  -25.9333  -11.6458   20.5771 N   0  0  0  0  0  0
  -22.0526  -12.8219   22.0406 N   0  0  0  0  0  0
  -25.4385  -15.1846   20.4065 N   0  0  0  0  0  0
  -31.8250  -14.6620   20.1503 O   0  0  0  0  0  0
  -21.6630   -6.8894   21.4248 O   0  0  0  0  0  0
  -22.3593  -14.5576   20.6763 O   0  0  0  0  0  0
  -24.6142  -31.8698   23.2127 C   0  0  0  0  0  0
  -25.9041  -32.4837   23.8413 C   0  0  1  0  0  0
  -27.2255  -27.4389   20.0801 C   0  0  0  0  0  0
  -25.5899  -33.8639   24.2341 N   0  0  0  0  0  0
  -23.4004  -30.4965   21.5529 C   0  0  2  0  0  0
  -24.8425  -28.9650   20.1189 C   0  0  0  0  0  0
  -22.7421  -29.4672   22.4984 C   0  0  0  0  0  0
  -18.0304  -28.1333   22.8504 C   0  0  0  0  0  0
  -24.1499  -36.7315   23.2635 C   0  0  0  0  0  0
  -25.9321  -30.8334   21.3680 C   0  0  0  0  0  0
  -26.0054  -29.4685   20.7151 C   0  0  0  0  0  0
  -27.1983  -28.7109   20.6983 C   0  0  0  0  0  0
  -26.0374  -26.9521   19.4799 C   0  0  0  0  0  0
  -24.8519  -27.7036   19.5046 C   0  0  0  0  0  0
  -23.6096  -29.8350   20.1660 C   0  0  0  0  0  0
  -25.4123  -36.3115   24.0327 C   0  0  1  0  0  0
  -20.5890  -28.3637   23.1312 C   0  0  2  0  0  0
  -20.6780  -26.9380   22.5400 C   0  0  0  0  0  0
  -19.5755  -26.6363   21.5200 C   0  0  0  0  0  0
  -18.1944  -26.7896   22.1621 C   0  0  0  0  0  0
  -19.1547  -28.8802   23.2917 C   0  0  0  0  0  0
  -18.9466  -30.1396   23.8935 C   0  0  0  0  0  0
  -17.6469  -30.6534   24.0579 C   0  0  0  0  0  0
  -25.9038  -34.9482   23.5126 C   0  0  0  0  0  0
  -16.5370  -29.9051   23.6322 C   0  0  0  0  0  0
  -16.7292  -28.6460   23.0345 C   0  0  0  0  0  0
  -26.4462  -31.6608   25.0736 C   0  0  0  0  0  0
  -25.3732  -31.3701   26.1484 C   0  0  0  0  0  0
  -27.0289  -30.3063   24.6075 C   0  0  0  0  0  0
  -27.6041  -32.4329   25.7487 C   0  0  0  0  0  0
  -27.5589  -37.1816   24.8462 C   0  0  0  0  0  0
  -21.4155  -29.3035   22.3732 N   0  0  0  0  0  0
  -26.4312  -37.3797   23.9390 N   0  0  0  0  0  0
  -24.6669  -31.0814   22.1021 N   0  0  0  0  0  0
  -23.4208  -28.8199   23.3008 O   0  0  0  0  0  0
  -28.4023  -26.7155   20.0898 O   0  0  0  0  0  0
  -26.5604  -34.8922   22.4692 O   0  0  0  0  0  0
  -23.5334  -32.1449   23.7512 O   0  0  0  0  0  0
  -31.2221  -17.7249   24.5163 C   0  0  0  0  0  0
  -31.3396  -16.3256   24.5290 C   0  0  0  0  0  0
  -30.7172  -18.3747   23.3764 C   0  0  0  0  0  0
  -30.9521  -15.5825   23.4027 C   0  0  0  0  0  0
  -30.3185  -17.6490   22.2274 C   0  0  0  0  0  0
  -30.4489  -16.2301   22.2507 C   0  0  0  0  0  0
  -29.7592  -18.3922   21.0689 C   0  0  0  0  0  0
  -29.1984  -19.6206   21.1439 C   0  0  0  0  0  0
  -28.7059  -20.4604   19.9766 C   0  0  0  0  0  0
  -28.3520  -25.3645   19.6127 C   0  0  0  0  0  0
  -29.6261  -24.5892   19.9671 C   0  0  0  0  0  0
  -29.9791  -15.4163   21.1913 N   0  0  0  0  0  0
  -28.7115  -21.9179   20.2005 N   0  0  0  0  0  0
  -28.9911  -22.9617   17.8728 O   0  0  0  0  0  0
  -31.0387  -22.3954   19.2686 O   0  0  0  0  0  0
  -29.6689  -22.9207   19.1788 S   0  0  0  0  0  0
  -31.4722  -12.4346   19.0891 H   0  0  0  0  0  0
  -30.3536  -11.2964   19.7918 H   0  0  0  0  0  0
  -29.7296  -11.7715   17.4130 H   0  0  0  0  0  0
  -29.6508  -13.4843   17.7490 H   0  0  0  0  0  0
  -27.8400  -11.2933   18.8234 H   0  0  0  0  0  0
  -27.3538  -12.6065   17.7851 H   0  0  0  0  0  0
  -27.7118  -14.2456   19.5715 H   0  0  0  0  0  0
  -28.6912  -11.9176   21.3034 H   0  0  0  0  0  0
  -28.4648  -13.5407   21.8750 H   0  0  0  0  0  0
  -25.2782   -9.5669   22.4770 H   0  0  0  0  0  0
  -24.0021   -7.4616   22.7457 H   0  0  0  0  0  0
  -21.0861   -8.8808   19.8941 H   0  0  0  0  0  0
  -22.3749  -10.9693   19.6176 H   0  0  0  0  0  0
  -21.1951   -7.6144   23.9728 H   0  0  0  0  0  0
  -21.1493   -6.0519   25.9087 H   0  0  0  0  0  0
  -22.0594   -2.7619   23.2852 H   0  0  0  0  0  0
  -22.4136  -11.9855   22.4750 H   0  0  0  0  0  0
  -21.1155  -13.1253   22.2635 H   0  0  0  0  0  0
  -24.6764  -15.8424   20.5256 H   0  0  0  0  0  0
  -26.2877  -15.6220   20.0733 H   0  0  0  0  0  0
  -26.7126  -32.5539   23.1183 H   0  0  0  0  0  0
  -25.0067  -33.9809   25.0493 H   0  0  0  0  0  0
  -22.6877  -31.3136   21.4183 H   0  0  0  0  0  0
  -23.3756  -35.9654   23.3307 H   0  0  0  0  0  0
  -24.3596  -36.8927   22.2050 H   0  0  0  0  0  0
  -23.7269  -37.6525   23.6651 H   0  0  0  0  0  0
  -26.0548  -31.5959   20.5969 H   0  0  0  0  0  0
  -26.8185  -30.8812   21.9884 H   0  0  0  0  0  0
  -28.0975  -29.0957   21.1607 H   0  0  0  0  0  0
  -25.9963  -25.9955   18.9806 H   0  0  0  0  0  0
  -23.9563  -27.3082   19.0457 H   0  0  0  0  0  0
  -23.7308  -30.6130   19.4117 H   0  0  0  0  0  0
  -22.7300  -29.2634   19.8618 H   0  0  0  0  0  0
  -25.1313  -36.1977   25.0823 H   0  0  0  0  0  0
  -21.0007  -28.3183   24.1418 H   0  0  0  0  0  0
  -20.5672  -26.2237   23.3570 H   0  0  0  0  0  0
  -21.6651  -26.7406   22.1198 H   0  0  0  0  0  0
  -19.6894  -25.6289   21.1184 H   0  0  0  0  0  0
  -19.6671  -27.3204   20.6760 H   0  0  0  0  0  0
  -17.4215  -26.6661   21.4020 H   0  0  0  0  0  0
  -18.0336  -26.0022   22.9001 H   0  0  0  0  0  0
  -19.7937  -30.7217   24.2310 H   0  0  0  0  0  0
  -17.5029  -31.6224   24.5166 H   0  0  0  0  0  0
  -15.5369  -30.2961   23.7613 H   0  0  0  0  0  0
  -15.8721  -28.0778   22.7012 H   0  0  0  0  0  0
  -24.5897  -30.7056   25.7815 H   0  0  0  0  0  0
  -24.8923  -32.2856   26.4945 H   0  0  0  0  0  0
  -25.8082  -30.8858   27.0236 H   0  0  0  0  0  0
  -26.2821  -29.6844   24.1123 H   0  0  0  0  0  0
  -27.4087  -29.7276   25.4500 H   0  0  0  0  0  0
  -27.8645  -30.4407   23.9204 H   0  0  0  0  0  0
  -27.2659  -33.3619   26.2088 H   0  0  0  0  0  0
  -28.3822  -32.6912   25.0293 H   0  0  0  0  0  0
  -28.0736  -31.8446   26.5379 H   0  0  0  0  0  0
  -28.2615  -38.0106   24.7508 H   0  0  0  0  0  0
  -28.1078  -36.2637   24.6297 H   0  0  0  0  0  0
  -27.2292  -37.1481   25.8862 H   0  0  0  0  0  0
  -20.9296  -29.8778   21.6982 H   0  0  0  0  0  0
  -26.0192  -38.2872   24.1387 H   0  0  0  0  0  0
  -31.5092  -18.3059   25.3832 H   0  0  0  0  0  0
  -31.7139  -15.8180   25.4069 H   0  0  0  0  0  0
  -30.6515  -19.4523   23.4012 H   0  0  0  0  0  0
  -31.0209  -14.5031   23.4451 H   0  0  0  0  0  0
  -29.8530  -17.9135   20.1027 H   0  0  0  0  0  0
  -29.0623  -20.0855   22.1085 H   0  0  0  0  0  0
  -27.6774  -20.1621   19.7706 H   0  0  0  0  0  0
  -29.2736  -20.2188   19.0754 H   0  0  0  0  0  0
  -28.2084  -25.3749   18.5294 H   0  0  0  0  0  0
  -27.5126  -24.8281   20.0576 H   0  0  0  0  0  0
  -30.4942  -25.1284   19.5935 H   0  0  0  0  0  0
  -29.7550  -24.4671   21.0406 H   0  0  0  0  0  0
  -28.9926  -15.2133   21.2382 H   0  0  0  0  0  0
  -27.7512  -22.2708   20.2153 H   0  0  0  0  0  0
  1 25  1  0  0  0
  1 30  2  0  0  0
  1 82  1  0  0  0
  2  3  1  0  0  0
  2 25  1  0  0  0
  2 87  1  0  0  0
  2 88  1  0  0  0
  3  4  1  0  0  0
  3 89  1  0  0  0
  3 90  1  0  0  0
  4  5  1  0  0  0
  4 91  1  0  0  0
  4 92  1  0  0  0
  5  6  1  0  0  0
  5 26  1  0  0  0
  5 93  1  0  0  0
  6 25  1  0  0  0
  6 94  1  0  0  0
  6 95  1  0  0  0
  7  8  2  0  0  0
  7 26  1  0  0  0
  7 29  1  0  0  0
  8  9  1  0  0  0
  8 22  1  0  0  0
  9 10  1  0  0  0
  9 27  2  0  0  0
 10 11  2  0  0  0
 10 15  1  0  0  0
 11 12  1  0  0  0
 11 96  1  0  0  0
 12 13  2  0  0  0
 12 97  1  0  0  0
 13 14  1  0  0  0
 13 31  1  0  0  0
 14 15  2  0  0  0
 14 98  1  0  0  0
 15 99  1  0  0  0
 16 17  2  0  0  0
 16 21  1  0  0  0
 16 31  1  0  0  0
 17 18  1  0  0  0
 17100  1  0  0  0
 18 19  2  0  0  0
 18101  1  0  0  0
 19 20  1  0  0  0
 19 24  1  0  0  0
 20 21  2  0  0  0
 20102  1  0  0  0
 21 23  1  0  0  0
 22 28  1  0  0  0
 22 32  2  0  0  0
 26 27  1  0  0  0
 28103  1  0  0  0
 28104  1  0  0  0
 29105  1  0  0  0
 29106  1  0  0  0
 33 34  1  0  0  0
 33 66  1  0  0  0
 33 70  2  0  0  0
 34 36  1  0  0  0
 34 59  1  0  0  0
 34107  1  0  0  0
 35 44  2  0  0  0
 35 45  1  0  0  0
 35 68  1  0  0  0
 36 56  1  0  0  0
 36108  1  0  0  0
 37 39  1  0  0  0
 37 47  1  0  0  0
 37 66  1  0  0  0
 37109  1  0  0  0
 38 43  2  0  0  0
 38 46  1  0  0  0
 38 47  1  0  0  0
 39 64  1  0  0  0
 39 67  2  0  0  0
 40 52  1  0  0  0
 40 53  2  0  0  0
 40 58  1  0  0  0
 41110  1  0  0  0
 41111  1  0  0  0
 41112  1  0  0  0
 41 48  1  0  0  0
 42 43  1  0  0  0
 42 66  1  0  0  0
 42113  1  0  0  0
 42114  1  0  0  0
 43 44  1  0  0  0
 44115  1  0  0  0
 45 46  2  0  0  0
 45116  1  0  0  0
 46117  1  0  0  0
 47118  1  0  0  0
 47119  1  0  0  0
 48 56  1  0  0  0
 48 65  1  0  0  0
 48120  1  0  0  0
 49 50  1  0  0  0
 49 53  1  0  0  0
 49 64  1  0  0  0
 49121  1  0  0  0
 50 51  1  0  0  0
 50122  1  0  0  0
 50123  1  0  0  0
 51 52  1  0  0  0
 51124  1  0  0  0
 51125  1  0  0  0
 52126  1  0  0  0
 52127  1  0  0  0
 53 54  1  0  0  0
 54 55  2  0  0  0
 54128  1  0  0  0
 55 57  1  0  0  0
 55129  1  0  0  0
 56 69  2  0  0  0
 57 58  2  0  0  0
 57130  1  0  0  0
 58131  1  0  0  0
 59 60  1  0  0  0
 59 61  1  0  0  0
 59 62  1  0  0  0
 60132  1  0  0  0
 60133  1  0  0  0
 60134  1  0  0  0
 61135  1  0  0  0
 61136  1  0  0  0
 61137  1  0  0  0
 62138  1  0  0  0
 62139  1  0  0  0
 62140  1  0  0  0
 63 65  1  0  0  0
 63141  1  0  0  0
 63142  1  0  0  0
 63143  1  0  0  0
 64144  1  0  0  0
 65145  1  0  0  0
 68 80  1  0  0  0
 71 72  2  0  0  0
 71 73  1  0  0  0
 71146  1  0  0  0
 72 74  1  0  0  0
 72147  1  0  0  0
 73 75  2  0  0  0
 73148  1  0  0  0
 74 76  2  0  0  0
 74149  1  0  0  0
 75 76  1  0  0  0
 75 77  1  0  0  0
 76 82  1  0  0  0
 77 78  2  0  0  0
 77150  1  0  0  0
 78 79  1  0  0  0
 78151  1  0  0  0
 79 83  1  0  0  0
 79152  1  0  0  0
 79153  1  0  0  0
 80 81  1  0  0  0
 80154  1  0  0  0
 80155  1  0  0  0
 81156  1  0  0  0
 81157  1  0  0  0
 81 86  1  0  0  0
 82158  1  0  0  0
 83 86  1  0  0  0
 83159  1  0  0  0
 84 86  2  0  0  0
 85 86  2  0  0  0
M  ISO  4   1 100  68 101  80 101  82 100
M  END
> <chiral flag>
0

> <version>
0

> <s_m_source_file>
/data/baiqing/PycharmProjects/Reinvent-master-3.2/result/LINK_invent/BTK/process_docking_weight1_custom_product_contain_oxygen_bond_distance_aromatic_linkinvent_7_9_3/rearranged_h_0056.sdf

> <i_m_source_file_index>
59

> <r_mmod_Potential_Energy-OPLS-2005>
-263.372528076172

> <r_mmod_Stretch_Energy-OPLS-2005>
34.1729011535645

> <r_mmod_Bend_Energy-OPLS-2005>
92.0303955078125

> <r_mmod_Torsional_Energy-OPLS-2005>
256.435272216797

> <r_mmod_Improper_Torsional_Energy-OPLS-2005>
11.6021423339844

> <r_mmod_Van_der_Waal_Energy-OPLS-2005>
157.082778930664

> <r_mmod_Electrostatic_Energy-OPLS-2005>
-573.334777832031

> <r_mmod_Solvation_Energy-OPLS-2005>
-253.526931762695

> <b_mmod_Minimization_Converged-OPLS-2005>
0

> <r_mmod_RMS_Derivative-OPLS-2005>
2.75289607048035

$$$$
59
                    3D
 Structure written by MMmdl.
184193  0  0  1  0            999 V2000
  -27.2921  -17.4137   20.9957 C   0  0  0  0  0  0
  -29.2721  -14.9498   19.8275 C   0  0  0  0  0  0
  -29.2752  -13.6150   18.7997 C   0  0  0  0  0  0
  -28.2336  -12.5580   19.1413 C   0  0  0  0  0  0
  -27.2888  -13.4233   19.9448 C   0  0  2  0  0  0
  -27.7938  -14.3104   21.1431 C   0  0  0  0  0  0
  -25.0089  -13.7971   20.5289 C   0  0  0  0  0  0
  -24.0208  -12.9904   20.9350 C   0  0  0  0  0  0
  -24.5447  -11.6600   20.8945 C   0  0  0  0  0  0
  -23.8584  -10.3961   21.0544 C   0  0  0  0  0  0
  -24.3349   -9.3978   21.9270 C   0  0  0  0  0  0
  -23.6131   -8.1976   22.0763 C   0  0  0  0  0  0
  -22.4131   -8.0006   21.3514 C   0  0  0  0  0  0
  -21.9669   -8.9911   20.4610 C   0  0  0  0  0  0
  -22.6879  -10.1811   20.3077 C   0  0  0  0  0  0
  -21.6772   -6.0584   22.5298 C   0  0  0  0  0  0
  -21.3947   -6.5552   23.8208 C   0  0  0  0  0  0
  -21.3648   -5.6740   24.9194 C   0  0  0  0  0  0
  -21.6052   -4.3002   24.7269 C   0  0  0  0  0  0
  -21.8831   -3.8055   23.4406 C   0  0  0  0  0  0
  -21.9171   -4.6836   22.3441 C   0  0  0  0  0  0
  -22.6419  -13.4629   21.2155 C   0  0  0  0  0  0
  -22.1652   -4.2031   21.1015 F   0  0  0  0  0  0
  -21.5657   -3.4511   25.7796 F   0  0  0  0  0  0
  -27.9040  -15.7620   20.6021 N   0  0  0  0  0  0
  -26.0556  -12.9412   20.3108 N   0  0  0  0  0  0
  -25.8295  -11.6469   20.5770 N   0  0  0  0  0  0
  -21.9380  -12.7680   22.0931 N   0  0  0  0  0  0
  -25.0855  -15.1753   20.3134 N   0  0  0  0  0  0
  -28.6520  -17.4569   20.8788 O   0  0  0  0  0  0
  -21.6512   -6.8634   21.4222 O   0  0  0  0  0  0
  -22.2181  -14.4999   20.7040 O   0  0  0  0  0  0
  -24.3208  -32.5360   23.3352 C   0  0  0  0  0  0
  -25.6800  -32.8137   24.2317 C   0  0  1  0  0  0
  -27.3639  -27.0764   19.9136 C   0  0  0  0  0  0
  -25.4838  -34.1945   24.4873 N   0  0  0  0  0  0
  -23.0603  -30.6903   20.9813 C   0  0  2  0  0  0
  -25.0833  -28.6727   19.7847 C   0  0  0  0  0  0
  -22.9660  -28.8452   21.1450 C   0  0  0  0  0  0
  -19.2462  -26.0931   23.6177 C   0  0  0  0  0  0
  -24.1380  -36.8972   23.2135 C   0  0  0  0  0  0
  -26.1300  -31.7192   22.1287 C   0  0  0  0  0  0
  -26.2318  -29.0521   20.7906 C   0  0  0  0  0  0
  -27.2151  -28.0481   20.8481 C   0  0  0  0  0  0
  -26.2646  -26.7120   19.1340 C   0  0  0  0  0  0
  -25.0980  -27.4657   19.1154 C   0  0  0  0  0  0
  -23.5750  -29.5821   19.6290 C   0  0  0  0  0  0
  -25.3755  -36.5260   24.0376 C   0  0  1  0  0  0
  -21.8286  -27.2969   22.9889 C   0  0  2  0  0  0
  -22.3352  -26.2995   21.5203 C   0  0  0  0  0  0
  -21.4702  -25.7277   20.2636 C   0  0  0  0  0  0
  -20.2250  -24.9036   20.6970 C   0  0  0  0  0  0
  -20.1989  -27.3341   23.9900 C   0  0  0  0  0  0
  -19.6357  -28.6776   24.5576 C   0  0  0  0  0  0
  -18.3360  -29.3023   24.3876 C   0  0  0  0  0  0
  -25.8265  -35.1498   23.6160 C   0  0  0  0  0  0
  -17.4117  -28.3892   23.8848 C   0  0  0  0  0  0
  -17.8503  -26.9648   23.7123 C   0  0  0  0  0  0
  -26.3005  -31.9651   25.4523 C   0  0  0  0  0  0
  -25.2326  -31.4639   26.4131 C   0  0  0  0  0  0
  -27.3329  -30.8272   25.2697 C   0  0  0  0  0  0
  -27.2993  -32.9135   26.1730 C   0  0  0  0  0  0
  -27.5621  -37.2613   24.8397 C   0  0  0  0  0  0
  -22.1385  -27.9869   21.6028 N   0  0  0  0  0  0
  -26.4521  -37.5205   23.9215 N   0  0  0  0  0  0
  -24.2891  -32.1077   22.0135 N   0  0  0  0  0  0
  -23.7674  -28.1074   21.7821 O   0  0  0  0  0  0
  -28.5886  -26.4965   19.6987 O   0  0  0  0  0  0
  -26.4549  -34.9701   22.5604 O   0  0  0  0  0  0
  -23.2537  -32.6645   23.9128 O   0  0  0  0  0  0
  -25.3451  -31.0000   20.2784 C   0  0  0  0  0  0
  -26.9706  -31.1687   19.9674 C   0  0  0  0  0  0
  -18.3383  -25.7015   21.5486 C   0  0  0  0  0  0
  -20.0636  -22.9905   22.3337 C   0  0  0  0  0  0
  -27.7214  -29.9636   22.5287 C   0  0  0  0  0  0
  -21.0553  -24.8148   22.7237 C   0  0  0  0  0  0
  -24.8503  -29.9600   22.3749 C   0  0  0  0  0  0
  -18.6376  -24.0323   22.1380 C   0  0  0  0  0  0
  -28.0640  -30.6550   21.0683 C   0  0  0  0  0  0
  -19.8450  -26.7588   21.6828 C   0  0  0  0  0  0
  -21.7788  -22.9639   22.2453 C   0  0  0  0  0  0
  -26.2327  -29.5293   23.1200 C   0  0  0  0  0  0
  -17.3913  -23.2627   22.1771 C   0  0  0  0  0  0
  -23.1249  -29.9399   23.4592 C   0  0  0  0  0  0
  -16.6902  -22.9091   21.0799 C   0  0  0  0  0  0
  -30.3550  -28.1917   20.5275 C   0  0  0  0  0  0
  -26.0881  -28.2817   23.9929 C   0  0  0  0  0  0
  -15.3621  -22.1888   21.1690 C   0  0  0  0  0  0
  -17.1478  -23.1946   19.6595 C   0  0  0  0  0  0
  -29.4965  -30.5264   20.5514 C   0  0  0  0  0  0
  -20.0458  -28.8374   21.9911 C   0  0  0  0  0  0
  -23.9419  -21.0184   21.8900 C   0  0  0  0  0  0
  -29.7787  -26.7419   20.4934 C   0  0  0  0  0  0
  -21.4812  -29.8491   23.0330 N   0  0  0  0  0  0
  -29.6757  -29.1948   19.9513 N   0  0  0  0  0  0
  -25.6104  -18.8594   21.3585 N   0  0  0  0  0  0
  -23.2886  -29.9357   24.6751 O   0  0  0  0  0  0
  -31.3740  -28.4099   21.1849 O   0  0  0  0  0  0
  -29.6845  -15.7399   19.2000 H   0  0  0  0  0  0
  -30.0823  -14.8351   20.5536 H   0  0  0  0  0  0
  -30.2693  -13.1690   18.7516 H   0  0  0  0  0  0
  -29.0680  -13.9712   17.7894 H   0  0  0  0  0  0
  -28.6473  -11.7628   19.7623 H   0  0  0  0  0  0
  -27.7699  -12.1173   18.2583 H   0  0  0  0  0  0
  -26.9902  -14.1063   19.1427 H   0  0  0  0  0  0
  -28.6254  -13.8739   21.7058 H   0  0  0  0  0  0
  -27.0578  -14.3834   21.9456 H   0  0  0  0  0  0
  -25.2456   -9.5579   22.4869 H   0  0  0  0  0  0
  -23.9875   -7.4367   22.7458 H   0  0  0  0  0  0
  -21.0623   -8.8334   19.8903 H   0  0  0  0  0  0
  -22.3281  -10.9344   19.6216 H   0  0  0  0  0  0
  -21.1894   -7.6059   23.9671 H   0  0  0  0  0  0
  -21.1486   -6.0484   25.9093 H   0  0  0  0  0  0
  -22.0634   -2.7517   23.2940 H   0  0  0  0  0  0
  -22.3140  -11.9351   22.5211 H   0  0  0  0  0  0
  -21.0078  -13.0711   22.3431 H   0  0  0  0  0  0
  -24.2123  -15.6862   20.2420 H   0  0  0  0  0  0
  -25.7860  -15.5027   19.6620 H   0  0  0  0  0  0
  -26.6682  -33.0498   23.8943 H   0  0  0  0  0  0
  -24.9481  -34.4481   25.3047 H   0  0  0  0  0  0
  -22.0923  -31.1318   20.7393 H   0  0  0  0  0  0
  -23.3412  -36.1626   23.3431 H   0  0  0  0  0  0
  -24.3647  -36.9519   22.1480 H   0  0  0  0  0  0
  -23.7333  -37.8639   23.5133 H   0  0  0  0  0  0
  -26.2150  -32.6615   21.5504 H   0  0  0  0  0  0
  -27.0686  -32.2233   22.3592 H   0  0  0  0  0  0
  -28.0025  -27.9941   21.5663 H   0  0  0  0  0  0
  -26.3466  -25.8680   18.4650 H   0  0  0  0  0  0
  -24.2698  -27.1685   18.4876 H   0  0  0  0  0  0
  -23.7231  -30.2007   18.7397 H   0  0  0  0  0  0
  -22.8093  -29.0649   18.9938 H   0  0  0  0  0  0
  -25.0600  -36.5011   25.0839 H   0  0  0  0  0  0
  -22.6513  -27.2823   23.7083 H   0  0  0  0  0  0
  -23.0062  -25.5533   21.9722 H   0  0  0  0  0  0
  -23.2639  -26.2777   20.9084 H   0  0  0  0  0  0
  -22.1046  -25.0821   19.6510 H   0  0  0  0  0  0
  -21.1978  -26.5339   19.5770 H   0  0  0  0  0  0
  -19.5959  -25.0821   19.8047 H   0  0  0  0  0  0
  -20.4739  -23.8957   20.3658 H   0  0  0  0  0  0
  -20.3576  -29.3306   25.0230 H   0  0  0  0  0  0
  -18.0931  -30.3118   24.6950 H   0  0  0  0  0  0
  -16.3727  -28.6692   23.7778 H   0  0  0  0  0  0
  -16.9806  -26.3654   23.4767 H   0  0  0  0  0  0
  -25.0176  -30.4064   26.2846 H   0  0  0  0  0  0
  -24.2990  -32.0156   26.3059 H   0  0  0  0  0  0
  -25.5365  -31.5762   27.4539 H   0  0  0  0  0  0
  -26.9708  -29.8381   25.3851 H   0  0  0  0  0  0
  -27.9575  -30.7131   26.1567 H   0  0  0  0  0  0
  -28.1145  -31.0412   24.5537 H   0  0  0  0  0  0
  -26.7981  -33.8110   26.5362 H   0  0  0  0  0  0
  -28.1243  -33.2499   25.5402 H   0  0  0  0  0  0
  -27.7285  -32.5117   27.0917 H   0  0  0  0  0  0
  -28.3025  -38.0579   24.7565 H   0  0  0  0  0  0
  -28.0759  -36.3241   24.6225 H   0  0  0  0  0  0
  -27.2251  -37.2374   25.8775 H   0  0  0  0  0  0
  -21.9016  -27.3153   20.8890 H   0  0  0  0  0  0
  -26.1005  -38.4567   24.1029 H   0  0  0  0  0  0
  -24.7420  -31.6265   19.6236 H   0  0  0  0  0  0
  -27.3017  -31.6136   19.0389 H   0  0  0  0  0  0
  -17.3545  -26.0829   21.3143 H   0  0  0  0  0  0
  -19.7239  -21.9676   22.4174 H   0  0  0  0  0  0
  -28.5727  -29.5303   23.0368 H   0  0  0  0  0  0
  -21.7292  -25.0757   23.5316 H   0  0  0  0  0  0
  -17.0222  -22.9971   23.1571 H   0  0  0  0  0  0
  -27.0513  -27.9207   24.3512 H   0  0  0  0  0  0
  -25.6553  -27.4760   23.4026 H   0  0  0  0  0  0
  -25.4164  -28.4479   24.8365 H   0  0  0  0  0  0
  -14.9976  -22.1281   22.1943 H   0  0  0  0  0  0
  -15.4607  -21.1757   20.7785 H   0  0  0  0  0  0
  -14.6101  -22.7088   20.5740 H   0  0  0  0  0  0
  -18.2327  -23.2228   19.5836 H   0  0  0  0  0  0
  -16.7521  -24.1465   19.3061 H   0  0  0  0  0  0
  -16.8071  -22.4142   18.9800 H   0  0  0  0  0  0
  -30.2019  -30.7142   21.3628 H   0  0  0  0  0  0
  -29.6830  -31.2857   19.7911 H   0  0  0  0  0  0
  -19.0698  -29.2902   22.1119 H   0  0  0  0  0  0
  -20.1589  -29.2144   20.9728 H   0  0  0  0  0  0
  -24.2096  -21.0408   22.9469 H   0  0  0  0  0  0
  -24.6074  -21.7420   21.4197 H   0  0  0  0  0  0
  -29.6137  -26.3893   21.5116 H   0  0  0  0  0  0
  -30.5616  -26.1032   20.0830 H   0  0  0  0  0  0
  -20.9970  -30.2082   23.8394 H   0  0  0  0  0  0
  -28.8902  -28.8875   19.3923 H   0  0  0  0  0  0
  -24.8883  -18.1548   21.2626 H   0  0  0  0  0  0
  1 25  1  0  0  0
  1 30  2  0  0  0
  1 96  1  0  0  0
  2  3  1  0  0  0
  2 25  1  0  0  0
  2 99  1  0  0  0
  2100  1  0  0  0
  3  4  1  0  0  0
  3101  1  0  0  0
  3102  1  0  0  0
  4  5  1  0  0  0
  4103  1  0  0  0
  4104  1  0  0  0
  5  6  1  0  0  0
  5 26  1  0  0  0
  5105  1  0  0  0
  6 25  1  0  0  0
  6106  1  0  0  0
  6107  1  0  0  0
  7  8  2  0  0  0
  7 26  1  0  0  0
  7 29  1  0  0  0
  8  9  1  0  0  0
  8 22  1  0  0  0
  9 10  1  0  0  0
  9 27  2  0  0  0
 10 11  2  0  0  0
 10 15  1  0  0  0
 11 12  1  0  0  0
 11108  1  0  0  0
 12 13  2  0  0  0
 12109  1  0  0  0
 13 14  1  0  0  0
 13 31  1  0  0  0
 14 15  2  0  0  0
 14110  1  0  0  0
 15111  1  0  0  0
 16 17  2  0  0  0
 16 21  1  0  0  0
 16 31  1  0  0  0
 17 18  1  0  0  0
 17112  1  0  0  0
 18 19  2  0  0  0
 18113  1  0  0  0
 19 20  1  0  0  0
 19 24  1  0  0  0
 20 21  2  0  0  0
 20114  1  0  0  0
 21 23  1  0  0  0
 22 28  1  0  0  0
 22 32  2  0  0  0
 26 27  1  0  0  0
 28115  1  0  0  0
 28116  1  0  0  0
 29117  1  0  0  0
 29118  1  0  0  0
 33 34  1  0  0  0
 33 66  1  0  0  0
 33 70  2  0  0  0
 34 36  1  0  0  0
 34 59  1  0  0  0
 34119  1  0  0  0
 35 44  2  0  0  0
 35 45  1  0  0  0
 35 68  1  0  0  0
 36 56  1  0  0  0
 36120  1  0  0  0
 37 39  1  0  0  0
 37 47  1  0  0  0
 37 66  1  0  0  0
 37121  1  0  0  0
 38 43  2  0  0  0
 38 46  1  0  0  0
 38 47  1  0  0  0
 39 64  1  0  0  0
 39 67  2  0  0  0
 40 52  1  0  0  0
 40 53  2  0  0  0
 40 58  1  0  0  0
 41122  1  0  0  0
 41123  1  0  0  0
 41124  1  0  0  0
 41 48  1  0  0  0
 42 43  1  0  0  0
 42 66  1  0  0  0
 42125  1  0  0  0
 42126  1  0  0  0
 43 44  1  0  0  0
 44127  1  0  0  0
 45 46  2  0  0  0
 45128  1  0  0  0
 46129  1  0  0  0
 47130  1  0  0  0
 47131  1  0  0  0
 48 56  1  0  0  0
 48 65  1  0  0  0
 48132  1  0  0  0
 49 50  1  0  0  0
 49 53  1  0  0  0
 49 64  1  0  0  0
 49133  1  0  0  0
 50 51  1  0  0  0
 50134  1  0  0  0
 50135  1  0  0  0
 51 52  1  0  0  0
 51136  1  0  0  0
 51137  1  0  0  0
 52138  1  0  0  0
 52139  1  0  0  0
 53 54  1  0  0  0
 54 55  2  0  0  0
 54140  1  0  0  0
 55 57  1  0  0  0
 55141  1  0  0  0
 56 69  2  0  0  0
 57 58  2  0  0  0
 57142  1  0  0  0
 58143  1  0  0  0
 59 60  1  0  0  0
 59 61  1  0  0  0
 59 62  1  0  0  0
 60144  1  0  0  0
 60145  1  0  0  0
 60146  1  0  0  0
 61147  1  0  0  0
 61148  1  0  0  0
 61149  1  0  0  0
 62150  1  0  0  0
 62151  1  0  0  0
 62152  1  0  0  0
 63 65  1  0  0  0
 63153  1  0  0  0
 63154  1  0  0  0
 63155  1  0  0  0
 64156  1  0  0  0
 65157  1  0  0  0
 68 93  1  0  0  0
 71 72  2  0  0  0
 71 77  1  0  0  0
 71158  1  0  0  0
 72 79  1  0  0  0
 72159  1  0  0  0
 73 78  2  0  0  0
 73 80  1  0  0  0
 73160  1  0  0  0
 74 78  1  0  0  0
 74 81  2  0  0  0
 74161  1  0  0  0
 75 79  2  0  0  0
 75 82  1  0  0  0
 75162  1  0  0  0
 76 80  2  0  0  0
 76 81  1  0  0  0
 76163  1  0  0  0
 77 82  2  0  0  0
 77 84  1  0  0  0
 78 83  1  0  0  0
 79 90  1  0  0  0
 80 91  1  0  0  0
 81 92  1  0  0  0
 82 87  1  0  0  0
 83 85  2  0  0  0
 83164  1  0  0  0
 84 94  1  0  0  0
 84 97  2  0  0  0
 85 88  1  0  0  0
 85 89  1  0  0  0
 86 93  1  0  0  0
 86 95  1  0  0  0
 86 98  2  0  0  0
 87165  1  0  0  0
 87166  1  0  0  0
 87167  1  0  0  0
 88168  1  0  0  0
 88169  1  0  0  0
 88170  1  0  0  0
 89171  1  0  0  0
 89172  1  0  0  0
 89173  1  0  0  0
 90 95  1  0  0  0
 90174  1  0  0  0
 90175  1  0  0  0
 91 94  1  0  0  0
 91176  1  0  0  0
 91177  1  0  0  0
 92 96  1  0  0  0
 92178  1  0  0  0
 92179  1  0  0  0
 93180  1  0  0  0
 93181  1  0  0  0
 94182  1  0  0  0
 95183  1  0  0  0
 96184  1  0  0  0
M  ISO  4   1 100  68 101  93 101  96 100
M  END
> <chiral flag>
0

> <version>
0

> <s_m_source_file>
/data/baiqing/PycharmProjects/Reinvent-master-3.2/result/LINK_invent/BTK/process_docking_weight1_custom_product_contain_oxygen_bond_distance_aromatic_linkinvent_7_9_3/rearranged_h_0056.sdf

> <i_m_source_file_index>
60

> <r_mmod_Potential_Energy-OPLS-2005>
50346.5390625

> <r_mmod_Stretch_Energy-OPLS-2005>
25488.818359375

> <r_mmod_Bend_Energy-OPLS-2005>
3759.15942382812

> <r_mmod_Torsional_Energy-OPLS-2005>
882.222717285156

> <r_mmod_Improper_Torsional_Energy-OPLS-2005>
136.656478881836

> <r_mmod_Van_der_Waal_Energy-OPLS-2005>
8023.01953125

> <r_mmod_Electrostatic_Energy-OPLS-2005>
-511.848937988281

> <r_mmod_Solvation_Energy-OPLS-2005>
-238.922546386719

> <b_mmod_Minimization_Converged-OPLS-2005>
0

> <r_mmod_RMS_Derivative-OPLS-2005>
8.13210296630859

$$$$
60
                    3D
 Structure written by MMmdl.
156164  0  0  1  0            999 V2000
  -30.7716  -14.3934   20.6028 C   0  0  0  0  0  0
  -30.4011  -12.2710   19.4178 C   0  0  0  0  0  0
  -29.4849  -12.5076   18.2034 C   0  0  0  0  0  0
  -28.0067  -12.3818   18.6148 C   0  0  0  0  0  0
  -27.6618  -13.2137   19.8803 C   0  0  2  0  0  0
  -28.7025  -12.9910   21.0023 C   0  0  0  0  0  0
  -25.2565  -13.8182   20.5688 C   0  0  0  0  0  0
  -24.1820  -13.0446   20.9171 C   0  0  0  0  0  0
  -24.6392  -11.6915   20.8732 C   0  0  0  0  0  0
  -23.9067  -10.4293   21.0395 C   0  0  0  0  0  0
  -24.3616   -9.4206   21.9174 C   0  0  0  0  0  0
  -23.6284   -8.2246   22.0754 C   0  0  0  0  0  0
  -22.4269   -8.0282   21.3543 C   0  0  0  0  0  0
  -21.9903   -9.0258   20.4646 C   0  0  0  0  0  0
  -22.7237  -10.2134   20.3047 C   0  0  0  0  0  0
  -21.6855   -6.0726   22.5272 C   0  0  0  0  0  0
  -21.4020   -6.5633   23.8205 C   0  0  0  0  0  0
  -21.3656   -5.6788   24.9169 C   0  0  0  0  0  0
  -21.6050   -4.3051   24.7221 C   0  0  0  0  0  0
  -21.8821   -3.8138   23.4343 C   0  0  0  0  0  0
  -21.9194   -4.6953   22.3396 C   0  0  0  0  0  0
  -22.7838  -13.5236   21.1828 C   0  0  0  0  0  0
  -22.1660   -4.2136   21.0972 F   0  0  0  0  0  0
  -21.5630   -3.4536   25.7733 F   0  0  0  0  0  0
  -30.0413  -13.2579   20.4502 N   0  0  0  0  0  0
  -26.3022  -12.9373   20.3404 N   0  0  0  0  0  0
  -25.9323  -11.6524   20.5784 N   0  0  0  0  0  0
  -22.0486  -12.8221   22.0389 N   0  0  0  0  0  0
  -25.4276  -15.1901   20.4100 N   0  0  0  0  0  0
  -31.8610  -14.5387   20.0465 O   0  0  0  0  0  0
  -21.6643   -6.8869   21.4235 O   0  0  0  0  0  0
  -22.3516  -14.5538   20.6670 O   0  0  0  0  0  0
  -24.6062  -31.8713   23.2087 C   0  0  0  0  0  0
  -25.8981  -32.4837   23.8375 C   0  0  1  0  0  0
  -27.2656  -27.4913   20.1145 C   0  0  0  0  0  0
  -25.5864  -33.8629   24.2324 N   0  0  0  0  0  0
  -23.3890  -30.4891   21.5486 C   0  0  2  0  0  0
  -24.8389  -28.9552   20.1121 C   0  0  0  0  0  0
  -22.7352  -29.4671   22.5026 C   0  0  0  0  0  0
  -18.0255  -28.1377   22.8504 C   0  0  0  0  0  0
  -24.1477  -36.7333   23.2637 C   0  0  0  0  0  0
  -25.9027  -30.8680   21.3363 C   0  0  0  0  0  0
  -25.9892  -29.5046   20.6864 C   0  0  0  0  0  0
  -27.2007  -28.7975   20.6574 C   0  0  0  0  0  0
  -26.1007  -26.9512   19.5265 C   0  0  0  0  0  0
  -24.8897  -27.6785   19.5187 C   0  0  0  0  0  0
  -23.5912  -29.8074   20.1652 C   0  0  0  0  0  0
  -25.4095  -36.3123   24.0336 C   0  0  1  0  0  0
  -20.5835  -28.3644   23.1356 C   0  0  2  0  0  0
  -20.6736  -26.9393   22.5428 C   0  0  0  0  0  0
  -19.5728  -26.6396   21.5208 C   0  0  0  0  0  0
  -18.1909  -26.7929   22.1626 C   0  0  0  0  0  0
  -19.1500  -28.8827   23.2928 C   0  0  0  0  0  0
  -18.9436  -30.1438   23.8931 C   0  0  0  0  0  0
  -17.6442  -30.6590   24.0575 C   0  0  0  0  0  0
  -25.9016  -34.9486   23.5125 C   0  0  0  0  0  0
  -16.5334  -29.9096   23.6325 C   0  0  0  0  0  0
  -16.7248  -28.6510   23.0351 C   0  0  0  0  0  0
  -26.4453  -31.6589   25.0672 C   0  0  0  0  0  0
  -25.3753  -31.3659   26.1448 C   0  0  0  0  0  0
  -27.0265  -30.3043   24.5976 C   0  0  0  0  0  0
  -27.6051  -32.4281   25.7430 C   0  0  0  0  0  0
  -27.5572  -37.1813   24.8468 C   0  0  0  0  0  0
  -21.4091  -29.3018   22.3773 N   0  0  0  0  0  0
  -26.4289  -37.3796   23.9407 N   0  0  0  0  0  0
  -24.6515  -31.0870   22.0932 N   0  0  0  0  0  0
  -23.4167  -28.8238   23.3053 O   0  0  0  0  0  0
  -28.4178  -26.7283   20.1549 O   0  0  0  0  0  0
  -26.5598  -34.8943   22.4702 O   0  0  0  0  0  0
  -23.5287  -32.1436   23.7547 O   0  0  0  0  0  0
  -32.2987  -18.5269   21.1936 C   0  0  0  0  0  0
  -31.7452  -17.2923   20.8202 C   0  0  0  0  0  0
  -30.8187  -18.6014   23.1247 C   0  0  0  0  0  0
  -31.8564  -19.1780   22.3590 C   0  0  0  0  0  0
  -30.7618  -16.6626   21.6256 C   0  0  0  0  0  0
  -30.2770  -17.3501   22.7592 C   0  0  0  0  0  0
  -30.1736  -24.5147   21.3781 C   0  0  0  0  0  0
  -30.8296  -23.6557   22.1805 C   0  0  0  0  0  0
  -29.9266  -25.8569   21.8592 C   0  0  0  0  0  0
  -29.1714  -26.8157   21.3057 C   0  0  0  0  0  0
  -31.2176  -22.3198   21.7777 C   0  0  0  0  0  0
  -32.5415  -20.4644   22.7884 C   0  0  0  0  0  0
  -30.2202  -15.3691   21.3470 N   0  0  0  0  0  0
  -31.6824  -21.6379   22.8310 N   0  0  0  0  0  0
  -31.2164  -21.8823   20.6250 O   0  0  0  0  0  0
  -29.2988  -16.7921   23.5143 F   0  0  0  0  0  0
  -31.4485  -12.3293   19.1158 H   0  0  0  0  0  0
  -30.2668  -11.2603   19.8060 H   0  0  0  0  0  0
  -29.7126  -11.7921   17.4124 H   0  0  0  0  0  0
  -29.6717  -13.4986   17.7861 H   0  0  0  0  0  0
  -27.8031  -11.3263   18.7982 H   0  0  0  0  0  0
  -27.3610  -12.6746   17.7860 H   0  0  0  0  0  0
  -27.7098  -14.2640   19.5927 H   0  0  0  0  0  0
  -28.6594  -11.9618   21.3610 H   0  0  0  0  0  0
  -28.4703  -13.6085   21.8704 H   0  0  0  0  0  0
  -25.2765   -9.5681   22.4744 H   0  0  0  0  0  0
  -23.9995   -7.4642   22.7471 H   0  0  0  0  0  0
  -21.0837   -8.8777   19.8948 H   0  0  0  0  0  0
  -22.3700  -10.9671   19.6152 H   0  0  0  0  0  0
  -21.2020   -7.6144   23.9702 H   0  0  0  0  0  0
  -21.1476   -6.0520   25.9069 H   0  0  0  0  0  0
  -22.0606   -2.7601   23.2847 H   0  0  0  0  0  0
  -22.4122  -11.9894   22.4781 H   0  0  0  0  0  0
  -21.1100  -13.1227   22.2589 H   0  0  0  0  0  0
  -24.6649  -15.8478   20.5289 H   0  0  0  0  0  0
  -26.2869  -15.6304   20.1053 H   0  0  0  0  0  0
  -26.7063  -32.5590   23.1162 H   0  0  0  0  0  0
  -24.9981  -33.9792   25.0447 H   0  0  0  0  0  0
  -22.6730  -31.3017   21.4071 H   0  0  0  0  0  0
  -23.3727  -35.9682   23.3336 H   0  0  0  0  0  0
  -24.3564  -36.8917   22.2044 H   0  0  0  0  0  0
  -23.7257  -37.6558   23.6637 H   0  0  0  0  0  0
  -25.9824  -31.6351   20.5657 H   0  0  0  0  0  0
  -26.7994  -30.9386   21.9404 H   0  0  0  0  0  0
  -28.0756  -29.2870   21.0573 H   0  0  0  0  0  0
  -26.1327  -25.9627   19.0907 H   0  0  0  0  0  0
  -24.0047  -27.2478   19.0692 H   0  0  0  0  0  0
  -23.6805  -30.5774   19.3977 H   0  0  0  0  0  0
  -22.7191  -29.2130   19.8844 H   0  0  0  0  0  0
  -25.1267  -36.1988   25.0828 H   0  0  0  0  0  0
  -20.9928  -28.3225   24.1473 H   0  0  0  0  0  0
  -20.5625  -26.2270   23.3616 H   0  0  0  0  0  0
  -21.6615  -26.7446   22.1224 H   0  0  0  0  0  0
  -19.6908  -25.6312   21.1216 H   0  0  0  0  0  0
  -19.6664  -27.3231   20.6756 H   0  0  0  0  0  0
  -17.4166  -26.6684   21.4043 H   0  0  0  0  0  0
  -18.0323  -26.0056   22.9004 H   0  0  0  0  0  0
  -19.7909  -30.7244   24.2322 H   0  0  0  0  0  0
  -17.4992  -31.6270   24.5175 H   0  0  0  0  0  0
  -15.5332  -30.3010   23.7621 H   0  0  0  0  0  0
  -15.8648  -28.0841   22.7043 H   0  0  0  0  0  0
  -24.5912  -30.7017   25.7783 H   0  0  0  0  0  0
  -24.8953  -32.2791   26.4963 H   0  0  0  0  0  0
  -25.8130  -30.8778   27.0160 H   0  0  0  0  0  0
  -26.2761  -29.6815   24.1083 H   0  0  0  0  0  0
  -27.4119  -29.7266   25.4390 H   0  0  0  0  0  0
  -27.8561  -30.4390   23.9034 H   0  0  0  0  0  0
  -27.2685  -33.3558   26.2081 H   0  0  0  0  0  0
  -28.3829  -32.6872   25.0227 H   0  0  0  0  0  0
  -28.0766  -31.8349   26.5282 H   0  0  0  0  0  0
  -28.2611  -38.0084   24.7466 H   0  0  0  0  0  0
  -28.1038  -36.2609   24.6344 H   0  0  0  0  0  0
  -27.2289  -37.1531   25.8872 H   0  0  0  0  0  0
  -20.9247  -29.8717   21.6974 H   0  0  0  0  0  0
  -26.0198  -38.2884   24.1388 H   0  0  0  0  0  0
  -33.0780  -18.9642   20.5840 H   0  0  0  0  0  0
  -32.1178  -16.8485   19.9106 H   0  0  0  0  0  0
  -30.4557  -19.1015   24.0106 H   0  0  0  0  0  0
  -29.8599  -24.2212   20.3849 H   0  0  0  0  0  0
  -31.1044  -23.9932   23.1708 H   0  0  0  0  0  0
  -30.4199  -26.1453   22.7778 H   0  0  0  0  0  0
  -29.1276  -27.7670   21.8075 H   0  0  0  0  0  0
  -33.3986  -20.6747   22.1444 H   0  0  0  0  0  0
  -32.9525  -20.3109   23.7868 H   0  0  0  0  0  0
  -29.3650  -15.1389   21.8290 H   0  0  0  0  0  0
  -31.6066  -22.0919   23.7305 H   0  0  0  0  0  0
  1 25  1  0  0  0
  1 30  2  0  0  0
  1 83  1  0  0  0
  2  3  1  0  0  0
  2 25  1  0  0  0
  2 87  1  0  0  0
  2 88  1  0  0  0
  3  4  1  0  0  0
  3 89  1  0  0  0
  3 90  1  0  0  0
  4  5  1  0  0  0
  4 91  1  0  0  0
  4 92  1  0  0  0
  5  6  1  0  0  0
  5 26  1  0  0  0
  5 93  1  0  0  0
  6 25  1  0  0  0
  6 94  1  0  0  0
  6 95  1  0  0  0
  7  8  2  0  0  0
  7 26  1  0  0  0
  7 29  1  0  0  0
  8  9  1  0  0  0
  8 22  1  0  0  0
  9 10  1  0  0  0
  9 27  2  0  0  0
 10 11  2  0  0  0
 10 15  1  0  0  0
 11 12  1  0  0  0
 11 96  1  0  0  0
 12 13  2  0  0  0
 12 97  1  0  0  0
 13 14  1  0  0  0
 13 31  1  0  0  0
 14 15  2  0  0  0
 14 98  1  0  0  0
 15 99  1  0  0  0
 16 17  2  0  0  0
 16 21  1  0  0  0
 16 31  1  0  0  0
 17 18  1  0  0  0
 17100  1  0  0  0
 18 19  2  0  0  0
 18101  1  0  0  0
 19 20  1  0  0  0
 19 24  1  0  0  0
 20 21  2  0  0  0
 20102  1  0  0  0
 21 23  1  0  0  0
 22 28  1  0  0  0
 22 32  2  0  0  0
 26 27  1  0  0  0
 28103  1  0  0  0
 28104  1  0  0  0
 29105  1  0  0  0
 29106  1  0  0  0
 33 34  1  0  0  0
 33 66  1  0  0  0
 33 70  2  0  0  0
 34 36  1  0  0  0
 34 59  1  0  0  0
 34107  1  0  0  0
 35 44  2  0  0  0
 35 45  1  0  0  0
 35 68  1  0  0  0
 36 56  1  0  0  0
 36108  1  0  0  0
 37 39  1  0  0  0
 37 47  1  0  0  0
 37 66  1  0  0  0
 37109  1  0  0  0
 38 43  2  0  0  0
 38 46  1  0  0  0
 38 47  1  0  0  0
 39 64  1  0  0  0
 39 67  2  0  0  0
 40 52  1  0  0  0
 40 53  2  0  0  0
 40 58  1  0  0  0
 41110  1  0  0  0
 41111  1  0  0  0
 41112  1  0  0  0
 41 48  1  0  0  0
 42 43  1  0  0  0
 42 66  1  0  0  0
 42113  1  0  0  0
 42114  1  0  0  0
 43 44  1  0  0  0
 44115  1  0  0  0
 45 46  2  0  0  0
 45116  1  0  0  0
 46117  1  0  0  0
 47118  1  0  0  0
 47119  1  0  0  0
 48 56  1  0  0  0
 48 65  1  0  0  0
 48120  1  0  0  0
 49 50  1  0  0  0
 49 53  1  0  0  0
 49 64  1  0  0  0
 49121  1  0  0  0
 50 51  1  0  0  0
 50122  1  0  0  0
 50123  1  0  0  0
 51 52  1  0  0  0
 51124  1  0  0  0
 51125  1  0  0  0
 52126  1  0  0  0
 52127  1  0  0  0
 53 54  1  0  0  0
 54 55  2  0  0  0
 54128  1  0  0  0
 55 57  1  0  0  0
 55129  1  0  0  0
 56 69  2  0  0  0
 57 58  2  0  0  0
 57130  1  0  0  0
 58131  1  0  0  0
 59 60  1  0  0  0
 59 61  1  0  0  0
 59 62  1  0  0  0
 60132  1  0  0  0
 60133  1  0  0  0
 60134  1  0  0  0
 61135  1  0  0  0
 61136  1  0  0  0
 61137  1  0  0  0
 62138  1  0  0  0
 62139  1  0  0  0
 62140  1  0  0  0
 63 65  1  0  0  0
 63141  1  0  0  0
 63142  1  0  0  0
 63143  1  0  0  0
 64144  1  0  0  0
 65145  1  0  0  0
 68 80  1  0  0  0
 71 72  2  0  0  0
 71 74  1  0  0  0
 71146  1  0  0  0
 72 75  1  0  0  0
 72147  1  0  0  0
 73 74  2  0  0  0
 73 76  1  0  0  0
 73148  1  0  0  0
 74 82  1  0  0  0
 75 76  2  0  0  0
 75 83  1  0  0  0
 76 86  1  0  0  0
 77 78  2  0  0  0
 77 79  1  0  0  0
 77149  1  0  0  0
 78 81  1  0  0  0
 78150  1  0  0  0
 79 80  2  0  0  0
 79151  1  0  0  0
 80152  1  0  0  0
 81 84  1  0  0  0
 81 85  2  0  0  0
 82 84  1  0  0  0
 82153  1  0  0  0
 82154  1  0  0  0
 83155  1  0  0  0
 84156  1  0  0  0
M  ISO  4   1 100  68 101  80 101  83 100
M  END
> <chiral flag>
0

> <version>
0

> <s_m_source_file>
/data/baiqing/PycharmProjects/Reinvent-master-3.2/result/LINK_invent/BTK/process_docking_weight1_custom_product_contain_oxygen_bond_distance_aromatic_linkinvent_7_9_3/rearranged_h_0056.sdf

> <i_m_source_file_index>
61

> <r_mmod_Potential_Energy-OPLS-2005>
-167.257461547852

> <r_mmod_Stretch_Energy-OPLS-2005>
33.3260955810547

> <r_mmod_Bend_Energy-OPLS-2005>
107.382469177246

> <r_mmod_Torsional_Energy-OPLS-2005>
207.605392456055

> <r_mmod_Improper_Torsional_Energy-OPLS-2005>
3.41727113723755

> <r_mmod_Van_der_Waal_Energy-OPLS-2005>
172.577301025391

> <r_mmod_Electrostatic_Energy-OPLS-2005>
-469.892669677734

> <r_mmod_Solvation_Energy-OPLS-2005>
-232.977081298828

> <b_mmod_Minimization_Converged-OPLS-2005>
0

> <r_mmod_RMS_Derivative-OPLS-2005>
1.86528730392456

$$$$
61
                    3D
 Structure written by MMmdl.
155163  0  0  1  0            999 V2000
  -30.6938  -14.5969   20.5299 C   0  0  0  0  0  0
  -30.4245  -12.3828   19.4301 C   0  0  0  0  0  0
  -29.4902  -12.4884   18.2083 C   0  0  0  0  0  0
  -28.0161  -12.3411   18.6329 C   0  0  0  0  0  0
  -27.6504  -13.2213   19.8575 C   0  0  2  0  0  0
  -28.7014  -13.0987   20.9822 C   0  0  0  0  0  0
  -25.2551  -13.8193   20.5682 C   0  0  0  0  0  0
  -24.1837  -13.0457   20.9218 C   0  0  0  0  0  0
  -24.6415  -11.6925   20.8792 C   0  0  0  0  0  0
  -23.9081  -10.4306   21.0434 C   0  0  0  0  0  0
  -24.3636   -9.4206   21.9198 C   0  0  0  0  0  0
  -23.6306   -8.2242   22.0753 C   0  0  0  0  0  0
  -22.4276   -8.0289   21.3547 C   0  0  0  0  0  0
  -21.9927   -9.0266   20.4646 C   0  0  0  0  0  0
  -22.7260  -10.2148   20.3074 C   0  0  0  0  0  0
  -21.6853   -6.0751   22.5287 C   0  0  0  0  0  0
  -21.3999   -6.5658   23.8214 C   0  0  0  0  0  0
  -21.3654   -5.6816   24.9178 C   0  0  0  0  0  0
  -21.6040   -4.3077   24.7236 C   0  0  0  0  0  0
  -21.8813   -3.8168   23.4360 C   0  0  0  0  0  0
  -21.9194   -4.6983   22.3412 C   0  0  0  0  0  0
  -22.7852  -13.5230   21.1880 C   0  0  0  0  0  0
  -22.1662   -4.2162   21.0992 F   0  0  0  0  0  0
  -21.5635   -3.4553   25.7753 F   0  0  0  0  0  0
  -30.0101  -13.4192   20.3950 N   0  0  0  0  0  0
  -26.2993  -12.9389   20.3340 N   0  0  0  0  0  0
  -25.9349  -11.6535   20.5801 N   0  0  0  0  0  0
  -22.0503  -12.8210   22.0429 N   0  0  0  0  0  0
  -25.4256  -15.1907   20.4021 N   0  0  0  0  0  0
  -31.8554  -14.7140   20.1304 O   0  0  0  0  0  0
  -21.6636   -6.8891   21.4244 O   0  0  0  0  0  0
  -22.3543  -14.5554   20.6744 O   0  0  0  0  0  0
  -24.6434  -31.8678   23.2101 C   0  0  0  0  0  0
  -25.9243  -32.4831   23.8427 C   0  0  1  0  0  0
  -27.2142  -27.3400   20.0966 C   0  0  0  0  0  0
  -25.6018  -33.8614   24.2354 N   0  0  0  0  0  0
  -23.4490  -30.4960   21.5672 C   0  0  2  0  0  0
  -24.8661  -28.9501   20.1138 C   0  0  0  0  0  0
  -22.7781  -29.4838   22.5215 C   0  0  0  0  0  0
  -17.9940  -28.1200   22.8713 C   0  0  0  0  0  0
  -24.1483  -36.7288   23.2627 C   0  0  0  0  0  0
  -25.9775  -30.8010   21.3728 C   0  0  0  0  0  0
  -26.0400  -29.4292   20.7125 C   0  0  0  0  0  0
  -27.2213  -28.6346   20.6938 C   0  0  0  0  0  0
  -26.0247  -26.9125   19.4685 C   0  0  0  0  0  0
  -24.8581  -27.6965   19.4817 C   0  0  0  0  0  0
  -23.6398  -29.8332   20.1775 C   0  0  0  0  0  0
  -25.4105  -36.3092   24.0339 C   0  0  1  0  0  0
  -20.4796  -28.4578   22.7770 C   0  0  2  0  0  0
  -20.6894  -26.9594   22.5263 C   0  0  0  0  0  0
  -19.5505  -26.4574   21.6142 C   0  0  0  0  0  0
  -18.1550  -26.7512   22.2070 C   0  0  0  0  0  0
  -19.1152  -28.8971   23.2510 C   0  0  0  0  0  0
  -18.9349  -30.1464   23.8780 C   0  0  0  0  0  0
  -17.6367  -30.6493   24.0798 C   0  0  0  0  0  0
  -25.9071  -34.9464   23.5128 C   0  0  0  0  0  0
  -16.5196  -29.8959   23.6742 C   0  0  0  0  0  0
  -16.6985  -28.6289   23.0885 C   0  0  0  0  0  0
  -26.4542  -31.6591   25.0780 C   0  0  0  0  0  0
  -25.3740  -31.3731   26.1479 C   0  0  0  0  0  0
  -27.0369  -30.3008   24.6213 C   0  0  0  0  0  0
  -27.6101  -32.4286   25.7569 C   0  0  0  0  0  0
  -27.5572  -37.1823   24.8466 C   0  0  0  0  0  0
  -21.4564  -29.4447   22.3910 N   0  0  0  0  0  0
  -26.4278  -37.3786   23.9420 N   0  0  0  0  0  0
  -24.7124  -31.0690   22.1073 N   0  0  0  0  0  0
  -23.4216  -28.7656   23.2878 O   0  0  0  0  0  0
  -28.3104  -26.4744   20.1130 O   0  0  0  0  0  0
  -26.5598  -34.8926   22.4676 O   0  0  0  0  0  0
  -23.5578  -32.1462   23.7425 O   0  0  0  0  0  0
  -31.6827  -18.4363   23.7750 C   0  0  0  0  0  0
  -31.6899  -17.0551   23.9702 C   0  0  0  0  0  0
  -30.4417  -18.1733   21.6485 C   0  0  0  0  0  0
  -30.5265  -16.7252   21.8181 C   0  0  0  0  0  0
  -31.0740  -18.9853   22.6376 C   0  0  0  0  0  0
  -31.1190  -16.2134   23.0079 C   0  0  0  0  0  0
  -28.7886  -22.6617   20.5907 C   0  0  0  0  0  0
  -28.5955  -23.8755   19.9799 C   0  0  0  0  0  0
  -29.2351  -21.4183   19.9150 C   0  0  0  0  0  0
  -29.7506  -18.9188   20.4587 C   0  0  0  0  0  0
  -28.0511  -25.1463   20.6970 C   0  0  0  0  0  0
  -29.9974  -15.7041   20.9317 N   0  0  0  0  0  0
  -29.2624  -20.3211   20.7216 N   0  0  0  0  0  0
  -29.5518  -21.3523   18.7270 O   0  0  0  0  0  0
  -31.1208  -20.3335   22.5268 F   0  0  0  0  0  0
  -31.1199  -14.8824   23.2665 F   0  0  0  0  0  0
  -31.4636  -12.4916   19.1150 H   0  0  0  0  0  0
  -30.3552  -11.3948   19.8867 H   0  0  0  0  0  0
  -29.7428  -11.7183   17.4785 H   0  0  0  0  0  0
  -29.6349  -13.4474   17.7095 H   0  0  0  0  0  0
  -27.8505  -11.2901   18.8712 H   0  0  0  0  0  0
  -27.3539  -12.5679   17.7966 H   0  0  0  0  0  0
  -27.6641  -14.2513   19.5017 H   0  0  0  0  0  0
  -28.7115  -12.0881   21.3939 H   0  0  0  0  0  0
  -28.4577  -13.7612   21.8146 H   0  0  0  0  0  0
  -25.2776   -9.5682   22.4772 H   0  0  0  0  0  0
  -24.0013   -7.4636   22.7479 H   0  0  0  0  0  0
  -21.0851   -8.8794   19.8960 H   0  0  0  0  0  0
  -22.3712  -10.9694   19.6193 H   0  0  0  0  0  0
  -21.1964   -7.6156   23.9722 H   0  0  0  0  0  0
  -21.1483   -6.0542   25.9082 H   0  0  0  0  0  0
  -22.0597   -2.7628   23.2860 H   0  0  0  0  0  0
  -22.4083  -11.9815   22.4766 H   0  0  0  0  0  0
  -21.1125  -13.1240   22.2652 H   0  0  0  0  0  0
  -24.6551  -15.8422   20.4979 H   0  0  0  0  0  0
  -26.2694  -15.6275   20.0553 H   0  0  0  0  0  0
  -26.7340  -32.5491   23.1208 H   0  0  0  0  0  0
  -25.0204  -33.9741   25.0530 H   0  0  0  0  0  0
  -22.7525  -31.3258   21.4229 H   0  0  0  0  0  0
  -23.3742  -35.9621   23.3296 H   0  0  0  0  0  0
  -24.3587  -36.8896   22.2045 H   0  0  0  0  0  0
  -23.7239  -37.6505   23.6627 H   0  0  0  0  0  0
  -26.1023  -31.5626   20.6015 H   0  0  0  0  0  0
  -26.8645  -30.8505   21.9945 H   0  0  0  0  0  0
  -28.1246  -28.9959   21.1645 H   0  0  0  0  0  0
  -25.9910  -25.9520   18.9712 H   0  0  0  0  0  0
  -23.9574  -27.3302   19.0076 H   0  0  0  0  0  0
  -23.7563  -30.6137   19.4236 H   0  0  0  0  0  0
  -22.7518  -29.2708   19.8837 H   0  0  0  0  0  0
  -25.1278  -36.1961   25.0836 H   0  0  0  0  0  0
  -20.1583  -28.6788   21.7586 H   0  0  0  0  0  0
  -20.6719  -26.4246   23.4769 H   0  0  0  0  0  0
  -21.6583  -26.7604   22.0648 H   0  0  0  0  0  0
  -19.6504  -25.3862   21.4368 H   0  0  0  0  0  0
  -19.6284  -26.9195   20.6284 H   0  0  0  0  0  0
  -17.3971  -26.6334   21.4313 H   0  0  0  0  0  0
  -17.9258  -25.9969   22.9628 H   0  0  0  0  0  0
  -19.7900  -30.7491   24.1562 H   0  0  0  0  0  0
  -17.4953  -31.6182   24.5375 H   0  0  0  0  0  0
  -15.5220  -30.2850   23.8243 H   0  0  0  0  0  0
  -15.8311  -28.0533   22.7933 H   0  0  0  0  0  0
  -24.5897  -30.7111   25.7783 H   0  0  0  0  0  0
  -24.8939  -32.2904   26.4885 H   0  0  0  0  0  0
  -25.8016  -30.8880   27.0265 H   0  0  0  0  0  0
  -26.2963  -29.6775   24.1184 H   0  0  0  0  0  0
  -27.4036  -29.7243   25.4722 H   0  0  0  0  0  0
  -27.8840  -30.4310   23.9473 H   0  0  0  0  0  0
  -27.2736  -33.3619   26.2102 H   0  0  0  0  0  0
  -28.3936  -32.6792   25.0403 H   0  0  0  0  0  0
  -28.0710  -31.8405   26.5513 H   0  0  0  0  0  0
  -28.2597  -38.0112   24.7494 H   0  0  0  0  0  0
  -28.1074  -36.2653   24.6309 H   0  0  0  0  0  0
  -27.2305  -37.1489   25.8872 H   0  0  0  0  0  0
  -21.0784  -30.1505   21.7750 H   0  0  0  0  0  0
  -26.0160  -38.2866   24.1399 H   0  0  0  0  0  0
  -32.1397  -19.0866   24.5058 H   0  0  0  0  0  0
  -32.1292  -16.6356   24.8624 H   0  0  0  0  0  0
  -28.5824  -22.6103   21.6498 H   0  0  0  0  0  0
  -28.7886  -23.9701   18.9191 H   0  0  0  0  0  0
  -28.9052  -18.3181   20.1245 H   0  0  0  0  0  0
  -30.4596  -18.9313   19.6294 H   0  0  0  0  0  0
  -28.4501  -25.1516   21.7114 H   0  0  0  0  0  0
  -26.9826  -24.9700   20.8223 H   0  0  0  0  0  0
  -28.9969  -15.5829   20.9690 H   0  0  0  0  0  0
  -28.9984  -20.4987   21.6800 H   0  0  0  0  0  0
  1 25  1  0  0  0
  1 30  2  0  0  0
  1 82  1  0  0  0
  2  3  1  0  0  0
  2 25  1  0  0  0
  2 87  1  0  0  0
  2 88  1  0  0  0
  3  4  1  0  0  0
  3 89  1  0  0  0
  3 90  1  0  0  0
  4  5  1  0  0  0
  4 91  1  0  0  0
  4 92  1  0  0  0
  5  6  1  0  0  0
  5 26  1  0  0  0
  5 93  1  0  0  0
  6 25  1  0  0  0
  6 94  1  0  0  0
  6 95  1  0  0  0
  7  8  2  0  0  0
  7 26  1  0  0  0
  7 29  1  0  0  0
  8  9  1  0  0  0
  8 22  1  0  0  0
  9 10  1  0  0  0
  9 27  2  0  0  0
 10 11  2  0  0  0
 10 15  1  0  0  0
 11 12  1  0  0  0
 11 96  1  0  0  0
 12 13  2  0  0  0
 12 97  1  0  0  0
 13 14  1  0  0  0
 13 31  1  0  0  0
 14 15  2  0  0  0
 14 98  1  0  0  0
 15 99  1  0  0  0
 16 17  2  0  0  0
 16 21  1  0  0  0
 16 31  1  0  0  0
 17 18  1  0  0  0
 17100  1  0  0  0
 18 19  2  0  0  0
 18101  1  0  0  0
 19 20  1  0  0  0
 19 24  1  0  0  0
 20 21  2  0  0  0
 20102  1  0  0  0
 21 23  1  0  0  0
 22 28  1  0  0  0
 22 32  2  0  0  0
 26 27  1  0  0  0
 28103  1  0  0  0
 28104  1  0  0  0
 29105  1  0  0  0
 29106  1  0  0  0
 33 34  1  0  0  0
 33 66  1  0  0  0
 33 70  2  0  0  0
 34 36  1  0  0  0
 34 59  1  0  0  0
 34107  1  0  0  0
 35 44  2  0  0  0
 35 45  1  0  0  0
 35 68  1  0  0  0
 36 56  1  0  0  0
 36108  1  0  0  0
 37 39  1  0  0  0
 37 47  1  0  0  0
 37 66  1  0  0  0
 37109  1  0  0  0
 38 43  2  0  0  0
 38 46  1  0  0  0
 38 47  1  0  0  0
 39 64  1  0  0  0
 39 67  2  0  0  0
 40 52  1  0  0  0
 40 53  2  0  0  0
 40 58  1  0  0  0
 41110  1  0  0  0
 41111  1  0  0  0
 41112  1  0  0  0
 41 48  1  0  0  0
 42 43  1  0  0  0
 42 66  1  0  0  0
 42113  1  0  0  0
 42114  1  0  0  0
 43 44  1  0  0  0
 44115  1  0  0  0
 45 46  2  0  0  0
 45116  1  0  0  0
 46117  1  0  0  0
 47118  1  0  0  0
 47119  1  0  0  0
 48 56  1  0  0  0
 48 65  1  0  0  0
 48120  1  0  0  0
 49 50  1  0  0  0
 49 53  1  0  0  0
 49 64  1  0  0  0
 49121  1  0  0  0
 50 51  1  0  0  0
 50122  1  0  0  0
 50123  1  0  0  0
 51 52  1  0  0  0
 51124  1  0  0  0
 51125  1  0  0  0
 52126  1  0  0  0
 52127  1  0  0  0
 53 54  1  0  0  0
 54 55  2  0  0  0
 54128  1  0  0  0
 55 57  1  0  0  0
 55129  1  0  0  0
 56 69  2  0  0  0
 57 58  2  0  0  0
 57130  1  0  0  0
 58131  1  0  0  0
 59 60  1  0  0  0
 59 61  1  0  0  0
 59 62  1  0  0  0
 60132  1  0  0  0
 60133  1  0  0  0
 60134  1  0  0  0
 61135  1  0  0  0
 61136  1  0  0  0
 61137  1  0  0  0
 62138  1  0  0  0
 62139  1  0  0  0
 62140  1  0  0  0
 63 65  1  0  0  0
 63141  1  0  0  0
 63142  1  0  0  0
 63143  1  0  0  0
 64144  1  0  0  0
 65145  1  0  0  0
 68 81  1  0  0  0
 71 72  2  0  0  0
 71 75  1  0  0  0
 71146  1  0  0  0
 72 76  1  0  0  0
 72147  1  0  0  0
 73 74  1  0  0  0
 73 75  2  0  0  0
 73 80  1  0  0  0
 74 76  2  0  0  0
 74 82  1  0  0  0
 75 85  1  0  0  0
 76 86  1  0  0  0
 77 78  2  0  0  0
 77 79  1  0  0  0
 77148  1  0  0  0
 78 81  1  0  0  0
 78149  1  0  0  0
 79 83  1  0  0  0
 79 84  2  0  0  0
 80 83  1  0  0  0
 80150  1  0  0  0
 80151  1  0  0  0
 81152  1  0  0  0
 81153  1  0  0  0
 82154  1  0  0  0
 83155  1  0  0  0
M  ISO  4   1 100  68 101  81 101  82 100
M  END
> <chiral flag>
0

> <version>
0

> <s_m_source_file>
/data/baiqing/PycharmProjects/Reinvent-master-3.2/result/LINK_invent/BTK/process_docking_weight1_custom_product_contain_oxygen_bond_distance_aromatic_linkinvent_7_9_3/rearranged_h_0056.sdf

> <i_m_source_file_index>
62

> <r_mmod_Potential_Energy-OPLS-2005>
93.9473876953125

> <r_mmod_Stretch_Energy-OPLS-2005>
71.1055679321289

> <r_mmod_Bend_Energy-OPLS-2005>
230.837982177734

> <r_mmod_Torsional_Energy-OPLS-2005>
262.323455810547

> <r_mmod_Improper_Torsional_Energy-OPLS-2005>
8.03847885131836

> <r_mmod_Van_der_Waal_Energy-OPLS-2005>
164.791305541992

> <r_mmod_Electrostatic_Energy-OPLS-2005>
-466.806701660156

> <r_mmod_Solvation_Energy-OPLS-2005>
-238.154373168945

> <b_mmod_Minimization_Converged-OPLS-2005>
0

> <r_mmod_RMS_Derivative-OPLS-2005>
2.95003795623779

$$$$
62
                    3D
 Structure written by MMmdl.
164173  0  0  1  0            999 V2000
  -30.7790  -14.4416   20.5923 C   0  0  0  0  0  0
  -30.4030  -12.2995   19.4320 C   0  0  0  0  0  0
  -29.4874  -12.5061   18.2117 C   0  0  0  0  0  0
  -28.0107  -12.3732   18.6235 C   0  0  0  0  0  0
  -27.6599  -13.2204   19.8770 C   0  0  2  0  0  0
  -28.7046  -13.0340   21.0030 C   0  0  0  0  0  0
  -25.2569  -13.8210   20.5700 C   0  0  0  0  0  0
  -24.1832  -13.0470   20.9185 C   0  0  0  0  0  0
  -24.6392  -11.6929   20.8711 C   0  0  0  0  0  0
  -23.9054  -10.4311   21.0373 C   0  0  0  0  0  0
  -24.3605   -9.4237   21.9161 C   0  0  0  0  0  0
  -23.6298   -8.2264   22.0744 C   0  0  0  0  0  0
  -22.4276   -8.0281   21.3536 C   0  0  0  0  0  0
  -21.9893   -9.0252   20.4644 C   0  0  0  0  0  0
  -22.7212  -10.2142   20.3045 C   0  0  0  0  0  0
  -21.6874   -6.0728   22.5271 C   0  0  0  0  0  0
  -21.4026   -6.5637   23.8200 C   0  0  0  0  0  0
  -21.3664   -5.6791   24.9162 C   0  0  0  0  0  0
  -21.6048   -4.3052   24.7224 C   0  0  0  0  0  0
  -21.8826   -3.8142   23.4347 C   0  0  0  0  0  0
  -21.9207   -4.6956   22.3398 C   0  0  0  0  0  0
  -22.7848  -13.5241   21.1861 C   0  0  0  0  0  0
  -22.1672   -4.2146   21.0970 F   0  0  0  0  0  0
  -21.5625   -3.4537   25.7735 F   0  0  0  0  0  0
  -30.0384  -13.3077   20.4426 N   0  0  0  0  0  0
  -26.3022  -12.9400   20.3400 N   0  0  0  0  0  0
  -25.9329  -11.6544   20.5771 N   0  0  0  0  0  0
  -22.0508  -12.8213   22.0412 N   0  0  0  0  0  0
  -25.4302  -15.1931   20.4092 N   0  0  0  0  0  0
  -31.8854  -14.5727   20.0622 O   0  0  0  0  0  0
  -21.6659   -6.8864   21.4224 O   0  0  0  0  0  0
  -22.3519  -14.5547   20.6723 O   0  0  0  0  0  0
  -24.6187  -31.8693   23.2124 C   0  0  0  0  0  0
  -25.9077  -32.4814   23.8429 C   0  0  1  0  0  0
  -27.2371  -27.4117   20.0838 C   0  0  0  0  0  0
  -25.5944  -33.8626   24.2353 N   0  0  0  0  0  0
  -23.4067  -30.4980   21.5526 C   0  0  2  0  0  0
  -24.8522  -28.9721   20.1117 C   0  0  0  0  0  0
  -22.7439  -29.4684   22.4977 C   0  0  0  0  0  0
  -18.0278  -28.1388   22.8465 C   0  0  0  0  0  0
  -24.1485  -36.7311   23.2632 C   0  0  0  0  0  0
  -25.9434  -30.8246   21.3745 C   0  0  0  0  0  0
  -26.0194  -29.4611   20.7146 C   0  0  0  0  0  0
  -27.2128  -28.6921   20.6977 C   0  0  0  0  0  0
  -26.0434  -26.9697   19.4520 C   0  0  0  0  0  0
  -24.8631  -27.7255   19.4745 C   0  0  0  0  0  0
  -23.6152  -29.8416   20.1641 C   0  0  0  0  0  0
  -25.4109  -36.3116   24.0328 C   0  0  1  0  0  0
  -20.5870  -28.3693   23.1281 C   0  0  2  0  0  0
  -20.6781  -26.9432   22.5383 C   0  0  0  0  0  0
  -19.5766  -26.6388   21.5180 C   0  0  0  0  0  0
  -18.1939  -26.7930   22.1588 C   0  0  0  0  0  0
  -19.1526  -28.8857   23.2863 C   0  0  0  0  0  0
  -18.9456  -30.1458   23.8883 C   0  0  0  0  0  0
  -17.6456  -30.6587   24.0561 C   0  0  0  0  0  0
  -25.9044  -34.9471   23.5121 C   0  0  0  0  0  0
  -16.5347  -29.9088   23.6332 C   0  0  0  0  0  0
  -16.7264  -28.6505   23.0346 C   0  0  0  0  0  0
  -26.4516  -31.6603   25.0758 C   0  0  0  0  0  0
  -25.3797  -31.3667   26.1506 C   0  0  0  0  0  0
  -27.0337  -30.3040   24.6142 C   0  0  0  0  0  0
  -27.6101  -32.4333   25.7507 C   0  0  0  0  0  0
  -27.5585  -37.1805   24.8466 C   0  0  0  0  0  0
  -21.4166  -29.3057   22.3704 N   0  0  0  0  0  0
  -26.4298  -37.3799   23.9408 N   0  0  0  0  0  0
  -24.6745  -31.0787   22.1026 N   0  0  0  0  0  0
  -23.4199  -28.8211   23.3019 O   0  0  0  0  0  0
  -28.3861  -26.6171   20.1240 O   0  0  0  0  0  0
  -26.5596  -34.8912   22.4677 O   0  0  0  0  0  0
  -23.5377  -32.1450   23.7507 O   0  0  0  0  0  0
  -30.3148  -17.9217   20.8428 C   0  0  0  0  0  0
  -32.0978  -16.8507   22.0941 C   0  0  0  0  0  0
  -31.0016  -19.1673   20.8713 C   0  0  0  0  0  0
  -32.2687  -19.2317   21.5198 C   0  0  0  0  0  0
  -30.8679  -16.7495   21.4106 C   0  0  0  0  0  0
  -32.7899  -18.0734   22.1445 C   0  0  0  0  0  0
  -31.0766  -22.5753   19.4276 C   0  0  0  0  0  0
  -30.5202  -24.0133   19.3470 C   0  0  0  0  0  0
  -29.3826  -23.6978   21.5375 C   0  0  0  0  0  0
  -29.9621  -22.2568   21.6380 C   0  0  0  0  0  0
  -29.1674  -24.0842   20.0706 C   0  0  1  0  0  0
  -33.1200  -20.4914   21.5349 C   0  0  0  0  0  0
  -30.3563  -20.3175   20.0700 C   0  0  0  0  0  0
  -28.1822  -25.2363   19.7435 C   0  0  0  0  0  0
  -30.6021  -21.7446   20.3985 N   0  0  0  0  0  0
  -30.2252  -15.4780   21.2541 N   0  0  0  0  0  0
  -31.8360  -22.1928   18.5326 O   0  0  0  0  0  0
  -33.9897  -18.1184   22.7726 F   0  0  0  0  0  0
  -31.4498  -12.3563   19.1279 H   0  0  0  0  0  0
  -30.2707  -11.2971   19.8428 H   0  0  0  0  0  0
  -29.7257  -11.7788   17.4344 H   0  0  0  0  0  0
  -29.6659  -13.4922   17.7776 H   0  0  0  0  0  0
  -27.8164  -11.3180   18.8213 H   0  0  0  0  0  0
  -27.3645  -12.6530   17.7920 H   0  0  0  0  0  0
  -27.6944  -14.2658   19.5697 H   0  0  0  0  0  0
  -28.6724  -12.0122   21.3834 H   0  0  0  0  0  0
  -28.4731  -13.6733   21.8548 H   0  0  0  0  0  0
  -25.2750   -9.5737   22.4723 H   0  0  0  0  0  0
  -24.0041   -7.4661   22.7452 H   0  0  0  0  0  0
  -21.0835   -8.8747   19.8937 H   0  0  0  0  0  0
  -22.3656  -10.9668   19.6152 H   0  0  0  0  0  0
  -21.2012   -7.6150   23.9700 H   0  0  0  0  0  0
  -21.1480   -6.0520   25.9063 H   0  0  0  0  0  0
  -22.0604   -2.7608   23.2845 H   0  0  0  0  0  0
  -22.4159  -11.9882   22.4775 H   0  0  0  0  0  0
  -21.1121  -13.1195   22.2631 H   0  0  0  0  0  0
  -24.6691  -15.8538   20.5147 H   0  0  0  0  0  0
  -26.2869  -15.6247   20.0860 H   0  0  0  0  0  0
  -26.7150  -32.5516   23.1201 H   0  0  0  0  0  0
  -25.0192  -33.9821   25.0561 H   0  0  0  0  0  0
  -22.6939  -31.3151   21.4185 H   0  0  0  0  0  0
  -23.3744  -35.9648   23.3306 H   0  0  0  0  0  0
  -24.3586  -36.8924   22.2044 H   0  0  0  0  0  0
  -23.7224  -37.6509   23.6652 H   0  0  0  0  0  0
  -26.0686  -31.5908   20.6098 H   0  0  0  0  0  0
  -26.8275  -30.8723   21.9987 H   0  0  0  0  0  0
  -28.1126  -29.0672   21.1644 H   0  0  0  0  0  0
  -25.9781  -26.0315   18.9227 H   0  0  0  0  0  0
  -23.9768  -27.3435   18.9870 H   0  0  0  0  0  0
  -23.7277  -30.6228   19.4115 H   0  0  0  0  0  0
  -22.7341  -29.2722   19.8616 H   0  0  0  0  0  0
  -25.1275  -36.1994   25.0820 H   0  0  0  0  0  0
  -20.9955  -28.3268   24.1402 H   0  0  0  0  0  0
  -20.5693  -26.2318   23.3578 H   0  0  0  0  0  0
  -21.6655  -26.7490   22.1175 H   0  0  0  0  0  0
  -19.6949  -25.6293   21.1226 H   0  0  0  0  0  0
  -19.6695  -27.3181   20.6691 H   0  0  0  0  0  0
  -17.4206  -26.6648   21.3992 H   0  0  0  0  0  0
  -18.0371  -26.0069   22.8990 H   0  0  0  0  0  0
  -19.7930  -30.7274   24.2245 H   0  0  0  0  0  0
  -17.5011  -31.6260   24.5183 H   0  0  0  0  0  0
  -15.5350  -30.2989   23.7666 H   0  0  0  0  0  0
  -15.8657  -28.0819   22.7090 H   0  0  0  0  0  0
  -24.6003  -30.6976   25.7847 H   0  0  0  0  0  0
  -24.8939  -32.2785   26.4983 H   0  0  0  0  0  0
  -25.8184  -30.8825   27.0239 H   0  0  0  0  0  0
  -26.2860  -29.6796   24.1228 H   0  0  0  0  0  0
  -27.4134  -29.7296   25.4605 H   0  0  0  0  0  0
  -27.8708  -30.4343   23.9276 H   0  0  0  0  0  0
  -27.2744  -33.3639   26.2100 H   0  0  0  0  0  0
  -28.3899  -32.6893   25.0321 H   0  0  0  0  0  0
  -28.0792  -31.8440   26.5399 H   0  0  0  0  0  0
  -28.2598  -38.0108   24.7543 H   0  0  0  0  0  0
  -28.1084  -36.2642   24.6263 H   0  0  0  0  0  0
  -27.2315  -37.1433   25.8874 H   0  0  0  0  0  0
  -20.9364  -29.8783   21.6907 H   0  0  0  0  0  0
  -26.0182  -38.2875   24.1417 H   0  0  0  0  0  0
  -29.3757  -17.8528   20.3120 H   0  0  0  0  0  0
  -32.5468  -15.9792   22.5495 H   0  0  0  0  0  0
  -30.3859  -24.2721   18.2965 H   0  0  0  0  0  0
  -31.2436  -24.7150   19.7622 H   0  0  0  0  0  0
  -30.0713  -24.4031   22.0079 H   0  0  0  0  0  0
  -28.4487  -23.7676   22.0952 H   0  0  0  0  0  0
  -29.1597  -21.5797   21.9334 H   0  0  0  0  0  0
  -30.6785  -22.2230   22.4582 H   0  0  0  0  0  0
  -28.5945  -23.2497   19.6589 H   0  0  0  0  0  0
  -33.2358  -20.8923   20.5295 H   0  0  0  0  0  0
  -34.1278  -20.3077   21.9085 H   0  0  0  0  0  0
  -32.6777  -21.2496   22.1770 H   0  0  0  0  0  0
  -29.2751  -20.1853   20.1098 H   0  0  0  0  0  0
  -30.5918  -20.1113   19.0234 H   0  0  0  0  0  0
  -27.2599  -24.8952   20.2181 H   0  0  0  0  0  0
  -28.0133  -25.2141   18.6654 H   0  0  0  0  0  0
  -29.2593  -15.3893   21.5346 H   0  0  0  0  0  0
  1 25  1  0  0  0
  1 30  2  0  0  0
  1 86  1  0  0  0
  2  3  1  0  0  0
  2 25  1  0  0  0
  2 89  1  0  0  0
  2 90  1  0  0  0
  3  4  1  0  0  0
  3 91  1  0  0  0
  3 92  1  0  0  0
  4  5  1  0  0  0
  4 93  1  0  0  0
  4 94  1  0  0  0
  5  6  1  0  0  0
  5 26  1  0  0  0
  5 95  1  0  0  0
  6 25  1  0  0  0
  6 96  1  0  0  0
  6 97  1  0  0  0
  7  8  2  0  0  0
  7 26  1  0  0  0
  7 29  1  0  0  0
  8  9  1  0  0  0
  8 22  1  0  0  0
  9 10  1  0  0  0
  9 27  2  0  0  0
 10 11  2  0  0  0
 10 15  1  0  0  0
 11 12  1  0  0  0
 11 98  1  0  0  0
 12 13  2  0  0  0
 12 99  1  0  0  0
 13 14  1  0  0  0
 13 31  1  0  0  0
 14 15  2  0  0  0
 14100  1  0  0  0
 15101  1  0  0  0
 16 17  2  0  0  0
 16 21  1  0  0  0
 16 31  1  0  0  0
 17 18  1  0  0  0
 17102  1  0  0  0
 18 19  2  0  0  0
 18103  1  0  0  0
 19 20  1  0  0  0
 19 24  1  0  0  0
 20 21  2  0  0  0
 20104  1  0  0  0
 21 23  1  0  0  0
 22 28  1  0  0  0
 22 32  2  0  0  0
 26 27  1  0  0  0
 28105  1  0  0  0
 28106  1  0  0  0
 29107  1  0  0  0
 29108  1  0  0  0
 33 34  1  0  0  0
 33 66  1  0  0  0
 33 70  2  0  0  0
 34 36  1  0  0  0
 34 59  1  0  0  0
 34109  1  0  0  0
 35 44  2  0  0  0
 35 45  1  0  0  0
 35 68  1  0  0  0
 36 56  1  0  0  0
 36110  1  0  0  0
 37 39  1  0  0  0
 37 47  1  0  0  0
 37 66  1  0  0  0
 37111  1  0  0  0
 38 43  2  0  0  0
 38 46  1  0  0  0
 38 47  1  0  0  0
 39 64  1  0  0  0
 39 67  2  0  0  0
 40 52  1  0  0  0
 40 53  2  0  0  0
 40 58  1  0  0  0
 41112  1  0  0  0
 41113  1  0  0  0
 41114  1  0  0  0
 41 48  1  0  0  0
 42 43  1  0  0  0
 42 66  1  0  0  0
 42115  1  0  0  0
 42116  1  0  0  0
 43 44  1  0  0  0
 44117  1  0  0  0
 45 46  2  0  0  0
 45118  1  0  0  0
 46119  1  0  0  0
 47120  1  0  0  0
 47121  1  0  0  0
 48 56  1  0  0  0
 48 65  1  0  0  0
 48122  1  0  0  0
 49 50  1  0  0  0
 49 53  1  0  0  0
 49 64  1  0  0  0
 49123  1  0  0  0
 50 51  1  0  0  0
 50124  1  0  0  0
 50125  1  0  0  0
 51 52  1  0  0  0
 51126  1  0  0  0
 51127  1  0  0  0
 52128  1  0  0  0
 52129  1  0  0  0
 53 54  1  0  0  0
 54 55  2  0  0  0
 54130  1  0  0  0
 55 57  1  0  0  0
 55131  1  0  0  0
 56 69  2  0  0  0
 57 58  2  0  0  0
 57132  1  0  0  0
 58133  1  0  0  0
 59 60  1  0  0  0
 59 61  1  0  0  0
 59 62  1  0  0  0
 60134  1  0  0  0
 60135  1  0  0  0
 60136  1  0  0  0
 61137  1  0  0  0
 61138  1  0  0  0
 61139  1  0  0  0
 62140  1  0  0  0
 62141  1  0  0  0
 62142  1  0  0  0
 63 65  1  0  0  0
 63143  1  0  0  0
 63144  1  0  0  0
 63145  1  0  0  0
 64146  1  0  0  0
 65147  1  0  0  0
 68 84  1  0  0  0
 71 73  2  0  0  0
 71 75  1  0  0  0
 71148  1  0  0  0
 72 75  2  0  0  0
 72 76  1  0  0  0
 72149  1  0  0  0
 73 74  1  0  0  0
 73 83  1  0  0  0
 74 76  2  0  0  0
 74 82  1  0  0  0
 75 86  1  0  0  0
 76 88  1  0  0  0
 77 78  1  0  0  0
 77 85  1  0  0  0
 77 87  2  0  0  0
 78 81  1  0  0  0
 78150  1  0  0  0
 78151  1  0  0  0
 79 80  1  0  0  0
 79 81  1  0  0  0
 79152  1  0  0  0
 79153  1  0  0  0
 80 85  1  0  0  0
 80154  1  0  0  0
 80155  1  0  0  0
 81 84  1  0  0  0
 81156  1  0  0  0
 82157  1  0  0  0
 82158  1  0  0  0
 82159  1  0  0  0
 83 85  1  0  0  0
 83160  1  0  0  0
 83161  1  0  0  0
 84162  1  0  0  0
 84163  1  0  0  0
 86164  1  0  0  0
M  ISO  4   1 100  68 101  84 101  86 100
M  END
> <chiral flag>
0

> <version>
0

> <s_m_source_file>
/data/baiqing/PycharmProjects/Reinvent-master-3.2/result/LINK_invent/BTK/process_docking_weight1_custom_product_contain_oxygen_bond_distance_aromatic_linkinvent_7_9_3/rearranged_h_0056.sdf

> <i_m_source_file_index>
63

> <r_mmod_Potential_Energy-OPLS-2005>
69.5128860473633

> <r_mmod_Stretch_Energy-OPLS-2005>
49.2517700195312

> <r_mmod_Bend_Energy-OPLS-2005>
146.0888671875

> <r_mmod_Torsional_Energy-OPLS-2005>
269.477264404297

> <r_mmod_Improper_Torsional_Energy-OPLS-2005>
5.19817686080933

> <r_mmod_Van_der_Waal_Energy-OPLS-2005>
186.183303833008

> <r_mmod_Electrostatic_Energy-OPLS-2005>
-378.199645996094

> <r_mmod_Solvation_Energy-OPLS-2005>
-225.774444580078

> <b_mmod_Minimization_Converged-OPLS-2005>
0

> <r_mmod_RMS_Derivative-OPLS-2005>
2.59735107421875

$$$$
63
                    3D
 Structure written by MMmdl.
159167  0  0  1  0            999 V2000
  -30.7524  -14.3627   20.6936 C   0  0  0  0  0  0
  -30.4225  -12.2931   19.3847 C   0  0  0  0  0  0
  -29.4835  -12.5278   18.1862 C   0  0  0  0  0  0
  -28.0075  -12.3811   18.6049 C   0  0  0  0  0  0
  -27.6666  -13.1974   19.8788 C   0  0  2  0  0  0
  -28.7036  -12.9193   20.9878 C   0  0  0  0  0  0
  -25.2609  -13.8143   20.5657 C   0  0  0  0  0  0
  -24.1851  -13.0435   20.9168 C   0  0  0  0  0  0
  -24.6388  -11.6898   20.8724 C   0  0  0  0  0  0
  -23.9050  -10.4291   21.0404 C   0  0  0  0  0  0
  -24.3607   -9.4208   21.9182 C   0  0  0  0  0  0
  -23.6285   -8.2242   22.0754 C   0  0  0  0  0  0
  -22.4266   -8.0279   21.3547 C   0  0  0  0  0  0
  -21.9899   -9.0251   20.4647 C   0  0  0  0  0  0
  -22.7224  -10.2132   20.3054 C   0  0  0  0  0  0
  -21.6852   -6.0732   22.5280 C   0  0  0  0  0  0
  -21.4013   -6.5637   23.8212 C   0  0  0  0  0  0
  -21.3658   -5.6791   24.9174 C   0  0  0  0  0  0
  -21.6043   -4.3054   24.7227 C   0  0  0  0  0  0
  -21.8820   -3.8145   23.4349 C   0  0  0  0  0  0
  -21.9193   -4.6960   22.3404 C   0  0  0  0  0  0
  -22.7876  -13.5248   21.1831 C   0  0  0  0  0  0
  -22.1662   -4.2146   21.0982 F   0  0  0  0  0  0
  -21.5628   -3.4539   25.7739 F   0  0  0  0  0  0
  -30.0450  -13.2283   20.4534 N   0  0  0  0  0  0
  -26.3042  -12.9299   20.3360 N   0  0  0  0  0  0
  -25.9310  -11.6468   20.5746 N   0  0  0  0  0  0
  -22.0510  -12.8248   22.0389 N   0  0  0  0  0  0
  -25.4343  -15.1854   20.4039 N   0  0  0  0  0  0
  -31.7921  -14.6530   20.0909 O   0  0  0  0  0  0
  -21.6637   -6.8873   21.4241 O   0  0  0  0  0  0
  -22.3568  -14.5556   20.6678 O   0  0  0  0  0  0
  -24.6089  -31.8715   23.2115 C   0  0  0  0  0  0
  -25.9000  -32.4840   23.8409 C   0  0  1  0  0  0
  -27.2438  -27.4743   20.1040 C   0  0  0  0  0  0
  -25.5876  -33.8638   24.2341 N   0  0  0  0  0  0
  -23.3958  -30.4922   21.5517 C   0  0  2  0  0  0
  -24.8452  -28.9561   20.1226 C   0  0  0  0  0  0
  -22.7383  -29.4672   22.5019 C   0  0  0  0  0  0
  -18.0266  -28.1379   22.8499 C   0  0  0  0  0  0
  -24.1484  -36.7328   23.2640 C   0  0  0  0  0  0
  -25.9178  -30.8508   21.3568 C   0  0  0  0  0  0
  -25.9995  -29.4843   20.7135 C   0  0  0  0  0  0
  -27.2035  -28.7535   20.6984 C   0  0  0  0  0  0
  -26.0771  -26.9472   19.5122 C   0  0  0  0  0  0
  -24.8762  -27.6842   19.5203 C   0  0  0  0  0  0
  -23.6038  -29.8175   20.1685 C   0  0  0  0  0  0
  -25.4102  -36.3124   24.0342 C   0  0  1  0  0  0
  -20.5851  -28.3656   23.1339 C   0  0  2  0  0  0
  -20.6757  -26.9398   22.5423 C   0  0  0  0  0  0
  -19.5736  -26.6394   21.5215 C   0  0  0  0  0  0
  -18.1913  -26.7929   22.1625 C   0  0  0  0  0  0
  -19.1513  -28.8834   23.2919 C   0  0  0  0  0  0
  -18.9442  -30.1444   23.8922 C   0  0  0  0  0  0
  -17.6446  -30.6587   24.0572 C   0  0  0  0  0  0
  -25.9025  -34.9487   23.5140 C   0  0  0  0  0  0
  -16.5338  -29.9092   23.6327 C   0  0  0  0  0  0
  -16.7256  -28.6510   23.0344 C   0  0  0  0  0  0
  -26.4454  -31.6606   25.0715 C   0  0  0  0  0  0
  -25.3739  -31.3698   26.1479 C   0  0  0  0  0  0
  -27.0279  -30.3057   24.6051 C   0  0  0  0  0  0
  -27.6047  -32.4317   25.7466 C   0  0  0  0  0  0
  -27.5581  -37.1817   24.8464 C   0  0  0  0  0  0
  -21.4116  -29.3026   22.3752 N   0  0  0  0  0  0
  -26.4295  -37.3799   23.9405 N   0  0  0  0  0  0
  -24.6590  -31.0850   22.0994 N   0  0  0  0  0  0
  -23.4173  -28.8219   23.3051 O   0  0  0  0  0  0
  -28.4177  -26.7741   20.0198 O   0  0  0  0  0  0
  -26.5589  -34.8930   22.4702 O   0  0  0  0  0  0
  -23.5290  -32.1443   23.7532 O   0  0  0  0  0  0
  -32.5268  -17.7029   23.0916 C   0  0  0  0  0  0
  -32.0606  -16.5134   22.5086 C   0  0  0  0  0  0
  -31.6432  -18.7735   23.3099 C   0  0  0  0  0  0
  -29.8047  -17.4641   22.3644 C   0  0  0  0  0  0
  -30.7023  -16.3834   22.1429 C   0  0  0  0  0  0
  -30.2832  -18.6720   22.9373 C   0  0  0  0  0  0
  -28.9864  -22.0959   22.4130 C   0  0  0  0  0  0
  -28.3281  -17.3478   21.9887 C   0  0  0  0  0  0
  -29.9197  -21.1112   23.1263 C   0  0  0  0  0  0
  -29.4418  -23.5503   22.3398 C   0  0  0  0  0  0
  -30.2159  -15.1497   21.6379 N   0  0  0  0  0  0
  -29.3978  -19.7435   23.1380 N   0  0  0  0  0  0
  -28.6675  -24.3843   21.4119 N   0  0  0  0  0  0
  -27.9101  -21.7301   21.9243 O   0  0  0  0  0  0
  -30.5098  -26.1187   21.2979 O   0  0  0  0  0  0
  -28.3829  -26.6187   22.5954 O   0  0  0  0  0  0
  -29.0420  -26.0400   21.4115 S   0  0  0  0  0  0
  -31.4631  -12.4088   19.0757 H   0  0  0  0  0  0
  -30.3343  -11.2666   19.7435 H   0  0  0  0  0  0
  -29.7150  -11.8267   17.3831 H   0  0  0  0  0  0
  -29.6515  -13.5260   17.7786 H   0  0  0  0  0  0
  -27.8148  -11.3223   18.7816 H   0  0  0  0  0  0
  -27.3530  -12.6751   17.7836 H   0  0  0  0  0  0
  -27.7301  -14.2535   19.6158 H   0  0  0  0  0  0
  -28.6701  -11.8674   21.2757 H   0  0  0  0  0  0
  -28.4446  -13.4641   21.8955 H   0  0  0  0  0  0
  -25.2755   -9.5686   22.4751 H   0  0  0  0  0  0
  -23.9996   -7.4637   22.7475 H   0  0  0  0  0  0
  -21.0830   -8.8768   19.8958 H   0  0  0  0  0  0
  -22.3682  -10.9668   19.6161 H   0  0  0  0  0  0
  -21.2006   -7.6145   23.9714 H   0  0  0  0  0  0
  -21.1477   -6.0522   25.9076 H   0  0  0  0  0  0
  -22.0601   -2.7608   23.2851 H   0  0  0  0  0  0
  -22.4117  -11.9907   22.4782 H   0  0  0  0  0  0
  -21.1130  -13.1287   22.2588 H   0  0  0  0  0  0
  -24.6662  -15.8403   20.5008 H   0  0  0  0  0  0
  -26.2807  -15.6169   20.0555 H   0  0  0  0  0  0
  -26.7079  -32.5577   23.1192 H   0  0  0  0  0  0
  -25.0019  -33.9814   25.0482 H   0  0  0  0  0  0
  -22.6821  -31.3066   21.4107 H   0  0  0  0  0  0
  -23.3736  -35.9673   23.3317 H   0  0  0  0  0  0
  -24.3577  -36.8920   22.2050 H   0  0  0  0  0  0
  -23.7247  -37.6545   23.6640 H   0  0  0  0  0  0
  -26.0166  -31.6127   20.5825 H   0  0  0  0  0  0
  -26.8108  -30.9141   21.9667 H   0  0  0  0  0  0
  -28.0996  -29.1699   21.1378 H   0  0  0  0  0  0
  -26.1044  -25.9774   19.0354 H   0  0  0  0  0  0
  -23.9892  -27.2732   19.0582 H   0  0  0  0  0  0
  -23.7073  -30.5882   19.4039 H   0  0  0  0  0  0
  -22.7304  -29.2312   19.8776 H   0  0  0  0  0  0
  -25.1277  -36.1999   25.0836 H   0  0  0  0  0  0
  -20.9946  -28.3215   24.1457 H   0  0  0  0  0  0
  -20.5667  -26.2256   23.3600 H   0  0  0  0  0  0
  -21.6629  -26.7455   22.1210 H   0  0  0  0  0  0
  -19.6897  -25.6313   21.1223 H   0  0  0  0  0  0
  -19.6676  -27.3226   20.6761 H   0  0  0  0  0  0
  -17.4187  -26.6682   21.4027 H   0  0  0  0  0  0
  -18.0312  -26.0068   22.9015 H   0  0  0  0  0  0
  -19.7918  -30.7257   24.2298 H   0  0  0  0  0  0
  -17.5000  -31.6267   24.5174 H   0  0  0  0  0  0
  -15.5338  -30.3000   23.7641 H   0  0  0  0  0  0
  -15.8655  -28.0843   22.7036 H   0  0  0  0  0  0
  -24.5893  -30.7068   25.7815 H   0  0  0  0  0  0
  -24.8954  -32.2852   26.4974 H   0  0  0  0  0  0
  -25.8106  -30.8830   27.0208 H   0  0  0  0  0  0
  -26.2809  -29.6816   24.1127 H   0  0  0  0  0  0
  -27.4096  -29.7282   25.4481 H   0  0  0  0  0  0
  -27.8620  -30.4389   23.9153 H   0  0  0  0  0  0
  -27.2682  -33.3598   26.2097 H   0  0  0  0  0  0
  -28.3827  -32.6904   25.0274 H   0  0  0  0  0  0
  -28.0752  -31.8408   26.5333 H   0  0  0  0  0  0
  -28.2613  -38.0101   24.7506 H   0  0  0  0  0  0
  -28.1062  -36.2636   24.6298 H   0  0  0  0  0  0
  -27.2302  -37.1483   25.8868 H   0  0  0  0  0  0
  -20.9266  -29.8742   21.6976 H   0  0  0  0  0  0
  -26.0188  -38.2881   24.1400 H   0  0  0  0  0  0
  -33.5638  -17.7921   23.3827 H   0  0  0  0  0  0
  -32.7525  -15.6943   22.3676 H   0  0  0  0  0  0
  -32.0325  -19.6670   23.7764 H   0  0  0  0  0  0
  -28.0875  -16.4505   21.4220 H   0  0  0  0  0  0
  -28.0247  -18.1936   21.3717 H   0  0  0  0  0  0
  -27.7131  -17.3450   22.8889 H   0  0  0  0  0  0
  -30.0752  -21.4521   24.1501 H   0  0  0  0  0  0
  -30.8821  -21.1609   22.6163 H   0  0  0  0  0  0
  -30.4942  -23.5700   22.0535 H   0  0  0  0  0  0
  -29.3803  -23.9737   23.3434 H   0  0  0  0  0  0
  -29.3114  -14.8539   21.9704 H   0  0  0  0  0  0
  -28.4772  -19.6697   22.7108 H   0  0  0  0  0  0
  -27.6706  -24.2933   21.6069 H   0  0  0  0  0  0
  1 25  1  0  0  0
  1 30  2  0  0  0
  1 81  1  0  0  0
  2  3  1  0  0  0
  2 25  1  0  0  0
  2 88  1  0  0  0
  2 89  1  0  0  0
  3  4  1  0  0  0
  3 90  1  0  0  0
  3 91  1  0  0  0
  4  5  1  0  0  0
  4 92  1  0  0  0
  4 93  1  0  0  0
  5  6  1  0  0  0
  5 26  1  0  0  0
  5 94  1  0  0  0
  6 25  1  0  0  0
  6 95  1  0  0  0
  6 96  1  0  0  0
  7  8  2  0  0  0
  7 26  1  0  0  0
  7 29  1  0  0  0
  8  9  1  0  0  0
  8 22  1  0  0  0
  9 10  1  0  0  0
  9 27  2  0  0  0
 10 11  2  0  0  0
 10 15  1  0  0  0
 11 12  1  0  0  0
 11 97  1  0  0  0
 12 13  2  0  0  0
 12 98  1  0  0  0
 13 14  1  0  0  0
 13 31  1  0  0  0
 14 15  2  0  0  0
 14 99  1  0  0  0
 15100  1  0  0  0
 16 17  2  0  0  0
 16 21  1  0  0  0
 16 31  1  0  0  0
 17 18  1  0  0  0
 17101  1  0  0  0
 18 19  2  0  0  0
 18102  1  0  0  0
 19 20  1  0  0  0
 19 24  1  0  0  0
 20 21  2  0  0  0
 20103  1  0  0  0
 21 23  1  0  0  0
 22 28  1  0  0  0
 22 32  2  0  0  0
 26 27  1  0  0  0
 28104  1  0  0  0
 28105  1  0  0  0
 29106  1  0  0  0
 29107  1  0  0  0
 33 34  1  0  0  0
 33 66  1  0  0  0
 33 70  2  0  0  0
 34 36  1  0  0  0
 34 59  1  0  0  0
 34108  1  0  0  0
 35 44  2  0  0  0
 35 45  1  0  0  0
 35 68  1  0  0  0
 36 56  1  0  0  0
 36109  1  0  0  0
 37 39  1  0  0  0
 37 47  1  0  0  0
 37 66  1  0  0  0
 37110  1  0  0  0
 38 43  2  0  0  0
 38 46  1  0  0  0
 38 47  1  0  0  0
 39 64  1  0  0  0
 39 67  2  0  0  0
 40 52  1  0  0  0
 40 53  2  0  0  0
 40 58  1  0  0  0
 41111  1  0  0  0
 41112  1  0  0  0
 41113  1  0  0  0
 41 48  1  0  0  0
 42 43  1  0  0  0
 42 66  1  0  0  0
 42114  1  0  0  0
 42115  1  0  0  0
 43 44  1  0  0  0
 44116  1  0  0  0
 45 46  2  0  0  0
 45117  1  0  0  0
 46118  1  0  0  0
 47119  1  0  0  0
 47120  1  0  0  0
 48 56  1  0  0  0
 48 65  1  0  0  0
 48121  1  0  0  0
 49 50  1  0  0  0
 49 53  1  0  0  0
 49 64  1  0  0  0
 49122  1  0  0  0
 50 51  1  0  0  0
 50123  1  0  0  0
 50124  1  0  0  0
 51 52  1  0  0  0
 51125  1  0  0  0
 51126  1  0  0  0
 52127  1  0  0  0
 52128  1  0  0  0
 53 54  1  0  0  0
 54 55  2  0  0  0
 54129  1  0  0  0
 55 57  1  0  0  0
 55130  1  0  0  0
 56 69  2  0  0  0
 57 58  2  0  0  0
 57131  1  0  0  0
 58132  1  0  0  0
 59 60  1  0  0  0
 59 61  1  0  0  0
 59 62  1  0  0  0
 60133  1  0  0  0
 60134  1  0  0  0
 60135  1  0  0  0
 61136  1  0  0  0
 61137  1  0  0  0
 61138  1  0  0  0
 62139  1  0  0  0
 62140  1  0  0  0
 62141  1  0  0  0
 63 65  1  0  0  0
 63142  1  0  0  0
 63143  1  0  0  0
 63144  1  0  0  0
 64145  1  0  0  0
 65146  1  0  0  0
 68 87  1  0  0  0
 71 72  2  0  0  0
 71 73  1  0  0  0
 71147  1  0  0  0
 72 75  1  0  0  0
 72148  1  0  0  0
 73 76  2  0  0  0
 73149  1  0  0  0
 74 75  2  0  0  0
 74 76  1  0  0  0
 74 78  1  0  0  0
 75 81  1  0  0  0
 76 82  1  0  0  0
 77 79  1  0  0  0
 77 80  1  0  0  0
 77 84  2  0  0  0
 78150  1  0  0  0
 78151  1  0  0  0
 78152  1  0  0  0
 79 82  1  0  0  0
 79153  1  0  0  0
 79154  1  0  0  0
 80 83  1  0  0  0
 80155  1  0  0  0
 80156  1  0  0  0
 81157  1  0  0  0
 82158  1  0  0  0
 83159  1  0  0  0
 83 87  1  0  0  0
 85 87  2  0  0  0
 86 87  2  0  0  0
M  ISO  4   1 100  68 101  81 100  87 101
M  END
> <chiral flag>
0

> <version>
0

> <s_m_source_file>
/data/baiqing/PycharmProjects/Reinvent-master-3.2/result/LINK_invent/BTK/process_docking_weight1_custom_product_contain_oxygen_bond_distance_aromatic_linkinvent_7_9_3/rearranged_h_0056.sdf

> <i_m_source_file_index>
64

> <r_mmod_Potential_Energy-OPLS-2005>
-320.895782470703

> <r_mmod_Stretch_Energy-OPLS-2005>
33.6651649475098

> <r_mmod_Bend_Energy-OPLS-2005>
93.1340484619141

> <r_mmod_Torsional_Energy-OPLS-2005>
222.812072753906

> <r_mmod_Improper_Torsional_Energy-OPLS-2005>
11.2480163574219

> <r_mmod_Van_der_Waal_Energy-OPLS-2005>
155.767684936523

> <r_mmod_Electrostatic_Energy-OPLS-2005>
-584.687683105469

> <r_mmod_Solvation_Energy-OPLS-2005>
-259.112884521484

> <b_mmod_Minimization_Converged-OPLS-2005>
0

> <r_mmod_RMS_Derivative-OPLS-2005>
0.640843093395233

$$$$
64
                    3D
 Structure written by MMmdl.
175183  0  0  1  0            999 V2000
  -30.7621  -14.3818   20.6721 C   0  0  0  0  0  0
  -30.4157  -12.2909   19.4082 C   0  0  0  0  0  0
  -29.4844  -12.5070   18.2004 C   0  0  0  0  0  0
  -28.0095  -12.3637   18.6176 C   0  0  0  0  0  0
  -27.6632  -13.2000   19.8772 C   0  0  2  0  0  0
  -28.6996  -12.9594   20.9978 C   0  0  0  0  0  0
  -25.2596  -13.8158   20.5665 C   0  0  0  0  0  0
  -24.1837  -13.0443   20.9166 C   0  0  0  0  0  0
  -24.6377  -11.6907   20.8728 C   0  0  0  0  0  0
  -23.9042  -10.4299   21.0411 C   0  0  0  0  0  0
  -24.3600   -9.4217   21.9188 C   0  0  0  0  0  0
  -23.6284   -8.2246   22.0755 C   0  0  0  0  0  0
  -22.4271   -8.0279   21.3542 C   0  0  0  0  0  0
  -21.9903   -9.0246   20.4642 C   0  0  0  0  0  0
  -22.7221  -10.2135   20.3053 C   0  0  0  0  0  0
  -21.6850   -6.0732   22.5277 C   0  0  0  0  0  0
  -21.4011   -6.5639   23.8210 C   0  0  0  0  0  0
  -21.3658   -5.6793   24.9176 C   0  0  0  0  0  0
  -21.6044   -4.3054   24.7233 C   0  0  0  0  0  0
  -21.8821   -3.8145   23.4350 C   0  0  0  0  0  0
  -21.9194   -4.6957   22.3405 C   0  0  0  0  0  0
  -22.7862  -13.5252   21.1836 C   0  0  0  0  0  0
  -22.1663   -4.2141   21.0981 F   0  0  0  0  0  0
  -21.5632   -3.4539   25.7747 F   0  0  0  0  0  0
  -30.0417  -13.2492   20.4595 N   0  0  0  0  0  0
  -26.3018  -12.9310   20.3363 N   0  0  0  0  0  0
  -25.9296  -11.6477   20.5757 N   0  0  0  0  0  0
  -22.0501  -12.8231   22.0385 N   0  0  0  0  0  0
  -25.4370  -15.1864   20.4064 N   0  0  0  0  0  0
  -31.8046  -14.6314   20.0591 O   0  0  0  0  0  0
  -21.6640   -6.8873   21.4239 O   0  0  0  0  0  0
  -22.3553  -14.5568   20.6700 O   0  0  0  0  0  0
  -24.6100  -31.8721   23.2133 C   0  0  0  0  0  0
  -25.9020  -32.4846   23.8411 C   0  0  1  0  0  0
  -27.2497  -27.4749   20.1026 C   0  0  0  0  0  0
  -25.5890  -33.8644   24.2345 N   0  0  0  0  0  0
  -23.3952  -30.4926   21.5519 C   0  0  2  0  0  0
  -24.8471  -28.9628   20.1173 C   0  0  0  0  0  0
  -22.7381  -29.4669   22.5020 C   0  0  0  0  0  0
  -18.0265  -28.1352   22.8498 C   0  0  0  0  0  0
  -24.1488  -36.7306   23.2639 C   0  0  0  0  0  0
  -25.9180  -30.8519   21.3587 C   0  0  0  0  0  0
  -26.0004  -29.4865   20.7135 C   0  0  0  0  0  0
  -27.2027  -28.7503   20.7120 C   0  0  0  0  0  0
  -26.0840  -26.9649   19.4956 C   0  0  0  0  0  0
  -24.8806  -27.6956   19.5072 C   0  0  0  0  0  0
  -23.6038  -29.8223   20.1669 C   0  0  0  0  0  0
  -25.4101  -36.3121   24.0350 C   0  0  1  0  0  0
  -20.5852  -28.3641   23.1327 C   0  0  2  0  0  0
  -20.6752  -26.9382   22.5413 C   0  0  0  0  0  0
  -19.5733  -26.6378   21.5200 C   0  0  0  0  0  0
  -18.1914  -26.7906   22.1614 C   0  0  0  0  0  0
  -19.1513  -28.8812   23.2914 C   0  0  0  0  0  0
  -18.9451  -30.1425   23.8923 C   0  0  0  0  0  0
  -17.6454  -30.6578   24.0558 C   0  0  0  0  0  0
  -25.9025  -34.9494   23.5140 C   0  0  0  0  0  0
  -16.5345  -29.9076   23.6317 C   0  0  0  0  0  0
  -16.7256  -28.6480   23.0357 C   0  0  0  0  0  0
  -26.4471  -31.6605   25.0710 C   0  0  0  0  0  0
  -25.3762  -31.3673   26.1474 C   0  0  0  0  0  0
  -27.0273  -30.3059   24.6006 C   0  0  0  0  0  0
  -27.6062  -32.4310   25.7475 C   0  0  0  0  0  0
  -27.5584  -37.1804   24.8459 C   0  0  0  0  0  0
  -21.4115  -29.3013   22.3747 N   0  0  0  0  0  0
  -26.4286  -37.3808   23.9423 N   0  0  0  0  0  0
  -24.6587  -31.0855   22.1012 N   0  0  0  0  0  0
  -23.4174  -28.8237   23.3062 O   0  0  0  0  0  0
  -28.3770  -26.6885   20.0521 O   0  0  0  0  0  0
  -26.5587  -34.8943   22.4699 O   0  0  0  0  0  0
  -23.5307  -32.1447   23.7558 O   0  0  0  0  0  0
  -32.6296  -18.0210   22.4214 C   0  0  0  0  0  0
  -32.1579  -16.7424   22.0748 C   0  0  0  0  0  0
  -29.8632  -17.5404   22.2518 C   0  0  0  0  0  0
  -30.3326  -18.8354   22.5707 C   0  0  0  0  0  0
  -31.7299  -19.0806   22.6636 C   0  0  0  0  0  0
  -30.7688  -16.4968   21.9633 C   0  0  0  0  0  0
  -29.3437  -19.8990   22.7539 C   0  0  0  0  0  0
  -29.5956  -23.2268   21.3435 C   0  0  0  0  0  0
  -32.3014  -20.4409   23.0509 C   0  0  0  0  0  0
  -26.5053  -23.3716   20.9065 C   0  0  0  0  0  0
  -27.6175  -21.5811   19.5480 C   0  0  0  0  0  0
  -26.3104  -21.0019   21.5939 C   0  0  0  0  0  0
  -30.2213  -25.6239   21.1503 C   0  0  0  0  0  0
  -29.3871  -26.9071   21.0318 C   0  0  0  0  0  0
  -28.5735  -22.1908   21.8722 C   0  0  1  0  0  0
  -27.2813  -22.0376   20.9855 C   0  0  0  0  0  0
  -28.4351  -19.8148   23.7236 N   0  0  0  0  0  0
  -30.2508  -15.2258   21.5853 N   0  0  0  0  0  0
  -29.3959  -24.5161   21.6311 N   0  0  0  0  0  0
  -29.3560  -20.9464   21.9221 N   0  3  0  0  0  0
  -30.5701  -22.8407   20.6877 O   0  0  0  0  0  0
  -31.4592  -12.3879   19.1016 H   0  0  0  0  0  0
  -30.3173  -11.2740   19.7904 H   0  0  0  0  0  0
  -29.7198  -11.7879   17.4143 H   0  0  0  0  0  0
  -29.6530  -13.4963   17.7720 H   0  0  0  0  0  0
  -27.8240  -11.3066   18.8136 H   0  0  0  0  0  0
  -27.3541  -12.6369   17.7905 H   0  0  0  0  0  0
  -27.7185  -14.2505   19.5908 H   0  0  0  0  0  0
  -28.6623  -11.9201   21.3271 H   0  0  0  0  0  0
  -28.4428  -13.5461   21.8800 H   0  0  0  0  0  0
  -25.2745   -9.5697   22.4759 H   0  0  0  0  0  0
  -23.9997   -7.4642   22.7478 H   0  0  0  0  0  0
  -21.0837   -8.8753   19.8945 H   0  0  0  0  0  0
  -22.3675  -10.9664   19.6154 H   0  0  0  0  0  0
  -21.1999   -7.6149   23.9709 H   0  0  0  0  0  0
  -21.1478   -6.0528   25.9078 H   0  0  0  0  0  0
  -22.0601   -2.7604   23.2857 H   0  0  0  0  0  0
  -22.4112  -11.9877   22.4746 H   0  0  0  0  0  0
  -21.1112  -13.1244   22.2595 H   0  0  0  0  0  0
  -24.6766  -15.8490   20.5097 H   0  0  0  0  0  0
  -26.2942  -15.6140   20.0786 H   0  0  0  0  0  0
  -26.7097  -32.5593   23.1196 H   0  0  0  0  0  0
  -25.0095  -33.9816   25.0522 H   0  0  0  0  0  0
  -22.6808  -31.3069   21.4125 H   0  0  0  0  0  0
  -23.3777  -35.9609   23.3278 H   0  0  0  0  0  0
  -24.3599  -36.8933   22.2054 H   0  0  0  0  0  0
  -23.7206  -37.6494   23.6660 H   0  0  0  0  0  0
  -26.0167  -31.6187   20.5892 H   0  0  0  0  0  0
  -26.8100  -30.9146   21.9696 H   0  0  0  0  0  0
  -28.0836  -29.1776   21.1707 H   0  0  0  0  0  0
  -26.1109  -25.9954   19.0201 H   0  0  0  0  0  0
  -23.9955  -27.2828   19.0425 H   0  0  0  0  0  0
  -23.7051  -30.5963   19.4057 H   0  0  0  0  0  0
  -22.7316  -29.2347   19.8749 H   0  0  0  0  0  0
  -25.1271  -36.1990   25.0841 H   0  0  0  0  0  0
  -20.9941  -28.3210   24.1446 H   0  0  0  0  0  0
  -20.5650  -26.2248   23.3594 H   0  0  0  0  0  0
  -21.6631  -26.7437   22.1209 H   0  0  0  0  0  0
  -19.6908  -25.6295   21.1214 H   0  0  0  0  0  0
  -19.6676  -27.3202   20.6743 H   0  0  0  0  0  0
  -17.4180  -26.6662   21.4010 H   0  0  0  0  0  0
  -18.0312  -26.0029   22.8985 H   0  0  0  0  0  0
  -19.7935  -30.7214   24.2311 H   0  0  0  0  0  0
  -17.5020  -31.6266   24.5153 H   0  0  0  0  0  0
  -15.5348  -30.2991   23.7628 H   0  0  0  0  0  0
  -15.8650  -28.0811   22.7072 H   0  0  0  0  0  0
  -24.5939  -30.7013   25.7813 H   0  0  0  0  0  0
  -24.8959  -32.2814   26.4971 H   0  0  0  0  0  0
  -25.8156  -30.8817   27.0198 H   0  0  0  0  0  0
  -26.2761  -29.6839   24.1128 H   0  0  0  0  0  0
  -27.4132  -29.7275   25.4407 H   0  0  0  0  0  0
  -27.8567  -30.4378   23.9060 H   0  0  0  0  0  0
  -27.2687  -33.3609   26.2072 H   0  0  0  0  0  0
  -28.3882  -32.6869   25.0309 H   0  0  0  0  0  0
  -28.0717  -31.8409   26.5380 H   0  0  0  0  0  0
  -28.2587  -38.0123   24.7583 H   0  0  0  0  0  0
  -28.1112  -36.2670   24.6206 H   0  0  0  0  0  0
  -27.2323  -37.1353   25.8867 H   0  0  0  0  0  0
  -20.9269  -29.8722   21.6963 H   0  0  0  0  0  0
  -26.0185  -38.2885   24.1464 H   0  0  0  0  0  0
  -33.6968  -18.1790   22.4934 H   0  0  0  0  0  0
  -32.8799  -15.9587   21.8959 H   0  0  0  0  0  0
  -28.7980  -17.3662   22.1785 H   0  0  0  0  0  0
  -33.3707  -20.3779   23.2568 H   0  0  0  0  0  0
  -31.8238  -20.8253   23.9531 H   0  0  0  0  0  0
  -32.1687  -21.1686   22.2505 H   0  0  0  0  0  0
  -25.5545  -23.2510   20.3866 H   0  0  0  0  0  0
  -27.0569  -24.1367   20.3597 H   0  0  0  0  0  0
  -26.2821  -23.7663   21.8986 H   0  0  0  0  0  0
  -26.7151  -21.4921   18.9426 H   0  0  0  0  0  0
  -28.1040  -20.6048   19.5363 H   0  0  0  0  0  0
  -28.2762  -22.2813   19.0343 H   0  0  0  0  0  0
  -25.3676  -20.9686   21.0461 H   0  0  0  0  0  0
  -26.0662  -21.2355   22.6305 H   0  0  0  0  0  0
  -26.7145  -19.9904   21.5627 H   0  0  0  0  0  0
  -31.0475  -25.7745   21.8450 H   0  0  0  0  0  0
  -30.6626  -25.3899   20.1801 H   0  0  0  0  0  0
  -30.0160  -27.7451   20.7258 H   0  0  0  0  0  0
  -28.9587  -27.1507   22.0067 H   0  0  0  0  0  0
  -28.3014  -22.4828   22.8885 H   0  0  0  0  0  0
  -28.4635  -19.0350   24.3623 H   0  0  0  0  0  0
  -27.7483  -20.5351   23.8652 H   0  0  0  0  0  0
  -29.3451  -14.9728   21.9487 H   0  0  0  0  0  0
  -28.5739  -24.7585   22.1681 H   0  0  0  0  0  0
  -30.1213  -20.9960   21.2546 H   0  0  0  0  0  0
  1 25  1  0  0  0
  1 30  2  0  0  0
  1 88  1  0  0  0
  2  3  1  0  0  0
  2 25  1  0  0  0
  2 92  1  0  0  0
  2 93  1  0  0  0
  3  4  1  0  0  0
  3 94  1  0  0  0
  3 95  1  0  0  0
  4  5  1  0  0  0
  4 96  1  0  0  0
  4 97  1  0  0  0
  5  6  1  0  0  0
  5 26  1  0  0  0
  5 98  1  0  0  0
  6 25  1  0  0  0
  6 99  1  0  0  0
  6100  1  0  0  0
  7  8  2  0  0  0
  7 26  1  0  0  0
  7 29  1  0  0  0
  8  9  1  0  0  0
  8 22  1  0  0  0
  9 10  1  0  0  0
  9 27  2  0  0  0
 10 11  2  0  0  0
 10 15  1  0  0  0
 11 12  1  0  0  0
 11101  1  0  0  0
 12 13  2  0  0  0
 12102  1  0  0  0
 13 14  1  0  0  0
 13 31  1  0  0  0
 14 15  2  0  0  0
 14103  1  0  0  0
 15104  1  0  0  0
 16 17  2  0  0  0
 16 21  1  0  0  0
 16 31  1  0  0  0
 17 18  1  0  0  0
 17105  1  0  0  0
 18 19  2  0  0  0
 18106  1  0  0  0
 19 20  1  0  0  0
 19 24  1  0  0  0
 20 21  2  0  0  0
 20107  1  0  0  0
 21 23  1  0  0  0
 22 28  1  0  0  0
 22 32  2  0  0  0
 26 27  1  0  0  0
 28108  1  0  0  0
 28109  1  0  0  0
 29110  1  0  0  0
 29111  1  0  0  0
 33 34  1  0  0  0
 33 66  1  0  0  0
 33 70  2  0  0  0
 34 36  1  0  0  0
 34 59  1  0  0  0
 34112  1  0  0  0
 35 44  2  0  0  0
 35 45  1  0  0  0
 35 68  1  0  0  0
 36 56  1  0  0  0
 36113  1  0  0  0
 37 39  1  0  0  0
 37 47  1  0  0  0
 37 66  1  0  0  0
 37114  1  0  0  0
 38 43  2  0  0  0
 38 46  1  0  0  0
 38 47  1  0  0  0
 39 64  1  0  0  0
 39 67  2  0  0  0
 40 52  1  0  0  0
 40 53  2  0  0  0
 40 58  1  0  0  0
 41115  1  0  0  0
 41116  1  0  0  0
 41117  1  0  0  0
 41 48  1  0  0  0
 42 43  1  0  0  0
 42 66  1  0  0  0
 42118  1  0  0  0
 42119  1  0  0  0
 43 44  1  0  0  0
 44120  1  0  0  0
 45 46  2  0  0  0
 45121  1  0  0  0
 46122  1  0  0  0
 47123  1  0  0  0
 47124  1  0  0  0
 48 56  1  0  0  0
 48 65  1  0  0  0
 48125  1  0  0  0
 49 50  1  0  0  0
 49 53  1  0  0  0
 49 64  1  0  0  0
 49126  1  0  0  0
 50 51  1  0  0  0
 50127  1  0  0  0
 50128  1  0  0  0
 51 52  1  0  0  0
 51129  1  0  0  0
 51130  1  0  0  0
 52131  1  0  0  0
 52132  1  0  0  0
 53 54  1  0  0  0
 54 55  2  0  0  0
 54133  1  0  0  0
 55 57  1  0  0  0
 55134  1  0  0  0
 56 69  2  0  0  0
 57 58  2  0  0  0
 57135  1  0  0  0
 58136  1  0  0  0
 59 60  1  0  0  0
 59 61  1  0  0  0
 59 62  1  0  0  0
 60137  1  0  0  0
 60138  1  0  0  0
 60139  1  0  0  0
 61140  1  0  0  0
 61141  1  0  0  0
 61142  1  0  0  0
 62143  1  0  0  0
 62144  1  0  0  0
 62145  1  0  0  0
 63 65  1  0  0  0
 63146  1  0  0  0
 63147  1  0  0  0
 63148  1  0  0  0
 64149  1  0  0  0
 65150  1  0  0  0
 68 84  1  0  0  0
 71 72  2  0  0  0
 71 75  1  0  0  0
 71151  1  0  0  0
 72 76  1  0  0  0
 72152  1  0  0  0
 73 74  1  0  0  0
 73 76  2  0  0  0
 73153  1  0  0  0
 74 75  2  0  0  0
 74 77  1  0  0  0
 75 79  1  0  0  0
 76 88  1  0  0  0
 77 87  1  0  0  0
 77 90  2  0  0  0
 78 85  1  0  0  0
 78 89  1  0  0  0
 78 91  2  0  0  0
 79154  1  0  0  0
 79155  1  0  0  0
 79156  1  0  0  0
 80157  1  0  0  0
 80158  1  0  0  0
 80159  1  0  0  0
 80 86  1  0  0  0
 81 86  1  0  0  0
 81160  1  0  0  0
 81161  1  0  0  0
 81162  1  0  0  0
 82 86  1  0  0  0
 82163  1  0  0  0
 82164  1  0  0  0
 82165  1  0  0  0
 83 84  1  0  0  0
 83 89  1  0  0  0
 83166  1  0  0  0
 83167  1  0  0  0
 84168  1  0  0  0
 84169  1  0  0  0
 85 86  1  0  0  0
 85 90  1  0  0  0
 85170  1  0  0  0
 87171  1  0  0  0
 87172  1  0  0  0
 88173  1  0  0  0
 89174  1  0  0  0
 90175  1  0  0  0
M  CHG  1  90   1
M  ISO  4   1 100  68 101  84 101  88 100
M  END
> <chiral flag>
0

> <version>
0

> <s_m_source_file>
/data/baiqing/PycharmProjects/Reinvent-master-3.2/result/LINK_invent/BTK/process_docking_weight1_custom_product_contain_oxygen_bond_distance_aromatic_linkinvent_7_9_3/rearranged_h_0056.sdf

> <i_m_source_file_index>
65

> <r_mmod_Potential_Energy-OPLS-2005>
-437.039825439453

> <r_mmod_Stretch_Energy-OPLS-2005>
37.5139427185059

> <r_mmod_Bend_Energy-OPLS-2005>
114.309364318848

> <r_mmod_Torsional_Energy-OPLS-2005>
230.701416015625

> <r_mmod_Improper_Torsional_Energy-OPLS-2005>
2.22153115272522

> <r_mmod_Van_der_Waal_Energy-OPLS-2005>
168.399276733398

> <r_mmod_Electrostatic_Energy-OPLS-2005>
-588.549499511719

> <r_mmod_Solvation_Energy-OPLS-2005>
-408.130767822266

> <b_mmod_Minimization_Converged-OPLS-2005>
0

> <r_mmod_RMS_Derivative-OPLS-2005>
1.74008059501648

$$$$
65
                    3D
 Structure written by MMmdl.
169177  0  0  1  0            999 V2000
  -30.7429  -14.5070   20.6060 C   0  0  0  0  0  0
  -30.3937  -12.3760   19.4152 C   0  0  0  0  0  0
  -29.4654  -12.5466   18.1949 C   0  0  0  0  0  0
  -27.9850  -12.4186   18.5983 C   0  0  0  0  0  0
  -27.6449  -13.2286   19.8751 C   0  0  2  0  0  0
  -28.6958  -12.9854   20.9750 C   0  0  0  0  0  0
  -25.2551  -13.8227   20.5807 C   0  0  0  0  0  0
  -24.1810  -13.0469   20.9238 C   0  0  0  0  0  0
  -24.6386  -11.6944   20.8774 C   0  0  0  0  0  0
  -23.9057  -10.4309   21.0398 C   0  0  0  0  0  0
  -24.3604   -9.4226   21.9189 C   0  0  0  0  0  0
  -23.6294   -8.2254   22.0759 C   0  0  0  0  0  0
  -22.4289   -8.0294   21.3515 C   0  0  0  0  0  0
  -21.9896   -9.0273   20.4623 C   0  0  0  0  0  0
  -22.7212  -10.2166   20.3039 C   0  0  0  0  0  0
  -21.6834   -6.0755   22.5302 C   0  0  0  0  0  0
  -21.3999   -6.5648   23.8239 C   0  0  0  0  0  0
  -21.3675   -5.6794   24.9196 C   0  0  0  0  0  0
  -21.6032   -4.3055   24.7231 C   0  0  0  0  0  0
  -21.8815   -3.8163   23.4339 C   0  0  0  0  0  0
  -21.9188   -4.6992   22.3408 C   0  0  0  0  0  0
  -22.7817  -13.5248   21.1811 C   0  0  0  0  0  0
  -22.1666   -4.2175   21.0983 F   0  0  0  0  0  0
  -21.5628   -3.4546   25.7742 F   0  0  0  0  0  0
  -29.9945  -13.3707   20.4395 N   0  0  0  0  0  0
  -26.2954  -12.9407   20.3421 N   0  0  0  0  0  0
  -25.9286  -11.6568   20.5795 N   0  0  0  0  0  0
  -22.0444  -12.8287   22.0389 N   0  0  0  0  0  0
  -25.4251  -15.1958   20.4263 N   0  0  0  0  0  0
  -31.8528  -14.5958   20.0831 O   0  0  0  0  0  0
  -21.6631   -6.8888   21.4247 O   0  0  0  0  0  0
  -22.3519  -14.5535   20.6615 O   0  0  0  0  0  0
  -24.6146  -31.8684   23.2148 C   0  0  0  0  0  0
  -25.9066  -32.4824   23.8429 C   0  0  1  0  0  0
  -27.2312  -27.4378   20.0863 C   0  0  0  0  0  0
  -25.5946  -33.8612   24.2356 N   0  0  0  0  0  0
  -23.4003  -30.4970   21.5524 C   0  0  2  0  0  0
  -24.8443  -28.9612   20.1213 C   0  0  0  0  0  0
  -22.7360  -29.4729   22.4975 C   0  0  0  0  0  0
  -18.0267  -28.1321   22.8383 C   0  0  0  0  0  0
  -24.1477  -36.7288   23.2634 C   0  0  0  0  0  0
  -25.9292  -30.8361   21.3676 C   0  0  0  0  0  0
  -26.0039  -29.4708   20.7107 C   0  0  0  0  0  0
  -27.1953  -28.7123   20.7004 C   0  0  0  0  0  0
  -26.0419  -26.9378   19.4993 C   0  0  0  0  0  0
  -24.8534  -27.6880   19.5296 C   0  0  0  0  0  0
  -23.6051  -29.8257   20.1666 C   0  0  0  0  0  0
  -25.4098  -36.3073   24.0308 C   0  0  1  0  0  0
  -20.5841  -28.3663   23.1214 C   0  0  2  0  0  0
  -20.6861  -26.9458   22.5235 C   0  0  0  0  0  0
  -19.5783  -26.6319   21.5080 C   0  0  0  0  0  0
  -18.1939  -26.7875   22.1492 C   0  0  0  0  0  0
  -19.1486  -28.8815   23.2807 C   0  0  0  0  0  0
  -18.9342  -30.1393   23.8883 C   0  0  0  0  0  0
  -17.6361  -30.6465   24.0586 C   0  0  0  0  0  0
  -25.9013  -34.9451   23.5105 C   0  0  0  0  0  0
  -16.5285  -29.8940   23.6301 C   0  0  0  0  0  0
  -16.7237  -28.6427   23.0225 C   0  0  0  0  0  0
  -26.4482  -31.6633   25.0774 C   0  0  0  0  0  0
  -25.3771  -31.3756   26.1529 C   0  0  0  0  0  0
  -27.0323  -30.3076   24.6193 C   0  0  0  0  0  0
  -27.6018  -32.4361   25.7561 C   0  0  0  0  0  0
  -27.5565  -37.1814   24.8470 C   0  0  0  0  0  0
  -21.4079  -29.3090   22.3684 N   0  0  0  0  0  0
  -26.4278  -37.3782   23.9398 N   0  0  0  0  0  0
  -24.6644  -31.0794   22.1047 N   0  0  0  0  0  0
  -23.4139  -28.8241   23.3001 O   0  0  0  0  0  0
  -28.4197  -26.7299   20.1002 O   0  0  0  0  0  0
  -26.5535  -34.8882   22.4659 O   0  0  0  0  0  0
  -23.5344  -32.1411   23.7584 O   0  0  0  0  0  0
  -27.6328  -18.2704   23.1737 C   0  0  0  0  0  0
  -28.3375  -15.9884   22.6896 C   0  0  0  0  0  0
  -28.5707  -18.7767   22.2545 C   0  0  0  0  0  0
  -29.3276  -17.8474   21.4623 C   0  0  0  0  0  0
  -29.2466  -16.4377   21.7028 C   0  0  0  0  0  0
  -27.4964  -16.8862   23.3678 C   0  0  0  0  0  0
  -27.8203  -24.3569   20.5169 C   0  0  0  0  0  0
  -28.1117  -23.0348   20.5434 C   0  0  0  0  0  0
  -29.0558  -20.1465   22.5367 C   0  0  0  0  0  0
  -30.3308  -18.3654   20.4320 C   0  0  0  0  0  0
  -25.4155  -20.5515   21.8022 C   0  0  0  0  0  0
  -25.6559  -21.7737   19.6434 C   0  0  0  0  0  0
  -28.4589  -25.3876   19.5897 C   0  0  0  0  0  0
  -27.4497  -22.0099   21.4776 C   0  0  1  0  0  0
  -26.4384  -21.0698   20.7748 C   0  0  0  0  0  0
  -30.1996  -20.1687   23.2167 N   0  0  0  0  0  0
  -30.3638  -15.6592   21.2261 N   0  0  0  0  0  0
  -28.5202  -21.3682   22.2872 N   0  3  0  0  0  0
  -26.6522  -16.4289   24.3227 F   0  0  0  0  0  0
  -31.4295  -12.4737   19.0927 H   0  0  0  0  0  0
  -30.3237  -11.3630   19.8137 H   0  0  0  0  0  0
  -29.7019  -11.8128   17.4232 H   0  0  0  0  0  0
  -29.6281  -13.5277   17.7469 H   0  0  0  0  0  0
  -27.7617  -11.3630   18.7490 H   0  0  0  0  0  0
  -27.3427  -12.7498   17.7835 H   0  0  0  0  0  0
  -27.6824  -14.2838   19.6050 H   0  0  0  0  0  0
  -28.7067  -11.9287   21.2493 H   0  0  0  0  0  0
  -28.4476  -13.4812   21.8905 H   0  0  0  0  0  0
  -25.2755   -9.5726   22.4762 H   0  0  0  0  0  0
  -24.0029   -7.4622   22.7473 H   0  0  0  0  0  0
  -21.0824   -8.8721   19.8921 H   0  0  0  0  0  0
  -22.3622  -10.9685   19.6154 H   0  0  0  0  0  0
  -21.1982   -7.6155   23.9742 H   0  0  0  0  0  0
  -21.1497   -6.0521   25.9082 H   0  0  0  0  0  0
  -22.0575   -2.7626   23.2824 H   0  0  0  0  0  0
  -22.4081  -12.0028   22.4863 H   0  0  0  0  0  0
  -21.1036  -13.1278   22.2519 H   0  0  0  0  0  0
  -24.6392  -15.8317   20.5133 H   0  0  0  0  0  0
  -26.2666  -15.6397   20.0857 H   0  0  0  0  0  0
  -26.7149  -32.5511   23.1182 H   0  0  0  0  0  0
  -25.0214  -33.9811   25.0568 H   0  0  0  0  0  0
  -22.6951  -31.3192   21.4096 H   0  0  0  0  0  0
  -23.3738  -35.9645   23.3316 H   0  0  0  0  0  0
  -24.3580  -36.8894   22.2065 H   0  0  0  0  0  0
  -23.7257  -37.6493   23.6633 H   0  0  0  0  0  0
  -26.0446  -31.6049   20.6024 H   0  0  0  0  0  0
  -26.8148  -30.8823   21.9872 H   0  0  0  0  0  0
  -28.0908  -29.0989   21.1675 H   0  0  0  0  0  0
  -26.0008  -25.9681   19.0269 H   0  0  0  0  0  0
  -23.9499  -27.2877   19.0909 H   0  0  0  0  0  0
  -23.6995  -30.5958   19.4005 H   0  0  0  0  0  0
  -22.7354  -29.2301   19.8792 H   0  0  0  0  0  0
  -25.1304  -36.1929   25.0805 H   0  0  0  0  0  0
  -20.9915  -28.3244   24.1309 H   0  0  0  0  0  0
  -21.6726  -26.7809   22.0865 H   0  0  0  0  0  0
  -20.6070  -26.2269   23.3403 H   0  0  0  0  0  0
  -19.6971  -25.6283   21.1026 H   0  0  0  0  0  0
  -19.6650  -27.3135   20.6635 H   0  0  0  0  0  0
  -17.4181  -26.6655   21.3925 H   0  0  0  0  0  0
  -18.0312  -26.0027   22.8902 H   0  0  0  0  0  0
  -19.7756  -30.7290   24.2304 H   0  0  0  0  0  0
  -17.4850  -31.6034   24.5419 H   0  0  0  0  0  0
  -15.5290  -30.2766   23.7777 H   0  0  0  0  0  0
  -15.8694  -28.0689   22.6837 H   0  0  0  0  0  0
  -24.5903  -30.7124   25.7912 H   0  0  0  0  0  0
  -24.9001  -32.2913   26.5017 H   0  0  0  0  0  0
  -25.8155  -30.8922   27.0276 H   0  0  0  0  0  0
  -26.2908  -29.6859   24.1160 H   0  0  0  0  0  0
  -27.3978  -29.7287   25.4703 H   0  0  0  0  0  0
  -27.8779  -30.4368   23.9432 H   0  0  0  0  0  0
  -27.2589  -33.3623   26.2169 H   0  0  0  0  0  0
  -28.3828  -32.7016   25.0430 H   0  0  0  0  0  0
  -28.0661  -31.8495   26.5483 H   0  0  0  0  0  0
  -28.2594  -38.0094   24.7492 H   0  0  0  0  0  0
  -28.1018  -36.2636   24.6307 H   0  0  0  0  0  0
  -27.2262  -37.1500   25.8860 H   0  0  0  0  0  0
  -20.9239  -29.8613   21.6763 H   0  0  0  0  0  0
  -26.0141  -38.2842   24.1444 H   0  0  0  0  0  0
  -27.1215  -18.9336   23.8561 H   0  0  0  0  0  0
  -28.3237  -14.9889   23.0758 H   0  0  0  0  0  0
  -27.0602  -24.7360   21.1823 H   0  0  0  0  0  0
  -28.8565  -22.6573   19.8609 H   0  0  0  0  0  0
  -30.0916  -19.3772   20.1095 H   0  0  0  0  0  0
  -30.3238  -17.7417   19.5364 H   0  0  0  0  0  0
  -31.3407  -18.3699   20.8360 H   0  0  0  0  0  0
  -24.7914  -19.7616   21.3787 H   0  0  0  0  0  0
  -24.7511  -21.3482   22.1435 H   0  0  0  0  0  0
  -25.8878  -20.1603   22.6915 H   0  0  0  0  0  0
  -24.8504  -21.1424   19.2683 H   0  0  0  0  0  0
  -26.2939  -22.0031   18.7902 H   0  0  0  0  0  0
  -25.2088  -22.7070   19.9889 H   0  0  0  0  0  0
  -28.0282  -25.3445   18.5913 H   0  0  0  0  0  0
  -29.5073  -25.1249   19.4587 H   0  0  0  0  0  0
  -26.8789  -22.6137   22.1863 H   0  0  0  0  0  0
  -26.9700  -20.2254   20.3369 H   0  0  0  0  0  0
  -30.6085  -19.2808   23.4712 H   0  0  0  0  0  0
  -30.7054  -21.0047   23.4656 H   0  0  0  0  0  0
  -31.1403  -16.2760   21.0565 H   0  0  0  0  0  0
  -28.9359  -22.0927   22.8554 H   0  0  0  0  0  0
  1 25  1  0  0  0
  1 30  2  0  0  0
  1 87  1  0  0  0
  2  3  1  0  0  0
  2 25  1  0  0  0
  2 90  1  0  0  0
  2 91  1  0  0  0
  3  4  1  0  0  0
  3 92  1  0  0  0
  3 93  1  0  0  0
  4  5  1  0  0  0
  4 94  1  0  0  0
  4 95  1  0  0  0
  5  6  1  0  0  0
  5 26  1  0  0  0
  5 96  1  0  0  0
  6 25  1  0  0  0
  6 97  1  0  0  0
  6 98  1  0  0  0
  7  8  2  0  0  0
  7 26  1  0  0  0
  7 29  1  0  0  0
  8  9  1  0  0  0
  8 22  1  0  0  0
  9 10  1  0  0  0
  9 27  2  0  0  0
 10 11  2  0  0  0
 10 15  1  0  0  0
 11 12  1  0  0  0
 11 99  1  0  0  0
 12 13  2  0  0  0
 12100  1  0  0  0
 13 14  1  0  0  0
 13 31  1  0  0  0
 14 15  2  0  0  0
 14101  1  0  0  0
 15102  1  0  0  0
 16 17  2  0  0  0
 16 21  1  0  0  0
 16 31  1  0  0  0
 17 18  1  0  0  0
 17103  1  0  0  0
 18 19  2  0  0  0
 18104  1  0  0  0
 19 20  1  0  0  0
 19 24  1  0  0  0
 20 21  2  0  0  0
 20105  1  0  0  0
 21 23  1  0  0  0
 22 28  1  0  0  0
 22 32  2  0  0  0
 26 27  1  0  0  0
 28106  1  0  0  0
 28107  1  0  0  0
 29108  1  0  0  0
 29109  1  0  0  0
 33 34  1  0  0  0
 33 66  1  0  0  0
 33 70  2  0  0  0
 34 36  1  0  0  0
 34 59  1  0  0  0
 34110  1  0  0  0
 35 44  2  0  0  0
 35 45  1  0  0  0
 35 68  1  0  0  0
 36 56  1  0  0  0
 36111  1  0  0  0
 37 39  1  0  0  0
 37 47  1  0  0  0
 37 66  1  0  0  0
 37112  1  0  0  0
 38 43  2  0  0  0
 38 46  1  0  0  0
 38 47  1  0  0  0
 39 64  1  0  0  0
 39 67  2  0  0  0
 40 52  1  0  0  0
 40 53  2  0  0  0
 40 58  1  0  0  0
 41113  1  0  0  0
 41114  1  0  0  0
 41115  1  0  0  0
 41 48  1  0  0  0
 42 43  1  0  0  0
 42 66  1  0  0  0
 42116  1  0  0  0
 42117  1  0  0  0
 43 44  1  0  0  0
 44118  1  0  0  0
 45 46  2  0  0  0
 45119  1  0  0  0
 46120  1  0  0  0
 47121  1  0  0  0
 47122  1  0  0  0
 48 56  1  0  0  0
 48 65  1  0  0  0
 48123  1  0  0  0
 49 50  1  0  0  0
 49 53  1  0  0  0
 49 64  1  0  0  0
 49124  1  0  0  0
 50 51  1  0  0  0
 50125  1  0  0  0
 50126  1  0  0  0
 51 52  1  0  0  0
 51127  1  0  0  0
 51128  1  0  0  0
 52129  1  0  0  0
 52130  1  0  0  0
 53 54  1  0  0  0
 54 55  2  0  0  0
 54131  1  0  0  0
 55 57  1  0  0  0
 55132  1  0  0  0
 56 69  2  0  0  0
 57 58  2  0  0  0
 57133  1  0  0  0
 58134  1  0  0  0
 59 60  1  0  0  0
 59 61  1  0  0  0
 59 62  1  0  0  0
 60135  1  0  0  0
 60136  1  0  0  0
 60137  1  0  0  0
 61138  1  0  0  0
 61139  1  0  0  0
 61140  1  0  0  0
 62141  1  0  0  0
 62142  1  0  0  0
 62143  1  0  0  0
 63 65  1  0  0  0
 63144  1  0  0  0
 63145  1  0  0  0
 63146  1  0  0  0
 64147  1  0  0  0
 65148  1  0  0  0
 68 83  1  0  0  0
 71 73  2  0  0  0
 71 76  1  0  0  0
 71149  1  0  0  0
 72 75  1  0  0  0
 72 76  2  0  0  0
 72150  1  0  0  0
 73 74  1  0  0  0
 73 79  1  0  0  0
 74 75  2  0  0  0
 74 80  1  0  0  0
 75 87  1  0  0  0
 76 89  1  0  0  0
 77 78  2  0  0  0
 77 83  1  0  0  0
 77151  1  0  0  0
 78152  1  0  0  0
 78 84  1  0  0  0
 79 86  1  0  0  0
 79 88  2  0  0  0
 80153  1  0  0  0
 80154  1  0  0  0
 80155  1  0  0  0
 81156  1  0  0  0
 81157  1  0  0  0
 81158  1  0  0  0
 81 85  1  0  0  0
 82 85  1  0  0  0
 82159  1  0  0  0
 82160  1  0  0  0
 82161  1  0  0  0
 83162  1  0  0  0
 83163  1  0  0  0
 84 85  1  0  0  0
 84 88  1  0  0  0
 84164  1  0  0  0
 85165  1  0  0  0
 86166  1  0  0  0
 86167  1  0  0  0
 87168  1  0  0  0
 88169  1  0  0  0
M  CHG  1  88   1
M  ISO  4   1 100  68 101  83 101  87 100
M  END
> <chiral flag>
0

> <version>
0

> <s_m_source_file>
/data/baiqing/PycharmProjects/Reinvent-master-3.2/result/LINK_invent/BTK/process_docking_weight1_custom_product_contain_oxygen_bond_distance_aromatic_linkinvent_7_9_3/rearranged_h_0056.sdf

> <i_m_source_file_index>
66

> <r_mmod_Potential_Energy-OPLS-2005>
-106.871002197266

> <r_mmod_Stretch_Energy-OPLS-2005>
47.6336479187012

> <r_mmod_Bend_Energy-OPLS-2005>
262.00146484375

> <r_mmod_Torsional_Energy-OPLS-2005>
277.483245849609

> <r_mmod_Improper_Torsional_Energy-OPLS-2005>
14.3537826538086

> <r_mmod_Van_der_Waal_Energy-OPLS-2005>
153.542526245117

> <r_mmod_Electrostatic_Energy-OPLS-2005>
-475.992767333984

> <r_mmod_Solvation_Energy-OPLS-2005>
-403.088317871094

> <b_mmod_Minimization_Converged-OPLS-2005>
0

> <r_mmod_RMS_Derivative-OPLS-2005>
8.57159233093262

$$$$
66
                    3D
 Structure written by MMmdl.
158166  0  0  1  0            999 V2000
  -30.3902  -15.3764   20.3850 C   0  0  0  0  0  0
  -30.4371  -12.8941   19.5273 C   0  0  0  0  0  0
  -29.5409  -12.5917   18.2980 C   0  0  0  0  0  0
  -28.0983  -12.2864   18.7354 C   0  0  0  0  0  0
  -27.6050  -13.2779   19.8165 C   0  0  2  0  0  0
  -28.6329  -13.5000   20.9448 C   0  0  0  0  0  0
  -25.2364  -13.8237   20.5751 C   0  0  0  0  0  0
  -24.1718  -13.0426   20.9267 C   0  0  0  0  0  0
  -24.6381  -11.6929   20.8769 C   0  0  0  0  0  0
  -23.9082  -10.4286   21.0404 C   0  0  0  0  0  0
  -24.3630   -9.4197   21.9179 C   0  0  0  0  0  0
  -23.6296   -8.2235   22.0750 C   0  0  0  0  0  0
  -22.4277   -8.0278   21.3540 C   0  0  0  0  0  0
  -21.9919   -9.0253   20.4642 C   0  0  0  0  0  0
  -22.7257  -10.2130   20.3048 C   0  0  0  0  0  0
  -21.6858   -6.0738   22.5278 C   0  0  0  0  0  0
  -21.4017   -6.5635   23.8214 C   0  0  0  0  0  0
  -21.3662   -5.6785   24.9174 C   0  0  0  0  0  0
  -21.6042   -4.3049   24.7222 C   0  0  0  0  0  0
  -21.8819   -3.8145   23.4342 C   0  0  0  0  0  0
  -21.9191   -4.6964   22.3401 C   0  0  0  0  0  0
  -22.7735  -13.5184   21.1910 C   0  0  0  0  0  0
  -22.1661   -4.2150   21.0978 F   0  0  0  0  0  0
  -21.5629   -3.4534   25.7732 F   0  0  0  0  0  0
  -29.8424  -14.0509   20.3063 N   0  0  0  0  0  0
  -26.2785  -12.9518   20.3203 N   0  0  0  0  0  0
  -25.9314  -11.6631   20.5706 N   0  0  0  0  0  0
  -22.0394  -12.8175   22.0473 N   0  0  0  0  0  0
  -25.4002  -15.1981   20.4198 N   0  0  0  0  0  0
  -31.6229  -15.3562   20.2345 O   0  0  0  0  0  0
  -21.6642   -6.8878   21.4242 O   0  0  0  0  0  0
  -22.3418  -14.5480   20.6741 O   0  0  0  0  0  0
  -24.6700  -31.8171   23.1660 C   0  0  0  0  0  0
  -25.9353  -32.4553   23.8153 C   0  0  1  0  0  0
  -27.2113  -26.8439   20.2157 C   0  0  0  0  0  0
  -25.6008  -33.8377   24.2067 N   0  0  0  0  0  0
  -23.4889  -30.4286   21.5159 C   0  0  2  0  0  0
  -24.9415  -28.7950   20.1242 C   0  0  0  0  0  0
  -22.7709  -29.4434   22.4755 C   0  0  0  0  0  0
  -18.0339  -28.1421   22.8445 C   0  0  0  0  0  0
  -24.1497  -36.7192   23.2651 C   0  0  0  0  0  0
  -26.0634  -30.5957   21.4099 C   0  0  0  0  0  0
  -26.1283  -29.1742   20.7653 C   0  0  0  0  0  0
  -27.2579  -28.2239   20.7834 C   0  0  0  0  0  0
  -25.9991  -26.6431   19.5154 C   0  0  0  0  0  0
  -24.9065  -27.5498   19.4767 C   0  0  0  0  0  0
  -23.7356  -29.7370   20.1472 C   0  0  0  0  0  0
  -25.4136  -36.2960   24.0307 C   0  0  1  0  0  0
  -20.5967  -28.3793   23.1140 C   0  0  2  0  0  0
  -20.6806  -26.9468   22.5378 C   0  0  0  0  0  0
  -19.5784  -26.6385   21.5192 C   0  0  0  0  0  0
  -18.1969  -26.7949   22.1608 C   0  0  0  0  0  0
  -19.1598  -28.8926   23.2778 C   0  0  0  0  0  0
  -18.9510  -30.1508   23.8829 C   0  0  0  0  0  0
  -17.6496  -30.6601   24.0561 C   0  0  0  0  0  0
  -25.9107  -34.9334   23.5017 C   0  0  0  0  0  0
  -16.5388  -29.9086   23.6345 C   0  0  0  0  0  0
  -16.7316  -28.6508   23.0352 C   0  0  0  0  0  0
  -26.4585  -31.6512   25.0695 C   0  0  0  0  0  0
  -25.3687  -31.3758   26.1330 C   0  0  0  0  0  0
  -27.0498  -30.2872   24.6470 C   0  0  0  0  0  0
  -27.6080  -32.4332   25.7488 C   0  0  0  0  0  0
  -27.5573  -37.1753   24.8469 C   0  0  0  0  0  0
  -21.4370  -29.3062   22.3488 N   0  0  0  0  0  0
  -26.4278  -37.3695   23.9418 N   0  0  0  0  0  0
  -24.7632  -30.9772   22.0837 N   0  0  0  0  0  0
  -23.4207  -28.8013   23.3042 O   0  0  0  0  0  0
  -28.1976  -25.6975   20.1858 O   0  0  0  0  0  0
  -26.5722  -34.8881   22.4616 O   0  0  0  0  0  0
  -23.5752  -32.1184   23.6703 O   0  0  0  0  0  0
  -28.9885  -19.5945   20.2345 C   0  0  0  0  0  0
  -30.9895  -18.6934   21.1997 C   0  0  0  0  0  0
  -29.2733  -21.1164   20.5030 C   0  0  0  0  0  0
  -31.3307  -20.0391   21.5162 C   0  0  0  0  0  0
  -30.5272  -21.1976   21.2017 C   0  0  0  0  0  0
  -29.8067  -18.2985   20.5528 C   0  0  0  0  0  0
  -28.5396  -22.6447   19.9502 C   0  0  0  0  0  0
  -28.6100  -21.7627   17.8186 C   0  0  0  0  0  0
  -32.6846  -20.1714   22.2136 C   0  0  0  0  0  0
  -31.1084  -22.5566   21.5994 C   0  0  0  0  0  0
  -30.1064  -21.7700   17.4921 C   0  0  0  0  0  0
  -28.0504  -24.2487   20.6850 C   0  0  1  0  0  0
  -28.2002  -22.7272   18.7145 N   0  0  0  0  0  0
  -29.6050  -16.6692   20.3752 N   0  0  0  0  0  0
  -27.8587  -20.9986   17.2156 O   0  0  0  0  0  0
  -26.7382  -24.0950   20.9998 F   0  0  0  0  0  0
  -31.4440  -13.1296   19.1837 H   0  0  0  0  0  0
  -30.5444  -12.0111   20.1574 H   0  0  0  0  0  0
  -29.9459  -11.7544   17.7287 H   0  0  0  0  0  0
  -29.5435  -13.4521   17.6276 H   0  0  0  0  0  0
  -28.0848  -11.2760   19.1441 H   0  0  0  0  0  0
  -27.4246  -12.2811   17.8774 H   0  0  0  0  0  0
  -27.5036  -14.2302   19.2942 H   0  0  0  0  0  0
  -28.8329  -12.5762   21.4901 H   0  0  0  0  0  0
  -28.2476  -14.2129   21.6745 H   0  0  0  0  0  0
  -25.2773   -9.5682   22.4757 H   0  0  0  0  0  0
  -24.0012   -7.4627   22.7462 H   0  0  0  0  0  0
  -21.0852   -8.8767   19.8943 H   0  0  0  0  0  0
  -22.3706  -10.9666   19.6160 H   0  0  0  0  0  0
  -21.2012   -7.6145   23.9721 H   0  0  0  0  0  0
  -21.1485   -6.0515   25.9080 H   0  0  0  0  0  0
  -22.0596   -2.7605   23.2840 H   0  0  0  0  0  0
  -22.4037  -11.9863   22.4896 H   0  0  0  0  0  0
  -21.0997  -13.1179   22.2652 H   0  0  0  0  0  0
  -24.6294  -15.8481   20.5305 H   0  0  0  0  0  0
  -26.2414  -15.6385   20.0717 H   0  0  0  0  0  0
  -26.7434  -32.5066   23.0872 H   0  0  0  0  0  0
  -25.0125  -33.9446   25.0202 H   0  0  0  0  0  0
  -22.8059  -31.2615   21.3365 H   0  0  0  0  0  0
  -23.3777  -35.9501   23.3268 H   0  0  0  0  0  0
  -24.3588  -36.8877   22.2074 H   0  0  0  0  0  0
  -23.7217  -37.6360   23.6724 H   0  0  0  0  0  0
  -26.2496  -31.3234   20.6183 H   0  0  0  0  0  0
  -26.9224  -30.6659   22.0649 H   0  0  0  0  0  0
  -28.1597  -28.5207   21.3007 H   0  0  0  0  0  0
  -25.8684  -25.6969   19.0104 H   0  0  0  0  0  0
  -24.0105  -27.2507   18.9491 H   0  0  0  0  0  0
  -23.9053  -30.4990   19.3860 H   0  0  0  0  0  0
  -22.8408  -29.2010   19.8264 H   0  0  0  0  0  0
  -25.1330  -36.1773   25.0795 H   0  0  0  0  0  0
  -21.0046  -28.3418   24.1269 H   0  0  0  0  0  0
  -20.5672  -26.2437   23.3639 H   0  0  0  0  0  0
  -21.6672  -26.7431   22.1205 H   0  0  0  0  0  0
  -19.6955  -25.6276   21.1275 H   0  0  0  0  0  0
  -19.6709  -27.3149   20.6679 H   0  0  0  0  0  0
  -17.4235  -26.6677   21.4019 H   0  0  0  0  0  0
  -18.0388  -26.0110   22.9026 H   0  0  0  0  0  0
  -19.7985  -30.7342   24.2165 H   0  0  0  0  0  0
  -17.5050  -31.6270   24.5194 H   0  0  0  0  0  0
  -15.5386  -30.2970   23.7699 H   0  0  0  0  0  0
  -15.8716  -28.0807   22.7089 H   0  0  0  0  0  0
  -24.5893  -30.7100   25.7603 H   0  0  0  0  0  0
  -24.8842  -32.2946   26.4639 H   0  0  0  0  0  0
  -25.7887  -30.8979   27.0189 H   0  0  0  0  0  0
  -26.3187  -29.6520   24.1455 H   0  0  0  0  0  0
  -27.3993  -29.7270   25.5155 H   0  0  0  0  0  0
  -27.9142  -30.4045   23.9929 H   0  0  0  0  0  0
  -27.2668  -33.3691   26.1927 H   0  0  0  0  0  0
  -28.3944  -32.6804   25.0342 H   0  0  0  0  0  0
  -28.0695  -31.8549   26.5504 H   0  0  0  0  0  0
  -28.2576  -38.0066   24.7541 H   0  0  0  0  0  0
  -28.1093  -36.2602   24.6273 H   0  0  0  0  0  0
  -27.2306  -37.1361   25.8876 H   0  0  0  0  0  0
  -20.9662  -29.8756   21.6596 H   0  0  0  0  0  0
  -26.0136  -38.2764   24.1411 H   0  0  0  0  0  0
  -28.0625  -19.4175   19.7078 H   0  0  0  0  0  0
  -31.6799  -17.9134   21.4893 H   0  0  0  0  0  0
  -33.4781  -19.8462   21.5375 H   0  0  0  0  0  0
  -32.7128  -19.5251   23.0914 H   0  0  0  0  0  0
  -32.9513  -21.1670   22.5617 H   0  0  0  0  0  0
  -32.1174  -22.6685   21.2003 H   0  0  0  0  0  0
  -31.1556  -22.6249   22.6875 H   0  0  0  0  0  0
  -30.5810  -23.4363   21.2545 H   0  0  0  0  0  0
  -30.5684  -22.7254   17.7399 H   0  0  0  0  0  0
  -30.2553  -21.5942   16.4269 H   0  0  0  0  0  0
  -30.6269  -20.9833   18.0383 H   0  0  0  0  0  0
  -28.5585  -24.2339   21.6473 H   0  0  0  0  0  0
  -28.6296  -16.4389   20.2550 H   0  0  0  0  0  0
  1 25  1  0  0  0
  1 30  2  0  0  0
  1 84  1  0  0  0
  2  3  1  0  0  0
  2 25  1  0  0  0
  2 87  1  0  0  0
  2 88  1  0  0  0
  3  4  1  0  0  0
  3 89  1  0  0  0
  3 90  1  0  0  0
  4  5  1  0  0  0
  4 91  1  0  0  0
  4 92  1  0  0  0
  5  6  1  0  0  0
  5 26  1  0  0  0
  5 93  1  0  0  0
  6 25  1  0  0  0
  6 94  1  0  0  0
  6 95  1  0  0  0
  7  8  2  0  0  0
  7 26  1  0  0  0
  7 29  1  0  0  0
  8  9  1  0  0  0
  8 22  1  0  0  0
  9 10  1  0  0  0
  9 27  2  0  0  0
 10 11  2  0  0  0
 10 15  1  0  0  0
 11 12  1  0  0  0
 11 96  1  0  0  0
 12 13  2  0  0  0
 12 97  1  0  0  0
 13 14  1  0  0  0
 13 31  1  0  0  0
 14 15  2  0  0  0
 14 98  1  0  0  0
 15 99  1  0  0  0
 16 17  2  0  0  0
 16 21  1  0  0  0
 16 31  1  0  0  0
 17 18  1  0  0  0
 17100  1  0  0  0
 18 19  2  0  0  0
 18101  1  0  0  0
 19 20  1  0  0  0
 19 24  1  0  0  0
 20 21  2  0  0  0
 20102  1  0  0  0
 21 23  1  0  0  0
 22 28  1  0  0  0
 22 32  2  0  0  0
 26 27  1  0  0  0
 28103  1  0  0  0
 28104  1  0  0  0
 29105  1  0  0  0
 29106  1  0  0  0
 33 34  1  0  0  0
 33 66  1  0  0  0
 33 70  2  0  0  0
 34 36  1  0  0  0
 34 59  1  0  0  0
 34107  1  0  0  0
 35 44  2  0  0  0
 35 45  1  0  0  0
 35 68  1  0  0  0
 36 56  1  0  0  0
 36108  1  0  0  0
 37 39  1  0  0  0
 37 47  1  0  0  0
 37 66  1  0  0  0
 37109  1  0  0  0
 38 43  2  0  0  0
 38 46  1  0  0  0
 38 47  1  0  0  0
 39 64  1  0  0  0
 39 67  2  0  0  0
 40 52  1  0  0  0
 40 53  2  0  0  0
 40 58  1  0  0  0
 41110  1  0  0  0
 41111  1  0  0  0
 41112  1  0  0  0
 41 48  1  0  0  0
 42 43  1  0  0  0
 42 66  1  0  0  0
 42113  1  0  0  0
 42114  1  0  0  0
 43 44  1  0  0  0
 44115  1  0  0  0
 45 46  2  0  0  0
 45116  1  0  0  0
 46117  1  0  0  0
 47118  1  0  0  0
 47119  1  0  0  0
 48 56  1  0  0  0
 48 65  1  0  0  0
 48120  1  0  0  0
 49 50  1  0  0  0
 49 53  1  0  0  0
 49 64  1  0  0  0
 49121  1  0  0  0
 50 51  1  0  0  0
 50122  1  0  0  0
 50123  1  0  0  0
 51 52  1  0  0  0
 51124  1  0  0  0
 51125  1  0  0  0
 52126  1  0  0  0
 52127  1  0  0  0
 53 54  1  0  0  0
 54 55  2  0  0  0
 54128  1  0  0  0
 55 57  1  0  0  0
 55129  1  0  0  0
 56 69  2  0  0  0
 57 58  2  0  0  0
 57130  1  0  0  0
 58131  1  0  0  0
 59 60  1  0  0  0
 59 61  1  0  0  0
 59 62  1  0  0  0
 60132  1  0  0  0
 60133  1  0  0  0
 60134  1  0  0  0
 61135  1  0  0  0
 61136  1  0  0  0
 61137  1  0  0  0
 62138  1  0  0  0
 62139  1  0  0  0
 62140  1  0  0  0
 63 65  1  0  0  0
 63141  1  0  0  0
 63142  1  0  0  0
 63143  1  0  0  0
 64144  1  0  0  0
 65145  1  0  0  0
 68 82  1  0  0  0
 71 73  2  0  0  0
 71 76  1  0  0  0
 71146  1  0  0  0
 72 74  1  0  0  0
 72 76  2  0  0  0
 72147  1  0  0  0
 73 75  1  0  0  0
 73 77  1  0  0  0
 74 75  2  0  0  0
 74 79  1  0  0  0
 75 80  1  0  0  0
 76 84  1  0  0  0
 77 82  1  0  0  0
 77 83  2  0  0  0
 78 81  1  0  0  0
 78 83  1  0  0  0
 78 85  2  0  0  0
 79148  1  0  0  0
 79149  1  0  0  0
 79150  1  0  0  0
 80151  1  0  0  0
 80152  1  0  0  0
 80153  1  0  0  0
 81154  1  0  0  0
 81155  1  0  0  0
 81156  1  0  0  0
 82 86  1  0  0  0
 82157  1  0  0  0
 84158  1  0  0  0
M  ISO  4   1 100  68 101  82 101  84 100
M  END
> <chiral flag>
0

> <version>
0

> <s_m_source_file>
/data/baiqing/PycharmProjects/Reinvent-master-3.2/result/LINK_invent/BTK/process_docking_weight1_custom_product_contain_oxygen_bond_distance_aromatic_linkinvent_7_9_3/rearranged_h_0056.sdf

> <i_m_source_file_index>
67

> <r_mmod_Potential_Energy-OPLS-2005>
1664.96728515625

> <r_mmod_Stretch_Energy-OPLS-2005>
730.61279296875

> <r_mmod_Bend_Energy-OPLS-2005>
466.934631347656

> <r_mmod_Torsional_Energy-OPLS-2005>
286.046997070312

> <r_mmod_Improper_Torsional_Energy-OPLS-2005>
8.11134433746338

> <r_mmod_Van_der_Waal_Energy-OPLS-2005>
148.795944213867

> <r_mmod_Electrostatic_Energy-OPLS-2005>
-343.161834716797

> <r_mmod_Solvation_Energy-OPLS-2005>
-216.041748046875

> <b_mmod_Minimization_Converged-OPLS-2005>
0

> <r_mmod_RMS_Derivative-OPLS-2005>
2.6632936000824

$$$$
67
                    3D
 Structure written by MMmdl.
170178  0  0  1  0            999 V2000
  -30.8197  -14.3668   20.6354 C   0  0  0  0  0  0
  -30.4013  -12.2684   19.4269 C   0  0  0  0  0  0
  -29.4876  -12.5136   18.2132 C   0  0  0  0  0  0
  -28.0151  -12.3723   18.6303 C   0  0  0  0  0  0
  -27.6685  -13.2159   19.8865 C   0  0  2  0  0  0
  -28.7096  -13.0065   21.0126 C   0  0  0  0  0  0
  -25.2597  -13.8197   20.5722 C   0  0  0  0  0  0
  -24.1836  -13.0450   20.9158 C   0  0  0  0  0  0
  -24.6394  -11.6919   20.8717 C   0  0  0  0  0  0
  -23.9052  -10.4304   21.0387 C   0  0  0  0  0  0
  -24.3582   -9.4219   21.9182 C   0  0  0  0  0  0
  -23.6267   -8.2255   22.0750 C   0  0  0  0  0  0
  -22.4255   -8.0281   21.3535 C   0  0  0  0  0  0
  -21.9879   -9.0255   20.4647 C   0  0  0  0  0  0
  -22.7216  -10.2135   20.3055 C   0  0  0  0  0  0
  -21.6849   -6.0726   22.5271 C   0  0  0  0  0  0
  -21.4022   -6.5633   23.8206 C   0  0  0  0  0  0
  -21.3655   -5.6789   24.9172 C   0  0  0  0  0  0
  -21.6027   -4.3040   24.7219 C   0  0  0  0  0  0
  -21.8813   -3.8131   23.4350 C   0  0  0  0  0  0
  -21.9195   -4.6946   22.3402 C   0  0  0  0  0  0
  -22.7864  -13.5252   21.1811 C   0  0  0  0  0  0
  -22.1665   -4.2133   21.0978 F   0  0  0  0  0  0
  -21.5607   -3.4534   25.7742 F   0  0  0  0  0  0
  -30.0572  -13.2543   20.4632 N   0  0  0  0  0  0
  -26.3065  -12.9389   20.3454 N   0  0  0  0  0  0
  -25.9346  -11.6534   20.5801 N   0  0  0  0  0  0
  -22.0455  -12.8281   22.0348 N   0  0  0  0  0  0
  -25.4271  -15.1926   20.4160 N   0  0  0  0  0  0
  -31.8228  -14.5837   19.9560 O   0  0  0  0  0  0
  -21.6617   -6.8871   21.4238 O   0  0  0  0  0  0
  -22.3578  -14.5577   20.6674 O   0  0  0  0  0  0
  -24.6153  -31.8676   23.2081 C   0  0  0  0  0  0
  -25.9046  -32.4820   23.8389 C   0  0  1  0  0  0
  -27.2409  -27.4430   20.1011 C   0  0  0  0  0  0
  -25.5899  -33.8610   24.2334 N   0  0  0  0  0  0
  -23.4047  -30.4883   21.5493 C   0  0  2  0  0  0
  -24.8539  -28.9520   20.1181 C   0  0  0  0  0  0
  -22.7421  -29.4653   22.5000 C   0  0  0  0  0  0
  -18.0284  -28.1404   22.8486 C   0  0  0  0  0  0
  -24.1486  -36.7299   23.2634 C   0  0  0  0  0  0
  -25.9320  -30.8370   21.3594 C   0  0  0  0  0  0
  -26.0136  -29.4704   20.7102 C   0  0  0  0  0  0
  -27.2139  -28.7255   20.6947 C   0  0  0  0  0  0
  -26.0689  -26.9364   19.5036 C   0  0  0  0  0  0
  -24.8751  -27.6840   19.5123 C   0  0  0  0  0  0
  -23.6131  -29.8147   20.1663 C   0  0  0  0  0  0
  -25.4102  -36.3103   24.0342 C   0  0  1  0  0  0
  -20.5869  -28.3685   23.1319 C   0  0  2  0  0  0
  -20.6786  -26.9428   22.5416 C   0  0  0  0  0  0
  -19.5762  -26.6407   21.5217 C   0  0  0  0  0  0
  -18.1928  -26.7955   22.1614 C   0  0  0  0  0  0
  -19.1529  -28.8861   23.2897 C   0  0  0  0  0  0
  -18.9459  -30.1464   23.8915 C   0  0  0  0  0  0
  -17.6454  -30.6601   24.0578 C   0  0  0  0  0  0
  -25.9026  -34.9470   23.5136 C   0  0  0  0  0  0
  -16.5348  -29.9096   23.6331 C   0  0  0  0  0  0
  -16.7271  -28.6520   23.0344 C   0  0  0  0  0  0
  -26.4472  -31.6592   25.0711 C   0  0  0  0  0  0
  -25.3720  -31.3703   26.1443 C   0  0  0  0  0  0
  -27.0314  -30.3044   24.6072 C   0  0  0  0  0  0
  -27.6071  -32.4300   25.7452 C   0  0  0  0  0  0
  -27.5583  -37.1799   24.8457 C   0  0  0  0  0  0
  -21.4159  -29.3037   22.3718 N   0  0  0  0  0  0
  -26.4290  -37.3785   23.9409 N   0  0  0  0  0  0
  -24.6686  -31.0787   22.0983 N   0  0  0  0  0  0
  -23.4188  -28.8205   23.3057 O   0  0  0  0  0  0
  -28.3940  -26.6947   20.0823 O   0  0  0  0  0  0
  -26.5585  -34.8921   22.4695 O   0  0  0  0  0  0
  -23.5344  -32.1434   23.7476 O   0  0  0  0  0  0
  -32.5376  -17.5413   20.3193 C   0  0  0  0  0  0
  -31.9403  -19.7547   19.5390 C   0  0  0  0  0  0
  -32.7763  -18.6308   19.4681 C   0  0  0  0  0  0
  -31.4243  -17.5147   21.1906 C   0  0  0  0  0  0
  -30.5021  -18.6123   21.1706 C   0  0  0  0  0  0
  -30.8270  -19.7856   20.4127 C   0  0  0  0  0  0
  -29.2678  -23.1759   20.6529 C   0  0  0  0  0  0
  -29.4195  -24.5170   20.5612 C   0  0  0  0  0  0
  -30.3583  -22.2655   20.3251 C   0  0  0  0  0  0
  -33.9375  -18.6098   18.4925 C   0  0  0  0  0  0
  -27.9218  -18.7711   21.1002 C   0  0  0  0  0  0
  -29.2004  -19.2950   23.2715 C   0  0  0  0  0  0
  -32.6218  -15.8209   22.7494 C   0  0  0  0  0  0
  -28.3497  -25.5373   20.9245 C   0  0  0  0  0  0
  -29.1767  -18.5071   21.9529 C   0  0  0  0  0  0
  -31.2810  -16.3124   22.1570 C   0  0  2  0  0  0
  -30.0217  -20.9706   20.5207 N   0  0  0  0  0  0
  -30.4853  -15.1849   21.6418 N   0  0  0  0  0  0
  -31.4673  -22.6381   19.9329 O   0  0  0  0  0  0
  -31.4513  -12.3106   19.1298 H   0  0  0  0  0  0
  -30.2517  -11.2615   19.8202 H   0  0  0  0  0  0
  -29.7199  -11.8093   17.4147 H   0  0  0  0  0  0
  -29.6671  -13.5108   17.8068 H   0  0  0  0  0  0
  -27.8324  -11.3164   18.8328 H   0  0  0  0  0  0
  -27.3636  -12.6421   17.7989 H   0  0  0  0  0  0
  -27.7162  -14.2639   19.5882 H   0  0  0  0  0  0
  -28.6580  -11.9867   21.3972 H   0  0  0  0  0  0
  -28.4746  -13.6533   21.8586 H   0  0  0  0  0  0
  -25.2708   -9.5714   22.4781 H   0  0  0  0  0  0
  -23.9954   -7.4654   22.7492 H   0  0  0  0  0  0
  -21.0790   -8.8791   19.8982 H   0  0  0  0  0  0
  -22.3654  -10.9672   19.6175 H   0  0  0  0  0  0
  -21.2024   -7.6143   23.9717 H   0  0  0  0  0  0
  -21.1485   -6.0510   25.9072 H   0  0  0  0  0  0
  -22.0591   -2.7587   23.2857 H   0  0  0  0  0  0
  -22.3997  -11.9921   22.4784 H   0  0  0  0  0  0
  -21.1110  -13.1409   22.2543 H   0  0  0  0  0  0
  -24.6571  -15.8425   20.5322 H   0  0  0  0  0  0
  -26.2825  -15.6421   20.1149 H   0  0  0  0  0  0
  -26.7126  -32.5550   23.1168 H   0  0  0  0  0  0
  -25.0067  -33.9764   25.0496 H   0  0  0  0  0  0
  -22.6934  -31.3043   21.4057 H   0  0  0  0  0  0
  -23.3744  -35.9635   23.3313 H   0  0  0  0  0  0
  -24.3584  -36.8892   22.2046 H   0  0  0  0  0  0
  -23.7244  -37.6511   23.6637 H   0  0  0  0  0  0
  -26.0397  -31.6000   20.5874 H   0  0  0  0  0  0
  -26.8211  -30.8957   21.9750 H   0  0  0  0  0  0
  -28.1139  -29.1239   21.1428 H   0  0  0  0  0  0
  -26.0821  -25.9642   19.0312 H   0  0  0  0  0  0
  -23.9844  -27.2783   19.0536 H   0  0  0  0  0  0
  -23.7167  -30.5851   19.4014 H   0  0  0  0  0  0
  -22.7390  -29.2279   19.8770 H   0  0  0  0  0  0
  -25.1274  -36.1976   25.0832 H   0  0  0  0  0  0
  -20.9940  -28.3273   24.1455 H   0  0  0  0  0  0
  -20.5730  -26.2293   23.3599 H   0  0  0  0  0  0
  -21.6662  -26.7503   22.1193 H   0  0  0  0  0  0
  -19.6927  -25.6322   21.1244 H   0  0  0  0  0  0
  -19.6702  -27.3232   20.6760 H   0  0  0  0  0  0
  -17.4207  -26.6716   21.4008 H   0  0  0  0  0  0
  -18.0306  -26.0099   22.9003 H   0  0  0  0  0  0
  -19.7922  -30.7283   24.2293 H   0  0  0  0  0  0
  -17.5003  -31.6276   24.5174 H   0  0  0  0  0  0
  -15.5349  -30.3002   23.7640 H   0  0  0  0  0  0
  -15.8674  -28.0843   22.7046 H   0  0  0  0  0  0
  -24.5885  -30.7071   25.7759 H   0  0  0  0  0  0
  -24.8914  -32.2860   26.4897 H   0  0  0  0  0  0
  -25.8035  -30.8844   27.0200 H   0  0  0  0  0  0
  -26.2864  -29.6788   24.1135 H   0  0  0  0  0  0
  -27.4128  -29.7293   25.4521 H   0  0  0  0  0  0
  -27.8676  -30.4397   23.9205 H   0  0  0  0  0  0
  -27.2731  -33.3601   26.2062 H   0  0  0  0  0  0
  -28.3845  -32.6845   25.0236 H   0  0  0  0  0  0
  -28.0773  -31.8392   26.5325 H   0  0  0  0  0  0
  -28.2597  -38.0103   24.7520 H   0  0  0  0  0  0
  -28.1088  -36.2639   24.6258 H   0  0  0  0  0  0
  -27.2307  -37.1416   25.8861 H   0  0  0  0  0  0
  -20.9340  -29.8704   21.6878 H   0  0  0  0  0  0
  -26.0185  -38.2864   24.1406 H   0  0  0  0  0  0
  -33.2206  -16.7059   20.2848 H   0  0  0  0  0  0
  -32.1711  -20.5897   18.8951 H   0  0  0  0  0  0
  -28.3212  -22.7783   20.9912 H   0  0  0  0  0  0
  -30.3619  -24.9335   20.2286 H   0  0  0  0  0  0
  -34.4942  -17.6729   18.5469 H   0  0  0  0  0  0
  -34.6280  -19.4287   18.6946 H   0  0  0  0  0  0
  -33.5738  -18.7258   17.4709 H   0  0  0  0  0  0
  -27.9445  -18.1740   20.1871 H   0  0  0  0  0  0
  -27.7899  -19.8103   20.8138 H   0  0  0  0  0  0
  -27.0233  -18.4806   21.6457 H   0  0  0  0  0  0
  -30.0032  -18.9406   23.9206 H   0  0  0  0  0  0
  -28.2644  -19.1677   23.8163 H   0  0  0  0  0  0
  -29.3500  -20.3625   23.1161 H   0  0  0  0  0  0
  -33.1616  -16.6387   23.2263 H   0  0  0  0  0  0
  -33.2839  -15.3762   22.0059 H   0  0  0  0  0  0
  -32.4531  -15.0593   23.5119 H   0  0  0  0  0  0
  -28.5276  -25.8594   21.9518 H   0  0  0  0  0  0
  -27.3717  -25.0505   20.9136 H   0  0  0  0  0  0
  -29.0187  -17.4677   22.2250 H   0  0  0  0  0  0
  -30.7620  -16.6748   23.0409 H   0  0  0  0  0  0
  -29.1011  -20.8268   20.9065 H   0  0  0  0  0  0
  -29.6629  -14.9311   22.1665 H   0  0  0  0  0  0
  1 25  1  0  0  0
  1 30  2  0  0  0
  1 88  1  0  0  0
  2  3  1  0  0  0
  2 25  1  0  0  0
  2 90  1  0  0  0
  2 91  1  0  0  0
  3  4  1  0  0  0
  3 92  1  0  0  0
  3 93  1  0  0  0
  4  5  1  0  0  0
  4 94  1  0  0  0
  4 95  1  0  0  0
  5  6  1  0  0  0
  5 26  1  0  0  0
  5 96  1  0  0  0
  6 25  1  0  0  0
  6 97  1  0  0  0
  6 98  1  0  0  0
  7  8  2  0  0  0
  7 26  1  0  0  0
  7 29  1  0  0  0
  8  9  1  0  0  0
  8 22  1  0  0  0
  9 10  1  0  0  0
  9 27  2  0  0  0
 10 11  2  0  0  0
 10 15  1  0  0  0
 11 12  1  0  0  0
 11 99  1  0  0  0
 12 13  2  0  0  0
 12100  1  0  0  0
 13 14  1  0  0  0
 13 31  1  0  0  0
 14 15  2  0  0  0
 14101  1  0  0  0
 15102  1  0  0  0
 16 17  2  0  0  0
 16 21  1  0  0  0
 16 31  1  0  0  0
 17 18  1  0  0  0
 17103  1  0  0  0
 18 19  2  0  0  0
 18104  1  0  0  0
 19 20  1  0  0  0
 19 24  1  0  0  0
 20 21  2  0  0  0
 20105  1  0  0  0
 21 23  1  0  0  0
 22 28  1  0  0  0
 22 32  2  0  0  0
 26 27  1  0  0  0
 28106  1  0  0  0
 28107  1  0  0  0
 29108  1  0  0  0
 29109  1  0  0  0
 33 34  1  0  0  0
 33 66  1  0  0  0
 33 70  2  0  0  0
 34 36  1  0  0  0
 34 59  1  0  0  0
 34110  1  0  0  0
 35 44  2  0  0  0
 35 45  1  0  0  0
 35 68  1  0  0  0
 36 56  1  0  0  0
 36111  1  0  0  0
 37 39  1  0  0  0
 37 47  1  0  0  0
 37 66  1  0  0  0
 37112  1  0  0  0
 38 43  2  0  0  0
 38 46  1  0  0  0
 38 47  1  0  0  0
 39 64  1  0  0  0
 39 67  2  0  0  0
 40 52  1  0  0  0
 40 53  2  0  0  0
 40 58  1  0  0  0
 41113  1  0  0  0
 41114  1  0  0  0
 41115  1  0  0  0
 41 48  1  0  0  0
 42 43  1  0  0  0
 42 66  1  0  0  0
 42116  1  0  0  0
 42117  1  0  0  0
 43 44  1  0  0  0
 44118  1  0  0  0
 45 46  2  0  0  0
 45119  1  0  0  0
 46120  1  0  0  0
 47121  1  0  0  0
 47122  1  0  0  0
 48 56  1  0  0  0
 48 65  1  0  0  0
 48123  1  0  0  0
 49 50  1  0  0  0
 49 53  1  0  0  0
 49 64  1  0  0  0
 49124  1  0  0  0
 50 51  1  0  0  0
 50125  1  0  0  0
 50126  1  0  0  0
 51 52  1  0  0  0
 51127  1  0  0  0
 51128  1  0  0  0
 52129  1  0  0  0
 52130  1  0  0  0
 53 54  1  0  0  0
 54 55  2  0  0  0
 54131  1  0  0  0
 55 57  1  0  0  0
 55132  1  0  0  0
 56 69  2  0  0  0
 57 58  2  0  0  0
 57133  1  0  0  0
 58134  1  0  0  0
 59 60  1  0  0  0
 59 61  1  0  0  0
 59 62  1  0  0  0
 60135  1  0  0  0
 60136  1  0  0  0
 60137  1  0  0  0
 61138  1  0  0  0
 61139  1  0  0  0
 61140  1  0  0  0
 62141  1  0  0  0
 62142  1  0  0  0
 62143  1  0  0  0
 63 65  1  0  0  0
 63144  1  0  0  0
 63145  1  0  0  0
 63146  1  0  0  0
 64147  1  0  0  0
 65148  1  0  0  0
 68 84  1  0  0  0
 71 73  2  0  0  0
 71 74  1  0  0  0
 71149  1  0  0  0
 72 73  1  0  0  0
 72 76  2  0  0  0
 72150  1  0  0  0
 73 80  1  0  0  0
 74 75  2  0  0  0
 74 86  1  0  0  0
 75 76  1  0  0  0
 75 85  1  0  0  0
 76 87  1  0  0  0
 77 78  2  0  0  0
 77 79  1  0  0  0
 77151  1  0  0  0
 78 84  1  0  0  0
 78152  1  0  0  0
 79 87  1  0  0  0
 79 89  2  0  0  0
 80153  1  0  0  0
 80154  1  0  0  0
 80155  1  0  0  0
 81156  1  0  0  0
 81157  1  0  0  0
 81158  1  0  0  0
 81 85  1  0  0  0
 82 85  1  0  0  0
 82159  1  0  0  0
 82160  1  0  0  0
 82161  1  0  0  0
 83162  1  0  0  0
 83163  1  0  0  0
 83164  1  0  0  0
 83 86  1  0  0  0
 84165  1  0  0  0
 84166  1  0  0  0
 85167  1  0  0  0
 86 88  1  0  0  0
 86168  1  0  0  0
 87169  1  0  0  0
 88170  1  0  0  0
M  ISO  4   1 100  68 101  84 101  88 100
M  END
> <chiral flag>
0

> <version>
0

> <s_m_source_file>
/data/baiqing/PycharmProjects/Reinvent-master-3.2/result/LINK_invent/BTK/process_docking_weight1_custom_product_contain_oxygen_bond_distance_aromatic_linkinvent_7_9_3/rearranged_h_0056.sdf

> <i_m_source_file_index>
68

> <r_mmod_Potential_Energy-OPLS-2005>
-132.004425048828

> <r_mmod_Stretch_Energy-OPLS-2005>
43.597713470459

> <r_mmod_Bend_Energy-OPLS-2005>
106.38752746582

> <r_mmod_Torsional_Energy-OPLS-2005>
233.18896484375

> <r_mmod_Improper_Torsional_Energy-OPLS-2005>
2.59144854545593

> <r_mmod_Van_der_Waal_Energy-OPLS-2005>
165.121368408203

> <r_mmod_Electrostatic_Energy-OPLS-2005>
-468.656463623047

> <r_mmod_Solvation_Energy-OPLS-2005>
-224.809799194336

> <b_mmod_Minimization_Converged-OPLS-2005>
0

> <r_mmod_RMS_Derivative-OPLS-2005>
2.98000907897949

$$$$
68
                    3D
 Structure written by MMmdl.
168176  0  0  1  0            999 V2000
  -30.7119  -14.5418   20.5147 C   0  0  0  0  0  0
  -30.4101  -12.3337   19.4519 C   0  0  0  0  0  0
  -29.4943  -12.4902   18.2218 C   0  0  0  0  0  0
  -28.0162  -12.3543   18.6318 C   0  0  0  0  0  0
  -27.6510  -13.2223   19.8661 C   0  0  2  0  0  0
  -28.6952  -13.0809   20.9981 C   0  0  0  0  0  0
  -25.2529  -13.8186   20.5687 C   0  0  0  0  0  0
  -24.1814  -13.0439   20.9202 C   0  0  0  0  0  0
  -24.6396  -11.6915   20.8751 C   0  0  0  0  0  0
  -23.9071  -10.4295   21.0402 C   0  0  0  0  0  0
  -24.3620   -9.4211   21.9184 C   0  0  0  0  0  0
  -23.6294   -8.2245   22.0756 C   0  0  0  0  0  0
  -22.4277   -8.0284   21.3543 C   0  0  0  0  0  0
  -21.9912   -9.0254   20.4642 C   0  0  0  0  0  0
  -22.7238  -10.2134   20.3054 C   0  0  0  0  0  0
  -21.6857   -6.0737   22.5273 C   0  0  0  0  0  0
  -21.4015   -6.5636   23.8207 C   0  0  0  0  0  0
  -21.3660   -5.6785   24.9167 C   0  0  0  0  0  0
  -21.6048   -4.3050   24.7218 C   0  0  0  0  0  0
  -21.8819   -3.8145   23.4337 C   0  0  0  0  0  0
  -21.9196   -4.6964   22.3394 C   0  0  0  0  0  0
  -22.7834  -13.5221   21.1850 C   0  0  0  0  0  0
  -22.1666   -4.2149   21.0973 F   0  0  0  0  0  0
  -21.5632   -3.4533   25.7731 F   0  0  0  0  0  0
  -30.0183  -13.3690   20.4285 N   0  0  0  0  0  0
  -26.2974  -12.9388   20.3345 N   0  0  0  0  0  0
  -25.9328  -11.6532   20.5788 N   0  0  0  0  0  0
  -22.0478  -12.8209   22.0406 N   0  0  0  0  0  0
  -25.4186  -15.1902   20.4036 N   0  0  0  0  0  0
  -31.8723  -14.6048   20.1113 O   0  0  0  0  0  0
  -21.6647   -6.8876   21.4234 O   0  0  0  0  0  0
  -22.3518  -14.5526   20.6696 O   0  0  0  0  0  0
  -24.6200  -31.8646   23.2072 C   0  0  0  0  0  0
  -25.9076  -32.4798   23.8378 C   0  0  1  0  0  0
  -27.2234  -27.3816   20.1050 C   0  0  0  0  0  0
  -25.5921  -33.8599   24.2314 N   0  0  0  0  0  0
  -23.4099  -30.4889   21.5473 C   0  0  2  0  0  0
  -24.8551  -28.9534   20.1061 C   0  0  0  0  0  0
  -22.7443  -29.4640   22.4952 C   0  0  0  0  0  0
  -18.0286  -28.1381   22.8484 C   0  0  0  0  0  0
  -24.1487  -36.7311   23.2639 C   0  0  0  0  0  0
  -25.9441  -30.8128   21.3696 C   0  0  0  0  0  0
  -26.0163  -29.4449   20.7139 C   0  0  0  0  0  0
  -27.2010  -28.6654   20.7111 C   0  0  0  0  0  0
  -26.0523  -26.9374   19.4526 C   0  0  0  0  0  0
  -24.8713  -27.7024   19.4687 C   0  0  0  0  0  0
  -23.6200  -29.8253   20.1602 C   0  0  0  0  0  0
  -25.4107  -36.3100   24.0337 C   0  0  1  0  0  0
  -20.5878  -28.3677   23.1292 C   0  0  2  0  0  0
  -20.6771  -26.9399   22.5416 C   0  0  0  0  0  0
  -19.5753  -26.6377   21.5212 C   0  0  0  0  0  0
  -18.1929  -26.7924   22.1620 C   0  0  0  0  0  0
  -19.1533  -28.8845   23.2883 C   0  0  0  0  0  0
  -18.9460  -30.1446   23.8897 C   0  0  0  0  0  0
  -17.6458  -30.6575   24.0566 C   0  0  0  0  0  0
  -25.9041  -34.9467   23.5125 C   0  0  0  0  0  0
  -16.5353  -29.9088   23.6313 C   0  0  0  0  0  0
  -16.7274  -28.6508   23.0331 C   0  0  0  0  0  0
  -26.4485  -31.6591   25.0726 C   0  0  0  0  0  0
  -25.3736  -31.3706   26.1463 C   0  0  0  0  0  0
  -27.0327  -30.3026   24.6143 C   0  0  0  0  0  0
  -27.6053  -32.4322   25.7483 C   0  0  0  0  0  0
  -27.5573  -37.1805   24.8462 C   0  0  0  0  0  0
  -21.4163  -29.3046   22.3702 N   0  0  0  0  0  0
  -26.4289  -37.3788   23.9409 N   0  0  0  0  0  0
  -24.6762  -31.0711   22.0987 N   0  0  0  0  0  0
  -23.4192  -28.8169   23.3000 O   0  0  0  0  0  0
  -28.3650  -26.5929   20.1995 O   0  0  0  0  0  0
  -26.5594  -34.8922   22.4682 O   0  0  0  0  0  0
  -23.5380  -32.1424   23.7435 O   0  0  0  0  0  0
  -32.0824  -18.8211   20.4108 C   0  0  0  0  0  0
  -31.1580  -19.8235   20.7326 C   0  0  0  0  0  0
  -31.7156  -17.4686   20.4739 C   0  0  0  0  0  0
  -29.8413  -19.4953   21.1123 C   0  0  0  0  0  0
  -29.4456  -18.1044   21.1148 C   0  0  0  0  0  0
  -30.3973  -17.0649   20.8192 C   0  0  0  0  0  0
  -29.0285  -20.6402   21.6233 C   0  0  0  0  0  0
  -28.0096  -17.6940   21.4299 C   0  0  0  0  0  0
  -25.6044  -22.5191   21.2604 C   0  0  0  0  0  0
  -27.0612  -25.0343   22.1721 C   0  0  0  0  0  0
  -26.4939  -23.3830   20.3475 C   0  0  0  0  0  0
  -28.6544  -23.1738   21.7283 C   0  0  0  0  0  0
  -28.3278  -25.1471   19.9621 C   0  0  0  0  0  0
  -27.6506  -24.1752   21.0259 C   0  0  2  0  0  0
  -28.3647  -20.4628   22.7639 N   0  0  0  0  0  0
  -30.0181  -15.6551   20.8915 N   0  0  0  0  0  0
  -29.0242  -21.8809   21.0544 N   0  3  0  0  0  0
  -31.4560  -12.4059   19.1487 H   0  0  0  0  0  0
  -30.3013  -11.3407   19.8910 H   0  0  0  0  0  0
  -29.7421  -11.7427   17.4671 H   0  0  0  0  0  0
  -29.6626  -13.4629   17.7569 H   0  0  0  0  0  0
  -27.8298  -11.3020   18.8508 H   0  0  0  0  0  0
  -27.3697  -12.6084   17.7912 H   0  0  0  0  0  0
  -27.6712  -14.2584   19.5281 H   0  0  0  0  0  0
  -28.6815  -12.0705   21.4090 H   0  0  0  0  0  0
  -28.4600  -13.7457   21.8306 H   0  0  0  0  0  0
  -25.2770   -9.5692   22.4753 H   0  0  0  0  0  0
  -24.0008   -7.4641   22.7480 H   0  0  0  0  0  0
  -21.0845   -8.8766   19.8948 H   0  0  0  0  0  0
  -22.3695  -10.9671   19.6163 H   0  0  0  0  0  0
  -21.2003   -7.6141   23.9704 H   0  0  0  0  0  0
  -21.1487   -6.0520   25.9068 H   0  0  0  0  0  0
  -22.0603   -2.7607   23.2837 H   0  0  0  0  0  0
  -22.4102  -11.9881   22.4809 H   0  0  0  0  0  0
  -21.1094  -13.1235   22.2601 H   0  0  0  0  0  0
  -24.6383  -15.8328   20.4910 H   0  0  0  0  0  0
  -26.2415  -15.6198   20.0030 H   0  0  0  0  0  0
  -26.7142  -32.5481   23.1127 H   0  0  0  0  0  0
  -25.0083  -33.9757   25.0466 H   0  0  0  0  0  0
  -22.7011  -31.3080   21.4068 H   0  0  0  0  0  0
  -23.3746  -35.9645   23.3307 H   0  0  0  0  0  0
  -24.3578  -36.8926   22.2051 H   0  0  0  0  0  0
  -23.7242  -37.6520   23.6650 H   0  0  0  0  0  0
  -26.0682  -31.5759   20.5997 H   0  0  0  0  0  0
  -26.8295  -30.8625   21.9923 H   0  0  0  0  0  0
  -28.0917  -29.0327   21.2017 H   0  0  0  0  0  0
  -26.0288  -25.9973   18.9279 H   0  0  0  0  0  0
  -23.9841  -27.3275   18.9780 H   0  0  0  0  0  0
  -23.7341  -30.6027   19.4036 H   0  0  0  0  0  0
  -22.7420  -29.2506   19.8599 H   0  0  0  0  0  0
  -25.1279  -36.1959   25.0827 H   0  0  0  0  0  0
  -20.9971  -28.3246   24.1408 H   0  0  0  0  0  0
  -20.5660  -26.2290   23.3619 H   0  0  0  0  0  0
  -21.6643  -26.7418   22.1225 H   0  0  0  0  0  0
  -19.6924  -25.6292   21.1226 H   0  0  0  0  0  0
  -19.6691  -27.3194   20.6742 H   0  0  0  0  0  0
  -17.4198  -26.6671   21.4025 H   0  0  0  0  0  0
  -18.0335  -26.0064   22.9015 H   0  0  0  0  0  0
  -19.7934  -30.7258   24.2275 H   0  0  0  0  0  0
  -17.5012  -31.6244   24.5185 H   0  0  0  0  0  0
  -15.5351  -30.2985   23.7638 H   0  0  0  0  0  0
  -15.8680  -28.0829   22.7034 H   0  0  0  0  0  0
  -24.5906  -30.7062   25.7791 H   0  0  0  0  0  0
  -24.8931  -32.2865   26.4913 H   0  0  0  0  0  0
  -25.8075  -30.8861   27.0222 H   0  0  0  0  0  0
  -26.2891  -29.6771   24.1191 H   0  0  0  0  0  0
  -27.4081  -29.7271   25.4616 H   0  0  0  0  0  0
  -27.8731  -30.4338   23.9323 H   0  0  0  0  0  0
  -27.2673  -33.3619   26.2076 H   0  0  0  0  0  0
  -28.3845  -32.6899   25.0296 H   0  0  0  0  0  0
  -28.0749  -31.8445   26.5383 H   0  0  0  0  0  0
  -28.2590  -38.0101   24.7505 H   0  0  0  0  0  0
  -28.1067  -36.2631   24.6288 H   0  0  0  0  0  0
  -27.2291  -37.1460   25.8866 H   0  0  0  0  0  0
  -20.9328  -29.8828   21.6976 H   0  0  0  0  0  0
  -26.0176  -38.2865   24.1411 H   0  0  0  0  0  0
  -33.0961  -19.0875   20.1465 H   0  0  0  0  0  0
  -31.4926  -20.8527   20.7371 H   0  0  0  0  0  0
  -32.5060  -16.7736   20.2508 H   0  0  0  0  0  0
  -27.9169  -17.3683   22.4664 H   0  0  0  0  0  0
  -27.6934  -16.8754   20.7850 H   0  0  0  0  0  0
  -27.2966  -18.4987   21.2545 H   0  0  0  0  0  0
  -24.8616  -21.9853   20.6660 H   0  0  0  0  0  0
  -25.0548  -23.1218   21.9831 H   0  0  0  0  0  0
  -26.1746  -21.7707   21.8053 H   0  0  0  0  0  0
  -26.6909  -24.4249   22.9960 H   0  0  0  0  0  0
  -26.2149  -25.6355   21.8438 H   0  0  0  0  0  0
  -27.8086  -25.7089   22.5921 H   0  0  0  0  0  0
  -25.8292  -24.0722   19.8323 H   0  0  0  0  0  0
  -26.9099  -22.7482   19.5643 H   0  0  0  0  0  0
  -28.2636  -22.9374   22.7171 H   0  0  0  0  0  0
  -29.5836  -23.7064   21.9405 H   0  0  0  0  0  0
  -27.9431  -24.9570   18.9602 H   0  0  0  0  0  0
  -29.3753  -24.8550   19.8807 H   0  0  0  0  0  0
  -28.4545  -19.5812   23.2453 H   0  0  0  0  0  0
  -27.7774  -21.1705   23.1681 H   0  0  0  0  0  0
  -29.0717  -15.4722   21.1832 H   0  0  0  0  0  0
  -29.4927  -21.9585   20.1605 H   0  0  0  0  0  0
  1 25  1  0  0  0
  1 30  2  0  0  0
  1 86  1  0  0  0
  2  3  1  0  0  0
  2 25  1  0  0  0
  2 88  1  0  0  0
  2 89  1  0  0  0
  3  4  1  0  0  0
  3 90  1  0  0  0
  3 91  1  0  0  0
  4  5  1  0  0  0
  4 92  1  0  0  0
  4 93  1  0  0  0
  5  6  1  0  0  0
  5 26  1  0  0  0
  5 94  1  0  0  0
  6 25  1  0  0  0
  6 95  1  0  0  0
  6 96  1  0  0  0
  7  8  2  0  0  0
  7 26  1  0  0  0
  7 29  1  0  0  0
  8  9  1  0  0  0
  8 22  1  0  0  0
  9 10  1  0  0  0
  9 27  2  0  0  0
 10 11  2  0  0  0
 10 15  1  0  0  0
 11 12  1  0  0  0
 11 97  1  0  0  0
 12 13  2  0  0  0
 12 98  1  0  0  0
 13 14  1  0  0  0
 13 31  1  0  0  0
 14 15  2  0  0  0
 14 99  1  0  0  0
 15100  1  0  0  0
 16 17  2  0  0  0
 16 21  1  0  0  0
 16 31  1  0  0  0
 17 18  1  0  0  0
 17101  1  0  0  0
 18 19  2  0  0  0
 18102  1  0  0  0
 19 20  1  0  0  0
 19 24  1  0  0  0
 20 21  2  0  0  0
 20103  1  0  0  0
 21 23  1  0  0  0
 22 28  1  0  0  0
 22 32  2  0  0  0
 26 27  1  0  0  0
 28104  1  0  0  0
 28105  1  0  0  0
 29106  1  0  0  0
 29107  1  0  0  0
 33 34  1  0  0  0
 33 66  1  0  0  0
 33 70  2  0  0  0
 34 36  1  0  0  0
 34 59  1  0  0  0
 34108  1  0  0  0
 35 44  2  0  0  0
 35 45  1  0  0  0
 35 68  1  0  0  0
 36 56  1  0  0  0
 36109  1  0  0  0
 37 39  1  0  0  0
 37 47  1  0  0  0
 37 66  1  0  0  0
 37110  1  0  0  0
 38 43  2  0  0  0
 38 46  1  0  0  0
 38 47  1  0  0  0
 39 64  1  0  0  0
 39 67  2  0  0  0
 40 52  1  0  0  0
 40 53  2  0  0  0
 40 58  1  0  0  0
 41111  1  0  0  0
 41112  1  0  0  0
 41113  1  0  0  0
 41 48  1  0  0  0
 42 43  1  0  0  0
 42 66  1  0  0  0
 42114  1  0  0  0
 42115  1  0  0  0
 43 44  1  0  0  0
 44116  1  0  0  0
 45 46  2  0  0  0
 45117  1  0  0  0
 46118  1  0  0  0
 47119  1  0  0  0
 47120  1  0  0  0
 48 56  1  0  0  0
 48 65  1  0  0  0
 48121  1  0  0  0
 49 50  1  0  0  0
 49 53  1  0  0  0
 49 64  1  0  0  0
 49122  1  0  0  0
 50 51  1  0  0  0
 50123  1  0  0  0
 50124  1  0  0  0
 51 52  1  0  0  0
 51125  1  0  0  0
 51126  1  0  0  0
 52127  1  0  0  0
 52128  1  0  0  0
 53 54  1  0  0  0
 54 55  2  0  0  0
 54129  1  0  0  0
 55 57  1  0  0  0
 55130  1  0  0  0
 56 69  2  0  0  0
 57 58  2  0  0  0
 57131  1  0  0  0
 58132  1  0  0  0
 59 60  1  0  0  0
 59 61  1  0  0  0
 59 62  1  0  0  0
 60133  1  0  0  0
 60134  1  0  0  0
 60135  1  0  0  0
 61136  1  0  0  0
 61137  1  0  0  0
 61138  1  0  0  0
 62139  1  0  0  0
 62140  1  0  0  0
 62141  1  0  0  0
 63 65  1  0  0  0
 63142  1  0  0  0
 63143  1  0  0  0
 63144  1  0  0  0
 64145  1  0  0  0
 65146  1  0  0  0
 68 83  1  0  0  0
 71 72  2  0  0  0
 71 73  1  0  0  0
 71147  1  0  0  0
 72 74  1  0  0  0
 72148  1  0  0  0
 73 76  2  0  0  0
 73149  1  0  0  0
 74 75  2  0  0  0
 74 77  1  0  0  0
 75 76  1  0  0  0
 75 78  1  0  0  0
 76 86  1  0  0  0
 77 85  1  0  0  0
 77 87  2  0  0  0
 78150  1  0  0  0
 78151  1  0  0  0
 78152  1  0  0  0
 79 81  1  0  0  0
 79153  1  0  0  0
 79154  1  0  0  0
 79155  1  0  0  0
 80156  1  0  0  0
 80157  1  0  0  0
 80158  1  0  0  0
 80 84  1  0  0  0
 81 84  1  0  0  0
 81159  1  0  0  0
 81160  1  0  0  0
 82 84  1  0  0  0
 82 87  1  0  0  0
 82161  1  0  0  0
 82162  1  0  0  0
 83 84  1  0  0  0
 83163  1  0  0  0
 83164  1  0  0  0
 85165  1  0  0  0
 85166  1  0  0  0
 86167  1  0  0  0
 87168  1  0  0  0
M  CHG  1  87   1
M  ISO  4   1 100  68 101  83 101  86 100
M  END
> <chiral flag>
0

> <version>
0

> <s_m_source_file>
/data/baiqing/PycharmProjects/Reinvent-master-3.2/result/LINK_invent/BTK/process_docking_weight1_custom_product_contain_oxygen_bond_distance_aromatic_linkinvent_7_9_3/rearranged_h_0056.sdf

> <i_m_source_file_index>
69

> <r_mmod_Potential_Energy-OPLS-2005>
-124.362617492676

> <r_mmod_Stretch_Energy-OPLS-2005>
67.2818145751953

> <r_mmod_Bend_Energy-OPLS-2005>
144.78857421875

> <r_mmod_Torsional_Energy-OPLS-2005>
259.152740478516

> <r_mmod_Improper_Torsional_Energy-OPLS-2005>
6.10734415054321

> <r_mmod_Van_der_Waal_Energy-OPLS-2005>
171.808349609375

> <r_mmod_Electrostatic_Energy-OPLS-2005>
-404.632293701172

> <r_mmod_Solvation_Energy-OPLS-2005>
-398.290252685547

> <b_mmod_Minimization_Converged-OPLS-2005>
0

> <r_mmod_RMS_Derivative-OPLS-2005>
1.21823406219482

$$$$
69
                    3D
 Structure written by MMmdl.
159167  0  0  1  0            999 V2000
  -30.7090  -14.4417   20.5101 C   0  0  0  0  0  0
  -30.4075  -12.2635   19.4332 C   0  0  0  0  0  0
  -29.4947  -12.4926   18.2094 C   0  0  0  0  0  0
  -28.0119  -12.3641   18.6158 C   0  0  0  0  0  0
  -27.6583  -13.2032   19.8739 C   0  0  2  0  0  0
  -28.7006  -13.0054   20.9992 C   0  0  0  0  0  0
  -25.2589  -13.8151   20.5707 C   0  0  0  0  0  0
  -24.1823  -13.0440   20.9192 C   0  0  0  0  0  0
  -24.6364  -11.6908   20.8745 C   0  0  0  0  0  0
  -23.9030  -10.4289   21.0421 C   0  0  0  0  0  0
  -24.3591   -9.4208   21.9197 C   0  0  0  0  0  0
  -23.6274   -8.2238   22.0774 C   0  0  0  0  0  0
  -22.4256   -8.0275   21.3557 C   0  0  0  0  0  0
  -21.9883   -9.0248   20.4655 C   0  0  0  0  0  0
  -22.7211  -10.2129   20.3070 C   0  0  0  0  0  0
  -21.6839   -6.0724   22.5269 C   0  0  0  0  0  0
  -21.4015   -6.5631   23.8210 C   0  0  0  0  0  0
  -21.3681   -5.6789   24.9176 C   0  0  0  0  0  0
  -21.6055   -4.3051   24.7220 C   0  0  0  0  0  0
  -21.8817   -3.8133   23.4340 C   0  0  0  0  0  0
  -21.9199   -4.6949   22.3395 C   0  0  0  0  0  0
  -22.7865  -13.5270   21.1861 C   0  0  0  0  0  0
  -22.1670   -4.2140   21.0972 F   0  0  0  0  0  0
  -21.5644   -3.4534   25.7732 F   0  0  0  0  0  0
  -30.0347  -13.2667   20.4366 N   0  0  0  0  0  0
  -26.3002  -12.9309   20.3357 N   0  0  0  0  0  0
  -25.9287  -11.6476   20.5752 N   0  0  0  0  0  0
  -22.0499  -12.8262   22.0396 N   0  0  0  0  0  0
  -25.4340  -15.1876   20.4163 N   0  0  0  0  0  0
  -31.8860  -14.5804   20.1788 O   0  0  0  0  0  0
  -21.6635   -6.8866   21.4238 O   0  0  0  0  0  0
  -22.3560  -14.5595   20.6742 O   0  0  0  0  0  0
  -24.6154  -31.8682   23.2109 C   0  0  0  0  0  0
  -25.9056  -32.4824   23.8409 C   0  0  1  0  0  0
  -27.2385  -27.4463   20.0841 C   0  0  0  0  0  0
  -25.5913  -33.8626   24.2351 N   0  0  0  0  0  0
  -23.4009  -30.4897   21.5545 C   0  0  2  0  0  0
  -24.8444  -28.9528   20.1200 C   0  0  0  0  0  0
  -22.7428  -29.4623   22.5029 C   0  0  0  0  0  0
  -18.0258  -28.1325   22.8492 C   0  0  0  0  0  0
  -24.1470  -36.7311   23.2632 C   0  0  0  0  0  0
  -25.9258  -30.8381   21.3551 C   0  0  0  0  0  0
  -26.0041  -29.4693   20.7112 C   0  0  0  0  0  0
  -27.2002  -28.7211   20.6927 C   0  0  0  0  0  0
  -26.0585  -26.9422   19.4880 C   0  0  0  0  0  0
  -24.8643  -27.6878   19.5100 C   0  0  0  0  0  0
  -23.6061  -29.8173   20.1695 C   0  0  0  0  0  0
  -25.4083  -36.3112   24.0345 C   0  0  1  0  0  0
  -20.5846  -28.3631   23.1329 C   0  0  2  0  0  0
  -20.6743  -26.9348   22.5454 C   0  0  0  0  0  0
  -19.5739  -26.6329   21.5231 C   0  0  0  0  0  0
  -18.1906  -26.7851   22.1638 C   0  0  0  0  0  0
  -19.1506  -28.8793   23.2884 C   0  0  0  0  0  0
  -18.9433  -30.1402   23.8898 C   0  0  0  0  0  0
  -17.6432  -30.6561   24.0492 C   0  0  0  0  0  0
  -25.9025  -34.9479   23.5138 C   0  0  0  0  0  0
  -16.5328  -29.9051   23.6270 C   0  0  0  0  0  0
  -16.7250  -28.6448   23.0354 C   0  0  0  0  0  0
  -26.4472  -31.6591   25.0736 C   0  0  0  0  0  0
  -25.3729  -31.3746   26.1491 C   0  0  0  0  0  0
  -27.0284  -30.3037   24.6072 C   0  0  0  0  0  0
  -27.6040  -32.4305   25.7505 C   0  0  0  0  0  0
  -27.5558  -37.1817   24.8466 C   0  0  0  0  0  0
  -21.4151  -29.3003   22.3780 N   0  0  0  0  0  0
  -26.4267  -37.3797   23.9411 N   0  0  0  0  0  0
  -24.6671  -31.0785   22.1006 N   0  0  0  0  0  0
  -23.4217  -28.8155   23.3052 O   0  0  0  0  0  0
  -28.4377  -26.7639   20.0882 O   0  0  0  0  0  0
  -26.5571  -34.8928   22.4694 O   0  0  0  0  0  0
  -23.5355  -32.1437   23.7515 O   0  0  0  0  0  0
  -29.5723  -16.0265   22.8664 C   0  0  0  0  0  0
  -29.0908  -16.9341   23.8325 C   0  0  0  0  0  0
  -28.9685  -17.6135   21.1127 C   0  0  0  0  0  0
  -28.4638  -18.5164   22.0717 C   0  0  0  0  0  0
  -29.5019  -16.3666   21.4961 C   0  0  0  0  0  0
  -28.5297  -18.1676   23.4419 C   0  0  0  0  0  0
  -27.8759  -19.7835   21.6088 C   0  0  0  0  0  0
  -28.2668  -23.0580   20.9622 C   0  0  0  0  0  0
  -27.8255  -24.5338   20.9256 C   0  0  0  0  0  0
  -27.4813  -22.2605   22.0228 C   0  0  0  0  0  0
  -28.4718  -25.3632   19.7977 C   0  0  0  0  0  0
  -27.1736  -19.8239   20.4738 N   0  0  0  0  0  0
  -29.9168  -15.5162   20.4452 N   0  0  0  0  0  0
  -28.0440  -20.9242   22.2932 N   0  3  0  0  0  0
  -28.0570  -19.0100   24.3933 F   0  0  0  0  0  0
  -31.4606  -12.3163   19.1513 H   0  0  0  0  0  0
  -30.2560  -11.2615   19.8379 H   0  0  0  0  0  0
  -29.7305  -11.7761   17.4228 H   0  0  0  0  0  0
  -29.6736  -13.4820   17.7863 H   0  0  0  0  0  0
  -27.8133  -11.3089   18.8093 H   0  0  0  0  0  0
  -27.3662  -12.6494   17.7849 H   0  0  0  0  0  0
  -27.6931  -14.2485   19.5701 H   0  0  0  0  0  0
  -28.6568  -11.9900   21.3964 H   0  0  0  0  0  0
  -28.4777  -13.6639   21.8386 H   0  0  0  0  0  0
  -25.2738   -9.5699   22.4760 H   0  0  0  0  0  0
  -24.0012   -7.4634   22.7490 H   0  0  0  0  0  0
  -21.0826   -8.8749   19.8933 H   0  0  0  0  0  0
  -22.3667  -10.9676   19.6176 H   0  0  0  0  0  0
  -21.1989   -7.6135   23.9711 H   0  0  0  0  0  0
  -21.1523   -6.0518   25.9086 H   0  0  0  0  0  0
  -22.0567   -2.7585   23.2842 H   0  0  0  0  0  0
  -22.4107  -11.9905   22.4769 H   0  0  0  0  0  0
  -21.1120  -13.1306   22.2591 H   0  0  0  0  0  0
  -24.6720  -15.8447   20.5413 H   0  0  0  0  0  0
  -26.2886  -15.6175   20.0875 H   0  0  0  0  0  0
  -26.7140  -32.5535   23.1189 H   0  0  0  0  0  0
  -25.0096  -33.9787   25.0522 H   0  0  0  0  0  0
  -22.6880  -31.3038   21.4166 H   0  0  0  0  0  0
  -23.3710  -35.9664   23.3321 H   0  0  0  0  0  0
  -24.3567  -36.8922   22.2045 H   0  0  0  0  0  0
  -23.7264  -37.6545   23.6622 H   0  0  0  0  0  0
  -26.0179  -31.5938   20.5735 H   0  0  0  0  0  0
  -26.8222  -30.9111   21.9595 H   0  0  0  0  0  0
  -28.0992  -29.1146   21.1472 H   0  0  0  0  0  0
  -26.0360  -25.9812   18.9972 H   0  0  0  0  0  0
  -23.9720  -27.2848   19.0484 H   0  0  0  0  0  0
  -23.7066  -30.5861   19.4036 H   0  0  0  0  0  0
  -22.7335  -29.2270   19.8858 H   0  0  0  0  0  0
  -25.1257  -36.1966   25.0839 H   0  0  0  0  0  0
  -20.9880  -28.3203   24.1477 H   0  0  0  0  0  0
  -20.5628  -26.2213   23.3648 H   0  0  0  0  0  0
  -21.6611  -26.7369   22.1272 H   0  0  0  0  0  0
  -19.6908  -25.6242   21.1283 H   0  0  0  0  0  0
  -19.6696  -27.3110   20.6726 H   0  0  0  0  0  0
  -17.4175  -26.6581   21.4045 H   0  0  0  0  0  0
  -18.0311  -25.9978   22.9030 H   0  0  0  0  0  0
  -19.7908  -30.7177   24.2331 H   0  0  0  0  0  0
  -17.4993  -31.6261   24.5045 H   0  0  0  0  0  0
  -15.5328  -30.2970   23.7543 H   0  0  0  0  0  0
  -15.8641  -28.0740   22.7104 H   0  0  0  0  0  0
  -24.5886  -30.7101   25.7866 H   0  0  0  0  0  0
  -24.8921  -32.2938   26.4855 H   0  0  0  0  0  0
  -25.8075  -30.8997   27.0297 H   0  0  0  0  0  0
  -26.2871  -29.6864   24.0999 H   0  0  0  0  0  0
  -27.3963  -29.7189   25.4508 H   0  0  0  0  0  0
  -27.8713  -30.4375   23.9287 H   0  0  0  0  0  0
  -27.2651  -33.3597   26.2075 H   0  0  0  0  0  0
  -28.3842  -32.6893   25.0343 H   0  0  0  0  0  0
  -28.0680  -31.8439   26.5441 H   0  0  0  0  0  0
  -28.2587  -38.0096   24.7468 H   0  0  0  0  0  0
  -28.1043  -36.2641   24.6308 H   0  0  0  0  0  0
  -27.2287  -37.1497   25.8874 H   0  0  0  0  0  0
  -20.9289  -29.8878   21.7158 H   0  0  0  0  0  0
  -26.0154  -38.2875   24.1414 H   0  0  0  0  0  0
  -29.9822  -15.0803   23.1908 H   0  0  0  0  0  0
  -29.1415  -16.6779   24.8813 H   0  0  0  0  0  0
  -28.9362  -17.8808   20.0662 H   0  0  0  0  0  0
  -29.3346  -23.0016   21.1719 H   0  0  0  0  0  0
  -28.1221  -22.6087   19.9784 H   0  0  0  0  0  0
  -28.0781  -24.9925   21.8819 H   0  0  0  0  0  0
  -26.7403  -24.5880   20.8391 H   0  0  0  0  0  0
  -26.4299  -22.1763   21.7397 H   0  0  0  0  0  0
  -27.4971  -22.8118   22.9641 H   0  0  0  0  0  0
  -28.0405  -25.1335   18.8236 H   0  0  0  0  0  0
  -29.5252  -25.0938   19.7202 H   0  0  0  0  0  0
  -26.9725  -18.9671   19.9811 H   0  0  0  0  0  0
  -26.8362  -20.6879   20.0857 H   0  0  0  0  0  0
  -30.0857  -16.0256   19.5907 H   0  0  0  0  0  0
  -28.4940  -20.8090   23.1969 H   0  0  0  0  0  0
  1 25  1  0  0  0
  1 30  2  0  0  0
  1 83  1  0  0  0
  2  3  1  0  0  0
  2 25  1  0  0  0
  2 86  1  0  0  0
  2 87  1  0  0  0
  3  4  1  0  0  0
  3 88  1  0  0  0
  3 89  1  0  0  0
  4  5  1  0  0  0
  4 90  1  0  0  0
  4 91  1  0  0  0
  5  6  1  0  0  0
  5 26  1  0  0  0
  5 92  1  0  0  0
  6 25  1  0  0  0
  6 93  1  0  0  0
  6 94  1  0  0  0
  7  8  2  0  0  0
  7 26  1  0  0  0
  7 29  1  0  0  0
  8  9  1  0  0  0
  8 22  1  0  0  0
  9 10  1  0  0  0
  9 27  2  0  0  0
 10 11  2  0  0  0
 10 15  1  0  0  0
 11 12  1  0  0  0
 11 95  1  0  0  0
 12 13  2  0  0  0
 12 96  1  0  0  0
 13 14  1  0  0  0
 13 31  1  0  0  0
 14 15  2  0  0  0
 14 97  1  0  0  0
 15 98  1  0  0  0
 16 17  2  0  0  0
 16 21  1  0  0  0
 16 31  1  0  0  0
 17 18  1  0  0  0
 17 99  1  0  0  0
 18 19  2  0  0  0
 18100  1  0  0  0
 19 20  1  0  0  0
 19 24  1  0  0  0
 20 21  2  0  0  0
 20101  1  0  0  0
 21 23  1  0  0  0
 22 28  1  0  0  0
 22 32  2  0  0  0
 26 27  1  0  0  0
 28102  1  0  0  0
 28103  1  0  0  0
 29104  1  0  0  0
 29105  1  0  0  0
 33 34  1  0  0  0
 33 66  1  0  0  0
 33 70  2  0  0  0
 34 36  1  0  0  0
 34 59  1  0  0  0
 34106  1  0  0  0
 35 44  2  0  0  0
 35 45  1  0  0  0
 35 68  1  0  0  0
 36 56  1  0  0  0
 36107  1  0  0  0
 37 39  1  0  0  0
 37 47  1  0  0  0
 37 66  1  0  0  0
 37108  1  0  0  0
 38 43  2  0  0  0
 38 46  1  0  0  0
 38 47  1  0  0  0
 39 64  1  0  0  0
 39 67  2  0  0  0
 40 52  1  0  0  0
 40 53  2  0  0  0
 40 58  1  0  0  0
 41109  1  0  0  0
 41110  1  0  0  0
 41111  1  0  0  0
 41 48  1  0  0  0
 42 43  1  0  0  0
 42 66  1  0  0  0
 42112  1  0  0  0
 42113  1  0  0  0
 43 44  1  0  0  0
 44114  1  0  0  0
 45 46  2  0  0  0
 45115  1  0  0  0
 46116  1  0  0  0
 47117  1  0  0  0
 47118  1  0  0  0
 48 56  1  0  0  0
 48 65  1  0  0  0
 48119  1  0  0  0
 49 50  1  0  0  0
 49 53  1  0  0  0
 49 64  1  0  0  0
 49120  1  0  0  0
 50 51  1  0  0  0
 50121  1  0  0  0
 50122  1  0  0  0
 51 52  1  0  0  0
 51123  1  0  0  0
 51124  1  0  0  0
 52125  1  0  0  0
 52126  1  0  0  0
 53 54  1  0  0  0
 54 55  2  0  0  0
 54127  1  0  0  0
 55 57  1  0  0  0
 55128  1  0  0  0
 56 69  2  0  0  0
 57 58  2  0  0  0
 57129  1  0  0  0
 58130  1  0  0  0
 59 60  1  0  0  0
 59 61  1  0  0  0
 59 62  1  0  0  0
 60131  1  0  0  0
 60132  1  0  0  0
 60133  1  0  0  0
 61134  1  0  0  0
 61135  1  0  0  0
 61136  1  0  0  0
 62137  1  0  0  0
 62138  1  0  0  0
 62139  1  0  0  0
 63 65  1  0  0  0
 63140  1  0  0  0
 63141  1  0  0  0
 63142  1  0  0  0
 64143  1  0  0  0
 65144  1  0  0  0
 68 81  1  0  0  0
 71 72  2  0  0  0
 71 75  1  0  0  0
 71145  1  0  0  0
 72 76  1  0  0  0
 72146  1  0  0  0
 73 74  1  0  0  0
 73 75  2  0  0  0
 73147  1  0  0  0
 74 76  2  0  0  0
 74 77  1  0  0  0
 75 83  1  0  0  0
 76 85  1  0  0  0
 77 82  1  0  0  0
 77 84  2  0  0  0
 78 79  1  0  0  0
 78 80  1  0  0  0
 78148  1  0  0  0
 78149  1  0  0  0
 79 81  1  0  0  0
 79150  1  0  0  0
 79151  1  0  0  0
 80 84  1  0  0  0
 80152  1  0  0  0
 80153  1  0  0  0
 81154  1  0  0  0
 81155  1  0  0  0
 82156  1  0  0  0
 82157  1  0  0  0
 83158  1  0  0  0
 84159  1  0  0  0
M  CHG  1  84   1
M  ISO  4   1 100  68 101  81 101  83 100
M  END
> <chiral flag>
0

> <version>
0

> <s_m_source_file>
/data/baiqing/PycharmProjects/Reinvent-master-3.2/result/LINK_invent/BTK/process_docking_weight1_custom_product_contain_oxygen_bond_distance_aromatic_linkinvent_7_9_3/rearranged_h_0056.sdf

> <i_m_source_file_index>
70

> <r_mmod_Potential_Energy-OPLS-2005>
-225.641952514648

> <r_mmod_Stretch_Energy-OPLS-2005>
32.8639373779297

> <r_mmod_Bend_Energy-OPLS-2005>
110.442230224609

> <r_mmod_Torsional_Energy-OPLS-2005>
253.964080810547

> <r_mmod_Improper_Torsional_Energy-OPLS-2005>
19.6090717315674

> <r_mmod_Van_der_Waal_Energy-OPLS-2005>
152.143447875977

> <r_mmod_Electrostatic_Energy-OPLS-2005>
-382.558654785156

> <r_mmod_Solvation_Energy-OPLS-2005>
-427.65185546875

> <b_mmod_Minimization_Converged-OPLS-2005>
0

> <r_mmod_RMS_Derivative-OPLS-2005>
3.17870354652405

$$$$
70
                    3D
 Structure written by MMmdl.
164172  0  0  1  0            999 V2000
  -30.7361  -14.3997   20.5360 C   0  0  0  0  0  0
  -30.4112  -12.2427   19.4418 C   0  0  0  0  0  0
  -29.5062  -12.4744   18.2163 C   0  0  0  0  0  0
  -28.0228  -12.3583   18.6175 C   0  0  0  0  0  0
  -27.6656  -13.2022   19.8730 C   0  0  2  0  0  0
  -28.7011  -12.9908   21.0022 C   0  0  0  0  0  0
  -25.2615  -13.8145   20.5644 C   0  0  0  0  0  0
  -24.1867  -13.0421   20.9151 C   0  0  0  0  0  0
  -24.6406  -11.6890   20.8716 C   0  0  0  0  0  0
  -23.9068  -10.4294   21.0401 C   0  0  0  0  0  0
  -24.3615   -9.4215   21.9184 C   0  0  0  0  0  0
  -23.6292   -8.2254   22.0758 C   0  0  0  0  0  0
  -22.4271   -8.0296   21.3547 C   0  0  0  0  0  0
  -21.9915   -9.0270   20.4648 C   0  0  0  0  0  0
  -22.7244  -10.2143   20.3053 C   0  0  0  0  0  0
  -21.6858   -6.0745   22.5282 C   0  0  0  0  0  0
  -21.4019   -6.5642   23.8214 C   0  0  0  0  0  0
  -21.3660   -5.6795   24.9175 C   0  0  0  0  0  0
  -21.6039   -4.3062   24.7228 C   0  0  0  0  0  0
  -21.8823   -3.8151   23.4353 C   0  0  0  0  0  0
  -21.9196   -4.6968   22.3408 C   0  0  0  0  0  0
  -22.7887  -13.5236   21.1839 C   0  0  0  0  0  0
  -22.1654   -4.2153   21.0980 F   0  0  0  0  0  0
  -21.5631   -3.4530   25.7736 F   0  0  0  0  0  0
  -30.0410  -13.2410   20.4530 N   0  0  0  0  0  0
  -26.3039  -12.9300   20.3320 N   0  0  0  0  0  0
  -25.9331  -11.6465   20.5750 N   0  0  0  0  0  0
  -22.0524  -12.8229   22.0382 N   0  0  0  0  0  0
  -25.4371  -15.1869   20.4034 N   0  0  0  0  0  0
  -31.9107  -14.5053   20.1748 O   0  0  0  0  0  0
  -21.6636   -6.8891   21.4242 O   0  0  0  0  0  0
  -22.3575  -14.5571   20.6752 O   0  0  0  0  0  0
  -24.6155  -31.8686   23.2152 C   0  0  0  0  0  0
  -25.9060  -32.4828   23.8427 C   0  0  1  0  0  0
  -27.2380  -27.4538   20.1038 C   0  0  0  0  0  0
  -25.5931  -33.8621   24.2355 N   0  0  0  0  0  0
  -23.4056  -30.4910   21.5545 C   0  0  2  0  0  0
  -24.8515  -28.9567   20.1220 C   0  0  0  0  0  0
  -22.7423  -29.4665   22.5012 C   0  0  0  0  0  0
  -18.0270  -28.1385   22.8489 C   0  0  0  0  0  0
  -24.1466  -36.7329   23.2633 C   0  0  0  0  0  0
  -25.9320  -30.8354   21.3708 C   0  0  0  0  0  0
  -26.0088  -29.4694   20.7244 C   0  0  0  0  0  0
  -27.2082  -28.7223   20.7208 C   0  0  0  0  0  0
  -26.0718  -26.9507   19.4919 C   0  0  0  0  0  0
  -24.8741  -27.6919   19.5082 C   0  0  0  0  0  0
  -23.6152  -29.8262   20.1682 C   0  0  0  0  0  0
  -25.4079  -36.3104   24.0337 C   0  0  1  0  0  0
  -20.5847  -28.3688   23.1326 C   0  0  2  0  0  0
  -20.6752  -26.9422   22.5428 C   0  0  0  0  0  0
  -19.5736  -26.6405   21.5218 C   0  0  0  0  0  0
  -18.1913  -26.7930   22.1624 C   0  0  0  0  0  0
  -19.1509  -28.8860   23.2900 C   0  0  0  0  0  0
  -18.9441  -30.1464   23.8925 C   0  0  0  0  0  0
  -17.6443  -30.6598   24.0570 C   0  0  0  0  0  0
  -25.9027  -34.9472   23.5128 C   0  0  0  0  0  0
  -16.5335  -29.9100   23.6329 C   0  0  0  0  0  0
  -16.7256  -28.6516   23.0342 C   0  0  0  0  0  0
  -26.4487  -31.6601   25.0757 C   0  0  0  0  0  0
  -25.3782  -31.3713   26.1541 C   0  0  0  0  0  0
  -27.0298  -30.3029   24.6132 C   0  0  0  0  0  0
  -27.6056  -32.4326   25.7521 C   0  0  0  0  0  0
  -27.5557  -37.1808   24.8458 C   0  0  0  0  0  0
  -21.4147  -29.3047   22.3743 N   0  0  0  0  0  0
  -26.4256  -37.3799   23.9430 N   0  0  0  0  0  0
  -24.6683  -31.0782   22.1060 N   0  0  0  0  0  0
  -23.4192  -28.8193   23.3052 O   0  0  0  0  0  0
  -28.4025  -26.7327   20.0296 O   0  0  0  0  0  0
  -26.5564  -34.8917   22.4679 O   0  0  0  0  0  0
  -23.5359  -32.1447   23.7554 O   0  0  0  0  0  0
  -31.2109  -18.1904   18.5195 C   0  0  0  0  0  0
  -30.8413  -16.9302   19.0047 C   0  0  0  0  0  0
  -30.0018  -17.9449   21.0529 C   0  0  0  0  0  0
  -30.3326  -19.2341   20.5524 C   0  0  0  0  0  0
  -30.9928  -19.3440   19.2947 C   0  0  0  0  0  0
  -30.2920  -16.7863   20.3020 C   0  0  0  0  0  0
  -29.9147  -20.4563   21.3217 C   0  0  0  0  0  0
  -28.0417  -23.3432   23.2499 C   0  0  0  0  0  0
  -31.4944  -20.6658   18.7236 C   0  0  0  0  0  0
  -28.4971  -21.9825   23.8097 C   0  0  0  0  0  0
  -29.9790  -21.6108   23.5291 C   0  0  0  0  0  0
  -27.6252  -24.6684   21.1563 C   0  0  0  0  0  0
  -28.6512  -25.8193   21.1001 C   0  0  0  0  0  0
  -30.0110  -15.4918   20.8292 N   0  0  0  0  0  0
  -30.1628  -20.4577   22.6353 N   0  0  0  0  0  0
  -28.0950  -23.5173   21.9235 N   0  0  0  0  0  0
  -29.4062  -21.4164   20.7437 O   0  0  0  0  0  0
  -27.6046  -24.2093   24.0095 O   0  0  0  0  0  0
  -31.4626  -12.2934   19.1518 H   0  0  0  0  0  0
  -30.2608  -11.2415   19.8489 H   0  0  0  0  0  0
  -29.7426  -11.7434   17.4412 H   0  0  0  0  0  0
  -29.7026  -13.4550   17.7829 H   0  0  0  0  0  0
  -27.8216  -11.3024   18.8060 H   0  0  0  0  0  0
  -27.3854  -12.6395   17.7784 H   0  0  0  0  0  0
  -27.7122  -14.2489   19.5705 H   0  0  0  0  0  0
  -28.6533  -11.9667   21.3770 H   0  0  0  0  0  0
  -28.4835  -13.6320   21.8583 H   0  0  0  0  0  0
  -25.2767   -9.5682   22.4743 H   0  0  0  0  0  0
  -24.0007   -7.4645   22.7477 H   0  0  0  0  0  0
  -21.0855   -8.8786   19.8956 H   0  0  0  0  0  0
  -22.3717  -10.9671   19.6160 H   0  0  0  0  0  0
  -21.1999   -7.6143   23.9719 H   0  0  0  0  0  0
  -21.1478   -6.0518   25.9077 H   0  0  0  0  0  0
  -22.0602   -2.7610   23.2842 H   0  0  0  0  0  0
  -22.4128  -11.9876   22.4733 H   0  0  0  0  0  0
  -21.1160  -13.1290   22.2617 H   0  0  0  0  0  0
  -24.6755  -15.8476   20.5212 H   0  0  0  0  0  0
  -26.2922  -15.6239   20.0792 H   0  0  0  0  0  0
  -26.7146  -32.5524   23.1210 H   0  0  0  0  0  0
  -25.0117  -33.9791   25.0526 H   0  0  0  0  0  0
  -22.6952  -31.3071   21.4158 H   0  0  0  0  0  0
  -23.3701  -35.9698   23.3336 H   0  0  0  0  0  0
  -24.3548  -36.8912   22.2037 H   0  0  0  0  0  0
  -23.7256  -37.6559   23.6630 H   0  0  0  0  0  0
  -26.0426  -31.5986   20.5985 H   0  0  0  0  0  0
  -26.8212  -30.8900   21.9869 H   0  0  0  0  0  0
  -28.1047  -29.1195   21.1744 H   0  0  0  0  0  0
  -26.0920  -25.9851   19.0049 H   0  0  0  0  0  0
  -23.9850  -27.2897   19.0403 H   0  0  0  0  0  0
  -23.7422  -30.6057   19.4161 H   0  0  0  0  0  0
  -22.7374  -29.2533   19.8620 H   0  0  0  0  0  0
  -25.1243  -36.1956   25.0828 H   0  0  0  0  0  0
  -20.9914  -28.3238   24.1450 H   0  0  0  0  0  0
  -20.5651  -26.2286   23.3598 H   0  0  0  0  0  0
  -21.6624  -26.7449   22.1221 H   0  0  0  0  0  0
  -19.6900  -25.6328   21.1226 H   0  0  0  0  0  0
  -19.6677  -27.3235   20.6757 H   0  0  0  0  0  0
  -17.4170  -26.6685   21.4029 H   0  0  0  0  0  0
  -18.0318  -26.0066   22.9016 H   0  0  0  0  0  0
  -19.7919  -30.7255   24.2304 H   0  0  0  0  0  0
  -17.5004  -31.6269   24.5169 H   0  0  0  0  0  0
  -15.5340  -30.3006   23.7655 H   0  0  0  0  0  0
  -15.8643  -28.0851   22.7042 H   0  0  0  0  0  0
  -24.5920  -30.7092   25.7916 H   0  0  0  0  0  0
  -24.9030  -32.2868   26.5056 H   0  0  0  0  0  0
  -25.8177  -30.8842   27.0254 H   0  0  0  0  0  0
  -26.2860  -29.6842   24.1099 H   0  0  0  0  0  0
  -27.3958  -29.7207   25.4599 H   0  0  0  0  0  0
  -27.8748  -30.4330   23.9371 H   0  0  0  0  0  0
  -27.2643  -33.3563   26.2201 H   0  0  0  0  0  0
  -28.3813  -32.7004   25.0339 H   0  0  0  0  0  0
  -28.0803  -31.8410   26.5352 H   0  0  0  0  0  0
  -28.2571  -38.0098   24.7474 H   0  0  0  0  0  0
  -28.1043  -36.2624   24.6300 H   0  0  0  0  0  0
  -27.2287  -37.1503   25.8863 H   0  0  0  0  0  0
  -20.9327  -29.8761   21.6943 H   0  0  0  0  0  0
  -26.0137  -38.2875   24.1453 H   0  0  0  0  0  0
  -31.6647  -18.2622   17.5392 H   0  0  0  0  0  0
  -31.0109  -16.0704   18.3716 H   0  0  0  0  0  0
  -29.5192  -17.8485   22.0150 H   0  0  0  0  0  0
  -32.3839  -20.5111   18.1101 H   0  0  0  0  0  0
  -31.7778  -21.3773   19.4991 H   0  0  0  0  0  0
  -30.7305  -21.1210   18.0937 H   0  0  0  0  0  0
  -27.8231  -21.1990   23.4578 H   0  0  0  0  0  0
  -28.3504  -22.0264   24.8893 H   0  0  0  0  0  0
  -30.4706  -21.3661   24.4693 H   0  0  0  0  0  0
  -30.5287  -22.4696   23.1367 H   0  0  0  0  0  0
  -27.4501  -24.3115   20.1406 H   0  0  0  0  0  0
  -26.6634  -25.0150   21.5373 H   0  0  0  0  0  0
  -28.7082  -26.3442   22.0550 H   0  0  0  0  0  0
  -29.6443  -25.4062   20.9168 H   0  0  0  0  0  0
  -29.1153  -15.3442   21.2684 H   0  0  0  0  0  0
  -30.6162  -19.6356   23.0145 H   0  0  0  0  0  0
  -28.4794  -22.7423   21.3792 H   0  0  0  0  0  0
  1 25  1  0  0  0
  1 30  2  0  0  0
  1 84  1  0  0  0
  2  3  1  0  0  0
  2 25  1  0  0  0
  2 89  1  0  0  0
  2 90  1  0  0  0
  3  4  1  0  0  0
  3 91  1  0  0  0
  3 92  1  0  0  0
  4  5  1  0  0  0
  4 93  1  0  0  0
  4 94  1  0  0  0
  5  6  1  0  0  0
  5 26  1  0  0  0
  5 95  1  0  0  0
  6 25  1  0  0  0
  6 96  1  0  0  0
  6 97  1  0  0  0
  7  8  2  0  0  0
  7 26  1  0  0  0
  7 29  1  0  0  0
  8  9  1  0  0  0
  8 22  1  0  0  0
  9 10  1  0  0  0
  9 27  2  0  0  0
 10 11  2  0  0  0
 10 15  1  0  0  0
 11 12  1  0  0  0
 11 98  1  0  0  0
 12 13  2  0  0  0
 12 99  1  0  0  0
 13 14  1  0  0  0
 13 31  1  0  0  0
 14 15  2  0  0  0
 14100  1  0  0  0
 15101  1  0  0  0
 16 17  2  0  0  0
 16 21  1  0  0  0
 16 31  1  0  0  0
 17 18  1  0  0  0
 17102  1  0  0  0
 18 19  2  0  0  0
 18103  1  0  0  0
 19 20  1  0  0  0
 19 24  1  0  0  0
 20 21  2  0  0  0
 20104  1  0  0  0
 21 23  1  0  0  0
 22 28  1  0  0  0
 22 32  2  0  0  0
 26 27  1  0  0  0
 28105  1  0  0  0
 28106  1  0  0  0
 29107  1  0  0  0
 29108  1  0  0  0
 33 34  1  0  0  0
 33 66  1  0  0  0
 33 70  2  0  0  0
 34 36  1  0  0  0
 34 59  1  0  0  0
 34109  1  0  0  0
 35 44  2  0  0  0
 35 45  1  0  0  0
 35 68  1  0  0  0
 36 56  1  0  0  0
 36110  1  0  0  0
 37 39  1  0  0  0
 37 47  1  0  0  0
 37 66  1  0  0  0
 37111  1  0  0  0
 38 43  2  0  0  0
 38 46  1  0  0  0
 38 47  1  0  0  0
 39 64  1  0  0  0
 39 67  2  0  0  0
 40 52  1  0  0  0
 40 53  2  0  0  0
 40 58  1  0  0  0
 41112  1  0  0  0
 41113  1  0  0  0
 41114  1  0  0  0
 41 48  1  0  0  0
 42 43  1  0  0  0
 42 66  1  0  0  0
 42115  1  0  0  0
 42116  1  0  0  0
 43 44  1  0  0  0
 44117  1  0  0  0
 45 46  2  0  0  0
 45118  1  0  0  0
 46119  1  0  0  0
 47120  1  0  0  0
 47121  1  0  0  0
 48 56  1  0  0  0
 48 65  1  0  0  0
 48122  1  0  0  0
 49 50  1  0  0  0
 49 53  1  0  0  0
 49 64  1  0  0  0
 49123  1  0  0  0
 50 51  1  0  0  0
 50124  1  0  0  0
 50125  1  0  0  0
 51 52  1  0  0  0
 51126  1  0  0  0
 51127  1  0  0  0
 52128  1  0  0  0
 52129  1  0  0  0
 53 54  1  0  0  0
 54 55  2  0  0  0
 54130  1  0  0  0
 55 57  1  0  0  0
 55131  1  0  0  0
 56 69  2  0  0  0
 57 58  2  0  0  0
 57132  1  0  0  0
 58133  1  0  0  0
 59 60  1  0  0  0
 59 61  1  0  0  0
 59 62  1  0  0  0
 60134  1  0  0  0
 60135  1  0  0  0
 60136  1  0  0  0
 61137  1  0  0  0
 61138  1  0  0  0
 61139  1  0  0  0
 62140  1  0  0  0
 62141  1  0  0  0
 62142  1  0  0  0
 63 65  1  0  0  0
 63143  1  0  0  0
 63144  1  0  0  0
 63145  1  0  0  0
 64146  1  0  0  0
 65147  1  0  0  0
 68 83  1  0  0  0
 71 72  2  0  0  0
 71 75  1  0  0  0
 71148  1  0  0  0
 72 76  1  0  0  0
 72149  1  0  0  0
 73 74  1  0  0  0
 73 76  2  0  0  0
 73150  1  0  0  0
 74 75  2  0  0  0
 74 77  1  0  0  0
 75 79  1  0  0  0
 76 84  1  0  0  0
 77 85  1  0  0  0
 77 87  2  0  0  0
 78 80  1  0  0  0
 78 86  1  0  0  0
 78 88  2  0  0  0
 79151  1  0  0  0
 79152  1  0  0  0
 79153  1  0  0  0
 80 81  1  0  0  0
 80154  1  0  0  0
 80155  1  0  0  0
 81 85  1  0  0  0
 81156  1  0  0  0
 81157  1  0  0  0
 82 83  1  0  0  0
 82 86  1  0  0  0
 82158  1  0  0  0
 82159  1  0  0  0
 83160  1  0  0  0
 83161  1  0  0  0
 84162  1  0  0  0
 85163  1  0  0  0
 86164  1  0  0  0
M  ISO  4   1 100  68 101  83 101  84 100
M  END
> <chiral flag>
0

> <version>
0

> <s_m_source_file>
/data/baiqing/PycharmProjects/Reinvent-master-3.2/result/LINK_invent/BTK/process_docking_weight1_custom_product_contain_oxygen_bond_distance_aromatic_linkinvent_7_9_3/rearranged_h_0056.sdf

> <i_m_source_file_index>
71

> <r_mmod_Potential_Energy-OPLS-2005>
-143.124603271484

> <r_mmod_Stretch_Energy-OPLS-2005>
35.253475189209

> <r_mmod_Bend_Energy-OPLS-2005>
95.8685989379883

> <r_mmod_Torsional_Energy-OPLS-2005>
272.466857910156

> <r_mmod_Improper_Torsional_Energy-OPLS-2005>
6.10540914535522

> <r_mmod_Van_der_Waal_Energy-OPLS-2005>
164.88232421875

> <r_mmod_Electrostatic_Energy-OPLS-2005>
-484.900848388672

> <r_mmod_Solvation_Energy-OPLS-2005>
-248.049942016602

> <b_mmod_Minimization_Converged-OPLS-2005>
0

> <r_mmod_RMS_Derivative-OPLS-2005>
4.54959201812744

$$$$
71
                    3D
 Structure written by MMmdl.
159167  0  0  1  0            999 V2000
  -30.6924  -14.4671   20.5516 C   0  0  0  0  0  0
  -30.4210  -12.2977   19.4255 C   0  0  0  0  0  0
  -29.4950  -12.5045   18.2075 C   0  0  0  0  0  0
  -28.0141  -12.3799   18.6139 C   0  0  0  0  0  0
  -27.6618  -13.1991   19.8854 C   0  0  2  0  0  0
  -28.7063  -12.9774   21.0052 C   0  0  0  0  0  0
  -25.2586  -13.8129   20.5683 C   0  0  0  0  0  0
  -24.1817  -13.0422   20.9146 C   0  0  0  0  0  0
  -24.6359  -11.6884   20.8715 C   0  0  0  0  0  0
  -23.9022  -10.4280   21.0391 C   0  0  0  0  0  0
  -24.3590   -9.4210   21.9176 C   0  0  0  0  0  0
  -23.6274   -8.2245   22.0768 C   0  0  0  0  0  0
  -22.4262   -8.0269   21.3552 C   0  0  0  0  0  0
  -21.9871   -9.0232   20.4656 C   0  0  0  0  0  0
  -22.7187  -10.2115   20.3058 C   0  0  0  0  0  0
  -21.6847   -6.0713   22.5264 C   0  0  0  0  0  0
  -21.4007   -6.5621   23.8190 C   0  0  0  0  0  0
  -21.3665   -5.6787   24.9157 C   0  0  0  0  0  0
  -21.6048   -4.3047   24.7214 C   0  0  0  0  0  0
  -21.8826   -3.8129   23.4338 C   0  0  0  0  0  0
  -21.9194   -4.6940   22.3388 C   0  0  0  0  0  0
  -22.7852  -13.5249   21.1810 C   0  0  0  0  0  0
  -22.1676   -4.2127   21.0966 F   0  0  0  0  0  0
  -21.5635   -3.4537   25.7735 F   0  0  0  0  0  0
  -30.0413  -13.2767   20.4562 N   0  0  0  0  0  0
  -26.3024  -12.9280   20.3426 N   0  0  0  0  0  0
  -25.9292  -11.6450   20.5779 N   0  0  0  0  0  0
  -22.0472  -12.8279   22.0382 N   0  0  0  0  0  0
  -25.4304  -15.1849   20.4103 N   0  0  0  0  0  0
  -31.8089  -14.6700   20.0646 O   0  0  0  0  0  0
  -21.6648   -6.8852   21.4228 O   0  0  0  0  0  0
  -22.3567  -14.5566   20.6648 O   0  0  0  0  0  0
  -24.6130  -31.8687   23.2099 C   0  0  0  0  0  0
  -25.9028  -32.4830   23.8391 C   0  0  1  0  0  0
  -27.2427  -27.4492   20.1100 C   0  0  0  0  0  0
  -25.5878  -33.8623   24.2332 N   0  0  0  0  0  0
  -23.4014  -30.4901   21.5484 C   0  0  2  0  0  0
  -24.8527  -28.9574   20.1119 C   0  0  0  0  0  0
  -22.7407  -29.4660   22.4986 C   0  0  0  0  0  0
  -18.0280  -28.1376   22.8506 C   0  0  0  0  0  0
  -24.1484  -36.7319   23.2638 C   0  0  0  0  0  0
  -25.9252  -30.8433   21.3568 C   0  0  0  0  0  0
  -26.0079  -29.4781   20.7081 C   0  0  0  0  0  0
  -27.2079  -28.7334   20.7029 C   0  0  0  0  0  0
  -26.0793  -26.9465   19.4960 C   0  0  0  0  0  0
  -24.8821  -27.6908   19.4994 C   0  0  0  0  0  0
  -23.6100  -29.8180   20.1643 C   0  0  0  0  0  0
  -25.4102  -36.3118   24.0345 C   0  0  1  0  0  0
  -20.5869  -28.3658   23.1332 C   0  0  2  0  0  0
  -20.6764  -26.9397   22.5416 C   0  0  0  0  0  0
  -19.5735  -26.6385   21.5214 C   0  0  0  0  0  0
  -18.1918  -26.7926   22.1632 C   0  0  0  0  0  0
  -19.1527  -28.8836   23.2919 C   0  0  0  0  0  0
  -18.9448  -30.1447   23.8921 C   0  0  0  0  0  0
  -17.6449  -30.6581   24.0574 C   0  0  0  0  0  0
  -25.9022  -34.9484   23.5139 C   0  0  0  0  0  0
  -16.5346  -29.9079   23.6330 C   0  0  0  0  0  0
  -16.7271  -28.6499   23.0350 C   0  0  0  0  0  0
  -26.4455  -31.6596   25.0713 C   0  0  0  0  0  0
  -25.3728  -31.3693   26.1473 C   0  0  0  0  0  0
  -27.0278  -30.3047   24.6058 C   0  0  0  0  0  0
  -27.6045  -32.4300   25.7468 C   0  0  0  0  0  0
  -27.5580  -37.1816   24.8470 C   0  0  0  0  0  0
  -21.4135  -29.3026   22.3732 N   0  0  0  0  0  0
  -26.4295  -37.3799   23.9408 N   0  0  0  0  0  0
  -24.6649  -31.0808   22.0985 N   0  0  0  0  0  0
  -23.4179  -28.8236   23.3057 O   0  0  0  0  0  0
  -28.3634  -26.6501   20.1412 O   0  0  0  0  0  0
  -26.5593  -34.8940   22.4706 O   0  0  0  0  0  0
  -23.5324  -32.1440   23.7499 O   0  0  0  0  0  0
  -28.5356  -17.6167   18.3658 C   0  0  0  0  0  0
  -29.1073  -16.5169   19.0242 C   0  0  0  0  0  0
  -29.5664  -17.9183   20.9608 C   0  0  0  0  0  0
  -28.4634  -18.8749   18.9925 C   0  0  0  0  0  0
  -29.5898  -16.6409   20.3472 C   0  0  0  0  0  0
  -29.0536  -19.0531   20.2763 C   0  0  0  0  0  0
  -29.1585  -25.0673   21.8000 C   0  0  0  0  0  0
  -29.2005  -23.8587   20.9827 C   0  0  0  0  0  0
  -28.7965  -26.3025   21.3983 C   0  0  0  0  0  0
  -29.3869  -22.5941   21.4509 C   0  0  0  0  0  0
  -29.4915  -21.5072   20.4707 C   0  0  0  0  0  0
  -27.6924  -19.9721   18.2719 C   0  0  0  0  0  0
  -29.5208  -22.2339   22.9319 C   0  0  0  0  0  0
  -29.0761  -20.3152   20.9483 N   0  0  0  0  0  0
  -29.9809  -15.4780   21.0807 N   0  0  0  0  0  0
  -29.9554  -21.6491   19.3369 O   0  0  0  0  0  0
  -31.4666  -12.3914   19.1268 H   0  0  0  0  0  0
  -30.3125  -11.2856   19.8172 H   0  0  0  0  0  0
  -29.7281  -11.7781   17.4279 H   0  0  0  0  0  0
  -29.6743  -13.4844   17.7645 H   0  0  0  0  0  0
  -27.8071  -11.3223   18.7817 H   0  0  0  0  0  0
  -27.3741  -12.6873   17.7854 H   0  0  0  0  0  0
  -27.6942  -14.2478   19.6051 H   0  0  0  0  0  0
  -28.6803  -11.9434   21.3505 H   0  0  0  0  0  0
  -28.4682  -13.5806   21.8821 H   0  0  0  0  0  0
  -25.2733   -9.5703   22.4750 H   0  0  0  0  0  0
  -23.9971   -7.4656   22.7511 H   0  0  0  0  0  0
  -21.0792   -8.8743   19.8980 H   0  0  0  0  0  0
  -22.3623  -10.9657   19.6179 H   0  0  0  0  0  0
  -21.2007   -7.6137   23.9679 H   0  0  0  0  0  0
  -21.1487   -6.0524   25.9058 H   0  0  0  0  0  0
  -22.0603   -2.7590   23.2839 H   0  0  0  0  0  0
  -22.4055  -11.9931   22.4782 H   0  0  0  0  0  0
  -21.1100  -13.1336   22.2580 H   0  0  0  0  0  0
  -24.6624  -15.8368   20.5236 H   0  0  0  0  0  0
  -26.2868  -15.6306   20.1050 H   0  0  0  0  0  0
  -26.7109  -32.5566   23.1166 H   0  0  0  0  0  0
  -25.0028  -33.9782   25.0478 H   0  0  0  0  0  0
  -22.6896  -31.3064   21.4071 H   0  0  0  0  0  0
  -23.3735  -35.9660   23.3319 H   0  0  0  0  0  0
  -24.3577  -36.8915   22.2048 H   0  0  0  0  0  0
  -23.7255  -37.6540   23.6635 H   0  0  0  0  0  0
  -26.0292  -31.6063   20.5837 H   0  0  0  0  0  0
  -26.8160  -30.9037   21.9702 H   0  0  0  0  0  0
  -28.0991  -29.1376   21.1613 H   0  0  0  0  0  0
  -26.1002  -25.9687   19.0364 H   0  0  0  0  0  0
  -23.9936  -27.2834   19.0376 H   0  0  0  0  0  0
  -23.7128  -30.5914   19.4025 H   0  0  0  0  0  0
  -22.7359  -29.2331   19.8739 H   0  0  0  0  0  0
  -25.1274  -36.1982   25.0837 H   0  0  0  0  0  0
  -20.9978  -28.3215   24.1447 H   0  0  0  0  0  0
  -20.5661  -26.2265   23.3595 H   0  0  0  0  0  0
  -21.6632  -26.7432   22.1205 H   0  0  0  0  0  0
  -19.6892  -25.6302   21.1220 H   0  0  0  0  0  0
  -19.6662  -27.3214   20.6759 H   0  0  0  0  0  0
  -17.4183  -26.6700   21.4036 H   0  0  0  0  0  0
  -18.0310  -26.0046   22.9007 H   0  0  0  0  0  0
  -19.7923  -30.7270   24.2273 H   0  0  0  0  0  0
  -17.5001  -31.6259   24.5174 H   0  0  0  0  0  0
  -15.5346  -30.2984   23.7631 H   0  0  0  0  0  0
  -15.8677  -28.0827   22.7036 H   0  0  0  0  0  0
  -24.5898  -30.7039   25.7820 H   0  0  0  0  0  0
  -24.8913  -32.2841   26.4940 H   0  0  0  0  0  0
  -25.8089  -30.8856   27.0223 H   0  0  0  0  0  0
  -26.2816  -29.6823   24.1105 H   0  0  0  0  0  0
  -27.4062  -29.7270   25.4501 H   0  0  0  0  0  0
  -27.8642  -30.4378   23.9191 H   0  0  0  0  0  0
  -27.2674  -33.3587   26.2081 H   0  0  0  0  0  0
  -28.3830  -32.6874   25.0273 H   0  0  0  0  0  0
  -28.0729  -31.8392   26.5350 H   0  0  0  0  0  0
  -28.2618  -38.0097   24.7501 H   0  0  0  0  0  0
  -28.1056  -36.2631   24.6299 H   0  0  0  0  0  0
  -27.2303  -37.1490   25.8879 H   0  0  0  0  0  0
  -20.9285  -29.8741   21.6956 H   0  0  0  0  0  0
  -26.0187  -38.2882   24.1387 H   0  0  0  0  0  0
  -28.1168  -17.4747   17.3792 H   0  0  0  0  0  0
  -29.1124  -15.5684   18.5098 H   0  0  0  0  0  0
  -29.9469  -18.0273   21.9673 H   0  0  0  0  0  0
  -29.4610  -25.0077   22.8341 H   0  0  0  0  0  0
  -29.0922  -23.9981   19.9142 H   0  0  0  0  0  0
  -28.8147  -27.1405   22.0810 H   0  0  0  0  0  0
  -26.9302  -19.5489   17.6172 H   0  0  0  0  0  0
  -28.3554  -20.5774   17.6542 H   0  0  0  0  0  0
  -27.1729  -20.6208   18.9768 H   0  0  0  0  0  0
  -29.6197  -23.0903   23.5921 H   0  0  0  0  0  0
  -30.4064  -21.6169   23.0885 H   0  0  0  0  0  0
  -28.6489  -21.6713   23.2676 H   0  0  0  0  0  0
  -28.8619  -20.3082   21.9361 H   0  0  0  0  0  0
  -29.2897  -15.1703   21.7490 H   0  0  0  0  0  0
  1 25  1  0  0  0
  1 30  2  0  0  0
  1 85  1  0  0  0
  2  3  1  0  0  0
  2 25  1  0  0  0
  2 87  1  0  0  0
  2 88  1  0  0  0
  3  4  1  0  0  0
  3 89  1  0  0  0
  3 90  1  0  0  0
  4  5  1  0  0  0
  4 91  1  0  0  0
  4 92  1  0  0  0
  5  6  1  0  0  0
  5 26  1  0  0  0
  5 93  1  0  0  0
  6 25  1  0  0  0
  6 94  1  0  0  0
  6 95  1  0  0  0
  7  8  2  0  0  0
  7 26  1  0  0  0
  7 29  1  0  0  0
  8  9  1  0  0  0
  8 22  1  0  0  0
  9 10  1  0  0  0
  9 27  2  0  0  0
 10 11  2  0  0  0
 10 15  1  0  0  0
 11 12  1  0  0  0
 11 96  1  0  0  0
 12 13  2  0  0  0
 12 97  1  0  0  0
 13 14  1  0  0  0
 13 31  1  0  0  0
 14 15  2  0  0  0
 14 98  1  0  0  0
 15 99  1  0  0  0
 16 17  2  0  0  0
 16 21  1  0  0  0
 16 31  1  0  0  0
 17 18  1  0  0  0
 17100  1  0  0  0
 18 19  2  0  0  0
 18101  1  0  0  0
 19 20  1  0  0  0
 19 24  1  0  0  0
 20 21  2  0  0  0
 20102  1  0  0  0
 21 23  1  0  0  0
 22 28  1  0  0  0
 22 32  2  0  0  0
 26 27  1  0  0  0
 28103  1  0  0  0
 28104  1  0  0  0
 29105  1  0  0  0
 29106  1  0  0  0
 33 34  1  0  0  0
 33 66  1  0  0  0
 33 70  2  0  0  0
 34 36  1  0  0  0
 34 59  1  0  0  0
 34107  1  0  0  0
 35 44  2  0  0  0
 35 45  1  0  0  0
 35 68  1  0  0  0
 36 56  1  0  0  0
 36108  1  0  0  0
 37 39  1  0  0  0
 37 47  1  0  0  0
 37 66  1  0  0  0
 37109  1  0  0  0
 38 43  2  0  0  0
 38 46  1  0  0  0
 38 47  1  0  0  0
 39 64  1  0  0  0
 39 67  2  0  0  0
 40 52  1  0  0  0
 40 53  2  0  0  0
 40 58  1  0  0  0
 41110  1  0  0  0
 41111  1  0  0  0
 41112  1  0  0  0
 41 48  1  0  0  0
 42 43  1  0  0  0
 42 66  1  0  0  0
 42113  1  0  0  0
 42114  1  0  0  0
 43 44  1  0  0  0
 44115  1  0  0  0
 45 46  2  0  0  0
 45116  1  0  0  0
 46117  1  0  0  0
 47118  1  0  0  0
 47119  1  0  0  0
 48 56  1  0  0  0
 48 65  1  0  0  0
 48120  1  0  0  0
 49 50  1  0  0  0
 49 53  1  0  0  0
 49 64  1  0  0  0
 49121  1  0  0  0
 50 51  1  0  0  0
 50122  1  0  0  0
 50123  1  0  0  0
 51 52  1  0  0  0
 51124  1  0  0  0
 51125  1  0  0  0
 52126  1  0  0  0
 52127  1  0  0  0
 53 54  1  0  0  0
 54 55  2  0  0  0
 54128  1  0  0  0
 55 57  1  0  0  0
 55129  1  0  0  0
 56 69  2  0  0  0
 57 58  2  0  0  0
 57130  1  0  0  0
 58131  1  0  0  0
 59 60  1  0  0  0
 59 61  1  0  0  0
 59 62  1  0  0  0
 60132  1  0  0  0
 60133  1  0  0  0
 60134  1  0  0  0
 61135  1  0  0  0
 61136  1  0  0  0
 61137  1  0  0  0
 62138  1  0  0  0
 62139  1  0  0  0
 62140  1  0  0  0
 63 65  1  0  0  0
 63141  1  0  0  0
 63142  1  0  0  0
 63143  1  0  0  0
 64144  1  0  0  0
 65145  1  0  0  0
 68 79  1  0  0  0
 71 72  2  0  0  0
 71 74  1  0  0  0
 71146  1  0  0  0
 72 75  1  0  0  0
 72147  1  0  0  0
 73 75  2  0  0  0
 73 76  1  0  0  0
 73148  1  0  0  0
 74 76  2  0  0  0
 74 82  1  0  0  0
 75 85  1  0  0  0
 76 84  1  0  0  0
 77 78  1  0  0  0
 77 79  2  0  0  0
 77149  1  0  0  0
 78 80  2  0  0  0
 78150  1  0  0  0
 79151  1  0  0  0
 80 81  1  0  0  0
 80 83  1  0  0  0
 81 84  1  0  0  0
 81 86  2  0  0  0
 82152  1  0  0  0
 82153  1  0  0  0
 82154  1  0  0  0
 83155  1  0  0  0
 83156  1  0  0  0
 83157  1  0  0  0
 84158  1  0  0  0
 85159  1  0  0  0
M  ISO  4   1 100  68 101  79 101  85 100
M  END
> <chiral flag>
0

> <version>
0

> <s_m_source_file>
/data/baiqing/PycharmProjects/Reinvent-master-3.2/result/LINK_invent/BTK/process_docking_weight1_custom_product_contain_oxygen_bond_distance_aromatic_linkinvent_7_9_3/rearranged_h_0056.sdf

> <i_m_source_file_index>
72

> <r_mmod_Potential_Energy-OPLS-2005>
-2.3664231300354

> <r_mmod_Stretch_Energy-OPLS-2005>
38.7621459960938

> <r_mmod_Bend_Energy-OPLS-2005>
100.562683105469

> <r_mmod_Torsional_Energy-OPLS-2005>
299.070861816406

> <r_mmod_Improper_Torsional_Energy-OPLS-2005>
7.51690053939819

> <r_mmod_Van_der_Waal_Energy-OPLS-2005>
162.539321899414

> <r_mmod_Electrostatic_Energy-OPLS-2005>
-398.102233886719

> <r_mmod_Solvation_Energy-OPLS-2005>
-225.422378540039

> <b_mmod_Minimization_Converged-OPLS-2005>
0

> <r_mmod_RMS_Derivative-OPLS-2005>
1.98892343044281

$$$$
72
                    3D
 Structure written by MMmdl.
169178  0  0  1  0            999 V2000
  -30.7641  -14.4196   20.6495 C   0  0  0  0  0  0
  -30.4086  -12.3065   19.4317 C   0  0  0  0  0  0
  -29.4944  -12.5155   18.2101 C   0  0  0  0  0  0
  -28.0130  -12.3830   18.6086 C   0  0  0  0  0  0
  -27.6562  -13.2161   19.8671 C   0  0  2  0  0  0
  -28.6877  -13.0126   21.0001 C   0  0  0  0  0  0
  -25.2541  -13.8187   20.5635 C   0  0  0  0  0  0
  -24.1810  -13.0455   20.9143 C   0  0  0  0  0  0
  -24.6356  -11.6914   20.8676 C   0  0  0  0  0  0
  -23.9027  -10.4294   21.0351 C   0  0  0  0  0  0
  -24.3615   -9.4222   21.9138 C   0  0  0  0  0  0
  -23.6306   -8.2236   22.0709 C   0  0  0  0  0  0
  -22.4287   -8.0250   21.3500 C   0  0  0  0  0  0
  -21.9892   -9.0218   20.4607 C   0  0  0  0  0  0
  -22.7187  -10.2112   20.3000 C   0  0  0  0  0  0
  -21.6863   -6.0705   22.5250 C   0  0  0  0  0  0
  -21.4029   -6.5614   23.8185 C   0  0  0  0  0  0
  -21.3670   -5.6771   24.9154 C   0  0  0  0  0  0
  -21.6058   -4.3038   24.7210 C   0  0  0  0  0  0
  -21.8840   -3.8118   23.4336 C   0  0  0  0  0  0
  -21.9212   -4.6926   22.3397 C   0  0  0  0  0  0
  -22.7839  -13.5225   21.1845 C   0  0  0  0  0  0
  -22.1672   -4.2110   21.0974 F   0  0  0  0  0  0
  -21.5636   -3.4529   25.7731 F   0  0  0  0  0  0
  -30.0314  -13.2887   20.4630 N   0  0  0  0  0  0
  -26.2979  -12.9366   20.3278 N   0  0  0  0  0  0
  -25.9280  -11.6516   20.5702 N   0  0  0  0  0  0
  -22.0522  -12.8194   22.0415 N   0  0  0  0  0  0
  -25.4352  -15.1905   20.4053 N   0  0  0  0  0  0
  -31.8444  -14.5971   20.0784 O   0  0  0  0  0  0
  -21.6657   -6.8840   21.4206 O   0  0  0  0  0  0
  -22.3497  -14.5519   20.6672 O   0  0  0  0  0  0
  -24.6192  -31.8716   23.2220 C   0  0  0  0  0  0
  -25.9104  -32.4829   23.8465 C   0  0  1  0  0  0
  -27.2275  -27.4241   20.0909 C   0  0  0  0  0  0
  -25.6031  -33.8616   24.2458 N   0  0  0  0  0  0
  -23.4079  -30.5079   21.5597 C   0  0  2  0  0  0
  -24.8523  -28.9890   20.1156 C   0  0  0  0  0  0
  -22.7440  -29.4746   22.4990 C   0  0  0  0  0  0
  -18.0308  -28.1383   22.8515 C   0  0  0  0  0  0
  -24.1499  -36.7288   23.2663 C   0  0  0  0  0  0
  -25.9418  -30.8292   21.3873 C   0  0  0  0  0  0
  -26.0154  -29.4673   20.7289 C   0  0  0  0  0  0
  -27.2036  -28.6881   20.7298 C   0  0  0  0  0  0
  -26.0387  -26.9959   19.4381 C   0  0  0  0  0  0
  -24.8597  -27.7501   19.4693 C   0  0  0  0  0  0
  -23.6162  -29.8572   20.1694 C   0  0  0  0  0  0
  -25.4114  -36.3117   24.0398 C   0  0  1  0  0  0
  -20.5907  -28.3737   23.1274 C   0  0  2  0  0  0
  -20.6812  -26.9485   22.5383 C   0  0  0  0  0  0
  -19.5754  -26.6415   21.5217 C   0  0  0  0  0  0
  -18.1944  -26.7949   22.1620 C   0  0  0  0  0  0
  -19.1554  -28.8863   23.2885 C   0  0  0  0  0  0
  -18.9462  -30.1464   23.8914 C   0  0  0  0  0  0
  -17.6453  -30.6587   24.0579 C   0  0  0  0  0  0
  -25.9038  -34.9477   23.5191 C   0  0  0  0  0  0
  -16.5357  -29.9087   23.6330 C   0  0  0  0  0  0
  -16.7290  -28.6484   23.0398 C   0  0  0  0  0  0
  -26.4581  -31.6552   25.0736 C   0  0  0  0  0  0
  -25.3891  -31.3569   26.1506 C   0  0  0  0  0  0
  -27.0483  -30.3019   24.6078 C   0  0  0  0  0  0
  -27.6149  -32.4346   25.7416 C   0  0  0  0  0  0
  -27.5610  -37.1799   24.8488 C   0  0  0  0  0  0
  -21.4175  -29.3109   22.3680 N   0  0  0  0  0  0
  -26.4323  -37.3790   23.9436 N   0  0  0  0  0  0
  -24.6735  -31.0819   22.1138 N   0  0  0  0  0  0
  -23.4180  -28.8250   23.3023 O   0  0  0  0  0  0
  -28.3611  -26.6134   20.1350 O   0  0  0  0  0  0
  -26.5504  -34.8942   22.4686 O   0  0  0  0  0  0
  -23.5381  -32.1513   23.7601 O   0  0  0  0  0  0
  -32.7572  -18.0975   21.8587 C   0  0  0  0  0  0
  -32.1104  -16.8636   22.0324 C   0  0  0  0  0  0
  -30.0886  -17.8038   21.0715 C   0  0  0  0  0  0
  -32.1131  -19.1738   21.2105 C   0  0  0  0  0  0
  -30.7290  -19.0570   20.8819 C   0  0  0  0  0  0
  -30.7980  -16.6818   21.5484 C   0  0  0  0  0  0
  -30.3255  -22.2741   19.0843 C   0  0  0  0  0  0
  -34.1045  -22.0095   17.7442 C   0  0  0  0  0  0
  -32.9968  -20.2693   20.7934 C   0  0  0  0  0  0
  -34.0288  -21.6785   19.0413 C   0  0  0  0  0  0
  -33.1456  -20.6310   19.5072 C   0  0  0  0  0  0
  -30.0499  -23.7832   19.1321 C   0  0  0  0  0  0
  -29.6690  -23.7143   21.5833 C   0  0  0  0  0  0
  -30.1704  -22.2348   21.5811 C   0  0  0  0  0  0
  -29.0164  -24.0349   20.2376 C   0  0  1  0  0  0
  -29.8720  -20.1386   20.2044 C   0  0  0  0  0  0
  -28.0327  -25.2095   20.0714 C   0  0  0  0  0  0
  -30.2466  -21.5718   20.2494 N   0  0  0  0  0  0
  -30.2351  -15.3748   21.4417 N   0  0  0  0  0  0
  -30.4787  -21.7456   17.9797 O   0  0  0  0  0  0
  -31.4534  -12.3954   19.1323 H   0  0  0  0  0  0
  -30.2999  -11.2941   19.8224 H   0  0  0  0  0  0
  -29.7362  -11.7868   17.4353 H   0  0  0  0  0  0
  -29.6796  -13.4982   17.7744 H   0  0  0  0  0  0
  -27.8084  -11.3274   18.7896 H   0  0  0  0  0  0
  -27.3751  -12.6778   17.7738 H   0  0  0  0  0  0
  -27.6964  -14.2639   19.5667 H   0  0  0  0  0  0
  -28.6492  -11.9843   21.3621 H   0  0  0  0  0  0
  -28.4323  -13.6380   21.8567 H   0  0  0  0  0  0
  -25.2753   -9.5730   22.4712 H   0  0  0  0  0  0
  -24.0025   -7.4644   22.7424 H   0  0  0  0  0  0
  -21.0808   -8.8708   19.8943 H   0  0  0  0  0  0
  -22.3598  -10.9639   19.6117 H   0  0  0  0  0  0
  -21.2009   -7.6121   23.9663 H   0  0  0  0  0  0
  -21.1483   -6.0510   25.9055 H   0  0  0  0  0  0
  -22.0620   -2.7570   23.2851 H   0  0  0  0  0  0
  -22.4181  -11.9880   22.4832 H   0  0  0  0  0  0
  -21.1115  -13.1141   22.2614 H   0  0  0  0  0  0
  -24.6797  -15.8603   20.5015 H   0  0  0  0  0  0
  -26.2932  -15.6100   20.0691 H   0  0  0  0  0  0
  -26.7150  -32.5569   23.1204 H   0  0  0  0  0  0
  -25.0453  -33.9741   25.0791 H   0  0  0  0  0  0
  -22.7040  -31.3318   21.4285 H   0  0  0  0  0  0
  -23.3802  -35.9579   23.3293 H   0  0  0  0  0  0
  -24.3645  -36.8893   22.2097 H   0  0  0  0  0  0
  -23.7189  -37.6481   23.6626 H   0  0  0  0  0  0
  -26.0726  -31.5988   20.6256 H   0  0  0  0  0  0
  -26.8261  -30.8675   22.0115 H   0  0  0  0  0  0
  -28.0844  -29.0410   21.2512 H   0  0  0  0  0  0
  -25.9627  -26.0792   18.8791 H   0  0  0  0  0  0
  -23.9702  -27.3836   18.9760 H   0  0  0  0  0  0
  -23.7282  -30.6445   19.4228 H   0  0  0  0  0  0
  -22.7401  -29.2831   19.8600 H   0  0  0  0  0  0
  -25.1265  -36.2045   25.0899 H   0  0  0  0  0  0
  -20.9986  -28.3307   24.1391 H   0  0  0  0  0  0
  -20.5806  -26.2357   23.3597 H   0  0  0  0  0  0
  -21.6666  -26.7577   22.1114 H   0  0  0  0  0  0
  -19.6935  -25.6325   21.1250 H   0  0  0  0  0  0
  -19.6650  -27.3217   20.6754 H   0  0  0  0  0  0
  -17.4244  -26.6802   21.3999 H   0  0  0  0  0  0
  -18.0282  -26.0040   22.8947 H   0  0  0  0  0  0
  -19.7930  -30.7290   24.2297 H   0  0  0  0  0  0
  -17.5003  -31.6266   24.5187 H   0  0  0  0  0  0
  -15.5351  -30.2982   23.7623 H   0  0  0  0  0  0
  -15.8711  -28.0759   22.7162 H   0  0  0  0  0  0
  -24.6077  -30.6927   25.7800 H   0  0  0  0  0  0
  -24.9094  -32.2678   26.5075 H   0  0  0  0  0  0
  -25.8302  -30.8639   27.0175 H   0  0  0  0  0  0
  -26.3019  -29.6696   24.1260 H   0  0  0  0  0  0
  -27.4462  -29.7314   25.4474 H   0  0  0  0  0  0
  -27.8744  -30.4390   23.9108 H   0  0  0  0  0  0
  -27.2746  -33.3644   26.1975 H   0  0  0  0  0  0
  -28.3853  -32.6951   25.0144 H   0  0  0  0  0  0
  -28.0942  -31.8548   26.5313 H   0  0  0  0  0  0
  -28.2628  -38.0108   24.7565 H   0  0  0  0  0  0
  -28.1112  -36.2639   24.6245 H   0  0  0  0  0  0
  -27.2335  -37.1372   25.8899 H   0  0  0  0  0  0
  -20.9382  -29.8840   21.6884 H   0  0  0  0  0  0
  -26.0243  -38.2892   24.1391 H   0  0  0  0  0  0
  -33.8049  -18.1711   22.1166 H   0  0  0  0  0  0
  -32.6692  -16.0322   22.4423 H   0  0  0  0  0  0
  -29.0656  -17.6777   20.7416 H   0  0  0  0  0  0
  -34.7683  -22.7880   17.3984 H   0  0  0  0  0  0
  -33.4993  -21.5095   17.0000 H   0  0  0  0  0  0
  -33.5485  -20.7756   21.5742 H   0  0  0  0  0  0
  -34.6559  -22.2080   19.7457 H   0  0  0  0  0  0
  -32.5669  -20.0939   18.7671 H   0  0  0  0  0  0
  -29.6694  -24.1024   18.1622 H   0  0  0  0  0  0
  -30.9809  -24.3234   19.3143 H   0  0  0  0  0  0
  -30.5025  -24.3953   21.7672 H   0  0  0  0  0  0
  -28.9643  -23.8671   22.4020 H   0  0  0  0  0  0
  -29.5005  -21.6592   22.2200 H   0  0  0  0  0  0
  -31.1491  -22.1765   22.0562 H   0  0  0  0  0  0
  -28.2792  -23.2323   20.1434 H   0  0  0  0  0  0
  -28.8695  -20.0791   20.6341 H   0  0  0  0  0  0
  -29.7422  -19.7898   19.1787 H   0  0  0  0  0  0
  -27.2405  -25.0313   20.8038 H   0  0  0  0  0  0
  -27.6238  -25.0100   19.0836 H   0  0  0  0  0  0
  -29.2877  -15.2280   21.7601 H   0  0  0  0  0  0
  1 25  1  0  0  0
  1 30  2  0  0  0
  1 89  1  0  0  0
  2  3  1  0  0  0
  2 25  1  0  0  0
  2 91  1  0  0  0
  2 92  1  0  0  0
  3  4  1  0  0  0
  3 93  1  0  0  0
  3 94  1  0  0  0
  4  5  1  0  0  0
  4 95  1  0  0  0
  4 96  1  0  0  0
  5  6  1  0  0  0
  5 26  1  0  0  0
  5 97  1  0  0  0
  6 25  1  0  0  0
  6 98  1  0  0  0
  6 99  1  0  0  0
  7  8  2  0  0  0
  7 26  1  0  0  0
  7 29  1  0  0  0
  8  9  1  0  0  0
  8 22  1  0  0  0
  9 10  1  0  0  0
  9 27  2  0  0  0
 10 11  2  0  0  0
 10 15  1  0  0  0
 11 12  1  0  0  0
 11100  1  0  0  0
 12 13  2  0  0  0
 12101  1  0  0  0
 13 14  1  0  0  0
 13 31  1  0  0  0
 14 15  2  0  0  0
 14102  1  0  0  0
 15103  1  0  0  0
 16 17  2  0  0  0
 16 21  1  0  0  0
 16 31  1  0  0  0
 17 18  1  0  0  0
 17104  1  0  0  0
 18 19  2  0  0  0
 18105  1  0  0  0
 19 20  1  0  0  0
 19 24  1  0  0  0
 20 21  2  0  0  0
 20106  1  0  0  0
 21 23  1  0  0  0
 22 28  1  0  0  0
 22 32  2  0  0  0
 26 27  1  0  0  0
 28107  1  0  0  0
 28108  1  0  0  0
 29109  1  0  0  0
 29110  1  0  0  0
 33 34  1  0  0  0
 33 66  1  0  0  0
 33 70  2  0  0  0
 34 36  1  0  0  0
 34 59  1  0  0  0
 34111  1  0  0  0
 35 44  2  0  0  0
 35 45  1  0  0  0
 35 68  1  0  0  0
 36 56  1  0  0  0
 36112  1  0  0  0
 37 39  1  0  0  0
 37 47  1  0  0  0
 37 66  1  0  0  0
 37113  1  0  0  0
 38 43  2  0  0  0
 38 46  1  0  0  0
 38 47  1  0  0  0
 39 64  1  0  0  0
 39 67  2  0  0  0
 40 52  1  0  0  0
 40 53  2  0  0  0
 40 58  1  0  0  0
 41114  1  0  0  0
 41115  1  0  0  0
 41116  1  0  0  0
 41 48  1  0  0  0
 42 43  1  0  0  0
 42 66  1  0  0  0
 42117  1  0  0  0
 42118  1  0  0  0
 43 44  1  0  0  0
 44119  1  0  0  0
 45 46  2  0  0  0
 45120  1  0  0  0
 46121  1  0  0  0
 47122  1  0  0  0
 47123  1  0  0  0
 48 56  1  0  0  0
 48 65  1  0  0  0
 48124  1  0  0  0
 49 50  1  0  0  0
 49 53  1  0  0  0
 49 64  1  0  0  0
 49125  1  0  0  0
 50 51  1  0  0  0
 50126  1  0  0  0
 50127  1  0  0  0
 51 52  1  0  0  0
 51128  1  0  0  0
 51129  1  0  0  0
 52130  1  0  0  0
 52131  1  0  0  0
 53 54  1  0  0  0
 54 55  2  0  0  0
 54132  1  0  0  0
 55 57  1  0  0  0
 55133  1  0  0  0
 56 69  2  0  0  0
 57 58  2  0  0  0
 57134  1  0  0  0
 58135  1  0  0  0
 59 60  1  0  0  0
 59 61  1  0  0  0
 59 62  1  0  0  0
 60136  1  0  0  0
 60137  1  0  0  0
 60138  1  0  0  0
 61139  1  0  0  0
 61140  1  0  0  0
 61141  1  0  0  0
 62142  1  0  0  0
 62143  1  0  0  0
 62144  1  0  0  0
 63 65  1  0  0  0
 63145  1  0  0  0
 63146  1  0  0  0
 63147  1  0  0  0
 64148  1  0  0  0
 65149  1  0  0  0
 68 87  1  0  0  0
 71 72  2  0  0  0
 71 74  1  0  0  0
 71150  1  0  0  0
 72 76  1  0  0  0
 72151  1  0  0  0
 73 75  1  0  0  0
 73 76  2  0  0  0
 73152  1  0  0  0
 74 75  2  0  0  0
 74 79  1  0  0  0
 75 86  1  0  0  0
 76 89  1  0  0  0
 77 82  1  0  0  0
 77 88  1  0  0  0
 77 90  2  0  0  0
 78 80  2  0  0  0
 78153  1  0  0  0
 78154  1  0  0  0
 79 81  2  0  0  0
 79155  1  0  0  0
 80 81  1  0  0  0
 80156  1  0  0  0
 81157  1  0  0  0
 82 85  1  0  0  0
 82158  1  0  0  0
 82159  1  0  0  0
 83 84  1  0  0  0
 83 85  1  0  0  0
 83160  1  0  0  0
 83161  1  0  0  0
 84 88  1  0  0  0
 84162  1  0  0  0
 84163  1  0  0  0
 85 87  1  0  0  0
 85164  1  0  0  0
 86 88  1  0  0  0
 86165  1  0  0  0
 86166  1  0  0  0
 87167  1  0  0  0
 87168  1  0  0  0
 89169  1  0  0  0
M  ISO  4   1 100  68 101  87 101  89 100
M  END
> <chiral flag>
0

> <version>
0

> <s_m_source_file>
/data/baiqing/PycharmProjects/Reinvent-master-3.2/result/LINK_invent/BTK/process_docking_weight1_custom_product_contain_oxygen_bond_distance_aromatic_linkinvent_7_9_3/rearranged_h_0056.sdf

> <i_m_source_file_index>
73

> <r_mmod_Potential_Energy-OPLS-2005>
101.669990539551

> <r_mmod_Stretch_Energy-OPLS-2005>
45.532096862793

> <r_mmod_Bend_Energy-OPLS-2005>
158.292221069336

> <r_mmod_Torsional_Energy-OPLS-2005>
300.530120849609

> <r_mmod_Improper_Torsional_Energy-OPLS-2005>
6.29240989685059

> <r_mmod_Van_der_Waal_Energy-OPLS-2005>
191.073348999023

> <r_mmod_Electrostatic_Energy-OPLS-2005>
-392.152221679688

> <r_mmod_Solvation_Energy-OPLS-2005>
-223.621307373047

> <b_mmod_Minimization_Converged-OPLS-2005>
0

> <r_mmod_RMS_Derivative-OPLS-2005>
4.8095383644104

$$$$
73
                    3D
 Structure written by MMmdl.
157165  0  0  1  0            999 V2000
  -30.7285  -14.4866   20.6556 C   0  0  0  0  0  0
  -30.4342  -12.3510   19.4248 C   0  0  0  0  0  0
  -29.4993  -12.5343   18.2123 C   0  0  0  0  0  0
  -28.0242  -12.3793   18.6221 C   0  0  0  0  0  0
  -27.6641  -13.2144   19.8788 C   0  0  2  0  0  0
  -28.7037  -12.9954   21.0009 C   0  0  0  0  0  0
  -25.2584  -13.8170   20.5679 C   0  0  0  0  0  0
  -24.1838  -13.0443   20.9183 C   0  0  0  0  0  0
  -24.6403  -11.6908   20.8711 C   0  0  0  0  0  0
  -23.9071  -10.4300   21.0408 C   0  0  0  0  0  0
  -24.3610   -9.4216   21.9192 C   0  0  0  0  0  0
  -23.6281   -8.2252   22.0756 C   0  0  0  0  0  0
  -22.4257   -8.0305   21.3557 C   0  0  0  0  0  0
  -21.9901   -9.0286   20.4659 C   0  0  0  0  0  0
  -22.7237  -10.2163   20.3071 C   0  0  0  0  0  0
  -21.6858   -6.0744   22.5282 C   0  0  0  0  0  0
  -21.4015   -6.5635   23.8218 C   0  0  0  0  0  0
  -21.3660   -5.6784   24.9178 C   0  0  0  0  0  0
  -21.6045   -4.3047   24.7230 C   0  0  0  0  0  0
  -21.8815   -3.8151   23.4339 C   0  0  0  0  0  0
  -21.9189   -4.6972   22.3399 C   0  0  0  0  0  0
  -22.7868  -13.5269   21.1844 C   0  0  0  0  0  0
  -22.1670   -4.2155   21.0973 F   0  0  0  0  0  0
  -21.5622   -3.4532   25.7743 F   0  0  0  0  0  0
  -30.0389  -13.3239   20.4600 N   0  0  0  0  0  0
  -26.3038  -12.9362   20.3374 N   0  0  0  0  0  0
  -25.9344  -11.6506   20.5730 N   0  0  0  0  0  0
  -22.0492  -12.8304   22.0412 N   0  0  0  0  0  0
  -25.4251  -15.1885   20.4021 N   0  0  0  0  0  0
  -31.8267  -14.7016   20.1318 O   0  0  0  0  0  0
  -21.6630   -6.8905   21.4255 O   0  0  0  0  0  0
  -22.3563  -14.5561   20.6668 O   0  0  0  0  0  0
  -24.6206  -31.8664   23.2094 C   0  0  0  0  0  0
  -25.9082  -32.4807   23.8399 C   0  0  1  0  0  0
  -27.2405  -27.3972   20.1000 C   0  0  0  0  0  0
  -25.5938  -33.8606   24.2335 N   0  0  0  0  0  0
  -23.4130  -30.4897   21.5503 C   0  0  2  0  0  0
  -24.8601  -28.9571   20.1155 C   0  0  0  0  0  0
  -22.7468  -29.4626   22.4976 C   0  0  0  0  0  0
  -18.0280  -28.1374   22.8495 C   0  0  0  0  0  0
  -24.1480  -36.7292   23.2638 C   0  0  0  0  0  0
  -25.9445  -30.8184   21.3723 C   0  0  0  0  0  0
  -26.0228  -29.4537   20.7144 C   0  0  0  0  0  0
  -27.2170  -28.6852   20.6991 C   0  0  0  0  0  0
  -26.0524  -26.9356   19.4822 C   0  0  0  0  0  0
  -24.8743  -27.7016   19.4910 C   0  0  0  0  0  0
  -23.6235  -29.8256   20.1649 C   0  0  0  0  0  0
  -25.4115  -36.3105   24.0340 C   0  0  1  0  0  0
  -20.5885  -28.3678   23.1314 C   0  0  2  0  0  0
  -20.6777  -26.9411   22.5401 C   0  0  0  0  0  0
  -19.5752  -26.6393   21.5203 C   0  0  0  0  0  0
  -18.1936  -26.7911   22.1639 C   0  0  0  0  0  0
  -19.1543  -28.8857   23.2893 C   0  0  0  0  0  0
  -18.9451  -30.1461   23.8893 C   0  0  0  0  0  0
  -17.6448  -30.6586   24.0569 C   0  0  0  0  0  0
  -25.9047  -34.9459   23.5136 C   0  0  0  0  0  0
  -16.5349  -29.9077   23.6323 C   0  0  0  0  0  0
  -16.7272  -28.6503   23.0349 C   0  0  0  0  0  0
  -26.4484  -31.6599   25.0741 C   0  0  0  0  0  0
  -25.3741  -31.3724   26.1494 C   0  0  0  0  0  0
  -27.0322  -30.3036   24.6141 C   0  0  0  0  0  0
  -27.6065  -32.4333   25.7495 C   0  0  0  0  0  0
  -27.5572  -37.1818   24.8478 C   0  0  0  0  0  0
  -21.4185  -29.3049   22.3713 N   0  0  0  0  0  0
  -26.4300  -37.3787   23.9401 N   0  0  0  0  0  0
  -24.6771  -31.0730   22.1010 N   0  0  0  0  0  0
  -23.4222  -28.8170   23.3044 O   0  0  0  0  0  0
  -28.3871  -26.6083   20.1332 O   0  0  0  0  0  0
  -26.5583  -34.8925   22.4669 O   0  0  0  0  0  0
  -23.5389  -32.1423   23.7464 O   0  0  0  0  0  0
  -31.1301  -19.4176   22.4965 C   0  0  0  0  0  0
  -31.5093  -16.9994   22.6801 C   0  0  0  0  0  0
  -30.1412  -19.2136   21.5015 C   0  0  0  0  0  0
  -31.8080  -18.3198   23.0800 C   0  0  0  0  0  0
  -30.5325  -16.7596   21.6890 C   0  0  0  0  0  0
  -29.8590  -17.8662   21.1063 C   0  0  0  0  0  0
  -29.2970  -20.3780   20.9941 C   0  0  0  0  0  0
  -32.8127  -18.5615   24.1898 C   0  0  0  0  0  0
  -29.3488  -24.2120   20.5561 C   0  0  0  0  0  0
  -28.8000  -22.8203   21.0157 C   0  0  0  0  0  0
  -28.1479  -25.1959   20.3751 C   0  0  0  0  0  0
  -30.1010  -15.4222   21.3987 N   0  0  0  0  0  0
  -29.7254  -21.6611   21.1352 N   0  0  0  0  0  0
  -28.1984  -20.1451   20.4889 O   0  0  0  0  0  0
  -28.9005  -17.5953   20.1855 F   0  0  0  0  0  0
  -31.4767  -12.4649   19.1243 H   0  0  0  0  0  0
  -30.3584  -11.3374   19.8207 H   0  0  0  0  0  0
  -29.7467  -11.8114   17.4361 H   0  0  0  0  0  0
  -29.6548  -13.5195   17.7704 H   0  0  0  0  0  0
  -27.8363  -11.3219   18.8134 H   0  0  0  0  0  0
  -27.3728  -12.6540   17.7911 H   0  0  0  0  0  0
  -27.7091  -14.2637   19.5855 H   0  0  0  0  0  0
  -28.6883  -11.9545   21.3268 H   0  0  0  0  0  0
  -28.4478  -13.5778   21.8857 H   0  0  0  0  0  0
  -25.2759   -9.5687   22.4766 H   0  0  0  0  0  0
  -23.9998   -7.4636   22.7449 H   0  0  0  0  0  0
  -21.0850   -8.8809   19.8954 H   0  0  0  0  0  0
  -22.3703  -10.9707   19.6169 H   0  0  0  0  0  0
  -21.2015   -7.6136   23.9740 H   0  0  0  0  0  0
  -21.1480   -6.0492   25.9072 H   0  0  0  0  0  0
  -22.0583   -2.7610   23.2831 H   0  0  0  0  0  0
  -22.4078  -11.9997   22.4880 H   0  0  0  0  0  0
  -21.1106  -13.1356   22.2581 H   0  0  0  0  0  0
  -24.6456  -15.8320   20.4806 H   0  0  0  0  0  0
  -26.2699  -15.6281   20.0582 H   0  0  0  0  0  0
  -26.7158  -32.5496   23.1165 H   0  0  0  0  0  0
  -25.0119  -33.9778   25.0507 H   0  0  0  0  0  0
  -22.7000  -31.3049   21.4121 H   0  0  0  0  0  0
  -23.3729  -35.9637   23.3344 H   0  0  0  0  0  0
  -24.3558  -36.8854   22.2040 H   0  0  0  0  0  0
  -23.7253  -37.6527   23.6609 H   0  0  0  0  0  0
  -26.0701  -31.5856   20.6079 H   0  0  0  0  0  0
  -26.8273  -30.8616   21.9995 H   0  0  0  0  0  0
  -28.1137  -29.0647   21.1702 H   0  0  0  0  0  0
  -26.0065  -25.9852   18.9752 H   0  0  0  0  0  0
  -23.9852  -27.3146   19.0159 H   0  0  0  0  0  0
  -23.7365  -30.6011   19.4052 H   0  0  0  0  0  0
  -22.7463  -29.2493   19.8662 H   0  0  0  0  0  0
  -25.1291  -36.1969   25.0840 H   0  0  0  0  0  0
  -20.9971  -28.3241   24.1429 H   0  0  0  0  0  0
  -20.5689  -26.2285   23.3605 H   0  0  0  0  0  0
  -21.6650  -26.7459   22.1195 H   0  0  0  0  0  0
  -19.6917  -25.6309   21.1229 H   0  0  0  0  0  0
  -19.6669  -27.3206   20.6740 H   0  0  0  0  0  0
  -17.4194  -26.6654   21.4041 H   0  0  0  0  0  0
  -18.0350  -26.0055   22.9035 H   0  0  0  0  0  0
  -19.7941  -30.7283   24.2235 H   0  0  0  0  0  0
  -17.5009  -31.6243   24.5188 H   0  0  0  0  0  0
  -15.5347  -30.2968   23.7659 H   0  0  0  0  0  0
  -15.8676  -28.0825   22.7047 H   0  0  0  0  0  0
  -24.5914  -30.7069   25.7822 H   0  0  0  0  0  0
  -24.8930  -32.2886   26.4936 H   0  0  0  0  0  0
  -25.8105  -30.8899   27.0246 H   0  0  0  0  0  0
  -26.2870  -29.6806   24.1180 H   0  0  0  0  0  0
  -27.4050  -29.7286   25.4625 H   0  0  0  0  0  0
  -27.8729  -30.4342   23.9324 H   0  0  0  0  0  0
  -27.2684  -33.3631   26.2086 H   0  0  0  0  0  0
  -28.3854  -32.6907   25.0301 H   0  0  0  0  0  0
  -28.0739  -31.8444   26.5400 H   0  0  0  0  0  0
  -28.2646  -38.0059   24.7468 H   0  0  0  0  0  0
  -28.1017  -36.2597   24.6380 H   0  0  0  0  0  0
  -27.2278  -37.1563   25.8881 H   0  0  0  0  0  0
  -20.9336  -29.8782   21.6940 H   0  0  0  0  0  0
  -26.0185  -38.2871   24.1373 H   0  0  0  0  0  0
  -31.3433  -20.4153   22.8585 H   0  0  0  0  0  0
  -31.9978  -16.1681   23.1719 H   0  0  0  0  0  0
  -32.3030  -18.5992   25.1559 H   0  0  0  0  0  0
  -33.3328  -19.5098   24.0486 H   0  0  0  0  0  0
  -33.5633  -17.7692   24.2308 H   0  0  0  0  0  0
  -29.8813  -24.1175   19.6097 H   0  0  0  0  0  0
  -30.0637  -24.6076   21.2813 H   0  0  0  0  0  0
  -27.9801  -22.5659   20.3413 H   0  0  0  0  0  0
  -28.3366  -22.9511   21.9942 H   0  0  0  0  0  0
  -27.5207  -25.1285   21.2687 H   0  0  0  0  0  0
  -27.5632  -24.7791   19.5564 H   0  0  0  0  0  0
  -29.1650  -15.1873   21.6908 H   0  0  0  0  0  0
  -30.6430  -21.8177   21.5302 H   0  0  0  0  0  0
  1 25  1  0  0  0
  1 30  2  0  0  0
  1 82  1  0  0  0
  2  3  1  0  0  0
  2 25  1  0  0  0
  2 86  1  0  0  0
  2 87  1  0  0  0
  3  4  1  0  0  0
  3 88  1  0  0  0
  3 89  1  0  0  0
  4  5  1  0  0  0
  4 90  1  0  0  0
  4 91  1  0  0  0
  5  6  1  0  0  0
  5 26  1  0  0  0
  5 92  1  0  0  0
  6 25  1  0  0  0
  6 93  1  0  0  0
  6 94  1  0  0  0
  7  8  2  0  0  0
  7 26  1  0  0  0
  7 29  1  0  0  0
  8  9  1  0  0  0
  8 22  1  0  0  0
  9 10  1  0  0  0
  9 27  2  0  0  0
 10 11  2  0  0  0
 10 15  1  0  0  0
 11 12  1  0  0  0
 11 95  1  0  0  0
 12 13  2  0  0  0
 12 96  1  0  0  0
 13 14  1  0  0  0
 13 31  1  0  0  0
 14 15  2  0  0  0
 14 97  1  0  0  0
 15 98  1  0  0  0
 16 17  2  0  0  0
 16 21  1  0  0  0
 16 31  1  0  0  0
 17 18  1  0  0  0
 17 99  1  0  0  0
 18 19  2  0  0  0
 18100  1  0  0  0
 19 20  1  0  0  0
 19 24  1  0  0  0
 20 21  2  0  0  0
 20101  1  0  0  0
 21 23  1  0  0  0
 22 28  1  0  0  0
 22 32  2  0  0  0
 26 27  1  0  0  0
 28102  1  0  0  0
 28103  1  0  0  0
 29104  1  0  0  0
 29105  1  0  0  0
 33 34  1  0  0  0
 33 66  1  0  0  0
 33 70  2  0  0  0
 34 36  1  0  0  0
 34 59  1  0  0  0
 34106  1  0  0  0
 35 44  2  0  0  0
 35 45  1  0  0  0
 35 68  1  0  0  0
 36 56  1  0  0  0
 36107  1  0  0  0
 37 39  1  0  0  0
 37 47  1  0  0  0
 37 66  1  0  0  0
 37108  1  0  0  0
 38 43  2  0  0  0
 38 46  1  0  0  0
 38 47  1  0  0  0
 39 64  1  0  0  0
 39 67  2  0  0  0
 40 52  1  0  0  0
 40 53  2  0  0  0
 40 58  1  0  0  0
 41109  1  0  0  0
 41110  1  0  0  0
 41111  1  0  0  0
 41 48  1  0  0  0
 42 43  1  0  0  0
 42 66  1  0  0  0
 42112  1  0  0  0
 42113  1  0  0  0
 43 44  1  0  0  0
 44114  1  0  0  0
 45 46  2  0  0  0
 45115  1  0  0  0
 46116  1  0  0  0
 47117  1  0  0  0
 47118  1  0  0  0
 48 56  1  0  0  0
 48 65  1  0  0  0
 48119  1  0  0  0
 49 50  1  0  0  0
 49 53  1  0  0  0
 49 64  1  0  0  0
 49120  1  0  0  0
 50 51  1  0  0  0
 50121  1  0  0  0
 50122  1  0  0  0
 51 52  1  0  0  0
 51123  1  0  0  0
 51124  1  0  0  0
 52125  1  0  0  0
 52126  1  0  0  0
 53 54  1  0  0  0
 54 55  2  0  0  0
 54127  1  0  0  0
 55 57  1  0  0  0
 55128  1  0  0  0
 56 69  2  0  0  0
 57 58  2  0  0  0
 57129  1  0  0  0
 58130  1  0  0  0
 59 60  1  0  0  0
 59 61  1  0  0  0
 59 62  1  0  0  0
 60131  1  0  0  0
 60132  1  0  0  0
 60133  1  0  0  0
 61134  1  0  0  0
 61135  1  0  0  0
 61136  1  0  0  0
 62137  1  0  0  0
 62138  1  0  0  0
 62139  1  0  0  0
 63 65  1  0  0  0
 63140  1  0  0  0
 63141  1  0  0  0
 63142  1  0  0  0
 64143  1  0  0  0
 65144  1  0  0  0
 68 81  1  0  0  0
 71 73  2  0  0  0
 71 74  1  0  0  0
 71145  1  0  0  0
 72 74  2  0  0  0
 72 75  1  0  0  0
 72146  1  0  0  0
 73 76  1  0  0  0
 73 77  1  0  0  0
 74 78  1  0  0  0
 75 76  2  0  0  0
 75 82  1  0  0  0
 76 85  1  0  0  0
 77 83  1  0  0  0
 77 84  2  0  0  0
 78147  1  0  0  0
 78148  1  0  0  0
 78149  1  0  0  0
 79 80  1  0  0  0
 79 81  1  0  0  0
 79150  1  0  0  0
 79151  1  0  0  0
 80 83  1  0  0  0
 80152  1  0  0  0
 80153  1  0  0  0
 81154  1  0  0  0
 81155  1  0  0  0
 82156  1  0  0  0
 83157  1  0  0  0
M  ISO  4   1 100  68 101  81 101  82 100
M  END
> <chiral flag>
0

> <version>
0

> <s_m_source_file>
/data/baiqing/PycharmProjects/Reinvent-master-3.2/result/LINK_invent/BTK/process_docking_weight1_custom_product_contain_oxygen_bond_distance_aromatic_linkinvent_7_9_3/rearranged_h_0056.sdf

> <i_m_source_file_index>
74

> <r_mmod_Potential_Energy-OPLS-2005>
-62.5589561462402

> <r_mmod_Stretch_Energy-OPLS-2005>
50.3687362670898

> <r_mmod_Bend_Energy-OPLS-2005>
111.477333068848

> <r_mmod_Torsional_Energy-OPLS-2005>
248.906829833984

> <r_mmod_Improper_Torsional_Energy-OPLS-2005>
4.29408979415894

> <r_mmod_Van_der_Waal_Energy-OPLS-2005>
160.485458374023

> <r_mmod_Electrostatic_Energy-OPLS-2005>
-426.418914794922

> <r_mmod_Solvation_Energy-OPLS-2005>
-229.236663818359

> <b_mmod_Minimization_Converged-OPLS-2005>
0

> <r_mmod_RMS_Derivative-OPLS-2005>
4.55552387237549

$$$$
74
                    3D
 Structure written by MMmdl.
172181  0  0  1  0            999 V2000
  -30.7506  -14.3554   20.6445 C   0  0  0  0  0  0
  -30.4028  -12.2619   19.3885 C   0  0  0  0  0  0
  -29.4780  -12.5019   18.1818 C   0  0  0  0  0  0
  -28.0035  -12.3595   18.6027 C   0  0  0  0  0  0
  -27.6606  -13.1903   19.8642 C   0  0  2  0  0  0
  -28.6945  -12.9319   20.9788 C   0  0  0  0  0  0
  -25.2603  -13.8124   20.5649 C   0  0  0  0  0  0
  -24.1826  -13.0425   20.9122 C   0  0  0  0  0  0
  -24.6331  -11.6875   20.8644 C   0  0  0  0  0  0
  -23.8996  -10.4275   21.0352 C   0  0  0  0  0  0
  -24.3553   -9.4210   21.9140 C   0  0  0  0  0  0
  -23.6251   -8.2248   22.0749 C   0  0  0  0  0  0
  -22.4224   -8.0287   21.3544 C   0  0  0  0  0  0
  -21.9820   -9.0248   20.4647 C   0  0  0  0  0  0
  -22.7154  -10.2118   20.3034 C   0  0  0  0  0  0
  -21.6860   -6.0716   22.5261 C   0  0  0  0  0  0
  -21.4021   -6.5604   23.8206 C   0  0  0  0  0  0
  -21.3666   -5.6759   24.9161 C   0  0  0  0  0  0
  -21.6040   -4.3024   24.7216 C   0  0  0  0  0  0
  -21.8817   -3.8119   23.4339 C   0  0  0  0  0  0
  -21.9196   -4.6938   22.3387 C   0  0  0  0  0  0
  -22.7869  -13.5275   21.1795 C   0  0  0  0  0  0
  -22.1682   -4.2140   21.0974 F   0  0  0  0  0  0
  -21.5619   -3.4507   25.7727 F   0  0  0  0  0  0
  -30.0382  -13.2166   20.4409 N   0  0  0  0  0  0
  -26.2994  -12.9245   20.3261 N   0  0  0  0  0  0
  -25.9222  -11.6420   20.5593 N   0  0  0  0  0  0
  -22.0492  -12.8343   22.0381 N   0  0  0  0  0  0
  -25.4375  -15.1842   20.4161 N   0  0  0  0  0  0
  -31.8028  -14.6033   20.0507 O   0  0  0  0  0  0
  -21.6636   -6.8856   21.4229 O   0  0  0  0  0  0
  -22.3603  -14.5610   20.6672 O   0  0  0  0  0  0
  -24.6068  -31.8720   23.2131 C   0  0  0  0  0  0
  -25.8987  -32.4856   23.8407 C   0  0  1  0  0  0
  -27.2630  -27.4915   20.0693 C   0  0  0  0  0  0
  -25.5850  -33.8654   24.2340 N   0  0  0  0  0  0
  -23.3930  -30.4891   21.5537 C   0  0  2  0  0  0
  -24.8448  -28.9535   20.1249 C   0  0  0  0  0  0
  -22.7353  -29.4659   22.5050 C   0  0  0  0  0  0
  -18.0264  -28.1389   22.8479 C   0  0  0  0  0  0
  -24.1484  -36.7328   23.2625 C   0  0  0  0  0  0
  -25.9132  -30.8472   21.3613 C   0  0  0  0  0  0
  -25.9982  -29.4802   20.7184 C   0  0  0  0  0  0
  -27.2018  -28.7495   20.7078 C   0  0  0  0  0  0
  -26.0872  -26.9497   19.5093 C   0  0  0  0  0  0
  -24.8788  -27.6762   19.5332 C   0  0  0  0  0  0
  -23.6013  -29.8138   20.1709 C   0  0  0  0  0  0
  -25.4090  -36.3118   24.0337 C   0  0  1  0  0  0
  -20.5842  -28.3660   23.1354 C   0  0  2  0  0  0
  -20.6749  -26.9394   22.5462 C   0  0  0  0  0  0
  -19.5755  -26.6391   21.5225 C   0  0  0  0  0  0
  -18.1916  -26.7940   22.1598 C   0  0  0  0  0  0
  -19.1509  -28.8841   23.2904 C   0  0  0  0  0  0
  -18.9439  -30.1436   23.8930 C   0  0  0  0  0  0
  -17.6446  -30.6577   24.0585 C   0  0  0  0  0  0
  -25.9027  -34.9489   23.5139 C   0  0  0  0  0  0
  -16.5347  -29.9091   23.6326 C   0  0  0  0  0  0
  -16.7251  -28.6513   23.0341 C   0  0  0  0  0  0
  -26.4439  -31.6623   25.0716 C   0  0  0  0  0  0
  -25.3739  -31.3790   26.1514 C   0  0  0  0  0  0
  -27.0197  -30.3040   24.6078 C   0  0  0  0  0  0
  -27.6085  -32.4301   25.7408 C   0  0  0  0  0  0
  -27.5599  -37.1765   24.8428 C   0  0  0  0  0  0
  -21.4097  -29.3031   22.3767 N   0  0  0  0  0  0
  -26.4269  -37.3806   23.9440 N   0  0  0  0  0  0
  -24.6547  -31.0823   22.1029 N   0  0  0  0  0  0
  -23.4124  -28.8220   23.3094 O   0  0  0  0  0  0
  -28.4445  -26.7941   19.9593 O   0  0  0  0  0  0
  -26.5597  -34.8929   22.4700 O   0  0  0  0  0  0
  -23.5276  -32.1491   23.7529 O   0  0  0  0  0  0
  -30.7572  -17.9510   23.9567 C   0  0  0  0  0  0
  -31.6502  -18.7878   23.2562 C   0  0  0  0  0  0
  -30.2819  -16.7695   23.3608 C   0  0  0  0  0  0
  -31.6033  -17.2425   21.3665 C   0  0  0  0  0  0
  -32.0666  -18.4369   21.9527 C   0  0  0  0  0  0
  -30.7187  -16.3924   22.0746 C   0  0  0  0  0  0
  -33.7338  -22.4719   17.1510 C   0  0  0  0  0  0
  -33.0194  -23.4658   17.6975 C   0  0  0  0  0  0
  -33.7986  -21.1670   17.4604 C   0  0  0  0  0  0
  -31.9134  -22.4092   19.5623 C   0  0  0  0  0  0
  -33.1929  -20.4261   18.4119 C   0  0  0  0  0  0
  -32.1844  -23.4692   18.7636 C   0  0  0  0  0  0
  -32.5190  -21.0551   19.6067 C   0  0  0  0  0  0
  -32.9533  -19.3458   21.1632 C   0  0  0  0  0  0
  -31.3347  -25.8288   18.6422 C   0  0  0  0  0  0
  -32.8719  -18.9681   18.0913 C   0  0  0  0  0  0
  -31.9297  -28.1105   19.5391 C   0  0  0  0  0  0
  -29.4698  -27.5001   19.2410 C   0  0  0  0  0  0
  -30.8853  -26.9729   19.5742 C   0  0  1  0  0  0
  -32.3115  -20.4963   20.7451 N   0  0  0  0  0  0
  -30.2063  -15.1832   21.5460 N   0  0  0  0  0  0
  -31.6211  -24.6649   19.2518 N   0  0  0  0  0  0
  -34.1052  -18.9964   20.9104 O   0  0  0  0  0  0
  -31.4262  -26.0217   17.4253 O   0  0  0  0  0  0
  -31.4481  -12.3409   19.0884 H   0  0  0  0  0  0
  -30.2744  -11.2420   19.7596 H   0  0  0  0  0  0
  -29.7022  -11.7898   17.3859 H   0  0  0  0  0  0
  -29.6578  -13.4968   17.7656 H   0  0  0  0  0  0
  -27.8189  -11.3017   18.7976 H   0  0  0  0  0  0
  -27.3480  -12.6352   17.7783 H   0  0  0  0  0  0
  -27.7181  -14.2397   19.5736 H   0  0  0  0  0  0
  -28.6518  -11.8841   21.2868 H   0  0  0  0  0  0
  -28.4337  -13.5014   21.8694 H   0  0  0  0  0  0
  -25.2682   -9.5719   22.4728 H   0  0  0  0  0  0
  -23.9976   -7.4635   22.7466 H   0  0  0  0  0  0
  -21.0743   -8.8709   19.8982 H   0  0  0  0  0  0
  -22.3546  -10.9632   19.6167 H   0  0  0  0  0  0
  -21.2009   -7.6103   23.9705 H   0  0  0  0  0  0
  -21.1501   -6.0483   25.9067 H   0  0  0  0  0  0
  -22.0584   -2.7581   23.2834 H   0  0  0  0  0  0
  -22.4069  -12.0038   22.4847 H   0  0  0  0  0  0
  -21.1145  -13.1484   22.2569 H   0  0  0  0  0  0
  -24.6767  -15.8408   20.5440 H   0  0  0  0  0  0
  -26.3008  -15.6301   20.1287 H   0  0  0  0  0  0
  -26.7085  -32.5583   23.1205 H   0  0  0  0  0  0
  -24.9951  -33.9836   25.0443 H   0  0  0  0  0  0
  -22.6780  -31.3005   21.4139 H   0  0  0  0  0  0
  -23.3759  -35.9641   23.3237 H   0  0  0  0  0  0
  -24.3615  -36.9009   22.2054 H   0  0  0  0  0  0
  -23.7229  -37.6502   23.6698 H   0  0  0  0  0  0
  -26.0152  -31.6051   20.5837 H   0  0  0  0  0  0
  -26.8042  -30.9142   21.9716 H   0  0  0  0  0  0
  -28.0867  -29.1589   21.1771 H   0  0  0  0  0  0
  -26.1142  -25.9787   19.0370 H   0  0  0  0  0  0
  -23.9867  -27.2522   19.0951 H   0  0  0  0  0  0
  -23.7020  -30.5845   19.4058 H   0  0  0  0  0  0
  -22.7271  -29.2276   19.8842 H   0  0  0  0  0  0
  -25.1253  -36.1977   25.0826 H   0  0  0  0  0  0
  -20.9919  -28.3271   24.1480 H   0  0  0  0  0  0
  -20.5663  -26.2261   23.3645 H   0  0  0  0  0  0
  -21.6636  -26.7456   22.1303 H   0  0  0  0  0  0
  -19.6922  -25.6302   21.1267 H   0  0  0  0  0  0
  -19.6724  -27.3195   20.6755 H   0  0  0  0  0  0
  -17.4202  -26.6713   21.3981 H   0  0  0  0  0  0
  -18.0274  -26.0077   22.8982 H   0  0  0  0  0  0
  -19.7913  -30.7236   24.2341 H   0  0  0  0  0  0
  -17.5005  -31.6275   24.5151 H   0  0  0  0  0  0
  -15.5354  -30.3012   23.7607 H   0  0  0  0  0  0
  -15.8648  -28.0826   22.7073 H   0  0  0  0  0  0
  -24.5858  -30.7179   25.7905 H   0  0  0  0  0  0
  -24.8969  -32.2966   26.4968 H   0  0  0  0  0  0
  -25.8095  -30.8965   27.0273 H   0  0  0  0  0  0
  -26.2673  -29.6840   24.1195 H   0  0  0  0  0  0
  -27.4001  -29.7277   25.4524 H   0  0  0  0  0  0
  -27.8527  -30.4313   23.9163 H   0  0  0  0  0  0
  -27.2814  -33.3664   26.1946 H   0  0  0  0  0  0
  -28.3870  -32.6763   25.0172 H   0  0  0  0  0  0
  -28.0775  -31.8433   26.5323 H   0  0  0  0  0  0
  -28.2570  -38.0107   24.7584 H   0  0  0  0  0  0
  -28.1145  -36.2670   24.6089 H   0  0  0  0  0  0
  -27.2363  -37.1226   25.8832 H   0  0  0  0  0  0
  -20.9233  -29.8683   21.6949 H   0  0  0  0  0  0
  -26.0169  -38.2863   24.1528 H   0  0  0  0  0  0
  -30.4222  -18.2159   24.9507 H   0  0  0  0  0  0
  -31.9959  -19.7093   23.7072 H   0  0  0  0  0  0
  -29.5841  -16.1442   23.9027 H   0  0  0  0  0  0
  -31.9291  -17.0093   20.3628 H   0  0  0  0  0  0
  -34.3217  -22.7595   16.2887 H   0  0  0  0  0  0
  -33.1796  -24.4145   17.2073 H   0  0  0  0  0  0
  -34.4013  -20.5886   16.7725 H   0  0  0  0  0  0
  -31.1268  -22.5589   20.2915 H   0  0  0  0  0  0
  -32.7760  -18.8281   17.0133 H   0  0  0  0  0  0
  -31.9281  -18.6592   18.5384 H   0  0  0  0  0  0
  -33.6624  -18.3020   18.4372 H   0  0  0  0  0  0
  -32.9128  -27.7575   19.8570 H   0  0  0  0  0  0
  -31.6476  -28.9171   20.2177 H   0  0  0  0  0  0
  -32.0404  -28.5404   18.5422 H   0  0  0  0  0  0
  -29.2619  -27.4227   18.1722 H   0  0  0  0  0  0
  -29.4442  -28.5692   19.4557 H   0  0  0  0  0  0
  -30.8619  -26.6106   20.6028 H   0  0  0  0  0  0
  -29.3738  -14.8195   21.9813 H   0  0  0  0  0  0
  -31.4021  -24.6558   20.2390 H   0  0  0  0  0  0
  1 25  1  0  0  0
  1 30  2  0  0  0
  1 91  1  0  0  0
  2  3  1  0  0  0
  2 25  1  0  0  0
  2 95  1  0  0  0
  2 96  1  0  0  0
  3  4  1  0  0  0
  3 97  1  0  0  0
  3 98  1  0  0  0
  4  5  1  0  0  0
  4 99  1  0  0  0
  4100  1  0  0  0
  5  6  1  0  0  0
  5 26  1  0  0  0
  5101  1  0  0  0
  6 25  1  0  0  0
  6102  1  0  0  0
  6103  1  0  0  0
  7  8  2  0  0  0
  7 26  1  0  0  0
  7 29  1  0  0  0
  8  9  1  0  0  0
  8 22  1  0  0  0
  9 10  1  0  0  0
  9 27  2  0  0  0
 10 11  2  0  0  0
 10 15  1  0  0  0
 11 12  1  0  0  0
 11104  1  0  0  0
 12 13  2  0  0  0
 12105  1  0  0  0
 13 14  1  0  0  0
 13 31  1  0  0  0
 14 15  2  0  0  0
 14106  1  0  0  0
 15107  1  0  0  0
 16 17  2  0  0  0
 16 21  1  0  0  0
 16 31  1  0  0  0
 17 18  1  0  0  0
 17108  1  0  0  0
 18 19  2  0  0  0
 18109  1  0  0  0
 19 20  1  0  0  0
 19 24  1  0  0  0
 20 21  2  0  0  0
 20110  1  0  0  0
 21 23  1  0  0  0
 22 28  1  0  0  0
 22 32  2  0  0  0
 26 27  1  0  0  0
 28111  1  0  0  0
 28112  1  0  0  0
 29113  1  0  0  0
 29114  1  0  0  0
 33 34  1  0  0  0
 33 66  1  0  0  0
 33 70  2  0  0  0
 34 36  1  0  0  0
 34 59  1  0  0  0
 34115  1  0  0  0
 35 44  2  0  0  0
 35 45  1  0  0  0
 35 68  1  0  0  0
 36 56  1  0  0  0
 36116  1  0  0  0
 37 39  1  0  0  0
 37 47  1  0  0  0
 37 66  1  0  0  0
 37117  1  0  0  0
 38 43  2  0  0  0
 38 46  1  0  0  0
 38 47  1  0  0  0
 39 64  1  0  0  0
 39 67  2  0  0  0
 40 52  1  0  0  0
 40 53  2  0  0  0
 40 58  1  0  0  0
 41118  1  0  0  0
 41119  1  0  0  0
 41120  1  0  0  0
 41 48  1  0  0  0
 42 43  1  0  0  0
 42 66  1  0  0  0
 42121  1  0  0  0
 42122  1  0  0  0
 43 44  1  0  0  0
 44123  1  0  0  0
 45 46  2  0  0  0
 45124  1  0  0  0
 46125  1  0  0  0
 47126  1  0  0  0
 47127  1  0  0  0
 48 56  1  0  0  0
 48 65  1  0  0  0
 48128  1  0  0  0
 49 50  1  0  0  0
 49 53  1  0  0  0
 49 64  1  0  0  0
 49129  1  0  0  0
 50 51  1  0  0  0
 50130  1  0  0  0
 50131  1  0  0  0
 51 52  1  0  0  0
 51132  1  0  0  0
 51133  1  0  0  0
 52134  1  0  0  0
 52135  1  0  0  0
 53 54  1  0  0  0
 54 55  2  0  0  0
 54136  1  0  0  0
 55 57  1  0  0  0
 55137  1  0  0  0
 56 69  2  0  0  0
 57 58  2  0  0  0
 57138  1  0  0  0
 58139  1  0  0  0
 59 60  1  0  0  0
 59 61  1  0  0  0
 59 62  1  0  0  0
 60140  1  0  0  0
 60141  1  0  0  0
 60142  1  0  0  0
 61143  1  0  0  0
 61144  1  0  0  0
 61145  1  0  0  0
 62146  1  0  0  0
 62147  1  0  0  0
 62148  1  0  0  0
 63 65  1  0  0  0
 63149  1  0  0  0
 63150  1  0  0  0
 63151  1  0  0  0
 64152  1  0  0  0
 65153  1  0  0  0
 68 88  1  0  0  0
 71 72  2  0  0  0
 71 73  1  0  0  0
 71154  1  0  0  0
 72 75  1  0  0  0
 72155  1  0  0  0
 73 76  2  0  0  0
 73156  1  0  0  0
 74 75  2  0  0  0
 74 76  1  0  0  0
 74157  1  0  0  0
 75 84  1  0  0  0
 76 91  1  0  0  0
 77 78  2  0  0  0
 77 79  1  0  0  0
 77158  1  0  0  0
 78 82  1  0  0  0
 78159  1  0  0  0
 79 81  2  0  0  0
 79160  1  0  0  0
 80 82  2  0  0  0
 80 83  1  0  0  0
 80161  1  0  0  0
 81 83  1  0  0  0
 81 86  1  0  0  0
 82 92  1  0  0  0
 83 90  2  0  0  0
 84 90  1  0  0  0
 84 93  2  0  0  0
 85 89  1  0  0  0
 85 92  1  0  0  0
 85 94  2  0  0  0
 86162  1  0  0  0
 86163  1  0  0  0
 86164  1  0  0  0
 87165  1  0  0  0
 87166  1  0  0  0
 87167  1  0  0  0
 87 89  1  0  0  0
 88 89  1  0  0  0
 88168  1  0  0  0
 88169  1  0  0  0
 89170  1  0  0  0
 91171  1  0  0  0
 92172  1  0  0  0
M  ISO  4   1 100  68 101  88 101  91 100
M  END
> <chiral flag>
0

> <version>
0

> <s_m_source_file>
/data/baiqing/PycharmProjects/Reinvent-master-3.2/result/LINK_invent/BTK/process_docking_weight1_custom_product_contain_oxygen_bond_distance_aromatic_linkinvent_7_9_3/rearranged_h_0056.sdf

> <i_m_source_file_index>
75

> <r_mmod_Potential_Energy-OPLS-2005>
-16.7113666534424

> <r_mmod_Stretch_Energy-OPLS-2005>
39.4162750244141

> <r_mmod_Bend_Energy-OPLS-2005>
153.803894042969

> <r_mmod_Torsional_Energy-OPLS-2005>
222.274841308594

> <r_mmod_Improper_Torsional_Energy-OPLS-2005>
3.78356242179871

> <r_mmod_Van_der_Waal_Energy-OPLS-2005>
196.433181762695

> <r_mmod_Electrostatic_Energy-OPLS-2005>
-413.454986572266

> <r_mmod_Solvation_Energy-OPLS-2005>
-226.961975097656

> <b_mmod_Minimization_Converged-OPLS-2005>
0

> <r_mmod_RMS_Derivative-OPLS-2005>
4.66080760955811

$$$$
75
                    3D
 Structure written by MMmdl.
155163  0  0  1  0            999 V2000
  -30.7621  -14.3966   20.6296 C   0  0  0  0  0  0
  -30.4140  -12.2857   19.4074 C   0  0  0  0  0  0
  -29.4833  -12.5009   18.1991 C   0  0  0  0  0  0
  -28.0089  -12.3596   18.6209 C   0  0  0  0  0  0
  -27.6632  -13.2020   19.8772 C   0  0  2  0  0  0
  -28.7046  -12.9778   20.9958 C   0  0  0  0  0  0
  -25.2605  -13.8151   20.5692 C   0  0  0  0  0  0
  -24.1841  -13.0435   20.9165 C   0  0  0  0  0  0
  -24.6385  -11.6901   20.8727 C   0  0  0  0  0  0
  -23.9041  -10.4291   21.0400 C   0  0  0  0  0  0
  -24.3599   -9.4209   21.9180 C   0  0  0  0  0  0
  -23.6286   -8.2242   22.0759 C   0  0  0  0  0  0
  -22.4269   -8.0269   21.3549 C   0  0  0  0  0  0
  -21.9890   -9.0238   20.4653 C   0  0  0  0  0  0
  -22.7210  -10.2125   20.3058 C   0  0  0  0  0  0
  -21.6852   -6.0722   22.5279 C   0  0  0  0  0  0
  -21.4016   -6.5634   23.8208 C   0  0  0  0  0  0
  -21.3657   -5.6795   24.9174 C   0  0  0  0  0  0
  -21.6041   -4.3056   24.7233 C   0  0  0  0  0  0
  -21.8822   -3.8141   23.4359 C   0  0  0  0  0  0
  -21.9199   -4.6952   22.3408 C   0  0  0  0  0  0
  -22.7865  -13.5238   21.1827 C   0  0  0  0  0  0
  -22.1665   -4.2131   21.0985 F   0  0  0  0  0  0
  -21.5627   -3.4541   25.7748 F   0  0  0  0  0  0
  -30.0398  -13.2630   20.4408 N   0  0  0  0  0  0
  -26.3033  -12.9312   20.3392 N   0  0  0  0  0  0
  -25.9313  -11.6473   20.5780 N   0  0  0  0  0  0
  -22.0521  -12.8237   22.0395 N   0  0  0  0  0  0
  -25.4364  -15.1864   20.4113 N   0  0  0  0  0  0
  -31.8702  -14.5764   20.1197 O   0  0  0  0  0  0
  -21.6647   -6.8859   21.4240 O   0  0  0  0  0  0
  -22.3555  -14.5551   20.6686 O   0  0  0  0  0  0
  -24.6098  -31.8717   23.2136 C   0  0  0  0  0  0
  -25.9005  -32.4841   23.8426 C   0  0  1  0  0  0
  -27.2397  -27.4746   20.0937 C   0  0  0  0  0  0
  -25.5879  -33.8637   24.2350 N   0  0  0  0  0  0
  -23.3980  -30.4927   21.5533 C   0  0  2  0  0  0
  -24.8472  -28.9593   20.1215 C   0  0  0  0  0  0
  -22.7389  -29.4664   22.5027 C   0  0  0  0  0  0
  -18.0258  -28.1371   22.8491 C   0  0  0  0  0  0
  -24.1490  -36.7333   23.2632 C   0  0  0  0  0  0
  -25.9215  -30.8451   21.3635 C   0  0  0  0  0  0
  -26.0018  -29.4777   20.7228 C   0  0  0  0  0  0
  -27.2028  -28.7368   20.7207 C   0  0  0  0  0  0
  -26.0777  -26.9619   19.4858 C   0  0  0  0  0  0
  -24.8759  -27.6959   19.5039 C   0  0  0  0  0  0
  -23.6063  -29.8224   20.1681 C   0  0  0  0  0  0
  -25.4102  -36.3126   24.0345 C   0  0  1  0  0  0
  -20.5854  -28.3652   23.1336 C   0  0  2  0  0  0
  -20.6747  -26.9392   22.5429 C   0  0  0  0  0  0
  -19.5738  -26.6388   21.5207 C   0  0  0  0  0  0
  -18.1906  -26.7922   22.1607 C   0  0  0  0  0  0
  -19.1511  -28.8829   23.2907 C   0  0  0  0  0  0
  -18.9443  -30.1436   23.8916 C   0  0  0  0  0  0
  -17.6448  -30.6585   24.0566 C   0  0  0  0  0  0
  -25.9025  -34.9483   23.5141 C   0  0  0  0  0  0
  -16.5339  -29.9087   23.6330 C   0  0  0  0  0  0
  -16.7250  -28.6504   23.0350 C   0  0  0  0  0  0
  -26.4445  -31.6604   25.0734 C   0  0  0  0  0  0
  -25.3725  -31.3715   26.1501 C   0  0  0  0  0  0
  -27.0242  -30.3045   24.6073 C   0  0  0  0  0  0
  -27.6047  -32.4309   25.7470 C   0  0  0  0  0  0
  -27.5589  -37.1797   24.8456 C   0  0  0  0  0  0
  -21.4121  -29.3026   22.3756 N   0  0  0  0  0  0
  -26.4292  -37.3806   23.9420 N   0  0  0  0  0  0
  -24.6609  -31.0848   22.1020 N   0  0  0  0  0  0
  -23.4167  -28.8199   23.3062 O   0  0  0  0  0  0
  -28.3980  -26.7520   20.0002 O   0  0  0  0  0  0
  -26.5598  -34.8922   22.4703 O   0  0  0  0  0  0
  -23.5307  -32.1457   23.7559 O   0  0  0  0  0  0
  -31.0248  -18.7476   18.5964 C   0  0  0  0  0  0
  -31.0706  -17.6463   19.4685 C   0  0  0  0  0  0
  -30.5817  -19.9959   19.0635 C   0  0  0  0  0  0
  -30.2046  -19.0319   21.2745 C   0  0  0  0  0  0
  -30.6664  -17.7761   20.8160 C   0  0  0  0  0  0
  -30.1793  -20.1488   20.4097 C   0  0  0  0  0  0
  -29.3660  -23.6816   21.0928 C   0  0  0  0  0  0
  -29.6995  -24.9641   20.8512 C   0  0  0  0  0  0
  -30.2236  -22.6053   20.6282 C   0  0  0  0  0  0
  -30.7916  -16.6063   21.7940 C   0  0  0  0  0  0
  -28.8521  -26.1651   21.2092 C   0  0  0  0  0  0
  -29.7030  -21.3960   20.8934 N   0  0  0  0  0  0
  -30.1742  -15.3497   21.3642 N   0  0  0  0  0  0
  -31.3090  -22.7651   20.0597 O   0  0  0  0  0  0
  -31.4576  -12.3725   19.0991 H   0  0  0  0  0  0
  -30.3065  -11.2731   19.7992 H   0  0  0  0  0  0
  -29.7156  -11.7818   17.4126 H   0  0  0  0  0  0
  -29.6521  -13.4903   17.7711 H   0  0  0  0  0  0
  -27.8232  -11.3037   18.8225 H   0  0  0  0  0  0
  -27.3510  -12.6299   17.7942 H   0  0  0  0  0  0
  -27.7128  -14.2500   19.5819 H   0  0  0  0  0  0
  -28.6720  -11.9447   21.3439 H   0  0  0  0  0  0
  -28.4653  -13.5823   21.8714 H   0  0  0  0  0  0
  -25.2745   -9.5692   22.4752 H   0  0  0  0  0  0
  -23.9996   -7.4638   22.7484 H   0  0  0  0  0  0
  -21.0816   -8.8747   19.8967 H   0  0  0  0  0  0
  -22.3651  -10.9661   19.6170 H   0  0  0  0  0  0
  -21.2012   -7.6141   23.9702 H   0  0  0  0  0  0
  -21.1472   -6.0529   25.9071 H   0  0  0  0  0  0
  -22.0606   -2.7600   23.2869 H   0  0  0  0  0  0
  -22.4136  -11.9883   22.4759 H   0  0  0  0  0  0
  -21.1151  -13.1274   22.2643 H   0  0  0  0  0  0
  -24.6769  -15.8495   20.5225 H   0  0  0  0  0  0
  -26.3011  -15.6205   20.1131 H   0  0  0  0  0  0
  -26.7081  -32.5580   23.1208 H   0  0  0  0  0  0
  -25.0058  -33.9818   25.0516 H   0  0  0  0  0  0
  -22.6847  -31.3079   21.4129 H   0  0  0  0  0  0
  -23.3750  -35.9668   23.3282 H   0  0  0  0  0  0
  -24.3592  -36.8961   22.2050 H   0  0  0  0  0  0
  -23.7241  -37.6532   23.6649 H   0  0  0  0  0  0
  -26.0243  -31.6052   20.5876 H   0  0  0  0  0  0
  -26.8122  -30.9079   21.9756 H   0  0  0  0  0  0
  -28.0985  -29.1369   21.1754 H   0  0  0  0  0  0
  -26.1090  -26.0002   18.9937 H   0  0  0  0  0  0
  -23.9912  -27.2919   19.0318 H   0  0  0  0  0  0
  -23.7101  -30.5955   19.4053 H   0  0  0  0  0  0
  -22.7320  -29.2382   19.8774 H   0  0  0  0  0  0
  -25.1266  -36.2003   25.0842 H   0  0  0  0  0  0
  -20.9928  -28.3205   24.1466 H   0  0  0  0  0  0
  -20.5643  -26.2255   23.3610 H   0  0  0  0  0  0
  -21.6622  -26.7446   22.1229 H   0  0  0  0  0  0
  -19.6908  -25.6300   21.1232 H   0  0  0  0  0  0
  -19.6694  -27.3206   20.6744 H   0  0  0  0  0  0
  -17.4190  -26.6696   21.3988 H   0  0  0  0  0  0
  -18.0284  -26.0058   22.8999 H   0  0  0  0  0  0
  -19.7929  -30.7234   24.2300 H   0  0  0  0  0  0
  -17.5014  -31.6267   24.5161 H   0  0  0  0  0  0
  -15.5337  -30.2986   23.7660 H   0  0  0  0  0  0
  -15.8651  -28.0824   22.7052 H   0  0  0  0  0  0
  -24.5964  -30.6957   25.7888 H   0  0  0  0  0  0
  -24.8824  -32.2855   26.4874 H   0  0  0  0  0  0
  -25.8118  -30.9004   27.0306 H   0  0  0  0  0  0
  -26.2763  -29.6835   24.1133 H   0  0  0  0  0  0
  -27.4014  -29.7255   25.4508 H   0  0  0  0  0  0
  -27.8595  -30.4358   23.9192 H   0  0  0  0  0  0
  -27.2710  -33.3635   26.2033 H   0  0  0  0  0  0
  -28.3845  -32.6826   25.0267 H   0  0  0  0  0  0
  -28.0710  -31.8432   26.5387 H   0  0  0  0  0  0
  -28.2598  -38.0102   24.7525 H   0  0  0  0  0  0
  -28.1089  -36.2638   24.6241 H   0  0  0  0  0  0
  -27.2317  -37.1410   25.8859 H   0  0  0  0  0  0
  -20.9275  -29.8754   21.6985 H   0  0  0  0  0  0
  -26.0190  -38.2885   24.1436 H   0  0  0  0  0  0
  -31.3409  -18.6369   17.5683 H   0  0  0  0  0  0
  -31.4428  -16.7107   19.0840 H   0  0  0  0  0  0
  -30.5543  -20.8305   18.3771 H   0  0  0  0  0  0
  -29.8972  -19.1445   22.3046 H   0  0  0  0  0  0
  -28.4443  -23.4600   21.6123 H   0  0  0  0  0  0
  -30.6223  -25.1964   20.3374 H   0  0  0  0  0  0
  -30.3485  -16.8806   22.7520 H   0  0  0  0  0  0
  -31.8515  -16.4443   22.0014 H   0  0  0  0  0  0
  -29.4516  -26.8820   21.7721 H   0  0  0  0  0  0
  -28.0174  -25.8599   21.8434 H   0  0  0  0  0  0
  -28.8948  -21.3725   21.4990 H   0  0  0  0  0  0
  -29.2544  -15.1454   21.7231 H   0  0  0  0  0  0
  1 25  1  0  0  0
  1 30  2  0  0  0
  1 83  1  0  0  0
  2  3  1  0  0  0
  2 25  1  0  0  0
  2 85  1  0  0  0
  2 86  1  0  0  0
  3  4  1  0  0  0
  3 87  1  0  0  0
  3 88  1  0  0  0
  4  5  1  0  0  0
  4 89  1  0  0  0
  4 90  1  0  0  0
  5  6  1  0  0  0
  5 26  1  0  0  0
  5 91  1  0  0  0
  6 25  1  0  0  0
  6 92  1  0  0  0
  6 93  1  0  0  0
  7  8  2  0  0  0
  7 26  1  0  0  0
  7 29  1  0  0  0
  8  9  1  0  0  0
  8 22  1  0  0  0
  9 10  1  0  0  0
  9 27  2  0  0  0
 10 11  2  0  0  0
 10 15  1  0  0  0
 11 12  1  0  0  0
 11 94  1  0  0  0
 12 13  2  0  0  0
 12 95  1  0  0  0
 13 14  1  0  0  0
 13 31  1  0  0  0
 14 15  2  0  0  0
 14 96  1  0  0  0
 15 97  1  0  0  0
 16 17  2  0  0  0
 16 21  1  0  0  0
 16 31  1  0  0  0
 17 18  1  0  0  0
 17 98  1  0  0  0
 18 19  2  0  0  0
 18 99  1  0  0  0
 19 20  1  0  0  0
 19 24  1  0  0  0
 20 21  2  0  0  0
 20100  1  0  0  0
 21 23  1  0  0  0
 22 28  1  0  0  0
 22 32  2  0  0  0
 26 27  1  0  0  0
 28101  1  0  0  0
 28102  1  0  0  0
 29103  1  0  0  0
 29104  1  0  0  0
 33 34  1  0  0  0
 33 66  1  0  0  0
 33 70  2  0  0  0
 34 36  1  0  0  0
 34 59  1  0  0  0
 34105  1  0  0  0
 35 44  2  0  0  0
 35 45  1  0  0  0
 35 68  1  0  0  0
 36 56  1  0  0  0
 36106  1  0  0  0
 37 39  1  0  0  0
 37 47  1  0  0  0
 37 66  1  0  0  0
 37107  1  0  0  0
 38 43  2  0  0  0
 38 46  1  0  0  0
 38 47  1  0  0  0
 39 64  1  0  0  0
 39 67  2  0  0  0
 40 52  1  0  0  0
 40 53  2  0  0  0
 40 58  1  0  0  0
 41108  1  0  0  0
 41109  1  0  0  0
 41110  1  0  0  0
 41 48  1  0  0  0
 42 43  1  0  0  0
 42 66  1  0  0  0
 42111  1  0  0  0
 42112  1  0  0  0
 43 44  1  0  0  0
 44113  1  0  0  0
 45 46  2  0  0  0
 45114  1  0  0  0
 46115  1  0  0  0
 47116  1  0  0  0
 47117  1  0  0  0
 48 56  1  0  0  0
 48 65  1  0  0  0
 48118  1  0  0  0
 49 50  1  0  0  0
 49 53  1  0  0  0
 49 64  1  0  0  0
 49119  1  0  0  0
 50 51  1  0  0  0
 50120  1  0  0  0
 50121  1  0  0  0
 51 52  1  0  0  0
 51122  1  0  0  0
 51123  1  0  0  0
 52124  1  0  0  0
 52125  1  0  0  0
 53 54  1  0  0  0
 54 55  2  0  0  0
 54126  1  0  0  0
 55 57  1  0  0  0
 55127  1  0  0  0
 56 69  2  0  0  0
 57 58  2  0  0  0
 57128  1  0  0  0
 58129  1  0  0  0
 59 60  1  0  0  0
 59 61  1  0  0  0
 59 62  1  0  0  0
 60130  1  0  0  0
 60131  1  0  0  0
 60132  1  0  0  0
 61133  1  0  0  0
 61134  1  0  0  0
 61135  1  0  0  0
 62136  1  0  0  0
 62137  1  0  0  0
 62138  1  0  0  0
 63 65  1  0  0  0
 63139  1  0  0  0
 63140  1  0  0  0
 63141  1  0  0  0
 64142  1  0  0  0
 65143  1  0  0  0
 68 81  1  0  0  0
 71 72  2  0  0  0
 71 73  1  0  0  0
 71144  1  0  0  0
 72 75  1  0  0  0
 72145  1  0  0  0
 73 76  2  0  0  0
 73146  1  0  0  0
 74 75  2  0  0  0
 74 76  1  0  0  0
 74147  1  0  0  0
 75 80  1  0  0  0
 76 82  1  0  0  0
 77 78  2  0  0  0
 77 79  1  0  0  0
 77148  1  0  0  0
 78 81  1  0  0  0
 78149  1  0  0  0
 79 82  1  0  0  0
 79 84  2  0  0  0
 80 83  1  0  0  0
 80150  1  0  0  0
 80151  1  0  0  0
 81152  1  0  0  0
 81153  1  0  0  0
 82154  1  0  0  0
 83155  1  0  0  0
M  ISO  4   1 100  68 101  81 101  83 100
M  END
> <chiral flag>
0

> <version>
0

> <s_m_source_file>
/data/baiqing/PycharmProjects/Reinvent-master-3.2/result/LINK_invent/BTK/process_docking_weight1_custom_product_contain_oxygen_bond_distance_aromatic_linkinvent_7_9_3/rearranged_h_0056.sdf

> <i_m_source_file_index>
76

> <r_mmod_Potential_Energy-OPLS-2005>
-179.337783813477

> <r_mmod_Stretch_Energy-OPLS-2005>
31.2980823516846

> <r_mmod_Bend_Energy-OPLS-2005>
87.1129989624023

> <r_mmod_Torsional_Energy-OPLS-2005>
233.487548828125

> <r_mmod_Improper_Torsional_Energy-OPLS-2005>
2.34584498405457

> <r_mmod_Van_der_Waal_Energy-OPLS-2005>
158.989379882812

> <r_mmod_Electrostatic_Energy-OPLS-2005>
-465.929809570312

> <r_mmod_Solvation_Energy-OPLS-2005>
-235.495239257812

> <b_mmod_Minimization_Converged-OPLS-2005>
0

> <r_mmod_RMS_Derivative-OPLS-2005>
1.63739442825317

$$$$
76
                    3D
 Structure written by MMmdl.
168176  0  0  1  0            999 V2000
  -30.7950  -14.3745   20.6780 C   0  0  0  0  0  0
  -30.4185  -12.2863   19.4180 C   0  0  0  0  0  0
  -29.4931  -12.5187   18.2116 C   0  0  0  0  0  0
  -28.0181  -12.3697   18.6281 C   0  0  0  0  0  0
  -27.6733  -13.2050   19.8887 C   0  0  2  0  0  0
  -28.7126  -12.9791   21.0117 C   0  0  0  0  0  0
  -25.2669  -13.8180   20.5703 C   0  0  0  0  0  0
  -24.1882  -13.0464   20.9188 C   0  0  0  0  0  0
  -24.6412  -11.6935   20.8726 C   0  0  0  0  0  0
  -23.9046  -10.4319   21.0381 C   0  0  0  0  0  0
  -24.3602   -9.4231   21.9150 C   0  0  0  0  0  0
  -23.6294   -8.2256   22.0721 C   0  0  0  0  0  0
  -22.4279   -8.0275   21.3523 C   0  0  0  0  0  0
  -21.9907   -9.0237   20.4621 C   0  0  0  0  0  0
  -22.7214  -10.2129   20.3028 C   0  0  0  0  0  0
  -21.6859   -6.0720   22.5270 C   0  0  0  0  0  0
  -21.4020   -6.5628   23.8200 C   0  0  0  0  0  0
  -21.3666   -5.6775   24.9168 C   0  0  0  0  0  0
  -21.6064   -4.3040   24.7220 C   0  0  0  0  0  0
  -21.8819   -3.8130   23.4340 C   0  0  0  0  0  0
  -21.9212   -4.6950   22.3406 C   0  0  0  0  0  0
  -22.7913  -13.5275   21.1837 C   0  0  0  0  0  0
  -22.1667   -4.2128   21.0979 F   0  0  0  0  0  0
  -21.5645   -3.4536   25.7742 F   0  0  0  0  0  0
  -30.0580  -13.2505   20.4714 N   0  0  0  0  0  0
  -26.3101  -12.9336   20.3447 N   0  0  0  0  0  0
  -25.9352  -11.6502   20.5802 N   0  0  0  0  0  0
  -22.0558  -12.8218   22.0376 N   0  0  0  0  0  0
  -25.4492  -15.1864   20.4069 N   0  0  0  0  0  0
  -31.8133  -14.6301   20.0267 O   0  0  0  0  0  0
  -21.6647   -6.8863   21.4233 O   0  0  0  0  0  0
  -22.3591  -14.5580   20.6704 O   0  0  0  0  0  0
  -24.6141  -31.8662   23.2132 C   0  0  0  0  0  0
  -25.9049  -32.4783   23.8377 C   0  0  1  0  0  0
  -27.2255  -27.4429   20.0587 C   0  0  0  0  0  0
  -25.5909  -33.8586   24.2297 N   0  0  0  0  0  0
  -23.3993  -30.4993   21.5509 C   0  0  2  0  0  0
  -24.8370  -28.9643   20.1129 C   0  0  0  0  0  0
  -22.7381  -29.4702   22.4976 C   0  0  0  0  0  0
  -18.0267  -28.1404   22.8477 C   0  0  0  0  0  0
  -24.1482  -36.7315   23.2654 C   0  0  0  0  0  0
  -25.9282  -30.8255   21.3692 C   0  0  0  0  0  0
  -25.9963  -29.4612   20.7185 C   0  0  0  0  0  0
  -27.1870  -28.7001   20.7062 C   0  0  0  0  0  0
  -26.0374  -26.9585   19.4608 C   0  0  0  0  0  0
  -24.8497  -27.7074   19.4892 C   0  0  0  0  0  0
  -23.6078  -29.8412   20.1622 C   0  0  0  0  0  0
  -25.4097  -36.3097   24.0337 C   0  0  1  0  0  0
  -20.5853  -28.3683   23.1304 C   0  0  2  0  0  0
  -20.6776  -26.9428   22.5426 C   0  0  0  0  0  0
  -19.5757  -26.6408   21.5221 C   0  0  0  0  0  0
  -18.1922  -26.7952   22.1623 C   0  0  0  0  0  0
  -19.1522  -28.8860   23.2875 C   0  0  0  0  0  0
  -18.9466  -30.1461   23.8902 C   0  0  0  0  0  0
  -17.6478  -30.6604   24.0570 C   0  0  0  0  0  0
  -25.9030  -34.9462   23.5113 C   0  0  0  0  0  0
  -16.5358  -29.9119   23.6338 C   0  0  0  0  0  0
  -16.7265  -28.6539   23.0342 C   0  0  0  0  0  0
  -26.4489  -31.6552   25.0697 C   0  0  0  0  0  0
  -25.3787  -31.3626   26.1463 C   0  0  0  0  0  0
  -27.0330  -30.3007   24.6043 C   0  0  0  0  0  0
  -27.6057  -32.4283   25.7457 C   0  0  0  0  0  0
  -27.5543  -37.1815   24.8467 C   0  0  0  0  0  0
  -21.4114  -29.3056   22.3715 N   0  0  0  0  0  0
  -26.4275  -37.3777   23.9401 N   0  0  0  0  0  0
  -24.6653  -31.0783   22.1032 N   0  0  0  0  0  0
  -23.4151  -28.8255   23.3043 O   0  0  0  0  0  0
  -28.4157  -26.7406   20.0291 O   0  0  0  0  0  0
  -26.5589  -34.8917   22.4681 O   0  0  0  0  0  0
  -23.5342  -32.1436   23.7538 O   0  0  0  0  0  0
  -31.4090  -18.8138   21.8045 C   0  0  0  0  0  0
  -32.5386  -18.7180   22.6347 C   0  0  0  0  0  0
  -32.1657  -16.3249   22.8677 C   0  0  0  0  0  0
  -30.6291  -17.6724   21.5026 C   0  0  0  0  0  0
  -31.0459  -16.4057   22.0059 C   0  0  0  0  0  0
  -32.9050  -17.4795   23.1857 C   0  0  0  0  0  0
  -29.4130  -17.3760   16.9844 C   0  0  0  0  0  0
  -28.4757  -21.4466   20.3011 C   0  0  0  0  0  0
  -28.7302  -18.2155   17.7761 C   0  0  0  0  0  0
  -27.4743  -22.3173   20.5528 C   0  0  0  0  0  0
  -28.4141  -20.0802   20.8143 C   0  0  0  0  0  0
  -29.3577  -17.7973   20.6507 C   0  0  0  0  0  0
  -27.4107  -23.7905   20.1484 C   0  0  0  0  0  0
  -29.3753  -19.2896   18.6317 C   0  0  0  0  0  0
  -28.6618  -24.3197   19.4230 C   0  0  0  0  0  0
  -28.6265  -25.7977   18.9686 C   0  0  0  0  0  0
  -30.3741  -15.2005   21.6513 N   0  0  0  0  0  0
  -29.0560  -19.1346   20.0693 N   0  0  0  0  0  0
  -27.8983  -19.8109   21.9054 O   0  0  0  0  0  0
  -33.9773  -17.3990   24.0104 F   0  0  0  0  0  0
  -31.4613  -12.3674   19.1082 H   0  0  0  0  0  0
  -30.3068  -11.2683   19.7967 H   0  0  0  0  0  0
  -29.7293  -11.8160   17.4106 H   0  0  0  0  0  0
  -29.6640  -13.5184   17.8091 H   0  0  0  0  0  0
  -27.8315  -11.3114   18.8208 H   0  0  0  0  0  0
  -27.3611  -12.6454   17.8027 H   0  0  0  0  0  0
  -27.7258  -14.2553   19.6003 H   0  0  0  0  0  0
  -28.6755  -11.9495   21.3699 H   0  0  0  0  0  0
  -28.4675  -13.5985   21.8745 H   0  0  0  0  0  0
  -25.2747   -9.5721   22.4710 H   0  0  0  0  0  0
  -24.0029   -7.4653   22.7424 H   0  0  0  0  0  0
  -21.0840   -8.8716   19.8913 H   0  0  0  0  0  0
  -22.3645  -10.9644   19.6124 H   0  0  0  0  0  0
  -21.1975   -7.6124   23.9696 H   0  0  0  0  0  0
  -21.1507   -6.0506   25.9072 H   0  0  0  0  0  0
  -22.0601   -2.7587   23.2850 H   0  0  0  0  0  0
  -22.4169  -11.9862   22.4735 H   0  0  0  0  0  0
  -21.1165  -13.1198   22.2561 H   0  0  0  0  0  0
  -24.7028  -15.8634   20.5254 H   0  0  0  0  0  0
  -26.3160  -15.6003   20.0878 H   0  0  0  0  0  0
  -26.7081  -32.5464   23.1089 H   0  0  0  0  0  0
  -25.0108  -33.9727   25.0473 H   0  0  0  0  0  0
  -22.6903  -31.3196   21.4157 H   0  0  0  0  0  0
  -23.3712  -35.9684   23.3373 H   0  0  0  0  0  0
  -24.3595  -36.8891   22.2065 H   0  0  0  0  0  0
  -23.7267  -37.6558   23.6628 H   0  0  0  0  0  0
  -26.0487  -31.5898   20.6013 H   0  0  0  0  0  0
  -26.8168  -30.8679   21.9850 H   0  0  0  0  0  0
  -28.0820  -29.0868   21.1715 H   0  0  0  0  0  0
  -26.0001  -26.0088   18.9511 H   0  0  0  0  0  0
  -23.9593  -27.3226   19.0103 H   0  0  0  0  0  0
  -23.7257  -30.6234   19.4094 H   0  0  0  0  0  0
  -22.7300  -29.2723   19.8565 H   0  0  0  0  0  0
  -25.1267  -36.1973   25.0824 H   0  0  0  0  0  0
  -20.9894  -28.3271   24.1440 H   0  0  0  0  0  0
  -20.5709  -26.2302   23.3625 H   0  0  0  0  0  0
  -21.6641  -26.7512   22.1199 H   0  0  0  0  0  0
  -19.6923  -25.6318   21.1261 H   0  0  0  0  0  0
  -19.6700  -27.3238   20.6768 H   0  0  0  0  0  0
  -17.4207  -26.6708   21.4019 H   0  0  0  0  0  0
  -18.0292  -26.0092   22.9023 H   0  0  0  0  0  0
  -19.7949  -30.7250   24.2276 H   0  0  0  0  0  0
  -17.5066  -31.6284   24.5188 H   0  0  0  0  0  0
  -15.5378  -30.3048   23.7664 H   0  0  0  0  0  0
  -15.8652  -28.0878   22.7030 H   0  0  0  0  0  0
  -24.5988  -30.6924   25.7803 H   0  0  0  0  0  0
  -24.8951  -32.2774   26.4912 H   0  0  0  0  0  0
  -25.8202  -30.8813   27.0202 H   0  0  0  0  0  0
  -26.2829  -29.6716   24.1226 H   0  0  0  0  0  0
  -27.4298  -29.7258   25.4421 H   0  0  0  0  0  0
  -27.8562  -30.4377   23.9033 H   0  0  0  0  0  0
  -27.2667  -33.3587   26.2025 H   0  0  0  0  0  0
  -28.3862  -32.6848   25.0277 H   0  0  0  0  0  0
  -28.0691  -31.8408   26.5403 H   0  0  0  0  0  0
  -28.2598  -38.0077   24.7475 H   0  0  0  0  0  0
  -28.1008  -36.2620   24.6327 H   0  0  0  0  0  0
  -27.2278  -37.1491   25.8881 H   0  0  0  0  0  0
  -20.9266  -29.8796   21.6959 H   0  0  0  0  0  0
  -26.0167  -38.2853   24.1413 H   0  0  0  0  0  0
  -31.1578  -19.7871   21.4138 H   0  0  0  0  0  0
  -33.1147  -19.6041   22.8572 H   0  0  0  0  0  0
  -32.4862  -15.3746   23.2688 H   0  0  0  0  0  0
  -28.9034  -16.6189   16.4037 H   0  0  0  0  0  0
  -30.4898  -17.4283   16.9089 H   0  0  0  0  0  0
  -29.3439  -21.7624   19.7426 H   0  0  0  0  0  0
  -27.6520  -18.1387   17.8254 H   0  0  0  0  0  0
  -26.6119  -21.9653   21.1033 H   0  0  0  0  0  0
  -28.5207  -17.4761   21.2718 H   0  0  0  0  0  0
  -29.4336  -17.0356   19.8774 H   0  0  0  0  0  0
  -27.2556  -24.3675   21.0606 H   0  0  0  0  0  0
  -26.5234  -23.9370   19.5332 H   0  0  0  0  0  0
  -29.0107  -20.2233   18.2052 H   0  0  0  0  0  0
  -30.4566  -19.2890   18.4884 H   0  0  0  0  0  0
  -28.8224  -23.7104   18.5316 H   0  0  0  0  0  0
  -29.5316  -24.1661   20.0622 H   0  0  0  0  0  0
  -27.9577  -25.9324   18.1195 H   0  0  0  0  0  0
  -29.6095  -26.0270   18.5581 H   0  0  0  0  0  0
  -29.5671  -14.9198   22.1908 H   0  0  0  0  0  0
  1 25  1  0  0  0
  1 30  2  0  0  0
  1 87  1  0  0  0
  2  3  1  0  0  0
  2 25  1  0  0  0
  2 91  1  0  0  0
  2 92  1  0  0  0
  3  4  1  0  0  0
  3 93  1  0  0  0
  3 94  1  0  0  0
  4  5  1  0  0  0
  4 95  1  0  0  0
  4 96  1  0  0  0
  5  6  1  0  0  0
  5 26  1  0  0  0
  5 97  1  0  0  0
  6 25  1  0  0  0
  6 98  1  0  0  0
  6 99  1  0  0  0
  7  8  2  0  0  0
  7 26  1  0  0  0
  7 29  1  0  0  0
  8  9  1  0  0  0
  8 22  1  0  0  0
  9 10  1  0  0  0
  9 27  2  0  0  0
 10 11  2  0  0  0
 10 15  1  0  0  0
 11 12  1  0  0  0
 11100  1  0  0  0
 12 13  2  0  0  0
 12101  1  0  0  0
 13 14  1  0  0  0
 13 31  1  0  0  0
 14 15  2  0  0  0
 14102  1  0  0  0
 15103  1  0  0  0
 16 17  2  0  0  0
 16 21  1  0  0  0
 16 31  1  0  0  0
 17 18  1  0  0  0
 17104  1  0  0  0
 18 19  2  0  0  0
 18105  1  0  0  0
 19 20  1  0  0  0
 19 24  1  0  0  0
 20 21  2  0  0  0
 20106  1  0  0  0
 21 23  1  0  0  0
 22 28  1  0  0  0
 22 32  2  0  0  0
 26 27  1  0  0  0
 28107  1  0  0  0
 28108  1  0  0  0
 29109  1  0  0  0
 29110  1  0  0  0
 33 34  1  0  0  0
 33 66  1  0  0  0
 33 70  2  0  0  0
 34 36  1  0  0  0
 34 59  1  0  0  0
 34111  1  0  0  0
 35 44  2  0  0  0
 35 45  1  0  0  0
 35 68  1  0  0  0
 36 56  1  0  0  0
 36112  1  0  0  0
 37 39  1  0  0  0
 37 47  1  0  0  0
 37 66  1  0  0  0
 37113  1  0  0  0
 38 43  2  0  0  0
 38 46  1  0  0  0
 38 47  1  0  0  0
 39 64  1  0  0  0
 39 67  2  0  0  0
 40 52  1  0  0  0
 40 53  2  0  0  0
 40 58  1  0  0  0
 41114  1  0  0  0
 41115  1  0  0  0
 41116  1  0  0  0
 41 48  1  0  0  0
 42 43  1  0  0  0
 42 66  1  0  0  0
 42117  1  0  0  0
 42118  1  0  0  0
 43 44  1  0  0  0
 44119  1  0  0  0
 45 46  2  0  0  0
 45120  1  0  0  0
 46121  1  0  0  0
 47122  1  0  0  0
 47123  1  0  0  0
 48 56  1  0  0  0
 48 65  1  0  0  0
 48124  1  0  0  0
 49 50  1  0  0  0
 49 53  1  0  0  0
 49 64  1  0  0  0
 49125  1  0  0  0
 50 51  1  0  0  0
 50126  1  0  0  0
 50127  1  0  0  0
 51 52  1  0  0  0
 51128  1  0  0  0
 51129  1  0  0  0
 52130  1  0  0  0
 52131  1  0  0  0
 53 54  1  0  0  0
 54 55  2  0  0  0
 54132  1  0  0  0
 55 57  1  0  0  0
 55133  1  0  0  0
 56 69  2  0  0  0
 57 58  2  0  0  0
 57134  1  0  0  0
 58135  1  0  0  0
 59 60  1  0  0  0
 59 61  1  0  0  0
 59 62  1  0  0  0
 60136  1  0  0  0
 60137  1  0  0  0
 60138  1  0  0  0
 61139  1  0  0  0
 61140  1  0  0  0
 61141  1  0  0  0
 62142  1  0  0  0
 62143  1  0  0  0
 62144  1  0  0  0
 63 65  1  0  0  0
 63145  1  0  0  0
 63146  1  0  0  0
 63147  1  0  0  0
 64148  1  0  0  0
 65149  1  0  0  0
 68 86  1  0  0  0
 71 72  2  0  0  0
 71 74  1  0  0  0
 71150  1  0  0  0
 72 76  1  0  0  0
 72151  1  0  0  0
 73 75  1  0  0  0
 73 76  2  0  0  0
 73152  1  0  0  0
 74 75  2  0  0  0
 74 82  1  0  0  0
 75 87  1  0  0  0
 76 90  1  0  0  0
 77 79  2  0  0  0
 77153  1  0  0  0
 77154  1  0  0  0
 78 80  2  0  0  0
 78 81  1  0  0  0
 78155  1  0  0  0
 79 84  1  0  0  0
 79156  1  0  0  0
 80 83  1  0  0  0
 80157  1  0  0  0
 81 88  1  0  0  0
 81 89  2  0  0  0
 82 88  1  0  0  0
 82158  1  0  0  0
 82159  1  0  0  0
 83 85  1  0  0  0
 83160  1  0  0  0
 83161  1  0  0  0
 84 88  1  0  0  0
 84162  1  0  0  0
 84163  1  0  0  0
 85 86  1  0  0  0
 85164  1  0  0  0
 85165  1  0  0  0
 86166  1  0  0  0
 86167  1  0  0  0
 87168  1  0  0  0
M  ISO  4   1 100  68 101  86 101  87 100
M  END
> <chiral flag>
0

> <version>
0

> <s_m_source_file>
/data/baiqing/PycharmProjects/Reinvent-master-3.2/result/LINK_invent/BTK/process_docking_weight1_custom_product_contain_oxygen_bond_distance_aromatic_linkinvent_7_9_3/rearranged_h_0056.sdf

> <i_m_source_file_index>
77

> <r_mmod_Potential_Energy-OPLS-2005>
5.35095930099487

> <r_mmod_Stretch_Energy-OPLS-2005>
41.4477043151855

> <r_mmod_Bend_Energy-OPLS-2005>
105.322906494141

> <r_mmod_Torsional_Energy-OPLS-2005>
247.694442749023

> <r_mmod_Improper_Torsional_Energy-OPLS-2005>
2.62179803848267

> <r_mmod_Van_der_Waal_Energy-OPLS-2005>
170.609664916992

> <r_mmod_Electrostatic_Energy-OPLS-2005>
-355.269500732422

> <r_mmod_Solvation_Energy-OPLS-2005>
-216.405059814453

> <b_mmod_Minimization_Converged-OPLS-2005>
0

> <r_mmod_RMS_Derivative-OPLS-2005>
4.58841228485107

$$$$
77
                    3D
 Structure written by MMmdl.
163171  0  0  1  0            999 V2000
  -30.7305  -14.3644   20.6838 C   0  0  0  0  0  0
  -30.4293  -12.2847   19.3898 C   0  0  0  0  0  0
  -29.4876  -12.5314   18.1933 C   0  0  0  0  0  0
  -28.0113  -12.3765   18.6057 C   0  0  0  0  0  0
  -27.6683  -13.1846   19.8843 C   0  0  2  0  0  0
  -28.7050  -12.8998   20.9929 C   0  0  0  0  0  0
  -25.2602  -13.8108   20.5661 C   0  0  0  0  0  0
  -24.1834  -13.0423   20.9154 C   0  0  0  0  0  0
  -24.6358  -11.6878   20.8734 C   0  0  0  0  0  0
  -23.9021  -10.4295   21.0426 C   0  0  0  0  0  0
  -24.3590   -9.4208   21.9196 C   0  0  0  0  0  0
  -23.6279   -8.2235   22.0751 C   0  0  0  0  0  0
  -22.4265   -8.0269   21.3532 C   0  0  0  0  0  0
  -21.9892   -9.0247   20.4632 C   0  0  0  0  0  0
  -22.7207  -10.2137   20.3054 C   0  0  0  0  0  0
  -21.6843   -6.0733   22.5279 C   0  0  0  0  0  0
  -21.4014   -6.5636   23.8216 C   0  0  0  0  0  0
  -21.3666   -5.6784   24.9178 C   0  0  0  0  0  0
  -21.6047   -4.3048   24.7230 C   0  0  0  0  0  0
  -21.8814   -3.8139   23.4353 C   0  0  0  0  0  0
  -21.9193   -4.6960   22.3409 C   0  0  0  0  0  0
  -22.7863  -13.5249   21.1843 C   0  0  0  0  0  0
  -22.1648   -4.2151   21.0987 F   0  0  0  0  0  0
  -21.5644   -3.4529   25.7747 F   0  0  0  0  0  0
  -30.0549  -13.2050   20.4713 N   0  0  0  0  0  0
  -26.3031  -12.9240   20.3391 N   0  0  0  0  0  0
  -25.9274  -11.6422   20.5767 N   0  0  0  0  0  0
  -22.0489  -12.8257   22.0394 N   0  0  0  0  0  0
  -25.4348  -15.1836   20.4093 N   0  0  0  0  0  0
  -31.7509  -14.6893   20.0661 O   0  0  0  0  0  0
  -21.6614   -6.8880   21.4239 O   0  0  0  0  0  0
  -22.3567  -14.5573   20.6707 O   0  0  0  0  0  0
  -24.6108  -31.8691   23.2144 C   0  0  0  0  0  0
  -25.9028  -32.4832   23.8416 C   0  0  1  0  0  0
  -27.2367  -27.4691   20.0850 C   0  0  0  0  0  0
  -25.5910  -33.8636   24.2349 N   0  0  0  0  0  0
  -23.3964  -30.4965   21.5512 C   0  0  2  0  0  0
  -24.8442  -28.9660   20.1151 C   0  0  0  0  0  0
  -22.7388  -29.4676   22.4970 C   0  0  0  0  0  0
  -18.0266  -28.1375   22.8490 C   0  0  0  0  0  0
  -24.1478  -36.7304   23.2638 C   0  0  0  0  0  0
  -25.9226  -30.8490   21.3573 C   0  0  0  0  0  0
  -26.0037  -29.4863   20.7037 C   0  0  0  0  0  0
  -27.2045  -28.7465   20.6820 C   0  0  0  0  0  0
  -26.0580  -26.9517   19.4996 C   0  0  0  0  0  0
  -24.8656  -27.6965   19.5133 C   0  0  0  0  0  0
  -23.6058  -29.8290   20.1649 C   0  0  0  0  0  0
  -25.4106  -36.3119   24.0334 C   0  0  1  0  0  0
  -20.5858  -28.3650   23.1309 C   0  0  2  0  0  0
  -20.6753  -26.9380   22.5414 C   0  0  0  0  0  0
  -19.5742  -26.6377   21.5200 C   0  0  0  0  0  0
  -18.1910  -26.7925   22.1609 C   0  0  0  0  0  0
  -19.1514  -28.8824   23.2905 C   0  0  0  0  0  0
  -18.9453  -30.1423   23.8913 C   0  0  0  0  0  0
  -17.6460  -30.6580   24.0558 C   0  0  0  0  0  0
  -25.9028  -34.9475   23.5135 C   0  0  0  0  0  0
  -16.5346  -29.9079   23.6332 C   0  0  0  0  0  0
  -16.7257  -28.6503   23.0341 C   0  0  0  0  0  0
  -26.4473  -31.6618   25.0734 C   0  0  0  0  0  0
  -25.3760  -31.3708   26.1500 C   0  0  0  0  0  0
  -27.0288  -30.3079   24.6055 C   0  0  0  0  0  0
  -27.6059  -32.4322   25.7488 C   0  0  0  0  0  0
  -27.5568  -37.1807   24.8467 C   0  0  0  0  0  0
  -21.4117  -29.3031   22.3717 N   0  0  0  0  0  0
  -26.4289  -37.3801   23.9404 N   0  0  0  0  0  0
  -24.6617  -31.0840   22.1003 N   0  0  0  0  0  0
  -23.4180  -28.8181   23.2970 O   0  0  0  0  0  0
  -28.4164  -26.7640   20.0841 O   0  0  0  0  0  0
  -26.5563  -34.8913   22.4681 O   0  0  0  0  0  0
  -23.5312  -32.1420   23.7551 O   0  0  0  0  0  0
  -29.5143  -18.7600   21.1569 C   0  0  0  0  0  0
  -30.6691  -17.0356   23.0381 C   0  0  0  0  0  0
  -29.9239  -19.2700   22.4040 C   0  0  0  0  0  0
  -29.6440  -17.3919   20.8485 C   0  0  0  0  0  0
  -30.5216  -18.4026   23.3489 C   0  0  0  0  0  0
  -30.2249  -16.5176   21.8054 C   0  0  0  0  0  0
  -30.8593  -22.7031   21.6419 C   0  0  0  0  0  0
  -29.0822  -16.9104   19.5218 C   0  0  0  0  0  0
  -30.9677  -18.9042   24.7113 C   0  0  0  0  0  0
  -29.6900  -20.7442   22.6962 C   0  0  0  0  0  0
  -29.5314  -23.3358   21.2032 C   0  0  0  0  0  0
  -29.6531  -24.7945   20.7222 C   0  0  0  0  0  0
  -28.2913  -25.3657   20.3162 C   0  0  0  0  0  0
  -30.2118  -15.1100   21.6645 N   0  0  0  0  0  0
  -30.8468  -21.5486   22.3185 N   0  0  0  0  0  0
  -31.9274  -23.2540   21.3789 O   0  0  0  0  0  0
  -31.4704  -12.4088   19.0826 H   0  0  0  0  0  0
  -30.3459  -11.2530   19.7375 H   0  0  0  0  0  0
  -29.7240  -11.8431   17.3818 H   0  0  0  0  0  0
  -29.6491  -13.5356   17.7998 H   0  0  0  0  0  0
  -27.8192  -11.3161   18.7730 H   0  0  0  0  0  0
  -27.3547  -12.6739   17.7878 H   0  0  0  0  0  0
  -27.7316  -14.2370   19.6244 H   0  0  0  0  0  0
  -28.6663  -11.8470   21.2750 H   0  0  0  0  0  0
  -28.4413  -13.4404   21.9013 H   0  0  0  0  0  0
  -25.2754   -9.5684   22.4743 H   0  0  0  0  0  0
  -23.9999   -7.4630   22.7467 H   0  0  0  0  0  0
  -21.0818   -8.8763   19.8940 H   0  0  0  0  0  0
  -22.3673  -10.9671   19.6149 H   0  0  0  0  0  0
  -21.1977   -7.6141   23.9728 H   0  0  0  0  0  0
  -21.1500   -6.0510   25.9092 H   0  0  0  0  0  0
  -22.0586   -2.7601   23.2847 H   0  0  0  0  0  0
  -22.4095  -11.9909   22.4778 H   0  0  0  0  0  0
  -21.1113  -13.1304   22.2617 H   0  0  0  0  0  0
  -24.6749  -15.8449   20.5301 H   0  0  0  0  0  0
  -26.3011  -15.6230   20.1273 H   0  0  0  0  0  0
  -26.7101  -32.5547   23.1184 H   0  0  0  0  0  0
  -25.0114  -33.9815   25.0527 H   0  0  0  0  0  0
  -22.6848  -31.3127   21.4120 H   0  0  0  0  0  0
  -23.3728  -35.9645   23.3319 H   0  0  0  0  0  0
  -24.3580  -36.8902   22.2054 H   0  0  0  0  0  0
  -23.7239  -37.6517   23.6643 H   0  0  0  0  0  0
  -26.0234  -31.6152   20.5863 H   0  0  0  0  0  0
  -26.8146  -30.9073   21.9695 H   0  0  0  0  0  0
  -28.1036  -29.1428   21.1343 H   0  0  0  0  0  0
  -26.0472  -25.9815   19.0249 H   0  0  0  0  0  0
  -23.9716  -27.2898   19.0627 H   0  0  0  0  0  0
  -23.7104  -30.6025   19.4033 H   0  0  0  0  0  0
  -22.7308  -29.2479   19.8701 H   0  0  0  0  0  0
  -25.1281  -36.1989   25.0830 H   0  0  0  0  0  0
  -20.9971  -28.3210   24.1419 H   0  0  0  0  0  0
  -20.5639  -26.2237   23.3585 H   0  0  0  0  0  0
  -21.6619  -26.7402   22.1208 H   0  0  0  0  0  0
  -19.6890  -25.6289   21.1206 H   0  0  0  0  0  0
  -19.6697  -27.3190   20.6734 H   0  0  0  0  0  0
  -17.4180  -26.6659   21.4011 H   0  0  0  0  0  0
  -18.0322  -26.0062   22.9007 H   0  0  0  0  0  0
  -19.7926  -30.7230   24.2287 H   0  0  0  0  0  0
  -17.5021  -31.6270   24.5131 H   0  0  0  0  0  0
  -15.5347  -30.2987   23.7672 H   0  0  0  0  0  0
  -15.8651  -28.0844   22.7043 H   0  0  0  0  0  0
  -24.5927  -30.7061   25.7842 H   0  0  0  0  0  0
  -24.8944  -32.2851   26.4981 H   0  0  0  0  0  0
  -25.8141  -30.8863   27.0234 H   0  0  0  0  0  0
  -26.2797  -29.6863   24.1132 H   0  0  0  0  0  0
  -27.4117  -29.7323   25.4491 H   0  0  0  0  0  0
  -27.8621  -30.4412   23.9142 H   0  0  0  0  0  0
  -27.2697  -33.3613   26.2098 H   0  0  0  0  0  0
  -28.3862  -32.6906   25.0315 H   0  0  0  0  0  0
  -28.0730  -31.8421   26.5382 H   0  0  0  0  0  0
  -28.2603  -38.0088   24.7507 H   0  0  0  0  0  0
  -28.1048  -36.2623   24.6307 H   0  0  0  0  0  0
  -27.2280  -37.1474   25.8870 H   0  0  0  0  0  0
  -20.9240  -29.8809   21.7009 H   0  0  0  0  0  0
  -26.0175  -38.2863   24.1463 H   0  0  0  0  0  0
  -29.0537  -19.4259   20.4397 H   0  0  0  0  0  0
  -31.0971  -16.3625   23.7694 H   0  0  0  0  0  0
  -28.1380  -16.3974   19.6899 H   0  0  0  0  0  0
  -29.7678  -16.2455   19.0003 H   0  0  0  0  0  0
  -28.8814  -17.7457   18.8509 H   0  0  0  0  0  0
  -31.5832  -19.7980   24.6163 H   0  0  0  0  0  0
  -31.5544  -18.1572   25.2455 H   0  0  0  0  0  0
  -30.0974  -19.1449   25.3232 H   0  0  0  0  0  0
  -29.4760  -20.8956   23.7535 H   0  0  0  0  0  0
  -28.7838  -21.0520   22.1733 H   0  0  0  0  0  0
  -28.8382  -23.3145   22.0474 H   0  0  0  0  0  0
  -29.1036  -22.7211   20.4101 H   0  0  0  0  0  0
  -30.3419  -24.8697   19.8806 H   0  0  0  0  0  0
  -30.0759  -25.4023   21.5224 H   0  0  0  0  0  0
  -27.5717  -25.1886   21.1192 H   0  0  0  0  0  0
  -27.9317  -24.8543   19.4213 H   0  0  0  0  0  0
  -29.5335  -14.6262   22.2322 H   0  0  0  0  0  0
  -31.7455  -21.1687   22.5817 H   0  0  0  0  0  0
  1 25  1  0  0  0
  1 30  2  0  0  0
  1 84  1  0  0  0
  2  3  1  0  0  0
  2 25  1  0  0  0
  2 87  1  0  0  0
  2 88  1  0  0  0
  3  4  1  0  0  0
  3 89  1  0  0  0
  3 90  1  0  0  0
  4  5  1  0  0  0
  4 91  1  0  0  0
  4 92  1  0  0  0
  5  6  1  0  0  0
  5 26  1  0  0  0
  5 93  1  0  0  0
  6 25  1  0  0  0
  6 94  1  0  0  0
  6 95  1  0  0  0
  7  8  2  0  0  0
  7 26  1  0  0  0
  7 29  1  0  0  0
  8  9  1  0  0  0
  8 22  1  0  0  0
  9 10  1  0  0  0
  9 27  2  0  0  0
 10 11  2  0  0  0
 10 15  1  0  0  0
 11 12  1  0  0  0
 11 96  1  0  0  0
 12 13  2  0  0  0
 12 97  1  0  0  0
 13 14  1  0  0  0
 13 31  1  0  0  0
 14 15  2  0  0  0
 14 98  1  0  0  0
 15 99  1  0  0  0
 16 17  2  0  0  0
 16 21  1  0  0  0
 16 31  1  0  0  0
 17 18  1  0  0  0
 17100  1  0  0  0
 18 19  2  0  0  0
 18101  1  0  0  0
 19 20  1  0  0  0
 19 24  1  0  0  0
 20 21  2  0  0  0
 20102  1  0  0  0
 21 23  1  0  0  0
 22 28  1  0  0  0
 22 32  2  0  0  0
 26 27  1  0  0  0
 28103  1  0  0  0
 28104  1  0  0  0
 29105  1  0  0  0
 29106  1  0  0  0
 33 34  1  0  0  0
 33 66  1  0  0  0
 33 70  2  0  0  0
 34 36  1  0  0  0
 34 59  1  0  0  0
 34107  1  0  0  0
 35 44  2  0  0  0
 35 45  1  0  0  0
 35 68  1  0  0  0
 36 56  1  0  0  0
 36108  1  0  0  0
 37 39  1  0  0  0
 37 47  1  0  0  0
 37 66  1  0  0  0
 37109  1  0  0  0
 38 43  2  0  0  0
 38 46  1  0  0  0
 38 47  1  0  0  0
 39 64  1  0  0  0
 39 67  2  0  0  0
 40 52  1  0  0  0
 40 53  2  0  0  0
 40 58  1  0  0  0
 41110  1  0  0  0
 41111  1  0  0  0
 41112  1  0  0  0
 41 48  1  0  0  0
 42 43  1  0  0  0
 42 66  1  0  0  0
 42113  1  0  0  0
 42114  1  0  0  0
 43 44  1  0  0  0
 44115  1  0  0  0
 45 46  2  0  0  0
 45116  1  0  0  0
 46117  1  0  0  0
 47118  1  0  0  0
 47119  1  0  0  0
 48 56  1  0  0  0
 48 65  1  0  0  0
 48120  1  0  0  0
 49 50  1  0  0  0
 49 53  1  0  0  0
 49 64  1  0  0  0
 49121  1  0  0  0
 50 51  1  0  0  0
 50122  1  0  0  0
 50123  1  0  0  0
 51 52  1  0  0  0
 51124  1  0  0  0
 51125  1  0  0  0
 52126  1  0  0  0
 52127  1  0  0  0
 53 54  1  0  0  0
 54 55  2  0  0  0
 54128  1  0  0  0
 55 57  1  0  0  0
 55129  1  0  0  0
 56 69  2  0  0  0
 57 58  2  0  0  0
 57130  1  0  0  0
 58131  1  0  0  0
 59 60  1  0  0  0
 59 61  1  0  0  0
 59 62  1  0  0  0
 60132  1  0  0  0
 60133  1  0  0  0
 60134  1  0  0  0
 61135  1  0  0  0
 61136  1  0  0  0
 61137  1  0  0  0
 62138  1  0  0  0
 62139  1  0  0  0
 62140  1  0  0  0
 63 65  1  0  0  0
 63141  1  0  0  0
 63142  1  0  0  0
 63143  1  0  0  0
 64144  1  0  0  0
 65145  1  0  0  0
 68 83  1  0  0  0
 71 73  2  0  0  0
 71 74  1  0  0  0
 71146  1  0  0  0
 72 75  2  0  0  0
 72 76  1  0  0  0
 72147  1  0  0  0
 73 75  1  0  0  0
 73 80  1  0  0  0
 74 76  2  0  0  0
 74 78  1  0  0  0
 75 79  1  0  0  0
 76 84  1  0  0  0
 77 81  1  0  0  0
 77 85  1  0  0  0
 77 86  2  0  0  0
 78148  1  0  0  0
 78149  1  0  0  0
 78150  1  0  0  0
 79151  1  0  0  0
 79152  1  0  0  0
 79153  1  0  0  0
 80 85  1  0  0  0
 80154  1  0  0  0
 80155  1  0  0  0
 81 82  1  0  0  0
 81156  1  0  0  0
 81157  1  0  0  0
 82 83  1  0  0  0
 82158  1  0  0  0
 82159  1  0  0  0
 83160  1  0  0  0
 83161  1  0  0  0
 84162  1  0  0  0
 85163  1  0  0  0
M  ISO  4   1 100  68 101  83 101  84 100
M  END
> <chiral flag>
0

> <version>
0

> <s_m_source_file>
/data/baiqing/PycharmProjects/Reinvent-master-3.2/result/LINK_invent/BTK/process_docking_weight1_custom_product_contain_oxygen_bond_distance_aromatic_linkinvent_7_9_3/rearranged_h_0056.sdf

> <i_m_source_file_index>
78

> <r_mmod_Potential_Energy-OPLS-2005>
-168.350738525391

> <r_mmod_Stretch_Energy-OPLS-2005>
32.2703895568848

> <r_mmod_Bend_Energy-OPLS-2005>
94.846076965332

> <r_mmod_Torsional_Energy-OPLS-2005>
255.073486328125

> <r_mmod_Improper_Torsional_Energy-OPLS-2005>
3.74562311172485

> <r_mmod_Van_der_Waal_Energy-OPLS-2005>
159.405517578125

> <r_mmod_Electrostatic_Energy-OPLS-2005>
-483.317047119141

> <r_mmod_Solvation_Energy-OPLS-2005>
-238.064346313477

> <b_mmod_Minimization_Converged-OPLS-2005>
0

> <r_mmod_RMS_Derivative-OPLS-2005>
2.72725820541382

$$$$
78
                    3D
 Structure written by MMmdl.
163171  0  0  1  0            999 V2000
  -30.7543  -14.6646   20.4976 C   0  0  0  0  0  0
  -30.3972  -12.4160   19.5200 C   0  0  0  0  0  0
  -29.5074  -12.5083   18.2640 C   0  0  0  0  0  0
  -28.0411  -12.3204   18.6739 C   0  0  0  0  0  0
  -27.6437  -13.2473   19.8529 C   0  0  2  0  0  0
  -28.6755  -13.2516   21.0112 C   0  0  0  0  0  0
  -25.2501  -13.8251   20.5671 C   0  0  0  0  0  0
  -24.1805  -13.0465   20.9191 C   0  0  0  0  0  0
  -24.6436  -11.6963   20.8740 C   0  0  0  0  0  0
  -23.9142  -10.4309   21.0367 C   0  0  0  0  0  0
  -24.3677   -9.4230   21.9146 C   0  0  0  0  0  0
  -23.6360   -8.2269   22.0723 C   0  0  0  0  0  0
  -22.4337   -8.0300   21.3548 C   0  0  0  0  0  0
  -21.9982   -9.0260   20.4643 C   0  0  0  0  0  0
  -22.7312  -10.2134   20.3039 C   0  0  0  0  0  0
  -21.6851   -6.0788   22.5298 C   0  0  0  0  0  0
  -21.4032   -6.5664   23.8253 C   0  0  0  0  0  0
  -21.3677   -5.6803   24.9217 C   0  0  0  0  0  0
  -21.6051   -4.3063   24.7229 C   0  0  0  0  0  0
  -21.8790   -3.8173   23.4325 C   0  0  0  0  0  0
  -21.9152   -4.7016   22.3401 C   0  0  0  0  0  0
  -22.7828  -13.5215   21.1878 C   0  0  0  0  0  0
  -22.1629   -4.2212   21.0988 F   0  0  0  0  0  0
  -21.5646   -3.4531   25.7721 F   0  0  0  0  0  0
  -30.0002  -13.5113   20.4482 N   0  0  0  0  0  0
  -26.2958  -12.9498   20.3290 N   0  0  0  0  0  0
  -25.9381  -11.6630   20.5759 N   0  0  0  0  0  0
  -22.0500  -12.8203   22.0458 N   0  0  0  0  0  0
  -25.4254  -15.1961   20.4032 N   0  0  0  0  0  0
  -31.8682  -14.5832   20.0124 O   0  0  0  0  0  0
  -21.6693   -6.8916   21.4253 O   0  0  0  0  0  0
  -22.3452  -14.5474   20.6679 O   0  0  0  0  0  0
  -24.6213  -31.8635   23.2005 C   0  0  0  0  0  0
  -25.9088  -32.4776   23.8336 C   0  0  1  0  0  0
  -27.2220  -27.3461   20.1244 C   0  0  0  0  0  0
  -25.5972  -33.8588   24.2300 N   0  0  0  0  0  0
  -23.4113  -30.4880   21.5422 C   0  0  2  0  0  0
  -24.8572  -28.9241   20.1198 C   0  0  0  0  0  0
  -22.7416  -29.4673   22.4937 C   0  0  0  0  0  0
  -18.0312  -28.1377   22.8461 C   0  0  0  0  0  0
  -24.1477  -36.7225   23.2652 C   0  0  0  0  0  0
  -25.9510  -30.7960   21.3696 C   0  0  0  0  0  0
  -26.0249  -29.4239   20.7137 C   0  0  0  0  0  0
  -27.2159  -28.6485   20.7023 C   0  0  0  0  0  0
  -26.0414  -26.8823   19.5129 C   0  0  0  0  0  0
  -24.8655  -27.6571   19.5089 C   0  0  0  0  0  0
  -23.6265  -29.8093   20.1607 C   0  0  0  0  0  0
  -25.4102  -36.3075   24.0370 C   0  0  1  0  0  0
  -20.5878  -28.3685   23.1269 C   0  0  2  0  0  0
  -20.6766  -26.9409   22.5424 C   0  0  0  0  0  0
  -19.5752  -26.6372   21.5207 C   0  0  0  0  0  0
  -18.1924  -26.7931   22.1604 C   0  0  0  0  0  0
  -19.1552  -28.8859   23.2864 C   0  0  0  0  0  0
  -18.9499  -30.1457   23.8858 C   0  0  0  0  0  0
  -17.6498  -30.6578   24.0567 C   0  0  0  0  0  0
  -25.9056  -34.9447   23.5115 C   0  0  0  0  0  0
  -16.5378  -29.9075   23.6350 C   0  0  0  0  0  0
  -16.7307  -28.6516   23.0340 C   0  0  0  0  0  0
  -26.4485  -31.6588   25.0700 C   0  0  0  0  0  0
  -25.3808  -31.3787   26.1525 C   0  0  0  0  0  0
  -27.0277  -30.2993   24.6127 C   0  0  0  0  0  0
  -27.6028  -32.4351   25.7460 C   0  0  0  0  0  0
  -27.5573  -37.1756   24.8486 C   0  0  0  0  0  0
  -21.4158  -29.3061   22.3674 N   0  0  0  0  0  0
  -26.4261  -37.3770   23.9458 N   0  0  0  0  0  0
  -24.6807  -31.0667   22.0944 N   0  0  0  0  0  0
  -23.4169  -28.8258   23.3046 O   0  0  0  0  0  0
  -28.3444  -26.5256   20.1109 O   0  0  0  0  0  0
  -26.5549  -34.8931   22.4647 O   0  0  0  0  0  0
  -23.5402  -32.1443   23.7356 O   0  0  0  0  0  0
  -31.4649  -19.3950   18.6917 C   0  0  0  0  0  0
  -32.4365  -18.4970   19.1427 C   0  0  0  0  0  0
  -30.2196  -19.3756   19.3294 C   0  0  0  0  0  0
  -32.1142  -17.4669   20.0524 C   0  0  0  0  0  0
  -29.8864  -18.3908   20.2954 C   0  0  0  0  0  0
  -30.7481  -17.2269   20.4573 C   0  0  0  0  0  0
  -28.0673  -21.2839   21.1706 C   0  0  0  0  0  0
  -33.3369  -16.7529   20.6240 C   0  0  0  0  0  0
  -29.5021  -20.3042   22.9510 C   0  0  0  0  0  0
  -28.6606  -18.7724   21.1653 C   0  0  0  0  0  0
  -28.2675  -22.7709   21.6969 C   0  0  0  0  0  0
  -28.2213  -23.9234   20.5853 C   0  0  0  0  0  0
  -28.3930  -25.4232   21.0823 C   0  0  0  0  0  0
  -30.2741  -15.8948   20.9308 N   0  0  0  0  0  0
  -28.6998  -20.1867   21.7270 N   0  0  0  0  0  0
  -27.3048  -21.1335   20.2167 O   0  0  0  0  0  0
  -31.4434  -12.4473   19.2075 H   0  0  0  0  0  0
  -30.2849  -11.4497   20.0167 H   0  0  0  0  0  0
  -29.8078  -11.7572   17.5323 H   0  0  0  0  0  0
  -29.6389  -13.4759   17.7775 H   0  0  0  0  0  0
  -27.9172  -11.2762   18.9635 H   0  0  0  0  0  0
  -27.3749  -12.4695   17.8240 H   0  0  0  0  0  0
  -27.6308  -14.2605   19.4427 H   0  0  0  0  0  0
  -28.6754  -12.3133   21.5684 H   0  0  0  0  0  0
  -28.4109  -14.0289   21.7268 H   0  0  0  0  0  0
  -25.2790   -9.5768   22.4723 H   0  0  0  0  0  0
  -24.0115   -7.4666   22.7412 H   0  0  0  0  0  0
  -21.0933   -8.8757   19.8911 H   0  0  0  0  0  0
  -22.3746  -10.9667   19.6164 H   0  0  0  0  0  0
  -21.2093   -7.6172   23.9799 H   0  0  0  0  0  0
  -21.1521   -6.0527   25.9134 H   0  0  0  0  0  0
  -22.0543   -2.7635   23.2789 H   0  0  0  0  0  0
  -22.4145  -11.9914   22.4882 H   0  0  0  0  0  0
  -21.1113  -13.1212   22.2684 H   0  0  0  0  0  0
  -24.6714  -15.8621   20.5324 H   0  0  0  0  0  0
  -26.2914  -15.6146   20.0842 H   0  0  0  0  0  0
  -26.7135  -32.5429   23.1068 H   0  0  0  0  0  0
  -25.0320  -33.9736   25.0580 H   0  0  0  0  0  0
  -22.7066  -31.3086   21.3955 H   0  0  0  0  0  0
  -23.3786  -35.9501   23.3300 H   0  0  0  0  0  0
  -24.3581  -36.8824   22.2062 H   0  0  0  0  0  0
  -23.7135  -37.6409   23.6630 H   0  0  0  0  0  0
  -26.0979  -31.5601   20.6060 H   0  0  0  0  0  0
  -26.8239  -30.8282   22.0093 H   0  0  0  0  0  0
  -28.1193  -29.0336   21.1552 H   0  0  0  0  0  0
  -26.0294  -25.9062   19.0424 H   0  0  0  0  0  0
  -23.9713  -27.2662   19.0418 H   0  0  0  0  0  0
  -23.7554  -30.5837   19.4025 H   0  0  0  0  0  0
  -22.7397  -29.2497   19.8529 H   0  0  0  0  0  0
  -25.1262  -36.1907   25.0848 H   0  0  0  0  0  0
  -21.0004  -28.3277   24.1369 H   0  0  0  0  0  0
  -20.5606  -26.2326   23.3639 H   0  0  0  0  0  0
  -21.6649  -26.7397   22.1269 H   0  0  0  0  0  0
  -19.6909  -25.6277   21.1258 H   0  0  0  0  0  0
  -19.6684  -27.3162   20.6713 H   0  0  0  0  0  0
  -17.4207  -26.6716   21.3975 H   0  0  0  0  0  0
  -18.0302  -26.0064   22.8990 H   0  0  0  0  0  0
  -19.7989  -30.7296   24.2134 H   0  0  0  0  0  0
  -17.5088  -31.6229   24.5221 H   0  0  0  0  0  0
  -15.5379  -30.2976   23.7710 H   0  0  0  0  0  0
  -15.8708  -28.0844   22.7011 H   0  0  0  0  0  0
  -24.5984  -30.7041   25.8040 H   0  0  0  0  0  0
  -24.9012  -32.2982   26.4890 H   0  0  0  0  0  0
  -25.8289  -30.9142   27.0322 H   0  0  0  0  0  0
  -26.2793  -29.6784   24.1184 H   0  0  0  0  0  0
  -27.4016  -29.7186   25.4569 H   0  0  0  0  0  0
  -27.8666  -30.4264   23.9278 H   0  0  0  0  0  0
  -27.2598  -33.3698   26.1902 H   0  0  0  0  0  0
  -28.3888  -32.6834   25.0321 H   0  0  0  0  0  0
  -28.0612  -31.8584   26.5506 H   0  0  0  0  0  0
  -28.2607  -38.0043   24.7540 H   0  0  0  0  0  0
  -28.1050  -36.2577   24.6273 H   0  0  0  0  0  0
  -27.2333  -37.1378   25.8905 H   0  0  0  0  0  0
  -20.9321  -29.8795   21.6874 H   0  0  0  0  0  0
  -26.0157  -38.2836   24.1502 H   0  0  0  0  0  0
  -31.7016  -20.1659   17.9680 H   0  0  0  0  0  0
  -33.4564  -18.6161   18.8008 H   0  0  0  0  0  0
  -29.5354  -20.1783   19.0903 H   0  0  0  0  0  0
  -33.7255  -15.9959   19.9445 H   0  0  0  0  0  0
  -33.1284  -16.3090   21.5982 H   0  0  0  0  0  0
  -34.1612  -17.4538   20.7556 H   0  0  0  0  0  0
  -28.9261  -20.7010   23.7887 H   0  0  0  0  0  0
  -30.3607  -20.9592   22.8012 H   0  0  0  0  0  0
  -29.8879  -19.3365   23.2757 H   0  0  0  0  0  0
  -28.5704  -18.0517   21.9836 H   0  0  0  0  0  0
  -27.7629  -18.6329   20.5628 H   0  0  0  0  0  0
  -29.1813  -22.8783   22.2897 H   0  0  0  0  0  0
  -27.4585  -22.9549   22.4101 H   0  0  0  0  0  0
  -27.2791  -23.8498   20.0408 H   0  0  0  0  0  0
  -28.9926  -23.7181   19.8406 H   0  0  0  0  0  0
  -29.3774  -25.5130   21.5518 H   0  0  0  0  0  0
  -27.6726  -25.6184   21.8787 H   0  0  0  0  0  0
  -29.3775  -15.8915   21.3948 H   0  0  0  0  0  0
  1 25  1  0  0  0
  1 30  2  0  0  0
  1 84  1  0  0  0
  2  3  1  0  0  0
  2 25  1  0  0  0
  2 87  1  0  0  0
  2 88  1  0  0  0
  3  4  1  0  0  0
  3 89  1  0  0  0
  3 90  1  0  0  0
  4  5  1  0  0  0
  4 91  1  0  0  0
  4 92  1  0  0  0
  5  6  1  0  0  0
  5 26  1  0  0  0
  5 93  1  0  0  0
  6 25  1  0  0  0
  6 94  1  0  0  0
  6 95  1  0  0  0
  7  8  2  0  0  0
  7 26  1  0  0  0
  7 29  1  0  0  0
  8  9  1  0  0  0
  8 22  1  0  0  0
  9 10  1  0  0  0
  9 27  2  0  0  0
 10 11  2  0  0  0
 10 15  1  0  0  0
 11 12  1  0  0  0
 11 96  1  0  0  0
 12 13  2  0  0  0
 12 97  1  0  0  0
 13 14  1  0  0  0
 13 31  1  0  0  0
 14 15  2  0  0  0
 14 98  1  0  0  0
 15 99  1  0  0  0
 16 17  2  0  0  0
 16 21  1  0  0  0
 16 31  1  0  0  0
 17 18  1  0  0  0
 17100  1  0  0  0
 18 19  2  0  0  0
 18101  1  0  0  0
 19 20  1  0  0  0
 19 24  1  0  0  0
 20 21  2  0  0  0
 20102  1  0  0  0
 21 23  1  0  0  0
 22 28  1  0  0  0
 22 32  2  0  0  0
 26 27  1  0  0  0
 28103  1  0  0  0
 28104  1  0  0  0
 29105  1  0  0  0
 29106  1  0  0  0
 33 34  1  0  0  0
 33 66  1  0  0  0
 33 70  2  0  0  0
 34 36  1  0  0  0
 34 59  1  0  0  0
 34107  1  0  0  0
 35 44  2  0  0  0
 35 45  1  0  0  0
 35 68  1  0  0  0
 36 56  1  0  0  0
 36108  1  0  0  0
 37 39  1  0  0  0
 37 47  1  0  0  0
 37 66  1  0  0  0
 37109  1  0  0  0
 38 43  2  0  0  0
 38 46  1  0  0  0
 38 47  1  0  0  0
 39 64  1  0  0  0
 39 67  2  0  0  0
 40 52  1  0  0  0
 40 53  2  0  0  0
 40 58  1  0  0  0
 41110  1  0  0  0
 41111  1  0  0  0
 41112  1  0  0  0
 41 48  1  0  0  0
 42 43  1  0  0  0
 42 66  1  0  0  0
 42113  1  0  0  0
 42114  1  0  0  0
 43 44  1  0  0  0
 44115  1  0  0  0
 45 46  2  0  0  0
 45116  1  0  0  0
 46117  1  0  0  0
 47118  1  0  0  0
 47119  1  0  0  0
 48 56  1  0  0  0
 48 65  1  0  0  0
 48120  1  0  0  0
 49 50  1  0  0  0
 49 53  1  0  0  0
 49 64  1  0  0  0
 49121  1  0  0  0
 50 51  1  0  0  0
 50122  1  0  0  0
 50123  1  0  0  0
 51 52  1  0  0  0
 51124  1  0  0  0
 51125  1  0  0  0
 52126  1  0  0  0
 52127  1  0  0  0
 53 54  1  0  0  0
 54 55  2  0  0  0
 54128  1  0  0  0
 55 57  1  0  0  0
 55129  1  0  0  0
 56 69  2  0  0  0
 57 58  2  0  0  0
 57130  1  0  0  0
 58131  1  0  0  0
 59 60  1  0  0  0
 59 61  1  0  0  0
 59 62  1  0  0  0
 60132  1  0  0  0
 60133  1  0  0  0
 60134  1  0  0  0
 61135  1  0  0  0
 61136  1  0  0  0
 61137  1  0  0  0
 62138  1  0  0  0
 62139  1  0  0  0
 62140  1  0  0  0
 63 65  1  0  0  0
 63141  1  0  0  0
 63142  1  0  0  0
 63143  1  0  0  0
 64144  1  0  0  0
 65145  1  0  0  0
 68 83  1  0  0  0
 71 72  2  0  0  0
 71 73  1  0  0  0
 71146  1  0  0  0
 72 74  1  0  0  0
 72147  1  0  0  0
 73 75  2  0  0  0
 73148  1  0  0  0
 74 76  2  0  0  0
 74 78  1  0  0  0
 75 76  1  0  0  0
 75 80  1  0  0  0
 76 84  1  0  0  0
 77 81  1  0  0  0
 77 85  1  0  0  0
 77 86  2  0  0  0
 78149  1  0  0  0
 78150  1  0  0  0
 78151  1  0  0  0
 79 85  1  0  0  0
 79152  1  0  0  0
 79153  1  0  0  0
 79154  1  0  0  0
 80 85  1  0  0  0
 80155  1  0  0  0
 80156  1  0  0  0
 81 82  1  0  0  0
 81157  1  0  0  0
 81158  1  0  0  0
 82 83  1  0  0  0
 82159  1  0  0  0
 82160  1  0  0  0
 83161  1  0  0  0
 83162  1  0  0  0
 84163  1  0  0  0
M  ISO  4   1 100  68 101  83 101  84 100
M  END
> <chiral flag>
0

> <version>
0

> <s_m_source_file>
/data/baiqing/PycharmProjects/Reinvent-master-3.2/result/LINK_invent/BTK/process_docking_weight1_custom_product_contain_oxygen_bond_distance_aromatic_linkinvent_7_9_3/rearranged_h_0056.sdf

> <i_m_source_file_index>
79

> <r_mmod_Potential_Energy-OPLS-2005>
163.089218139648

> <r_mmod_Stretch_Energy-OPLS-2005>
102.242202758789

> <r_mmod_Bend_Energy-OPLS-2005>
161.269088745117

> <r_mmod_Torsional_Energy-OPLS-2005>
318.172180175781

> <r_mmod_Improper_Torsional_Energy-OPLS-2005>
4.42630481719971

> <r_mmod_Van_der_Waal_Energy-OPLS-2005>
166.304794311523

> <r_mmod_Electrostatic_Energy-OPLS-2005>
-423.222290039062

> <r_mmod_Solvation_Energy-OPLS-2005>
-224.15185546875

> <b_mmod_Minimization_Converged-OPLS-2005>
0

> <r_mmod_RMS_Derivative-OPLS-2005>
9.36594390869141

$$$$
79
                    3D
 Structure written by MMmdl.
158166  0  0  1  0            999 V2000
  -30.6911  -14.4185   20.5614 C   0  0  0  0  0  0
  -30.4389  -12.2738   19.3981 C   0  0  0  0  0  0
  -29.4989  -12.4876   18.1925 C   0  0  0  0  0  0
  -28.0172  -12.3594   18.6064 C   0  0  0  0  0  0
  -27.6711  -13.1886   19.8724 C   0  0  2  0  0  0
  -28.7111  -12.9202   20.9833 C   0  0  0  0  0  0
  -25.2659  -13.8118   20.5660 C   0  0  0  0  0  0
  -24.1874  -13.0435   20.9159 C   0  0  0  0  0  0
  -24.6388  -11.6892   20.8712 C   0  0  0  0  0  0
  -23.9037  -10.4296   21.0395 C   0  0  0  0  0  0
  -24.3598   -9.4217   21.9170 C   0  0  0  0  0  0
  -23.6284   -8.2250   22.0747 C   0  0  0  0  0  0
  -22.4258   -8.0288   21.3551 C   0  0  0  0  0  0
  -21.9881   -9.0259   20.4655 C   0  0  0  0  0  0
  -22.7205  -10.2140   20.3058 C   0  0  0  0  0  0
  -21.6851   -6.0731   22.5284 C   0  0  0  0  0  0
  -21.4010   -6.5631   23.8216 C   0  0  0  0  0  0
  -21.3652   -5.6783   24.9170 C   0  0  0  0  0  0
  -21.6046   -4.3050   24.7223 C   0  0  0  0  0  0
  -21.8826   -3.8145   23.4344 C   0  0  0  0  0  0
  -21.9187   -4.6959   22.3400 C   0  0  0  0  0  0
  -22.7902  -13.5275   21.1807 C   0  0  0  0  0  0
  -22.1668   -4.2148   21.0980 F   0  0  0  0  0  0
  -21.5625   -3.4535   25.7733 F   0  0  0  0  0  0
  -30.0490  -13.2285   20.4429 N   0  0  0  0  0  0
  -26.3073  -12.9258   20.3314 N   0  0  0  0  0  0
  -25.9310  -11.6440   20.5724 N   0  0  0  0  0  0
  -22.0510  -12.8318   22.0379 N   0  0  0  0  0  0
  -25.4408  -15.1837   20.4103 N   0  0  0  0  0  0
  -31.8324  -14.6233   20.1400 O   0  0  0  0  0  0
  -21.6636   -6.8876   21.4245 O   0  0  0  0  0  0
  -22.3615  -14.5584   20.6635 O   0  0  0  0  0  0
  -24.6079  -31.8709   23.2124 C   0  0  0  0  0  0
  -25.9002  -32.4847   23.8397 C   0  0  1  0  0  0
  -27.2541  -27.4906   20.0722 C   0  0  0  0  0  0
  -25.5875  -33.8644   24.2332 N   0  0  0  0  0  0
  -23.3948  -30.4917   21.5514 C   0  0  2  0  0  0
  -24.8451  -28.9616   20.1135 C   0  0  0  0  0  0
  -22.7376  -29.4659   22.5016 C   0  0  0  0  0  0
  -18.0263  -28.1372   22.8499 C   0  0  0  0  0  0
  -24.1479  -36.7322   23.2635 C   0  0  0  0  0  0
  -25.9164  -30.8490   21.3592 C   0  0  0  0  0  0
  -25.9980  -29.4848   20.7122 C   0  0  0  0  0  0
  -27.1975  -28.7476   20.7057 C   0  0  0  0  0  0
  -26.0835  -26.9604   19.4831 C   0  0  0  0  0  0
  -24.8790  -27.6939   19.5038 C   0  0  0  0  0  0
  -23.6014  -29.8212   20.1658 C   0  0  0  0  0  0
  -25.4099  -36.3130   24.0336 C   0  0  1  0  0  0
  -20.5845  -28.3645   23.1343 C   0  0  2  0  0  0
  -20.6742  -26.9389   22.5437 C   0  0  0  0  0  0
  -19.5730  -26.6384   21.5222 C   0  0  0  0  0  0
  -18.1907  -26.7927   22.1621 C   0  0  0  0  0  0
  -19.1512  -28.8825   23.2915 C   0  0  0  0  0  0
  -18.9444  -30.1432   23.8924 C   0  0  0  0  0  0
  -17.6450  -30.6583   24.0576 C   0  0  0  0  0  0
  -25.9021  -34.9494   23.5129 C   0  0  0  0  0  0
  -16.5335  -29.9097   23.6324 C   0  0  0  0  0  0
  -16.7252  -28.6509   23.0345 C   0  0  0  0  0  0
  -26.4470  -31.6622   25.0705 C   0  0  0  0  0  0
  -25.3757  -31.3738   26.1473 C   0  0  0  0  0  0
  -27.0295  -30.3069   24.6052 C   0  0  0  0  0  0
  -27.6052  -32.4358   25.7449 C   0  0  0  0  0  0
  -27.5594  -37.1791   24.8452 C   0  0  0  0  0  0
  -21.4109  -29.3022   22.3758 N   0  0  0  0  0  0
  -26.4288  -37.3810   23.9426 N   0  0  0  0  0  0
  -24.6575  -31.0837   22.1012 N   0  0  0  0  0  0
  -23.4172  -28.8212   23.3040 O   0  0  0  0  0  0
  -28.4400  -26.8016   20.1018 O   0  0  0  0  0  0
  -26.5594  -34.8939   22.4696 O   0  0  0  0  0  0
  -23.5285  -32.1455   23.7545 O   0  0  0  0  0  0
  -28.6306  -18.8481   21.0967 C   0  0  0  0  0  0
  -28.9536  -17.5369   21.4894 C   0  0  0  0  0  0
  -29.9404  -18.5683   19.0698 C   0  0  0  0  0  0
  -29.1183  -19.3748   19.8836 C   0  0  0  0  0  0
  -29.7592  -16.7191   20.6702 C   0  0  0  0  0  0
  -30.2426  -17.2442   19.4394 C   0  0  0  0  0  0
  -29.4289  -23.8357   18.6687 C   0  0  0  0  0  0
  -29.7374  -25.0396   19.1732 C   0  0  0  0  0  0
  -30.1375  -22.6318   19.0737 C   0  0  0  0  0  0
  -29.4431  -21.2983   17.1292 C   0  0  0  0  0  0
  -28.6601  -20.7633   19.4565 C   0  0  0  0  0  0
  -28.9491  -26.2918   18.8766 C   0  0  0  0  0  0
  -29.9385  -15.3788   21.1132 N   0  0  0  0  0  0
  -29.5543  -21.5255   18.5749 N   0  0  0  0  0  0
  -31.0029  -22.5769   19.9525 O   0  0  0  0  0  0
  -30.9408  -16.4916   18.5568 F   0  0  0  0  0  0
  -31.4796  -12.3964   19.0888 H   0  0  0  0  0  0
  -30.3617  -11.2525   19.7732 H   0  0  0  0  0  0
  -29.7312  -11.7617   17.4109 H   0  0  0  0  0  0
  -29.6778  -13.4710   17.7557 H   0  0  0  0  0  0
  -27.8172  -11.3030   18.7923 H   0  0  0  0  0  0
  -27.3688  -12.6456   17.7774 H   0  0  0  0  0  0
  -27.7304  -14.2417   19.5963 H   0  0  0  0  0  0
  -28.6784  -11.8699   21.2789 H   0  0  0  0  0  0
  -28.4759  -13.4791   21.8902 H   0  0  0  0  0  0
  -25.2741   -9.5703   22.4742 H   0  0  0  0  0  0
  -23.9992   -7.4642   22.7470 H   0  0  0  0  0  0
  -21.0802   -8.8795   19.8976 H   0  0  0  0  0  0
  -22.3656  -10.9688   19.6189 H   0  0  0  0  0  0
  -21.2003   -7.6139   23.9725 H   0  0  0  0  0  0
  -21.1470   -6.0502   25.9075 H   0  0  0  0  0  0
  -22.0603   -2.7611   23.2845 H   0  0  0  0  0  0
  -22.4071  -12.0001   22.4856 H   0  0  0  0  0  0
  -21.1132  -13.1414   22.2511 H   0  0  0  0  0  0
  -24.6810  -15.8416   20.5458 H   0  0  0  0  0  0
  -26.2943  -15.6265   20.0940 H   0  0  0  0  0  0
  -26.7066  -32.5581   23.1163 H   0  0  0  0  0  0
  -25.0025  -33.9814   25.0476 H   0  0  0  0  0  0
  -22.6808  -31.3063   21.4139 H   0  0  0  0  0  0
  -23.3750  -35.9645   23.3290 H   0  0  0  0  0  0
  -24.3578  -36.8943   22.2054 H   0  0  0  0  0  0
  -23.7219  -37.6515   23.6654 H   0  0  0  0  0  0
  -26.0144  -31.6134   20.5866 H   0  0  0  0  0  0
  -26.8093  -30.9114   21.9686 H   0  0  0  0  0  0
  -28.0874  -29.1471   21.1728 H   0  0  0  0  0  0
  -26.0923  -25.9818   19.0250 H   0  0  0  0  0  0
  -23.9900  -27.2820   19.0468 H   0  0  0  0  0  0
  -23.7009  -30.5956   19.4036 H   0  0  0  0  0  0
  -22.7285  -29.2343   19.8749 H   0  0  0  0  0  0
  -25.1273  -36.1984   25.0828 H   0  0  0  0  0  0
  -20.9935  -28.3208   24.1462 H   0  0  0  0  0  0
  -20.5633  -26.2253   23.3613 H   0  0  0  0  0  0
  -21.6615  -26.7435   22.1234 H   0  0  0  0  0  0
  -19.6885  -25.6305   21.1226 H   0  0  0  0  0  0
  -19.6675  -27.3206   20.6768 H   0  0  0  0  0  0
  -17.4183  -26.6687   21.4020 H   0  0  0  0  0  0
  -18.0297  -26.0061   22.9010 H   0  0  0  0  0  0
  -19.7919  -30.7237   24.2308 H   0  0  0  0  0  0
  -17.5008  -31.6266   24.5182 H   0  0  0  0  0  0
  -15.5334  -30.3007   23.7643 H   0  0  0  0  0  0
  -15.8645  -28.0839   22.7048 H   0  0  0  0  0  0
  -24.5873  -30.7149   25.7827 H   0  0  0  0  0  0
  -24.9008  -32.2901   26.4987 H   0  0  0  0  0  0
  -25.8103  -30.8849   27.0199 H   0  0  0  0  0  0
  -26.2806  -29.6811   24.1177 H   0  0  0  0  0  0
  -27.4166  -29.7331   25.4489 H   0  0  0  0  0  0
  -27.8602  -30.4413   23.9118 H   0  0  0  0  0  0
  -27.2654  -33.3623   26.2100 H   0  0  0  0  0  0
  -28.3797  -32.6997   25.0233 H   0  0  0  0  0  0
  -28.0801  -31.8455   26.5295 H   0  0  0  0  0  0
  -28.2587  -38.0121   24.7563 H   0  0  0  0  0  0
  -28.1113  -36.2656   24.6180 H   0  0  0  0  0  0
  -27.2327  -37.1336   25.8856 H   0  0  0  0  0  0
  -20.9258  -29.8740   21.6986 H   0  0  0  0  0  0
  -26.0178  -38.2876   24.1478 H   0  0  0  0  0  0
  -27.9817  -19.4401   21.7275 H   0  0  0  0  0  0
  -28.5467  -17.1506   22.4138 H   0  0  0  0  0  0
  -30.3090  -18.9352   18.1250 H   0  0  0  0  0  0
  -28.6016  -23.7654   17.9811 H   0  0  0  0  0  0
  -30.5670  -25.1535   19.8591 H   0  0  0  0  0  0
  -30.4025  -20.9695   16.7283 H   0  0  0  0  0  0
  -29.1528  -22.1890   16.5717 H   0  0  0  0  0  0
  -28.7072  -20.5280   16.8983 H   0  0  0  0  0  0
  -28.4438  -21.3409   20.3607 H   0  0  0  0  0  0
  -27.6951  -20.6552   18.9603 H   0  0  0  0  0  0
  -28.1758  -26.0759   18.1377 H   0  0  0  0  0  0
  -29.6150  -27.0339   18.4340 H   0  0  0  0  0  0
  -29.1687  -15.0194   21.6547 H   0  0  0  0  0  0
  1 25  1  0  0  0
  1 30  2  0  0  0
  1 83  1  0  0  0
  2  3  1  0  0  0
  2 25  1  0  0  0
  2 87  1  0  0  0
  2 88  1  0  0  0
  3  4  1  0  0  0
  3 89  1  0  0  0
  3 90  1  0  0  0
  4  5  1  0  0  0
  4 91  1  0  0  0
  4 92  1  0  0  0
  5  6  1  0  0  0
  5 26  1  0  0  0
  5 93  1  0  0  0
  6 25  1  0  0  0
  6 94  1  0  0  0
  6 95  1  0  0  0
  7  8  2  0  0  0
  7 26  1  0  0  0
  7 29  1  0  0  0
  8  9  1  0  0  0
  8 22  1  0  0  0
  9 10  1  0  0  0
  9 27  2  0  0  0
 10 11  2  0  0  0
 10 15  1  0  0  0
 11 12  1  0  0  0
 11 96  1  0  0  0
 12 13  2  0  0  0
 12 97  1  0  0  0
 13 14  1  0  0  0
 13 31  1  0  0  0
 14 15  2  0  0  0
 14 98  1  0  0  0
 15 99  1  0  0  0
 16 17  2  0  0  0
 16 21  1  0  0  0
 16 31  1  0  0  0
 17 18  1  0  0  0
 17100  1  0  0  0
 18 19  2  0  0  0
 18101  1  0  0  0
 19 20  1  0  0  0
 19 24  1  0  0  0
 20 21  2  0  0  0
 20102  1  0  0  0
 21 23  1  0  0  0
 22 28  1  0  0  0
 22 32  2  0  0  0
 26 27  1  0  0  0
 28103  1  0  0  0
 28104  1  0  0  0
 29105  1  0  0  0
 29106  1  0  0  0
 33 34  1  0  0  0
 33 66  1  0  0  0
 33 70  2  0  0  0
 34 36  1  0  0  0
 34 59  1  0  0  0
 34107  1  0  0  0
 35 44  2  0  0  0
 35 45  1  0  0  0
 35 68  1  0  0  0
 36 56  1  0  0  0
 36108  1  0  0  0
 37 39  1  0  0  0
 37 47  1  0  0  0
 37 66  1  0  0  0
 37109  1  0  0  0
 38 43  2  0  0  0
 38 46  1  0  0  0
 38 47  1  0  0  0
 39 64  1  0  0  0
 39 67  2  0  0  0
 40 52  1  0  0  0
 40 53  2  0  0  0
 40 58  1  0  0  0
 41110  1  0  0  0
 41111  1  0  0  0
 41112  1  0  0  0
 41 48  1  0  0  0
 42 43  1  0  0  0
 42 66  1  0  0  0
 42113  1  0  0  0
 42114  1  0  0  0
 43 44  1  0  0  0
 44115  1  0  0  0
 45 46  2  0  0  0
 45116  1  0  0  0
 46117  1  0  0  0
 47118  1  0  0  0
 47119  1  0  0  0
 48 56  1  0  0  0
 48 65  1  0  0  0
 48120  1  0  0  0
 49 50  1  0  0  0
 49 53  1  0  0  0
 49 64  1  0  0  0
 49121  1  0  0  0
 50 51  1  0  0  0
 50122  1  0  0  0
 50123  1  0  0  0
 51 52  1  0  0  0
 51124  1  0  0  0
 51125  1  0  0  0
 52126  1  0  0  0
 52127  1  0  0  0
 53 54  1  0  0  0
 54 55  2  0  0  0
 54128  1  0  0  0
 55 57  1  0  0  0
 55129  1  0  0  0
 56 69  2  0  0  0
 57 58  2  0  0  0
 57130  1  0  0  0
 58131  1  0  0  0
 59 60  1  0  0  0
 59 61  1  0  0  0
 59 62  1  0  0  0
 60132  1  0  0  0
 60133  1  0  0  0
 60134  1  0  0  0
 61135  1  0  0  0
 61136  1  0  0  0
 61137  1  0  0  0
 62138  1  0  0  0
 62139  1  0  0  0
 62140  1  0  0  0
 63 65  1  0  0  0
 63141  1  0  0  0
 63142  1  0  0  0
 63143  1  0  0  0
 64144  1  0  0  0
 65145  1  0  0  0
 68 82  1  0  0  0
 71 72  2  0  0  0
 71 74  1  0  0  0
 71146  1  0  0  0
 72 75  1  0  0  0
 72147  1  0  0  0
 73 74  2  0  0  0
 73 76  1  0  0  0
 73148  1  0  0  0
 74 81  1  0  0  0
 75 76  2  0  0  0
 75 83  1  0  0  0
 76 86  1  0  0  0
 77 78  2  0  0  0
 77 79  1  0  0  0
 77149  1  0  0  0
 78 82  1  0  0  0
 78150  1  0  0  0
 79 84  1  0  0  0
 79 85  2  0  0  0
 80 84  1  0  0  0
 80151  1  0  0  0
 80152  1  0  0  0
 80153  1  0  0  0
 81 84  1  0  0  0
 81154  1  0  0  0
 81155  1  0  0  0
 82156  1  0  0  0
 82157  1  0  0  0
 83158  1  0  0  0
M  ISO  4   1 100  68 101  82 101  83 100
M  END
> <chiral flag>
0

> <version>
0

> <s_m_source_file>
/data/baiqing/PycharmProjects/Reinvent-master-3.2/result/LINK_invent/BTK/process_docking_weight1_custom_product_contain_oxygen_bond_distance_aromatic_linkinvent_7_9_3/rearranged_h_0056.sdf

> <i_m_source_file_index>
80

> <r_mmod_Potential_Energy-OPLS-2005>
-22.5127182006836

> <r_mmod_Stretch_Energy-OPLS-2005>
32.8183135986328

> <r_mmod_Bend_Energy-OPLS-2005>
100.931770324707

> <r_mmod_Torsional_Energy-OPLS-2005>
305.871978759766

> <r_mmod_Improper_Torsional_Energy-OPLS-2005>
10.069766998291

> <r_mmod_Van_der_Waal_Energy-OPLS-2005>
166.718414306641

> <r_mmod_Electrostatic_Energy-OPLS-2005>
-413.023071289062

> <r_mmod_Solvation_Energy-OPLS-2005>
-236.989227294922

> <b_mmod_Minimization_Converged-OPLS-2005>
0

> <r_mmod_RMS_Derivative-OPLS-2005>
2.9135262966156

$$$$
80
                    3D
 Structure written by MMmdl.
157165  0  0  1  0            999 V2000
  -30.7498  -14.3406   20.6846 C   0  0  0  0  0  0
  -30.4173  -12.2687   19.3932 C   0  0  0  0  0  0
  -29.4871  -12.5343   18.1937 C   0  0  0  0  0  0
  -28.0079  -12.3992   18.6014 C   0  0  0  0  0  0
  -27.6700  -13.2006   19.8851 C   0  0  2  0  0  0
  -28.7026  -12.9113   20.9958 C   0  0  0  0  0  0
  -25.2597  -13.8148   20.5619 C   0  0  0  0  0  0
  -24.1836  -13.0432   20.9127 C   0  0  0  0  0  0
  -24.6387  -11.6898   20.8711 C   0  0  0  0  0  0
  -23.9042  -10.4289   21.0384 C   0  0  0  0  0  0
  -24.3595   -9.4208   21.9162 C   0  0  0  0  0  0
  -23.6275   -8.2243   22.0745 C   0  0  0  0  0  0
  -22.4256   -8.0270   21.3535 C   0  0  0  0  0  0
  -21.9883   -9.0243   20.4638 C   0  0  0  0  0  0
  -22.7209  -10.2128   20.3041 C   0  0  0  0  0  0
  -21.6846   -6.0725   22.5271 C   0  0  0  0  0  0
  -21.4017   -6.5623   23.8207 C   0  0  0  0  0  0
  -21.3666   -5.6772   24.9163 C   0  0  0  0  0  0
  -21.6045   -4.3037   24.7211 C   0  0  0  0  0  0
  -21.8824   -3.8130   23.4335 C   0  0  0  0  0  0
  -21.9185   -4.6951   22.3392 C   0  0  0  0  0  0
  -22.7863  -13.5244   21.1798 C   0  0  0  0  0  0
  -22.1650   -4.2134   21.0970 F   0  0  0  0  0  0
  -21.5628   -3.4528   25.7732 F   0  0  0  0  0  0
  -30.0573  -13.1928   20.4756 N   0  0  0  0  0  0
  -26.3052  -12.9320   20.3383 N   0  0  0  0  0  0
  -25.9312  -11.6479   20.5731 N   0  0  0  0  0  0
  -22.0504  -12.8259   22.0382 N   0  0  0  0  0  0
  -25.4294  -15.1862   20.3958 N   0  0  0  0  0  0
  -31.7522  -14.6682   20.0388 O   0  0  0  0  0  0
  -21.6620   -6.8867   21.4239 O   0  0  0  0  0  0
  -22.3541  -14.5546   20.6655 O   0  0  0  0  0  0
  -24.6087  -31.8708   23.2130 C   0  0  0  0  0  0
  -25.9005  -32.4838   23.8408 C   0  0  1  0  0  0
  -27.2366  -27.4826   20.0763 C   0  0  0  0  0  0
  -25.5884  -33.8640   24.2341 N   0  0  0  0  0  0
  -23.3936  -30.4952   21.5546 C   0  0  2  0  0  0
  -24.8392  -28.9645   20.1209 C   0  0  0  0  0  0
  -22.7369  -29.4675   22.5034 C   0  0  0  0  0  0
  -18.0258  -28.1376   22.8493 C   0  0  0  0  0  0
  -24.1478  -36.7329   23.2634 C   0  0  0  0  0  0
  -25.9169  -30.8518   21.3578 C   0  0  0  0  0  0
  -25.9973  -29.4878   20.7090 C   0  0  0  0  0  0
  -27.2007  -28.7526   20.6843 C   0  0  0  0  0  0
  -26.0609  -26.9606   19.4941 C   0  0  0  0  0  0
  -24.8617  -27.6960   19.5178 C   0  0  0  0  0  0
  -23.5997  -29.8262   20.1694 C   0  0  0  0  0  0
  -25.4099  -36.3127   24.0335 C   0  0  1  0  0  0
  -20.5841  -28.3643   23.1346 C   0  0  2  0  0  0
  -20.6749  -26.9392   22.5424 C   0  0  0  0  0  0
  -19.5722  -26.6379   21.5222 C   0  0  0  0  0  0
  -18.1905  -26.7923   22.1631 C   0  0  0  0  0  0
  -19.1505  -28.8830   23.2917 C   0  0  0  0  0  0
  -18.9433  -30.1430   23.8931 C   0  0  0  0  0  0
  -17.6433  -30.6570   24.0589 C   0  0  0  0  0  0
  -25.9025  -34.9485   23.5134 C   0  0  0  0  0  0
  -16.5330  -29.9088   23.6315 C   0  0  0  0  0  0
  -16.7248  -28.6510   23.0323 C   0  0  0  0  0  0
  -26.4467  -31.6589   25.0705 C   0  0  0  0  0  0
  -25.3763  -31.3670   26.1469 C   0  0  0  0  0  0
  -27.0272  -30.3038   24.6014 C   0  0  0  0  0  0
  -27.6046  -32.4287   25.7471 C   0  0  0  0  0  0
  -27.5576  -37.1825   24.8466 C   0  0  0  0  0  0
  -21.4100  -29.3038   22.3790 N   0  0  0  0  0  0
  -26.4290  -37.3804   23.9404 N   0  0  0  0  0  0
  -24.6579  -31.0847   22.1011 N   0  0  0  0  0  0
  -23.4176  -28.8193   23.3032 O   0  0  0  0  0  0
  -28.4231  -26.7948   20.0354 O   0  0  0  0  0  0
  -26.5581  -34.8920   22.4692 O   0  0  0  0  0  0
  -23.5290  -32.1441   23.7550 O   0  0  0  0  0  0
  -29.3891  -18.4838   20.4317 C   0  0  0  0  0  0
  -28.4730  -18.1546   22.6642 C   0  0  0  0  0  0
  -30.0036  -17.2201   20.4935 C   0  0  0  0  0  0
  -29.0832  -16.8878   22.7276 C   0  0  0  0  0  0
  -28.5934  -18.9460   21.5043 C   0  0  0  0  0  0
  -29.8294  -16.4011   21.6350 C   0  0  0  0  0  0
  -27.8566  -21.8542   19.4788 C   0  0  0  0  0  0
  -27.8523  -20.2732   21.4281 C   0  0  0  0  0  0
  -28.3330  -23.0137   20.3607 C   0  0  0  0  0  0
  -28.3734  -24.3769   19.6524 C   0  0  0  0  0  0
  -28.4115  -25.5238   20.6714 C   0  0  0  0  0  0
  -30.3062  -15.0689   21.7157 N   0  0  0  0  0  0
  -27.5727  -20.6804   20.0515 N   0  0  0  0  0  0
  -27.7068  -22.0082   18.2658 O   0  0  0  0  0  0
  -31.4628  -12.3706   19.0938 H   0  0  0  0  0  0
  -30.3092  -11.2398   19.7411 H   0  0  0  0  0  0
  -29.7169  -11.8457   17.3799 H   0  0  0  0  0  0
  -29.6688  -13.5365   17.8036 H   0  0  0  0  0  0
  -27.7983  -11.3410   18.7543 H   0  0  0  0  0  0
  -27.3611  -12.7217   17.7835 H   0  0  0  0  0  0
  -27.7389  -14.2595   19.6351 H   0  0  0  0  0  0
  -28.6445  -11.8639   21.2967 H   0  0  0  0  0  0
  -28.4447  -13.4779   21.8902 H   0  0  0  0  0  0
  -25.2742   -9.5680   22.4726 H   0  0  0  0  0  0
  -23.9969   -7.4649   22.7484 H   0  0  0  0  0  0
  -21.0805   -8.8766   19.8966 H   0  0  0  0  0  0
  -22.3655  -10.9658   19.6143 H   0  0  0  0  0  0
  -21.2025   -7.6130   23.9716 H   0  0  0  0  0  0
  -21.1482   -6.0490   25.9075 H   0  0  0  0  0  0
  -22.0606   -2.7591   23.2827 H   0  0  0  0  0  0
  -22.4093  -11.9910   22.4759 H   0  0  0  0  0  0
  -21.1160  -13.1359   22.2641 H   0  0  0  0  0  0
  -24.6587  -15.8404   20.4714 H   0  0  0  0  0  0
  -26.2891  -15.6221   20.0842 H   0  0  0  0  0  0
  -26.7079  -32.5592   23.1185 H   0  0  0  0  0  0
  -25.0066  -33.9810   25.0505 H   0  0  0  0  0  0
  -22.6790  -31.3095   21.4176 H   0  0  0  0  0  0
  -23.3722  -35.9686   23.3314 H   0  0  0  0  0  0
  -24.3580  -36.8917   22.2050 H   0  0  0  0  0  0
  -23.7238  -37.6543   23.6633 H   0  0  0  0  0  0
  -26.0143  -31.6176   20.5869 H   0  0  0  0  0  0
  -26.8101  -30.9117   21.9682 H   0  0  0  0  0  0
  -28.0989  -29.1561   21.1301 H   0  0  0  0  0  0
  -26.0586  -26.0038   18.9975 H   0  0  0  0  0  0
  -23.9694  -27.2863   19.0640 H   0  0  0  0  0  0
  -23.7099  -30.5995   19.4081 H   0  0  0  0  0  0
  -22.7242  -29.2452   19.8729 H   0  0  0  0  0  0
  -25.1273  -36.2009   25.0831 H   0  0  0  0  0  0
  -20.9931  -28.3182   24.1466 H   0  0  0  0  0  0
  -20.5638  -26.2263   23.3612 H   0  0  0  0  0  0
  -21.6623  -26.7432   22.1221 H   0  0  0  0  0  0
  -19.6873  -25.6289   21.1254 H   0  0  0  0  0  0
  -19.6663  -27.3212   20.6766 H   0  0  0  0  0  0
  -17.4180  -26.6662   21.4025 H   0  0  0  0  0  0
  -18.0294  -26.0090   22.9048 H   0  0  0  0  0  0
  -19.7905  -30.7238   24.2314 H   0  0  0  0  0  0
  -17.4974  -31.6224   24.5234 H   0  0  0  0  0  0
  -15.5326  -30.2996   23.7612 H   0  0  0  0  0  0
  -15.8653  -28.0856   22.7012 H   0  0  0  0  0  0
  -24.5947  -30.6993   25.7818 H   0  0  0  0  0  0
  -24.8949  -32.2817   26.4938 H   0  0  0  0  0  0
  -25.8157  -30.8844   27.0207 H   0  0  0  0  0  0
  -26.2787  -29.6824   24.1079 H   0  0  0  0  0  0
  -27.4073  -29.7237   25.4432 H   0  0  0  0  0  0
  -27.8607  -30.4351   23.9106 H   0  0  0  0  0  0
  -27.2665  -33.3566   26.2090 H   0  0  0  0  0  0
  -28.3850  -32.6867   25.0302 H   0  0  0  0  0  0
  -28.0716  -31.8383   26.5361 H   0  0  0  0  0  0
  -28.2612  -38.0104   24.7506 H   0  0  0  0  0  0
  -28.1050  -36.2642   24.6305 H   0  0  0  0  0  0
  -27.2304  -37.1493   25.8870 H   0  0  0  0  0  0
  -20.9238  -29.8827   21.7082 H   0  0  0  0  0  0
  -26.0180  -38.2882   24.1404 H   0  0  0  0  0  0
  -29.5162  -19.0759   19.5364 H   0  0  0  0  0  0
  -27.8862  -18.5040   23.5025 H   0  0  0  0  0  0
  -30.5728  -16.8896   19.6357 H   0  0  0  0  0  0
  -28.9480  -16.2815   23.6127 H   0  0  0  0  0  0
  -28.4416  -21.0067   21.9773 H   0  0  0  0  0  0
  -26.9009  -20.1869   21.9560 H   0  0  0  0  0  0
  -29.3175  -22.7833   20.7696 H   0  0  0  0  0  0
  -27.6412  -23.0815   21.2019 H   0  0  0  0  0  0
  -27.5059  -24.4809   19.0054 H   0  0  0  0  0  0
  -29.2433  -24.4277   18.9961 H   0  0  0  0  0  0
  -29.3193  -25.4442   21.2692 H   0  0  0  0  0  0
  -27.5829  -25.4426   21.3782 H   0  0  0  0  0  0
  -29.8269  -14.5128   22.4084 H   0  0  0  0  0  0
  -27.2006  -19.9604   19.4483 H   0  0  0  0  0  0
  1 25  1  0  0  0
  1 30  2  0  0  0
  1 82  1  0  0  0
  2  3  1  0  0  0
  2 25  1  0  0  0
  2 85  1  0  0  0
  2 86  1  0  0  0
  3  4  1  0  0  0
  3 87  1  0  0  0
  3 88  1  0  0  0
  4  5  1  0  0  0
  4 89  1  0  0  0
  4 90  1  0  0  0
  5  6  1  0  0  0
  5 26  1  0  0  0
  5 91  1  0  0  0
  6 25  1  0  0  0
  6 92  1  0  0  0
  6 93  1  0  0  0
  7  8  2  0  0  0
  7 26  1  0  0  0
  7 29  1  0  0  0
  8  9  1  0  0  0
  8 22  1  0  0  0
  9 10  1  0  0  0
  9 27  2  0  0  0
 10 11  2  0  0  0
 10 15  1  0  0  0
 11 12  1  0  0  0
 11 94  1  0  0  0
 12 13  2  0  0  0
 12 95  1  0  0  0
 13 14  1  0  0  0
 13 31  1  0  0  0
 14 15  2  0  0  0
 14 96  1  0  0  0
 15 97  1  0  0  0
 16 17  2  0  0  0
 16 21  1  0  0  0
 16 31  1  0  0  0
 17 18  1  0  0  0
 17 98  1  0  0  0
 18 19  2  0  0  0
 18 99  1  0  0  0
 19 20  1  0  0  0
 19 24  1  0  0  0
 20 21  2  0  0  0
 20100  1  0  0  0
 21 23  1  0  0  0
 22 28  1  0  0  0
 22 32  2  0  0  0
 26 27  1  0  0  0
 28101  1  0  0  0
 28102  1  0  0  0
 29103  1  0  0  0
 29104  1  0  0  0
 33 34  1  0  0  0
 33 66  1  0  0  0
 33 70  2  0  0  0
 34 36  1  0  0  0
 34 59  1  0  0  0
 34105  1  0  0  0
 35 44  2  0  0  0
 35 45  1  0  0  0
 35 68  1  0  0  0
 36 56  1  0  0  0
 36106  1  0  0  0
 37 39  1  0  0  0
 37 47  1  0  0  0
 37 66  1  0  0  0
 37107  1  0  0  0
 38 43  2  0  0  0
 38 46  1  0  0  0
 38 47  1  0  0  0
 39 64  1  0  0  0
 39 67  2  0  0  0
 40 52  1  0  0  0
 40 53  2  0  0  0
 40 58  1  0  0  0
 41108  1  0  0  0
 41109  1  0  0  0
 41110  1  0  0  0
 41 48  1  0  0  0
 42 43  1  0  0  0
 42 66  1  0  0  0
 42111  1  0  0  0
 42112  1  0  0  0
 43 44  1  0  0  0
 44113  1  0  0  0
 45 46  2  0  0  0
 45114  1  0  0  0
 46115  1  0  0  0
 47116  1  0  0  0
 47117  1  0  0  0
 48 56  1  0  0  0
 48 65  1  0  0  0
 48118  1  0  0  0
 49 50  1  0  0  0
 49 53  1  0  0  0
 49 64  1  0  0  0
 49119  1  0  0  0
 50 51  1  0  0  0
 50120  1  0  0  0
 50121  1  0  0  0
 51 52  1  0  0  0
 51122  1  0  0  0
 51123  1  0  0  0
 52124  1  0  0  0
 52125  1  0  0  0
 53 54  1  0  0  0
 54 55  2  0  0  0
 54126  1  0  0  0
 55 57  1  0  0  0
 55127  1  0  0  0
 56 69  2  0  0  0
 57 58  2  0  0  0
 57128  1  0  0  0
 58129  1  0  0  0
 59 60  1  0  0  0
 59 61  1  0  0  0
 59 62  1  0  0  0
 60130  1  0  0  0
 60131  1  0  0  0
 60132  1  0  0  0
 61133  1  0  0  0
 61134  1  0  0  0
 61135  1  0  0  0
 62136  1  0  0  0
 62137  1  0  0  0
 62138  1  0  0  0
 63 65  1  0  0  0
 63139  1  0  0  0
 63140  1  0  0  0
 63141  1  0  0  0
 64142  1  0  0  0
 65143  1  0  0  0
 68 81  1  0  0  0
 71 73  2  0  0  0
 71 75  1  0  0  0
 71144  1  0  0  0
 72 74  1  0  0  0
 72 75  2  0  0  0
 72145  1  0  0  0
 73 76  1  0  0  0
 73146  1  0  0  0
 74 76  2  0  0  0
 74147  1  0  0  0
 75 78  1  0  0  0
 76 82  1  0  0  0
 77 79  1  0  0  0
 77 83  1  0  0  0
 77 84  2  0  0  0
 78 83  1  0  0  0
 78148  1  0  0  0
 78149  1  0  0  0
 79 80  1  0  0  0
 79150  1  0  0  0
 79151  1  0  0  0
 80 81  1  0  0  0
 80152  1  0  0  0
 80153  1  0  0  0
 81154  1  0  0  0
 81155  1  0  0  0
 82156  1  0  0  0
 83157  1  0  0  0
M  ISO  4   1 100  68 101  81 101  82 100
M  END
> <chiral flag>
0

> <version>
0

> <s_m_source_file>
/data/baiqing/PycharmProjects/Reinvent-master-3.2/result/LINK_invent/BTK/process_docking_weight1_custom_product_contain_oxygen_bond_distance_aromatic_linkinvent_7_9_3/rearranged_h_0056.sdf

> <i_m_source_file_index>
81

> <r_mmod_Potential_Energy-OPLS-2005>
-153.66259765625

> <r_mmod_Stretch_Energy-OPLS-2005>
30.6205787658691

> <r_mmod_Bend_Energy-OPLS-2005>
91.4116821289062

> <r_mmod_Torsional_Energy-OPLS-2005>
253.197494506836

> <r_mmod_Improper_Torsional_Energy-OPLS-2005>
5.48227119445801

> <r_mmod_Van_der_Waal_Energy-OPLS-2005>
162.813369750977

> <r_mmod_Electrostatic_Energy-OPLS-2005>
-471.148193359375

> <r_mmod_Solvation_Energy-OPLS-2005>
-232.878005981445

> <b_mmod_Minimization_Converged-OPLS-2005>
0

> <r_mmod_RMS_Derivative-OPLS-2005>
2.16676330566406

$$$$
81
                    3D
 Structure written by MMmdl.
154162  0  0  1  0            999 V2000
  -30.6191  -14.6455   20.4992 C   0  0  0  0  0  0
  -30.4393  -12.3940   19.4566 C   0  0  0  0  0  0
  -29.5097  -12.5077   18.2272 C   0  0  0  0  0  0
  -28.0323  -12.3441   18.6378 C   0  0  0  0  0  0
  -27.6542  -13.2159   19.8649 C   0  0  2  0  0  0
  -28.6981  -13.0712   20.9957 C   0  0  0  0  0  0
  -25.2567  -13.8168   20.5686 C   0  0  0  0  0  0
  -24.1830  -13.0438   20.9186 C   0  0  0  0  0  0
  -24.6395  -11.6907   20.8736 C   0  0  0  0  0  0
  -23.9061  -10.4292   21.0404 C   0  0  0  0  0  0
  -24.3614   -9.4208   21.9183 C   0  0  0  0  0  0
  -23.6290   -8.2243   22.0753 C   0  0  0  0  0  0
  -22.4273   -8.0280   21.3544 C   0  0  0  0  0  0
  -21.9906   -9.0251   20.4646 C   0  0  0  0  0  0
  -22.7233  -10.2132   20.3055 C   0  0  0  0  0  0
  -21.6853   -6.0736   22.5279 C   0  0  0  0  0  0
  -21.4014   -6.5640   23.8212 C   0  0  0  0  0  0
  -21.3659   -5.6793   24.9174 C   0  0  0  0  0  0
  -21.6044   -4.3056   24.7225 C   0  0  0  0  0  0
  -21.8820   -3.8147   23.4346 C   0  0  0  0  0  0
  -21.9192   -4.6964   22.3403 C   0  0  0  0  0  0
  -22.7855  -13.5234   21.1850 C   0  0  0  0  0  0
  -22.1662   -4.2150   21.0981 F   0  0  0  0  0  0
  -21.5628   -3.4539   25.7737 F   0  0  0  0  0  0
  -30.0143  -13.4161   20.4346 N   0  0  0  0  0  0
  -26.2993  -12.9347   20.3323 N   0  0  0  0  0  0
  -25.9323  -11.6502   20.5755 N   0  0  0  0  0  0
  -22.0495  -12.8225   22.0406 N   0  0  0  0  0  0
  -25.4288  -15.1890   20.4106 N   0  0  0  0  0  0
  -31.7767  -14.8079   20.1020 O   0  0  0  0  0  0
  -21.6639   -6.8877   21.4240 O   0  0  0  0  0  0
  -22.3541  -14.5541   20.6700 O   0  0  0  0  0  0
  -24.6264  -31.8598   23.2018 C   0  0  0  0  0  0
  -25.9108  -32.4778   23.8351 C   0  0  1  0  0  0
  -27.2263  -27.3188   20.1154 C   0  0  0  0  0  0
  -25.5924  -33.8579   24.2275 N   0  0  0  0  0  0
  -23.4196  -30.4830   21.5450 C   0  0  2  0  0  0
  -24.8663  -28.9382   20.1113 C   0  0  0  0  0  0
  -22.7476  -29.4617   22.4937 C   0  0  0  0  0  0
  -18.0284  -28.1383   22.8479 C   0  0  0  0  0  0
  -24.1490  -36.7293   23.2640 C   0  0  0  0  0  0
  -25.9611  -30.7911   21.3724 C   0  0  0  0  0  0
  -26.0358  -29.4188   20.7137 C   0  0  0  0  0  0
  -27.2184  -28.6214   20.7046 C   0  0  0  0  0  0
  -26.0311  -26.8903   19.4924 C   0  0  0  0  0  0
  -24.8658  -27.6792   19.4922 C   0  0  0  0  0  0
  -23.6345  -29.8185   20.1601 C   0  0  0  0  0  0
  -25.4116  -36.3082   24.0330 C   0  0  1  0  0  0
  -20.5884  -28.3682   23.1286 C   0  0  2  0  0  0
  -20.6774  -26.9405   22.5412 C   0  0  0  0  0  0
  -19.5754  -26.6381   21.5212 C   0  0  0  0  0  0
  -18.1931  -26.7925   22.1620 C   0  0  0  0  0  0
  -19.1537  -28.8849   23.2876 C   0  0  0  0  0  0
  -18.9465  -30.1452   23.8890 C   0  0  0  0  0  0
  -17.6466  -30.6583   24.0561 C   0  0  0  0  0  0
  -25.9052  -34.9452   23.5101 C   0  0  0  0  0  0
  -16.5354  -29.9083   23.6333 C   0  0  0  0  0  0
  -16.7273  -28.6506   23.0343 C   0  0  0  0  0  0
  -26.4493  -31.6587   25.0722 C   0  0  0  0  0  0
  -25.3725  -31.3734   26.1448 C   0  0  0  0  0  0
  -27.0339  -30.3015   24.6171 C   0  0  0  0  0  0
  -27.6050  -32.4322   25.7494 C   0  0  0  0  0  0
  -27.5578  -37.1801   24.8466 C   0  0  0  0  0  0
  -21.4188  -29.3036   22.3683 N   0  0  0  0  0  0
  -26.4292  -37.3776   23.9408 N   0  0  0  0  0  0
  -24.6878  -31.0610   22.0969 N   0  0  0  0  0  0
  -23.4202  -28.8155   23.3015 O   0  0  0  0  0  0
  -28.3491  -26.4759   20.1640 O   0  0  0  0  0  0
  -26.5622  -34.8920   22.4667 O   0  0  0  0  0  0
  -23.5428  -32.1396   23.7348 O   0  0  0  0  0  0
  -28.9683  -17.9825   21.3923 C   0  0  0  0  0  0
  -30.8586  -17.8295   19.9271 C   0  0  0  0  0  0
  -29.9518  -20.0983   20.5097 C   0  0  0  0  0  0
  -28.9807  -19.4129   21.3057 C   0  0  0  0  0  0
  -29.9124  -17.1474   20.7326 C   0  0  0  0  0  0
  -30.8769  -19.2532   19.8183 C   0  0  0  0  0  0
  -30.1616  -21.6371   20.5126 C   0  0  0  0  0  0
  -27.9553  -20.1811   22.1271 C   0  0  0  0  0  0
  -29.3553  -24.0516   20.4060 C   0  0  0  0  0  0
  -28.1437  -25.0115   20.0423 C   0  0  0  0  0  0
  -29.8179  -15.6894   20.8886 N   0  0  0  0  0  0
  -29.1529  -22.5509   20.3471 N   0  0  0  0  0  0
  -31.3110  -22.0527   20.6771 O   0  0  0  0  0  0
  -31.8301  -19.8031   19.0260 F   0  0  0  0  0  0
  -31.4810  -12.5190   19.1556 H   0  0  0  0  0  0
  -30.3742  -11.3987   19.8985 H   0  0  0  0  0  0
  -29.7755  -11.7559   17.4828 H   0  0  0  0  0  0
  -29.6512  -13.4771   17.7465 H   0  0  0  0  0  0
  -27.8705  -11.2908   18.8706 H   0  0  0  0  0  0
  -27.3780  -12.5723   17.7956 H   0  0  0  0  0  0
  -27.6727  -14.2511   19.5233 H   0  0  0  0  0  0
  -28.7100  -12.0490   21.3769 H   0  0  0  0  0  0
  -28.4406  -13.7009   21.8485 H   0  0  0  0  0  0
  -25.2759   -9.5688   22.4755 H   0  0  0  0  0  0
  -24.0002   -7.4637   22.7473 H   0  0  0  0  0  0
  -21.0838   -8.8768   19.8951 H   0  0  0  0  0  0
  -22.3690  -10.9670   19.6164 H   0  0  0  0  0  0
  -21.2007   -7.6147   23.9716 H   0  0  0  0  0  0
  -21.1481   -6.0523   25.9077 H   0  0  0  0  0  0
  -22.0598   -2.7609   23.2846 H   0  0  0  0  0  0
  -22.4109  -11.9886   22.4795 H   0  0  0  0  0  0
  -21.1113  -13.1254   22.2611 H   0  0  0  0  0  0
  -24.6598  -15.8422   20.5133 H   0  0  0  0  0  0
  -26.2761  -15.6272   20.0722 H   0  0  0  0  0  0
  -26.7175  -32.5447   23.1099 H   0  0  0  0  0  0
  -25.0073  -33.9727   25.0421 H   0  0  0  0  0  0
  -22.7134  -31.3037   21.4025 H   0  0  0  0  0  0
  -23.3751  -35.9626   23.3308 H   0  0  0  0  0  0
  -24.3583  -36.8909   22.2052 H   0  0  0  0  0  0
  -23.7250  -37.6499   23.6660 H   0  0  0  0  0  0
  -26.0931  -31.5556   20.6053 H   0  0  0  0  0  0
  -26.8414  -30.8386   22.0021 H   0  0  0  0  0  0
  -28.1159  -28.9860   21.1846 H   0  0  0  0  0  0
  -25.9671  -25.9293   19.0056 H   0  0  0  0  0  0
  -23.9691  -27.3041   19.0183 H   0  0  0  0  0  0
  -23.7545  -30.5959   19.4049 H   0  0  0  0  0  0
  -22.7543  -29.2490   19.8557 H   0  0  0  0  0  0
  -25.1296  -36.1934   25.0825 H   0  0  0  0  0  0
  -20.9972  -28.3250   24.1410 H   0  0  0  0  0  0
  -20.5681  -26.2285   23.3607 H   0  0  0  0  0  0
  -21.6642  -26.7437   22.1202 H   0  0  0  0  0  0
  -19.6920  -25.6296   21.1237 H   0  0  0  0  0  0
  -19.6696  -27.3192   20.6744 H   0  0  0  0  0  0
  -17.4201  -26.6665   21.4022 H   0  0  0  0  0  0
  -18.0332  -26.0073   22.9024 H   0  0  0  0  0  0
  -19.7944  -30.7267   24.2252 H   0  0  0  0  0  0
  -17.5026  -31.6265   24.5162 H   0  0  0  0  0  0
  -15.5356  -30.2985   23.7667 H   0  0  0  0  0  0
  -15.8672  -28.0833   22.7051 H   0  0  0  0  0  0
  -24.5898  -30.7084   25.7781 H   0  0  0  0  0  0
  -24.8920  -32.2903   26.4866 H   0  0  0  0  0  0
  -25.8046  -30.8918   27.0228 H   0  0  0  0  0  0
  -26.2914  -29.6765   24.1195 H   0  0  0  0  0  0
  -27.4048  -29.7273   25.4671 H   0  0  0  0  0  0
  -27.8777  -30.4314   23.9391 H   0  0  0  0  0  0
  -27.2659  -33.3625   26.2064 H   0  0  0  0  0  0
  -28.3862  -32.6874   25.0322 H   0  0  0  0  0  0
  -28.0712  -31.8452   26.5417 H   0  0  0  0  0  0
  -28.2593  -38.0099   24.7506 H   0  0  0  0  0  0
  -28.1074  -36.2627   24.6296 H   0  0  0  0  0  0
  -27.2296  -37.1457   25.8869 H   0  0  0  0  0  0
  -20.9365  -29.8773   21.6907 H   0  0  0  0  0  0
  -26.0173  -38.2853   24.1408 H   0  0  0  0  0  0
  -28.2164  -17.5113   22.0110 H   0  0  0  0  0  0
  -31.5971  -17.2697   19.3729 H   0  0  0  0  0  0
  -27.4435  -19.5311   22.8373 H   0  0  0  0  0  0
  -27.1985  -20.6222   21.4784 H   0  0  0  0  0  0
  -28.4258  -20.9780   22.7043 H   0  0  0  0  0  0
  -29.6887  -24.2954   21.4154 H   0  0  0  0  0  0
  -30.1897  -24.3072   19.7510 H   0  0  0  0  0  0
  -27.3002  -24.7303   20.6751 H   0  0  0  0  0  0
  -27.8522  -24.7914   19.0151 H   0  0  0  0  0  0
  -28.9459  -15.3702   21.2826 H   0  0  0  0  0  0
  -28.2161  -22.2031   20.1971 H   0  0  0  0  0  0
  1 25  1  0  0  0
  1 30  2  0  0  0
  1 81  1  0  0  0
  2  3  1  0  0  0
  2 25  1  0  0  0
  2 85  1  0  0  0
  2 86  1  0  0  0
  3  4  1  0  0  0
  3 87  1  0  0  0
  3 88  1  0  0  0
  4  5  1  0  0  0
  4 89  1  0  0  0
  4 90  1  0  0  0
  5  6  1  0  0  0
  5 26  1  0  0  0
  5 91  1  0  0  0
  6 25  1  0  0  0
  6 92  1  0  0  0
  6 93  1  0  0  0
  7  8  2  0  0  0
  7 26  1  0  0  0
  7 29  1  0  0  0
  8  9  1  0  0  0
  8 22  1  0  0  0
  9 10  1  0  0  0
  9 27  2  0  0  0
 10 11  2  0  0  0
 10 15  1  0  0  0
 11 12  1  0  0  0
 11 94  1  0  0  0
 12 13  2  0  0  0
 12 95  1  0  0  0
 13 14  1  0  0  0
 13 31  1  0  0  0
 14 15  2  0  0  0
 14 96  1  0  0  0
 15 97  1  0  0  0
 16 17  2  0  0  0
 16 21  1  0  0  0
 16 31  1  0  0  0
 17 18  1  0  0  0
 17 98  1  0  0  0
 18 19  2  0  0  0
 18 99  1  0  0  0
 19 20  1  0  0  0
 19 24  1  0  0  0
 20 21  2  0  0  0
 20100  1  0  0  0
 21 23  1  0  0  0
 22 28  1  0  0  0
 22 32  2  0  0  0
 26 27  1  0  0  0
 28101  1  0  0  0
 28102  1  0  0  0
 29103  1  0  0  0
 29104  1  0  0  0
 33 34  1  0  0  0
 33 66  1  0  0  0
 33 70  2  0  0  0
 34 36  1  0  0  0
 34 59  1  0  0  0
 34105  1  0  0  0
 35 44  2  0  0  0
 35 45  1  0  0  0
 35 68  1  0  0  0
 36 56  1  0  0  0
 36106  1  0  0  0
 37 39  1  0  0  0
 37 47  1  0  0  0
 37 66  1  0  0  0
 37107  1  0  0  0
 38 43  2  0  0  0
 38 46  1  0  0  0
 38 47  1  0  0  0
 39 64  1  0  0  0
 39 67  2  0  0  0
 40 52  1  0  0  0
 40 53  2  0  0  0
 40 58  1  0  0  0
 41108  1  0  0  0
 41109  1  0  0  0
 41110  1  0  0  0
 41 48  1  0  0  0
 42 43  1  0  0  0
 42 66  1  0  0  0
 42111  1  0  0  0
 42112  1  0  0  0
 43 44  1  0  0  0
 44113  1  0  0  0
 45 46  2  0  0  0
 45114  1  0  0  0
 46115  1  0  0  0
 47116  1  0  0  0
 47117  1  0  0  0
 48 56  1  0  0  0
 48 65  1  0  0  0
 48118  1  0  0  0
 49 50  1  0  0  0
 49 53  1  0  0  0
 49 64  1  0  0  0
 49119  1  0  0  0
 50 51  1  0  0  0
 50120  1  0  0  0
 50121  1  0  0  0
 51 52  1  0  0  0
 51122  1  0  0  0
 51123  1  0  0  0
 52124  1  0  0  0
 52125  1  0  0  0
 53 54  1  0  0  0
 54 55  2  0  0  0
 54126  1  0  0  0
 55 57  1  0  0  0
 55127  1  0  0  0
 56 69  2  0  0  0
 57 58  2  0  0  0
 57128  1  0  0  0
 58129  1  0  0  0
 59 60  1  0  0  0
 59 61  1  0  0  0
 59 62  1  0  0  0
 60130  1  0  0  0
 60131  1  0  0  0
 60132  1  0  0  0
 61133  1  0  0  0
 61134  1  0  0  0
 61135  1  0  0  0
 62136  1  0  0  0
 62137  1  0  0  0
 62138  1  0  0  0
 63 65  1  0  0  0
 63139  1  0  0  0
 63140  1  0  0  0
 63141  1  0  0  0
 64142  1  0  0  0
 65143  1  0  0  0
 68 80  1  0  0  0
 71 74  2  0  0  0
 71 75  1  0  0  0
 71144  1  0  0  0
 72 75  2  0  0  0
 72 76  1  0  0  0
 72145  1  0  0  0
 73 74  1  0  0  0
 73 76  2  0  0  0
 73 77  1  0  0  0
 74 78  1  0  0  0
 75 81  1  0  0  0
 76 84  1  0  0  0
 77 82  1  0  0  0
 77 83  2  0  0  0
 78146  1  0  0  0
 78147  1  0  0  0
 78148  1  0  0  0
 79 80  1  0  0  0
 79 82  1  0  0  0
 79149  1  0  0  0
 79150  1  0  0  0
 80151  1  0  0  0
 80152  1  0  0  0
 81153  1  0  0  0
 82154  1  0  0  0
M  ISO  4   1 100  68 101  80 101  81 100
M  END
> <chiral flag>
0

> <version>
0

> <s_m_source_file>
/data/baiqing/PycharmProjects/Reinvent-master-3.2/result/LINK_invent/BTK/process_docking_weight1_custom_product_contain_oxygen_bond_distance_aromatic_linkinvent_7_9_3/rearranged_h_0056.sdf

> <i_m_source_file_index>
82

> <r_mmod_Potential_Energy-OPLS-2005>
60.3446922302246

> <r_mmod_Stretch_Energy-OPLS-2005>
83.045295715332

> <r_mmod_Bend_Energy-OPLS-2005>
140.287750244141

> <r_mmod_Torsional_Energy-OPLS-2005>
225.857406616211

> <r_mmod_Improper_Torsional_Energy-OPLS-2005>
4.35589647293091

> <r_mmod_Van_der_Waal_Energy-OPLS-2005>
148.778915405273

> <r_mmod_Electrostatic_Energy-OPLS-2005>
-351.594299316406

> <r_mmod_Solvation_Energy-OPLS-2005>
-239.243453979492

> <b_mmod_Minimization_Converged-OPLS-2005>
0

> <r_mmod_RMS_Derivative-OPLS-2005>
0.611391246318817

$$$$
82
                    3D
 Structure written by MMmdl.
161169  0  0  1  0            999 V2000
  -30.6868  -14.4700   20.6010 C   0  0  0  0  0  0
  -30.4276  -12.3196   19.4055 C   0  0  0  0  0  0
  -29.4903  -12.5103   18.1958 C   0  0  0  0  0  0
  -28.0119  -12.3636   18.6116 C   0  0  0  0  0  0
  -27.6579  -13.2014   19.8690 C   0  0  2  0  0  0
  -28.7005  -12.9737   20.9857 C   0  0  0  0  0  0
  -25.2586  -13.8166   20.5647 C   0  0  0  0  0  0
  -24.1833  -13.0452   20.9160 C   0  0  0  0  0  0
  -24.6366  -11.6913   20.8709 C   0  0  0  0  0  0
  -23.9028  -10.4307   21.0381 C   0  0  0  0  0  0
  -24.3597   -9.4230   21.9159 C   0  0  0  0  0  0
  -23.6290   -8.2258   22.0734 C   0  0  0  0  0  0
  -22.4274   -8.0279   21.3529 C   0  0  0  0  0  0
  -21.9893   -9.0246   20.4634 C   0  0  0  0  0  0
  -22.7201  -10.2135   20.3033 C   0  0  0  0  0  0
  -21.6870   -6.0725   22.5264 C   0  0  0  0  0  0
  -21.4032   -6.5631   23.8193 C   0  0  0  0  0  0
  -21.3658   -5.6782   24.9154 C   0  0  0  0  0  0
  -21.6039   -4.3043   24.7206 C   0  0  0  0  0  0
  -21.8833   -3.8135   23.4329 C   0  0  0  0  0  0
  -21.9208   -4.6953   22.3387 C   0  0  0  0  0  0
  -22.7859  -13.5243   21.1837 C   0  0  0  0  0  0
  -22.1673   -4.2137   21.0966 F   0  0  0  0  0  0
  -21.5619   -3.4530   25.7722 F   0  0  0  0  0  0
  -30.0255  -13.2952   20.4283 N   0  0  0  0  0  0
  -26.2998  -12.9311   20.3322 N   0  0  0  0  0  0
  -25.9288  -11.6480   20.5735 N   0  0  0  0  0  0
  -22.0517  -12.8230   22.0404 N   0  0  0  0  0  0
  -25.4341  -15.1880   20.4037 N   0  0  0  0  0  0
  -31.8249  -14.6731   20.1660 O   0  0  0  0  0  0
  -21.6655   -6.8864   21.4225 O   0  0  0  0  0  0
  -22.3529  -14.5542   20.6685 O   0  0  0  0  0  0
  -24.6140  -31.8683   23.2111 C   0  0  0  0  0  0
  -25.9037  -32.4827   23.8403 C   0  0  1  0  0  0
  -27.2341  -27.4370   20.0982 C   0  0  0  0  0  0
  -25.5899  -33.8627   24.2342 N   0  0  0  0  0  0
  -23.4024  -30.4908   21.5517 C   0  0  2  0  0  0
  -24.8502  -28.9523   20.1200 C   0  0  0  0  0  0
  -22.7403  -29.4662   22.5007 C   0  0  0  0  0  0
  -18.0267  -28.1370   22.8499 C   0  0  0  0  0  0
  -24.1489  -36.7321   23.2640 C   0  0  0  0  0  0
  -25.9301  -30.8325   21.3650 C   0  0  0  0  0  0
  -26.0089  -29.4644   20.7189 C   0  0  0  0  0  0
  -27.2064  -28.7121   20.7083 C   0  0  0  0  0  0
  -26.0641  -26.9364   19.4954 C   0  0  0  0  0  0
  -24.8714  -27.6856   19.5080 C   0  0  0  0  0  0
  -23.6118  -29.8203   20.1671 C   0  0  0  0  0  0
  -25.4108  -36.3120   24.0341 C   0  0  1  0  0  0
  -20.5855  -28.3659   23.1329 C   0  0  2  0  0  0
  -20.6759  -26.9399   22.5423 C   0  0  0  0  0  0
  -19.5739  -26.6380   21.5217 C   0  0  0  0  0  0
  -18.1916  -26.7917   22.1624 C   0  0  0  0  0  0
  -19.1515  -28.8829   23.2910 C   0  0  0  0  0  0
  -18.9444  -30.1436   23.8919 C   0  0  0  0  0  0
  -17.6449  -30.6581   24.0567 C   0  0  0  0  0  0
  -25.9032  -34.9483   23.5137 C   0  0  0  0  0  0
  -16.5340  -29.9088   23.6326 C   0  0  0  0  0  0
  -16.7256  -28.6499   23.0355 C   0  0  0  0  0  0
  -26.4470  -31.6599   25.0725 C   0  0  0  0  0  0
  -25.3747  -31.3685   26.1477 C   0  0  0  0  0  0
  -27.0294  -30.3047   24.6081 C   0  0  0  0  0  0
  -27.6054  -32.4309   25.7479 C   0  0  0  0  0  0
  -27.5581  -37.1815   24.8468 C   0  0  0  0  0  0
  -21.4133  -29.3030   22.3743 N   0  0  0  0  0  0
  -26.4298  -37.3800   23.9404 N   0  0  0  0  0  0
  -24.6671  -31.0782   22.1011 N   0  0  0  0  0  0
  -23.4172  -28.8210   23.3059 O   0  0  0  0  0  0
  -28.3951  -26.7020   20.0286 O   0  0  0  0  0  0
  -26.5594  -34.8930   22.4697 O   0  0  0  0  0  0
  -23.5335  -32.1431   23.7511 O   0  0  0  0  0  0
  -31.1416  -18.7507   23.5076 C   0  0  0  0  0  0
  -31.5179  -17.4387   23.8381 C   0  0  0  0  0  0
  -30.3855  -18.9943   22.3478 C   0  0  0  0  0  0
  -31.1334  -16.3722   23.0080 C   0  0  0  0  0  0
  -29.9918  -17.9375   21.4928 C   0  0  0  0  0  0
  -30.3792  -16.6035   21.8342 C   0  0  0  0  0  0
  -28.6999  -23.2087   20.6868 C   0  0  0  0  0  0
  -27.9993  -24.3659   20.7705 C   0  0  0  0  0  0
  -28.0238  -21.9224   20.4875 C   0  0  0  0  0  0
  -30.1175  -21.0315   19.4687 C   0  0  0  0  0  0
  -29.2049  -18.2441   20.2081 C   0  0  0  0  0  0
  -28.5912  -25.7415   21.0720 C   0  0  0  0  0  0
  -28.2499  -19.4859   20.1913 C   0  0  0  0  0  0
  -29.9315  -15.4687   21.1006 N   0  0  0  0  0  0
  -28.8118  -20.8651   20.1270 N   0  0  0  0  0  0
  -26.8164  -21.7746   20.7037 O   0  0  0  0  0  0
  -31.4679  -12.4434   19.0976 H   0  0  0  0  0  0
  -30.3485  -11.3053   19.7992 H   0  0  0  0  0  0
  -29.7312  -11.7892   17.4138 H   0  0  0  0  0  0
  -29.6520  -13.4973   17.7591 H   0  0  0  0  0  0
  -27.8250  -11.3072   18.8077 H   0  0  0  0  0  0
  -27.3591  -12.6367   17.7818 H   0  0  0  0  0  0
  -27.7024  -14.2498   19.5738 H   0  0  0  0  0  0
  -28.6840  -11.9337   21.3138 H   0  0  0  0  0  0
  -28.4588  -13.5610   21.8733 H   0  0  0  0  0  0
  -25.2747   -9.5729   22.4715 H   0  0  0  0  0  0
  -24.0019   -7.4660   22.7454 H   0  0  0  0  0  0
  -21.0819   -8.8745   19.8948 H   0  0  0  0  0  0
  -22.3639  -10.9662   19.6135 H   0  0  0  0  0  0
  -21.2039   -7.6142   23.9691 H   0  0  0  0  0  0
  -21.1460   -6.0510   25.9052 H   0  0  0  0  0  0
  -22.0621   -2.7597   23.2828 H   0  0  0  0  0  0
  -22.4159  -11.9899   22.4785 H   0  0  0  0  0  0
  -21.1124  -13.1221   22.2611 H   0  0  0  0  0  0
  -24.6703  -15.8468   20.5080 H   0  0  0  0  0  0
  -26.2821  -15.6211   20.0627 H   0  0  0  0  0  0
  -26.7111  -32.5544   23.1172 H   0  0  0  0  0  0
  -25.0069  -33.9795   25.0498 H   0  0  0  0  0  0
  -22.6912  -31.3071   21.4120 H   0  0  0  0  0  0
  -23.3748  -35.9660   23.3325 H   0  0  0  0  0  0
  -24.3583  -36.8905   22.2049 H   0  0  0  0  0  0
  -23.7240  -37.6534   23.6636 H   0  0  0  0  0  0
  -26.0397  -31.5960   20.5936 H   0  0  0  0  0  0
  -26.8189  -30.8897   21.9814 H   0  0  0  0  0  0
  -28.1052  -29.1072   21.1594 H   0  0  0  0  0  0
  -26.0803  -25.9722   19.0066 H   0  0  0  0  0  0
  -23.9823  -27.2871   19.0393 H   0  0  0  0  0  0
  -23.7201  -30.5941   19.4062 H   0  0  0  0  0  0
  -22.7365  -29.2398   19.8725 H   0  0  0  0  0  0
  -25.1286  -36.1996   25.0836 H   0  0  0  0  0  0
  -20.9938  -28.3211   24.1452 H   0  0  0  0  0  0
  -20.5669  -26.2262   23.3603 H   0  0  0  0  0  0
  -21.6632  -26.7451   22.1211 H   0  0  0  0  0  0
  -19.6910  -25.6296   21.1234 H   0  0  0  0  0  0
  -19.6681  -27.3203   20.6757 H   0  0  0  0  0  0
  -17.4192  -26.6671   21.4021 H   0  0  0  0  0  0
  -18.0318  -26.0049   22.9007 H   0  0  0  0  0  0
  -19.7921  -30.7241   24.2302 H   0  0  0  0  0  0
  -17.5006  -31.6267   24.5156 H   0  0  0  0  0  0
  -15.5342  -30.2999   23.7631 H   0  0  0  0  0  0
  -15.8651  -28.0820   22.7070 H   0  0  0  0  0  0
  -24.5933  -30.7014   25.7815 H   0  0  0  0  0  0
  -24.8923  -32.2829   26.4943 H   0  0  0  0  0  0
  -25.8114  -30.8847   27.0222 H   0  0  0  0  0  0
  -26.2825  -29.6811   24.1155 H   0  0  0  0  0  0
  -27.4093  -29.7276   25.4521 H   0  0  0  0  0  0
  -27.8654  -30.4374   23.9209 H   0  0  0  0  0  0
  -27.2689  -33.3602   26.2086 H   0  0  0  0  0  0
  -28.3849  -32.6870   25.0292 H   0  0  0  0  0  0
  -28.0746  -31.8410   26.5362 H   0  0  0  0  0  0
  -28.2615  -38.0099   24.7508 H   0  0  0  0  0  0
  -28.1054  -36.2626   24.6304 H   0  0  0  0  0  0
  -27.2297  -37.1488   25.8872 H   0  0  0  0  0  0
  -20.9291  -29.8751   21.6965 H   0  0  0  0  0  0
  -26.0195  -38.2883   24.1392 H   0  0  0  0  0  0
  -31.4287  -19.5738   24.1482 H   0  0  0  0  0  0
  -32.0889  -17.2476   24.7359 H   0  0  0  0  0  0
  -30.1166  -20.0158   22.1358 H   0  0  0  0  0  0
  -31.4063  -15.3661   23.2959 H   0  0  0  0  0  0
  -29.7729  -23.2411   20.8068 H   0  0  0  0  0  0
  -26.9250  -24.3488   20.6470 H   0  0  0  0  0  0
  -30.2962  -20.2654   18.7172 H   0  0  0  0  0  0
  -30.9296  -20.9960   20.1947 H   0  0  0  0  0  0
  -30.1928  -21.9746   18.9246 H   0  0  0  0  0  0
  -28.5692  -17.3809   20.0103 H   0  0  0  0  0  0
  -29.9035  -18.2566   19.3731 H   0  0  0  0  0  0
  -29.6649  -25.6393   21.2329 H   0  0  0  0  0  0
  -28.1768  -26.1067   22.0137 H   0  0  0  0  0  0
  -27.5859  -19.3947   21.0530 H   0  0  0  0  0  0
  -27.6041  -19.3895   19.3166 H   0  0  0  0  0  0
  -28.9524  -15.2493   21.2002 H   0  0  0  0  0  0
  1 25  1  0  0  0
  1 30  2  0  0  0
  1 84  1  0  0  0
  2  3  1  0  0  0
  2 25  1  0  0  0
  2 87  1  0  0  0
  2 88  1  0  0  0
  3  4  1  0  0  0
  3 89  1  0  0  0
  3 90  1  0  0  0
  4  5  1  0  0  0
  4 91  1  0  0  0
  4 92  1  0  0  0
  5  6  1  0  0  0
  5 26  1  0  0  0
  5 93  1  0  0  0
  6 25  1  0  0  0
  6 94  1  0  0  0
  6 95  1  0  0  0
  7  8  2  0  0  0
  7 26  1  0  0  0
  7 29  1  0  0  0
  8  9  1  0  0  0
  8 22  1  0  0  0
  9 10  1  0  0  0
  9 27  2  0  0  0
 10 11  2  0  0  0
 10 15  1  0  0  0
 11 12  1  0  0  0
 11 96  1  0  0  0
 12 13  2  0  0  0
 12 97  1  0  0  0
 13 14  1  0  0  0
 13 31  1  0  0  0
 14 15  2  0  0  0
 14 98  1  0  0  0
 15 99  1  0  0  0
 16 17  2  0  0  0
 16 21  1  0  0  0
 16 31  1  0  0  0
 17 18  1  0  0  0
 17100  1  0  0  0
 18 19  2  0  0  0
 18101  1  0  0  0
 19 20  1  0  0  0
 19 24  1  0  0  0
 20 21  2  0  0  0
 20102  1  0  0  0
 21 23  1  0  0  0
 22 28  1  0  0  0
 22 32  2  0  0  0
 26 27  1  0  0  0
 28103  1  0  0  0
 28104  1  0  0  0
 29105  1  0  0  0
 29106  1  0  0  0
 33 34  1  0  0  0
 33 66  1  0  0  0
 33 70  2  0  0  0
 34 36  1  0  0  0
 34 59  1  0  0  0
 34107  1  0  0  0
 35 44  2  0  0  0
 35 45  1  0  0  0
 35 68  1  0  0  0
 36 56  1  0  0  0
 36108  1  0  0  0
 37 39  1  0  0  0
 37 47  1  0  0  0
 37 66  1  0  0  0
 37109  1  0  0  0
 38 43  2  0  0  0
 38 46  1  0  0  0
 38 47  1  0  0  0
 39 64  1  0  0  0
 39 67  2  0  0  0
 40 52  1  0  0  0
 40 53  2  0  0  0
 40 58  1  0  0  0
 41110  1  0  0  0
 41111  1  0  0  0
 41112  1  0  0  0
 41 48  1  0  0  0
 42 43  1  0  0  0
 42 66  1  0  0  0
 42113  1  0  0  0
 42114  1  0  0  0
 43 44  1  0  0  0
 44115  1  0  0  0
 45 46  2  0  0  0
 45116  1  0  0  0
 46117  1  0  0  0
 47118  1  0  0  0
 47119  1  0  0  0
 48 56  1  0  0  0
 48 65  1  0  0  0
 48120  1  0  0  0
 49 50  1  0  0  0
 49 53  1  0  0  0
 49 64  1  0  0  0
 49121  1  0  0  0
 50 51  1  0  0  0
 50122  1  0  0  0
 50123  1  0  0  0
 51 52  1  0  0  0
 51124  1  0  0  0
 51125  1  0  0  0
 52126  1  0  0  0
 52127  1  0  0  0
 53 54  1  0  0  0
 54 55  2  0  0  0
 54128  1  0  0  0
 55 57  1  0  0  0
 55129  1  0  0  0
 56 69  2  0  0  0
 57 58  2  0  0  0
 57130  1  0  0  0
 58131  1  0  0  0
 59 60  1  0  0  0
 59 61  1  0  0  0
 59 62  1  0  0  0
 60132  1  0  0  0
 60133  1  0  0  0
 60134  1  0  0  0
 61135  1  0  0  0
 61136  1  0  0  0
 61137  1  0  0  0
 62138  1  0  0  0
 62139  1  0  0  0
 62140  1  0  0  0
 63 65  1  0  0  0
 63141  1  0  0  0
 63142  1  0  0  0
 63143  1  0  0  0
 64144  1  0  0  0
 65145  1  0  0  0
 68 82  1  0  0  0
 71 72  2  0  0  0
 71 73  1  0  0  0
 71146  1  0  0  0
 72 74  1  0  0  0
 72147  1  0  0  0
 73 75  2  0  0  0
 73148  1  0  0  0
 74 76  2  0  0  0
 74149  1  0  0  0
 75 76  1  0  0  0
 75 81  1  0  0  0
 76 84  1  0  0  0
 77 78  2  0  0  0
 77 79  1  0  0  0
 77150  1  0  0  0
 78 82  1  0  0  0
 78151  1  0  0  0
 79 85  1  0  0  0
 79 86  2  0  0  0
 80 85  1  0  0  0
 80152  1  0  0  0
 80153  1  0  0  0
 80154  1  0  0  0
 81 83  1  0  0  0
 81155  1  0  0  0
 81156  1  0  0  0
 82157  1  0  0  0
 82158  1  0  0  0
 83 85  1  0  0  0
 83159  1  0  0  0
 83160  1  0  0  0
 84161  1  0  0  0
M  ISO  4   1 100  68 101  82 101  84 100
M  END
> <chiral flag>
0

> <version>
0

> <s_m_source_file>
/data/baiqing/PycharmProjects/Reinvent-master-3.2/result/LINK_invent/BTK/process_docking_weight1_custom_product_contain_oxygen_bond_distance_aromatic_linkinvent_7_9_3/rearranged_h_0056.sdf

> <i_m_source_file_index>
83

> <r_mmod_Potential_Energy-OPLS-2005>
0.378085911273956

> <r_mmod_Stretch_Energy-OPLS-2005>
43.070930480957

> <r_mmod_Bend_Energy-OPLS-2005>
107.766716003418

> <r_mmod_Torsional_Energy-OPLS-2005>
297.156433105469

> <r_mmod_Improper_Torsional_Energy-OPLS-2005>
6.60039043426514

> <r_mmod_Van_der_Waal_Energy-OPLS-2005>
162.934066772461

> <r_mmod_Electrostatic_Energy-OPLS-2005>
-402.870971679688

> <r_mmod_Solvation_Energy-OPLS-2005>
-226.505661010742

> <b_mmod_Minimization_Converged-OPLS-2005>
0

> <r_mmod_RMS_Derivative-OPLS-2005>
1.28613197803497

$$$$
83
                    3D
 Structure written by MMmdl.
165174  0  0  1  0            999 V2000
  -30.7331  -14.4902   20.5403 C   0  0  0  0  0  0
  -30.4190  -12.3131   19.4226 C   0  0  0  0  0  0
  -29.4894  -12.4968   18.2065 C   0  0  0  0  0  0
  -28.0133  -12.3602   18.6292 C   0  0  0  0  0  0
  -27.6604  -13.2150   19.8762 C   0  0  2  0  0  0
  -28.7124  -13.0352   20.9946 C   0  0  0  0  0  0
  -25.2568  -13.8178   20.5695 C   0  0  0  0  0  0
  -24.1849  -13.0432   20.9239 C   0  0  0  0  0  0
  -24.6420  -11.6909   20.8796 C   0  0  0  0  0  0
  -23.9080  -10.4292   21.0422 C   0  0  0  0  0  0
  -24.3639   -9.4178   21.9181 C   0  0  0  0  0  0
  -23.6312   -8.2218   22.0722 C   0  0  0  0  0  0
  -22.4280   -8.0281   21.3519 C   0  0  0  0  0  0
  -21.9947   -9.0252   20.4616 C   0  0  0  0  0  0
  -22.7280  -10.2136   20.3040 C   0  0  0  0  0  0
  -21.6838   -6.0748   22.5264 C   0  0  0  0  0  0
  -21.4004   -6.5630   23.8205 C   0  0  0  0  0  0
  -21.3682   -5.6769   24.9160 C   0  0  0  0  0  0
  -21.6066   -4.3040   24.7196 C   0  0  0  0  0  0
  -21.8825   -3.8139   23.4313 C   0  0  0  0  0  0
  -21.9188   -4.6973   22.3380 C   0  0  0  0  0  0
  -22.7860  -13.5203   21.1881 C   0  0  0  0  0  0
  -22.1637   -4.2155   21.0955 F   0  0  0  0  0  0
  -21.5659   -3.4522   25.7710 F   0  0  0  0  0  0
  -30.0368  -13.3257   20.4184 N   0  0  0  0  0  0
  -26.3041  -12.9371   20.3441 N   0  0  0  0  0  0
  -25.9361  -11.6531   20.5874 N   0  0  0  0  0  0
  -22.0524  -12.8174   22.0441 N   0  0  0  0  0  0
  -25.4231  -15.1896   20.3995 N   0  0  0  0  0  0
  -31.8918  -14.6169   20.1370 O   0  0  0  0  0  0
  -21.6613   -6.8900   21.4234 O   0  0  0  0  0  0
  -22.3528  -14.5497   20.6710 O   0  0  0  0  0  0
  -24.6177  -31.8681   23.2137 C   0  0  0  0  0  0
  -25.9074  -32.4815   23.8383 C   0  0  1  0  0  0
  -27.2119  -27.3934   20.0884 C   0  0  0  0  0  0
  -25.5946  -33.8613   24.2326 N   0  0  0  0  0  0
  -23.4038  -30.5011   21.5565 C   0  0  2  0  0  0
  -24.8446  -28.9781   20.1162 C   0  0  0  0  0  0
  -22.7413  -29.4705   22.4998 C   0  0  0  0  0  0
  -18.0282  -28.1412   22.8495 C   0  0  0  0  0  0
  -24.1519  -36.7285   23.2632 C   0  0  0  0  0  0
  -25.9429  -30.8244   21.3761 C   0  0  0  0  0  0
  -26.0148  -29.4603   20.7148 C   0  0  0  0  0  0
  -27.2007  -28.6737   20.7043 C   0  0  0  0  0  0
  -26.0085  -26.9571   19.4745 C   0  0  0  0  0  0
  -24.8378  -27.7250   19.4964 C   0  0  0  0  0  0
  -23.6109  -29.8489   20.1676 C   0  0  0  0  0  0
  -25.4134  -36.3087   24.0336 C   0  0  1  0  0  0
  -20.5881  -28.3706   23.1316 C   0  0  2  0  0  0
  -20.6819  -26.9455   22.5422 C   0  0  0  0  0  0
  -19.5789  -26.6421   21.5235 C   0  0  0  0  0  0
  -18.1950  -26.7962   22.1617 C   0  0  0  0  0  0
  -19.1531  -28.8870   23.2906 C   0  0  0  0  0  0
  -18.9460  -30.1487   23.8898 C   0  0  0  0  0  0
  -17.6463  -30.6610   24.0572 C   0  0  0  0  0  0
  -25.9049  -34.9466   23.5122 C   0  0  0  0  0  0
  -16.5354  -29.9106   23.6352 C   0  0  0  0  0  0
  -16.7269  -28.6539   23.0347 C   0  0  0  0  0  0
  -26.4515  -31.6562   25.0680 C   0  0  0  0  0  0
  -25.3782  -31.3636   26.1413 C   0  0  0  0  0  0
  -27.0319  -30.2985   24.6053 C   0  0  0  0  0  0
  -27.6095  -32.4278   25.7417 C   0  0  0  0  0  0
  -27.5603  -37.1802   24.8473 C   0  0  0  0  0  0
  -21.4144  -29.3044   22.3695 N   0  0  0  0  0  0
  -26.4314  -37.3778   23.9407 N   0  0  0  0  0  0
  -24.6723  -31.0797   22.1041 N   0  0  0  0  0  0
  -23.4184  -28.8228   23.3034 O   0  0  0  0  0  0
  -28.3575  -26.5908   20.1037 O   0  0  0  0  0  0
  -26.5599  -34.8917   22.4665 O   0  0  0  0  0  0
  -23.5373  -32.1431   23.7538 O   0  0  0  0  0  0
  -29.9299  -18.0365   20.6391 C   0  0  0  0  0  0
  -31.5224  -17.0571   22.1816 C   0  0  0  0  0  0
  -30.2801  -19.3528   21.0562 C   0  0  0  0  0  0
  -31.8721  -18.3421   22.6508 C   0  0  0  0  0  0
  -31.1961  -19.4919   22.1456 C   0  0  0  0  0  0
  -30.5142  -16.8820   21.2157 C   0  0  0  0  0  0
  -31.6831  -23.6371   19.7422 C   0  0  0  0  0  0
  -30.7289  -24.5752   19.5765 C   0  0  0  0  0  0
  -31.3612  -22.2088   19.8623 C   0  0  0  0  0  0
  -29.0808  -22.9862   20.5071 C   0  0  0  0  0  0
  -29.2844  -24.1701   19.5286 C   0  0  1  0  0  0
  -31.4112  -20.8397   22.8321 C   0  0  0  0  0  0
  -29.5564  -20.5214   20.3298 C   0  0  0  0  0  0
  -28.2003  -25.2847   19.4979 C   0  0  0  0  0  0
  -32.9444  -18.4347   23.7432 C   0  0  0  0  0  0
  -30.0947  -21.9144   20.2854 N   0  0  0  0  0  0
  -30.0160  -15.5721   20.9129 N   0  0  0  0  0  0
  -32.1867  -21.3357   19.5874 O   0  0  0  0  0  0
  -33.7094  -17.3420   23.7674 F   0  0  0  0  0  0
  -33.7590  -19.4742   23.5524 F   0  0  0  0  0  0
  -32.3603  -18.5535   24.9364 F   0  0  0  0  0  0
  -31.4632  -12.3970   19.1193 H   0  0  0  0  0  0
  -30.3093  -11.3114   19.8409 H   0  0  0  0  0  0
  -29.7234  -11.7612   17.4347 H   0  0  0  0  0  0
  -29.6571  -13.4761   17.7559 H   0  0  0  0  0  0
  -27.8313  -11.3059   18.8411 H   0  0  0  0  0  0
  -27.3527  -12.6143   17.8007 H   0  0  0  0  0  0
  -27.6939  -14.2582   19.5635 H   0  0  0  0  0  0
  -28.6951  -12.0131   21.3772 H   0  0  0  0  0  0
  -28.4932  -13.6762   21.8497 H   0  0  0  0  0  0
  -25.2799   -9.5630   22.4753 H   0  0  0  0  0  0
  -24.0015   -7.4589   22.7411 H   0  0  0  0  0  0
  -21.0893   -8.8800   19.8906 H   0  0  0  0  0  0
  -22.3767  -10.9686   19.6143 H   0  0  0  0  0  0
  -21.1971   -7.6130   23.9729 H   0  0  0  0  0  0
  -21.1515   -6.0476   25.9073 H   0  0  0  0  0  0
  -22.0598   -2.7602   23.2786 H   0  0  0  0  0  0
  -22.4133  -11.9827   22.4823 H   0  0  0  0  0  0
  -21.1138  -13.1164   22.2656 H   0  0  0  0  0  0
  -24.6511  -15.8421   20.4857 H   0  0  0  0  0  0
  -26.2595  -15.6221   20.0283 H   0  0  0  0  0  0
  -26.7129  -32.5527   23.1124 H   0  0  0  0  0  0
  -25.0179  -33.9789   25.0530 H   0  0  0  0  0  0
  -22.6915  -31.3192   21.4265 H   0  0  0  0  0  0
  -23.3802  -35.9607   23.3291 H   0  0  0  0  0  0
  -24.3620  -36.8875   22.2046 H   0  0  0  0  0  0
  -23.7257  -37.6482   23.6644 H   0  0  0  0  0  0
  -26.0760  -31.5978   20.6174 H   0  0  0  0  0  0
  -26.8218  -30.8584   22.0092 H   0  0  0  0  0  0
  -28.0968  -29.0405   21.1831 H   0  0  0  0  0  0
  -25.9129  -26.0137   18.9605 H   0  0  0  0  0  0
  -23.9377  -27.3503   19.0275 H   0  0  0  0  0  0
  -23.7185  -30.6275   19.4105 H   0  0  0  0  0  0
  -22.7330  -29.2724   19.8714 H   0  0  0  0  0  0
  -25.1332  -36.1929   25.0836 H   0  0  0  0  0  0
  -20.9977  -28.3312   24.1440 H   0  0  0  0  0  0
  -20.5829  -26.2321   23.3610 H   0  0  0  0  0  0
  -21.6681  -26.7600   22.1150 H   0  0  0  0  0  0
  -19.6970  -25.6337   21.1258 H   0  0  0  0  0  0
  -19.6720  -27.3249   20.6773 H   0  0  0  0  0  0
  -17.4251  -26.6725   21.3987 H   0  0  0  0  0  0
  -18.0335  -26.0095   22.8997 H   0  0  0  0  0  0
  -19.7928  -30.7322   24.2261 H   0  0  0  0  0  0
  -17.5007  -31.6280   24.5185 H   0  0  0  0  0  0
  -15.5362  -30.3005   23.7684 H   0  0  0  0  0  0
  -15.8670  -28.0864   22.7053 H   0  0  0  0  0  0
  -24.6050  -30.6873   25.7751 H   0  0  0  0  0  0
  -24.8878  -32.2756   26.4804 H   0  0  0  0  0  0
  -25.8141  -30.8871   27.0187 H   0  0  0  0  0  0
  -26.2809  -29.6731   24.1204 H   0  0  0  0  0  0
  -27.4161  -29.7242   25.4487 H   0  0  0  0  0  0
  -27.8641  -30.4270   23.9124 H   0  0  0  0  0  0
  -27.2737  -33.3616   26.1930 H   0  0  0  0  0  0
  -28.3900  -32.6743   25.0210 H   0  0  0  0  0  0
  -28.0747  -31.8414   26.5345 H   0  0  0  0  0  0
  -28.2639  -38.0104   24.7547 H   0  0  0  0  0  0
  -28.1082  -36.2621   24.6266 H   0  0  0  0  0  0
  -27.2313  -37.1409   25.8882 H   0  0  0  0  0  0
  -20.9336  -29.8669   21.6811 H   0  0  0  0  0  0
  -26.0191  -38.2850   24.1417 H   0  0  0  0  0  0
  -29.1809  -17.9122   19.8694 H   0  0  0  0  0  0
  -31.9959  -16.1890   22.6190 H   0  0  0  0  0  0
  -32.7166  -23.9456   19.7617 H   0  0  0  0  0  0
  -30.9822  -25.6218   19.4736 H   0  0  0  0  0  0
  -28.0680  -22.6028   20.3849 H   0  0  0  0  0  0
  -29.1579  -23.3374   21.5368 H   0  0  0  0  0  0
  -29.1802  -23.7105   18.5426 H   0  0  0  0  0  0
  -32.2337  -21.3996   22.3863 H   0  0  0  0  0  0
  -31.6343  -20.7205   23.8905 H   0  0  0  0  0  0
  -30.5110  -21.4471   22.8022 H   0  0  0  0  0  0
  -28.5432  -20.5252   20.7316 H   0  0  0  0  0  0
  -29.4372  -20.2258   19.2859 H   0  0  0  0  0  0
  -27.3131  -24.8029   19.9112 H   0  0  0  0  0  0
  -27.9987  -25.4746   18.4403 H   0  0  0  0  0  0
  -29.0216  -15.4337   21.0171 H   0  0  0  0  0  0
  1 25  1  0  0  0
  1 30  2  0  0  0
  1 87  1  0  0  0
  2  3  1  0  0  0
  2 25  1  0  0  0
  2 92  1  0  0  0
  2 93  1  0  0  0
  3  4  1  0  0  0
  3 94  1  0  0  0
  3 95  1  0  0  0
  4  5  1  0  0  0
  4 96  1  0  0  0
  4 97  1  0  0  0
  5  6  1  0  0  0
  5 26  1  0  0  0
  5 98  1  0  0  0
  6 25  1  0  0  0
  6 99  1  0  0  0
  6100  1  0  0  0
  7  8  2  0  0  0
  7 26  1  0  0  0
  7 29  1  0  0  0
  8  9  1  0  0  0
  8 22  1  0  0  0
  9 10  1  0  0  0
  9 27  2  0  0  0
 10 11  2  0  0  0
 10 15  1  0  0  0
 11 12  1  0  0  0
 11101  1  0  0  0
 12 13  2  0  0  0
 12102  1  0  0  0
 13 14  1  0  0  0
 13 31  1  0  0  0
 14 15  2  0  0  0
 14103  1  0  0  0
 15104  1  0  0  0
 16 17  2  0  0  0
 16 21  1  0  0  0
 16 31  1  0  0  0
 17 18  1  0  0  0
 17105  1  0  0  0
 18 19  2  0  0  0
 18106  1  0  0  0
 19 20  1  0  0  0
 19 24  1  0  0  0
 20 21  2  0  0  0
 20107  1  0  0  0
 21 23  1  0  0  0
 22 28  1  0  0  0
 22 32  2  0  0  0
 26 27  1  0  0  0
 28108  1  0  0  0
 28109  1  0  0  0
 29110  1  0  0  0
 29111  1  0  0  0
 33 34  1  0  0  0
 33 66  1  0  0  0
 33 70  2  0  0  0
 34 36  1  0  0  0
 34 59  1  0  0  0
 34112  1  0  0  0
 35 44  2  0  0  0
 35 45  1  0  0  0
 35 68  1  0  0  0
 36 56  1  0  0  0
 36113  1  0  0  0
 37 39  1  0  0  0
 37 47  1  0  0  0
 37 66  1  0  0  0
 37114  1  0  0  0
 38 43  2  0  0  0
 38 46  1  0  0  0
 38 47  1  0  0  0
 39 64  1  0  0  0
 39 67  2  0  0  0
 40 52  1  0  0  0
 40 53  2  0  0  0
 40 58  1  0  0  0
 41115  1  0  0  0
 41116  1  0  0  0
 41117  1  0  0  0
 41 48  1  0  0  0
 42 43  1  0  0  0
 42 66  1  0  0  0
 42118  1  0  0  0
 42119  1  0  0  0
 43 44  1  0  0  0
 44120  1  0  0  0
 45 46  2  0  0  0
 45121  1  0  0  0
 46122  1  0  0  0
 47123  1  0  0  0
 47124  1  0  0  0
 48 56  1  0  0  0
 48 65  1  0  0  0
 48125  1  0  0  0
 49 50  1  0  0  0
 49 53  1  0  0  0
 49 64  1  0  0  0
 49126  1  0  0  0
 50 51  1  0  0  0
 50127  1  0  0  0
 50128  1  0  0  0
 51 52  1  0  0  0
 51129  1  0  0  0
 51130  1  0  0  0
 52131  1  0  0  0
 52132  1  0  0  0
 53 54  1  0  0  0
 54 55  2  0  0  0
 54133  1  0  0  0
 55 57  1  0  0  0
 55134  1  0  0  0
 56 69  2  0  0  0
 57 58  2  0  0  0
 57135  1  0  0  0
 58136  1  0  0  0
 59 60  1  0  0  0
 59 61  1  0  0  0
 59 62  1  0  0  0
 60137  1  0  0  0
 60138  1  0  0  0
 60139  1  0  0  0
 61140  1  0  0  0
 61141  1  0  0  0
 61142  1  0  0  0
 62143  1  0  0  0
 62144  1  0  0  0
 62145  1  0  0  0
 63 65  1  0  0  0
 63146  1  0  0  0
 63147  1  0  0  0
 63148  1  0  0  0
 64149  1  0  0  0
 65150  1  0  0  0
 68 84  1  0  0  0
 71 73  2  0  0  0
 71 76  1  0  0  0
 71151  1  0  0  0
 72 74  1  0  0  0
 72 76  2  0  0  0
 72152  1  0  0  0
 73 75  1  0  0  0
 73 83  1  0  0  0
 74 75  2  0  0  0
 74 85  1  0  0  0
 75 82  1  0  0  0
 76 87  1  0  0  0
 77 78  2  0  0  0
 77 79  1  0  0  0
 77153  1  0  0  0
 78 81  1  0  0  0
 78154  1  0  0  0
 79 86  1  0  0  0
 79 88  2  0  0  0
 80 81  1  0  0  0
 80 86  1  0  0  0
 80155  1  0  0  0
 80156  1  0  0  0
 81 84  1  0  0  0
 81157  1  0  0  0
 82158  1  0  0  0
 82159  1  0  0  0
 82160  1  0  0  0
 83 86  1  0  0  0
 83161  1  0  0  0
 83162  1  0  0  0
 84163  1  0  0  0
 84164  1  0  0  0
 85 89  1  0  0  0
 85 90  1  0  0  0
 85 91  1  0  0  0
 87165  1  0  0  0
M  ISO  4   1 100  68 101  84 101  87 100
M  END
> <chiral flag>
0

> <version>
0

> <s_m_source_file>
/data/baiqing/PycharmProjects/Reinvent-master-3.2/result/LINK_invent/BTK/process_docking_weight1_custom_product_contain_oxygen_bond_distance_aromatic_linkinvent_7_9_3/rearranged_h_0056.sdf

> <i_m_source_file_index>
84

> <r_mmod_Potential_Energy-OPLS-2005>
123.835647583008

> <r_mmod_Stretch_Energy-OPLS-2005>
55.8225288391113

> <r_mmod_Bend_Energy-OPLS-2005>
146.584136962891

> <r_mmod_Torsional_Energy-OPLS-2005>
256.810852050781

> <r_mmod_Improper_Torsional_Energy-OPLS-2005>
6.11209106445312

> <r_mmod_Van_der_Waal_Energy-OPLS-2005>
195.738372802734

> <r_mmod_Electrostatic_Energy-OPLS-2005>
-329.581756591797

> <r_mmod_Solvation_Energy-OPLS-2005>
-229.383941650391

> <b_mmod_Minimization_Converged-OPLS-2005>
0

> <r_mmod_RMS_Derivative-OPLS-2005>
4.12246465682983

$$$$
84
                    3D
 Structure written by MMmdl.
164172  0  0  1  0            999 V2000
  -30.6935  -14.4883   20.4961 C   0  0  0  0  0  0
  -30.4162  -12.2942   19.4429 C   0  0  0  0  0  0
  -29.4974  -12.4789   18.2165 C   0  0  0  0  0  0
  -28.0171  -12.3490   18.6239 C   0  0  0  0  0  0
  -27.6561  -13.2081   19.8663 C   0  0  2  0  0  0
  -28.6974  -13.0314   20.9965 C   0  0  0  0  0  0
  -25.2581  -13.8166   20.5681 C   0  0  0  0  0  0
  -24.1829  -13.0447   20.9178 C   0  0  0  0  0  0
  -24.6378  -11.6909   20.8730 C   0  0  0  0  0  0
  -23.9041  -10.4298   21.0408 C   0  0  0  0  0  0
  -24.3602   -9.4217   21.9186 C   0  0  0  0  0  0
  -23.6286   -8.2248   22.0751 C   0  0  0  0  0  0
  -22.4270   -8.0286   21.3541 C   0  0  0  0  0  0
  -21.9892   -9.0257   20.4646 C   0  0  0  0  0  0
  -22.7214  -10.2142   20.3055 C   0  0  0  0  0  0
  -21.6852   -6.0736   22.5275 C   0  0  0  0  0  0
  -21.4016   -6.5635   23.8214 C   0  0  0  0  0  0
  -21.3656   -5.6787   24.9172 C   0  0  0  0  0  0
  -21.6045   -4.3051   24.7220 C   0  0  0  0  0  0
  -21.8824   -3.8142   23.4341 C   0  0  0  0  0  0
  -21.9190   -4.6956   22.3399 C   0  0  0  0  0  0
  -22.7863  -13.5257   21.1848 C   0  0  0  0  0  0
  -22.1665   -4.2145   21.0974 F   0  0  0  0  0  0
  -21.5619   -3.4532   25.7734 F   0  0  0  0  0  0
  -30.0296  -13.3044   20.4391 N   0  0  0  0  0  0
  -26.2994  -12.9330   20.3325 N   0  0  0  0  0  0
  -25.9304  -11.6489   20.5752 N   0  0  0  0  0  0
  -22.0494  -12.8260   22.0399 N   0  0  0  0  0  0
  -25.4346  -15.1885   20.4115 N   0  0  0  0  0  0
  -31.8697  -14.6121   20.1453 O   0  0  0  0  0  0
  -21.6643   -6.8879   21.4241 O   0  0  0  0  0  0
  -22.3559  -14.5568   20.6694 O   0  0  0  0  0  0
  -24.6151  -31.8677   23.2098 C   0  0  0  0  0  0
  -25.9046  -32.4817   23.8394 C   0  0  1  0  0  0
  -27.2348  -27.4267   20.1017 C   0  0  0  0  0  0
  -25.5901  -33.8614   24.2323 N   0  0  0  0  0  0
  -23.4024  -30.4914   21.5518 C   0  0  2  0  0  0
  -24.8472  -28.9575   20.1170 C   0  0  0  0  0  0
  -22.7409  -29.4653   22.4992 C   0  0  0  0  0  0
  -18.0273  -28.1378   22.8489 C   0  0  0  0  0  0
  -24.1491  -36.7317   23.2640 C   0  0  0  0  0  0
  -25.9320  -30.8334   21.3622 C   0  0  0  0  0  0
  -26.0089  -29.4679   20.7082 C   0  0  0  0  0  0
  -27.2042  -28.7123   20.6923 C   0  0  0  0  0  0
  -26.0479  -26.9305   19.5105 C   0  0  0  0  0  0
  -24.8623  -27.6886   19.5151 C   0  0  0  0  0  0
  -23.6097  -29.8245   20.1660 C   0  0  0  0  0  0
  -25.4108  -36.3106   24.0337 C   0  0  1  0  0  0
  -20.5861  -28.3662   23.1313 C   0  0  2  0  0  0
  -20.6763  -26.9401   22.5415 C   0  0  0  0  0  0
  -19.5744  -26.6380   21.5213 C   0  0  0  0  0  0
  -18.1921  -26.7923   22.1625 C   0  0  0  0  0  0
  -19.1525  -28.8835   23.2898 C   0  0  0  0  0  0
  -18.9450  -30.1445   23.8907 C   0  0  0  0  0  0
  -17.6454  -30.6583   24.0562 C   0  0  0  0  0  0
  -25.9031  -34.9469   23.5127 C   0  0  0  0  0  0
  -16.5345  -29.9084   23.6326 C   0  0  0  0  0  0
  -16.7265  -28.6502   23.0341 C   0  0  0  0  0  0
  -26.4469  -31.6600   25.0725 C   0  0  0  0  0  0
  -25.3742  -31.3725   26.1485 C   0  0  0  0  0  0
  -27.0290  -30.3038   24.6105 C   0  0  0  0  0  0
  -27.6047  -32.4320   25.7477 C   0  0  0  0  0  0
  -27.5572  -37.1823   24.8468 C   0  0  0  0  0  0
  -21.4136  -29.3028   22.3724 N   0  0  0  0  0  0
  -26.4299  -37.3781   23.9391 N   0  0  0  0  0  0
  -24.6684  -31.0779   22.0999 N   0  0  0  0  0  0
  -23.4175  -28.8193   23.3034 O   0  0  0  0  0  0
  -28.4179  -26.7088   20.1199 O   0  0  0  0  0  0
  -26.5595  -34.8920   22.4688 O   0  0  0  0  0  0
  -23.5348  -32.1425   23.7499 O   0  0  0  0  0  0
  -29.4979  -18.0186   20.3594 C   0  0  0  0  0  0
  -29.9412  -19.0421   18.1787 C   0  0  0  0  0  0
  -30.4171  -16.6861   18.5292 C   0  0  0  0  0  0
  -29.4826  -19.1580   19.5060 C   0  0  0  0  0  0
  -29.9690  -16.7641   19.8755 C   0  0  0  0  0  0
  -30.4075  -17.8138   17.6925 C   0  0  0  0  0  0
  -28.6137  -23.0184   23.7869 C   0  0  0  0  0  0
  -29.5184  -22.6542   22.8668 C   0  0  0  0  0  0
  -29.7369  -24.6532   20.0162 C   0  0  0  0  0  0
  -28.9847  -20.4775   19.9142 C   0  0  0  0  0  0
  -30.1373  -23.4999   20.6035 C   0  0  0  0  0  0
  -31.5957  -23.0715   20.4905 C   0  0  0  0  0  0
  -28.3506  -25.2829   19.9670 C   0  0  0  0  0  0
  -29.2277  -22.5353   21.3836 C   0  0  1  0  0  0
  -28.0590  -21.0718   19.1619 N   0  0  0  0  0  0
  -29.9271  -15.5824   20.6977 N   0  0  0  0  0  0
  -29.4791  -21.1317   20.9781 N   0  3  0  0  0  0
  -30.8375  -17.7142   16.4119 F   0  0  0  0  0  0
  -31.4637  -12.3734   19.1463 H   0  0  0  0  0  0
  -30.3008  -11.2941   19.8635 H   0  0  0  0  0  0
  -29.7374  -11.7359   17.4548 H   0  0  0  0  0  0
  -29.6704  -13.4544   17.7581 H   0  0  0  0  0  0
  -27.8303  -11.2948   18.8359 H   0  0  0  0  0  0
  -27.3715  -12.6085   17.7842 H   0  0  0  0  0  0
  -27.6867  -14.2476   19.5404 H   0  0  0  0  0  0
  -28.6667  -12.0137   21.3890 H   0  0  0  0  0  0
  -28.4727  -13.6852   21.8409 H   0  0  0  0  0  0
  -25.2747   -9.5685   22.4759 H   0  0  0  0  0  0
  -23.9995   -7.4630   22.7457 H   0  0  0  0  0  0
  -21.0823   -8.8766   19.8949 H   0  0  0  0  0  0
  -22.3670  -10.9678   19.6152 H   0  0  0  0  0  0
  -21.2024   -7.6146   23.9717 H   0  0  0  0  0  0
  -21.1467   -6.0519   25.9075 H   0  0  0  0  0  0
  -22.0605   -2.7598   23.2854 H   0  0  0  0  0  0
  -22.4097  -11.9915   22.4787 H   0  0  0  0  0  0
  -21.1109  -13.1291   22.2587 H   0  0  0  0  0  0
  -24.6734  -15.8502   20.5243 H   0  0  0  0  0  0
  -26.2886  -15.6208   20.0835 H   0  0  0  0  0  0
  -26.7113  -32.5525   23.1156 H   0  0  0  0  0  0
  -25.0058  -33.9775   25.0475 H   0  0  0  0  0  0
  -22.6927  -31.3094   21.4137 H   0  0  0  0  0  0
  -23.3724  -35.9682   23.3354 H   0  0  0  0  0  0
  -24.3574  -36.8880   22.2042 H   0  0  0  0  0  0
  -23.7286  -37.6555   23.6621 H   0  0  0  0  0  0
  -26.0451  -31.6016   20.5956 H   0  0  0  0  0  0
  -26.8189  -30.8851   21.9815 H   0  0  0  0  0  0
  -28.1022  -29.1056   21.1480 H   0  0  0  0  0  0
  -26.0096  -25.9621   19.0358 H   0  0  0  0  0  0
  -23.9680  -27.2873   19.0590 H   0  0  0  0  0  0
  -23.7171  -30.5998   19.4071 H   0  0  0  0  0  0
  -22.7329  -29.2454   19.8700 H   0  0  0  0  0  0
  -25.1290  -36.1976   25.0833 H   0  0  0  0  0  0
  -20.9952  -28.3230   24.1435 H   0  0  0  0  0  0
  -20.5676  -26.2266   23.3596 H   0  0  0  0  0  0
  -21.6635  -26.7446   22.1207 H   0  0  0  0  0  0
  -19.6904  -25.6297   21.1229 H   0  0  0  0  0  0
  -19.6677  -27.3198   20.6753 H   0  0  0  0  0  0
  -17.4187  -26.6664   21.4033 H   0  0  0  0  0  0
  -18.0324  -26.0066   22.9019 H   0  0  0  0  0  0
  -19.7926  -30.7259   24.2272 H   0  0  0  0  0  0
  -17.5009  -31.6264   24.5164 H   0  0  0  0  0  0
  -15.5347  -30.2987   23.7649 H   0  0  0  0  0  0
  -15.8663  -28.0832   22.7042 H   0  0  0  0  0  0
  -24.5876  -30.7116   25.7828 H   0  0  0  0  0  0
  -24.8987  -32.2898   26.4968 H   0  0  0  0  0  0
  -25.8097  -30.8855   27.0220 H   0  0  0  0  0  0
  -26.2830  -29.6807   24.1157 H   0  0  0  0  0  0
  -27.4052  -29.7270   25.4566 H   0  0  0  0  0  0
  -27.8671  -30.4355   23.9256 H   0  0  0  0  0  0
  -27.2665  -33.3604   26.2091 H   0  0  0  0  0  0
  -28.3829  -32.6910   25.0285 H   0  0  0  0  0  0
  -28.0743  -31.8426   26.5363 H   0  0  0  0  0  0
  -28.2634  -38.0075   24.7449 H   0  0  0  0  0  0
  -28.1023  -36.2607   24.6374 H   0  0  0  0  0  0
  -27.2281  -37.1570   25.8871 H   0  0  0  0  0  0
  -20.9291  -29.8755   21.6955 H   0  0  0  0  0  0
  -26.0192  -38.2869   24.1350 H   0  0  0  0  0  0
  -29.1289  -18.1085   21.3723 H   0  0  0  0  0  0
  -29.9381  -19.8986   17.5179 H   0  0  0  0  0  0
  -30.7621  -15.7582   18.0991 H   0  0  0  0  0  0
  -28.8834  -23.0912   24.8312 H   0  0  0  0  0  0
  -27.5943  -23.2502   23.5150 H   0  0  0  0  0  0
  -30.5274  -22.4358   23.1886 H   0  0  0  0  0  0
  -30.4793  -25.2275   19.4814 H   0  0  0  0  0  0
  -32.1985  -23.8246   19.9828 H   0  0  0  0  0  0
  -31.6900  -22.1453   19.9229 H   0  0  0  0  0  0
  -32.0330  -22.9137   21.4758 H   0  0  0  0  0  0
  -27.6972  -24.8565   20.7289 H   0  0  0  0  0  0
  -27.9428  -25.0323   18.9873 H   0  0  0  0  0  0
  -28.1775  -22.7809   21.2227 H   0  0  0  0  0  0
  -27.6694  -20.5758   18.3745 H   0  0  0  0  0  0
  -27.6628  -21.9623   19.4016 H   0  0  0  0  0  0
  -29.0755  -15.4340   21.2173 H   0  0  0  0  0  0
  -30.1692  -20.6300   21.5218 H   0  0  0  0  0  0
  1 25  1  0  0  0
  1 30  2  0  0  0
  1 86  1  0  0  0
  2  3  1  0  0  0
  2 25  1  0  0  0
  2 89  1  0  0  0
  2 90  1  0  0  0
  3  4  1  0  0  0
  3 91  1  0  0  0
  3 92  1  0  0  0
  4  5  1  0  0  0
  4 93  1  0  0  0
  4 94  1  0  0  0
  5  6  1  0  0  0
  5 26  1  0  0  0
  5 95  1  0  0  0
  6 25  1  0  0  0
  6 96  1  0  0  0
  6 97  1  0  0  0
  7  8  2  0  0  0
  7 26  1  0  0  0
  7 29  1  0  0  0
  8  9  1  0  0  0
  8 22  1  0  0  0
  9 10  1  0  0  0
  9 27  2  0  0  0
 10 11  2  0  0  0
 10 15  1  0  0  0
 11 12  1  0  0  0
 11 98  1  0  0  0
 12 13  2  0  0  0
 12 99  1  0  0  0
 13 14  1  0  0  0
 13 31  1  0  0  0
 14 15  2  0  0  0
 14100  1  0  0  0
 15101  1  0  0  0
 16 17  2  0  0  0
 16 21  1  0  0  0
 16 31  1  0  0  0
 17 18  1  0  0  0
 17102  1  0  0  0
 18 19  2  0  0  0
 18103  1  0  0  0
 19 20  1  0  0  0
 19 24  1  0  0  0
 20 21  2  0  0  0
 20104  1  0  0  0
 21 23  1  0  0  0
 22 28  1  0  0  0
 22 32  2  0  0  0
 26 27  1  0  0  0
 28105  1  0  0  0
 28106  1  0  0  0
 29107  1  0  0  0
 29108  1  0  0  0
 33 34  1  0  0  0
 33 66  1  0  0  0
 33 70  2  0  0  0
 34 36  1  0  0  0
 34 59  1  0  0  0
 34109  1  0  0  0
 35 44  2  0  0  0
 35 45  1  0  0  0
 35 68  1  0  0  0
 36 56  1  0  0  0
 36110  1  0  0  0
 37 39  1  0  0  0
 37 47  1  0  0  0
 37 66  1  0  0  0
 37111  1  0  0  0
 38 43  2  0  0  0
 38 46  1  0  0  0
 38 47  1  0  0  0
 39 64  1  0  0  0
 39 67  2  0  0  0
 40 52  1  0  0  0
 40 53  2  0  0  0
 40 58  1  0  0  0
 41112  1  0  0  0
 41113  1  0  0  0
 41114  1  0  0  0
 41 48  1  0  0  0
 42 43  1  0  0  0
 42 66  1  0  0  0
 42115  1  0  0  0
 42116  1  0  0  0
 43 44  1  0  0  0
 44117  1  0  0  0
 45 46  2  0  0  0
 45118  1  0  0  0
 46119  1  0  0  0
 47120  1  0  0  0
 47121  1  0  0  0
 48 56  1  0  0  0
 48 65  1  0  0  0
 48122  1  0  0  0
 49 50  1  0  0  0
 49 53  1  0  0  0
 49 64  1  0  0  0
 49123  1  0  0  0
 50 51  1  0  0  0
 50124  1  0  0  0
 50125  1  0  0  0
 51 52  1  0  0  0
 51126  1  0  0  0
 51127  1  0  0  0
 52128  1  0  0  0
 52129  1  0  0  0
 53 54  1  0  0  0
 54 55  2  0  0  0
 54130  1  0  0  0
 55 57  1  0  0  0
 55131  1  0  0  0
 56 69  2  0  0  0
 57 58  2  0  0  0
 57132  1  0  0  0
 58133  1  0  0  0
 59 60  1  0  0  0
 59 61  1  0  0  0
 59 62  1  0  0  0
 60134  1  0  0  0
 60135  1  0  0  0
 60136  1  0  0  0
 61137  1  0  0  0
 61138  1  0  0  0
 61139  1  0  0  0
 62140  1  0  0  0
 62141  1  0  0  0
 62142  1  0  0  0
 63 65  1  0  0  0
 63143  1  0  0  0
 63144  1  0  0  0
 63145  1  0  0  0
 64146  1  0  0  0
 65147  1  0  0  0
 68 83  1  0  0  0
 71 74  2  0  0  0
 71 75  1  0  0  0
 71148  1  0  0  0
 72 74  1  0  0  0
 72 76  2  0  0  0
 72149  1  0  0  0
 73 75  2  0  0  0
 73 76  1  0  0  0
 73150  1  0  0  0
 74 80  1  0  0  0
 75 86  1  0  0  0
 76 88  1  0  0  0
 77 78  2  0  0  0
 77151  1  0  0  0
 77152  1  0  0  0
 78153  1  0  0  0
 78 84  1  0  0  0
 79 81  2  0  0  0
 79 83  1  0  0  0
 79154  1  0  0  0
 80 85  1  0  0  0
 80 87  2  0  0  0
 81 82  1  0  0  0
 81 84  1  0  0  0
 82155  1  0  0  0
 82156  1  0  0  0
 82157  1  0  0  0
 83158  1  0  0  0
 83159  1  0  0  0
 84 87  1  0  0  0
 84160  1  0  0  0
 85161  1  0  0  0
 85162  1  0  0  0
 86163  1  0  0  0
 87164  1  0  0  0
M  CHG  1  87   1
M  ISO  4   1 100  68 101  83 101  86 100
M  END
> <chiral flag>
0

> <version>
0

> <s_m_source_file>
/data/baiqing/PycharmProjects/Reinvent-master-3.2/result/LINK_invent/BTK/process_docking_weight1_custom_product_contain_oxygen_bond_distance_aromatic_linkinvent_7_9_3/rearranged_h_0056.sdf

> <i_m_source_file_index>
85

> <r_mmod_Potential_Energy-OPLS-2005>
-356.218139648438

> <r_mmod_Stretch_Energy-OPLS-2005>
39.6240921020508

> <r_mmod_Bend_Energy-OPLS-2005>
100.62744140625

> <r_mmod_Torsional_Energy-OPLS-2005>
227.324523925781

> <r_mmod_Improper_Torsional_Energy-OPLS-2005>
8.31797695159912

> <r_mmod_Van_der_Waal_Energy-OPLS-2005>
157.074172973633

> <r_mmod_Electrostatic_Energy-OPLS-2005>
-488.215545654297

> <r_mmod_Solvation_Energy-OPLS-2005>
-419.198760986328

> <b_mmod_Minimization_Converged-OPLS-2005>
0

> <r_mmod_RMS_Derivative-OPLS-2005>
1.488236784935

$$$$
85
                    3D
 Structure written by MMmdl.
166174  0  0  1  0            999 V2000
  -30.7131  -14.4129   20.6379 C   0  0  0  0  0  0
  -30.4291  -12.2952   19.4032 C   0  0  0  0  0  0
  -29.4960  -12.5347   18.1987 C   0  0  0  0  0  0
  -28.0151  -12.3949   18.6067 C   0  0  0  0  0  0
  -27.6704  -13.2028   19.8854 C   0  0  2  0  0  0
  -28.7075  -12.9241   20.9953 C   0  0  0  0  0  0
  -25.2624  -13.8155   20.5676 C   0  0  0  0  0  0
  -24.1860  -13.0440   20.9159 C   0  0  0  0  0  0
  -24.6404  -11.6906   20.8717 C   0  0  0  0  0  0
  -23.9066  -10.4293   21.0398 C   0  0  0  0  0  0
  -24.3616   -9.4209   21.9180 C   0  0  0  0  0  0
  -23.6290   -8.2245   22.0747 C   0  0  0  0  0  0
  -22.4275   -8.0282   21.3538 C   0  0  0  0  0  0
  -21.9910   -9.0260   20.4642 C   0  0  0  0  0  0
  -22.7239  -10.2138   20.3047 C   0  0  0  0  0  0
  -21.6854   -6.0739   22.5279 C   0  0  0  0  0  0
  -21.4010   -6.5640   23.8214 C   0  0  0  0  0  0
  -21.3657   -5.6790   24.9174 C   0  0  0  0  0  0
  -21.6045   -4.3054   24.7224 C   0  0  0  0  0  0
  -21.8818   -3.8149   23.4344 C   0  0  0  0  0  0
  -21.9190   -4.6965   22.3399 C   0  0  0  0  0  0
  -22.7883  -13.5239   21.1836 C   0  0  0  0  0  0
  -22.1664   -4.2154   21.0979 F   0  0  0  0  0  0
  -21.5628   -3.4533   25.7734 F   0  0  0  0  0  0
  -30.0502  -13.2385   20.4650 N   0  0  0  0  0  0
  -26.3071  -12.9320   20.3389 N   0  0  0  0  0  0
  -25.9331  -11.6481   20.5749 N   0  0  0  0  0  0
  -22.0512  -12.8231   22.0388 N   0  0  0  0  0  0
  -25.4367  -15.1865   20.4081 N   0  0  0  0  0  0
  -31.7745  -14.6806   20.0647 O   0  0  0  0  0  0
  -21.6637   -6.8883   21.4243 O   0  0  0  0  0  0
  -22.3564  -14.5544   20.6686 O   0  0  0  0  0  0
  -24.6110  -31.8699   23.2128 C   0  0  0  0  0  0
  -25.9019  -32.4842   23.8408 C   0  0  1  0  0  0
  -27.2397  -27.4635   20.0915 C   0  0  0  0  0  0
  -25.5896  -33.8634   24.2346 N   0  0  0  0  0  0
  -23.3994  -30.4918   21.5522 C   0  0  2  0  0  0
  -24.8477  -28.9577   20.1186 C   0  0  0  0  0  0
  -22.7397  -29.4663   22.5017 C   0  0  0  0  0  0
  -18.0270  -28.1392   22.8504 C   0  0  0  0  0  0
  -24.1474  -36.7305   23.2635 C   0  0  0  0  0  0
  -25.9235  -30.8427   21.3620 C   0  0  0  0  0  0
  -26.0037  -29.4752   20.7182 C   0  0  0  0  0  0
  -27.2034  -28.7321   20.7115 C   0  0  0  0  0  0
  -26.0737  -26.9540   19.4862 C   0  0  0  0  0  0
  -24.8745  -27.6923   19.5046 C   0  0  0  0  0  0
  -23.6078  -29.8221   20.1674 C   0  0  0  0  0  0
  -25.4093  -36.3126   24.0346 C   0  0  1  0  0  0
  -20.5857  -28.3659   23.1344 C   0  0  2  0  0  0
  -20.6757  -26.9401   22.5440 C   0  0  0  0  0  0
  -19.5740  -26.6403   21.5227 C   0  0  0  0  0  0
  -18.1918  -26.7942   22.1630 C   0  0  0  0  0  0
  -19.1519  -28.8841   23.2920 C   0  0  0  0  0  0
  -18.9456  -30.1456   23.8916 C   0  0  0  0  0  0
  -17.6459  -30.6605   24.0571 C   0  0  0  0  0  0
  -25.9030  -34.9489   23.5147 C   0  0  0  0  0  0
  -16.5344  -29.9114   23.6339 C   0  0  0  0  0  0
  -16.7261  -28.6529   23.0362 C   0  0  0  0  0  0
  -26.4465  -31.6615   25.0712 C   0  0  0  0  0  0
  -25.3743  -31.3714   26.1468 C   0  0  0  0  0  0
  -27.0277  -30.3063   24.6048 C   0  0  0  0  0  0
  -27.6046  -32.4320   25.7466 C   0  0  0  0  0  0
  -27.5573  -37.1812   24.8468 C   0  0  0  0  0  0
  -21.4129  -29.3017   22.3750 N   0  0  0  0  0  0
  -26.4282  -37.3804   23.9418 N   0  0  0  0  0  0
  -24.6627  -31.0816   22.1017 N   0  0  0  0  0  0
  -23.4176  -28.8221   23.3062 O   0  0  0  0  0  0
  -28.3902  -26.7194   20.0315 O   0  0  0  0  0  0
  -26.5583  -34.8938   22.4705 O   0  0  0  0  0  0
  -23.5321  -32.1454   23.7549 O   0  0  0  0  0  0
  -30.6415  -18.9126   20.7074 C   0  0  0  0  0  0
  -30.7343  -17.5104   20.5904 C   0  0  0  0  0  0
  -29.4470  -17.2747   22.6358 C   0  0  0  0  0  0
  -29.9673  -19.5184   21.7939 C   0  0  0  0  0  0
  -30.1379  -16.6760   21.5632 C   0  0  0  0  0  0
  -29.3343  -18.6816   22.7520 C   0  0  0  0  0  0
  -25.7065  -19.5979   25.8708 C   0  0  0  0  0  0
  -26.9494  -19.7255   25.3719 C   0  0  0  0  0  0
  -29.9686  -23.9047   21.4002 C   0  0  0  0  0  0
  -29.9615  -25.2207   21.0965 C   0  0  0  0  0  0
  -27.4100  -18.8651   24.2972 C   0  0  0  0  0  0
  -31.1870  -23.1100   21.2370 C   0  0  0  0  0  0
  -32.3931  -21.1378   22.0044 C   0  0  0  0  0  0
  -29.8794  -21.0544   21.8724 C   0  0  0  0  0  0
  -28.7774  -26.1513   21.2756 C   0  0  0  0  0  0
  -28.6130  -19.2482   23.8391 N   0  0  0  0  0  0
  -30.1187  -15.2530   21.5013 N   0  0  0  0  0  0
  -31.1317  -21.8227   21.6759 N   0  0  0  0  0  0
  -26.7792  -17.9047   23.8457 O   0  0  0  0  0  0
  -32.2456  -23.5943   20.8177 O   0  0  0  0  0  0
  -31.4733  -12.4053   19.1039 H   0  0  0  0  0  0
  -30.3322  -11.2705   19.7646 H   0  0  0  0  0  0
  -29.7319  -11.8371   17.3942 H   0  0  0  0  0  0
  -29.6710  -13.5341   17.7956 H   0  0  0  0  0  0
  -27.8103  -11.3364   18.7691 H   0  0  0  0  0  0
  -27.3693  -12.7068   17.7848 H   0  0  0  0  0  0
  -27.7325  -14.2607   19.6279 H   0  0  0  0  0  0
  -28.6738  -11.8716   21.2795 H   0  0  0  0  0  0
  -28.4531  -13.4653   21.9068 H   0  0  0  0  0  0
  -25.2760   -9.5683   22.4754 H   0  0  0  0  0  0
  -23.9998   -7.4633   22.7458 H   0  0  0  0  0  0
  -21.0842   -8.8779   19.8947 H   0  0  0  0  0  0
  -22.3699  -10.9676   19.6151 H   0  0  0  0  0  0
  -21.2002   -7.6146   23.9719 H   0  0  0  0  0  0
  -21.1479   -6.0519   25.9079 H   0  0  0  0  0  0
  -22.0598   -2.7612   23.2839 H   0  0  0  0  0  0
  -22.4113  -11.9885   22.4779 H   0  0  0  0  0  0
  -21.1127  -13.1263   22.2578 H   0  0  0  0  0  0
  -24.6818  -15.8510   20.5365 H   0  0  0  0  0  0
  -26.3057  -15.6240   20.1289 H   0  0  0  0  0  0
  -26.7076  -32.5575   23.1171 H   0  0  0  0  0  0
  -25.0055  -33.9786   25.0499 H   0  0  0  0  0  0
  -22.6885  -31.3087   21.4141 H   0  0  0  0  0  0
  -23.3752  -35.9624   23.3327 H   0  0  0  0  0  0
  -24.3569  -36.8883   22.2044 H   0  0  0  0  0  0
  -23.7220  -37.6515   23.6628 H   0  0  0  0  0  0
  -26.0274  -31.6059   20.5888 H   0  0  0  0  0  0
  -26.8151  -30.9029   21.9749 H   0  0  0  0  0  0
  -28.0973  -29.1347   21.1680 H   0  0  0  0  0  0
  -26.0972  -25.9864   19.0045 H   0  0  0  0  0  0
  -23.9852  -27.2884   19.0398 H   0  0  0  0  0  0
  -23.7135  -30.5963   19.4070 H   0  0  0  0  0  0
  -22.7331  -29.2384   19.8759 H   0  0  0  0  0  0
  -25.1285  -36.1982   25.0840 H   0  0  0  0  0  0
  -20.9934  -28.3212   24.1470 H   0  0  0  0  0  0
  -20.5687  -26.2249   23.3618 H   0  0  0  0  0  0
  -21.6628  -26.7481   22.1208 H   0  0  0  0  0  0
  -19.6897  -25.6325   21.1236 H   0  0  0  0  0  0
  -19.6686  -27.3229   20.6774 H   0  0  0  0  0  0
  -17.4200  -26.6715   21.4016 H   0  0  0  0  0  0
  -18.0296  -26.0091   22.9029 H   0  0  0  0  0  0
  -19.7934  -30.7278   24.2275 H   0  0  0  0  0  0
  -17.5025  -31.6287   24.5190 H   0  0  0  0  0  0
  -15.5350  -30.3029   23.7668 H   0  0  0  0  0  0
  -15.8658  -28.0869   22.7055 H   0  0  0  0  0  0
  -24.5925  -30.7032   25.7837 H   0  0  0  0  0  0
  -24.8904  -32.2849   26.4915 H   0  0  0  0  0  0
  -25.8105  -30.8913   27.0230 H   0  0  0  0  0  0
  -26.2791  -29.6832   24.1126 H   0  0  0  0  0  0
  -27.4093  -29.7287   25.4479 H   0  0  0  0  0  0
  -27.8612  -30.4401   23.9148 H   0  0  0  0  0  0
  -27.2681  -33.3614   26.2063 H   0  0  0  0  0  0
  -28.3837  -32.6887   25.0281 H   0  0  0  0  0  0
  -28.0728  -31.8429   26.5357 H   0  0  0  0  0  0
  -28.2633  -38.0077   24.7532 H   0  0  0  0  0  0
  -28.1046  -36.2628   24.6300 H   0  0  0  0  0  0
  -27.2303  -37.1459   25.8874 H   0  0  0  0  0  0
  -20.9303  -29.8716   21.6947 H   0  0  0  0  0  0
  -26.0190  -38.2882   24.1448 H   0  0  0  0  0  0
  -31.0943  -19.5295   19.9444 H   0  0  0  0  0  0
  -31.2518  -17.0992   19.7354 H   0  0  0  0  0  0
  -28.9828  -16.6416   23.3788 H   0  0  0  0  0  0
  -25.3625  -20.2365   26.6714 H   0  0  0  0  0  0
  -25.0103  -18.8606   25.4932 H   0  0  0  0  0  0
  -27.6043  -20.4795   25.7858 H   0  0  0  0  0  0
  -29.0588  -23.4700   21.7858 H   0  0  0  0  0  0
  -30.8519  -25.6946   20.7053 H   0  0  0  0  0  0
  -32.8286  -20.6834   21.1139 H   0  0  0  0  0  0
  -32.2535  -20.3583   22.7535 H   0  0  0  0  0  0
  -33.1353  -21.8220   22.4214 H   0  0  0  0  0  0
  -29.4468  -21.3790   22.8170 H   0  0  0  0  0  0
  -29.1629  -21.3351   21.0990 H   0  0  0  0  0  0
  -29.0619  -26.9390   21.9753 H   0  0  0  0  0  0
  -27.9424  -25.6055   21.7202 H   0  0  0  0  0  0
  -28.9850  -20.0969   24.2396 H   0  0  0  0  0  0
  -29.3930  -14.8135   22.0461 H   0  0  0  0  0  0
  1 25  1  0  0  0
  1 30  2  0  0  0
  1 87  1  0  0  0
  2  3  1  0  0  0
  2 25  1  0  0  0
  2 91  1  0  0  0
  2 92  1  0  0  0
  3  4  1  0  0  0
  3 93  1  0  0  0
  3 94  1  0  0  0
  4  5  1  0  0  0
  4 95  1  0  0  0
  4 96  1  0  0  0
  5  6  1  0  0  0
  5 26  1  0  0  0
  5 97  1  0  0  0
  6 25  1  0  0  0
  6 98  1  0  0  0
  6 99  1  0  0  0
  7  8  2  0  0  0
  7 26  1  0  0  0
  7 29  1  0  0  0
  8  9  1  0  0  0
  8 22  1  0  0  0
  9 10  1  0  0  0
  9 27  2  0  0  0
 10 11  2  0  0  0
 10 15  1  0  0  0
 11 12  1  0  0  0
 11100  1  0  0  0
 12 13  2  0  0  0
 12101  1  0  0  0
 13 14  1  0  0  0
 13 31  1  0  0  0
 14 15  2  0  0  0
 14102  1  0  0  0
 15103  1  0  0  0
 16 17  2  0  0  0
 16 21  1  0  0  0
 16 31  1  0  0  0
 17 18  1  0  0  0
 17104  1  0  0  0
 18 19  2  0  0  0
 18105  1  0  0  0
 19 20  1  0  0  0
 19 24  1  0  0  0
 20 21  2  0  0  0
 20106  1  0  0  0
 21 23  1  0  0  0
 22 28  1  0  0  0
 22 32  2  0  0  0
 26 27  1  0  0  0
 28107  1  0  0  0
 28108  1  0  0  0
 29109  1  0  0  0
 29110  1  0  0  0
 33 34  1  0  0  0
 33 66  1  0  0  0
 33 70  2  0  0  0
 34 36  1  0  0  0
 34 59  1  0  0  0
 34111  1  0  0  0
 35 44  2  0  0  0
 35 45  1  0  0  0
 35 68  1  0  0  0
 36 56  1  0  0  0
 36112  1  0  0  0
 37 39  1  0  0  0
 37 47  1  0  0  0
 37 66  1  0  0  0
 37113  1  0  0  0
 38 43  2  0  0  0
 38 46  1  0  0  0
 38 47  1  0  0  0
 39 64  1  0  0  0
 39 67  2  0  0  0
 40 52  1  0  0  0
 40 53  2  0  0  0
 40 58  1  0  0  0
 41114  1  0  0  0
 41115  1  0  0  0
 41116  1  0  0  0
 41 48  1  0  0  0
 42 43  1  0  0  0
 42 66  1  0  0  0
 42117  1  0  0  0
 42118  1  0  0  0
 43 44  1  0  0  0
 44119  1  0  0  0
 45 46  2  0  0  0
 45120  1  0  0  0
 46121  1  0  0  0
 47122  1  0  0  0
 47123  1  0  0  0
 48 56  1  0  0  0
 48 65  1  0  0  0
 48124  1  0  0  0
 49 50  1  0  0  0
 49 53  1  0  0  0
 49 64  1  0  0  0
 49125  1  0  0  0
 50 51  1  0  0  0
 50126  1  0  0  0
 50127  1  0  0  0
 51 52  1  0  0  0
 51128  1  0  0  0
 51129  1  0  0  0
 52130  1  0  0  0
 52131  1  0  0  0
 53 54  1  0  0  0
 54 55  2  0  0  0
 54132  1  0  0  0
 55 57  1  0  0  0
 55133  1  0  0  0
 56 69  2  0  0  0
 57 58  2  0  0  0
 57134  1  0  0  0
 58135  1  0  0  0
 59 60  1  0  0  0
 59 61  1  0  0  0
 59 62  1  0  0  0
 60136  1  0  0  0
 60137  1  0  0  0
 60138  1  0  0  0
 61139  1  0  0  0
 61140  1  0  0  0
 61141  1  0  0  0
 62142  1  0  0  0
 62143  1  0  0  0
 62144  1  0  0  0
 63 65  1  0  0  0
 63145  1  0  0  0
 63146  1  0  0  0
 63147  1  0  0  0
 64148  1  0  0  0
 65149  1  0  0  0
 68 85  1  0  0  0
 71 72  2  0  0  0
 71 74  1  0  0  0
 71150  1  0  0  0
 72 75  1  0  0  0
 72151  1  0  0  0
 73 75  2  0  0  0
 73 76  1  0  0  0
 73152  1  0  0  0
 74 76  2  0  0  0
 74 84  1  0  0  0
 75 87  1  0  0  0
 76 86  1  0  0  0
 77 78  2  0  0  0
 77153  1  0  0  0
 77154  1  0  0  0
 78 81  1  0  0  0
 78155  1  0  0  0
 79 80  2  0  0  0
 79 82  1  0  0  0
 79156  1  0  0  0
 80 85  1  0  0  0
 80157  1  0  0  0
 81 86  1  0  0  0
 81 89  2  0  0  0
 82 88  1  0  0  0
 82 90  2  0  0  0
 83 88  1  0  0  0
 83158  1  0  0  0
 83159  1  0  0  0
 83160  1  0  0  0
 84 88  1  0  0  0
 84161  1  0  0  0
 84162  1  0  0  0
 85163  1  0  0  0
 85164  1  0  0  0
 86165  1  0  0  0
 87166  1  0  0  0
M  ISO  4   1 100  68 101  85 101  87 100
M  END
> <chiral flag>
0

> <version>
0

> <s_m_source_file>
/data/baiqing/PycharmProjects/Reinvent-master-3.2/result/LINK_invent/BTK/process_docking_weight1_custom_product_contain_oxygen_bond_distance_aromatic_linkinvent_7_9_3/rearranged_h_0056.sdf

> <i_m_source_file_index>
86

> <r_mmod_Potential_Energy-OPLS-2005>
-89.6495056152344

> <r_mmod_Stretch_Energy-OPLS-2005>
39.1762962341309

> <r_mmod_Bend_Energy-OPLS-2005>
103.846328735352

> <r_mmod_Torsional_Energy-OPLS-2005>
269.32568359375

> <r_mmod_Improper_Torsional_Energy-OPLS-2005>
3.76102256774902

> <r_mmod_Van_der_Waal_Energy-OPLS-2005>
180.431137084961

> <r_mmod_Electrostatic_Energy-OPLS-2005>
-437.931518554688

> <r_mmod_Solvation_Energy-OPLS-2005>
-255.394607543945

> <b_mmod_Minimization_Converged-OPLS-2005>
0

> <r_mmod_RMS_Derivative-OPLS-2005>
1.91033399105072

$$$$
86
                    3D
 Structure written by MMmdl.
168177  0  0  1  0            999 V2000
  -30.7045  -14.4382   20.5427 C   0  0  0  0  0  0
  -30.4204  -12.2754   19.4217 C   0  0  0  0  0  0
  -29.4926  -12.4800   18.2052 C   0  0  0  0  0  0
  -28.0147  -12.3384   18.6230 C   0  0  0  0  0  0
  -27.6602  -13.1925   19.8693 C   0  0  2  0  0  0
  -28.7018  -12.9801   20.9915 C   0  0  0  0  0  0
  -25.2616  -13.8136   20.5684 C   0  0  0  0  0  0
  -24.1837  -13.0430   20.9137 C   0  0  0  0  0  0
  -24.6366  -11.6890   20.8722 C   0  0  0  0  0  0
  -23.9020  -10.4280   21.0401 C   0  0  0  0  0  0
  -24.3581   -9.4201   21.9179 C   0  0  0  0  0  0
  -23.6273   -8.2235   22.0754 C   0  0  0  0  0  0
  -22.4261   -8.0258   21.3541 C   0  0  0  0  0  0
  -21.9879   -9.0228   20.4649 C   0  0  0  0  0  0
  -22.7196  -10.2110   20.3052 C   0  0  0  0  0  0
  -21.6852   -6.0706   22.5264 C   0  0  0  0  0  0
  -21.4028   -6.5620   23.8195 C   0  0  0  0  0  0
  -21.3660   -5.6781   24.9159 C   0  0  0  0  0  0
  -21.6035   -4.3044   24.7220 C   0  0  0  0  0  0
  -21.8833   -3.8123   23.4352 C   0  0  0  0  0  0
  -21.9200   -4.6934   22.3396 C   0  0  0  0  0  0
  -22.7864  -13.5229   21.1816 C   0  0  0  0  0  0
  -22.1664   -4.2112   21.0982 F   0  0  0  0  0  0
  -21.5622   -3.4537   25.7742 F   0  0  0  0  0  0
  -30.0320  -13.2640   20.4369 N   0  0  0  0  0  0
  -26.3026  -12.9270   20.3366 N   0  0  0  0  0  0
  -25.9285  -11.6443   20.5766 N   0  0  0  0  0  0
  -22.0526  -12.8212   22.0396 N   0  0  0  0  0  0
  -25.4410  -15.1847   20.4157 N   0  0  0  0  0  0
  -31.8803  -14.5803   20.2065 O   0  0  0  0  0  0
  -21.6644   -6.8845   21.4224 O   0  0  0  0  0  0
  -22.3531  -14.5522   20.6659 O   0  0  0  0  0  0
  -24.6135  -31.8724   23.2150 C   0  0  0  0  0  0
  -25.9047  -32.4847   23.8426 C   0  0  1  0  0  0
  -27.2395  -27.4650   20.0524 C   0  0  0  0  0  0
  -25.5910  -33.8649   24.2350 N   0  0  0  0  0  0
  -23.4005  -30.5038   21.5523 C   0  0  2  0  0  0
  -24.8458  -28.9769   20.1180 C   0  0  0  0  0  0
  -22.7395  -29.4741   22.4967 C   0  0  0  0  0  0
  -18.0297  -28.1383   22.8497 C   0  0  0  0  0  0
  -24.1485  -36.7325   23.2638 C   0  0  0  0  0  0
  -25.9321  -30.8409   21.3710 C   0  0  0  0  0  0
  -26.0089  -29.4785   20.7156 C   0  0  0  0  0  0
  -27.2049  -28.7235   20.6952 C   0  0  0  0  0  0
  -26.0451  -26.9731   19.4818 C   0  0  0  0  0  0
  -24.8542  -27.7143   19.5108 C   0  0  0  0  0  0
  -23.6111  -29.8442   20.1653 C   0  0  0  0  0  0
  -25.4111  -36.3124   24.0330 C   0  0  1  0  0  0
  -20.5881  -28.3735   23.1334 C   0  0  2  0  0  0
  -20.6770  -26.9438   22.5543 C   0  0  0  0  0  0
  -19.5841  -26.6488   21.5234 C   0  0  0  0  0  0
  -18.2003  -26.7933   22.1638 C   0  0  0  0  0  0
  -19.1522  -28.8873   23.2909 C   0  0  0  0  0  0
  -18.9429  -30.1474   23.8916 C   0  0  0  0  0  0
  -17.6423  -30.6598   24.0539 C   0  0  0  0  0  0
  -25.9029  -34.9489   23.5129 C   0  0  0  0  0  0
  -16.5332  -29.9074   23.6289 C   0  0  0  0  0  0
  -16.7274  -28.6487   23.0338 C   0  0  0  0  0  0
  -26.4483  -31.6622   25.0745 C   0  0  0  0  0  0
  -25.3756  -31.3727   26.1493 C   0  0  0  0  0  0
  -27.0314  -30.3060   24.6135 C   0  0  0  0  0  0
  -27.6050  -32.4352   25.7514 C   0  0  0  0  0  0
  -27.5583  -37.1818   24.8462 C   0  0  0  0  0  0
  -21.4131  -29.3055   22.3667 N   0  0  0  0  0  0
  -26.4302  -37.3798   23.9396 N   0  0  0  0  0  0
  -24.6661  -31.0862   22.1039 N   0  0  0  0  0  0
  -23.4162  -28.8310   23.3032 O   0  0  0  0  0  0
  -28.4106  -26.7325   20.0330 O   0  0  0  0  0  0
  -26.5587  -34.8929   22.4684 O   0  0  0  0  0  0
  -23.5337  -32.1483   23.7551 O   0  0  0  0  0  0
  -28.5770  -16.7744   23.7653 C   0  0  0  0  0  0
  -24.5869  -22.4136   18.7585 C   0  0  0  0  0  0
  -27.9352  -17.9506   23.3317 C   0  0  0  0  0  0
  -29.2430  -15.9445   22.8415 C   0  0  0  0  0  0
  -25.6457  -23.3212   18.6165 C   0  0  0  0  0  0
  -27.0725  -21.8559   19.9305 C   0  0  0  0  0  0
  -26.0288  -20.9008   20.0385 C   0  0  0  0  0  0
  -24.7549  -21.2157   19.4793 C   0  0  0  0  0  0
  -28.7065  -17.5251   21.0478 C   0  0  0  0  0  0
  -26.8892  -23.0685   19.2373 C   0  0  0  0  0  0
  -27.9720  -18.3183   21.9720 C   0  0  0  0  0  0
  -29.2990  -16.3079   21.4764 C   0  0  0  0  0  0
  -26.3353  -19.5443   20.6298 C   0  0  0  0  0  0
  -28.2010  -24.9497   18.3133 C   0  0  0  0  0  0
  -23.5350  -20.3149   19.6073 C   0  0  0  0  0  0
  -28.8789  -17.9718   19.5936 C   0  0  0  0  0  0
  -28.8876  -26.2539   18.7595 C   0  0  0  0  0  0
  -27.2973  -19.5018   21.5678 N   0  0  0  0  0  0
  -27.9178  -24.0487   19.2684 N   0  0  0  0  0  0
  -29.9206  -15.5197   20.4714 N   0  0  0  0  0  0
  -25.7309  -18.5360   20.2563 O   0  0  0  0  0  0
  -27.9352  -24.7679   17.1211 O   0  0  0  0  0  0
  -31.4646  -12.3689   19.1199 H   0  0  0  0  0  0
  -30.3145  -11.2659   19.8212 H   0  0  0  0  0  0
  -29.7311  -11.7601   17.4206 H   0  0  0  0  0  0
  -29.6599  -13.4679   17.7729 H   0  0  0  0  0  0
  -27.8320  -11.2841   18.8361 H   0  0  0  0  0  0
  -27.3583  -12.5954   17.7925 H   0  0  0  0  0  0
  -27.6992  -14.2353   19.5529 H   0  0  0  0  0  0
  -28.6746  -11.9519   21.3563 H   0  0  0  0  0  0
  -28.4713  -13.6081   21.8492 H   0  0  0  0  0  0
  -25.2732   -9.5682   22.4745 H   0  0  0  0  0  0
  -23.9979   -7.4632   22.7480 H   0  0  0  0  0  0
  -21.0801   -8.8730   19.8968 H   0  0  0  0  0  0
  -22.3644  -10.9633   19.6154 H   0  0  0  0  0  0
  -21.2042   -7.6136   23.9680 H   0  0  0  0  0  0
  -21.1466   -6.0522   25.9053 H   0  0  0  0  0  0
  -22.0622   -2.7585   23.2868 H   0  0  0  0  0  0
  -22.4164  -11.9862   22.4746 H   0  0  0  0  0  0
  -21.1157  -13.1239   22.2636 H   0  0  0  0  0  0
  -24.6980  -15.8611   20.5533 H   0  0  0  0  0  0
  -26.3237  -15.6269   20.1918 H   0  0  0  0  0  0
  -26.7125  -32.5572   23.1199 H   0  0  0  0  0  0
  -25.0057  -33.9813   25.0492 H   0  0  0  0  0  0
  -22.6892  -31.3211   21.4158 H   0  0  0  0  0  0
  -23.3738  -35.9666   23.3322 H   0  0  0  0  0  0
  -24.3568  -36.8928   22.2047 H   0  0  0  0  0  0
  -23.7253  -37.6542   23.6643 H   0  0  0  0  0  0
  -26.0497  -31.6090   20.6050 H   0  0  0  0  0  0
  -26.8173  -30.8882   21.9930 H   0  0  0  0  0  0
  -28.1050  -29.1094   21.1543 H   0  0  0  0  0  0
  -25.9954  -26.0088   19.0178 H   0  0  0  0  0  0
  -23.9563  -27.3089   19.0639 H   0  0  0  0  0  0
  -23.7283  -30.6222   19.4101 H   0  0  0  0  0  0
  -22.7330  -29.2733   19.8609 H   0  0  0  0  0  0
  -25.1295  -36.1986   25.0824 H   0  0  0  0  0  0
  -20.9985  -28.3399   24.1453 H   0  0  0  0  0  0
  -20.5484  -26.2385   23.3774 H   0  0  0  0  0  0
  -21.6680  -26.7378   22.1480 H   0  0  0  0  0  0
  -19.7070  -25.6450   21.1159 H   0  0  0  0  0  0
  -19.6834  -27.3427   20.6878 H   0  0  0  0  0  0
  -17.4267  -26.6616   21.4058 H   0  0  0  0  0  0
  -18.0519  -26.0094   22.9077 H   0  0  0  0  0  0
  -19.7907  -30.7300   24.2272 H   0  0  0  0  0  0
  -17.4948  -31.6290   24.5102 H   0  0  0  0  0  0
  -15.5322  -30.2972   23.7561 H   0  0  0  0  0  0
  -15.8680  -28.0798   22.7052 H   0  0  0  0  0  0
  -24.5895  -30.7124   25.7815 H   0  0  0  0  0  0
  -24.8998  -32.2896   26.4984 H   0  0  0  0  0  0
  -25.8103  -30.8844   27.0223 H   0  0  0  0  0  0
  -26.2853  -29.6815   24.1210 H   0  0  0  0  0  0
  -27.4094  -29.7310   25.4599 H   0  0  0  0  0  0
  -27.8687  -30.4367   23.9276 H   0  0  0  0  0  0
  -27.2640  -33.3615   26.2154 H   0  0  0  0  0  0
  -28.3826  -32.6993   25.0333 H   0  0  0  0  0  0
  -28.0763  -31.8457   26.5391 H   0  0  0  0  0  0
  -28.2616  -38.0099   24.7499 H   0  0  0  0  0  0
  -28.1060  -36.2636   24.6301 H   0  0  0  0  0  0
  -27.2291  -37.1483   25.8861 H   0  0  0  0  0  0
  -20.9312  -29.8627   21.6752 H   0  0  0  0  0  0
  -26.0196  -38.2879   24.1382 H   0  0  0  0  0  0
  -28.5399  -16.5024   24.8114 H   0  0  0  0  0  0
  -23.6346  -22.6454   18.3028 H   0  0  0  0  0  0
  -27.4052  -18.5631   24.0482 H   0  0  0  0  0  0
  -29.7100  -15.0386   23.2006 H   0  0  0  0  0  0
  -25.4613  -24.2230   18.0536 H   0  0  0  0  0  0
  -28.0444  -21.6515   20.3601 H   0  0  0  0  0  0
  -23.5754  -19.5133   18.8695 H   0  0  0  0  0  0
  -22.6119  -20.8735   19.4452 H   0  0  0  0  0  0
  -23.4679  -19.8739   20.6016 H   0  0  0  0  0  0
  -29.8586  -17.7050   19.1995 H   0  0  0  0  0  0
  -28.8131  -19.0537   19.4865 H   0  0  0  0  0  0
  -28.1206  -17.5164   18.9569 H   0  0  0  0  0  0
  -28.7642  -27.0214   17.9934 H   0  0  0  0  0  0
  -29.9582  -26.0646   18.8372 H   0  0  0  0  0  0
  -27.6149  -20.3805   21.9499 H   0  0  0  0  0  0
  -28.3631  -24.2027   20.1619 H   0  0  0  0  0  0
  -30.1948  -16.0881   19.6859 H   0  0  0  0  0  0
  1 25  1  0  0  0
  1 30  2  0  0  0
  1 90  1  0  0  0
  2  3  1  0  0  0
  2 25  1  0  0  0
  2 93  1  0  0  0
  2 94  1  0  0  0
  3  4  1  0  0  0
  3 95  1  0  0  0
  3 96  1  0  0  0
  4  5  1  0  0  0
  4 97  1  0  0  0
  4 98  1  0  0  0
  5  6  1  0  0  0
  5 26  1  0  0  0
  5 99  1  0  0  0
  6 25  1  0  0  0
  6100  1  0  0  0
  6101  1  0  0  0
  7  8  2  0  0  0
  7 26  1  0  0  0
  7 29  1  0  0  0
  8  9  1  0  0  0
  8 22  1  0  0  0
  9 10  1  0  0  0
  9 27  2  0  0  0
 10 11  2  0  0  0
 10 15  1  0  0  0
 11 12  1  0  0  0
 11102  1  0  0  0
 12 13  2  0  0  0
 12103  1  0  0  0
 13 14  1  0  0  0
 13 31  1  0  0  0
 14 15  2  0  0  0
 14104  1  0  0  0
 15105  1  0  0  0
 16 17  2  0  0  0
 16 21  1  0  0  0
 16 31  1  0  0  0
 17 18  1  0  0  0
 17106  1  0  0  0
 18 19  2  0  0  0
 18107  1  0  0  0
 19 20  1  0  0  0
 19 24  1  0  0  0
 20 21  2  0  0  0
 20108  1  0  0  0
 21 23  1  0  0  0
 22 28  1  0  0  0
 22 32  2  0  0  0
 26 27  1  0  0  0
 28109  1  0  0  0
 28110  1  0  0  0
 29111  1  0  0  0
 29112  1  0  0  0
 33 34  1  0  0  0
 33 66  1  0  0  0
 33 70  2  0  0  0
 34 36  1  0  0  0
 34 59  1  0  0  0
 34113  1  0  0  0
 35 44  2  0  0  0
 35 45  1  0  0  0
 35 68  1  0  0  0
 36 56  1  0  0  0
 36114  1  0  0  0
 37 39  1  0  0  0
 37 47  1  0  0  0
 37 66  1  0  0  0
 37115  1  0  0  0
 38 43  2  0  0  0
 38 46  1  0  0  0
 38 47  1  0  0  0
 39 64  1  0  0  0
 39 67  2  0  0  0
 40 52  1  0  0  0
 40 53  2  0  0  0
 40 58  1  0  0  0
 41116  1  0  0  0
 41117  1  0  0  0
 41118  1  0  0  0
 41 48  1  0  0  0
 42 43  1  0  0  0
 42 66  1  0  0  0
 42119  1  0  0  0
 42120  1  0  0  0
 43 44  1  0  0  0
 44121  1  0  0  0
 45 46  2  0  0  0
 45122  1  0  0  0
 46123  1  0  0  0
 47124  1  0  0  0
 47125  1  0  0  0
 48 56  1  0  0  0
 48 65  1  0  0  0
 48126  1  0  0  0
 49 50  1  0  0  0
 49 53  1  0  0  0
 49 64  1  0  0  0
 49127  1  0  0  0
 50 51  1  0  0  0
 50128  1  0  0  0
 50129  1  0  0  0
 51 52  1  0  0  0
 51130  1  0  0  0
 51131  1  0  0  0
 52132  1  0  0  0
 52133  1  0  0  0
 53 54  1  0  0  0
 54 55  2  0  0  0
 54134  1  0  0  0
 55 57  1  0  0  0
 55135  1  0  0  0
 56 69  2  0  0  0
 57 58  2  0  0  0
 57136  1  0  0  0
 58137  1  0  0  0
 59 60  1  0  0  0
 59 61  1  0  0  0
 59 62  1  0  0  0
 60138  1  0  0  0
 60139  1  0  0  0
 60140  1  0  0  0
 61141  1  0  0  0
 61142  1  0  0  0
 61143  1  0  0  0
 62144  1  0  0  0
 62145  1  0  0  0
 62146  1  0  0  0
 63 65  1  0  0  0
 63147  1  0  0  0
 63148  1  0  0  0
 63149  1  0  0  0
 64150  1  0  0  0
 65151  1  0  0  0
 68 87  1  0  0  0
 71 73  2  0  0  0
 71 74  1  0  0  0
 71152  1  0  0  0
 72 75  2  0  0  0
 72 78  1  0  0  0
 72153  1  0  0  0
 73 81  1  0  0  0
 73154  1  0  0  0
 74 82  2  0  0  0
 74155  1  0  0  0
 75 80  1  0  0  0
 75156  1  0  0  0
 76 77  1  0  0  0
 76 80  2  0  0  0
 76157  1  0  0  0
 77 78  2  0  0  0
 77 83  1  0  0  0
 78 85  1  0  0  0
 79 81  2  0  0  0
 79 82  1  0  0  0
 79 86  1  0  0  0
 80 89  1  0  0  0
 81 88  1  0  0  0
 82 90  1  0  0  0
 83 88  1  0  0  0
 83 91  2  0  0  0
 84 87  1  0  0  0
 84 89  1  0  0  0
 84 92  2  0  0  0
 85158  1  0  0  0
 85159  1  0  0  0
 85160  1  0  0  0
 86161  1  0  0  0
 86162  1  0  0  0
 86163  1  0  0  0
 87164  1  0  0  0
 87165  1  0  0  0
 88166  1  0  0  0
 89167  1  0  0  0
 90168  1  0  0  0
M  ISO  4   1 100  68 101  87 101  90 100
M  END
> <chiral flag>
0

> <version>
0

> <s_m_source_file>
/data/baiqing/PycharmProjects/Reinvent-master-3.2/result/LINK_invent/BTK/process_docking_weight1_custom_product_contain_oxygen_bond_distance_aromatic_linkinvent_7_9_3/rearranged_h_0056.sdf

> <i_m_source_file_index>
87

> <r_mmod_Potential_Energy-OPLS-2005>
38.5692710876465

> <r_mmod_Stretch_Energy-OPLS-2005>
38.5963325500488

> <r_mmod_Bend_Energy-OPLS-2005>
115.783050537109

> <r_mmod_Torsional_Energy-OPLS-2005>
348.330902099609

> <r_mmod_Improper_Torsional_Energy-OPLS-2005>
22.1032657623291

> <r_mmod_Van_der_Waal_Energy-OPLS-2005>
186.330276489258

> <r_mmod_Electrostatic_Energy-OPLS-2005>
-455.590759277344

> <r_mmod_Solvation_Energy-OPLS-2005>
-232.269073486328

> <b_mmod_Minimization_Converged-OPLS-2005>
0

> <r_mmod_RMS_Derivative-OPLS-2005>
2.59322738647461

$$$$
87
                    3D
 Structure written by MMmdl.
165173  0  0  1  0            999 V2000
  -30.7936  -14.3632   20.6986 C   0  0  0  0  0  0
  -30.4170  -12.2927   19.4014 C   0  0  0  0  0  0
  -29.4829  -12.5140   18.1980 C   0  0  0  0  0  0
  -28.0072  -12.3737   18.6128 C   0  0  0  0  0  0
  -27.6668  -13.2064   19.8761 C   0  0  2  0  0  0
  -28.7064  -12.9744   20.9968 C   0  0  0  0  0  0
  -25.2596  -13.8105   20.5649 C   0  0  0  0  0  0
  -24.1865  -13.0366   20.9140 C   0  0  0  0  0  0
  -24.6432  -11.6851   20.8706 C   0  0  0  0  0  0
  -23.9077  -10.4238   21.0377 C   0  0  0  0  0  0
  -24.3613   -9.4149   21.9173 C   0  0  0  0  0  0
  -23.6262   -8.2195   22.0740 C   0  0  0  0  0  0
  -22.4245   -8.0250   21.3530 C   0  0  0  0  0  0
  -21.9898   -9.0220   20.4631 C   0  0  0  0  0  0
  -22.7238  -10.2082   20.3025 C   0  0  0  0  0  0
  -21.6812   -6.0730   22.5287 C   0  0  0  0  0  0
  -21.4003   -6.5631   23.8229 C   0  0  0  0  0  0
  -21.3651   -5.6783   24.9190 C   0  0  0  0  0  0
  -21.6048   -4.3042   24.7240 C   0  0  0  0  0  0
  -21.8812   -3.8140   23.4356 C   0  0  0  0  0  0
  -21.9158   -4.6961   22.3406 C   0  0  0  0  0  0
  -22.7886  -13.5163   21.1788 C   0  0  0  0  0  0
  -22.1609   -4.2136   21.0988 F   0  0  0  0  0  0
  -21.5631   -3.4541   25.7757 F   0  0  0  0  0  0
  -30.0581  -13.2431   20.4663 N   0  0  0  0  0  0
  -26.3061  -12.9302   20.3368 N   0  0  0  0  0  0
  -25.9361  -11.6453   20.5743 N   0  0  0  0  0  0
  -22.0561  -12.8160   22.0374 N   0  0  0  0  0  0
  -25.4237  -15.1813   20.3971 N   0  0  0  0  0  0
  -31.7557  -14.6964   19.9995 O   0  0  0  0  0  0
  -21.6580   -6.8870   21.4251 O   0  0  0  0  0  0
  -22.3553  -14.5452   20.6618 O   0  0  0  0  0  0
  -24.6108  -31.8705   23.2136 C   0  0  0  0  0  0
  -25.9034  -32.4815   23.8392 C   0  0  1  0  0  0
  -27.2302  -27.4608   20.0637 C   0  0  0  0  0  0
  -25.5935  -33.8618   24.2354 N   0  0  0  0  0  0
  -23.3936  -30.4941   21.5576 C   0  0  2  0  0  0
  -24.8356  -28.9637   20.1160 C   0  0  0  0  0  0
  -22.7372  -29.4665   22.5064 C   0  0  0  0  0  0
  -18.0260  -28.1362   22.8487 C   0  0  0  0  0  0
  -24.1487  -36.7287   23.2622 C   0  0  0  0  0  0
  -25.9198  -30.8385   21.3620 C   0  0  0  0  0  0
  -25.9934  -29.4719   20.7157 C   0  0  0  0  0  0
  -27.1882  -28.7195   20.7028 C   0  0  0  0  0  0
  -26.0487  -26.9628   19.4636 C   0  0  0  0  0  0
  -24.8554  -27.7051   19.4947 C   0  0  0  0  0  0
  -23.5935  -29.8226   20.1727 C   0  0  0  0  0  0
  -25.4102  -36.3097   24.0342 C   0  0  1  0  0  0
  -20.5842  -28.3633   23.1355 C   0  0  2  0  0  0
  -20.6754  -26.9386   22.5423 C   0  0  0  0  0  0
  -19.5750  -26.6387   21.5198 C   0  0  0  0  0  0
  -18.1919  -26.7915   22.1601 C   0  0  0  0  0  0
  -19.1502  -28.8815   23.2912 C   0  0  0  0  0  0
  -18.9434  -30.1429   23.8906 C   0  0  0  0  0  0
  -17.6434  -30.6568   24.0557 C   0  0  0  0  0  0
  -25.9038  -34.9472   23.5137 C   0  0  0  0  0  0
  -16.5327  -29.9062   23.6337 C   0  0  0  0  0  0
  -16.7242  -28.6484   23.0345 C   0  0  0  0  0  0
  -26.4476  -31.6551   25.0682 C   0  0  0  0  0  0
  -25.3755  -31.3614   26.1426 C   0  0  0  0  0  0
  -27.0254  -30.2998   24.5977 C   0  0  0  0  0  0
  -27.6086  -32.4215   25.7437 C   0  0  0  0  0  0
  -27.5585  -37.1785   24.8461 C   0  0  0  0  0  0
  -21.4108  -29.3008   22.3783 N   0  0  0  0  0  0
  -26.4279  -37.3794   23.9428 N   0  0  0  0  0  0
  -24.6602  -31.0815   22.1032 N   0  0  0  0  0  0
  -23.4158  -28.8213   23.3096 O   0  0  0  0  0  0
  -28.4233  -26.7709   20.0556 O   0  0  0  0  0  0
  -26.5579  -34.8927   22.4685 O   0  0  0  0  0  0
  -23.5319  -32.1459   23.7562 O   0  0  0  0  0  0
  -31.6074  -17.5604   24.3025 C   0  0  0  0  0  0
  -31.1421  -16.3591   23.7383 C   0  0  0  0  0  0
  -31.3472  -17.3372   21.5142 C   0  0  0  0  0  0
  -31.9152  -18.6671   23.4872 C   0  0  0  0  0  0
  -31.0163  -16.2315   22.3417 C   0  0  0  0  0  0
  -31.7808  -18.5681   22.0798 C   0  0  0  0  0  0
  -32.0154  -21.4727   19.7895 C   0  0  0  0  0  0
  -31.4366  -22.1211   18.7602 C   0  0  0  0  0  0
  -31.6309  -20.1040   20.1002 C   0  0  0  0  0  0
  -29.9462  -25.0388   19.2628 C   0  0  0  0  0  0
  -32.3244  -19.9727   24.1546 C   0  0  0  0  0  0
  -29.7876  -24.2007   16.9338 C   0  0  0  0  0  0
  -31.7118  -23.5599   18.3561 C   0  0  0  0  0  0
  -28.5852  -25.7344   19.0825 C   0  0  0  0  0  0
  -32.0851  -19.7318   21.3091 N   0  0  0  0  0  0
  -30.4908  -15.0063   21.8390 N   0  0  0  0  0  0
  -30.4541  -24.3124   18.2364 N   0  0  0  0  0  0
  -30.9619  -19.3785   19.3612 O   0  0  0  0  0  0
  -30.5280  -25.1398   20.3487 O   0  0  0  0  0  0
  -31.4581  -12.3919   19.0899 H   0  0  0  0  0  0
  -30.3210  -11.2727   19.7779 H   0  0  0  0  0  0
  -29.7180  -11.7967   17.4103 H   0  0  0  0  0  0
  -29.6585  -13.5045   17.7763 H   0  0  0  0  0  0
  -27.8066  -11.3165   18.7903 H   0  0  0  0  0  0
  -27.3543  -12.6662   17.7903 H   0  0  0  0  0  0
  -27.7188  -14.2583   19.5951 H   0  0  0  0  0  0
  -28.6560  -11.9430   21.3443 H   0  0  0  0  0  0
  -28.4479  -13.5886   21.8597 H   0  0  0  0  0  0
  -25.2746   -9.5603   22.4772 H   0  0  0  0  0  0
  -23.9927   -7.4572   22.7465 H   0  0  0  0  0  0
  -21.0817   -8.8749   19.8952 H   0  0  0  0  0  0
  -22.3690  -10.9619   19.6129 H   0  0  0  0  0  0
  -21.2020   -7.6139   23.9737 H   0  0  0  0  0  0
  -21.1466   -6.0513   25.9091 H   0  0  0  0  0  0
  -22.0612   -2.7601   23.2857 H   0  0  0  0  0  0
  -22.4177  -11.9788   22.4706 H   0  0  0  0  0  0
  -21.1219  -13.1231   22.2666 H   0  0  0  0  0  0
  -24.6363  -15.8173   20.4553 H   0  0  0  0  0  0
  -26.2594  -15.6160   20.0271 H   0  0  0  0  0  0
  -26.7084  -32.5534   23.1136 H   0  0  0  0  0  0
  -25.0158  -33.9787   25.0545 H   0  0  0  0  0  0
  -22.6792  -31.3094   21.4229 H   0  0  0  0  0  0
  -23.3765  -35.9601   23.3262 H   0  0  0  0  0  0
  -24.3600  -36.8906   22.2040 H   0  0  0  0  0  0
  -23.7216  -37.6484   23.6630 H   0  0  0  0  0  0
  -26.0223  -31.6004   20.5864 H   0  0  0  0  0  0
  -26.8126  -30.8971   21.9727 H   0  0  0  0  0  0
  -28.0824  -29.1101   21.1681 H   0  0  0  0  0  0
  -26.0129  -26.0079   18.9614 H   0  0  0  0  0  0
  -23.9649  -27.3062   19.0277 H   0  0  0  0  0  0
  -23.6808  -30.5915   19.4048 H   0  0  0  0  0  0
  -22.7191  -29.2293   19.8951 H   0  0  0  0  0  0
  -25.1268  -36.1955   25.0831 H   0  0  0  0  0  0
  -20.9920  -28.3175   24.1482 H   0  0  0  0  0  0
  -20.5652  -26.2233   23.3588 H   0  0  0  0  0  0
  -21.6633  -26.7442   22.1226 H   0  0  0  0  0  0
  -19.6929  -25.6309   21.1204 H   0  0  0  0  0  0
  -19.6716  -27.3217   20.6747 H   0  0  0  0  0  0
  -17.4208  -26.6673   21.3979 H   0  0  0  0  0  0
  -18.0311  -26.0032   22.8971 H   0  0  0  0  0  0
  -19.7906  -30.7246   24.2268 H   0  0  0  0  0  0
  -17.4987  -31.6250   24.5155 H   0  0  0  0  0  0
  -15.5326  -30.2959   23.7664 H   0  0  0  0  0  0
  -15.8641  -28.0804   22.7058 H   0  0  0  0  0  0
  -24.6087  -30.6753   25.7806 H   0  0  0  0  0  0
  -24.8737  -32.2710   26.4731 H   0  0  0  0  0  0
  -25.8157  -30.8971   27.0256 H   0  0  0  0  0  0
  -26.2734  -29.6790   24.1084 H   0  0  0  0  0  0
  -27.4101  -29.7196   25.4371 H   0  0  0  0  0  0
  -27.8553  -30.4314   23.9030 H   0  0  0  0  0  0
  -27.2779  -33.3563   26.1971 H   0  0  0  0  0  0
  -28.3931  -32.6653   25.0259 H   0  0  0  0  0  0
  -28.0686  -31.8316   26.5373 H   0  0  0  0  0  0
  -28.2582  -38.0102   24.7549 H   0  0  0  0  0  0
  -28.1095  -36.2640   24.6218 H   0  0  0  0  0  0
  -27.2316  -37.1356   25.8864 H   0  0  0  0  0  0
  -20.9270  -29.8707   21.6989 H   0  0  0  0  0  0
  -26.0164  -38.2863   24.1463 H   0  0  0  0  0  0
  -31.6954  -17.6342   25.3776 H   0  0  0  0  0  0
  -30.8885  -15.5372   24.3951 H   0  0  0  0  0  0
  -31.2397  -17.2351   20.4454 H   0  0  0  0  0  0
  -32.7601  -21.9813   20.3865 H   0  0  0  0  0  0
  -30.7037  -21.6078   18.1529 H   0  0  0  0  0  0
  -32.4544  -19.8512   25.2305 H   0  0  0  0  0  0
  -31.5486  -20.7238   24.0068 H   0  0  0  0  0  0
  -33.2618  -20.3606   23.7528 H   0  0  0  0  0  0
  -28.7308  -23.9494   17.0380 H   0  0  0  0  0  0
  -30.2307  -23.4255   16.3084 H   0  0  0  0  0  0
  -29.8609  -25.1427   16.3878 H   0  0  0  0  0  0
  -32.2295  -23.5578   17.3954 H   0  0  0  0  0  0
  -32.3989  -24.0358   19.0583 H   0  0  0  0  0  0
  -27.8322  -24.9542   19.1894 H   0  0  0  0  0  0
  -28.4998  -26.1765   18.0888 H   0  0  0  0  0  0
  -32.6005  -20.4504   21.7953 H   0  0  0  0  0  0
  -29.8455  -14.5141   22.4377 H   0  0  0  0  0  0
  1 25  1  0  0  0
  1 30  2  0  0  0
  1 86  1  0  0  0
  2  3  1  0  0  0
  2 25  1  0  0  0
  2 90  1  0  0  0
  2 91  1  0  0  0
  3  4  1  0  0  0
  3 92  1  0  0  0
  3 93  1  0  0  0
  4  5  1  0  0  0
  4 94  1  0  0  0
  4 95  1  0  0  0
  5  6  1  0  0  0
  5 26  1  0  0  0
  5 96  1  0  0  0
  6 25  1  0  0  0
  6 97  1  0  0  0
  6 98  1  0  0  0
  7  8  2  0  0  0
  7 26  1  0  0  0
  7 29  1  0  0  0
  8  9  1  0  0  0
  8 22  1  0  0  0
  9 10  1  0  0  0
  9 27  2  0  0  0
 10 11  2  0  0  0
 10 15  1  0  0  0
 11 12  1  0  0  0
 11 99  1  0  0  0
 12 13  2  0  0  0
 12100  1  0  0  0
 13 14  1  0  0  0
 13 31  1  0  0  0
 14 15  2  0  0  0
 14101  1  0  0  0
 15102  1  0  0  0
 16 17  2  0  0  0
 16 21  1  0  0  0
 16 31  1  0  0  0
 17 18  1  0  0  0
 17103  1  0  0  0
 18 19  2  0  0  0
 18104  1  0  0  0
 19 20  1  0  0  0
 19 24  1  0  0  0
 20 21  2  0  0  0
 20105  1  0  0  0
 21 23  1  0  0  0
 22 28  1  0  0  0
 22 32  2  0  0  0
 26 27  1  0  0  0
 28106  1  0  0  0
 28107  1  0  0  0
 29108  1  0  0  0
 29109  1  0  0  0
 33 34  1  0  0  0
 33 66  1  0  0  0
 33 70  2  0  0  0
 34 36  1  0  0  0
 34 59  1  0  0  0
 34110  1  0  0  0
 35 44  2  0  0  0
 35 45  1  0  0  0
 35 68  1  0  0  0
 36 56  1  0  0  0
 36111  1  0  0  0
 37 39  1  0  0  0
 37 47  1  0  0  0
 37 66  1  0  0  0
 37112  1  0  0  0
 38 43  2  0  0  0
 38 46  1  0  0  0
 38 47  1  0  0  0
 39 64  1  0  0  0
 39 67  2  0  0  0
 40 52  1  0  0  0
 40 53  2  0  0  0
 40 58  1  0  0  0
 41113  1  0  0  0
 41114  1  0  0  0
 41115  1  0  0  0
 41 48  1  0  0  0
 42 43  1  0  0  0
 42 66  1  0  0  0
 42116  1  0  0  0
 42117  1  0  0  0
 43 44  1  0  0  0
 44118  1  0  0  0
 45 46  2  0  0  0
 45119  1  0  0  0
 46120  1  0  0  0
 47121  1  0  0  0
 47122  1  0  0  0
 48 56  1  0  0  0
 48 65  1  0  0  0
 48123  1  0  0  0
 49 50  1  0  0  0
 49 53  1  0  0  0
 49 64  1  0  0  0
 49124  1  0  0  0
 50 51  1  0  0  0
 50125  1  0  0  0
 50126  1  0  0  0
 51 52  1  0  0  0
 51127  1  0  0  0
 51128  1  0  0  0
 52129  1  0  0  0
 52130  1  0  0  0
 53 54  1  0  0  0
 54 55  2  0  0  0
 54131  1  0  0  0
 55 57  1  0  0  0
 55132  1  0  0  0
 56 69  2  0  0  0
 57 58  2  0  0  0
 57133  1  0  0  0
 58134  1  0  0  0
 59 60  1  0  0  0
 59 61  1  0  0  0
 59 62  1  0  0  0
 60135  1  0  0  0
 60136  1  0  0  0
 60137  1  0  0  0
 61138  1  0  0  0
 61139  1  0  0  0
 61140  1  0  0  0
 62141  1  0  0  0
 62142  1  0  0  0
 62143  1  0  0  0
 63 65  1  0  0  0
 63144  1  0  0  0
 63145  1  0  0  0
 63146  1  0  0  0
 64147  1  0  0  0
 65148  1  0  0  0
 68 84  1  0  0  0
 71 72  2  0  0  0
 71 74  1  0  0  0
 71149  1  0  0  0
 72 75  1  0  0  0
 72150  1  0  0  0
 73 75  2  0  0  0
 73 76  1  0  0  0
 73151  1  0  0  0
 74 76  2  0  0  0
 74 81  1  0  0  0
 75 86  1  0  0  0
 76 85  1  0  0  0
 77 78  2  0  0  0
 77 79  1  0  0  0
 77152  1  0  0  0
 78 83  1  0  0  0
 78153  1  0  0  0
 79 85  1  0  0  0
 79 88  2  0  0  0
 80 84  1  0  0  0
 80 87  1  0  0  0
 80 89  2  0  0  0
 81154  1  0  0  0
 81155  1  0  0  0
 81156  1  0  0  0
 82 87  1  0  0  0
 82157  1  0  0  0
 82158  1  0  0  0
 82159  1  0  0  0
 83 87  1  0  0  0
 83160  1  0  0  0
 83161  1  0  0  0
 84162  1  0  0  0
 84163  1  0  0  0
 85164  1  0  0  0
 86165  1  0  0  0
M  ISO  4   1 100  68 101  84 101  86 100
M  END
> <chiral flag>
0

> <version>
0

> <s_m_source_file>
/data/baiqing/PycharmProjects/Reinvent-master-3.2/result/LINK_invent/BTK/process_docking_weight1_custom_product_contain_oxygen_bond_distance_aromatic_linkinvent_7_9_3/rearranged_h_0056.sdf

> <i_m_source_file_index>
88

> <r_mmod_Potential_Energy-OPLS-2005>
-77.5052490234375

> <r_mmod_Stretch_Energy-OPLS-2005>
37.6947326660156

> <r_mmod_Bend_Energy-OPLS-2005>
101.44849395752

> <r_mmod_Torsional_Energy-OPLS-2005>
234.368408203125

> <r_mmod_Improper_Torsional_Energy-OPLS-2005>
4.00495719909668

> <r_mmod_Van_der_Waal_Energy-OPLS-2005>
176.837203979492

> <r_mmod_Electrostatic_Energy-OPLS-2005>
-376.778198242188

> <r_mmod_Solvation_Energy-OPLS-2005>
-263.472473144531

> <b_mmod_Minimization_Converged-OPLS-2005>
0

> <r_mmod_RMS_Derivative-OPLS-2005>
2.92258262634277

$$$$
88
                    3D
 Structure written by MMmdl.
163171  0  0  1  0            999 V2000
  -30.7288  -14.4384   20.5736 C   0  0  0  0  0  0
  -30.4166  -12.2860   19.4242 C   0  0  0  0  0  0
  -29.4938  -12.4992   18.2078 C   0  0  0  0  0  0
  -28.0143  -12.3627   18.6179 C   0  0  0  0  0  0
  -27.6601  -13.2059   19.8722 C   0  0  2  0  0  0
  -28.7012  -12.9929   20.9962 C   0  0  0  0  0  0
  -25.2533  -13.8118   20.5650 C   0  0  0  0  0  0
  -24.1806  -13.0397   20.9178 C   0  0  0  0  0  0
  -24.6382  -11.6883   20.8738 C   0  0  0  0  0  0
  -23.9052  -10.4274   21.0403 C   0  0  0  0  0  0
  -24.3606   -9.4195   21.9183 C   0  0  0  0  0  0
  -23.6274   -8.2240   22.0756 C   0  0  0  0  0  0
  -22.4257   -8.0278   21.3549 C   0  0  0  0  0  0
  -21.9894   -9.0250   20.4653 C   0  0  0  0  0  0
  -22.7223  -10.2124   20.3056 C   0  0  0  0  0  0
  -21.6849   -6.0732   22.5283 C   0  0  0  0  0  0
  -21.4009   -6.5638   23.8213 C   0  0  0  0  0  0
  -21.3652   -5.6790   24.9175 C   0  0  0  0  0  0
  -21.6041   -4.3053   24.7229 C   0  0  0  0  0  0
  -21.8816   -3.8144   23.4349 C   0  0  0  0  0  0
  -21.9189   -4.6959   22.3403 C   0  0  0  0  0  0
  -22.7830  -13.5210   21.1836 C   0  0  0  0  0  0
  -22.1659   -4.2145   21.0982 F   0  0  0  0  0  0
  -21.5629   -3.4536   25.7742 F   0  0  0  0  0  0
  -30.0390  -13.2742   20.4453 N   0  0  0  0  0  0
  -26.3004  -12.9318   20.3349 N   0  0  0  0  0  0
  -25.9313  -11.6477   20.5773 N   0  0  0  0  0  0
  -22.0465  -12.8228   22.0405 N   0  0  0  0  0  0
  -25.4115  -15.1825   20.4024 N   0  0  0  0  0  0
  -31.8539  -14.5955   20.0924 O   0  0  0  0  0  0
  -21.6629   -6.8871   21.4243 O   0  0  0  0  0  0
  -22.3519  -14.5518   20.6681 O   0  0  0  0  0  0
  -24.6116  -31.8694   23.2104 C   0  0  0  0  0  0
  -25.9021  -32.4823   23.8399 C   0  0  1  0  0  0
  -27.2368  -27.4541   20.0882 C   0  0  0  0  0  0
  -25.5890  -33.8625   24.2336 N   0  0  0  0  0  0
  -23.3979  -30.4915   21.5525 C   0  0  2  0  0  0
  -24.8414  -28.9556   20.1199 C   0  0  0  0  0  0
  -22.7397  -29.4658   22.5020 C   0  0  0  0  0  0
  -18.0271  -28.1362   22.8496 C   0  0  0  0  0  0
  -24.1484  -36.7312   23.2641 C   0  0  0  0  0  0
  -25.9235  -30.8417   21.3575 C   0  0  0  0  0  0
  -26.0005  -29.4772   20.7051 C   0  0  0  0  0  0
  -27.2000  -28.7349   20.6803 C   0  0  0  0  0  0
  -26.0555  -26.9353   19.5096 C   0  0  0  0  0  0
  -24.8616  -27.6823   19.5230 C   0  0  0  0  0  0
  -23.6030  -29.8202   20.1681 C   0  0  0  0  0  0
  -25.4103  -36.3115   24.0346 C   0  0  1  0  0  0
  -20.5857  -28.3641   23.1334 C   0  0  2  0  0  0
  -20.6755  -26.9384   22.5418 C   0  0  0  0  0  0
  -19.5735  -26.6377   21.5209 C   0  0  0  0  0  0
  -18.1914  -26.7911   22.1624 C   0  0  0  0  0  0
  -19.1521  -28.8822   23.2908 C   0  0  0  0  0  0
  -18.9448  -30.1432   23.8910 C   0  0  0  0  0  0
  -17.6450  -30.6573   24.0561 C   0  0  0  0  0  0
  -25.9029  -34.9481   23.5138 C   0  0  0  0  0  0
  -16.5341  -29.9072   23.6325 C   0  0  0  0  0  0
  -16.7261  -28.6487   23.0351 C   0  0  0  0  0  0
  -26.4461  -31.6596   25.0718 C   0  0  0  0  0  0
  -25.3743  -31.3694   26.1480 C   0  0  0  0  0  0
  -27.0290  -30.3049   24.6061 C   0  0  0  0  0  0
  -27.6048  -32.4311   25.7468 C   0  0  0  0  0  0
  -27.5581  -37.1808   24.8471 C   0  0  0  0  0  0
  -21.4133  -29.3016   22.3754 N   0  0  0  0  0  0
  -26.4294  -37.3795   23.9411 N   0  0  0  0  0  0
  -24.6630  -31.0814   22.0989 N   0  0  0  0  0  0
  -23.4186  -28.8207   23.3055 O   0  0  0  0  0  0
  -28.4374  -26.7787   20.0867 O   0  0  0  0  0  0
  -26.5593  -34.8932   22.4698 O   0  0  0  0  0  0
  -23.5315  -32.1440   23.7512 O   0  0  0  0  0  0
  -32.3817  -18.2454   21.1521 C   0  0  0  0  0  0
  -32.0482  -19.4058   20.5702 C   0  0  0  0  0  0
  -31.6652  -17.1462   21.4234 C   0  0  0  0  0  0
  -29.4846  -19.0289   20.5760 C   0  0  0  0  0  0
  -29.3783  -17.7150   20.9064 C   0  0  0  0  0  0
  -30.3801  -16.8268   21.1602 C   0  0  0  0  0  0
  -30.6668  -19.8959   20.3384 C   0  0  0  0  0  0
  -31.1448  -22.1751   19.6953 C   0  0  0  0  0  0
  -27.9402  -17.2001   20.9680 C   0  0  0  0  0  0
  -32.5874  -22.3660   20.0906 C   0  0  0  0  0  0
  -28.7079  -24.8005   18.6600 C   0  0  0  0  0  0
  -29.1863  -23.3341   18.6533 C   0  0  0  0  0  0
  -28.4400  -25.3504   20.0724 C   0  0  0  0  0  0
  -30.3652  -21.0685   19.8968 N   0  0  0  0  0  0
  -30.0282  -15.4586   21.1094 N   0  0  0  0  0  0
  -30.5894  -23.1886   19.1084 N   0  3  0  0  0  0
  -31.4625  -12.3672   19.1242 H   0  0  0  0  0  0
  -30.3033  -11.2768   19.8223 H   0  0  0  0  0  0
  -29.7314  -11.7819   17.4217 H   0  0  0  0  0  0
  -29.6693  -13.4877   17.7806 H   0  0  0  0  0  0
  -27.8217  -11.3072   18.8144 H   0  0  0  0  0  0
  -27.3665  -12.6371   17.7846 H   0  0  0  0  0  0
  -27.7011  -14.2516   19.5678 H   0  0  0  0  0  0
  -28.6673  -11.9642   21.3566 H   0  0  0  0  0  0
  -28.4652  -13.6096   21.8644 H   0  0  0  0  0  0
  -25.2751   -9.5666   22.4757 H   0  0  0  0  0  0
  -23.9973   -7.4632   22.7480 H   0  0  0  0  0  0
  -21.0822   -8.8770   19.8967 H   0  0  0  0  0  0
  -22.3678  -10.9664   19.6167 H   0  0  0  0  0  0
  -21.2002   -7.6148   23.9709 H   0  0  0  0  0  0
  -21.1473   -6.0529   25.9076 H   0  0  0  0  0  0
  -22.0600   -2.7609   23.2856 H   0  0  0  0  0  0
  -22.4061  -11.9900   22.4826 H   0  0  0  0  0  0
  -21.1091  -13.1277   22.2603 H   0  0  0  0  0  0
  -24.6360  -15.8257   20.5166 H   0  0  0  0  0  0
  -26.2573  -15.6362   20.0864 H   0  0  0  0  0  0
  -26.7090  -32.5542   23.1170 H   0  0  0  0  0  0
  -25.0048  -33.9789   25.0485 H   0  0  0  0  0  0
  -22.6858  -31.3072   21.4138 H   0  0  0  0  0  0
  -23.3745  -35.9647   23.3316 H   0  0  0  0  0  0
  -24.3579  -36.8904   22.2053 H   0  0  0  0  0  0
  -23.7236  -37.6524   23.6639 H   0  0  0  0  0  0
  -26.0322  -31.6093   20.5902 H   0  0  0  0  0  0
  -26.8127  -30.8959   21.9734 H   0  0  0  0  0  0
  -28.1005  -29.1397   21.1206 H   0  0  0  0  0  0
  -26.0415  -25.9643   19.0378 H   0  0  0  0  0  0
  -23.9658  -27.2735   19.0766 H   0  0  0  0  0  0
  -23.7095  -30.5929   19.4059 H   0  0  0  0  0  0
  -22.7273  -29.2384   19.8745 H   0  0  0  0  0  0
  -25.1273  -36.1991   25.0840 H   0  0  0  0  0  0
  -20.9945  -28.3188   24.1457 H   0  0  0  0  0  0
  -20.5649  -26.2248   23.3596 H   0  0  0  0  0  0
  -21.6626  -26.7416   22.1216 H   0  0  0  0  0  0
  -19.6890  -25.6292   21.1225 H   0  0  0  0  0  0
  -19.6672  -27.3199   20.6749 H   0  0  0  0  0  0
  -17.4185  -26.6670   21.4025 H   0  0  0  0  0  0
  -18.0311  -26.0044   22.9011 H   0  0  0  0  0  0
  -19.7926  -30.7243   24.2285 H   0  0  0  0  0  0
  -17.5005  -31.6257   24.5149 H   0  0  0  0  0  0
  -15.5341  -30.2974   23.7637 H   0  0  0  0  0  0
  -15.8665  -28.0802   22.7063 H   0  0  0  0  0  0
  -24.5898  -30.7061   25.7816 H   0  0  0  0  0  0
  -24.8956  -32.2850   26.4967 H   0  0  0  0  0  0
  -25.8108  -30.8831   27.0213 H   0  0  0  0  0  0
  -26.2822  -29.6815   24.1131 H   0  0  0  0  0  0
  -27.4102  -29.7275   25.4492 H   0  0  0  0  0  0
  -27.8636  -30.4388   23.9175 H   0  0  0  0  0  0
  -27.2674  -33.3592   26.2096 H   0  0  0  0  0  0
  -28.3825  -32.6904   25.0272 H   0  0  0  0  0  0
  -28.0760  -31.8411   26.5340 H   0  0  0  0  0  0
  -28.2610  -38.0093   24.7503 H   0  0  0  0  0  0
  -28.1065  -36.2626   24.6311 H   0  0  0  0  0  0
  -27.2304  -37.1474   25.8877 H   0  0  0  0  0  0
  -20.9297  -29.8744   21.6979 H   0  0  0  0  0  0
  -26.0191  -38.2879   24.1403 H   0  0  0  0  0  0
  -33.4416  -18.1354   21.3350 H   0  0  0  0  0  0
  -32.8566  -19.8824   20.0444 H   0  0  0  0  0  0
  -32.2366  -16.3734   21.9210 H   0  0  0  0  0  0
  -28.5462  -19.5316   20.3874 H   0  0  0  0  0  0
  -27.2078  -18.0007   21.0834 H   0  0  0  0  0  0
  -27.7826  -16.5250   21.8109 H   0  0  0  0  0  0
  -27.7093  -16.6748   20.0426 H   0  0  0  0  0  0
  -33.2488  -21.9316   19.3411 H   0  0  0  0  0  0
  -32.7944  -21.9281   21.0661 H   0  0  0  0  0  0
  -32.8374  -23.4235   20.1744 H   0  0  0  0  0  0
  -27.7990  -24.8789   18.0644 H   0  0  0  0  0  0
  -29.4449  -25.4243   18.1537 H   0  0  0  0  0  0
  -29.1567  -22.9411   17.6360 H   0  0  0  0  0  0
  -28.5410  -22.7073   19.2697 H   0  0  0  0  0  0
  -29.2495  -25.0444   20.7360 H   0  0  0  0  0  0
  -27.5351  -24.9210   20.5051 H   0  0  0  0  0  0
  -29.0741  -15.2474   21.3541 H   0  0  0  0  0  0
  -31.1944  -23.9725   18.8759 H   0  0  0  0  0  0
  1 25  1  0  0  0
  1 30  2  0  0  0
  1 85  1  0  0  0
  2  3  1  0  0  0
  2 25  1  0  0  0
  2 87  1  0  0  0
  2 88  1  0  0  0
  3  4  1  0  0  0
  3 89  1  0  0  0
  3 90  1  0  0  0
  4  5  1  0  0  0
  4 91  1  0  0  0
  4 92  1  0  0  0
  5  6  1  0  0  0
  5 26  1  0  0  0
  5 93  1  0  0  0
  6 25  1  0  0  0
  6 94  1  0  0  0
  6 95  1  0  0  0
  7  8  2  0  0  0
  7 26  1  0  0  0
  7 29  1  0  0  0
  8  9  1  0  0  0
  8 22  1  0  0  0
  9 10  1  0  0  0
  9 27  2  0  0  0
 10 11  2  0  0  0
 10 15  1  0  0  0
 11 12  1  0  0  0
 11 96  1  0  0  0
 12 13  2  0  0  0
 12 97  1  0  0  0
 13 14  1  0  0  0
 13 31  1  0  0  0
 14 15  2  0  0  0
 14 98  1  0  0  0
 15 99  1  0  0  0
 16 17  2  0  0  0
 16 21  1  0  0  0
 16 31  1  0  0  0
 17 18  1  0  0  0
 17100  1  0  0  0
 18 19  2  0  0  0
 18101  1  0  0  0
 19 20  1  0  0  0
 19 24  1  0  0  0
 20 21  2  0  0  0
 20102  1  0  0  0
 21 23  1  0  0  0
 22 28  1  0  0  0
 22 32  2  0  0  0
 26 27  1  0  0  0
 28103  1  0  0  0
 28104  1  0  0  0
 29105  1  0  0  0
 29106  1  0  0  0
 33 34  1  0  0  0
 33 66  1  0  0  0
 33 70  2  0  0  0
 34 36  1  0  0  0
 34 59  1  0  0  0
 34107  1  0  0  0
 35 44  2  0  0  0
 35 45  1  0  0  0
 35 68  1  0  0  0
 36 56  1  0  0  0
 36108  1  0  0  0
 37 39  1  0  0  0
 37 47  1  0  0  0
 37 66  1  0  0  0
 37109  1  0  0  0
 38 43  2  0  0  0
 38 46  1  0  0  0
 38 47  1  0  0  0
 39 64  1  0  0  0
 39 67  2  0  0  0
 40 52  1  0  0  0
 40 53  2  0  0  0
 40 58  1  0  0  0
 41110  1  0  0  0
 41111  1  0  0  0
 41112  1  0  0  0
 41 48  1  0  0  0
 42 43  1  0  0  0
 42 66  1  0  0  0
 42113  1  0  0  0
 42114  1  0  0  0
 43 44  1  0  0  0
 44115  1  0  0  0
 45 46  2  0  0  0
 45116  1  0  0  0
 46117  1  0  0  0
 47118  1  0  0  0
 47119  1  0  0  0
 48 56  1  0  0  0
 48 65  1  0  0  0
 48120  1  0  0  0
 49 50  1  0  0  0
 49 53  1  0  0  0
 49 64  1  0  0  0
 49121  1  0  0  0
 50 51  1  0  0  0
 50122  1  0  0  0
 50123  1  0  0  0
 51 52  1  0  0  0
 51124  1  0  0  0
 51125  1  0  0  0
 52126  1  0  0  0
 52127  1  0  0  0
 53 54  1  0  0  0
 54 55  2  0  0  0
 54128  1  0  0  0
 55 57  1  0  0  0
 55129  1  0  0  0
 56 69  2  0  0  0
 57 58  2  0  0  0
 57130  1  0  0  0
 58131  1  0  0  0
 59 60  1  0  0  0
 59 61  1  0  0  0
 59 62  1  0  0  0
 60132  1  0  0  0
 60133  1  0  0  0
 60134  1  0  0  0
 61135  1  0  0  0
 61136  1  0  0  0
 61137  1  0  0  0
 62138  1  0  0  0
 62139  1  0  0  0
 62140  1  0  0  0
 63 65  1  0  0  0
 63141  1  0  0  0
 63142  1  0  0  0
 63143  1  0  0  0
 64144  1  0  0  0
 65145  1  0  0  0
 68 83  1  0  0  0
 71 72  2  0  0  0
 71 73  1  0  0  0
 71146  1  0  0  0
 72 77  1  0  0  0
 72147  1  0  0  0
 73 76  2  0  0  0
 73148  1  0  0  0
 74 75  2  0  0  0
 74 77  1  0  0  0
 74149  1  0  0  0
 75 76  1  0  0  0
 75 79  1  0  0  0
 76 85  1  0  0  0
 77 84  2  0  0  0
 78 80  1  0  0  0
 78 84  1  0  0  0
 78 86  2  0  0  0
 79150  1  0  0  0
 79151  1  0  0  0
 79152  1  0  0  0
 80153  1  0  0  0
 80154  1  0  0  0
 80155  1  0  0  0
 81 82  1  0  0  0
 81 83  1  0  0  0
 81156  1  0  0  0
 81157  1  0  0  0
 82 86  1  0  0  0
 82158  1  0  0  0
 82159  1  0  0  0
 83160  1  0  0  0
 83161  1  0  0  0
 85162  1  0  0  0
 86163  1  0  0  0
M  CHG  1  86   1
M  ISO  4   1 100  68 101  83 101  85 100
M  END
> <chiral flag>
0

> <version>
0

> <s_m_source_file>
/data/baiqing/PycharmProjects/Reinvent-master-3.2/result/LINK_invent/BTK/process_docking_weight1_custom_product_contain_oxygen_bond_distance_aromatic_linkinvent_7_9_3/rearranged_h_0056.sdf

> <i_m_source_file_index>
89

> <r_mmod_Potential_Energy-OPLS-2005>
-132.435699462891

> <r_mmod_Stretch_Energy-OPLS-2005>
40.0848083496094

> <r_mmod_Bend_Energy-OPLS-2005>
162.128356933594

> <r_mmod_Torsional_Energy-OPLS-2005>
189.777770996094

> <r_mmod_Improper_Torsional_Energy-OPLS-2005>
4.81628704071045

> <r_mmod_Van_der_Waal_Energy-OPLS-2005>
179.602828979492

> <r_mmod_Electrostatic_Energy-OPLS-2005>
-298.563720703125

> <r_mmod_Solvation_Energy-OPLS-2005>
-421.631256103516

> <b_mmod_Minimization_Converged-OPLS-2005>
0

> <r_mmod_RMS_Derivative-OPLS-2005>
1.32062423229218

$$$$
89
                    3D
 Structure written by MMmdl.
170179  0  0  1  0            999 V2000
  -30.7177  -14.5003   20.6022 C   0  0  0  0  0  0
  -30.4265  -12.3353   19.4275 C   0  0  0  0  0  0
  -29.4951  -12.5171   18.2098 C   0  0  0  0  0  0
  -28.0205  -12.3691   18.6266 C   0  0  0  0  0  0
  -27.6660  -13.2158   19.8781 C   0  0  2  0  0  0
  -28.7114  -13.0113   21.0004 C   0  0  0  0  0  0
  -25.2612  -13.8170   20.5711 C   0  0  0  0  0  0
  -24.1866  -13.0453   20.9166 C   0  0  0  0  0  0
  -24.6423  -11.6914   20.8744 C   0  0  0  0  0  0
  -23.9087  -10.4300   21.0394 C   0  0  0  0  0  0
  -24.3631   -9.4213   21.9176 C   0  0  0  0  0  0
  -23.6300   -8.2264   22.0752 C   0  0  0  0  0  0
  -22.4286   -8.0295   21.3553 C   0  0  0  0  0  0
  -21.9921   -9.0268   20.4660 C   0  0  0  0  0  0
  -22.7251  -10.2141   20.3053 C   0  0  0  0  0  0
  -21.6847   -6.0749   22.5278 C   0  0  0  0  0  0
  -21.4013   -6.5648   23.8208 C   0  0  0  0  0  0
  -21.3656   -5.6798   24.9174 C   0  0  0  0  0  0
  -21.6042   -4.3060   24.7230 C   0  0  0  0  0  0
  -21.8817   -3.8156   23.4350 C   0  0  0  0  0  0
  -21.9195   -4.6975   22.3403 C   0  0  0  0  0  0
  -22.7882  -13.5241   21.1840 C   0  0  0  0  0  0
  -22.1658   -4.2147   21.0988 F   0  0  0  0  0  0
  -21.5628   -3.4547   25.7749 F   0  0  0  0  0  0
  -30.0434  -13.3222   20.4535 N   0  0  0  0  0  0
  -26.3059  -12.9362   20.3401 N   0  0  0  0  0  0
  -25.9357  -11.6507   20.5798 N   0  0  0  0  0  0
  -22.0528  -12.8247   22.0396 N   0  0  0  0  0  0
  -25.4379  -15.1899   20.4118 N   0  0  0  0  0  0
  -31.8122  -14.7097   20.0755 O   0  0  0  0  0  0
  -21.6651   -6.8900   21.4243 O   0  0  0  0  0  0
  -22.3567  -14.5547   20.6667 O   0  0  0  0  0  0
  -24.6148  -31.8677   23.2099 C   0  0  0  0  0  0
  -25.9043  -32.4824   23.8388 C   0  0  1  0  0  0
  -27.2414  -27.4085   20.1693 C   0  0  0  0  0  0
  -25.5907  -33.8621   24.2324 N   0  0  0  0  0  0
  -23.4036  -30.4884   21.5486 C   0  0  2  0  0  0
  -24.8624  -28.9529   20.1142 C   0  0  0  0  0  0
  -22.7401  -29.4658   22.4984 C   0  0  0  0  0  0
  -18.0263  -28.1374   22.8502 C   0  0  0  0  0  0
  -24.1496  -36.7312   23.2639 C   0  0  0  0  0  0
  -25.9307  -30.8377   21.3612 C   0  0  0  0  0  0
  -26.0149  -29.4654   20.7231 C   0  0  0  0  0  0
  -27.2078  -28.7051   20.7452 C   0  0  0  0  0  0
  -26.0850  -26.9316   19.5199 C   0  0  0  0  0  0
  -24.8940  -27.6864   19.5024 C   0  0  0  0  0  0
  -23.6178  -29.8173   20.1635 C   0  0  0  0  0  0
  -25.4117  -36.3096   24.0339 C   0  0  1  0  0  0
  -20.5859  -28.3665   23.1319 C   0  0  2  0  0  0
  -20.6757  -26.9395   22.5422 C   0  0  0  0  0  0
  -19.5737  -26.6386   21.5219 C   0  0  0  0  0  0
  -18.1913  -26.7919   22.1631 C   0  0  0  0  0  0
  -19.1510  -28.8837   23.2914 C   0  0  0  0  0  0
  -18.9441  -30.1441   23.8922 C   0  0  0  0  0  0
  -17.6441  -30.6584   24.0564 C   0  0  0  0  0  0
  -25.9042  -34.9472   23.5130 C   0  0  0  0  0  0
  -16.5333  -29.9088   23.6316 C   0  0  0  0  0  0
  -16.7251  -28.6506   23.0349 C   0  0  0  0  0  0
  -26.4494  -31.6575   25.0697 C   0  0  0  0  0  0
  -25.3756  -31.3660   26.1440 C   0  0  0  0  0  0
  -27.0316  -30.3017   24.6042 C   0  0  0  0  0  0
  -27.6067  -32.4294   25.7457 C   0  0  0  0  0  0
  -27.5581  -37.1806   24.8468 C   0  0  0  0  0  0
  -21.4136  -29.3033   22.3725 N   0  0  0  0  0  0
  -26.4299  -37.3780   23.9408 N   0  0  0  0  0  0
  -24.6678  -31.0797   22.0991 N   0  0  0  0  0  0
  -23.4165  -28.8230   23.3054 O   0  0  0  0  0  0
  -28.3416  -26.5657   20.1899 O   0  0  0  0  0  0
  -26.5603  -34.8930   22.4689 O   0  0  0  0  0  0
  -23.5336  -32.1413   23.7495 O   0  0  0  0  0  0
  -28.8105  -21.9240   19.4809 C   0  0  0  0  0  0
  -28.6372  -21.0147   18.4285 C   0  0  0  0  0  0
  -29.4544  -20.0713   20.9432 C   0  0  0  0  0  0
  -29.1986  -21.4675   20.7524 C   0  0  0  0  0  0
  -28.8388  -19.6324   18.6230 C   0  0  0  0  0  0
  -29.2932  -19.1276   19.8801 C   0  0  0  0  0  0
  -31.0921  -23.9945   21.5168 C   0  0  0  0  0  0
  -31.7572  -24.9948   22.4778 C   0  0  0  0  0  0
  -30.9763  -25.1119   23.8103 C   0  0  0  0  0  0
  -29.4365  -25.1583   23.6484 C   0  0  0  0  0  0
  -28.9619  -25.0056   22.1754 C   0  0  1  0  0  0
  -28.4918  -18.7210   17.4538 C   0  0  0  0  0  0
  -29.2607  -22.4870   21.9062 C   0  0  0  0  0  0
  -29.0604  -26.4053   21.4306 C   0  0  0  0  0  0
  -30.3024  -16.9444   21.1956 C   0  0  0  0  0  0
  -29.4638  -17.5822   20.0475 C   0  0  0  0  0  0
  -29.7476  -23.8686   21.6015 N   0  0  0  0  0  0
  -30.0606  -15.4761   21.2591 N   0  0  0  0  0  0
  -31.8059  -23.2538   20.8350 O   0  0  0  0  0  0
  -28.2315  -17.0818   20.1501 F   0  0  0  0  0  0
  -30.0305  -17.0866   18.9495 F   0  0  0  0  0  0
  -31.4703  -12.4344   19.1216 H   0  0  0  0  0  0
  -30.3358  -11.3242   19.8277 H   0  0  0  0  0  0
  -29.7371  -11.7842   17.4347 H   0  0  0  0  0  0
  -29.6535  -13.4999   17.7637 H   0  0  0  0  0  0
  -27.8416  -11.3119   18.8277 H   0  0  0  0  0  0
  -27.3625  -12.6349   17.7967 H   0  0  0  0  0  0
  -27.7055  -14.2632   19.5714 H   0  0  0  0  0  0
  -28.6980  -11.9774   21.3471 H   0  0  0  0  0  0
  -28.4656  -13.6149   21.8733 H   0  0  0  0  0  0
  -25.2767   -9.5677   22.4755 H   0  0  0  0  0  0
  -23.9987   -7.4656   22.7463 H   0  0  0  0  0  0
  -21.0856   -8.8804   19.8968 H   0  0  0  0  0  0
  -22.3713  -10.9688   19.6174 H   0  0  0  0  0  0
  -21.2001   -7.6149   23.9713 H   0  0  0  0  0  0
  -21.1469   -6.0534   25.9075 H   0  0  0  0  0  0
  -22.0596   -2.7615   23.2861 H   0  0  0  0  0  0
  -22.4146  -11.9919   22.4784 H   0  0  0  0  0  0
  -21.1141  -13.1265   22.2603 H   0  0  0  0  0  0
  -24.6742  -15.8482   20.5252 H   0  0  0  0  0  0
  -26.3047  -15.6310   20.1301 H   0  0  0  0  0  0
  -26.7118  -32.5560   23.1157 H   0  0  0  0  0  0
  -25.0023  -33.9770   25.0450 H   0  0  0  0  0  0
  -22.6898  -31.3032   21.4058 H   0  0  0  0  0  0
  -23.3745  -35.9654   23.3320 H   0  0  0  0  0  0
  -24.3568  -36.8905   22.2038 H   0  0  0  0  0  0
  -23.7265  -37.6539   23.6643 H   0  0  0  0  0  0
  -26.0295  -31.5966   20.5833 H   0  0  0  0  0  0
  -26.8207  -30.9038   21.9761 H   0  0  0  0  0  0
  -28.0899  -29.1105   21.2196 H   0  0  0  0  0  0
  -26.0996  -25.9503   19.0653 H   0  0  0  0  0  0
  -24.0127  -27.2836   19.0224 H   0  0  0  0  0  0
  -23.7197  -30.5901   19.3991 H   0  0  0  0  0  0
  -22.7439  -29.2316   19.8729 H   0  0  0  0  0  0
  -25.1293  -36.1957   25.0830 H   0  0  0  0  0  0
  -20.9932  -28.3236   24.1456 H   0  0  0  0  0  0
  -20.5653  -26.2277   23.3620 H   0  0  0  0  0  0
  -21.6634  -26.7447   22.1225 H   0  0  0  0  0  0
  -19.6903  -25.6307   21.1245 H   0  0  0  0  0  0
  -19.6678  -27.3208   20.6762 H   0  0  0  0  0  0
  -17.4180  -26.6655   21.4041 H   0  0  0  0  0  0
  -18.0321  -26.0059   22.9028 H   0  0  0  0  0  0
  -19.7916  -30.7253   24.2306 H   0  0  0  0  0  0
  -17.4996  -31.6270   24.5159 H   0  0  0  0  0  0
  -15.5333  -30.3004   23.7635 H   0  0  0  0  0  0
  -15.8651  -28.0840   22.7053 H   0  0  0  0  0  0
  -24.5914  -30.7049   25.7750 H   0  0  0  0  0  0
  -24.8980  -32.2805   26.4959 H   0  0  0  0  0  0
  -25.8102  -30.8751   27.0148 H   0  0  0  0  0  0
  -26.2841  -29.6769   24.1137 H   0  0  0  0  0  0
  -27.4136  -29.7272   25.4490 H   0  0  0  0  0  0
  -27.8661  -30.4353   23.9150 H   0  0  0  0  0  0
  -27.2678  -33.3559   26.2106 H   0  0  0  0  0  0
  -28.3830  -32.6898   25.0251 H   0  0  0  0  0  0
  -28.0787  -31.8367   26.5300 H   0  0  0  0  0  0
  -28.2615  -38.0085   24.7491 H   0  0  0  0  0  0
  -28.1049  -36.2613   24.6325 H   0  0  0  0  0  0
  -27.2284  -37.1501   25.8866 H   0  0  0  0  0  0
  -20.9287  -29.8737   21.6948 H   0  0  0  0  0  0
  -26.0190  -38.2866   24.1388 H   0  0  0  0  0  0
  -28.6048  -22.9716   19.3130 H   0  0  0  0  0  0
  -28.3034  -21.3871   17.4700 H   0  0  0  0  0  0
  -29.7357  -19.7218   21.9280 H   0  0  0  0  0  0
  -31.8731  -25.9634   21.9973 H   0  0  0  0  0  0
  -32.7757  -24.6678   22.6883 H   0  0  0  0  0  0
  -31.3154  -25.9802   24.3784 H   0  0  0  0  0  0
  -31.2323  -24.2514   24.4320 H   0  0  0  0  0  0
  -29.0367  -26.0637   24.1070 H   0  0  0  0  0  0
  -29.0173  -24.3411   24.2404 H   0  0  0  0  0  0
  -27.9049  -24.7433   22.2012 H   0  0  0  0  0  0
  -29.3960  -18.3245   16.9879 H   0  0  0  0  0  0
  -27.9274  -19.2494   16.6850 H   0  0  0  0  0  0
  -27.8649  -17.8881   17.7766 H   0  0  0  0  0  0
  -29.8890  -22.0673   22.6941 H   0  0  0  0  0  0
  -28.2688  -22.5370   22.3608 H   0  0  0  0  0  0
  -30.0852  -26.6788   21.2034 H   0  0  0  0  0  0
  -28.7303  -27.1634   22.1411 H   0  0  0  0  0  0
  -30.0170  -17.3702   22.1556 H   0  0  0  0  0  0
  -31.3643  -17.1619   21.0618 H   0  0  0  0  0  0
  -29.1882  -15.2034   21.6817 H   0  0  0  0  0  0
  1 25  1  0  0  0
  1 30  2  0  0  0
  1 88  1  0  0  0
  2  3  1  0  0  0
  2 25  1  0  0  0
  2 92  1  0  0  0
  2 93  1  0  0  0
  3  4  1  0  0  0
  3 94  1  0  0  0
  3 95  1  0  0  0
  4  5  1  0  0  0
  4 96  1  0  0  0
  4 97  1  0  0  0
  5  6  1  0  0  0
  5 26  1  0  0  0
  5 98  1  0  0  0
  6 25  1  0  0  0
  6 99  1  0  0  0
  6100  1  0  0  0
  7  8  2  0  0  0
  7 26  1  0  0  0
  7 29  1  0  0  0
  8  9  1  0  0  0
  8 22  1  0  0  0
  9 10  1  0  0  0
  9 27  2  0  0  0
 10 11  2  0  0  0
 10 15  1  0  0  0
 11 12  1  0  0  0
 11101  1  0  0  0
 12 13  2  0  0  0
 12102  1  0  0  0
 13 14  1  0  0  0
 13 31  1  0  0  0
 14 15  2  0  0  0
 14103  1  0  0  0
 15104  1  0  0  0
 16 17  2  0  0  0
 16 21  1  0  0  0
 16 31  1  0  0  0
 17 18  1  0  0  0
 17105  1  0  0  0
 18 19  2  0  0  0
 18106  1  0  0  0
 19 20  1  0  0  0
 19 24  1  0  0  0
 20 21  2  0  0  0
 20107  1  0  0  0
 21 23  1  0  0  0
 22 28  1  0  0  0
 22 32  2  0  0  0
 26 27  1  0  0  0
 28108  1  0  0  0
 28109  1  0  0  0
 29110  1  0  0  0
 29111  1  0  0  0
 33 34  1  0  0  0
 33 66  1  0  0  0
 33 70  2  0  0  0
 34 36  1  0  0  0
 34 59  1  0  0  0
 34112  1  0  0  0
 35 44  2  0  0  0
 35 45  1  0  0  0
 35 68  1  0  0  0
 36 56  1  0  0  0
 36113  1  0  0  0
 37 39  1  0  0  0
 37 47  1  0  0  0
 37 66  1  0  0  0
 37114  1  0  0  0
 38 43  2  0  0  0
 38 46  1  0  0  0
 38 47  1  0  0  0
 39 64  1  0  0  0
 39 67  2  0  0  0
 40 52  1  0  0  0
 40 53  2  0  0  0
 40 58  1  0  0  0
 41115  1  0  0  0
 41116  1  0  0  0
 41117  1  0  0  0
 41 48  1  0  0  0
 42 43  1  0  0  0
 42 66  1  0  0  0
 42118  1  0  0  0
 42119  1  0  0  0
 43 44  1  0  0  0
 44120  1  0  0  0
 45 46  2  0  0  0
 45121  1  0  0  0
 46122  1  0  0  0
 47123  1  0  0  0
 47124  1  0  0  0
 48 56  1  0  0  0
 48 65  1  0  0  0
 48125  1  0  0  0
 49 50  1  0  0  0
 49 53  1  0  0  0
 49 64  1  0  0  0
 49126  1  0  0  0
 50 51  1  0  0  0
 50127  1  0  0  0
 50128  1  0  0  0
 51 52  1  0  0  0
 51129  1  0  0  0
 51130  1  0  0  0
 52131  1  0  0  0
 52132  1  0  0  0
 53 54  1  0  0  0
 54 55  2  0  0  0
 54133  1  0  0  0
 55 57  1  0  0  0
 55134  1  0  0  0
 56 69  2  0  0  0
 57 58  2  0  0  0
 57135  1  0  0  0
 58136  1  0  0  0
 59 60  1  0  0  0
 59 61  1  0  0  0
 59 62  1  0  0  0
 60137  1  0  0  0
 60138  1  0  0  0
 60139  1  0  0  0
 61140  1  0  0  0
 61141  1  0  0  0
 61142  1  0  0  0
 62143  1  0  0  0
 62144  1  0  0  0
 62145  1  0  0  0
 63 65  1  0  0  0
 63146  1  0  0  0
 63147  1  0  0  0
 63148  1  0  0  0
 64149  1  0  0  0
 65150  1  0  0  0
 68 84  1  0  0  0
 71 72  2  0  0  0
 71 74  1  0  0  0
 71151  1  0  0  0
 72 75  1  0  0  0
 72152  1  0  0  0
 73 74  2  0  0  0
 73 76  1  0  0  0
 73153  1  0  0  0
 74 83  1  0  0  0
 75 76  2  0  0  0
 75 82  1  0  0  0
 76 86  1  0  0  0
 77 78  1  0  0  0
 77 87  1  0  0  0
 77 89  2  0  0  0
 78 79  1  0  0  0
 78154  1  0  0  0
 78155  1  0  0  0
 79 80  1  0  0  0
 79156  1  0  0  0
 79157  1  0  0  0
 80 81  1  0  0  0
 80158  1  0  0  0
 80159  1  0  0  0
 81 84  1  0  0  0
 81 87  1  0  0  0
 81160  1  0  0  0
 82161  1  0  0  0
 82162  1  0  0  0
 82163  1  0  0  0
 83 87  1  0  0  0
 83164  1  0  0  0
 83165  1  0  0  0
 84166  1  0  0  0
 84167  1  0  0  0
 85 86  1  0  0  0
 85 88  1  0  0  0
 85168  1  0  0  0
 85169  1  0  0  0
 86 90  1  0  0  0
 86 91  1  0  0  0
 88170  1  0  0  0
M  ISO  4   1 100  68 101  84 101  88 100
M  END
> <chiral flag>
0

> <version>
0

> <s_m_source_file>
/data/baiqing/PycharmProjects/Reinvent-master-3.2/result/LINK_invent/BTK/process_docking_weight1_custom_product_contain_oxygen_bond_distance_aromatic_linkinvent_7_9_3/rearranged_h_0056.sdf

> <i_m_source_file_index>
90

> <r_mmod_Potential_Energy-OPLS-2005>
5.04504346847534

> <r_mmod_Stretch_Energy-OPLS-2005>
60.9831504821777

> <r_mmod_Bend_Energy-OPLS-2005>
134.74104309082

> <r_mmod_Torsional_Energy-OPLS-2005>
285.643310546875

> <r_mmod_Improper_Torsional_Energy-OPLS-2005>
8.44880962371826

> <r_mmod_Van_der_Waal_Energy-OPLS-2005>
171.690521240234

> <r_mmod_Electrostatic_Energy-OPLS-2005>
-443.036865234375

> <r_mmod_Solvation_Energy-OPLS-2005>
-232.700775146484

> <b_mmod_Minimization_Converged-OPLS-2005>
0

> <r_mmod_RMS_Derivative-OPLS-2005>
4.36113500595093

$$$$
90
                    3D
 Structure written by MMmdl.
173182  0  0  1  0            999 V2000
  -30.7471  -14.4038   20.6256 C   0  0  0  0  0  0
  -30.4159  -12.2833   19.4120 C   0  0  0  0  0  0
  -29.4885  -12.5133   18.2015 C   0  0  0  0  0  0
  -28.0108  -12.3763   18.6149 C   0  0  0  0  0  0
  -27.6665  -13.2049   19.8811 C   0  0  2  0  0  0
  -28.7069  -12.9549   20.9983 C   0  0  0  0  0  0
  -25.2552  -13.8142   20.5543 C   0  0  0  0  0  0
  -24.1842  -13.0436   20.9157 C   0  0  0  0  0  0
  -24.6401  -11.6902   20.8756 C   0  0  0  0  0  0
  -23.9063  -10.4287   21.0423 C   0  0  0  0  0  0
  -24.3615   -9.4198   21.9196 C   0  0  0  0  0  0
  -23.6288   -8.2235   22.0763 C   0  0  0  0  0  0
  -22.4270   -8.0274   21.3548 C   0  0  0  0  0  0
  -21.9909   -9.0251   20.4650 C   0  0  0  0  0  0
  -22.7241  -10.2128   20.3064 C   0  0  0  0  0  0
  -21.6850   -6.0730   22.5277 C   0  0  0  0  0  0
  -21.4007   -6.5638   23.8207 C   0  0  0  0  0  0
  -21.3663   -5.6794   24.9175 C   0  0  0  0  0  0
  -21.6043   -4.3054   24.7227 C   0  0  0  0  0  0
  -21.8821   -3.8144   23.4347 C   0  0  0  0  0  0
  -21.9190   -4.6958   22.3403 C   0  0  0  0  0  0
  -22.7857  -13.5223   21.1817 C   0  0  0  0  0  0
  -22.1658   -4.2145   21.0981 F   0  0  0  0  0  0
  -21.5634   -3.4540   25.7740 F   0  0  0  0  0  0
  -30.0467  -13.2501   20.4587 N   0  0  0  0  0  0
  -26.3044  -12.9334   20.3391 N   0  0  0  0  0  0
  -25.9336  -11.6490   20.5820 N   0  0  0  0  0  0
  -22.0511  -12.8235   22.0391 N   0  0  0  0  0  0
  -25.4155  -15.1829   20.3668 N   0  0  0  0  0  0
  -31.8313  -14.5922   20.0704 O   0  0  0  0  0  0
  -21.6636   -6.8871   21.4236 O   0  0  0  0  0  0
  -22.3541  -14.5531   20.6663 O   0  0  0  0  0  0
  -24.6119  -31.8708   23.2125 C   0  0  0  0  0  0
  -25.9034  -32.4829   23.8405 C   0  0  1  0  0  0
  -27.2372  -27.4744   20.0913 C   0  0  0  0  0  0
  -25.5906  -33.8627   24.2338 N   0  0  0  0  0  0
  -23.3983  -30.4895   21.5542 C   0  0  2  0  0  0
  -24.8463  -28.9623   20.1126 C   0  0  0  0  0  0
  -22.7420  -29.4621   22.5044 C   0  0  0  0  0  0
  -18.0265  -28.1350   22.8484 C   0  0  0  0  0  0
  -24.1490  -36.7316   23.2635 C   0  0  0  0  0  0
  -25.9209  -30.8494   21.3574 C   0  0  0  0  0  0
  -26.0024  -29.4858   20.7067 C   0  0  0  0  0  0
  -27.2051  -28.7487   20.6920 C   0  0  0  0  0  0
  -26.0699  -26.9529   19.4968 C   0  0  0  0  0  0
  -24.8721  -27.6933   19.5053 C   0  0  0  0  0  0
  -23.6047  -29.8233   20.1669 C   0  0  0  0  0  0
  -25.4101  -36.3109   24.0340 C   0  0  1  0  0  0
  -20.5856  -28.3632   23.1343 C   0  0  2  0  0  0
  -20.6759  -26.9381   22.5432 C   0  0  0  0  0  0
  -19.5744  -26.6374   21.5208 C   0  0  0  0  0  0
  -18.1913  -26.7898   22.1613 C   0  0  0  0  0  0
  -19.1516  -28.8809   23.2898 C   0  0  0  0  0  0
  -18.9447  -30.1422   23.8908 C   0  0  0  0  0  0
  -17.6452  -30.6570   24.0544 C   0  0  0  0  0  0
  -25.9032  -34.9479   23.5133 C   0  0  0  0  0  0
  -16.5341  -29.9065   23.6307 C   0  0  0  0  0  0
  -16.7254  -28.6485   23.0327 C   0  0  0  0  0  0
  -26.4477  -31.6594   25.0706 C   0  0  0  0  0  0
  -25.3754  -31.3692   26.1466 C   0  0  0  0  0  0
  -27.0272  -30.3044   24.6003 C   0  0  0  0  0  0
  -27.6049  -32.4319   25.7474 C   0  0  0  0  0  0
  -27.5576  -37.1814   24.8457 C   0  0  0  0  0  0
  -21.4155  -29.2990   22.3790 N   0  0  0  0  0  0
  -26.4292  -37.3790   23.9396 N   0  0  0  0  0  0
  -24.6619  -31.0825   22.1013 N   0  0  0  0  0  0
  -23.4214  -28.8162   23.3072 O   0  0  0  0  0  0
  -28.3899  -26.7326   20.0953 O   0  0  0  0  0  0
  -26.5577  -34.8934   22.4686 O   0  0  0  0  0  0
  -23.5330  -32.1454   23.7554 O   0  0  0  0  0  0
  -31.3964  -18.7955   20.6610 C   0  0  0  0  0  0
  -31.2953  -17.4021   20.6836 C   0  0  0  0  0  0
  -30.6117  -23.0320   20.2980 C   0  0  0  0  0  0
  -30.9476  -21.8912   22.2383 C   0  0  0  0  0  0
  -29.5397  -18.9578   22.2369 C   0  0  0  0  0  0
  -29.5289  -17.5283   22.3874 C   0  0  0  0  0  0
  -30.5018  -19.5802   21.3990 C   0  0  0  0  0  0
  -30.3512  -16.7427   21.5105 C   0  0  0  0  0  0
  -30.9475  -23.1374   21.6764 C   0  0  0  0  0  0
  -30.3870  -21.7039   20.0731 C   0  0  0  0  0  0
  -28.4878  -19.8494   22.9007 C   0  0  0  0  0  0
  -27.3075  -16.3593   22.8598 C   0  0  0  0  0  0
  -29.3276  -15.7539   24.2919 C   0  0  0  0  0  0
  -29.3971  -25.9836   22.1849 C   0  0  0  0  0  0
  -30.8567  -25.6185   21.8422 C   0  0  0  0  0  0
  -28.3776  -25.6865   21.0701 C   0  0  0  0  0  0
  -28.6282  -16.8523   23.4609 C   0  0  0  0  0  0
  -30.5966  -20.9860   21.2451 N   0  0  0  0  0  0
  -30.1635  -15.3209   21.4226 N   0  0  0  0  0  0
  -31.2571  -24.3139   22.3697 N   0  0  0  0  0  0
  -30.0139  -21.0800   18.9215 O   0  0  0  0  0  0
  -28.3013  -17.7055   24.4304 F   0  0  0  0  0  0
  -31.4614  -12.3630   19.1073 H   0  0  0  0  0  0
  -30.3007  -11.2659   19.7890 H   0  0  0  0  0  0
  -29.7200  -11.8005   17.4087 H   0  0  0  0  0  0
  -29.6654  -13.5055   17.7835 H   0  0  0  0  0  0
  -27.8149  -11.3200   18.7997 H   0  0  0  0  0  0
  -27.3607  -12.6640   17.7883 H   0  0  0  0  0  0
  -27.7210  -14.2577   19.6028 H   0  0  0  0  0  0
  -28.6744  -11.9105   21.3115 H   0  0  0  0  0  0
  -28.4656  -13.5222   21.8959 H   0  0  0  0  0  0
  -25.2759   -9.5671   22.4771 H   0  0  0  0  0  0
  -23.9990   -7.4629   22.7487 H   0  0  0  0  0  0
  -21.0840   -8.8770   19.8956 H   0  0  0  0  0  0
  -22.3703  -10.9667   19.6169 H   0  0  0  0  0  0
  -21.1994   -7.6145   23.9709 H   0  0  0  0  0  0
  -21.1486   -6.0527   25.9079 H   0  0  0  0  0  0
  -22.0596   -2.7605   23.2852 H   0  0  0  0  0  0
  -22.4123  -11.9900   22.4791 H   0  0  0  0  0  0
  -21.1126  -13.1265   22.2596 H   0  0  0  0  0  0
  -24.6349  -15.8250   20.4360 H   0  0  0  0  0  0
  -26.2518  -15.6147   19.9971 H   0  0  0  0  0  0
  -26.7094  -32.5575   23.1174 H   0  0  0  0  0  0
  -25.0077  -33.9793   25.0492 H   0  0  0  0  0  0
  -22.6824  -31.3020   21.4163 H   0  0  0  0  0  0
  -23.3749  -35.9661   23.3313 H   0  0  0  0  0  0
  -24.3593  -36.8913   22.2048 H   0  0  0  0  0  0
  -23.7258  -37.6534   23.6643 H   0  0  0  0  0  0
  -26.0214  -31.6203   20.5917 H   0  0  0  0  0  0
  -26.8119  -30.9077   21.9695 H   0  0  0  0  0  0
  -28.1029  -29.1450   21.1475 H   0  0  0  0  0  0
  -26.0882  -25.9766   19.0318 H   0  0  0  0  0  0
  -23.9812  -27.2866   19.0456 H   0  0  0  0  0  0
  -23.7109  -30.5994   19.4074 H   0  0  0  0  0  0
  -22.7295  -29.2401   19.8734 H   0  0  0  0  0  0
  -25.1283  -36.1986   25.0834 H   0  0  0  0  0  0
  -20.9919  -28.3187   24.1471 H   0  0  0  0  0  0
  -20.5658  -26.2239   23.3616 H   0  0  0  0  0  0
  -21.6627  -26.7417   22.1215 H   0  0  0  0  0  0
  -19.6898  -25.6291   21.1213 H   0  0  0  0  0  0
  -19.6667  -27.3205   20.6757 H   0  0  0  0  0  0
  -17.4182  -26.6660   21.4003 H   0  0  0  0  0  0
  -18.0281  -26.0041   22.9003 H   0  0  0  0  0  0
  -19.7929  -30.7214   24.2311 H   0  0  0  0  0  0
  -17.5004  -31.6247   24.5140 H   0  0  0  0  0  0
  -15.5341  -30.2953   23.7627 H   0  0  0  0  0  0
  -15.8664  -28.0802   22.7023 H   0  0  0  0  0  0
  -24.5916  -30.7047   25.7811 H   0  0  0  0  0  0
  -24.8966  -32.2857   26.4936 H   0  0  0  0  0  0
  -25.8134  -30.8850   27.0207 H   0  0  0  0  0  0
  -26.2770  -29.6840   24.1090 H   0  0  0  0  0  0
  -27.4091  -29.7238   25.4416 H   0  0  0  0  0  0
  -27.8597  -30.4348   23.9082 H   0  0  0  0  0  0
  -27.2626  -33.3596   26.2076 H   0  0  0  0  0  0
  -28.3853  -32.6931   25.0307 H   0  0  0  0  0  0
  -28.0724  -31.8437   26.5375 H   0  0  0  0  0  0
  -28.2602  -38.0108   24.7514 H   0  0  0  0  0  0
  -28.1076  -36.2644   24.6285 H   0  0  0  0  0  0
  -27.2306  -37.1471   25.8867 H   0  0  0  0  0  0
  -20.9352  -29.8745   21.7024 H   0  0  0  0  0  0
  -26.0196  -38.2870   24.1417 H   0  0  0  0  0  0
  -32.1253  -19.2690   20.0206 H   0  0  0  0  0  0
  -31.9636  -16.8813   20.0191 H   0  0  0  0  0  0
  -30.5360  -23.8248   19.5672 H   0  0  0  0  0  0
  -31.1561  -21.5501   23.2432 H   0  0  0  0  0  0
  -27.5109  -19.3677   22.9116 H   0  0  0  0  0  0
  -28.3337  -20.7814   22.3582 H   0  0  0  0  0  0
  -28.7734  -20.0982   23.9240 H   0  0  0  0  0  0
  -27.4765  -15.5944   22.1059 H   0  0  0  0  0  0
  -26.7609  -17.1726   22.3820 H   0  0  0  0  0  0
  -26.6576  -15.9335   23.6235 H   0  0  0  0  0  0
  -29.5158  -14.8307   23.7513 H   0  0  0  0  0  0
  -28.7119  -15.4720   25.1469 H   0  0  0  0  0  0
  -30.2802  -16.1092   24.6874 H   0  0  0  0  0  0
  -29.3386  -27.0481   22.4181 H   0  0  0  0  0  0
  -29.0980  -25.4764   23.1029 H   0  0  0  0  0  0
  -31.5098  -26.3553   22.3120 H   0  0  0  0  0  0
  -31.0482  -25.7025   20.7713 H   0  0  0  0  0  0
  -27.3906  -25.5664   21.5223 H   0  0  0  0  0  0
  -28.5864  -24.7361   20.5831 H   0  0  0  0  0  0
  -29.3575  -14.9666   21.9126 H   0  0  0  0  0  0
  -31.4776  -24.2537   23.3623 H   0  0  0  0  0  0
  -29.8161  -21.7513   18.2774 H   0  0  0  0  0  0
  1 25  1  0  0  0
  1 30  2  0  0  0
  1 89  1  0  0  0
  2  3  1  0  0  0
  2 25  1  0  0  0
  2 93  1  0  0  0
  2 94  1  0  0  0
  3  4  1  0  0  0
  3 95  1  0  0  0
  3 96  1  0  0  0
  4  5  1  0  0  0
  4 97  1  0  0  0
  4 98  1  0  0  0
  5  6  1  0  0  0
  5 26  1  0  0  0
  5 99  1  0  0  0
  6 25  1  0  0  0
  6100  1  0  0  0
  6101  1  0  0  0
  7  8  2  0  0  0
  7 26  1  0  0  0
  7 29  1  0  0  0
  8  9  1  0  0  0
  8 22  1  0  0  0
  9 10  1  0  0  0
  9 27  2  0  0  0
 10 11  2  0  0  0
 10 15  1  0  0  0
 11 12  1  0  0  0
 11102  1  0  0  0
 12 13  2  0  0  0
 12103  1  0  0  0
 13 14  1  0  0  0
 13 31  1  0  0  0
 14 15  2  0  0  0
 14104  1  0  0  0
 15105  1  0  0  0
 16 17  2  0  0  0
 16 21  1  0  0  0
 16 31  1  0  0  0
 17 18  1  0  0  0
 17106  1  0  0  0
 18 19  2  0  0  0
 18107  1  0  0  0
 19 20  1  0  0  0
 19 24  1  0  0  0
 20 21  2  0  0  0
 20108  1  0  0  0
 21 23  1  0  0  0
 22 28  1  0  0  0
 22 32  2  0  0  0
 26 27  1  0  0  0
 28109  1  0  0  0
 28110  1  0  0  0
 29111  1  0  0  0
 29112  1  0  0  0
 33 34  1  0  0  0
 33 66  1  0  0  0
 33 70  2  0  0  0
 34 36  1  0  0  0
 34 59  1  0  0  0
 34113  1  0  0  0
 35 44  2  0  0  0
 35 45  1  0  0  0
 35 68  1  0  0  0
 36 56  1  0  0  0
 36114  1  0  0  0
 37 39  1  0  0  0
 37 47  1  0  0  0
 37 66  1  0  0  0
 37115  1  0  0  0
 38 43  2  0  0  0
 38 46  1  0  0  0
 38 47  1  0  0  0
 39 64  1  0  0  0
 39 67  2  0  0  0
 40 52  1  0  0  0
 40 53  2  0  0  0
 40 58  1  0  0  0
 41116  1  0  0  0
 41117  1  0  0  0
 41118  1  0  0  0
 41 48  1  0  0  0
 42 43  1  0  0  0
 42 66  1  0  0  0
 42119  1  0  0  0
 42120  1  0  0  0
 43 44  1  0  0  0
 44121  1  0  0  0
 45 46  2  0  0  0
 45122  1  0  0  0
 46123  1  0  0  0
 47124  1  0  0  0
 47125  1  0  0  0
 48 56  1  0  0  0
 48 65  1  0  0  0
 48126  1  0  0  0
 49 50  1  0  0  0
 49 53  1  0  0  0
 49 64  1  0  0  0
 49127  1  0  0  0
 50 51  1  0  0  0
 50128  1  0  0  0
 50129  1  0  0  0
 51 52  1  0  0  0
 51130  1  0  0  0
 51131  1  0  0  0
 52132  1  0  0  0
 52133  1  0  0  0
 53 54  1  0  0  0
 54 55  2  0  0  0
 54134  1  0  0  0
 55 57  1  0  0  0
 55135  1  0  0  0
 56 69  2  0  0  0
 57 58  2  0  0  0
 57136  1  0  0  0
 58137  1  0  0  0
 59 60  1  0  0  0
 59 61  1  0  0  0
 59 62  1  0  0  0
 60138  1  0  0  0
 60139  1  0  0  0
 60140  1  0  0  0
 61141  1  0  0  0
 61142  1  0  0  0
 61143  1  0  0  0
 62144  1  0  0  0
 62145  1  0  0  0
 62146  1  0  0  0
 63 65  1  0  0  0
 63147  1  0  0  0
 63148  1  0  0  0
 63149  1  0  0  0
 64150  1  0  0  0
 65151  1  0  0  0
 68 86  1  0  0  0
 71 72  2  0  0  0
 71 77  1  0  0  0
 71152  1  0  0  0
 72 78  1  0  0  0
 72153  1  0  0  0
 73 79  1  0  0  0
 73 80  2  0  0  0
 73154  1  0  0  0
 74 79  2  0  0  0
 74 88  1  0  0  0
 74155  1  0  0  0
 75 76  1  0  0  0
 75 77  2  0  0  0
 75 81  1  0  0  0
 76 78  2  0  0  0
 76 87  1  0  0  0
 77 88  1  0  0  0
 78 89  1  0  0  0
 79 90  1  0  0  0
 80 88  1  0  0  0
 80 91  1  0  0  0
 81156  1  0  0  0
 81157  1  0  0  0
 81158  1  0  0  0
 82159  1  0  0  0
 82160  1  0  0  0
 82161  1  0  0  0
 82 87  1  0  0  0
 83 87  1  0  0  0
 83162  1  0  0  0
 83163  1  0  0  0
 83164  1  0  0  0
 84 85  1  0  0  0
 84 86  1  0  0  0
 84165  1  0  0  0
 84166  1  0  0  0
 85 90  1  0  0  0
 85167  1  0  0  0
 85168  1  0  0  0
 86169  1  0  0  0
 86170  1  0  0  0
 87 92  1  0  0  0
 89171  1  0  0  0
 90172  1  0  0  0
 91173  1  0  0  0
M  ISO  4   1 100  68 101  86 101  89 100
M  END
> <chiral flag>
0

> <version>
0

> <s_m_source_file>
/data/baiqing/PycharmProjects/Reinvent-master-3.2/result/LINK_invent/BTK/process_docking_weight1_custom_product_contain_oxygen_bond_distance_aromatic_linkinvent_7_9_3/rearranged_h_0056.sdf

> <i_m_source_file_index>
91

> <r_mmod_Potential_Energy-OPLS-2005>
15.5112285614014

> <r_mmod_Stretch_Energy-OPLS-2005>
43.3017578125

> <r_mmod_Bend_Energy-OPLS-2005>
121.202278137207

> <r_mmod_Torsional_Energy-OPLS-2005>
274.929046630859

> <r_mmod_Improper_Torsional_Energy-OPLS-2005>
3.87028074264526

> <r_mmod_Van_der_Waal_Energy-OPLS-2005>
166.836791992188

> <r_mmod_Electrostatic_Energy-OPLS-2005>
-382.743865966797

> <r_mmod_Solvation_Energy-OPLS-2005>
-220.232772827148

> <b_mmod_Minimization_Converged-OPLS-2005>
0

> <r_mmod_RMS_Derivative-OPLS-2005>
2.48252606391907

$$$$
91
                    3D
 Structure written by MMmdl.
167175  0  0  1  0            999 V2000
  -30.7313  -14.4768   20.6235 C   0  0  0  0  0  0
  -30.4355  -12.3260   19.4302 C   0  0  0  0  0  0
  -29.5046  -12.5207   18.2143 C   0  0  0  0  0  0
  -28.0265  -12.3635   18.6228 C   0  0  0  0  0  0
  -27.6696  -13.1954   19.8797 C   0  0  2  0  0  0
  -28.7118  -12.9918   21.0056 C   0  0  0  0  0  0
  -25.2556  -13.7837   20.5529 C   0  0  0  0  0  0
  -24.1804  -13.0258   20.9157 C   0  0  0  0  0  0
  -24.6377  -11.6753   20.8710 C   0  0  0  0  0  0
  -23.9008  -10.4210   21.0376 C   0  0  0  0  0  0
  -24.3569   -9.4174   21.9177 C   0  0  0  0  0  0
  -23.6273   -8.2209   22.0762 C   0  0  0  0  0  0
  -22.4266   -8.0245   21.3540 C   0  0  0  0  0  0
  -21.9864   -9.0206   20.4641 C   0  0  0  0  0  0
  -22.7171  -10.2084   20.3037 C   0  0  0  0  0  0
  -21.6863   -6.0718   22.5277 C   0  0  0  0  0  0
  -21.4021   -6.5617   23.8203 C   0  0  0  0  0  0
  -21.3648   -5.6774   24.9178 C   0  0  0  0  0  0
  -21.6035   -4.3038   24.7210 C   0  0  0  0  0  0
  -21.8830   -3.8122   23.4341 C   0  0  0  0  0  0
  -21.9194   -4.6949   22.3400 C   0  0  0  0  0  0
  -22.7842  -13.5152   21.1811 C   0  0  0  0  0  0
  -22.1680   -4.2120   21.0969 F   0  0  0  0  0  0
  -21.5620   -3.4522   25.7733 F   0  0  0  0  0  0
  -30.0562  -13.2984   20.4708 N   0  0  0  0  0  0
  -26.3067  -12.9107   20.3343 N   0  0  0  0  0  0
  -25.9332  -11.6302   20.5772 N   0  0  0  0  0  0
  -22.0457  -12.8223   22.0395 N   0  0  0  0  0  0
  -25.4229  -15.1366   20.3672 N   0  0  0  0  0  0
  -31.7759  -14.7377   20.0194 O   0  0  0  0  0  0
  -21.6638   -6.8861   21.4246 O   0  0  0  0  0  0
  -22.3552  -14.5473   20.6660 O   0  0  0  0  0  0
  -24.6138  -31.8693   23.2076 C   0  0  0  0  0  0
  -25.9029  -32.4816   23.8393 C   0  0  1  0  0  0
  -27.2532  -27.4328   20.1195 C   0  0  0  0  0  0
  -25.5866  -33.8599   24.2327 N   0  0  0  0  0  0
  -23.4045  -30.4908   21.5459 C   0  0  2  0  0  0
  -24.8583  -28.9455   20.1244 C   0  0  0  0  0  0
  -22.7398  -29.4685   22.4970 C   0  0  0  0  0  0
  -18.0265  -28.1395   22.8505 C   0  0  0  0  0  0
  -24.1474  -36.7310   23.2647 C   0  0  0  0  0  0
  -25.9319  -30.8299   21.3661 C   0  0  0  0  0  0
  -26.0140  -29.4577   20.7298 C   0  0  0  0  0  0
  -27.2140  -28.7062   20.7344 C   0  0  0  0  0  0
  -26.0865  -26.9362   19.5021 C   0  0  0  0  0  0
  -24.8868  -27.6796   19.5122 C   0  0  0  0  0  0
  -23.6189  -29.8150   20.1645 C   0  0  0  0  0  0
  -25.4093  -36.3093   24.0349 C   0  0  1  0  0  0
  -20.5857  -28.3682   23.1317 C   0  0  2  0  0  0
  -20.6753  -26.9418   22.5423 C   0  0  0  0  0  0
  -19.5728  -26.6405   21.5217 C   0  0  0  0  0  0
  -18.1901  -26.7949   22.1616 C   0  0  0  0  0  0
  -19.1519  -28.8850   23.2911 C   0  0  0  0  0  0
  -18.9464  -30.1461   23.8909 C   0  0  0  0  0  0
  -17.6474  -30.6606   24.0584 C   0  0  0  0  0  0
  -25.9023  -34.9469   23.5139 C   0  0  0  0  0  0
  -16.5354  -29.9115   23.6349 C   0  0  0  0  0  0
  -16.7264  -28.6531   23.0361 C   0  0  0  0  0  0
  -26.4462  -31.6588   25.0710 C   0  0  0  0  0  0
  -25.3732  -31.3730   26.1476 C   0  0  0  0  0  0
  -27.0286  -30.3017   24.6099 C   0  0  0  0  0  0
  -27.6038  -32.4313   25.7465 C   0  0  0  0  0  0
  -27.5586  -37.1802   24.8467 C   0  0  0  0  0  0
  -21.4128  -29.3052   22.3715 N   0  0  0  0  0  0
  -26.4280  -37.3777   23.9422 N   0  0  0  0  0  0
  -24.6681  -31.0797   22.0989 N   0  0  0  0  0  0
  -23.4169  -28.8267   23.3043 O   0  0  0  0  0  0
  -28.4116  -26.6869   20.0199 O   0  0  0  0  0  0
  -26.5593  -34.8942   22.4709 O   0  0  0  0  0  0
  -23.5310  -32.1470   23.7449 O   0  0  0  0  0  0
  -28.5690  -19.1287   20.5802 C   0  0  0  0  0  0
  -30.5644  -17.7822   20.9435 C   0  0  0  0  0  0
  -28.3360  -16.8259   21.2830 C   0  0  0  0  0  0
  -29.9682  -19.0478   20.6574 C   0  0  0  0  0  0
  -27.7449  -18.0690   20.9782 C   0  0  0  0  0  0
  -29.7348  -16.6510   21.2109 C   0  0  0  0  0  0
  -29.8360  -23.7112   21.3889 C   0  0  0  0  0  0
  -28.8311  -24.6210   21.2815 C   0  0  0  0  0  0
  -29.5302  -22.2822   21.4908 C   0  0  0  0  0  0
  -25.9223  -19.6363   21.7944 C   0  0  0  0  0  0
  -25.5637  -18.2335   19.7194 C   0  0  0  0  0  0
  -31.3836  -21.2328   22.6102 C   0  0  0  0  0  0
  -30.7530  -20.3468   20.3963 C   0  0  0  0  0  0
  -28.9663  -26.1426   21.2255 C   0  0  0  0  0  0
  -26.2420  -18.3037   21.0988 C   0  0  0  0  0  0
  -30.2078  -15.3360   21.5167 N   0  0  0  0  0  0
  -30.5996  -21.4461   21.3937 N   0  0  0  0  0  0
  -28.3927  -21.8676   21.7090 O   0  0  0  0  0  0
  -25.7220  -17.3843   21.9088 F   0  0  0  0  0  0
  -31.4787  -12.4368   19.1295 H   0  0  0  0  0  0
  -30.3497  -11.3130   19.8240 H   0  0  0  0  0  0
  -29.7540  -11.8006   17.4347 H   0  0  0  0  0  0
  -29.6586  -13.5099   17.7806 H   0  0  0  0  0  0
  -27.8423  -11.3064   18.8162 H   0  0  0  0  0  0
  -27.3743  -12.6383   17.7930 H   0  0  0  0  0  0
  -27.7119  -14.2430   19.5817 H   0  0  0  0  0  0
  -28.6880  -11.9598   21.3601 H   0  0  0  0  0  0
  -28.4449  -13.5963   21.8722 H   0  0  0  0  0  0
  -25.2724   -9.5701   22.4731 H   0  0  0  0  0  0
  -23.9996   -7.4616   22.7479 H   0  0  0  0  0  0
  -21.0796   -8.8717   19.8944 H   0  0  0  0  0  0
  -22.3633  -10.9634   19.6137 H   0  0  0  0  0  0
  -21.2044   -7.6141   23.9710 H   0  0  0  0  0  0
  -21.1451   -6.0499   25.9067 H   0  0  0  0  0  0
  -22.0620   -2.7592   23.2833 H   0  0  0  0  0  0
  -22.4078  -11.9928   22.4848 H   0  0  0  0  0  0
  -21.1088  -13.1306   22.2593 H   0  0  0  0  0  0
  -24.6988  -15.8177   20.5701 H   0  0  0  0  0  0
  -26.2891  -15.5621   20.0671 H   0  0  0  0  0  0
  -26.7105  -32.5544   23.1165 H   0  0  0  0  0  0
  -24.9986  -33.9757   25.0452 H   0  0  0  0  0  0
  -22.6953  -31.3081   21.3999 H   0  0  0  0  0  0
  -23.3726  -35.9647   23.3292 H   0  0  0  0  0  0
  -24.3605  -36.8931   22.2069 H   0  0  0  0  0  0
  -23.7238  -37.6520   23.6665 H   0  0  0  0  0  0
  -26.0465  -31.5872   20.5884 H   0  0  0  0  0  0
  -26.8182  -30.8902   21.9845 H   0  0  0  0  0  0
  -28.1075  -29.1092   21.1932 H   0  0  0  0  0  0
  -26.1082  -25.9726   19.0132 H   0  0  0  0  0  0
  -24.0020  -27.2805   19.0354 H   0  0  0  0  0  0
  -23.7300  -30.5839   19.3980 H   0  0  0  0  0  0
  -22.7418  -29.2346   19.8733 H   0  0  0  0  0  0
  -25.1268  -36.1939   25.0836 H   0  0  0  0  0  0
  -20.9979  -28.3233   24.1424 H   0  0  0  0  0  0
  -20.5636  -26.2299   23.3619 H   0  0  0  0  0  0
  -21.6635  -26.7451   22.1234 H   0  0  0  0  0  0
  -19.6885  -25.6317   21.1245 H   0  0  0  0  0  0
  -19.6653  -27.3227   20.6752 H   0  0  0  0  0  0
  -17.4188  -26.6740   21.3991 H   0  0  0  0  0  0
  -18.0263  -26.0088   22.9004 H   0  0  0  0  0  0
  -19.7947  -30.7272   24.2265 H   0  0  0  0  0  0
  -17.5045  -31.6277   24.5194 H   0  0  0  0  0  0
  -15.5365  -30.3026   23.7677 H   0  0  0  0  0  0
  -15.8669  -28.0875   22.7046 H   0  0  0  0  0  0
  -24.5882  -30.7082   25.7862 H   0  0  0  0  0  0
  -24.8941  -32.2895   26.4927 H   0  0  0  0  0  0
  -25.8101  -30.8927   27.0240 H   0  0  0  0  0  0
  -26.2832  -29.6767   24.1164 H   0  0  0  0  0  0
  -27.4067  -29.7261   25.4562 H   0  0  0  0  0  0
  -27.8663  -30.4336   23.9244 H   0  0  0  0  0  0
  -27.2648  -33.3585   26.2115 H   0  0  0  0  0  0
  -28.3807  -32.6939   25.0262 H   0  0  0  0  0  0
  -28.0767  -31.8403   26.5325 H   0  0  0  0  0  0
  -28.2596  -38.0108   24.7514 H   0  0  0  0  0  0
  -28.1082  -36.2645   24.6243 H   0  0  0  0  0  0
  -27.2335  -37.1402   25.8881 H   0  0  0  0  0  0
  -20.9269  -29.8785   21.6965 H   0  0  0  0  0  0
  -26.0156  -38.2845   24.1420 H   0  0  0  0  0  0
  -28.1116  -20.0486   20.2612 H   0  0  0  0  0  0
  -31.6412  -17.6818   20.9618 H   0  0  0  0  0  0
  -27.7043  -15.9985   21.5737 H   0  0  0  0  0  0
  -30.8653  -24.0354   21.4202 H   0  0  0  0  0  0
  -27.8076  -24.2743   21.2414 H   0  0  0  0  0  0
  -26.1910  -20.4913   21.1773 H   0  0  0  0  0  0
  -26.4688  -19.7194   22.7358 H   0  0  0  0  0  0
  -24.8598  -19.7303   22.0147 H   0  0  0  0  0  0
  -25.9043  -19.0422   19.0742 H   0  0  0  0  0  0
  -24.4797  -18.3039   19.8053 H   0  0  0  0  0  0
  -25.7964  -17.3108   19.1909 H   0  0  0  0  0  0
  -31.5414  -22.1583   23.1644 H   0  0  0  0  0  0
  -32.3653  -20.8093   22.3919 H   0  0  0  0  0  0
  -30.8507  -20.5398   23.2642 H   0  0  0  0  0  0
  -30.4513  -20.7337   19.4210 H   0  0  0  0  0  0
  -31.8112  -20.1038   20.2818 H   0  0  0  0  0  0
  -30.0227  -26.4099   21.2800 H   0  0  0  0  0  0
  -28.4896  -26.5692   22.1102 H   0  0  0  0  0  0
  -29.5793  -14.8377   22.1279 H   0  0  0  0  0  0
  1 25  1  0  0  0
  1 30  2  0  0  0
  1 86  1  0  0  0
  2  3  1  0  0  0
  2 25  1  0  0  0
  2 90  1  0  0  0
  2 91  1  0  0  0
  3  4  1  0  0  0
  3 92  1  0  0  0
  3 93  1  0  0  0
  4  5  1  0  0  0
  4 94  1  0  0  0
  4 95  1  0  0  0
  5  6  1  0  0  0
  5 26  1  0  0  0
  5 96  1  0  0  0
  6 25  1  0  0  0
  6 97  1  0  0  0
  6 98  1  0  0  0
  7  8  2  0  0  0
  7 26  1  0  0  0
  7 29  1  0  0  0
  8  9  1  0  0  0
  8 22  1  0  0  0
  9 10  1  0  0  0
  9 27  2  0  0  0
 10 11  2  0  0  0
 10 15  1  0  0  0
 11 12  1  0  0  0
 11 99  1  0  0  0
 12 13  2  0  0  0
 12100  1  0  0  0
 13 14  1  0  0  0
 13 31  1  0  0  0
 14 15  2  0  0  0
 14101  1  0  0  0
 15102  1  0  0  0
 16 17  2  0  0  0
 16 21  1  0  0  0
 16 31  1  0  0  0
 17 18  1  0  0  0
 17103  1  0  0  0
 18 19  2  0  0  0
 18104  1  0  0  0
 19 20  1  0  0  0
 19 24  1  0  0  0
 20 21  2  0  0  0
 20105  1  0  0  0
 21 23  1  0  0  0
 22 28  1  0  0  0
 22 32  2  0  0  0
 26 27  1  0  0  0
 28106  1  0  0  0
 28107  1  0  0  0
 29108  1  0  0  0
 29109  1  0  0  0
 33 34  1  0  0  0
 33 66  1  0  0  0
 33 70  2  0  0  0
 34 36  1  0  0  0
 34 59  1  0  0  0
 34110  1  0  0  0
 35 44  2  0  0  0
 35 45  1  0  0  0
 35 68  1  0  0  0
 36 56  1  0  0  0
 36111  1  0  0  0
 37 39  1  0  0  0
 37 47  1  0  0  0
 37 66  1  0  0  0
 37112  1  0  0  0
 38 43  2  0  0  0
 38 46  1  0  0  0
 38 47  1  0  0  0
 39 64  1  0  0  0
 39 67  2  0  0  0
 40 52  1  0  0  0
 40 53  2  0  0  0
 40 58  1  0  0  0
 41113  1  0  0  0
 41114  1  0  0  0
 41115  1  0  0  0
 41 48  1  0  0  0
 42 43  1  0  0  0
 42 66  1  0  0  0
 42116  1  0  0  0
 42117  1  0  0  0
 43 44  1  0  0  0
 44118  1  0  0  0
 45 46  2  0  0  0
 45119  1  0  0  0
 46120  1  0  0  0
 47121  1  0  0  0
 47122  1  0  0  0
 48 56  1  0  0  0
 48 65  1  0  0  0
 48123  1  0  0  0
 49 50  1  0  0  0
 49 53  1  0  0  0
 49 64  1  0  0  0
 49124  1  0  0  0
 50 51  1  0  0  0
 50125  1  0  0  0
 50126  1  0  0  0
 51 52  1  0  0  0
 51127  1  0  0  0
 51128  1  0  0  0
 52129  1  0  0  0
 52130  1  0  0  0
 53 54  1  0  0  0
 54 55  2  0  0  0
 54131  1  0  0  0
 55 57  1  0  0  0
 55132  1  0  0  0
 56 69  2  0  0  0
 57 58  2  0  0  0
 57133  1  0  0  0
 58134  1  0  0  0
 59 60  1  0  0  0
 59 61  1  0  0  0
 59 62  1  0  0  0
 60135  1  0  0  0
 60136  1  0  0  0
 60137  1  0  0  0
 61138  1  0  0  0
 61139  1  0  0  0
 61140  1  0  0  0
 62141  1  0  0  0
 62142  1  0  0  0
 62143  1  0  0  0
 63 65  1  0  0  0
 63144  1  0  0  0
 63145  1  0  0  0
 63146  1  0  0  0
 64147  1  0  0  0
 65148  1  0  0  0
 68 84  1  0  0  0
 71 74  2  0  0  0
 71 75  1  0  0  0
 71149  1  0  0  0
 72 74  1  0  0  0
 72 76  2  0  0  0
 72150  1  0  0  0
 73 75  2  0  0  0
 73 76  1  0  0  0
 73151  1  0  0  0
 74 83  1  0  0  0
 75 85  1  0  0  0
 76 86  1  0  0  0
 77 78  2  0  0  0
 77 79  1  0  0  0
 77152  1  0  0  0
 78 84  1  0  0  0
 78153  1  0  0  0
 79 87  1  0  0  0
 79 88  2  0  0  0
 80154  1  0  0  0
 80155  1  0  0  0
 80156  1  0  0  0
 80 85  1  0  0  0
 81 85  1  0  0  0
 81157  1  0  0  0
 81158  1  0  0  0
 81159  1  0  0  0
 82 87  1  0  0  0
 82160  1  0  0  0
 82161  1  0  0  0
 82162  1  0  0  0
 83 87  1  0  0  0
 83163  1  0  0  0
 83164  1  0  0  0
 84165  1  0  0  0
 84166  1  0  0  0
 85 89  1  0  0  0
 86167  1  0  0  0
M  ISO  4   1 100  68 101  84 101  86 100
M  END
> <chiral flag>
0

> <version>
0

> <s_m_source_file>
/data/baiqing/PycharmProjects/Reinvent-master-3.2/result/LINK_invent/BTK/process_docking_weight1_custom_product_contain_oxygen_bond_distance_aromatic_linkinvent_7_9_3/rearranged_h_0056.sdf

> <i_m_source_file_index>
92

> <r_mmod_Potential_Energy-OPLS-2005>
25.3965740203857

> <r_mmod_Stretch_Energy-OPLS-2005>
44.8933563232422

> <r_mmod_Bend_Energy-OPLS-2005>
113.431495666504

> <r_mmod_Torsional_Energy-OPLS-2005>
335.7333984375

> <r_mmod_Improper_Torsional_Energy-OPLS-2005>
8.3471736907959

> <r_mmod_Van_der_Waal_Energy-OPLS-2005>
153.118072509766

> <r_mmod_Electrostatic_Energy-OPLS-2005>
-434.014831542969

> <r_mmod_Solvation_Energy-OPLS-2005>
-208.518630981445

> <b_mmod_Minimization_Converged-OPLS-2005>
0

> <r_mmod_RMS_Derivative-OPLS-2005>
3.93302369117737

$$$$
