0
                    3D
 Structure written by MMmdl.
153162  0  0  1  0            999 V2000
  -30.5086  -14.9614   20.4395 C   0  0  0  0  0  0
  -30.4519  -12.5979   19.5019 C   0  0  0  0  0  0
  -29.5270  -12.5405   18.2613 C   0  0  0  0  0  0
  -28.0595  -12.3205   18.6771 C   0  0  0  0  0  0
  -27.6336  -13.2441   19.8480 C   0  0  2  0  0  0
  -28.6769  -13.2505   20.9868 C   0  0  0  0  0  0
  -25.2382  -13.8094   20.5570 C   0  0  0  0  0  0
  -24.1735  -13.0348   20.9183 C   0  0  0  0  0  0
  -24.6398  -11.6859   20.8770 C   0  0  0  0  0  0
  -23.9082  -10.4247   21.0422 C   0  0  0  0  0  0
  -24.3626   -9.4166   21.9202 C   0  0  0  0  0  0
  -23.6291   -8.2210   22.0765 C   0  0  0  0  0  0
  -22.4272   -8.0263   21.3551 C   0  0  0  0  0  0
  -21.9915   -9.0235   20.4650 C   0  0  0  0  0  0
  -22.7256  -10.2104   20.3063 C   0  0  0  0  0  0
  -21.6839   -6.0730   22.5284 C   0  0  0  0  0  0
  -21.4002   -6.5637   23.8217 C   0  0  0  0  0  0
  -21.3658   -5.6790   24.9179 C   0  0  0  0  0  0
  -21.6044   -4.3052   24.7227 C   0  0  0  0  0  0
  -21.8819   -3.8145   23.4348 C   0  0  0  0  0  0
  -21.9189   -4.6962   22.3404 C   0  0  0  0  0  0
  -22.7764  -13.5144   21.1863 C   0  0  0  0  0  0
  -22.1659   -4.2151   21.0980 F   0  0  0  0  0  0
  -21.5633   -3.4534   25.7738 F   0  0  0  0  0  0
  -29.9561  -13.6795   20.4015 N   0  0  0  0  0  0
  -26.2895  -12.9388   20.3276 N   0  0  0  0  0  0
  -25.9350  -11.6524   20.5806 N   0  0  0  0  0  0
  -22.0427  -12.8151   22.0442 N   0  0  0  0  0  0
  -25.3851  -15.1764   20.3782 N   0  0  0  0  0  0
  -31.6982  -15.0787   20.1227 O   0  0  0  0  0  0
  -21.6627   -6.8870   21.4246 O   0  0  0  0  0  0
  -22.3449  -14.5462   20.6733 O   0  0  0  0  0  0
  -24.6428  -31.8428   23.1849 C   0  0  0  0  0  0
  -25.9196  -32.4692   23.8250 C   0  0  1  0  0  0
  -27.2313  -27.1360   20.1694 C   0  0  0  0  0  0
  -25.5944  -33.8496   24.2177 N   0  0  0  0  0  0
  -23.4471  -30.4581   21.5306 C   0  0  2  0  0  0
  -24.8982  -28.8699   20.1222 C   0  0  0  0  0  0
  -22.7556  -29.4542   22.4865 C   0  0  0  0  0  0
  -18.0300  -28.1401   22.8487 C   0  0  0  0  0  0
  -24.1484  -36.7249   23.2642 C   0  0  0  0  0  0
  -26.0003  -30.7184   21.3787 C   0  0  0  0  0  0
  -26.0747  -29.3236   20.7325 C   0  0  0  0  0  0
  -27.2437  -28.4760   20.7291 C   0  0  0  0  0  0
  -26.0254  -26.7668   19.5397 C   0  0  0  0  0  0
  -24.8846  -27.6035   19.5120 C   0  0  0  0  0  0
  -23.6752  -29.7751   20.1547 C   0  0  0  0  0  0
  -25.4117  -36.3029   24.0319 C   0  0  1  0  0  0
  -20.5913  -28.3722   23.1245 C   0  0  2  0  0  0
  -20.6785  -26.9425   22.5410 C   0  0  0  0  0  0
  -19.5757  -26.6384   21.5218 C   0  0  0  0  0  0
  -18.1939  -26.7943   22.1626 C   0  0  0  0  0  0
  -19.1558  -28.8879   23.2859 C   0  0  0  0  0  0
  -18.9477  -30.1477   23.8881 C   0  0  0  0  0  0
  -17.6476  -30.6600   24.0564 C   0  0  0  0  0  0
  -25.9068  -34.9406   23.5056 C   0  0  0  0  0  0
  -16.5364  -29.9098   23.6339 C   0  0  0  0  0  0
  -16.7284  -28.6515   23.0362 C   0  0  0  0  0  0
  -26.4522  -31.6561   25.0690 C   0  0  0  0  0  0
  -25.3717  -31.3763   26.1396 C   0  0  0  0  0  0
  -27.0374  -30.2961   24.6248 C   0  0  0  0  0  0
  -27.6051  -32.4324   25.7479 C   0  0  0  0  0  0
  -27.5571  -37.1776   24.8465 C   0  0  0  0  0  0
  -21.4249  -29.3049   22.3617 N   0  0  0  0  0  0
  -26.4277  -37.3746   23.9419 N   0  0  0  0  0  0
  -24.7168  -31.0281   22.0874 N   0  0  0  0  0  0
  -23.4194  -28.8093   23.3022 O   0  0  0  0  0  0
  -28.3359  -26.2156   20.1280 O   0  0  0  0  0  0
  -26.5655  -34.8910   22.4637 O   0  0  0  0  0  0
  -23.5549  -32.1293   23.7080 O   0  0  0  0  0  0
  -30.4749  -19.9987   20.1460 C   0  0  0  0  0  0
  -30.6479  -18.5437   20.1787 C   0  0  0  0  0  0
  -28.2493  -19.7829   20.8433 C   0  0  0  0  0  0
  -29.2603  -20.7196   20.4621 C   0  0  0  0  0  0
  -29.6260  -17.6149   20.5805 C   0  0  0  0  0  0
  -28.4291  -18.3419   20.9290 C   0  0  0  0  0  0
  -29.7248  -24.4862   21.3239 C   0  0  0  0  0  0
  -30.2031  -23.0020   21.1280 C   0  0  0  0  0  0
  -28.2442  -23.2840   19.8900 C   0  0  0  0  0  0
  -28.3495  -24.7466   20.6521 C   0  0  2  0  0  0
  -29.1224  -22.2096   20.5502 N   0  0  0  0  0  0
  -29.6552  -16.0728   20.6802 N   0  0  0  0  0  0
  -27.1055  -17.4446   21.5673 Cl  0  0  0  0  0  0
  -31.4818  -12.7752   19.1889 H   0  0  0  0  0  0
  -30.4608  -11.6395   20.0238 H   0  0  0  0  0  0
  -29.8488  -11.7472   17.5853 H   0  0  0  0  0  0
  -29.6107  -13.4729   17.7005 H   0  0  0  0  0  0
  -27.9567  -11.2773   18.9785 H   0  0  0  0  0  0
  -27.3960  -12.4569   17.8226 H   0  0  0  0  0  0
  -27.5997  -14.2518   19.4324 H   0  0  0  0  0  0
  -28.7658  -12.2632   21.4425 H   0  0  0  0  0  0
  -28.3699  -13.9273   21.7859 H   0  0  0  0  0  0
  -25.2767   -9.5634   22.4784 H   0  0  0  0  0  0
  -23.9989   -7.4591   22.7481 H   0  0  0  0  0  0
  -21.0848   -8.8758   19.8949 H   0  0  0  0  0  0
  -22.3726  -10.9647   19.6170 H   0  0  0  0  0  0
  -21.1988   -7.6146   23.9719 H   0  0  0  0  0  0
  -21.1481   -6.0520   25.9083 H   0  0  0  0  0  0
  -22.0601   -2.7608   23.2844 H   0  0  0  0  0  0
  -22.4040  -11.9804   22.4816 H   0  0  0  0  0  0
  -21.1055  -13.1192   22.2674 H   0  0  0  0  0  0
  -24.6195  -15.8200   20.5395 H   0  0  0  0  0  0
  -26.2490  -15.6492   20.1492 H   0  0  0  0  0  0
  -26.7258  -32.5304   23.0977 H   0  0  0  0  0  0
  -25.0082  -33.9606   25.0319 H   0  0  0  0  0  0
  -22.7509  -31.2838   21.3704 H   0  0  0  0  0  0
  -23.3758  -35.9568   23.3284 H   0  0  0  0  0  0
  -24.3573  -36.8897   22.2062 H   0  0  0  0  0  0
  -23.7217  -37.6432   23.6689 H   0  0  0  0  0  0
  -26.1472  -31.4656   20.5984 H   0  0  0  0  0  0
  -26.8745  -30.7797   22.0154 H   0  0  0  0  0  0
  -28.1513  -28.8312   21.1967 H   0  0  0  0  0  0
  -25.9622  -25.7969   19.0671 H   0  0  0  0  0  0
  -23.9845  -27.2496   19.0279 H   0  0  0  0  0  0
  -23.8155  -30.5434   19.3934 H   0  0  0  0  0  0
  -22.7900  -29.2166   19.8457 H   0  0  0  0  0  0
  -25.1304  -36.1846   25.0808 H   0  0  0  0  0  0
  -21.0010  -28.3305   24.1364 H   0  0  0  0  0  0
  -20.5677  -26.2332   23.3625 H   0  0  0  0  0  0
  -21.6648  -26.7428   22.1203 H   0  0  0  0  0  0
  -19.6915  -25.6291   21.1256 H   0  0  0  0  0  0
  -19.6697  -27.3191   20.6747 H   0  0  0  0  0  0
  -17.4206  -26.6694   21.4028 H   0  0  0  0  0  0
  -18.0333  -26.0093   22.9028 H   0  0  0  0  0  0
  -19.7954  -30.7303   24.2233 H   0  0  0  0  0  0
  -17.5032  -31.6281   24.5171 H   0  0  0  0  0  0
  -15.5366  -30.2999   23.7679 H   0  0  0  0  0  0
  -15.8681  -28.0832   22.7086 H   0  0  0  0  0  0
  -24.5888  -30.7113   25.7729 H   0  0  0  0  0  0
  -24.8917  -32.2955   26.4765 H   0  0  0  0  0  0
  -25.8009  -30.8973   27.0205 H   0  0  0  0  0  0
  -26.2975  -29.6693   24.1256 H   0  0  0  0  0  0
  -27.4006  -29.7246   25.4798 H   0  0  0  0  0  0
  -27.8875  -30.4205   23.9539 H   0  0  0  0  0  0
  -27.2653  -33.3666   26.1963 H   0  0  0  0  0  0
  -28.3922  -32.6808   25.0348 H   0  0  0  0  0  0
  -28.0649  -31.8500   26.5475 H   0  0  0  0  0  0
  -28.2568  -38.0093   24.7531 H   0  0  0  0  0  0
  -28.1084  -36.2621   24.6262 H   0  0  0  0  0  0
  -27.2297  -37.1386   25.8869 H   0  0  0  0  0  0
  -20.9455  -29.8760   21.6799 H   0  0  0  0  0  0
  -26.0136  -38.2806   24.1450 H   0  0  0  0  0  0
  -31.3389  -20.5819   19.8622 H   0  0  0  0  0  0
  -31.6136  -18.1453   19.9022 H   0  0  0  0  0  0
  -27.2946  -20.1796   21.1559 H   0  0  0  0  0  0
  -30.4793  -25.1512   20.9025 H   0  0  0  0  0  0
  -29.6684  -24.7308   22.3852 H   0  0  0  0  0  0
  -30.5274  -22.5734   22.0775 H   0  0  0  0  0  0
  -31.0622  -22.9740   20.4553 H   0  0  0  0  0  0
  -28.5770  -23.3955   18.8573 H   0  0  0  0  0  0
  -27.2063  -22.9522   19.8458 H   0  0  0  0  0  0
  -27.5993  -24.7192   21.4437 H   0  0  0  0  0  0
  -28.7491  -15.7274   20.9600 H   0  0  0  0  0  0
  1 25  1  0  0  0
  1 30  2  0  0  0
  1 82  1  0  0  0
  2  3  1  0  0  0
  2 25  1  0  0  0
  2 84  1  0  0  0
  2 85  1  0  0  0
  3  4  1  0  0  0
  3 86  1  0  0  0
  3 87  1  0  0  0
  4  5  1  0  0  0
  4 88  1  0  0  0
  4 89  1  0  0  0
  5  6  1  0  0  0
  5 26  1  0  0  0
  5 90  1  0  0  0
  6 25  1  0  0  0
  6 91  1  0  0  0
  6 92  1  0  0  0
  7  8  2  0  0  0
  7 26  1  0  0  0
  7 29  1  0  0  0
  8  9  1  0  0  0
  8 22  1  0  0  0
  9 10  1  0  0  0
  9 27  2  0  0  0
 10 11  2  0  0  0
 10 15  1  0  0  0
 11 12  1  0  0  0
 11 93  1  0  0  0
 12 13  2  0  0  0
 12 94  1  0  0  0
 13 14  1  0  0  0
 13 31  1  0  0  0
 14 15  2  0  0  0
 14 95  1  0  0  0
 15 96  1  0  0  0
 16 17  2  0  0  0
 16 21  1  0  0  0
 16 31  1  0  0  0
 17 18  1  0  0  0
 17 97  1  0  0  0
 18 19  2  0  0  0
 18 98  1  0  0  0
 19 20  1  0  0  0
 19 24  1  0  0  0
 20 21  2  0  0  0
 20 99  1  0  0  0
 21 23  1  0  0  0
 22 28  1  0  0  0
 22 32  2  0  0  0
 26 27  1  0  0  0
 28100  1  0  0  0
 28101  1  0  0  0
 29102  1  0  0  0
 29103  1  0  0  0
 33 34  1  0  0  0
 33 66  1  0  0  0
 33 70  2  0  0  0
 34 36  1  0  0  0
 34 59  1  0  0  0
 34104  1  0  0  0
 35 44  2  0  0  0
 35 45  1  0  0  0
 35 68  1  0  0  0
 36 56  1  0  0  0
 36105  1  0  0  0
 37 39  1  0  0  0
 37 47  1  0  0  0
 37 66  1  0  0  0
 37106  1  0  0  0
 38 43  2  0  0  0
 38 46  1  0  0  0
 38 47  1  0  0  0
 39 64  1  0  0  0
 39 67  2  0  0  0
 40 52  1  0  0  0
 40 53  2  0  0  0
 40 58  1  0  0  0
 41107  1  0  0  0
 41108  1  0  0  0
 41109  1  0  0  0
 41 48  1  0  0  0
 42 43  1  0  0  0
 42 66  1  0  0  0
 42110  1  0  0  0
 42111  1  0  0  0
 43 44  1  0  0  0
 44112  1  0  0  0
 45 46  2  0  0  0
 45113  1  0  0  0
 46114  1  0  0  0
 47115  1  0  0  0
 47116  1  0  0  0
 48 56  1  0  0  0
 48 65  1  0  0  0
 48117  1  0  0  0
 49 50  1  0  0  0
 49 53  1  0  0  0
 49 64  1  0  0  0
 49118  1  0  0  0
 50 51  1  0  0  0
 50119  1  0  0  0
 50120  1  0  0  0
 51 52  1  0  0  0
 51121  1  0  0  0
 51122  1  0  0  0
 52123  1  0  0  0
 52124  1  0  0  0
 53 54  1  0  0  0
 54 55  2  0  0  0
 54125  1  0  0  0
 55 57  1  0  0  0
 55126  1  0  0  0
 56 69  2  0  0  0
 57 58  2  0  0  0
 57127  1  0  0  0
 58128  1  0  0  0
 59 60  1  0  0  0
 59 61  1  0  0  0
 59 62  1  0  0  0
 60129  1  0  0  0
 60130  1  0  0  0
 60131  1  0  0  0
 61132  1  0  0  0
 61133  1  0  0  0
 61134  1  0  0  0
 62135  1  0  0  0
 62136  1  0  0  0
 62137  1  0  0  0
 63 65  1  0  0  0
 63138  1  0  0  0
 63139  1  0  0  0
 63140  1  0  0  0
 64141  1  0  0  0
 65142  1  0  0  0
 68 80  1  0  0  0
 71 72  2  0  0  0
 71 74  1  0  0  0
 71143  1  0  0  0
 72 75  1  0  0  0
 72144  1  0  0  0
 73 74  2  0  0  0
 73 76  1  0  0  0
 73145  1  0  0  0
 74 81  1  0  0  0
 75 76  2  0  0  0
 75 82  1  0  0  0
 76 83  1  0  0  0
 77 78  1  0  0  0
 77 80  1  0  0  0
 77146  1  0  0  0
 77147  1  0  0  0
 78 81  1  0  0  0
 78148  1  0  0  0
 78149  1  0  0  0
 79 80  1  0  0  0
 79 81  1  0  0  0
 79150  1  0  0  0
 79151  1  0  0  0
 80152  1  0  0  0
 82153  1  0  0  0
M  ISO  4   1 100  68 101  80 101  82 100
M  END
> <chiral flag>
0

> <version>
0

> <s_m_source_file>
/data/baiqing/PycharmProjects/Reinvent-master-3.2/result/LINK_invent/BTK/process_docking_weight1_custom_product_contain_oxygen_bond_distance_aromatic_linkinvent_7_9_3/rearranged_h_0012.sdf

> <i_m_source_file_index>
1

> <r_mmod_Potential_Energy-OPLS-2005>
545.043518066406

> <r_mmod_Stretch_Energy-OPLS-2005>
218.62190246582

> <r_mmod_Bend_Energy-OPLS-2005>
328.785736083984

> <r_mmod_Torsional_Energy-OPLS-2005>
308.305419921875

> <r_mmod_Improper_Torsional_Energy-OPLS-2005>
5.15500783920288

> <r_mmod_Van_der_Waal_Energy-OPLS-2005>
123.80982208252

> <r_mmod_Electrostatic_Energy-OPLS-2005>
-408.722198486328

> <r_mmod_Solvation_Energy-OPLS-2005>
-219.255401611328

> <b_mmod_Minimization_Converged-OPLS-2005>
0

> <r_mmod_RMS_Derivative-OPLS-2005>
0.86441570520401

$$$$
1
                    3D
 Structure written by MMmdl.
151159  0  0  1  0            999 V2000
  -30.6047  -14.7485   20.4403 C   0  0  0  0  0  0
  -30.4295  -12.4515   19.4792 C   0  0  0  0  0  0
  -29.5093  -12.5025   18.2391 C   0  0  0  0  0  0
  -28.0350  -12.3306   18.6529 C   0  0  0  0  0  0
  -27.6395  -13.2339   19.8515 C   0  0  2  0  0  0
  -28.6844  -13.1769   20.9880 C   0  0  0  0  0  0
  -25.2505  -13.8200   20.5725 C   0  0  0  0  0  0
  -24.1809  -13.0437   20.9232 C   0  0  0  0  0  0
  -24.6402  -11.6918   20.8771 C   0  0  0  0  0  0
  -23.9080  -10.4292   21.0423 C   0  0  0  0  0  0
  -24.3629   -9.4203   21.9193 C   0  0  0  0  0  0
  -23.6300   -8.2239   22.0754 C   0  0  0  0  0  0
  -22.4279   -8.0283   21.3548 C   0  0  0  0  0  0
  -21.9923   -9.0258   20.4651 C   0  0  0  0  0  0
  -22.7256  -10.2134   20.3068 C   0  0  0  0  0  0
  -21.6854   -6.0742   22.5274 C   0  0  0  0  0  0
  -21.4016   -6.5644   23.8209 C   0  0  0  0  0  0
  -21.3662   -5.6800   24.9171 C   0  0  0  0  0  0
  -21.6041   -4.3061   24.7223 C   0  0  0  0  0  0
  -21.8817   -3.8154   23.4343 C   0  0  0  0  0  0
  -21.9195   -4.6969   22.3400 C   0  0  0  0  0  0
  -22.7835  -13.5210   21.1883 C   0  0  0  0  0  0
  -22.1663   -4.2155   21.0980 F   0  0  0  0  0  0
  -21.5626   -3.4546   25.7736 F   0  0  0  0  0  0
  -29.9850  -13.5202   20.4022 N   0  0  0  0  0  0
  -26.2931  -12.9411   20.3298 N   0  0  0  0  0  0
  -25.9331  -11.6549   20.5776 N   0  0  0  0  0  0
  -22.0492  -12.8202   22.0443 N   0  0  0  0  0  0
  -25.4188  -15.1925   20.4150 N   0  0  0  0  0  0
  -31.7953  -14.8433   20.1292 O   0  0  0  0  0  0
  -21.6644   -6.8884   21.4237 O   0  0  0  0  0  0
  -22.3516  -14.5509   20.6722 O   0  0  0  0  0  0
  -24.6302  -31.8543   23.1953 C   0  0  0  0  0  0
  -25.9128  -32.4751   23.8313 C   0  0  1  0  0  0
  -27.2240  -27.2657   20.1183 C   0  0  0  0  0  0
  -25.5920  -33.8553   24.2240 N   0  0  0  0  0  0
  -23.4263  -30.4756   21.5398 C   0  0  2  0  0  0
  -24.8722  -28.9166   20.1074 C   0  0  0  0  0  0
  -22.7495  -29.4609   22.4924 C   0  0  0  0  0  0
  -18.0288  -28.1392   22.8484 C   0  0  0  0  0  0
  -24.1487  -36.7288   23.2639 C   0  0  0  0  0  0
  -25.9692  -30.7677   21.3722 C   0  0  0  0  0  0
  -26.0408  -29.3887   20.7156 C   0  0  0  0  0  0
  -27.2155  -28.5738   20.7112 C   0  0  0  0  0  0
  -26.0302  -26.8516   19.4900 C   0  0  0  0  0  0
  -24.8716  -27.6567   19.4847 C   0  0  0  0  0  0
  -23.6429  -29.8041   20.1567 C   0  0  0  0  0  0
  -25.4114  -36.3072   24.0326 C   0  0  1  0  0  0
  -20.5886  -28.3717   23.1283 C   0  0  2  0  0  0
  -20.6780  -26.9438   22.5429 C   0  0  0  0  0  0
  -19.5750  -26.6370   21.5241 C   0  0  0  0  0  0
  -18.1936  -26.7921   22.1662 C   0  0  0  0  0  0
  -19.1533  -28.8878   23.2869 C   0  0  0  0  0  0
  -18.9460  -30.1470   23.8891 C   0  0  0  0  0  0
  -17.6457  -30.6596   24.0564 C   0  0  0  0  0  0
  -25.9055  -34.9442   23.5090 C   0  0  0  0  0  0
  -16.5346  -29.9088   23.6326 C   0  0  0  0  0  0
  -16.7274  -28.6506   23.0351 C   0  0  0  0  0  0
  -26.4484  -31.6582   25.0711 C   0  0  0  0  0  0
  -25.3697  -31.3747   26.1430 C   0  0  0  0  0  0
  -27.0329  -30.2998   24.6202 C   0  0  0  0  0  0
  -27.6039  -32.4321   25.7484 C   0  0  0  0  0  0
  -27.5577  -37.1798   24.8464 C   0  0  0  0  0  0
  -21.4202  -29.3065   22.3679 N   0  0  0  0  0  0
  -26.4289  -37.3773   23.9405 N   0  0  0  0  0  0
  -24.6948  -31.0508   22.0927 N   0  0  0  0  0  0
  -23.4197  -28.8153   23.3029 O   0  0  0  0  0  0
  -28.3481  -26.4153   20.1977 O   0  0  0  0  0  0
  -26.5642  -34.8920   22.4669 O   0  0  0  0  0  0
  -23.5454  -32.1368   23.7258 O   0  0  0  0  0  0
  -27.2079  -19.4882   21.5878 C   0  0  0  0  0  0
  -28.0549  -18.3966   21.2953 C   0  0  0  0  0  0
  -27.5072  -20.8062   21.1724 C   0  0  0  0  0  0
  -29.5196  -19.9474   20.1343 C   0  0  0  0  0  0
  -29.2461  -18.5811   20.5658 C   0  0  0  0  0  0
  -28.6697  -21.0959   20.4213 C   0  0  0  0  0  0
  -30.2147  -17.3388   20.3010 C   0  0  0  0  0  0
  -28.4425  -25.0411   19.5952 C   0  0  0  0  0  0
  -28.1909  -23.6450   20.3865 C   0  0  0  0  0  0
  -29.8249  -15.8856   20.5931 N   0  0  0  0  0  0
  -28.9604  -22.4232   19.9726 O   0  0  0  0  0  0
  -31.4732  -12.5672   19.1820 H   0  0  0  0  0  0
  -30.3669  -11.4776   19.9669 H   0  0  0  0  0  0
  -29.7890  -11.7247   17.5268 H   0  0  0  0  0  0
  -29.6398  -13.4558   17.7237 H   0  0  0  0  0  0
  -27.8927  -11.2825   18.9191 H   0  0  0  0  0  0
  -27.3758  -12.5214   17.8052 H   0  0  0  0  0  0
  -27.6298  -14.2535   19.4650 H   0  0  0  0  0  0
  -28.7184  -12.1851   21.4404 H   0  0  0  0  0  0
  -28.4252  -13.8683   21.7914 H   0  0  0  0  0  0
  -25.2762   -9.5674   22.4787 H   0  0  0  0  0  0
  -24.0004   -7.4626   22.7467 H   0  0  0  0  0  0
  -21.0857   -8.8791   19.8955 H   0  0  0  0  0  0
  -22.3714  -10.9689   19.6198 H   0  0  0  0  0  0
  -21.2014   -7.6155   23.9712 H   0  0  0  0  0  0
  -21.1486   -6.0534   25.9075 H   0  0  0  0  0  0
  -22.0595   -2.7619   23.2842 H   0  0  0  0  0  0
  -22.4127  -11.9846   22.4794 H   0  0  0  0  0  0
  -21.1117  -13.1226   22.2669 H   0  0  0  0  0  0
  -24.6435  -15.8379   20.5151 H   0  0  0  0  0  0
  -26.2503  -15.6314   20.0423 H   0  0  0  0  0  0
  -26.7197  -32.5404   23.1060 H   0  0  0  0  0  0
  -25.0036  -33.9686   25.0366 H   0  0  0  0  0  0
  -22.7224  -31.2972   21.3922 H   0  0  0  0  0  0
  -23.3750  -35.9619   23.3301 H   0  0  0  0  0  0
  -24.3572  -36.8916   22.2052 H   0  0  0  0  0  0
  -23.7241  -37.6488   23.6667 H   0  0  0  0  0  0
  -26.1052  -31.5279   20.6015 H   0  0  0  0  0  0
  -26.8484  -30.8192   22.0031 H   0  0  0  0  0  0
  -28.1140  -28.9311   21.1951 H   0  0  0  0  0  0
  -25.9611  -25.8817   19.0211 H   0  0  0  0  0  0
  -23.9737  -27.2894   19.0059 H   0  0  0  0  0  0
  -23.7641  -30.5784   19.3980 H   0  0  0  0  0  0
  -22.7615  -29.2360   19.8552 H   0  0  0  0  0  0
  -25.1291  -36.1918   25.0819 H   0  0  0  0  0  0
  -20.9976  -28.3310   24.1403 H   0  0  0  0  0  0
  -21.6642  -26.7484   22.1202 H   0  0  0  0  0  0
  -20.5728  -26.2321   23.3632 H   0  0  0  0  0  0
  -19.6919  -25.6270   21.1310 H   0  0  0  0  0  0
  -19.6668  -27.3155   20.6743 H   0  0  0  0  0  0
  -17.4195  -26.6638   21.4082 H   0  0  0  0  0  0
  -18.0356  -26.0088   22.9095 H   0  0  0  0  0  0
  -19.7933  -30.7290   24.2272 H   0  0  0  0  0  0
  -17.5004  -31.6271   24.5164 H   0  0  0  0  0  0
  -15.5352  -30.2991   23.7643 H   0  0  0  0  0  0
  -15.8674  -28.0827   22.7075 H   0  0  0  0  0  0
  -24.5881  -30.7084   25.7759 H   0  0  0  0  0  0
  -24.8874  -32.2925   26.4810 H   0  0  0  0  0  0
  -25.7999  -30.8956   27.0236 H   0  0  0  0  0  0
  -26.2915  -29.6749   24.1208 H   0  0  0  0  0  0
  -27.3990  -29.7252   25.4721 H   0  0  0  0  0  0
  -27.8799  -30.4270   23.9457 H   0  0  0  0  0  0
  -27.2652  -33.3630   26.2047 H   0  0  0  0  0  0
  -28.3859  -32.6869   25.0316 H   0  0  0  0  0  0
  -28.0704  -31.8458   26.5415 H   0  0  0  0  0  0
  -28.2594  -38.0093   24.7503 H   0  0  0  0  0  0
  -28.1071  -36.2622   24.6295 H   0  0  0  0  0  0
  -27.2296  -37.1458   25.8869 H   0  0  0  0  0  0
  -20.9398  -29.8791   21.6884 H   0  0  0  0  0  0
  -26.0169  -38.2847   24.1401 H   0  0  0  0  0  0
  -26.3026  -19.3104   22.1519 H   0  0  0  0  0  0
  -27.7868  -17.4127   21.6538 H   0  0  0  0  0  0
  -26.8114  -21.5866   21.4399 H   0  0  0  0  0  0
  -30.4233  -20.1248   19.5692 H   0  0  0  0  0  0
  -31.1297  -17.5414   20.8597 H   0  0  0  0  0  0
  -30.5073  -17.3862   19.2510 H   0  0  0  0  0  0
  -27.9238  -25.0141   18.6374 H   0  0  0  0  0  0
  -29.4920  -24.9938   19.3051 H   0  0  0  0  0  0
  -27.1225  -23.4365   20.3304 H   0  0  0  0  0  0
  -28.4094  -23.8093   21.4412 H   0  0  0  0  0  0
  -28.8541  -15.7228   20.8082 H   0  0  0  0  0  0
  1 25  1  0  0  0
  1 30  2  0  0  0
  1 80  1  0  0  0
  2  3  1  0  0  0
  2 25  1  0  0  0
  2 82  1  0  0  0
  2 83  1  0  0  0
  3  4  1  0  0  0
  3 84  1  0  0  0
  3 85  1  0  0  0
  4  5  1  0  0  0
  4 86  1  0  0  0
  4 87  1  0  0  0
  5  6  1  0  0  0
  5 26  1  0  0  0
  5 88  1  0  0  0
  6 25  1  0  0  0
  6 89  1  0  0  0
  6 90  1  0  0  0
  7  8  2  0  0  0
  7 26  1  0  0  0
  7 29  1  0  0  0
  8  9  1  0  0  0
  8 22  1  0  0  0
  9 10  1  0  0  0
  9 27  2  0  0  0
 10 11  2  0  0  0
 10 15  1  0  0  0
 11 12  1  0  0  0
 11 91  1  0  0  0
 12 13  2  0  0  0
 12 92  1  0  0  0
 13 14  1  0  0  0
 13 31  1  0  0  0
 14 15  2  0  0  0
 14 93  1  0  0  0
 15 94  1  0  0  0
 16 17  2  0  0  0
 16 21  1  0  0  0
 16 31  1  0  0  0
 17 18  1  0  0  0
 17 95  1  0  0  0
 18 19  2  0  0  0
 18 96  1  0  0  0
 19 20  1  0  0  0
 19 24  1  0  0  0
 20 21  2  0  0  0
 20 97  1  0  0  0
 21 23  1  0  0  0
 22 28  1  0  0  0
 22 32  2  0  0  0
 26 27  1  0  0  0
 28 98  1  0  0  0
 28 99  1  0  0  0
 29100  1  0  0  0
 29101  1  0  0  0
 33 34  1  0  0  0
 33 66  1  0  0  0
 33 70  2  0  0  0
 34 36  1  0  0  0
 34 59  1  0  0  0
 34102  1  0  0  0
 35 44  2  0  0  0
 35 45  1  0  0  0
 35 68  1  0  0  0
 36 56  1  0  0  0
 36103  1  0  0  0
 37 39  1  0  0  0
 37 47  1  0  0  0
 37 66  1  0  0  0
 37104  1  0  0  0
 38 43  2  0  0  0
 38 46  1  0  0  0
 38 47  1  0  0  0
 39 64  1  0  0  0
 39 67  2  0  0  0
 40 52  1  0  0  0
 40 53  2  0  0  0
 40 58  1  0  0  0
 41105  1  0  0  0
 41106  1  0  0  0
 41107  1  0  0  0
 41 48  1  0  0  0
 42 43  1  0  0  0
 42 66  1  0  0  0
 42108  1  0  0  0
 42109  1  0  0  0
 43 44  1  0  0  0
 44110  1  0  0  0
 45 46  2  0  0  0
 45111  1  0  0  0
 46112  1  0  0  0
 47113  1  0  0  0
 47114  1  0  0  0
 48 56  1  0  0  0
 48 65  1  0  0  0
 48115  1  0  0  0
 49 50  1  0  0  0
 49 53  1  0  0  0
 49 64  1  0  0  0
 49116  1  0  0  0
 50 51  1  0  0  0
 50117  1  0  0  0
 50118  1  0  0  0
 51 52  1  0  0  0
 51119  1  0  0  0
 51120  1  0  0  0
 52121  1  0  0  0
 52122  1  0  0  0
 53 54  1  0  0  0
 54 55  2  0  0  0
 54123  1  0  0  0
 55 57  1  0  0  0
 55124  1  0  0  0
 56 69  2  0  0  0
 57 58  2  0  0  0
 57125  1  0  0  0
 58126  1  0  0  0
 59 60  1  0  0  0
 59 61  1  0  0  0
 59 62  1  0  0  0
 60127  1  0  0  0
 60128  1  0  0  0
 60129  1  0  0  0
 61130  1  0  0  0
 61131  1  0  0  0
 61132  1  0  0  0
 62133  1  0  0  0
 62134  1  0  0  0
 62135  1  0  0  0
 63 65  1  0  0  0
 63136  1  0  0  0
 63137  1  0  0  0
 63138  1  0  0  0
 64139  1  0  0  0
 65140  1  0  0  0
 68 78  1  0  0  0
 71 72  2  0  0  0
 71 73  1  0  0  0
 71141  1  0  0  0
 72 75  1  0  0  0
 72142  1  0  0  0
 73 76  2  0  0  0
 73143  1  0  0  0
 74 75  2  0  0  0
 74 76  1  0  0  0
 74144  1  0  0  0
 75 77  1  0  0  0
 76 81  1  0  0  0
 77 80  1  0  0  0
 77145  1  0  0  0
 77146  1  0  0  0
 78 79  1  0  0  0
 78147  1  0  0  0
 78148  1  0  0  0
 79 81  1  0  0  0
 79149  1  0  0  0
 79150  1  0  0  0
 80151  1  0  0  0
M  ISO  4   1 100  68 101  78 101  80 100
M  END
> <chiral flag>
0

> <version>
0

> <s_m_source_file>
/data/baiqing/PycharmProjects/Reinvent-master-3.2/result/LINK_invent/BTK/process_docking_weight1_custom_product_contain_oxygen_bond_distance_aromatic_linkinvent_7_9_3/rearranged_h_0012.sdf

> <i_m_source_file_index>
2

> <r_mmod_Potential_Energy-OPLS-2005>
103.362518310547

> <r_mmod_Stretch_Energy-OPLS-2005>
123.214546203613

> <r_mmod_Bend_Energy-OPLS-2005>
179.102401733398

> <r_mmod_Torsional_Energy-OPLS-2005>
193.321624755859

> <r_mmod_Improper_Torsional_Energy-OPLS-2005>
5.78001976013184

> <r_mmod_Van_der_Waal_Energy-OPLS-2005>
135.230133056641

> <r_mmod_Electrostatic_Energy-OPLS-2005>
-402.461730957031

> <r_mmod_Solvation_Energy-OPLS-2005>
-214.700790405273

> <b_mmod_Minimization_Converged-OPLS-2005>
0

> <r_mmod_RMS_Derivative-OPLS-2005>
1.49867081642151

$$$$
2
                    3D
 Structure written by MMmdl.
144152  0  0  1  0            999 V2000
  -30.3122  -15.6130   20.3322 C   0  0  0  0  0  0
  -30.4225  -13.0650   19.5397 C   0  0  0  0  0  0
  -29.5483  -12.6502   18.3222 C   0  0  0  0  0  0
  -28.1200  -12.2990   18.7644 C   0  0  0  0  0  0
  -27.5950  -13.3060   19.8128 C   0  0  2  0  0  0
  -28.6111  -13.6328   20.9323 C   0  0  0  0  0  0
  -25.2318  -13.8282   20.5794 C   0  0  0  0  0  0
  -24.1707  -13.0432   20.9289 C   0  0  0  0  0  0
  -24.6407  -11.6943   20.8766 C   0  0  0  0  0  0
  -23.9112  -10.4291   21.0398 C   0  0  0  0  0  0
  -24.3649   -9.4205   21.9180 C   0  0  0  0  0  0
  -23.6311   -8.2245   22.0753 C   0  0  0  0  0  0
  -22.4292   -8.0285   21.3544 C   0  0  0  0  0  0
  -21.9937   -9.0261   20.4643 C   0  0  0  0  0  0
  -22.7279  -10.2133   20.3049 C   0  0  0  0  0  0
  -21.6858   -6.0740   22.5279 C   0  0  0  0  0  0
  -21.4019   -6.5642   23.8212 C   0  0  0  0  0  0
  -21.3661   -5.6794   24.9174 C   0  0  0  0  0  0
  -21.6043   -4.3056   24.7223 C   0  0  0  0  0  0
  -21.8818   -3.8149   23.4344 C   0  0  0  0  0  0
  -21.9194   -4.6967   22.3401 C   0  0  0  0  0  0
  -22.7720  -13.5164   21.1924 C   0  0  0  0  0  0
  -22.1661   -4.2152   21.0978 F   0  0  0  0  0  0
  -21.5628   -3.4539   25.7735 F   0  0  0  0  0  0
  -29.7875  -14.2493   20.2772 N   0  0  0  0  0  0
  -26.2763  -12.9609   20.3231 N   0  0  0  0  0  0
  -25.9352  -11.6683   20.5702 N   0  0  0  0  0  0
  -22.0386  -12.8140   22.0476 N   0  0  0  0  0  0
  -25.3912  -15.2024   20.4240 N   0  0  0  0  0  0
  -31.5462  -15.5483   20.1720 O   0  0  0  0  0  0
  -21.6647   -6.8887   21.4242 O   0  0  0  0  0  0
  -22.3395  -14.5462   20.6760 O   0  0  0  0  0  0
  -24.6827  -31.7995   23.1513 C   0  0  0  0  0  0
  -25.9411  -32.4462   23.8058 C   0  0  1  0  0  0
  -27.2252  -26.6992   20.2217 C   0  0  0  0  0  0
  -25.5993  -33.8289   24.1945 N   0  0  0  0  0  0
  -23.5084  -30.4003   21.5050 C   0  0  2  0  0  0
  -24.9642  -28.7357   20.1216 C   0  0  0  0  0  0
  -22.7757  -29.4311   22.4716 C   0  0  0  0  0  0
  -18.0336  -28.1420   22.8455 C   0  0  0  0  0  0
  -24.1496  -36.7152   23.2653 C   0  0  0  0  0  0
  -26.0875  -30.5300   21.4171 C   0  0  0  0  0  0
  -26.1504  -29.0923   20.7731 C   0  0  0  0  0  0
  -27.2628  -28.1006   20.7922 C   0  0  0  0  0  0
  -26.0087  -26.5514   19.5081 C   0  0  0  0  0  0
  -24.9313  -27.4904   19.4675 C   0  0  0  0  0  0
  -23.7622  -29.6935   20.1414 C   0  0  0  0  0  0
  -25.4146  -36.2893   24.0281 C   0  0  1  0  0  0
  -20.5970  -28.3777   23.1146 C   0  0  2  0  0  0
  -20.6803  -26.9438   22.5405 C   0  0  0  0  0  0
  -19.5780  -26.6369   21.5217 C   0  0  0  0  0  0
  -18.1962  -26.7948   22.1619 C   0  0  0  0  0  0
  -19.1602  -28.8924   23.2782 C   0  0  0  0  0  0
  -18.9508  -30.1507   23.8827 C   0  0  0  0  0  0
  -17.6498  -30.6603   24.0551 C   0  0  0  0  0  0
  -25.9125  -34.9282   23.4951 C   0  0  0  0  0  0
  -16.5388  -29.9085   23.6349 C   0  0  0  0  0  0
  -16.7316  -28.6508   23.0365 C   0  0  0  0  0  0
  -26.4593  -31.6500   25.0681 C   0  0  0  0  0  0
  -25.3661  -31.3818   26.1298 C   0  0  0  0  0  0
  -27.0527  -30.2838   24.6584 C   0  0  0  0  0  0
  -27.6040  -32.4364   25.7499 C   0  0  0  0  0  0
  -27.5564  -37.1733   24.8466 C   0  0  0  0  0  0
  -21.4406  -29.3024   22.3466 N   0  0  0  0  0  0
  -26.4272  -37.3654   23.9407 N   0  0  0  0  0  0
  -24.7829  -30.9438   22.0769 N   0  0  0  0  0  0
  -23.4203  -28.7917   23.3063 O   0  0  0  0  0  0
  -28.2395  -25.5250   20.2514 O   0  0  0  0  0  0
  -26.5768  -34.8861   22.4569 O   0  0  0  0  0  0
  -23.5848  -32.1073   23.6468 O   0  0  0  0  0  0
  -28.7603  -21.3955   19.1948 C   0  0  0  0  0  0
  -28.4274  -22.8926   19.1788 C   0  0  0  0  0  0
  -29.0794  -20.4530   20.3082 C   0  0  0  0  0  0
  -28.3025  -23.9021   20.2711 C   0  0  0  0  0  0
  -28.9598  -21.4597   21.4079 C   0  0  0  0  0  0
  -28.6240  -22.9620   21.3906 C   0  0  0  0  0  0
  -29.8393  -18.7355   20.2956 C   0  0  0  0  0  0
  -29.5642  -16.9817   20.3774 N   0  0  0  0  0  0
  -29.2580  -20.9688   22.6348 F   0  0  0  0  0  0
  -28.6758  -23.5572   22.6067 F   0  0  0  0  0  0
  -31.4178  -13.3223   19.1760 H   0  0  0  0  0  0
  -30.5775  -12.2191   20.2117 H   0  0  0  0  0  0
  -29.9990  -11.8081   17.7954 H   0  0  0  0  0  0
  -29.5138  -13.4758   17.6098 H   0  0  0  0  0  0
  -28.1424  -11.2995   19.2005 H   0  0  0  0  0  0
  -27.4508  -12.2465   17.9047 H   0  0  0  0  0  0
  -27.4595  -14.2292   19.2475 H   0  0  0  0  0  0
  -28.8666  -12.7497   21.5200 H   0  0  0  0  0  0
  -28.1810  -14.3528   21.6302 H   0  0  0  0  0  0
  -25.2787   -9.5680   22.4766 H   0  0  0  0  0  0
  -24.0013   -7.4638   22.7478 H   0  0  0  0  0  0
  -21.0867   -8.8787   19.8950 H   0  0  0  0  0  0
  -22.3736  -10.9675   19.6163 H   0  0  0  0  0  0
  -21.2013   -7.6150   23.9717 H   0  0  0  0  0  0
  -21.1484   -6.0523   25.9077 H   0  0  0  0  0  0
  -22.0596   -2.7611   23.2843 H   0  0  0  0  0  0
  -22.4029  -11.9815   22.4870 H   0  0  0  0  0  0
  -21.0993  -13.1134   22.2676 H   0  0  0  0  0  0
  -24.6188  -15.8498   20.5380 H   0  0  0  0  0  0
  -26.2300  -15.6453   20.0735 H   0  0  0  0  0  0
  -26.7491  -32.4933   23.0767 H   0  0  0  0  0  0
  -25.0050  -33.9328   25.0037 H   0  0  0  0  0  0
  -22.8338  -31.2374   21.3138 H   0  0  0  0  0  0
  -23.3775  -35.9464   23.3264 H   0  0  0  0  0  0
  -24.3563  -36.8866   22.2077 H   0  0  0  0  0  0
  -23.7239  -37.6311   23.6763 H   0  0  0  0  0  0
  -26.2901  -31.2518   20.6249 H   0  0  0  0  0  0
  -26.9391  -30.5997   22.0814 H   0  0  0  0  0  0
  -28.1612  -28.3827   21.3228 H   0  0  0  0  0  0
  -25.8560  -25.6125   18.9948 H   0  0  0  0  0  0
  -24.0370  -27.2109   18.9275 H   0  0  0  0  0  0
  -23.9394  -30.4515   19.3776 H   0  0  0  0  0  0
  -22.8666  -29.1606   19.8175 H   0  0  0  0  0  0
  -25.1357  -36.1655   25.0771 H   0  0  0  0  0  0
  -21.0052  -28.3402   24.1273 H   0  0  0  0  0  0
  -20.5666  -26.2401   23.3666 H   0  0  0  0  0  0
  -21.6665  -26.7381   22.1224 H   0  0  0  0  0  0
  -19.6935  -25.6260   21.1296 H   0  0  0  0  0  0
  -19.6725  -27.3138   20.6715 H   0  0  0  0  0  0
  -17.4233  -26.6691   21.4021 H   0  0  0  0  0  0
  -18.0348  -26.0108   22.9031 H   0  0  0  0  0  0
  -19.7983  -30.7341   24.2166 H   0  0  0  0  0  0
  -17.5048  -31.6275   24.5168 H   0  0  0  0  0  0
  -15.5385  -30.2964   23.7713 H   0  0  0  0  0  0
  -15.8718  -28.0802   22.7119 H   0  0  0  0  0  0
  -24.5871  -30.7140   25.7599 H   0  0  0  0  0  0
  -24.8822  -32.3039   26.4525 H   0  0  0  0  0  0
  -25.7839  -30.9112   27.0206 H   0  0  0  0  0  0
  -26.3243  -29.6448   24.1583 H   0  0  0  0  0  0
  -27.3959  -29.7289   25.5326 H   0  0  0  0  0  0
  -27.9221  -30.3962   24.0105 H   0  0  0  0  0  0
  -27.2579  -33.3736   26.1870 H   0  0  0  0  0  0
  -28.3956  -32.6813   25.0405 H   0  0  0  0  0  0
  -28.0594  -31.8633   26.5586 H   0  0  0  0  0  0
  -28.2549  -38.0058   24.7513 H   0  0  0  0  0  0
  -28.1092  -36.2580   24.6296 H   0  0  0  0  0  0
  -27.2278  -37.1372   25.8867 H   0  0  0  0  0  0
  -20.9711  -29.8676   21.6530 H   0  0  0  0  0  0
  -26.0098  -38.2702   24.1419 H   0  0  0  0  0  0
  -28.8367  -20.9529   18.2113 H   0  0  0  0  0  0
  -28.3094  -23.3075   18.1878 H   0  0  0  0  0  0
  -30.5828  -18.8500   21.0848 H   0  0  0  0  0  0
  -30.4364  -18.7950   19.3855 H   0  0  0  0  0  0
  -28.5748  -16.8000   20.4664 H   0  0  0  0  0  0
  1 25  1  0  0  0
  1 30  2  0  0  0
  1 78  1  0  0  0
  2  3  1  0  0  0
  2 25  1  0  0  0
  2 81  1  0  0  0
  2 82  1  0  0  0
  3  4  1  0  0  0
  3 83  1  0  0  0
  3 84  1  0  0  0
  4  5  1  0  0  0
  4 85  1  0  0  0
  4 86  1  0  0  0
  5  6  1  0  0  0
  5 26  1  0  0  0
  5 87  1  0  0  0
  6 25  1  0  0  0
  6 88  1  0  0  0
  6 89  1  0  0  0
  7  8  2  0  0  0
  7 26  1  0  0  0
  7 29  1  0  0  0
  8  9  1  0  0  0
  8 22  1  0  0  0
  9 10  1  0  0  0
  9 27  2  0  0  0
 10 11  2  0  0  0
 10 15  1  0  0  0
 11 12  1  0  0  0
 11 90  1  0  0  0
 12 13  2  0  0  0
 12 91  1  0  0  0
 13 14  1  0  0  0
 13 31  1  0  0  0
 14 15  2  0  0  0
 14 92  1  0  0  0
 15 93  1  0  0  0
 16 17  2  0  0  0
 16 21  1  0  0  0
 16 31  1  0  0  0
 17 18  1  0  0  0
 17 94  1  0  0  0
 18 19  2  0  0  0
 18 95  1  0  0  0
 19 20  1  0  0  0
 19 24  1  0  0  0
 20 21  2  0  0  0
 20 96  1  0  0  0
 21 23  1  0  0  0
 22 28  1  0  0  0
 22 32  2  0  0  0
 26 27  1  0  0  0
 28 97  1  0  0  0
 28 98  1  0  0  0
 29 99  1  0  0  0
 29100  1  0  0  0
 33 34  1  0  0  0
 33 66  1  0  0  0
 33 70  2  0  0  0
 34 36  1  0  0  0
 34 59  1  0  0  0
 34101  1  0  0  0
 35 44  2  0  0  0
 35 45  1  0  0  0
 35 68  1  0  0  0
 36 56  1  0  0  0
 36102  1  0  0  0
 37 39  1  0  0  0
 37 47  1  0  0  0
 37 66  1  0  0  0
 37103  1  0  0  0
 38 43  2  0  0  0
 38 46  1  0  0  0
 38 47  1  0  0  0
 39 64  1  0  0  0
 39 67  2  0  0  0
 40 52  1  0  0  0
 40 53  2  0  0  0
 40 58  1  0  0  0
 41104  1  0  0  0
 41105  1  0  0  0
 41106  1  0  0  0
 41 48  1  0  0  0
 42 43  1  0  0  0
 42 66  1  0  0  0
 42107  1  0  0  0
 42108  1  0  0  0
 43 44  1  0  0  0
 44109  1  0  0  0
 45 46  2  0  0  0
 45110  1  0  0  0
 46111  1  0  0  0
 47112  1  0  0  0
 47113  1  0  0  0
 48 56  1  0  0  0
 48 65  1  0  0  0
 48114  1  0  0  0
 49 50  1  0  0  0
 49 53  1  0  0  0
 49 64  1  0  0  0
 49115  1  0  0  0
 50 51  1  0  0  0
 50116  1  0  0  0
 50117  1  0  0  0
 51 52  1  0  0  0
 51118  1  0  0  0
 51119  1  0  0  0
 52120  1  0  0  0
 52121  1  0  0  0
 53 54  1  0  0  0
 54 55  2  0  0  0
 54122  1  0  0  0
 55 57  1  0  0  0
 55123  1  0  0  0
 56 69  2  0  0  0
 57 58  2  0  0  0
 57124  1  0  0  0
 58125  1  0  0  0
 59 60  1  0  0  0
 59 61  1  0  0  0
 59 62  1  0  0  0
 60126  1  0  0  0
 60127  1  0  0  0
 60128  1  0  0  0
 61129  1  0  0  0
 61130  1  0  0  0
 61131  1  0  0  0
 62132  1  0  0  0
 62133  1  0  0  0
 62134  1  0  0  0
 63 65  1  0  0  0
 63135  1  0  0  0
 63136  1  0  0  0
 63137  1  0  0  0
 64138  1  0  0  0
 65139  1  0  0  0
 68 74  1  0  0  0
 71 72  2  0  0  0
 71 73  1  0  0  0
 71140  1  0  0  0
 72 74  1  0  0  0
 72141  1  0  0  0
 73 75  2  0  0  0
 73 77  1  0  0  0
 74 76  2  0  0  0
 75 76  1  0  0  0
 75 79  1  0  0  0
 76 80  1  0  0  0
 77 78  1  0  0  0
 77142  1  0  0  0
 77143  1  0  0  0
 78144  1  0  0  0
M  ISO  4   1 100  68 101  74 101  78 100
M  END
> <chiral flag>
0

> <version>
0

> <s_m_source_file>
/data/baiqing/PycharmProjects/Reinvent-master-3.2/result/LINK_invent/BTK/process_docking_weight1_custom_product_contain_oxygen_bond_distance_aromatic_linkinvent_7_9_3/rearranged_h_0012.sdf

> <i_m_source_file_index>
3

> <r_mmod_Potential_Energy-OPLS-2005>
2244.1728515625

> <r_mmod_Stretch_Energy-OPLS-2005>
904.048583984375

> <r_mmod_Bend_Energy-OPLS-2005>
657.577575683594

> <r_mmod_Torsional_Energy-OPLS-2005>
227.655715942383

> <r_mmod_Improper_Torsional_Energy-OPLS-2005>
9.67010879516602

> <r_mmod_Van_der_Waal_Energy-OPLS-2005>
132.160095214844

> <r_mmod_Electrostatic_Energy-OPLS-2005>
-346.657165527344

> <r_mmod_Solvation_Energy-OPLS-2005>
-211.080780029297

> <b_mmod_Minimization_Converged-OPLS-2005>
0

> <r_mmod_RMS_Derivative-OPLS-2005>
0.0976083353161812

$$$$
3
                    3D
 Structure written by MMmdl.
163172  0  0  1  0            999 V2000
  -30.6577  -14.6274   20.5761 C   0  0  0  0  0  0
  -30.4275  -12.4112   19.4407 C   0  0  0  0  0  0
  -29.4994  -12.5258   18.2111 C   0  0  0  0  0  0
  -28.0216  -12.3609   18.6180 C   0  0  0  0  0  0
  -27.6483  -13.2198   19.8530 C   0  0  2  0  0  0
  -28.6851  -13.0522   20.9779 C   0  0  0  0  0  0
  -25.2546  -13.8187   20.5665 C   0  0  0  0  0  0
  -24.1820  -13.0436   20.9182 C   0  0  0  0  0  0
  -24.6401  -11.6921   20.8733 C   0  0  0  0  0  0
  -23.9079  -10.4300   21.0412 C   0  0  0  0  0  0
  -24.3625   -9.4215   21.9197 C   0  0  0  0  0  0
  -23.6292   -8.2248   22.0769 C   0  0  0  0  0  0
  -22.4278   -8.0289   21.3542 C   0  0  0  0  0  0
  -21.9923   -9.0268   20.4637 C   0  0  0  0  0  0
  -22.7257  -10.2141   20.3053 C   0  0  0  0  0  0
  -21.6856   -6.0740   22.5287 C   0  0  0  0  0  0
  -21.4012   -6.5645   23.8217 C   0  0  0  0  0  0
  -21.3658   -5.6795   24.9180 C   0  0  0  0  0  0
  -21.6052   -4.3057   24.7230 C   0  0  0  0  0  0
  -21.8824   -3.8148   23.4352 C   0  0  0  0  0  0
  -21.9192   -4.6966   22.3409 C   0  0  0  0  0  0
  -22.7838  -13.5217   21.1857 C   0  0  0  0  0  0
  -22.1664   -4.2150   21.0981 F   0  0  0  0  0  0
  -21.5625   -3.4538   25.7741 F   0  0  0  0  0  0
  -30.0040  -13.4213   20.4364 N   0  0  0  0  0  0
  -26.2951  -12.9367   20.3231 N   0  0  0  0  0  0
  -25.9314  -11.6523   20.5702 N   0  0  0  0  0  0
  -22.0481  -12.8167   22.0386 N   0  0  0  0  0  0
  -25.4282  -15.1905   20.4119 N   0  0  0  0  0  0
  -31.7582  -14.8035   20.0425 O   0  0  0  0  0  0
  -21.6629   -6.8888   21.4245 O   0  0  0  0  0  0
  -22.3524  -14.5530   20.6733 O   0  0  0  0  0  0
  -24.6284  -31.8584   23.1986 C   0  0  0  0  0  0
  -25.9124  -32.4764   23.8336 C   0  0  1  0  0  0
  -27.2305  -27.3091   20.1233 C   0  0  0  0  0  0
  -25.5928  -33.8561   24.2242 N   0  0  0  0  0  0
  -23.4219  -30.4785   21.5422 C   0  0  2  0  0  0
  -24.8692  -28.9244   20.1172 C   0  0  0  0  0  0
  -22.7469  -29.4615   22.4929 C   0  0  0  0  0  0
  -18.0279  -28.1404   22.8484 C   0  0  0  0  0  0
  -24.1474  -36.7284   23.2629 C   0  0  0  0  0  0
  -25.9619  -30.7878   21.3658 C   0  0  0  0  0  0
  -26.0388  -29.4104   20.7162 C   0  0  0  0  0  0
  -27.2240  -28.6159   20.7051 C   0  0  0  0  0  0
  -26.0390  -26.8723   19.5050 C   0  0  0  0  0  0
  -24.8708  -27.6610   19.5043 C   0  0  0  0  0  0
  -23.6376  -29.8063   20.1614 C   0  0  0  0  0  0
  -25.4105  -36.3066   24.0310 C   0  0  1  0  0  0
  -20.5877  -28.3717   23.1274 C   0  0  2  0  0  0
  -20.6768  -26.9437   22.5418 C   0  0  0  0  0  0
  -19.5754  -26.6408   21.5210 C   0  0  0  0  0  0
  -18.1921  -26.7954   22.1611 C   0  0  0  0  0  0
  -19.1532  -28.8876   23.2870 C   0  0  0  0  0  0
  -18.9456  -30.1468   23.8908 C   0  0  0  0  0  0
  -17.6465  -30.6603   24.0581 C   0  0  0  0  0  0
  -25.9062  -34.9442   23.5078 C   0  0  0  0  0  0
  -16.5351  -29.9106   23.6339 C   0  0  0  0  0  0
  -16.7270  -28.6517   23.0360 C   0  0  0  0  0  0
  -26.4516  -31.6579   25.0706 C   0  0  0  0  0  0
  -25.3747  -31.3690   26.1413 C   0  0  0  0  0  0
  -27.0380  -30.3006   24.6168 C   0  0  0  0  0  0
  -27.6039  -32.4338   25.7517 C   0  0  0  0  0  0
  -27.5590  -37.1770   24.8439 C   0  0  0  0  0  0
  -21.4177  -29.3061   22.3659 N   0  0  0  0  0  0
  -26.4258  -37.3790   23.9443 N   0  0  0  0  0  0
  -24.6904  -31.0583   22.0940 N   0  0  0  0  0  0
  -23.4178  -28.8165   23.3027 O   0  0  0  0  0  0
  -28.3618  -26.4784   20.1126 O   0  0  0  0  0  0
  -26.5643  -34.8923   22.4655 O   0  0  0  0  0  0
  -23.5439  -32.1374   23.7311 O   0  0  0  0  0  0
  -29.9929  -18.9681   19.3104 C   0  0  0  0  0  0
  -30.2342  -17.6017   19.6657 C   0  0  0  0  0  0
  -28.8510  -19.3239   21.3793 C   0  0  0  0  0  0
  -29.2865  -19.8749   20.1515 C   0  0  0  0  0  0
  -29.8073  -17.0404   20.9061 C   0  0  0  0  0  0
  -29.0991  -17.9681   21.7466 C   0  0  0  0  0  0
  -31.2703  -23.8525   20.8977 C   0  0  0  0  0  0
  -30.5782  -24.4247   19.6666 C   0  0  0  0  0  0
  -30.6382  -22.4686   21.0317 C   0  0  0  0  0  0
  -29.1239  -23.9407   19.8121 C   0  0  2  0  0  0
  -30.0717  -15.3445   22.7675 C   0  0  0  0  0  0
  -28.8934  -21.3344   19.6737 C   0  0  0  0  0  0
  -28.2368  -25.0600   20.5509 C   0  0  0  0  0  0
  -30.0656  -15.6290   21.3203 N   0  0  0  0  0  0
  -29.2543  -22.5646   20.4960 N   0  3  1  0  0  0
  -28.5984  -17.5779   22.9419 F   0  0  0  0  0  0
  -31.4659  -12.5387   19.1344 H   0  0  0  0  0  0
  -30.3696  -11.4101   19.8719 H   0  0  0  0  0  0
  -29.7645  -11.7775   17.4624 H   0  0  0  0  0  0
  -29.6403  -13.4969   17.7351 H   0  0  0  0  0  0
  -27.8502  -11.3057   18.8321 H   0  0  0  0  0  0
  -27.3712  -12.6063   17.7776 H   0  0  0  0  0  0
  -27.6751  -14.2616   19.5341 H   0  0  0  0  0  0
  -28.6964  -12.0195   21.3307 H   0  0  0  0  0  0
  -28.3867  -13.6473   21.8345 H   0  0  0  0  0  0
  -25.2774   -9.5679   22.4782 H   0  0  0  0  0  0
  -23.9999   -7.4641   22.7495 H   0  0  0  0  0  0
  -21.0871   -8.8796   19.8931 H   0  0  0  0  0  0
  -22.3739  -10.9685   19.6167 H   0  0  0  0  0  0
  -21.2006   -7.6153   23.9706 H   0  0  0  0  0  0
  -21.1475   -6.0529   25.9076 H   0  0  0  0  0  0
  -22.0600   -2.7613   23.2850 H   0  0  0  0  0  0
  -22.4101  -11.9808   22.4730 H   0  0  0  0  0  0
  -21.1090  -13.1168   22.2584 H   0  0  0  0  0  0
  -24.6717  -15.8545   20.5396 H   0  0  0  0  0  0
  -26.2922  -15.6277   20.1147 H   0  0  0  0  0  0
  -26.7190  -32.5441   23.1085 H   0  0  0  0  0  0
  -25.0050  -33.9701   25.0372 H   0  0  0  0  0  0
  -22.7161  -31.2989   21.3957 H   0  0  0  0  0  0
  -23.3791  -35.9553   23.3162 H   0  0  0  0  0  0
  -24.3590  -36.9078   22.2079 H   0  0  0  0  0  0
  -23.7155  -37.6397   23.6776 H   0  0  0  0  0  0
  -26.0815  -31.5449   20.5915 H   0  0  0  0  0  0
  -26.8452  -30.8473   21.9906 H   0  0  0  0  0  0
  -28.1263  -28.9889   21.1700 H   0  0  0  0  0  0
  -25.9997  -25.9104   19.0138 H   0  0  0  0  0  0
  -23.9740  -27.2844   19.0318 H   0  0  0  0  0  0
  -23.7539  -30.5782   19.3998 H   0  0  0  0  0  0
  -22.7578  -29.2333   19.8656 H   0  0  0  0  0  0
  -25.1273  -36.1884   25.0796 H   0  0  0  0  0  0
  -20.9962  -28.3317   24.1400 H   0  0  0  0  0  0
  -20.5675  -26.2329   23.3616 H   0  0  0  0  0  0
  -21.6638  -26.7468   22.1231 H   0  0  0  0  0  0
  -19.6924  -25.6317   21.1252 H   0  0  0  0  0  0
  -19.6694  -27.3209   20.6727 H   0  0  0  0  0  0
  -17.4199  -26.6706   21.3998 H   0  0  0  0  0  0
  -18.0307  -26.0081   22.8995 H   0  0  0  0  0  0
  -19.7925  -30.7272   24.2286 H   0  0  0  0  0  0
  -17.5021  -31.6277   24.5207 H   0  0  0  0  0  0
  -15.5352  -30.3028   23.7644 H   0  0  0  0  0  0
  -15.8659  -28.0843   22.7088 H   0  0  0  0  0  0
  -24.5953  -30.7002   25.7738 H   0  0  0  0  0  0
  -24.8893  -32.2830   26.4826 H   0  0  0  0  0  0
  -25.8074  -30.8889   27.0194 H   0  0  0  0  0  0
  -26.2951  -29.6730   24.1221 H   0  0  0  0  0  0
  -27.4107  -29.7285   25.4678 H   0  0  0  0  0  0
  -27.8807  -30.4291   23.9369 H   0  0  0  0  0  0
  -27.2632  -33.3677   26.2007 H   0  0  0  0  0  0
  -28.3916  -32.6837   25.0398 H   0  0  0  0  0  0
  -28.0627  -31.8521   26.5521 H   0  0  0  0  0  0
  -28.2476  -38.0197   24.7678 H   0  0  0  0  0  0
  -28.1210  -36.2738   24.6019 H   0  0  0  0  0  0
  -27.2333  -37.1127   25.8834 H   0  0  0  0  0  0
  -20.9354  -29.8757   21.6845 H   0  0  0  0  0  0
  -26.0114  -38.2819   24.1597 H   0  0  0  0  0  0
  -30.3349  -19.3113   18.3429 H   0  0  0  0  0  0
  -30.7667  -16.9854   18.9548 H   0  0  0  0  0  0
  -28.2816  -19.9375   22.0611 H   0  0  0  0  0  0
  -31.0383  -24.4541   21.7774 H   0  0  0  0  0  0
  -32.3561  -23.8090   20.7988 H   0  0  0  0  0  0
  -31.0214  -23.9925   18.7670 H   0  0  0  0  0  0
  -30.6819  -25.5063   19.5859 H   0  0  0  0  0  0
  -30.6475  -22.1039   22.0598 H   0  0  0  0  0  0
  -31.2297  -21.7675   20.4380 H   0  0  0  0  0  0
  -28.6967  -23.8099   18.8175 H   0  0  0  0  0  0
  -30.6184  -16.1175   23.3073 H   0  0  0  0  0  0
  -30.5449  -14.3956   23.0315 H   0  0  0  0  0  0
  -29.0573  -15.3061   23.1652 H   0  0  0  0  0  0
  -27.8152  -21.3498   19.5143 H   0  0  0  0  0  0
  -29.3314  -21.4723   18.6846 H   0  0  0  0  0  0
  -28.5052  -25.0597   21.6073 H   0  0  0  0  0  0
  -27.1975  -24.7353   20.5322 H   0  0  0  0  0  0
  -28.6322  -22.5560   21.2923 H   0  0  0  0  0  0
  1 25  1  0  0  0
  1 30  2  0  0  0
  1 84  1  0  0  0
  2  3  1  0  0  0
  2 25  1  0  0  0
  2 87  1  0  0  0
  2 88  1  0  0  0
  3  4  1  0  0  0
  3 89  1  0  0  0
  3 90  1  0  0  0
  4  5  1  0  0  0
  4 91  1  0  0  0
  4 92  1  0  0  0
  5  6  1  0  0  0
  5 26  1  0  0  0
  5 93  1  0  0  0
  6 25  1  0  0  0
  6 94  1  0  0  0
  6 95  1  0  0  0
  7  8  2  0  0  0
  7 26  1  0  0  0
  7 29  1  0  0  0
  8  9  1  0  0  0
  8 22  1  0  0  0
  9 10  1  0  0  0
  9 27  2  0  0  0
 10 11  2  0  0  0
 10 15  1  0  0  0
 11 12  1  0  0  0
 11 96  1  0  0  0
 12 13  2  0  0  0
 12 97  1  0  0  0
 13 14  1  0  0  0
 13 31  1  0  0  0
 14 15  2  0  0  0
 14 98  1  0  0  0
 15 99  1  0  0  0
 16 17  2  0  0  0
 16 21  1  0  0  0
 16 31  1  0  0  0
 17 18  1  0  0  0
 17100  1  0  0  0
 18 19  2  0  0  0
 18101  1  0  0  0
 19 20  1  0  0  0
 19 24  1  0  0  0
 20 21  2  0  0  0
 20102  1  0  0  0
 21 23  1  0  0  0
 22 28  1  0  0  0
 22 32  2  0  0  0
 26 27  1  0  0  0
 28103  1  0  0  0
 28104  1  0  0  0
 29105  1  0  0  0
 29106  1  0  0  0
 33 34  1  0  0  0
 33 66  1  0  0  0
 33 70  2  0  0  0
 34 36  1  0  0  0
 34 59  1  0  0  0
 34107  1  0  0  0
 35 44  2  0  0  0
 35 45  1  0  0  0
 35 68  1  0  0  0
 36 56  1  0  0  0
 36108  1  0  0  0
 37 39  1  0  0  0
 37 47  1  0  0  0
 37 66  1  0  0  0
 37109  1  0  0  0
 38 43  2  0  0  0
 38 46  1  0  0  0
 38 47  1  0  0  0
 39 64  1  0  0  0
 39 67  2  0  0  0
 40 52  1  0  0  0
 40 53  2  0  0  0
 40 58  1  0  0  0
 41110  1  0  0  0
 41111  1  0  0  0
 41112  1  0  0  0
 41 48  1  0  0  0
 42 43  1  0  0  0
 42 66  1  0  0  0
 42113  1  0  0  0
 42114  1  0  0  0
 43 44  1  0  0  0
 44115  1  0  0  0
 45 46  2  0  0  0
 45116  1  0  0  0
 46117  1  0  0  0
 47118  1  0  0  0
 47119  1  0  0  0
 48 56  1  0  0  0
 48 65  1  0  0  0
 48120  1  0  0  0
 49 50  1  0  0  0
 49 53  1  0  0  0
 49 64  1  0  0  0
 49121  1  0  0  0
 50 51  1  0  0  0
 50122  1  0  0  0
 50123  1  0  0  0
 51 52  1  0  0  0
 51124  1  0  0  0
 51125  1  0  0  0
 52126  1  0  0  0
 52127  1  0  0  0
 53 54  1  0  0  0
 54 55  2  0  0  0
 54128  1  0  0  0
 55 57  1  0  0  0
 55129  1  0  0  0
 56 69  2  0  0  0
 57 58  2  0  0  0
 57130  1  0  0  0
 58131  1  0  0  0
 59 60  1  0  0  0
 59 61  1  0  0  0
 59 62  1  0  0  0
 60132  1  0  0  0
 60133  1  0  0  0
 60134  1  0  0  0
 61135  1  0  0  0
 61136  1  0  0  0
 61137  1  0  0  0
 62138  1  0  0  0
 62139  1  0  0  0
 62140  1  0  0  0
 63 65  1  0  0  0
 63141  1  0  0  0
 63142  1  0  0  0
 63143  1  0  0  0
 64144  1  0  0  0
 65145  1  0  0  0
 68 83  1  0  0  0
 71 72  2  0  0  0
 71 74  1  0  0  0
 71146  1  0  0  0
 72 75  1  0  0  0
 72147  1  0  0  0
 73 74  2  0  0  0
 73 76  1  0  0  0
 73148  1  0  0  0
 74 82  1  0  0  0
 75 76  2  0  0  0
 75 84  1  0  0  0
 76 86  1  0  0  0
 77 78  1  0  0  0
 77 79  1  0  0  0
 77149  1  0  0  0
 77150  1  0  0  0
 78 80  1  0  0  0
 78151  1  0  0  0
 78152  1  0  0  0
 79 85  1  0  0  0
 79153  1  0  0  0
 79154  1  0  0  0
 80 83  1  0  0  0
 80 85  1  0  0  0
 80155  1  0  0  0
 81 84  1  0  0  0
 81156  1  0  0  0
 81157  1  0  0  0
 81158  1  0  0  0
 82159  1  0  0  0
 82160  1  0  0  0
 82 85  1  0  0  0
 83161  1  0  0  0
 83162  1  0  0  0
 85163  1  0  0  0
M  CHG  1  85   1
M  ISO  4   1 100  68 101  83 101  84 100
M  END
> <chiral flag>
0

> <version>
0

> <s_m_source_file>
/data/baiqing/PycharmProjects/Reinvent-master-3.2/result/LINK_invent/BTK/process_docking_weight1_custom_product_contain_oxygen_bond_distance_aromatic_linkinvent_7_9_3/rearranged_h_0012.sdf

> <i_m_source_file_index>
4

> <r_mmod_Potential_Energy-OPLS-2005>
236.419052124023

> <r_mmod_Stretch_Energy-OPLS-2005>
101.532073974609

> <r_mmod_Bend_Energy-OPLS-2005>
172.996597290039

> <r_mmod_Torsional_Energy-OPLS-2005>
350.48681640625

> <r_mmod_Improper_Torsional_Energy-OPLS-2005>
3.00839710235596

> <r_mmod_Van_der_Waal_Energy-OPLS-2005>
150.268539428711

> <r_mmod_Electrostatic_Energy-OPLS-2005>
-166.404296875

> <r_mmod_Solvation_Energy-OPLS-2005>
-419.643768310547

> <b_mmod_Minimization_Converged-OPLS-2005>
0

> <r_mmod_RMS_Derivative-OPLS-2005>
2.70439553260803

$$$$
4
                    3D
 Structure written by MMmdl.
148156  0  0  1  0            999 V2000
  -30.5089  -14.9122   20.4351 C   0  0  0  0  0  0
  -30.4555  -12.5616   19.4901 C   0  0  0  0  0  0
  -29.5264  -12.5317   18.2520 C   0  0  0  0  0  0
  -28.0565  -12.3206   18.6662 C   0  0  0  0  0  0
  -27.6389  -13.2354   19.8464 C   0  0  2  0  0  0
  -28.6835  -13.2119   20.9840 C   0  0  0  0  0  0
  -25.2500  -13.8182   20.5681 C   0  0  0  0  0  0
  -24.1806  -13.0431   20.9230 C   0  0  0  0  0  0
  -24.6402  -11.6911   20.8760 C   0  0  0  0  0  0
  -23.9076  -10.4289   21.0416 C   0  0  0  0  0  0
  -24.3624   -9.4201   21.9190 C   0  0  0  0  0  0
  -23.6294   -8.2240   22.0758 C   0  0  0  0  0  0
  -22.4276   -8.0282   21.3547 C   0  0  0  0  0  0
  -21.9915   -9.0259   20.4652 C   0  0  0  0  0  0
  -22.7249  -10.2135   20.3063 C   0  0  0  0  0  0
  -21.6853   -6.0736   22.5279 C   0  0  0  0  0  0
  -21.4015   -6.5640   23.8212 C   0  0  0  0  0  0
  -21.3659   -5.6793   24.9175 C   0  0  0  0  0  0
  -21.6044   -4.3056   24.7225 C   0  0  0  0  0  0
  -21.8818   -3.8147   23.4347 C   0  0  0  0  0  0
  -21.9192   -4.6963   22.3402 C   0  0  0  0  0  0
  -22.7826  -13.5218   21.1880 C   0  0  0  0  0  0
  -22.1661   -4.2149   21.0979 F   0  0  0  0  0  0
  -21.5626   -3.4539   25.7738 F   0  0  0  0  0  0
  -29.9682  -13.6307   20.4025 N   0  0  0  0  0  0
  -26.2925  -12.9392   20.3247 N   0  0  0  0  0  0
  -25.9332  -11.6537   20.5742 N   0  0  0  0  0  0
  -22.0465  -12.8213   22.0434 N   0  0  0  0  0  0
  -25.4162  -15.1901   20.4026 N   0  0  0  0  0  0
  -31.6970  -15.0562   20.1234 O   0  0  0  0  0  0
  -21.6639   -6.8881   21.4242 O   0  0  0  0  0  0
  -22.3518  -14.5520   20.6717 O   0  0  0  0  0  0
  -24.6422  -31.8456   23.1895 C   0  0  0  0  0  0
  -25.9199  -32.4704   23.8282 C   0  0  1  0  0  0
  -27.2214  -27.1519   20.1469 C   0  0  0  0  0  0
  -25.5952  -33.8509   24.2201 N   0  0  0  0  0  0
  -23.4453  -30.4654   21.5351 C   0  0  2  0  0  0
  -24.8953  -28.8959   20.1105 C   0  0  0  0  0  0
  -22.7562  -29.4552   22.4864 C   0  0  0  0  0  0
  -18.0305  -28.1392   22.8480 C   0  0  0  0  0  0
  -24.1492  -36.7261   23.2642 C   0  0  0  0  0  0
  -26.0006  -30.7245   21.3860 C   0  0  0  0  0  0
  -26.0728  -29.3373   20.7273 C   0  0  0  0  0  0
  -27.2369  -28.4820   20.7280 C   0  0  0  0  0  0
  -26.0152  -26.8096   19.4937 C   0  0  0  0  0  0
  -24.8787  -27.6448   19.4786 C   0  0  0  0  0  0
  -23.6712  -29.7962   20.1539 C   0  0  0  0  0  0
  -25.4122  -36.3038   24.0318 C   0  0  1  0  0  0
  -20.5917  -28.3717   23.1239 C   0  0  2  0  0  0
  -20.6789  -26.9422   22.5403 C   0  0  0  0  0  0
  -19.5760  -26.6380   21.5213 C   0  0  0  0  0  0
  -18.1944  -26.7931   22.1628 C   0  0  0  0  0  0
  -19.1562  -28.8873   23.2853 C   0  0  0  0  0  0
  -18.9477  -30.1469   23.8878 C   0  0  0  0  0  0
  -17.6473  -30.6589   24.0558 C   0  0  0  0  0  0
  -25.9071  -34.9412   23.5068 C   0  0  0  0  0  0
  -16.5365  -29.9082   23.6333 C   0  0  0  0  0  0
  -16.7289  -28.6500   23.0357 C   0  0  0  0  0  0
  -26.4522  -31.6564   25.0716 C   0  0  0  0  0  0
  -25.3712  -31.3749   26.1414 C   0  0  0  0  0  0
  -27.0385  -30.2963   24.6283 C   0  0  0  0  0  0
  -27.6053  -32.4328   25.7502 C   0  0  0  0  0  0
  -27.5575  -37.1788   24.8465 C   0  0  0  0  0  0
  -21.4255  -29.3048   22.3615 N   0  0  0  0  0  0
  -26.4286  -37.3749   23.9408 N   0  0  0  0  0  0
  -24.7158  -31.0325   22.0923 N   0  0  0  0  0  0
  -23.4210  -28.8096   23.3008 O   0  0  0  0  0  0
  -28.2796  -26.1752   20.2158 O   0  0  0  0  0  0
  -26.5655  -34.8906   22.4645 O   0  0  0  0  0  0
  -23.5543  -32.1325   23.7122 O   0  0  0  0  0  0
  -30.4979  -18.5502   20.3681 C   0  0  0  0  0  0
  -30.1918  -19.9876   20.3030 C   0  0  0  0  0  0
  -28.2013  -18.0915   20.6159 C   0  0  0  0  0  0
  -29.5058  -17.5125   20.5303 C   0  0  0  0  0  0
  -28.8604  -20.5427   20.3787 C   0  0  0  0  0  0
  -27.8953  -19.4982   20.5370 C   0  0  0  0  0  0
  -27.9814  -24.6559   20.0800 C   0  0  0  0  0  0
  -28.9666  -23.3090   20.3181 C   0  0  0  0  0  0
  -29.6181  -15.9877   20.6567 N   0  0  0  0  0  0
  -28.3436  -21.9122   20.2867 O   0  0  0  0  0  0
  -26.5907  -19.8568   20.6201 F   0  0  0  0  0  0
  -31.4867  -12.7370   19.1791 H   0  0  0  0  0  0
  -30.4561  -11.5962   19.9987 H   0  0  0  0  0  0
  -29.8377  -11.7454   17.5632 H   0  0  0  0  0  0
  -29.6191  -13.4710   17.7045 H   0  0  0  0  0  0
  -27.9424  -11.2750   18.9545 H   0  0  0  0  0  0
  -27.3955  -12.4747   17.8124 H   0  0  0  0  0  0
  -27.6160  -14.2467   19.4405 H   0  0  0  0  0  0
  -28.7608  -12.2155   21.4218 H   0  0  0  0  0  0
  -28.3869  -13.8773   21.7964 H   0  0  0  0  0  0
  -25.2769   -9.5672   22.4767 H   0  0  0  0  0  0
  -24.0000   -7.4629   22.7477 H   0  0  0  0  0  0
  -21.0844   -8.8784   19.8957 H   0  0  0  0  0  0
  -22.3712  -10.9678   19.6174 H   0  0  0  0  0  0
  -21.2010   -7.6149   23.9716 H   0  0  0  0  0  0
  -21.1480   -6.0523   25.9077 H   0  0  0  0  0  0
  -22.0597   -2.7608   23.2848 H   0  0  0  0  0  0
  -22.4083  -11.9878   22.4830 H   0  0  0  0  0  0
  -21.1084  -13.1242   22.2641 H   0  0  0  0  0  0
  -24.6295  -15.8261   20.4770 H   0  0  0  0  0  0
  -26.2182  -15.6066   19.9499 H   0  0  0  0  0  0
  -26.7265  -32.5316   23.1014 H   0  0  0  0  0  0
  -25.0077  -33.9626   25.0333 H   0  0  0  0  0  0
  -22.7472  -31.2910   21.3818 H   0  0  0  0  0  0
  -23.3757  -35.9590   23.3292 H   0  0  0  0  0  0
  -24.3578  -36.8903   22.2059 H   0  0  0  0  0  0
  -23.7245  -37.6454   23.6684 H   0  0  0  0  0  0
  -26.1536  -31.4794   20.6136 H   0  0  0  0  0  0
  -26.8721  -30.7754   22.0269 H   0  0  0  0  0  0
  -28.1335  -28.8156   21.2313 H   0  0  0  0  0  0
  -25.9102  -25.8553   19.0018 H   0  0  0  0  0  0
  -23.9801  -27.3016   18.9846 H   0  0  0  0  0  0
  -23.8070  -30.5716   19.3992 H   0  0  0  0  0  0
  -22.7864  -29.2380   19.8427 H   0  0  0  0  0  0
  -25.1309  -36.1869   25.0810 H   0  0  0  0  0  0
  -21.0010  -28.3306   24.1360 H   0  0  0  0  0  0
  -20.5685  -26.2330   23.3621 H   0  0  0  0  0  0
  -21.6654  -26.7429   22.1199 H   0  0  0  0  0  0
  -19.6921  -25.6286   21.1255 H   0  0  0  0  0  0
  -19.6694  -27.3179   20.6734 H   0  0  0  0  0  0
  -17.4210  -26.6673   21.4035 H   0  0  0  0  0  0
  -18.0346  -26.0078   22.9030 H   0  0  0  0  0  0
  -19.7952  -30.7291   24.2241 H   0  0  0  0  0  0
  -17.5025  -31.6268   24.5163 H   0  0  0  0  0  0
  -15.5364  -30.2977   23.7663 H   0  0  0  0  0  0
  -15.8691  -28.0808   22.7085 H   0  0  0  0  0  0
  -24.5894  -30.7094   25.7734 H   0  0  0  0  0  0
  -24.8898  -32.2930   26.4792 H   0  0  0  0  0  0
  -25.7998  -30.8952   27.0222 H   0  0  0  0  0  0
  -26.2998  -29.6690   24.1281 H   0  0  0  0  0  0
  -27.3997  -29.7256   25.4848 H   0  0  0  0  0  0
  -27.8906  -30.4204   23.9597 H   0  0  0  0  0  0
  -27.2645  -33.3646   26.2028 H   0  0  0  0  0  0
  -28.3892  -32.6860   25.0352 H   0  0  0  0  0  0
  -28.0689  -31.8488   26.5463 H   0  0  0  0  0  0
  -28.2585  -38.0091   24.7510 H   0  0  0  0  0  0
  -28.1079  -36.2622   24.6295 H   0  0  0  0  0  0
  -27.2293  -37.1437   25.8868 H   0  0  0  0  0  0
  -20.9461  -29.8768   21.6802 H   0  0  0  0  0  0
  -26.0155  -38.2818   24.1409 H   0  0  0  0  0  0
  -31.5349  -18.2525   20.2974 H   0  0  0  0  0  0
  -31.0171  -20.6732   20.1773 H   0  0  0  0  0  0
  -27.3590  -17.4297   20.7477 H   0  0  0  0  0  0
  -27.1214  -24.4889   20.7294 H   0  0  0  0  0  0
  -27.6025  -24.5258   19.0670 H   0  0  0  0  0  0
  -29.4518  -23.4117   21.2888 H   0  0  0  0  0  0
  -29.7707  -23.3307   19.5826 H   0  0  0  0  0  0
  -28.7268  -15.5824   20.8973 H   0  0  0  0  0  0
  1 25  1  0  0  0
  1 30  2  0  0  0
  1 79  1  0  0  0
  2  3  1  0  0  0
  2 25  1  0  0  0
  2 82  1  0  0  0
  2 83  1  0  0  0
  3  4  1  0  0  0
  3 84  1  0  0  0
  3 85  1  0  0  0
  4  5  1  0  0  0
  4 86  1  0  0  0
  4 87  1  0  0  0
  5  6  1  0  0  0
  5 26  1  0  0  0
  5 88  1  0  0  0
  6 25  1  0  0  0
  6 89  1  0  0  0
  6 90  1  0  0  0
  7  8  2  0  0  0
  7 26  1  0  0  0
  7 29  1  0  0  0
  8  9  1  0  0  0
  8 22  1  0  0  0
  9 10  1  0  0  0
  9 27  2  0  0  0
 10 11  2  0  0  0
 10 15  1  0  0  0
 11 12  1  0  0  0
 11 91  1  0  0  0
 12 13  2  0  0  0
 12 92  1  0  0  0
 13 14  1  0  0  0
 13 31  1  0  0  0
 14 15  2  0  0  0
 14 93  1  0  0  0
 15 94  1  0  0  0
 16 17  2  0  0  0
 16 21  1  0  0  0
 16 31  1  0  0  0
 17 18  1  0  0  0
 17 95  1  0  0  0
 18 19  2  0  0  0
 18 96  1  0  0  0
 19 20  1  0  0  0
 19 24  1  0  0  0
 20 21  2  0  0  0
 20 97  1  0  0  0
 21 23  1  0  0  0
 22 28  1  0  0  0
 22 32  2  0  0  0
 26 27  1  0  0  0
 28 98  1  0  0  0
 28 99  1  0  0  0
 29100  1  0  0  0
 29101  1  0  0  0
 33 34  1  0  0  0
 33 66  1  0  0  0
 33 70  2  0  0  0
 34 36  1  0  0  0
 34 59  1  0  0  0
 34102  1  0  0  0
 35 44  2  0  0  0
 35 45  1  0  0  0
 35 68  1  0  0  0
 36 56  1  0  0  0
 36103  1  0  0  0
 37 39  1  0  0  0
 37 47  1  0  0  0
 37 66  1  0  0  0
 37104  1  0  0  0
 38 43  2  0  0  0
 38 46  1  0  0  0
 38 47  1  0  0  0
 39 64  1  0  0  0
 39 67  2  0  0  0
 40 52  1  0  0  0
 40 53  2  0  0  0
 40 58  1  0  0  0
 41105  1  0  0  0
 41106  1  0  0  0
 41107  1  0  0  0
 41 48  1  0  0  0
 42 43  1  0  0  0
 42 66  1  0  0  0
 42108  1  0  0  0
 42109  1  0  0  0
 43 44  1  0  0  0
 44110  1  0  0  0
 45 46  2  0  0  0
 45111  1  0  0  0
 46112  1  0  0  0
 47113  1  0  0  0
 47114  1  0  0  0
 48 56  1  0  0  0
 48 65  1  0  0  0
 48115  1  0  0  0
 49 50  1  0  0  0
 49 53  1  0  0  0
 49 64  1  0  0  0
 49116  1  0  0  0
 50 51  1  0  0  0
 50117  1  0  0  0
 50118  1  0  0  0
 51 52  1  0  0  0
 51119  1  0  0  0
 51120  1  0  0  0
 52121  1  0  0  0
 52122  1  0  0  0
 53 54  1  0  0  0
 54 55  2  0  0  0
 54123  1  0  0  0
 55 57  1  0  0  0
 55124  1  0  0  0
 56 69  2  0  0  0
 57 58  2  0  0  0
 57125  1  0  0  0
 58126  1  0  0  0
 59 60  1  0  0  0
 59 61  1  0  0  0
 59 62  1  0  0  0
 60127  1  0  0  0
 60128  1  0  0  0
 60129  1  0  0  0
 61130  1  0  0  0
 61131  1  0  0  0
 61132  1  0  0  0
 62133  1  0  0  0
 62134  1  0  0  0
 62135  1  0  0  0
 63 65  1  0  0  0
 63136  1  0  0  0
 63137  1  0  0  0
 63138  1  0  0  0
 64139  1  0  0  0
 65140  1  0  0  0
 68 77  1  0  0  0
 71 72  2  0  0  0
 71 74  1  0  0  0
 71141  1  0  0  0
 72 75  1  0  0  0
 72142  1  0  0  0
 73 74  2  0  0  0
 73 76  1  0  0  0
 73143  1  0  0  0
 74 79  1  0  0  0
 75 76  2  0  0  0
 75 80  1  0  0  0
 76 81  1  0  0  0
 77 78  1  0  0  0
 77144  1  0  0  0
 77145  1  0  0  0
 78 80  1  0  0  0
 78146  1  0  0  0
 78147  1  0  0  0
 79148  1  0  0  0
M  ISO  4   1 100  68 101  77 101  79 100
M  END
> <chiral flag>
0

> <version>
0

> <s_m_source_file>
/data/baiqing/PycharmProjects/Reinvent-master-3.2/result/LINK_invent/BTK/process_docking_weight1_custom_product_contain_oxygen_bond_distance_aromatic_linkinvent_7_9_3/rearranged_h_0012.sdf

> <i_m_source_file_index>
5

> <r_mmod_Potential_Energy-OPLS-2005>
491.091247558594

> <r_mmod_Stretch_Energy-OPLS-2005>
216.953765869141

> <r_mmod_Bend_Energy-OPLS-2005>
302.484619140625

> <r_mmod_Torsional_Energy-OPLS-2005>
212.021713256836

> <r_mmod_Improper_Torsional_Energy-OPLS-2005>
4.76716709136963

> <r_mmod_Van_der_Waal_Energy-OPLS-2005>
130.573699951172

> <r_mmod_Electrostatic_Energy-OPLS-2005>
-337.487060546875

> <r_mmod_Solvation_Energy-OPLS-2005>
-212.451721191406

> <b_mmod_Minimization_Converged-OPLS-2005>
0

> <r_mmod_RMS_Derivative-OPLS-2005>
0.366873770952225

$$$$
5
                    3D
 Structure written by MMmdl.
171180  0  0  1  0            999 V2000
  -30.6013  -14.7336   20.4899 C   0  0  0  0  0  0
  -30.4372  -12.4537   19.4698 C   0  0  0  0  0  0
  -29.5120  -12.5040   18.2328 C   0  0  0  0  0  0
  -28.0390  -12.3203   18.6492 C   0  0  0  0  0  0
  -27.6408  -13.2225   19.8474 C   0  0  2  0  0  0
  -28.6821  -13.1493   20.9848 C   0  0  0  0  0  0
  -25.2519  -13.8167   20.5674 C   0  0  0  0  0  0
  -24.1790  -13.0437   20.9194 C   0  0  0  0  0  0
  -24.6369  -11.6905   20.8716 C   0  0  0  0  0  0
  -23.9029  -10.4289   21.0390 C   0  0  0  0  0  0
  -24.3582   -9.4208   21.9169 C   0  0  0  0  0  0
  -23.6271   -8.2235   22.0747 C   0  0  0  0  0  0
  -22.4257   -8.0267   21.3543 C   0  0  0  0  0  0
  -21.9873   -9.0242   20.4652 C   0  0  0  0  0  0
  -22.7191  -10.2126   20.3054 C   0  0  0  0  0  0
  -21.6851   -6.0718   22.5272 C   0  0  0  0  0  0
  -21.4022   -6.5625   23.8206 C   0  0  0  0  0  0
  -21.3656   -5.6783   24.9164 C   0  0  0  0  0  0
  -21.6031   -4.3042   24.7222 C   0  0  0  0  0  0
  -21.8819   -3.8133   23.4346 C   0  0  0  0  0  0
  -21.9201   -4.6951   22.3404 C   0  0  0  0  0  0
  -22.7820  -13.5234   21.1865 C   0  0  0  0  0  0
  -22.1663   -4.2133   21.0984 F   0  0  0  0  0  0
  -21.5634   -3.4529   25.7736 F   0  0  0  0  0  0
  -29.9824  -13.5077   20.4060 N   0  0  0  0  0  0
  -26.2923  -12.9354   20.3245 N   0  0  0  0  0  0
  -25.9286  -11.6510   20.5691 N   0  0  0  0  0  0
  -22.0456  -12.8246   22.0427 N   0  0  0  0  0  0
  -25.4236  -15.1885   20.4077 N   0  0  0  0  0  0
  -31.7936  -14.8375   20.1800 O   0  0  0  0  0  0
  -21.6637   -6.8854   21.4237 O   0  0  0  0  0  0
  -22.3499  -14.5538   20.6700 O   0  0  0  0  0  0
  -24.6293  -31.8569   23.1976 C   0  0  0  0  0  0
  -25.9128  -32.4759   23.8319 C   0  0  1  0  0  0
  -27.2176  -27.2736   20.1427 C   0  0  0  0  0  0
  -25.5919  -33.8560   24.2243 N   0  0  0  0  0  0
  -23.4263  -30.4778   21.5415 C   0  0  2  0  0  0
  -24.8729  -28.9255   20.1096 C   0  0  0  0  0  0
  -22.7503  -29.4601   22.4917 C   0  0  0  0  0  0
  -18.0294  -28.1401   22.8479 C   0  0  0  0  0  0
  -24.1493  -36.7291   23.2640 C   0  0  0  0  0  0
  -25.9686  -30.7762   21.3730 C   0  0  0  0  0  0
  -26.0431  -29.3981   20.7185 C   0  0  0  0  0  0
  -27.2212  -28.5871   20.7179 C   0  0  0  0  0  0
  -26.0293  -26.8649   19.5020 C   0  0  0  0  0  0
  -24.8712  -27.6671   19.4871 C   0  0  0  0  0  0
  -23.6426  -29.8105   20.1573 C   0  0  0  0  0  0
  -25.4114  -36.3066   24.0322 C   0  0  1  0  0  0
  -20.5895  -28.3705   23.1283 C   0  0  2  0  0  0
  -20.6776  -26.9420   22.5423 C   0  0  0  0  0  0
  -19.5755  -26.6391   21.5222 C   0  0  0  0  0  0
  -18.1937  -26.7941   22.1625 C   0  0  0  0  0  0
  -19.1548  -28.8867   23.2875 C   0  0  0  0  0  0
  -18.9462  -30.1468   23.8894 C   0  0  0  0  0  0
  -17.6459  -30.6590   24.0572 C   0  0  0  0  0  0
  -25.9051  -34.9443   23.5085 C   0  0  0  0  0  0
  -16.5350  -29.9088   23.6329 C   0  0  0  0  0  0
  -16.7281  -28.6514   23.0336 C   0  0  0  0  0  0
  -26.4503  -31.6577   25.0704 C   0  0  0  0  0  0
  -25.3727  -31.3731   26.1426 C   0  0  0  0  0  0
  -27.0334  -30.2993   24.6169 C   0  0  0  0  0  0
  -27.6060  -32.4327   25.7463 C   0  0  0  0  0  0
  -27.5583  -37.1788   24.8455 C   0  0  0  0  0  0
  -21.4206  -29.3051   22.3671 N   0  0  0  0  0  0
  -26.4290  -37.3764   23.9405 N   0  0  0  0  0  0
  -24.6942  -31.0542   22.0942 N   0  0  0  0  0  0
  -23.4205  -28.8158   23.3031 O   0  0  0  0  0  0
  -28.3109  -26.3841   20.1725 O   0  0  0  0  0  0
  -26.5635  -34.8917   22.4665 O   0  0  0  0  0  0
  -23.5450  -32.1387   23.7280 O   0  0  0  0  0  0
  -31.7279  -18.9064   21.8485 C   0  0  0  0  0  0
  -31.3296  -17.5797   21.6126 C   0  0  0  0  0  0
  -29.4009  -18.4374   20.4157 C   0  0  0  0  0  0
  -31.0174  -20.0174   21.3309 C   0  0  0  0  0  0
  -30.1697  -17.2853   20.8706 C   0  0  0  0  0  0
  -29.7973  -19.8333   20.6179 C   0  0  0  0  0  0
  -34.4936  -21.5667   18.9979 C   0  0  0  0  0  0
  -34.4672  -22.9171   19.7058 C   0  0  0  0  0  0
  -33.4674  -20.7576   19.7860 C   0  0  0  0  0  0
  -33.0086  -23.0772   20.1605 C   0  0  0  0  0  0
  -28.5703  -20.7063   18.6969 C   0  0  0  0  0  0
  -31.7060  -21.3761   21.4493 C   0  0  0  0  0  0
  -28.8187  -23.6935   20.0505 C   0  0  0  0  0  0
  -28.5944  -22.2256   20.7149 C   0  0  0  0  0  0
  -28.0876  -24.9886   20.6849 C   0  0  0  0  0  0
  -29.8051  -15.8584   20.6746 N   0  0  0  0  0  0
  -29.1384  -20.9884   20.0128 N   0  0  0  0  0  0
  -32.4152  -21.7190   20.1927 N   0  3  0  0  0  0
  -31.4776  -12.5918   19.1705 H   0  0  0  0  0  0
  -30.3920  -11.4736   19.9488 H   0  0  0  0  0  0
  -29.7973  -11.7336   17.5159 H   0  0  0  0  0  0
  -29.6334  -13.4608   17.7203 H   0  0  0  0  0  0
  -27.9025  -11.2727   18.9213 H   0  0  0  0  0  0
  -27.3783  -12.5023   17.8004 H   0  0  0  0  0  0
  -27.6385  -14.2421   19.4630 H   0  0  0  0  0  0
  -28.7192  -12.1463   21.4132 H   0  0  0  0  0  0
  -28.4151  -13.8183   21.8043 H   0  0  0  0  0  0
  -25.2730   -9.5699   22.4741 H   0  0  0  0  0  0
  -23.9998   -7.4619   22.7463 H   0  0  0  0  0  0
  -21.0809   -8.8741   19.8960 H   0  0  0  0  0  0
  -22.3631  -10.9655   19.6165 H   0  0  0  0  0  0
  -21.2011   -7.6135   23.9703 H   0  0  0  0  0  0
  -21.1477   -6.0513   25.9068 H   0  0  0  0  0  0
  -22.0606   -2.7600   23.2849 H   0  0  0  0  0  0
  -22.4072  -11.9912   22.4832 H   0  0  0  0  0  0
  -21.1074  -13.1283   22.2615 H   0  0  0  0  0  0
  -24.6555  -15.8412   20.5168 H   0  0  0  0  0  0
  -26.2584  -15.6213   20.0352 H   0  0  0  0  0  0
  -26.7191  -32.5414   23.1059 H   0  0  0  0  0  0
  -25.0033  -33.9695   25.0363 H   0  0  0  0  0  0
  -22.7210  -31.2993   21.3970 H   0  0  0  0  0  0
  -23.3754  -35.9624   23.3289 H   0  0  0  0  0  0
  -24.3592  -36.8936   22.2060 H   0  0  0  0  0  0
  -23.7255  -37.6485   23.6686 H   0  0  0  0  0  0
  -26.1015  -31.5357   20.6014 H   0  0  0  0  0  0
  -26.8488  -30.8282   22.0019 H   0  0  0  0  0  0
  -28.1195  -28.9472   21.1990 H   0  0  0  0  0  0
  -25.9866  -25.8995   19.0188 H   0  0  0  0  0  0
  -23.9770  -27.3027   18.9998 H   0  0  0  0  0  0
  -23.7610  -30.5867   19.4003 H   0  0  0  0  0  0
  -22.7618  -29.2397   19.8573 H   0  0  0  0  0  0
  -25.1300  -36.1907   25.0814 H   0  0  0  0  0  0
  -20.9983  -28.3291   24.1405 H   0  0  0  0  0  0
  -20.5685  -26.2314   23.3633 H   0  0  0  0  0  0
  -21.6647  -26.7450   22.1224 H   0  0  0  0  0  0
  -19.6918  -25.6301   21.1256 H   0  0  0  0  0  0
  -19.6699  -27.3204   20.6757 H   0  0  0  0  0  0
  -17.4211  -26.6705   21.4019 H   0  0  0  0  0  0
  -18.0317  -26.0089   22.9024 H   0  0  0  0  0  0
  -19.7931  -30.7295   24.2260 H   0  0  0  0  0  0
  -17.5004  -31.6269   24.5191 H   0  0  0  0  0  0
  -15.5352  -30.2987   23.7648 H   0  0  0  0  0  0
  -15.8685  -28.0842   22.7027 H   0  0  0  0  0  0
  -24.5902  -30.7080   25.7760 H   0  0  0  0  0  0
  -24.8911  -32.2897   26.4838 H   0  0  0  0  0  0
  -25.8040  -30.8919   27.0210 H   0  0  0  0  0  0
  -26.2896  -29.6742   24.1211 H   0  0  0  0  0  0
  -27.4043  -29.7260   25.4677 H   0  0  0  0  0  0
  -27.8768  -30.4273   23.9381 H   0  0  0  0  0  0
  -27.2668  -33.3639   26.2013 H   0  0  0  0  0  0
  -28.3858  -32.6870   25.0273 H   0  0  0  0  0  0
  -28.0733  -31.8470   26.5385 H   0  0  0  0  0  0
  -28.2583  -38.0100   24.7512 H   0  0  0  0  0  0
  -28.1093  -36.2630   24.6257 H   0  0  0  0  0  0
  -27.2309  -37.1414   25.8861 H   0  0  0  0  0  0
  -20.9397  -29.8749   21.6849 H   0  0  0  0  0  0
  -26.0167  -38.2836   24.1414 H   0  0  0  0  0  0
  -32.6463  -19.0694   22.3959 H   0  0  0  0  0  0
  -31.9408  -16.7806   22.0086 H   0  0  0  0  0  0
  -28.4946  -18.2386   19.8601 H   0  0  0  0  0  0
  -35.4824  -21.1057   18.9983 H   0  0  0  0  0  0
  -34.1697  -21.6721   17.9611 H   0  0  0  0  0  0
  -34.8041  -23.7350   19.0685 H   0  0  0  0  0  0
  -35.1198  -22.8896   20.5798 H   0  0  0  0  0  0
  -33.9557  -20.3429   20.6697 H   0  0  0  0  0  0
  -33.0604  -19.9247   19.2097 H   0  0  0  0  0  0
  -32.4474  -23.6789   19.4441 H   0  0  0  0  0  0
  -32.9511  -23.5870   21.1234 H   0  0  0  0  0  0
  -29.2949  -20.1854   18.0686 H   0  0  0  0  0  0
  -28.2943  -21.6216   18.1722 H   0  0  0  0  0  0
  -27.6721  -20.0922   18.7722 H   0  0  0  0  0  0
  -32.4177  -21.3636   22.2752 H   0  0  0  0  0  0
  -30.9999  -22.1590   21.7043 H   0  0  0  0  0  0
  -28.5146  -23.6533   19.0053 H   0  0  0  0  0  0
  -29.8884  -23.8954   20.0306 H   0  0  0  0  0  0
  -27.5155  -22.0768   20.7941 H   0  0  0  0  0  0
  -28.9171  -22.2414   21.7560 H   0  0  0  0  0  0
  -28.3823  -25.0292   21.7343 H   0  0  0  0  0  0
  -27.0212  -24.7684   20.7202 H   0  0  0  0  0  0
  -28.8163  -15.6625   20.7014 H   0  0  0  0  0  0
  -31.7079  -21.7053   19.4719 H   0  0  0  0  0  0
  1 25  1  0  0  0
  1 30  2  0  0  0
  1 86  1  0  0  0
  2  3  1  0  0  0
  2 25  1  0  0  0
  2 89  1  0  0  0
  2 90  1  0  0  0
  3  4  1  0  0  0
  3 91  1  0  0  0
  3 92  1  0  0  0
  4  5  1  0  0  0
  4 93  1  0  0  0
  4 94  1  0  0  0
  5  6  1  0  0  0
  5 26  1  0  0  0
  5 95  1  0  0  0
  6 25  1  0  0  0
  6 96  1  0  0  0
  6 97  1  0  0  0
  7  8  2  0  0  0
  7 26  1  0  0  0
  7 29  1  0  0  0
  8  9  1  0  0  0
  8 22  1  0  0  0
  9 10  1  0  0  0
  9 27  2  0  0  0
 10 11  2  0  0  0
 10 15  1  0  0  0
 11 12  1  0  0  0
 11 98  1  0  0  0
 12 13  2  0  0  0
 12 99  1  0  0  0
 13 14  1  0  0  0
 13 31  1  0  0  0
 14 15  2  0  0  0
 14100  1  0  0  0
 15101  1  0  0  0
 16 17  2  0  0  0
 16 21  1  0  0  0
 16 31  1  0  0  0
 17 18  1  0  0  0
 17102  1  0  0  0
 18 19  2  0  0  0
 18103  1  0  0  0
 19 20  1  0  0  0
 19 24  1  0  0  0
 20 21  2  0  0  0
 20104  1  0  0  0
 21 23  1  0  0  0
 22 28  1  0  0  0
 22 32  2  0  0  0
 26 27  1  0  0  0
 28105  1  0  0  0
 28106  1  0  0  0
 29107  1  0  0  0
 29108  1  0  0  0
 33 34  1  0  0  0
 33 66  1  0  0  0
 33 70  2  0  0  0
 34 36  1  0  0  0
 34 59  1  0  0  0
 34109  1  0  0  0
 35 44  2  0  0  0
 35 45  1  0  0  0
 35 68  1  0  0  0
 36 56  1  0  0  0
 36110  1  0  0  0
 37 39  1  0  0  0
 37 47  1  0  0  0
 37 66  1  0  0  0
 37111  1  0  0  0
 38 43  2  0  0  0
 38 46  1  0  0  0
 38 47  1  0  0  0
 39 64  1  0  0  0
 39 67  2  0  0  0
 40 52  1  0  0  0
 40 53  2  0  0  0
 40 58  1  0  0  0
 41112  1  0  0  0
 41113  1  0  0  0
 41114  1  0  0  0
 41 48  1  0  0  0
 42 43  1  0  0  0
 42 66  1  0  0  0
 42115  1  0  0  0
 42116  1  0  0  0
 43 44  1  0  0  0
 44117  1  0  0  0
 45 46  2  0  0  0
 45118  1  0  0  0
 46119  1  0  0  0
 47120  1  0  0  0
 47121  1  0  0  0
 48 56  1  0  0  0
 48 65  1  0  0  0
 48122  1  0  0  0
 49 50  1  0  0  0
 49 53  1  0  0  0
 49 64  1  0  0  0
 49123  1  0  0  0
 50 51  1  0  0  0
 50124  1  0  0  0
 50125  1  0  0  0
 51 52  1  0  0  0
 51126  1  0  0  0
 51127  1  0  0  0
 52128  1  0  0  0
 52129  1  0  0  0
 53 54  1  0  0  0
 54 55  2  0  0  0
 54130  1  0  0  0
 55 57  1  0  0  0
 55131  1  0  0  0
 56 69  2  0  0  0
 57 58  2  0  0  0
 57132  1  0  0  0
 58133  1  0  0  0
 59 60  1  0  0  0
 59 61  1  0  0  0
 59 62  1  0  0  0
 60134  1  0  0  0
 60135  1  0  0  0
 60136  1  0  0  0
 61137  1  0  0  0
 61138  1  0  0  0
 61139  1  0  0  0
 62140  1  0  0  0
 62141  1  0  0  0
 62142  1  0  0  0
 63 65  1  0  0  0
 63143  1  0  0  0
 63144  1  0  0  0
 63145  1  0  0  0
 64146  1  0  0  0
 65147  1  0  0  0
 68 85  1  0  0  0
 71 72  2  0  0  0
 71 74  1  0  0  0
 71148  1  0  0  0
 72 75  1  0  0  0
 72149  1  0  0  0
 73 75  2  0  0  0
 73 76  1  0  0  0
 73150  1  0  0  0
 74 76  2  0  0  0
 74 82  1  0  0  0
 75 86  1  0  0  0
 76 87  1  0  0  0
 77 78  1  0  0  0
 77 79  1  0  0  0
 77151  1  0  0  0
 77152  1  0  0  0
 78 80  1  0  0  0
 78153  1  0  0  0
 78154  1  0  0  0
 79 88  1  0  0  0
 79155  1  0  0  0
 79156  1  0  0  0
 80 88  1  0  0  0
 80157  1  0  0  0
 80158  1  0  0  0
 81 87  1  0  0  0
 81159  1  0  0  0
 81160  1  0  0  0
 81161  1  0  0  0
 82162  1  0  0  0
 82163  1  0  0  0
 82 88  1  0  0  0
 83 84  1  0  0  0
 83 85  1  0  0  0
 83164  1  0  0  0
 83165  1  0  0  0
 84 87  1  0  0  0
 84166  1  0  0  0
 84167  1  0  0  0
 85168  1  0  0  0
 85169  1  0  0  0
 86170  1  0  0  0
 88171  1  0  0  0
M  CHG  1  88   1
M  ISO  4   1 100  68 101  85 101  86 100
M  END
> <chiral flag>
0

> <version>
0

> <s_m_source_file>
/data/baiqing/PycharmProjects/Reinvent-master-3.2/result/LINK_invent/BTK/process_docking_weight1_custom_product_contain_oxygen_bond_distance_aromatic_linkinvent_7_9_3/rearranged_h_0012.sdf

> <i_m_source_file_index>
6

> <r_mmod_Potential_Energy-OPLS-2005>
145.766174316406

> <r_mmod_Stretch_Energy-OPLS-2005>
124.510581970215

> <r_mmod_Bend_Energy-OPLS-2005>
190.552032470703

> <r_mmod_Torsional_Energy-OPLS-2005>
304.408599853516

> <r_mmod_Improper_Torsional_Energy-OPLS-2005>
8.14625930786133

> <r_mmod_Van_der_Waal_Energy-OPLS-2005>
138.171051025391

> <r_mmod_Electrostatic_Energy-OPLS-2005>
-275.75048828125

> <r_mmod_Solvation_Energy-OPLS-2005>
-424.114501953125

> <b_mmod_Minimization_Converged-OPLS-2005>
0

> <r_mmod_RMS_Derivative-OPLS-2005>
2.76964735984802

$$$$
6
                    3D
 Structure written by MMmdl.
177187  0  0  1  0            999 V2000
  -30.7504  -14.4126   20.6258 C   0  0  0  0  0  0
  -30.4137  -12.2923   19.4110 C   0  0  0  0  0  0
  -29.4870  -12.5125   18.2004 C   0  0  0  0  0  0
  -28.0103  -12.3723   18.6162 C   0  0  0  0  0  0
  -27.6624  -13.2081   19.8777 C   0  0  2  0  0  0
  -28.7029  -12.9797   20.9969 C   0  0  0  0  0  0
  -25.2568  -13.8162   20.5650 C   0  0  0  0  0  0
  -24.1827  -13.0438   20.9155 C   0  0  0  0  0  0
  -24.6391  -11.6908   20.8734 C   0  0  0  0  0  0
  -23.9057  -10.4294   21.0403 C   0  0  0  0  0  0
  -24.3610   -9.4211   21.9184 C   0  0  0  0  0  0
  -23.6289   -8.2247   22.0758 C   0  0  0  0  0  0
  -22.4270   -8.0281   21.3547 C   0  0  0  0  0  0
  -21.9903   -9.0252   20.4647 C   0  0  0  0  0  0
  -22.7231  -10.2132   20.3053 C   0  0  0  0  0  0
  -21.6853   -6.0733   22.5278 C   0  0  0  0  0  0
  -21.4014   -6.5638   23.8211 C   0  0  0  0  0  0
  -21.3659   -5.6792   24.9174 C   0  0  0  0  0  0
  -21.6045   -4.3054   24.7224 C   0  0  0  0  0  0
  -21.8818   -3.8145   23.4346 C   0  0  0  0  0  0
  -21.9193   -4.6961   22.3401 C   0  0  0  0  0  0
  -22.7849  -13.5240   21.1823 C   0  0  0  0  0  0
  -22.1660   -4.2146   21.0979 F   0  0  0  0  0  0
  -21.5629   -3.4538   25.7738 F   0  0  0  0  0  0
  -30.0385  -13.2690   20.4448 N   0  0  0  0  0  0
  -26.3029  -12.9346   20.3389 N   0  0  0  0  0  0
  -25.9323  -11.6499   20.5782 N   0  0  0  0  0  0
  -22.0500  -12.8234   22.0389 N   0  0  0  0  0  0
  -25.4254  -15.1865   20.4010 N   0  0  0  0  0  0
  -31.8388  -14.6180   20.0803 O   0  0  0  0  0  0
  -21.6640   -6.8875   21.4240 O   0  0  0  0  0  0
  -22.3529  -14.5548   20.6681 O   0  0  0  0  0  0
  -24.6124  -31.8687   23.2095 C   0  0  0  0  0  0
  -25.9023  -32.4823   23.8390 C   0  0  1  0  0  0
  -27.2408  -27.4535   20.0754 C   0  0  0  0  0  0
  -25.5899  -33.8619   24.2327 N   0  0  0  0  0  0
  -23.3992  -30.4924   21.5494 C   0  0  2  0  0  0
  -24.8433  -28.9561   20.1164 C   0  0  0  0  0  0
  -22.7387  -29.4659   22.4984 C   0  0  0  0  0  0
  -18.0274  -28.1367   22.8502 C   0  0  0  0  0  0
  -24.1487  -36.7305   23.2646 C   0  0  0  0  0  0
  -25.9244  -30.8397   21.3571 C   0  0  0  0  0  0
  -26.0010  -29.4720   20.7096 C   0  0  0  0  0  0
  -27.1978  -28.7245   20.6917 C   0  0  0  0  0  0
  -26.0584  -26.9410   19.4917 C   0  0  0  0  0  0
  -24.8652  -27.6871   19.5122 C   0  0  0  0  0  0
  -23.6057  -29.8231   20.1643 C   0  0  0  0  0  0
  -25.4107  -36.3103   24.0343 C   0  0  1  0  0  0
  -20.5864  -28.3649   23.1319 C   0  0  2  0  0  0
  -20.6752  -26.9389   22.5407 C   0  0  0  0  0  0
  -19.5735  -26.6380   21.5203 C   0  0  0  0  0  0
  -18.1915  -26.7921   22.1614 C   0  0  0  0  0  0
  -19.1525  -28.8823   23.2913 C   0  0  0  0  0  0
  -18.9454  -30.1429   23.8924 C   0  0  0  0  0  0
  -17.6458  -30.6575   24.0574 C   0  0  0  0  0  0
  -25.9030  -34.9473   23.5130 C   0  0  0  0  0  0
  -16.5351  -29.9083   23.6325 C   0  0  0  0  0  0
  -16.7265  -28.6496   23.0350 C   0  0  0  0  0  0
  -26.4467  -31.6597   25.0706 C   0  0  0  0  0  0
  -25.3756  -31.3682   26.1469 C   0  0  0  0  0  0
  -27.0290  -30.3053   24.6040 C   0  0  0  0  0  0
  -27.6061  -32.4301   25.7467 C   0  0  0  0  0  0
  -27.5578  -37.1802   24.8478 C   0  0  0  0  0  0
  -21.4118  -29.3033   22.3730 N   0  0  0  0  0  0
  -26.4289  -37.3784   23.9426 N   0  0  0  0  0  0
  -24.6637  -31.0806   22.0981 N   0  0  0  0  0  0
  -23.4175  -28.8201   23.3008 O   0  0  0  0  0  0
  -28.4496  -26.7890   20.0689 O   0  0  0  0  0  0
  -26.5588  -34.8932   22.4685 O   0  0  0  0  0  0
  -23.5314  -32.1417   23.7495 O   0  0  0  0  0  0
  -25.6355  -20.3329   21.7637 C   0  0  0  0  0  0
  -26.4384  -20.8252   20.7183 C   0  0  0  0  0  0
  -31.8672  -16.5026   22.6673 C   0  0  0  0  0  0
  -32.4919  -17.6719   23.1351 C   0  0  0  0  0  0
  -25.9911  -19.1231   22.3749 C   0  0  0  0  0  0
  -27.5977  -20.1283   20.2776 C   0  0  0  0  0  0
  -27.9366  -18.8791   20.8923 C   0  0  0  0  0  0
  -30.2685  -17.8527   21.3819 C   0  0  0  0  0  0
  -30.7646  -16.5780   21.7860 C   0  0  0  0  0  0
  -32.0158  -18.9297   22.7286 C   0  0  0  0  0  0
  -30.9148  -19.0204   21.8574 C   0  0  0  0  0  0
  -27.1157  -18.4155   21.9489 C   0  0  0  0  0  0
  -25.1963  -18.4532   23.4760 C   0  0  0  0  0  0
  -26.1014  -17.3689   24.0936 C   0  0  0  0  0  0
  -28.7564  -22.5746   17.5570 C   0  0  0  0  0  0
  -29.0961  -17.9960   20.4063 C   0  0  0  0  0  0
  -28.4223  -20.7121   19.1170 C   0  0  0  0  0  0
  -28.1657  -24.3503   20.2729 C   0  0  0  0  0  0
  -28.8858  -23.0050   19.9941 C   0  0  0  0  0  0
  -28.5992  -25.5402   19.3895 C   0  0  0  0  0  0
  -30.1558  -15.3629   21.3660 N   0  0  0  0  0  0
  -28.2790  -22.1828   18.9058 N   0  3  1  0  0  0
  -32.6218  -20.0556   23.1751 F   0  0  0  0  0  0
  -30.4893  -20.2473   21.4720 F   0  0  0  0  0  0
  -27.3455  -16.9246   22.8439 S   0  0  0  0  0  0
  -31.4593  -12.3769   19.1092 H   0  0  0  0  0  0
  -30.3006  -11.2788   19.7985 H   0  0  0  0  0  0
  -29.7223  -11.7974   17.4110 H   0  0  0  0  0  0
  -29.6585  -13.5038   17.7775 H   0  0  0  0  0  0
  -27.8200  -11.3156   18.8076 H   0  0  0  0  0  0
  -27.3572  -12.6513   17.7888 H   0  0  0  0  0  0
  -27.7105  -14.2582   19.5891 H   0  0  0  0  0  0
  -28.6691  -11.9441   21.3387 H   0  0  0  0  0  0
  -28.4610  -13.5790   21.8753 H   0  0  0  0  0  0
  -25.2757   -9.5689   22.4754 H   0  0  0  0  0  0
  -23.9998   -7.4639   22.7479 H   0  0  0  0  0  0
  -21.0835   -8.8765   19.8950 H   0  0  0  0  0  0
  -22.3691  -10.9665   19.6157 H   0  0  0  0  0  0
  -21.2007   -7.6147   23.9713 H   0  0  0  0  0  0
  -21.1482   -6.0522   25.9076 H   0  0  0  0  0  0
  -22.0599   -2.7606   23.2847 H   0  0  0  0  0  0
  -22.4112  -11.9887   22.4760 H   0  0  0  0  0  0
  -21.1119  -13.1257   22.2600 H   0  0  0  0  0  0
  -24.6730  -15.8460   20.5600 H   0  0  0  0  0  0
  -26.3053  -15.6352   20.1857 H   0  0  0  0  0  0
  -26.7096  -32.5549   23.1155 H   0  0  0  0  0  0
  -25.0097  -33.9791   25.0509 H   0  0  0  0  0  0
  -22.6871  -31.3076   21.4081 H   0  0  0  0  0  0
  -23.3745  -35.9641   23.3313 H   0  0  0  0  0  0
  -24.3588  -36.8889   22.2055 H   0  0  0  0  0  0
  -23.7221  -37.6513   23.6639 H   0  0  0  0  0  0
  -26.0280  -31.6027   20.5841 H   0  0  0  0  0  0
  -26.8152  -30.8990   21.9707 H   0  0  0  0  0  0
  -28.0959  -29.1266   21.1400 H   0  0  0  0  0  0
  -26.0354  -25.9740   19.0131 H   0  0  0  0  0  0
  -23.9727  -27.2799   19.0564 H   0  0  0  0  0  0
  -23.7137  -30.5971   19.4037 H   0  0  0  0  0  0
  -22.7300  -29.2419   19.8709 H   0  0  0  0  0  0
  -25.1260  -36.1968   25.0828 H   0  0  0  0  0  0
  -20.9971  -28.3208   24.1431 H   0  0  0  0  0  0
  -20.5623  -26.2261   23.3587 H   0  0  0  0  0  0
  -21.6623  -26.7397   22.1223 H   0  0  0  0  0  0
  -19.6897  -25.6294   21.1218 H   0  0  0  0  0  0
  -19.6689  -27.3206   20.6752 H   0  0  0  0  0  0
  -17.4180  -26.6685   21.4020 H   0  0  0  0  0  0
  -18.0317  -26.0042   22.8986 H   0  0  0  0  0  0
  -19.7934  -30.7230   24.2305 H   0  0  0  0  0  0
  -17.5023  -31.6270   24.5153 H   0  0  0  0  0  0
  -15.5354  -30.2999   23.7626 H   0  0  0  0  0  0
  -15.8665  -28.0825   22.7050 H   0  0  0  0  0  0
  -24.5951  -30.6994   25.7820 H   0  0  0  0  0  0
  -24.8935  -32.2828   26.4933 H   0  0  0  0  0  0
  -25.8130  -30.8858   27.0218 H   0  0  0  0  0  0
  -26.2807  -29.6819   24.1128 H   0  0  0  0  0  0
  -27.4127  -29.7266   25.4453 H   0  0  0  0  0  0
  -27.8608  -30.4396   23.9120 H   0  0  0  0  0  0
  -27.2700  -33.3593   26.2074 H   0  0  0  0  0  0
  -28.3854  -32.6852   25.0281 H   0  0  0  0  0  0
  -28.0752  -31.8403   26.5350 H   0  0  0  0  0  0
  -28.2588  -38.0107   24.7504 H   0  0  0  0  0  0
  -28.1049  -36.2621   24.6286 H   0  0  0  0  0  0
  -27.2298  -37.1438   25.8883 H   0  0  0  0  0  0
  -20.9249  -29.8776   21.6991 H   0  0  0  0  0  0
  -26.0170  -38.2848   24.1444 H   0  0  0  0  0  0
  -24.7537  -20.8729   22.0786 H   0  0  0  0  0  0
  -26.1269  -21.7499   20.2563 H   0  0  0  0  0  0
  -32.2451  -15.5429   22.9932 H   0  0  0  0  0  0
  -33.3367  -17.6061   23.8044 H   0  0  0  0  0  0
  -24.3106  -17.9979   23.0311 H   0  0  0  0  0  0
  -24.8644  -19.1742   24.2237 H   0  0  0  0  0  0
  -25.5379  -16.5037   24.4442 H   0  0  0  0  0  0
  -26.6321  -17.7863   24.9505 H   0  0  0  0  0  0
  -28.2506  -22.0023   16.7777 H   0  0  0  0  0  0
  -29.8278  -22.4038   17.4509 H   0  0  0  0  0  0
  -28.5645  -23.6245   17.3484 H   0  0  0  0  0  0
  -29.5000  -18.3354   19.4558 H   0  0  0  0  0  0
  -28.6679  -17.0230   20.1711 H   0  0  0  0  0  0
  -28.1102  -20.1796   18.2170 H   0  0  0  0  0  0
  -29.4838  -20.5034   19.2461 H   0  0  0  0  0  0
  -28.4096  -24.6194   21.3011 H   0  0  0  0  0  0
  -27.0826  -24.2289   20.2628 H   0  0  0  0  0  0
  -28.8400  -22.4358   20.9222 H   0  0  0  0  0  0
  -29.9529  -23.1549   19.8177 H   0  0  0  0  0  0
  -28.1075  -25.5417   18.4164 H   0  0  0  0  0  0
  -29.6642  -25.4492   19.1749 H   0  0  0  0  0  0
  -29.2100  -15.1872   21.6723 H   0  0  0  0  0  0
  -27.2848  -22.3489   18.9152 H   0  0  0  0  0  0
  1 25  1  0  0  0
  1 30  2  0  0  0
  1 91  1  0  0  0
  2  3  1  0  0  0
  2 25  1  0  0  0
  2 96  1  0  0  0
  2 97  1  0  0  0
  3  4  1  0  0  0
  3 98  1  0  0  0
  3 99  1  0  0  0
  4  5  1  0  0  0
  4100  1  0  0  0
  4101  1  0  0  0
  5  6  1  0  0  0
  5 26  1  0  0  0
  5102  1  0  0  0
  6 25  1  0  0  0
  6103  1  0  0  0
  6104  1  0  0  0
  7  8  2  0  0  0
  7 26  1  0  0  0
  7 29  1  0  0  0
  8  9  1  0  0  0
  8 22  1  0  0  0
  9 10  1  0  0  0
  9 27  2  0  0  0
 10 11  2  0  0  0
 10 15  1  0  0  0
 11 12  1  0  0  0
 11105  1  0  0  0
 12 13  2  0  0  0
 12106  1  0  0  0
 13 14  1  0  0  0
 13 31  1  0  0  0
 14 15  2  0  0  0
 14107  1  0  0  0
 15108  1  0  0  0
 16 17  2  0  0  0
 16 21  1  0  0  0
 16 31  1  0  0  0
 17 18  1  0  0  0
 17109  1  0  0  0
 18 19  2  0  0  0
 18110  1  0  0  0
 19 20  1  0  0  0
 19 24  1  0  0  0
 20 21  2  0  0  0
 20111  1  0  0  0
 21 23  1  0  0  0
 22 28  1  0  0  0
 22 32  2  0  0  0
 26 27  1  0  0  0
 28112  1  0  0  0
 28113  1  0  0  0
 29114  1  0  0  0
 29115  1  0  0  0
 33 34  1  0  0  0
 33 66  1  0  0  0
 33 70  2  0  0  0
 34 36  1  0  0  0
 34 59  1  0  0  0
 34116  1  0  0  0
 35 44  2  0  0  0
 35 45  1  0  0  0
 35 68  1  0  0  0
 36 56  1  0  0  0
 36117  1  0  0  0
 37 39  1  0  0  0
 37 47  1  0  0  0
 37 66  1  0  0  0
 37118  1  0  0  0
 38 43  2  0  0  0
 38 46  1  0  0  0
 38 47  1  0  0  0
 39 64  1  0  0  0
 39 67  2  0  0  0
 40 52  1  0  0  0
 40 53  2  0  0  0
 40 58  1  0  0  0
 41119  1  0  0  0
 41120  1  0  0  0
 41121  1  0  0  0
 41 48  1  0  0  0
 42 43  1  0  0  0
 42 66  1  0  0  0
 42122  1  0  0  0
 42123  1  0  0  0
 43 44  1  0  0  0
 44124  1  0  0  0
 45 46  2  0  0  0
 45125  1  0  0  0
 46126  1  0  0  0
 47127  1  0  0  0
 47128  1  0  0  0
 48 56  1  0  0  0
 48 65  1  0  0  0
 48129  1  0  0  0
 49 50  1  0  0  0
 49 53  1  0  0  0
 49 64  1  0  0  0
 49130  1  0  0  0
 50 51  1  0  0  0
 50131  1  0  0  0
 50132  1  0  0  0
 51 52  1  0  0  0
 51133  1  0  0  0
 51134  1  0  0  0
 52135  1  0  0  0
 52136  1  0  0  0
 53 54  1  0  0  0
 54 55  2  0  0  0
 54137  1  0  0  0
 55 57  1  0  0  0
 55138  1  0  0  0
 56 69  2  0  0  0
 57 58  2  0  0  0
 57139  1  0  0  0
 58140  1  0  0  0
 59 60  1  0  0  0
 59 61  1  0  0  0
 59 62  1  0  0  0
 60141  1  0  0  0
 60142  1  0  0  0
 60143  1  0  0  0
 61144  1  0  0  0
 61145  1  0  0  0
 61146  1  0  0  0
 62147  1  0  0  0
 62148  1  0  0  0
 62149  1  0  0  0
 63 65  1  0  0  0
 63150  1  0  0  0
 63151  1  0  0  0
 63152  1  0  0  0
 64153  1  0  0  0
 65154  1  0  0  0
 68 90  1  0  0  0
 71 72  2  0  0  0
 71 75  1  0  0  0
 71155  1  0  0  0
 72 76  1  0  0  0
 72156  1  0  0  0
 73 74  2  0  0  0
 73 79  1  0  0  0
 73157  1  0  0  0
 74 80  1  0  0  0
 74158  1  0  0  0
 75 82  2  0  0  0
 75 83  1  0  0  0
 76 77  2  0  0  0
 76 87  1  0  0  0
 77 82  1  0  0  0
 77 86  1  0  0  0
 78 79  2  0  0  0
 78 81  1  0  0  0
 78 86  1  0  0  0
 79 91  1  0  0  0
 80 81  2  0  0  0
 80 93  1  0  0  0
 81 94  1  0  0  0
 82 95  1  0  0  0
 83 84  1  0  0  0
 83159  1  0  0  0
 83160  1  0  0  0
 84 95  1  0  0  0
 84161  1  0  0  0
 84162  1  0  0  0
 85163  1  0  0  0
 85164  1  0  0  0
 85165  1  0  0  0
 85 92  1  0  0  0
 86166  1  0  0  0
 86167  1  0  0  0
 87 92  1  0  0  0
 87168  1  0  0  0
 87169  1  0  0  0
 88 89  1  0  0  0
 88 90  1  0  0  0
 88170  1  0  0  0
 88171  1  0  0  0
 89 92  1  0  0  0
 89172  1  0  0  0
 89173  1  0  0  0
 90174  1  0  0  0
 90175  1  0  0  0
 91176  1  0  0  0
 92177  1  0  0  0
M  CHG  1  92   1
M  ISO  4   1 100  68 101  90 101  91 100
M  END
> <chiral flag>
0

> <version>
0

> <s_m_source_file>
/data/baiqing/PycharmProjects/Reinvent-master-3.2/result/LINK_invent/BTK/process_docking_weight1_custom_product_contain_oxygen_bond_distance_aromatic_linkinvent_7_9_3/rearranged_h_0012.sdf

> <i_m_source_file_index>
7

> <r_mmod_Potential_Energy-OPLS-2005>
-111.215789794922

> <r_mmod_Stretch_Energy-OPLS-2005>
42.0364074707031

> <r_mmod_Bend_Energy-OPLS-2005>
138.644912719727

> <r_mmod_Torsional_Energy-OPLS-2005>
250.384460449219

> <r_mmod_Improper_Torsional_Energy-OPLS-2005>
2.53762650489807

> <r_mmod_Van_der_Waal_Energy-OPLS-2005>
158.476654052734

> <r_mmod_Electrostatic_Energy-OPLS-2005>
-277.868377685547

> <r_mmod_Solvation_Energy-OPLS-2005>
-434.732757568359

> <b_mmod_Minimization_Converged-OPLS-2005>
0

> <r_mmod_RMS_Derivative-OPLS-2005>
1.69638681411743

$$$$
7
                    3D
 Structure written by MMmdl.
149157  0  0  1  0            999 V2000
  -30.4278  -15.3029   20.4188 C   0  0  0  0  0  0
  -30.4407  -12.8360   19.5552 C   0  0  0  0  0  0
  -29.5440  -12.6062   18.3088 C   0  0  0  0  0  0
  -28.0892  -12.3223   18.7210 C   0  0  0  0  0  0
  -27.6168  -13.2776   19.8413 C   0  0  2  0  0  0
  -28.6452  -13.4210   20.9809 C   0  0  0  0  0  0
  -25.2316  -13.8151   20.5681 C   0  0  0  0  0  0
  -24.1685  -13.0348   20.9179 C   0  0  0  0  0  0
  -24.6388  -11.6861   20.8731 C   0  0  0  0  0  0
  -23.9088  -10.4244   21.0384 C   0  0  0  0  0  0
  -24.3633   -9.4174   21.9176 C   0  0  0  0  0  0
  -23.6295   -8.2219   22.0756 C   0  0  0  0  0  0
  -22.4276   -8.0258   21.3538 C   0  0  0  0  0  0
  -21.9912   -9.0232   20.4647 C   0  0  0  0  0  0
  -22.7251  -10.2094   20.3045 C   0  0  0  0  0  0
  -21.6844   -6.0722   22.5284 C   0  0  0  0  0  0
  -21.4017   -6.5632   23.8218 C   0  0  0  0  0  0
  -21.3658   -5.6786   24.9183 C   0  0  0  0  0  0
  -21.6039   -4.3046   24.7230 C   0  0  0  0  0  0
  -21.8818   -3.8132   23.4351 C   0  0  0  0  0  0
  -21.9199   -4.6954   22.3408 C   0  0  0  0  0  0
  -22.7722  -13.5103   21.1867 C   0  0  0  0  0  0
  -22.1662   -4.2139   21.0985 F   0  0  0  0  0  0
  -21.5631   -3.4529   25.7746 F   0  0  0  0  0  0
  -29.8808  -13.9744   20.3890 N   0  0  0  0  0  0
  -26.2840  -12.9488   20.3308 N   0  0  0  0  0  0
  -25.9363  -11.6581   20.5803 N   0  0  0  0  0  0
  -22.0420  -12.8120   22.0473 N   0  0  0  0  0  0
  -25.3788  -15.1868   20.4079 N   0  0  0  0  0  0
  -31.5991  -15.3190   20.0063 O   0  0  0  0  0  0
  -21.6629   -6.8857   21.4241 O   0  0  0  0  0  0
  -22.3401  -14.5421   20.6730 O   0  0  0  0  0  0
  -24.6634  -31.8213   23.1681 C   0  0  0  0  0  0
  -25.9320  -32.4571   23.8140 C   0  0  1  0  0  0
  -27.2259  -26.9128   20.1987 C   0  0  0  0  0  0
  -25.5996  -33.8384   24.2066 N   0  0  0  0  0  0
  -23.4785  -30.4337   21.5154 C   0  0  2  0  0  0
  -24.9362  -28.8131   20.1108 C   0  0  0  0  0  0
  -22.7657  -29.4458   22.4752 C   0  0  0  0  0  0
  -18.0328  -28.1410   22.8454 C   0  0  0  0  0  0
  -24.1504  -36.7190   23.2646 C   0  0  0  0  0  0
  -26.0472  -30.6258   21.3979 C   0  0  0  0  0  0
  -26.1182  -29.2118   20.7474 C   0  0  0  0  0  0
  -27.2560  -28.2839   20.7644 C   0  0  0  0  0  0
  -26.0151  -26.6677   19.5108 C   0  0  0  0  0  0
  -24.9119  -27.5627   19.4706 C   0  0  0  0  0  0
  -23.7206  -29.7415   20.1434 C   0  0  0  0  0  0
  -25.4141  -36.2939   24.0288 C   0  0  1  0  0  0
  -20.5959  -28.3769   23.1175 C   0  0  2  0  0  0
  -20.6813  -26.9450   22.5407 C   0  0  0  0  0  0
  -19.5789  -26.6379   21.5217 C   0  0  0  0  0  0
  -18.1969  -26.7938   22.1616 C   0  0  0  0  0  0
  -19.1592  -28.8909   23.2803 C   0  0  0  0  0  0
  -18.9500  -30.1499   23.8848 C   0  0  0  0  0  0
  -17.6492  -30.6606   24.0561 C   0  0  0  0  0  0
  -25.9103  -34.9331   23.4989 C   0  0  0  0  0  0
  -16.5383  -29.9096   23.6342 C   0  0  0  0  0  0
  -16.7310  -28.6512   23.0357 C   0  0  0  0  0  0
  -26.4579  -31.6505   25.0665 C   0  0  0  0  0  0
  -25.3715  -31.3765   26.1329 C   0  0  0  0  0  0
  -27.0478  -30.2866   24.6402 C   0  0  0  0  0  0
  -27.6059  -32.4311   25.7483 C   0  0  0  0  0  0
  -27.5566  -37.1752   24.8468 C   0  0  0  0  0  0
  -21.4327  -29.3060   22.3507 N   0  0  0  0  0  0
  -26.4282  -37.3681   23.9404 N   0  0  0  0  0  0
  -24.7509  -30.9876   22.0813 N   0  0  0  0  0  0
  -23.4206  -28.8032   23.2997 O   0  0  0  0  0  0
  -28.2347  -25.8080   20.2928 O   0  0  0  0  0  0
  -26.5715  -34.8874   22.4584 O   0  0  0  0  0  0
  -23.5708  -32.1192   23.6787 O   0  0  0  0  0  0
  -29.5106  -19.7582   20.5929 C   0  0  0  0  0  0
  -27.7890  -17.8878   20.0790 C   0  0  0  0  0  0
  -29.1076  -16.6449   22.0530 C   0  0  0  0  0  0
  -29.3108  -18.0781   20.0747 C   0  0  1  0  0  0
  -29.0150  -22.6791   20.4805 C   0  0  0  0  0  0
  -28.0292  -24.1662   20.1167 C   0  0  0  0  0  0
  -29.6986  -16.5776   20.7253 N   0  0  0  0  0  0
  -28.8504  -21.0297   20.1715 N   0  0  0  0  0  0
  -30.3727  -19.8959   21.4609 O   0  0  0  0  0  0
  -27.4300  -17.2871   21.7656 S   0  0  0  0  0  0
  -31.4598  -13.0375   19.2264 H   0  0  0  0  0  0
  -30.5165  -11.9206   20.1441 H   0  0  0  0  0  0
  -29.9312  -11.7809   17.7087 H   0  0  0  0  0  0
  -29.5776  -13.4910   17.6706 H   0  0  0  0  0  0
  -28.0392  -11.2926   19.0774 H   0  0  0  0  0  0
  -27.4239  -12.3816   17.8593 H   0  0  0  0  0  0
  -27.5383  -14.2568   19.3692 H   0  0  0  0  0  0
  -28.8232  -12.4680   21.4803 H   0  0  0  0  0  0
  -28.2346  -14.0729   21.7445 H   0  0  0  0  0  0
  -25.2770   -9.5652   22.4764 H   0  0  0  0  0  0
  -23.9995   -7.4603   22.7484 H   0  0  0  0  0  0
  -21.0840   -8.8740   19.8968 H   0  0  0  0  0  0
  -22.3691  -10.9632   19.6162 H   0  0  0  0  0  0
  -21.2000   -7.6135   23.9719 H   0  0  0  0  0  0
  -21.1483   -6.0512   25.9083 H   0  0  0  0  0  0
  -22.0596   -2.7597   23.2853 H   0  0  0  0  0  0
  -22.4057  -11.9788   22.4861 H   0  0  0  0  0  0
  -21.1065  -13.1173   22.2726 H   0  0  0  0  0  0
  -24.6088  -15.8138   20.6147 H   0  0  0  0  0  0
  -26.2747  -15.6577   20.4013 H   0  0  0  0  0  0
  -26.7387  -32.5110   23.0843 H   0  0  0  0  0  0
  -25.0092  -33.9463   25.0188 H   0  0  0  0  0  0
  -22.7923  -31.2663   21.3416 H   0  0  0  0  0  0
  -23.3764  -35.9527   23.3275 H   0  0  0  0  0  0
  -24.3577  -36.8866   22.2068 H   0  0  0  0  0  0
  -23.7271  -37.6372   23.6720 H   0  0  0  0  0  0
  -26.2230  -31.3637   20.6148 H   0  0  0  0  0  0
  -26.9081  -30.6928   22.0500 H   0  0  0  0  0  0
  -28.1476  -28.5906   21.2931 H   0  0  0  0  0  0
  -25.8870  -25.7098   19.0275 H   0  0  0  0  0  0
  -24.0147  -27.2545   18.9537 H   0  0  0  0  0  0
  -23.8710  -30.5074   19.3823 H   0  0  0  0  0  0
  -22.8301  -29.1942   19.8287 H   0  0  0  0  0  0
  -25.1345  -36.1721   25.0778 H   0  0  0  0  0  0
  -21.0054  -28.3399   24.1293 H   0  0  0  0  0  0
  -20.5692  -26.2398   23.3659 H   0  0  0  0  0  0
  -21.6678  -26.7423   22.1216 H   0  0  0  0  0  0
  -19.6961  -25.6271   21.1290 H   0  0  0  0  0  0
  -19.6737  -27.3151   20.6717 H   0  0  0  0  0  0
  -17.4237  -26.6675   21.4024 H   0  0  0  0  0  0
  -18.0378  -26.0103   22.9041 H   0  0  0  0  0  0
  -19.7991  -30.7322   24.2192 H   0  0  0  0  0  0
  -17.5059  -31.6278   24.5175 H   0  0  0  0  0  0
  -15.5384  -30.2992   23.7700 H   0  0  0  0  0  0
  -15.8702  -28.0836   22.7084 H   0  0  0  0  0  0
  -24.5923  -30.7081   25.7649 H   0  0  0  0  0  0
  -24.8892  -32.2979   26.4601 H   0  0  0  0  0  0
  -25.7974  -30.9042   27.0194 H   0  0  0  0  0  0
  -26.3155  -29.6529   24.1394 H   0  0  0  0  0  0
  -27.3989  -29.7235   25.5057 H   0  0  0  0  0  0
  -27.9095  -30.4022   23.9829 H   0  0  0  0  0  0
  -27.2616  -33.3651   26.1931 H   0  0  0  0  0  0
  -28.3959  -32.6802   25.0386 H   0  0  0  0  0  0
  -28.0629  -31.8520   26.5516 H   0  0  0  0  0  0
  -28.2564  -38.0063   24.7482 H   0  0  0  0  0  0
  -28.1076  -36.2578   24.6328 H   0  0  0  0  0  0
  -27.2269  -37.1430   25.8869 H   0  0  0  0  0  0
  -20.9574  -29.8733   21.6616 H   0  0  0  0  0  0
  -26.0110  -38.2734   24.1405 H   0  0  0  0  0  0
  -27.4974  -17.1242   19.3564 H   0  0  0  0  0  0
  -27.2159  -18.7860   19.8434 H   0  0  0  0  0  0
  -29.6650  -17.3788   22.6365 H   0  0  0  0  0  0
  -29.1237  -15.7283   22.6370 H   0  0  0  0  0  0
  -29.6632  -18.0617   19.0433 H   0  0  0  0  0  0
  -29.2210  -22.7215   21.5503 H   0  0  0  0  0  0
  -29.9809  -22.9001   20.0273 H   0  0  0  0  0  0
  -27.0805  -23.9849   20.6233 H   0  0  0  0  0  0
  -27.7888  -24.0674   19.0580 H   0  0  0  0  0  0
  -28.1354  -20.8603   19.4763 H   0  0  0  0  0  0
  1 25  1  0  0  0
  1 30  2  0  0  0
  1 77  1  0  0  0
  2  3  1  0  0  0
  2 25  1  0  0  0
  2 81  1  0  0  0
  2 82  1  0  0  0
  3  4  1  0  0  0
  3 83  1  0  0  0
  3 84  1  0  0  0
  4  5  1  0  0  0
  4 85  1  0  0  0
  4 86  1  0  0  0
  5  6  1  0  0  0
  5 26  1  0  0  0
  5 87  1  0  0  0
  6 25  1  0  0  0
  6 88  1  0  0  0
  6 89  1  0  0  0
  7  8  2  0  0  0
  7 26  1  0  0  0
  7 29  1  0  0  0
  8  9  1  0  0  0
  8 22  1  0  0  0
  9 10  1  0  0  0
  9 27  2  0  0  0
 10 11  2  0  0  0
 10 15  1  0  0  0
 11 12  1  0  0  0
 11 90  1  0  0  0
 12 13  2  0  0  0
 12 91  1  0  0  0
 13 14  1  0  0  0
 13 31  1  0  0  0
 14 15  2  0  0  0
 14 92  1  0  0  0
 15 93  1  0  0  0
 16 17  2  0  0  0
 16 21  1  0  0  0
 16 31  1  0  0  0
 17 18  1  0  0  0
 17 94  1  0  0  0
 18 19  2  0  0  0
 18 95  1  0  0  0
 19 20  1  0  0  0
 19 24  1  0  0  0
 20 21  2  0  0  0
 20 96  1  0  0  0
 21 23  1  0  0  0
 22 28  1  0  0  0
 22 32  2  0  0  0
 26 27  1  0  0  0
 28 97  1  0  0  0
 28 98  1  0  0  0
 29 99  1  0  0  0
 29100  1  0  0  0
 33 34  1  0  0  0
 33 66  1  0  0  0
 33 70  2  0  0  0
 34 36  1  0  0  0
 34 59  1  0  0  0
 34101  1  0  0  0
 35 44  2  0  0  0
 35 45  1  0  0  0
 35 68  1  0  0  0
 36 56  1  0  0  0
 36102  1  0  0  0
 37 39  1  0  0  0
 37 47  1  0  0  0
 37 66  1  0  0  0
 37103  1  0  0  0
 38 43  2  0  0  0
 38 46  1  0  0  0
 38 47  1  0  0  0
 39 64  1  0  0  0
 39 67  2  0  0  0
 40 52  1  0  0  0
 40 53  2  0  0  0
 40 58  1  0  0  0
 41104  1  0  0  0
 41105  1  0  0  0
 41106  1  0  0  0
 41 48  1  0  0  0
 42 43  1  0  0  0
 42 66  1  0  0  0
 42107  1  0  0  0
 42108  1  0  0  0
 43 44  1  0  0  0
 44109  1  0  0  0
 45 46  2  0  0  0
 45110  1  0  0  0
 46111  1  0  0  0
 47112  1  0  0  0
 47113  1  0  0  0
 48 56  1  0  0  0
 48 65  1  0  0  0
 48114  1  0  0  0
 49 50  1  0  0  0
 49 53  1  0  0  0
 49 64  1  0  0  0
 49115  1  0  0  0
 50 51  1  0  0  0
 50116  1  0  0  0
 50117  1  0  0  0
 51 52  1  0  0  0
 51118  1  0  0  0
 51119  1  0  0  0
 52120  1  0  0  0
 52121  1  0  0  0
 53 54  1  0  0  0
 54 55  2  0  0  0
 54122  1  0  0  0
 55 57  1  0  0  0
 55123  1  0  0  0
 56 69  2  0  0  0
 57 58  2  0  0  0
 57124  1  0  0  0
 58125  1  0  0  0
 59 60  1  0  0  0
 59 61  1  0  0  0
 59 62  1  0  0  0
 60126  1  0  0  0
 60127  1  0  0  0
 60128  1  0  0  0
 61129  1  0  0  0
 61130  1  0  0  0
 61131  1  0  0  0
 62132  1  0  0  0
 62133  1  0  0  0
 62134  1  0  0  0
 63 65  1  0  0  0
 63135  1  0  0  0
 63136  1  0  0  0
 63137  1  0  0  0
 64138  1  0  0  0
 65139  1  0  0  0
 68 76  1  0  0  0
 71 78  1  0  0  0
 71 79  2  0  0  0
 71 74  1  0  0  0
 72 74  1  0  0  0
 72 80  1  0  0  0
 72140  1  0  0  0
 72141  1  0  0  0
 73 77  1  0  0  0
 73 80  1  0  0  0
 73142  1  0  0  0
 73143  1  0  0  0
 74 77  1  0  0  0
 74144  1  0  0  0
 75 76  1  0  0  0
 75 78  1  0  0  0
 75145  1  0  0  0
 75146  1  0  0  0
 76147  1  0  0  0
 76148  1  0  0  0
 78149  1  0  0  0
M  ISO  4   1 100  68 101  76 101  77 100
M  END
> <chiral flag>
0

> <version>
0

> <s_m_source_file>
/data/baiqing/PycharmProjects/Reinvent-master-3.2/result/LINK_invent/BTK/process_docking_weight1_custom_product_contain_oxygen_bond_distance_aromatic_linkinvent_7_9_3/rearranged_h_0012.sdf

> <i_m_source_file_index>
8

> <r_mmod_Potential_Energy-OPLS-2005>
1396.13806152344

> <r_mmod_Stretch_Energy-OPLS-2005>
649.031311035156

> <r_mmod_Bend_Energy-OPLS-2005>
497.559387207031

> <r_mmod_Torsional_Energy-OPLS-2005>
298.249481201172

> <r_mmod_Improper_Torsional_Energy-OPLS-2005>
4.34044742584229

> <r_mmod_Van_der_Waal_Energy-OPLS-2005>
106.048835754395

> <r_mmod_Electrostatic_Energy-OPLS-2005>
-394.08935546875

> <r_mmod_Solvation_Energy-OPLS-2005>
-248.433959960938

> <b_mmod_Minimization_Converged-OPLS-2005>
0

> <r_mmod_RMS_Derivative-OPLS-2005>
2.85020041465759

$$$$
8
                    3D
 Structure written by MMmdl.
151159  0  0  1  0            999 V2000
  -30.6207  -14.6404   20.5017 C   0  0  0  0  0  0
  -30.4366  -12.3919   19.4535 C   0  0  0  0  0  0
  -29.5098  -12.5192   18.2233 C   0  0  0  0  0  0
  -28.0301  -12.3614   18.6287 C   0  0  0  0  0  0
  -27.6546  -13.2197   19.8662 C   0  0  2  0  0  0
  -28.6989  -13.0661   20.9954 C   0  0  0  0  0  0
  -25.2562  -13.8176   20.5677 C   0  0  0  0  0  0
  -24.1832  -13.0437   20.9184 C   0  0  0  0  0  0
  -24.6408  -11.6909   20.8734 C   0  0  0  0  0  0
  -23.9071  -10.4294   21.0403 C   0  0  0  0  0  0
  -24.3624   -9.4210   21.9184 C   0  0  0  0  0  0
  -23.6305   -8.2243   22.0754 C   0  0  0  0  0  0
  -22.4286   -8.0284   21.3541 C   0  0  0  0  0  0
  -21.9914   -9.0260   20.4646 C   0  0  0  0  0  0
  -22.7240  -10.2138   20.3055 C   0  0  0  0  0  0
  -21.6857   -6.0737   22.5278 C   0  0  0  0  0  0
  -21.4014   -6.5640   23.8212 C   0  0  0  0  0  0
  -21.3660   -5.6793   24.9175 C   0  0  0  0  0  0
  -21.6046   -4.3057   24.7221 C   0  0  0  0  0  0
  -21.8818   -3.8145   23.4342 C   0  0  0  0  0  0
  -21.9192   -4.6963   22.3399 C   0  0  0  0  0  0
  -22.7853  -13.5234   21.1843 C   0  0  0  0  0  0
  -22.1661   -4.2148   21.0977 F   0  0  0  0  0  0
  -21.5634   -3.4541   25.7733 F   0  0  0  0  0  0
  -30.0151  -13.4116   20.4353 N   0  0  0  0  0  0
  -26.2997  -12.9363   20.3319 N   0  0  0  0  0  0
  -25.9335  -11.6512   20.5749 N   0  0  0  0  0  0
  -22.0486  -12.8240   22.0403 N   0  0  0  0  0  0
  -25.4262  -15.1899   20.4079 N   0  0  0  0  0  0
  -31.7816  -14.8007   20.1137 O   0  0  0  0  0  0
  -21.6645   -6.8881   21.4242 O   0  0  0  0  0  0
  -22.3545  -14.5541   20.6689 O   0  0  0  0  0  0
  -24.6261  -31.8609   23.2045 C   0  0  0  0  0  0
  -25.9106  -32.4786   23.8370 C   0  0  1  0  0  0
  -27.2208  -27.3184   20.1168 C   0  0  0  0  0  0
  -25.5922  -33.8588   24.2296 N   0  0  0  0  0  0
  -23.4191  -30.4865   21.5481 C   0  0  2  0  0  0
  -24.8644  -28.9431   20.1147 C   0  0  0  0  0  0
  -22.7475  -29.4631   22.4947 C   0  0  0  0  0  0
  -18.0285  -28.1384   22.8493 C   0  0  0  0  0  0
  -24.1484  -36.7305   23.2639 C   0  0  0  0  0  0
  -25.9610  -30.7917   21.3754 C   0  0  0  0  0  0
  -26.0348  -29.4188   20.7191 C   0  0  0  0  0  0
  -27.2166  -28.6186   20.7108 C   0  0  0  0  0  0
  -26.0277  -26.9035   19.4793 C   0  0  0  0  0  0
  -24.8629  -27.6902   19.4870 C   0  0  0  0  0  0
  -23.6338  -29.8253   20.1625 C   0  0  0  0  0  0
  -25.4108  -36.3093   24.0334 C   0  0  1  0  0  0
  -20.5887  -28.3687   23.1297 C   0  0  2  0  0  0
  -20.6778  -26.9412   22.5417 C   0  0  0  0  0  0
  -19.5748  -26.6383   21.5224 C   0  0  0  0  0  0
  -18.1930  -26.7927   22.1635 C   0  0  0  0  0  0
  -19.1538  -28.8852   23.2889 C   0  0  0  0  0  0
  -18.9458  -30.1459   23.8898 C   0  0  0  0  0  0
  -17.6457  -30.6586   24.0566 C   0  0  0  0  0  0
  -25.9048  -34.9459   23.5116 C   0  0  0  0  0  0
  -16.5350  -29.9089   23.6324 C   0  0  0  0  0  0
  -16.7273  -28.6507   23.0345 C   0  0  0  0  0  0
  -26.4484  -31.6584   25.0734 C   0  0  0  0  0  0
  -25.3716  -31.3731   26.1462 C   0  0  0  0  0  0
  -27.0320  -30.3006   24.6178 C   0  0  0  0  0  0
  -27.6040  -32.4319   25.7509 C   0  0  0  0  0  0
  -27.5581  -37.1809   24.8464 C   0  0  0  0  0  0
  -21.4188  -29.3042   22.3692 N   0  0  0  0  0  0
  -26.4287  -37.3788   23.9414 N   0  0  0  0  0  0
  -24.6878  -31.0628   22.0996 N   0  0  0  0  0  0
  -23.4204  -28.8162   23.3016 O   0  0  0  0  0  0
  -28.3380  -26.4663   20.1474 O   0  0  0  0  0  0
  -26.5621  -34.8920   22.4686 O   0  0  0  0  0  0
  -23.5426  -32.1409   23.7376 O   0  0  0  0  0  0
  -30.9863  -17.8445   20.1353 C   0  0  0  0  0  0
  -30.9685  -19.2641   19.9932 C   0  0  0  0  0  0
  -28.7959  -17.9532   21.1125 C   0  0  0  0  0  0
  -29.8921  -17.1406   20.7028 C   0  0  0  0  0  0
  -29.8751  -20.0780   20.4000 C   0  0  0  0  0  0
  -28.7766  -19.3749   20.9706 C   0  0  0  0  0  0
  -29.2657  -23.9632   20.2182 C   0  0  0  0  0  0
  -28.0896  -25.0186   20.3689 C   0  0  0  0  0  0
  -28.9132  -22.4303   20.4994 C   0  0  0  0  0  0
  -29.8096  -15.6840   20.8721 N   0  0  0  0  0  0
  -29.9850  -21.4758   20.2123 O   0  0  0  0  0  0
  -27.6825  -20.0505   21.3985 F   0  0  0  0  0  0
  -31.4800  -12.5130   19.1578 H   0  0  0  0  0  0
  -30.3636  -11.3933   19.8877 H   0  0  0  0  0  0
  -29.7745  -11.7737   17.4721 H   0  0  0  0  0  0
  -29.6578  -13.4925   17.7514 H   0  0  0  0  0  0
  -27.8564  -11.3069   18.8449 H   0  0  0  0  0  0
  -27.3814  -12.6100   17.7878 H   0  0  0  0  0  0
  -27.6751  -14.2577   19.5349 H   0  0  0  0  0  0
  -28.7070  -12.0412   21.3704 H   0  0  0  0  0  0
  -28.4466  -13.6905   21.8533 H   0  0  0  0  0  0
  -25.2762   -9.5698   22.4766 H   0  0  0  0  0  0
  -24.0009   -7.4636   22.7478 H   0  0  0  0  0  0
  -21.0837   -8.8783   19.8964 H   0  0  0  0  0  0
  -22.3691  -10.9683   19.6175 H   0  0  0  0  0  0
  -21.2008   -7.6150   23.9716 H   0  0  0  0  0  0
  -21.1488   -6.0523   25.9081 H   0  0  0  0  0  0
  -22.0595   -2.7607   23.2840 H   0  0  0  0  0  0
  -22.4089  -11.9910   22.4815 H   0  0  0  0  0  0
  -21.1103  -13.1286   22.2588 H   0  0  0  0  0  0
  -24.6535  -15.8392   20.5078 H   0  0  0  0  0  0
  -26.2659  -15.6258   20.0488 H   0  0  0  0  0  0
  -26.7176  -32.5454   23.1120 H   0  0  0  0  0  0
  -25.0041  -33.9736   25.0421 H   0  0  0  0  0  0
  -22.7122  -31.3072   21.4089 H   0  0  0  0  0  0
  -23.3742  -35.9641   23.3296 H   0  0  0  0  0  0
  -24.3581  -36.8930   22.2055 H   0  0  0  0  0  0
  -23.7231  -37.6505   23.6659 H   0  0  0  0  0  0
  -26.0901  -31.5536   20.6055 H   0  0  0  0  0  0
  -26.8432  -30.8433   22.0018 H   0  0  0  0  0  0
  -28.1141  -28.9809   21.1926 H   0  0  0  0  0  0
  -25.9631  -25.9651   18.9527 H   0  0  0  0  0  0
  -23.9688  -27.3238   19.0015 H   0  0  0  0  0  0
  -23.7580  -30.6052   19.4102 H   0  0  0  0  0  0
  -22.7510  -29.2610   19.8558 H   0  0  0  0  0  0
  -25.1278  -36.1954   25.0826 H   0  0  0  0  0  0
  -20.9986  -28.3259   24.1416 H   0  0  0  0  0  0
  -20.5700  -26.2292   23.3614 H   0  0  0  0  0  0
  -21.6645  -26.7453   22.1199 H   0  0  0  0  0  0
  -19.6912  -25.6297   21.1248 H   0  0  0  0  0  0
  -19.6681  -27.3198   20.6759 H   0  0  0  0  0  0
  -17.4202  -26.6681   21.4034 H   0  0  0  0  0  0
  -18.0319  -26.0066   22.9030 H   0  0  0  0  0  0
  -19.7934  -30.7281   24.2258 H   0  0  0  0  0  0
  -17.5009  -31.6264   24.5173 H   0  0  0  0  0  0
  -15.5352  -30.2993   23.7638 H   0  0  0  0  0  0
  -15.8675  -28.0836   22.7043 H   0  0  0  0  0  0
  -24.5875  -30.7096   25.7793 H   0  0  0  0  0  0
  -24.8922  -32.2904   26.4894 H   0  0  0  0  0  0
  -25.8038  -30.8898   27.0234 H   0  0  0  0  0  0
  -26.2896  -29.6772   24.1177 H   0  0  0  0  0  0
  -27.3990  -29.7243   25.4681 H   0  0  0  0  0  0
  -27.8778  -30.4287   23.9419 H   0  0  0  0  0  0
  -27.2638  -33.3610   26.2096 H   0  0  0  0  0  0
  -28.3847  -32.6897   25.0339 H   0  0  0  0  0  0
  -28.0707  -31.8436   26.5420 H   0  0  0  0  0  0
  -28.2592  -38.0112   24.7515 H   0  0  0  0  0  0
  -28.1081  -36.2644   24.6274 H   0  0  0  0  0  0
  -27.2308  -37.1443   25.8869 H   0  0  0  0  0  0
  -20.9359  -29.8783   21.6922 H   0  0  0  0  0  0
  -26.0170  -38.2865   24.1414 H   0  0  0  0  0  0
  -31.8602  -17.3082   19.7940 H   0  0  0  0  0  0
  -31.8306  -19.7434   19.5523 H   0  0  0  0  0  0
  -27.9270  -17.4854   21.5514 H   0  0  0  0  0  0
  -30.0869  -24.2585   20.8705 H   0  0  0  0  0  0
  -29.6558  -24.0408   19.2037 H   0  0  0  0  0  0
  -27.6780  -24.9194   21.3744 H   0  0  0  0  0  0
  -27.3178  -24.6505   19.6997 H   0  0  0  0  0  0
  -28.0446  -22.1532   19.9005 H   0  0  0  0  0  0
  -28.6236  -22.3281   21.5461 H   0  0  0  0  0  0
  -28.9203  -15.3590   21.2197 H   0  0  0  0  0  0
  1 25  1  0  0  0
  1 30  2  0  0  0
  1 80  1  0  0  0
  2  3  1  0  0  0
  2 25  1  0  0  0
  2 83  1  0  0  0
  2 84  1  0  0  0
  3  4  1  0  0  0
  3 85  1  0  0  0
  3 86  1  0  0  0
  4  5  1  0  0  0
  4 87  1  0  0  0
  4 88  1  0  0  0
  5  6  1  0  0  0
  5 26  1  0  0  0
  5 89  1  0  0  0
  6 25  1  0  0  0
  6 90  1  0  0  0
  6 91  1  0  0  0
  7  8  2  0  0  0
  7 26  1  0  0  0
  7 29  1  0  0  0
  8  9  1  0  0  0
  8 22  1  0  0  0
  9 10  1  0  0  0
  9 27  2  0  0  0
 10 11  2  0  0  0
 10 15  1  0  0  0
 11 12  1  0  0  0
 11 92  1  0  0  0
 12 13  2  0  0  0
 12 93  1  0  0  0
 13 14  1  0  0  0
 13 31  1  0  0  0
 14 15  2  0  0  0
 14 94  1  0  0  0
 15 95  1  0  0  0
 16 17  2  0  0  0
 16 21  1  0  0  0
 16 31  1  0  0  0
 17 18  1  0  0  0
 17 96  1  0  0  0
 18 19  2  0  0  0
 18 97  1  0  0  0
 19 20  1  0  0  0
 19 24  1  0  0  0
 20 21  2  0  0  0
 20 98  1  0  0  0
 21 23  1  0  0  0
 22 28  1  0  0  0
 22 32  2  0  0  0
 26 27  1  0  0  0
 28 99  1  0  0  0
 28100  1  0  0  0
 29101  1  0  0  0
 29102  1  0  0  0
 33 34  1  0  0  0
 33 66  1  0  0  0
 33 70  2  0  0  0
 34 36  1  0  0  0
 34 59  1  0  0  0
 34103  1  0  0  0
 35 44  2  0  0  0
 35 45  1  0  0  0
 35 68  1  0  0  0
 36 56  1  0  0  0
 36104  1  0  0  0
 37 39  1  0  0  0
 37 47  1  0  0  0
 37 66  1  0  0  0
 37105  1  0  0  0
 38 43  2  0  0  0
 38 46  1  0  0  0
 38 47  1  0  0  0
 39 64  1  0  0  0
 39 67  2  0  0  0
 40 52  1  0  0  0
 40 53  2  0  0  0
 40 58  1  0  0  0
 41106  1  0  0  0
 41107  1  0  0  0
 41108  1  0  0  0
 41 48  1  0  0  0
 42 43  1  0  0  0
 42 66  1  0  0  0
 42109  1  0  0  0
 42110  1  0  0  0
 43 44  1  0  0  0
 44111  1  0  0  0
 45 46  2  0  0  0
 45112  1  0  0  0
 46113  1  0  0  0
 47114  1  0  0  0
 47115  1  0  0  0
 48 56  1  0  0  0
 48 65  1  0  0  0
 48116  1  0  0  0
 49 50  1  0  0  0
 49 53  1  0  0  0
 49 64  1  0  0  0
 49117  1  0  0  0
 50 51  1  0  0  0
 50118  1  0  0  0
 50119  1  0  0  0
 51 52  1  0  0  0
 51120  1  0  0  0
 51121  1  0  0  0
 52122  1  0  0  0
 52123  1  0  0  0
 53 54  1  0  0  0
 54 55  2  0  0  0
 54124  1  0  0  0
 55 57  1  0  0  0
 55125  1  0  0  0
 56 69  2  0  0  0
 57 58  2  0  0  0
 57126  1  0  0  0
 58127  1  0  0  0
 59 60  1  0  0  0
 59 61  1  0  0  0
 59 62  1  0  0  0
 60128  1  0  0  0
 60129  1  0  0  0
 60130  1  0  0  0
 61131  1  0  0  0
 61132  1  0  0  0
 61133  1  0  0  0
 62134  1  0  0  0
 62135  1  0  0  0
 62136  1  0  0  0
 63 65  1  0  0  0
 63137  1  0  0  0
 63138  1  0  0  0
 63139  1  0  0  0
 64140  1  0  0  0
 65141  1  0  0  0
 68 78  1  0  0  0
 71 72  2  0  0  0
 71 74  1  0  0  0
 71142  1  0  0  0
 72 75  1  0  0  0
 72143  1  0  0  0
 73 74  2  0  0  0
 73 76  1  0  0  0
 73144  1  0  0  0
 74 80  1  0  0  0
 75 76  2  0  0  0
 75 81  1  0  0  0
 76 82  1  0  0  0
 77 78  1  0  0  0
 77 79  1  0  0  0
 77145  1  0  0  0
 77146  1  0  0  0
 78147  1  0  0  0
 78148  1  0  0  0
 79 81  1  0  0  0
 79149  1  0  0  0
 79150  1  0  0  0
 80151  1  0  0  0
M  ISO  4   1 100  68 101  78 101  80 100
M  END
> <chiral flag>
0

> <version>
0

> <s_m_source_file>
/data/baiqing/PycharmProjects/Reinvent-master-3.2/result/LINK_invent/BTK/process_docking_weight1_custom_product_contain_oxygen_bond_distance_aromatic_linkinvent_7_9_3/rearranged_h_0012.sdf

> <i_m_source_file_index>
9

> <r_mmod_Potential_Energy-OPLS-2005>
74.7860946655273

> <r_mmod_Stretch_Energy-OPLS-2005>
79.5826568603516

> <r_mmod_Bend_Energy-OPLS-2005>
147.580917358398

> <r_mmod_Torsional_Energy-OPLS-2005>
214.559097290039

> <r_mmod_Improper_Torsional_Energy-OPLS-2005>
3.90157985687256

> <r_mmod_Van_der_Waal_Energy-OPLS-2005>
146.884353637695

> <r_mmod_Electrostatic_Energy-OPLS-2005>
-358.382598876953

> <r_mmod_Solvation_Energy-OPLS-2005>
-207.118133544922

> <b_mmod_Minimization_Converged-OPLS-2005>
0

> <r_mmod_RMS_Derivative-OPLS-2005>
1.06894218921661

$$$$
9
                    3D
 Structure written by MMmdl.
151159  0  0  1  0            999 V2000
  -30.6215  -14.6467   20.4927 C   0  0  0  0  0  0
  -30.4407  -12.3957   19.4503 C   0  0  0  0  0  0
  -29.5080  -12.5074   18.2234 C   0  0  0  0  0  0
  -28.0310  -12.3448   18.6369 C   0  0  0  0  0  0
  -27.6531  -13.2179   19.8634 C   0  0  2  0  0  0
  -28.7004  -13.0767   20.9916 C   0  0  0  0  0  0
  -25.2552  -13.8167   20.5692 C   0  0  0  0  0  0
  -24.1817  -13.0425   20.9166 C   0  0  0  0  0  0
  -24.6396  -11.6902   20.8726 C   0  0  0  0  0  0
  -23.9065  -10.4286   21.0398 C   0  0  0  0  0  0
  -24.3615   -9.4205   21.9181 C   0  0  0  0  0  0
  -23.6291   -8.2241   22.0754 C   0  0  0  0  0  0
  -22.4273   -8.0278   21.3545 C   0  0  0  0  0  0
  -21.9906   -9.0250   20.4646 C   0  0  0  0  0  0
  -22.7236  -10.2128   20.3050 C   0  0  0  0  0  0
  -21.6852   -6.0733   22.5280 C   0  0  0  0  0  0
  -21.4013   -6.5637   23.8213 C   0  0  0  0  0  0
  -21.3660   -5.6791   24.9175 C   0  0  0  0  0  0
  -21.6045   -4.3053   24.7225 C   0  0  0  0  0  0
  -21.8819   -3.8144   23.4346 C   0  0  0  0  0  0
  -21.9192   -4.6961   22.3403 C   0  0  0  0  0  0
  -22.7841  -13.5220   21.1842 C   0  0  0  0  0  0
  -22.1662   -4.2147   21.0981 F   0  0  0  0  0  0
  -21.5630   -3.4537   25.7739 F   0  0  0  0  0  0
  -30.0151  -13.4189   20.4251 N   0  0  0  0  0  0
  -26.2995  -12.9359   20.3338 N   0  0  0  0  0  0
  -25.9330  -11.6508   20.5761 N   0  0  0  0  0  0
  -22.0489  -12.8217   22.0407 N   0  0  0  0  0  0
  -25.4214  -15.1896   20.4180 N   0  0  0  0  0  0
  -31.7915  -14.8056   20.1326 O   0  0  0  0  0  0
  -21.6637   -6.8876   21.4242 O   0  0  0  0  0  0
  -22.3520  -14.5528   20.6698 O   0  0  0  0  0  0
  -24.6266  -31.8601   23.2031 C   0  0  0  0  0  0
  -25.9113  -32.4780   23.8358 C   0  0  1  0  0  0
  -27.2236  -27.3176   20.1118 C   0  0  0  0  0  0
  -25.5926  -33.8581   24.2283 N   0  0  0  0  0  0
  -23.4199  -30.4850   21.5463 C   0  0  2  0  0  0
  -24.8656  -28.9422   20.1113 C   0  0  0  0  0  0
  -22.7476  -29.4628   22.4939 C   0  0  0  0  0  0
  -18.0286  -28.1384   22.8487 C   0  0  0  0  0  0
  -24.1489  -36.7296   23.2639 C   0  0  0  0  0  0
  -25.9621  -30.7907   21.3744 C   0  0  0  0  0  0
  -26.0362  -29.4188   20.7147 C   0  0  0  0  0  0
  -27.2183  -28.6189   20.7045 C   0  0  0  0  0  0
  -26.0260  -26.8968   19.4857 C   0  0  0  0  0  0
  -24.8626  -27.6866   19.4884 C   0  0  0  0  0  0
  -23.6342  -29.8222   20.1610 C   0  0  0  0  0  0
  -25.4113  -36.3085   24.0330 C   0  0  1  0  0  0
  -20.5886  -28.3689   23.1283 C   0  0  2  0  0  0
  -20.6775  -26.9414   22.5408 C   0  0  0  0  0  0
  -19.5750  -26.6385   21.5212 C   0  0  0  0  0  0
  -18.1931  -26.7926   22.1626 C   0  0  0  0  0  0
  -19.1538  -28.8853   23.2880 C   0  0  0  0  0  0
  -18.9460  -30.1455   23.8897 C   0  0  0  0  0  0
  -17.6461  -30.6587   24.0563 C   0  0  0  0  0  0
  -25.9051  -34.9454   23.5107 C   0  0  0  0  0  0
  -16.5352  -29.9086   23.6329 C   0  0  0  0  0  0
  -16.7273  -28.6503   23.0352 C   0  0  0  0  0  0
  -26.4494  -31.6587   25.0728 C   0  0  0  0  0  0
  -25.3727  -31.3725   26.1454 C   0  0  0  0  0  0
  -27.0334  -30.3010   24.6182 C   0  0  0  0  0  0
  -27.6054  -32.4320   25.7498 C   0  0  0  0  0  0
  -27.5580  -37.1804   24.8465 C   0  0  0  0  0  0
  -21.4189  -29.3045   22.3680 N   0  0  0  0  0  0
  -26.4293  -37.3779   23.9407 N   0  0  0  0  0  0
  -24.6885  -31.0614   22.0981 N   0  0  0  0  0  0
  -23.4201  -28.8163   23.3014 O   0  0  0  0  0  0
  -28.3403  -26.4633   20.1602 O   0  0  0  0  0  0
  -26.5620  -34.8919   22.4674 O   0  0  0  0  0  0
  -23.5429  -32.1399   23.7358 O   0  0  0  0  0  0
  -31.1180  -17.8849   20.6034 C   0  0  0  0  0  0
  -31.1123  -19.3107   20.5262 C   0  0  0  0  0  0
  -28.7106  -19.3389   20.5192 C   0  0  0  0  0  0
  -29.9083  -17.1463   20.6525 C   0  0  0  0  0  0
  -29.9190  -20.0843   20.4854 C   0  0  0  0  0  0
  -28.7114  -17.9126   20.6067 C   0  0  0  0  0  0
  -29.2528  -23.9564   20.3436 C   0  0  0  0  0  0
  -28.1015  -25.0048   20.0220 C   0  0  0  0  0  0
  -28.8904  -22.3990   20.2827 C   0  0  0  0  0  0
  -29.7931  -15.6941   20.7921 N   0  0  0  0  0  0
  -30.0305  -21.4919   20.4337 O   0  0  0  0  0  0
  -27.5271  -17.2553   20.6481 F   0  0  0  0  0  0
  -31.4812  -12.5238   19.1468 H   0  0  0  0  0  0
  -30.3783  -11.4007   19.8940 H   0  0  0  0  0  0
  -29.7724  -11.7555   17.4787 H   0  0  0  0  0  0
  -29.6485  -13.4764   17.7417 H   0  0  0  0  0  0
  -27.8691  -11.2920   18.8707 H   0  0  0  0  0  0
  -27.3755  -12.5722   17.7955 H   0  0  0  0  0  0
  -27.6666  -14.2522   19.5190 H   0  0  0  0  0  0
  -28.7131  -12.0565   21.3781 H   0  0  0  0  0  0
  -28.4480  -13.7124   21.8419 H   0  0  0  0  0  0
  -25.2760   -9.5683   22.4755 H   0  0  0  0  0  0
  -23.9999   -7.4633   22.7474 H   0  0  0  0  0  0
  -21.0836   -8.8767   19.8954 H   0  0  0  0  0  0
  -22.3693  -10.9665   19.6157 H   0  0  0  0  0  0
  -21.2003   -7.6146   23.9716 H   0  0  0  0  0  0
  -21.1485   -6.0521   25.9079 H   0  0  0  0  0  0
  -22.0598   -2.7606   23.2846 H   0  0  0  0  0  0
  -22.4103  -11.9877   22.4793 H   0  0  0  0  0  0
  -21.1112  -13.1253   22.2622 H   0  0  0  0  0  0
  -24.6550  -15.8367   20.5619 H   0  0  0  0  0  0
  -26.2902  -15.6637   20.1983 H   0  0  0  0  0  0
  -26.7180  -32.5450   23.1107 H   0  0  0  0  0  0
  -25.0065  -33.9725   25.0423 H   0  0  0  0  0  0
  -22.7139  -31.3059   21.4047 H   0  0  0  0  0  0
  -23.3749  -35.9632   23.3306 H   0  0  0  0  0  0
  -24.3580  -36.8912   22.2052 H   0  0  0  0  0  0
  -23.7246  -37.6502   23.6657 H   0  0  0  0  0  0
  -26.0942  -31.5552   20.6075 H   0  0  0  0  0  0
  -26.8423  -30.8379   22.0041 H   0  0  0  0  0  0
  -28.1158  -28.9808   21.1864 H   0  0  0  0  0  0
  -25.9527  -25.9397   18.9927 H   0  0  0  0  0  0
  -23.9657  -27.3159   19.0113 H   0  0  0  0  0  0
  -23.7534  -30.5997   19.4055 H   0  0  0  0  0  0
  -22.7537  -29.2525   19.8581 H   0  0  0  0  0  0
  -25.1293  -36.1940   25.0823 H   0  0  0  0  0  0
  -20.9979  -28.3261   24.1404 H   0  0  0  0  0  0
  -20.5679  -26.2299   23.3607 H   0  0  0  0  0  0
  -21.6643  -26.7445   22.1199 H   0  0  0  0  0  0
  -19.6913  -25.6296   21.1242 H   0  0  0  0  0  0
  -19.6686  -27.3195   20.6741 H   0  0  0  0  0  0
  -17.4200  -26.6671   21.4030 H   0  0  0  0  0  0
  -18.0335  -26.0069   22.9023 H   0  0  0  0  0  0
  -19.7937  -30.7270   24.2269 H   0  0  0  0  0  0
  -17.5016  -31.6267   24.5164 H   0  0  0  0  0  0
  -15.5352  -30.2988   23.7651 H   0  0  0  0  0  0
  -15.8672  -28.0822   22.7068 H   0  0  0  0  0  0
  -24.5898  -30.7080   25.7780 H   0  0  0  0  0  0
  -24.8923  -32.2892   26.4885 H   0  0  0  0  0  0
  -25.8050  -30.8895   27.0226 H   0  0  0  0  0  0
  -26.2907  -29.6762   24.1207 H   0  0  0  0  0  0
  -27.4029  -29.7264   25.4687 H   0  0  0  0  0  0
  -27.8779  -30.4291   23.9407 H   0  0  0  0  0  0
  -27.2666  -33.3618   26.2077 H   0  0  0  0  0  0
  -28.3864  -32.6881   25.0327 H   0  0  0  0  0  0
  -28.0722  -31.8443   26.5414 H   0  0  0  0  0  0
  -28.2599  -38.0100   24.7509 H   0  0  0  0  0  0
  -28.1073  -36.2631   24.6294 H   0  0  0  0  0  0
  -27.2298  -37.1456   25.8868 H   0  0  0  0  0  0
  -20.9367  -29.8773   21.6895 H   0  0  0  0  0  0
  -26.0176  -38.2855   24.1401 H   0  0  0  0  0  0
  -32.0671  -17.3700   20.6429 H   0  0  0  0  0  0
  -32.0626  -19.8258   20.5039 H   0  0  0  0  0  0
  -27.7601  -19.8494   20.4918 H   0  0  0  0  0  0
  -29.6470  -24.1729   21.3364 H   0  0  0  0  0  0
  -30.0761  -24.1424   19.6539 H   0  0  0  0  0  0
  -27.2506  -24.7435   20.6531 H   0  0  0  0  0  0
  -27.7948  -24.8125   18.9934 H   0  0  0  0  0  0
  -28.4094  -22.1808   19.3285 H   0  0  0  0  0  0
  -28.1566  -22.1770   21.0583 H   0  0  0  0  0  0
  -28.8555  -15.3945   21.0126 H   0  0  0  0  0  0
  1 25  1  0  0  0
  1 30  2  0  0  0
  1 80  1  0  0  0
  2  3  1  0  0  0
  2 25  1  0  0  0
  2 83  1  0  0  0
  2 84  1  0  0  0
  3  4  1  0  0  0
  3 85  1  0  0  0
  3 86  1  0  0  0
  4  5  1  0  0  0
  4 87  1  0  0  0
  4 88  1  0  0  0
  5  6  1  0  0  0
  5 26  1  0  0  0
  5 89  1  0  0  0
  6 25  1  0  0  0
  6 90  1  0  0  0
  6 91  1  0  0  0
  7  8  2  0  0  0
  7 26  1  0  0  0
  7 29  1  0  0  0
  8  9  1  0  0  0
  8 22  1  0  0  0
  9 10  1  0  0  0
  9 27  2  0  0  0
 10 11  2  0  0  0
 10 15  1  0  0  0
 11 12  1  0  0  0
 11 92  1  0  0  0
 12 13  2  0  0  0
 12 93  1  0  0  0
 13 14  1  0  0  0
 13 31  1  0  0  0
 14 15  2  0  0  0
 14 94  1  0  0  0
 15 95  1  0  0  0
 16 17  2  0  0  0
 16 21  1  0  0  0
 16 31  1  0  0  0
 17 18  1  0  0  0
 17 96  1  0  0  0
 18 19  2  0  0  0
 18 97  1  0  0  0
 19 20  1  0  0  0
 19 24  1  0  0  0
 20 21  2  0  0  0
 20 98  1  0  0  0
 21 23  1  0  0  0
 22 28  1  0  0  0
 22 32  2  0  0  0
 26 27  1  0  0  0
 28 99  1  0  0  0
 28100  1  0  0  0
 29101  1  0  0  0
 29102  1  0  0  0
 33 34  1  0  0  0
 33 66  1  0  0  0
 33 70  2  0  0  0
 34 36  1  0  0  0
 34 59  1  0  0  0
 34103  1  0  0  0
 35 44  2  0  0  0
 35 45  1  0  0  0
 35 68  1  0  0  0
 36 56  1  0  0  0
 36104  1  0  0  0
 37 39  1  0  0  0
 37 47  1  0  0  0
 37 66  1  0  0  0
 37105  1  0  0  0
 38 43  2  0  0  0
 38 46  1  0  0  0
 38 47  1  0  0  0
 39 64  1  0  0  0
 39 67  2  0  0  0
 40 52  1  0  0  0
 40 53  2  0  0  0
 40 58  1  0  0  0
 41106  1  0  0  0
 41107  1  0  0  0
 41108  1  0  0  0
 41 48  1  0  0  0
 42 43  1  0  0  0
 42 66  1  0  0  0
 42109  1  0  0  0
 42110  1  0  0  0
 43 44  1  0  0  0
 44111  1  0  0  0
 45 46  2  0  0  0
 45112  1  0  0  0
 46113  1  0  0  0
 47114  1  0  0  0
 47115  1  0  0  0
 48 56  1  0  0  0
 48 65  1  0  0  0
 48116  1  0  0  0
 49 50  1  0  0  0
 49 53  1  0  0  0
 49 64  1  0  0  0
 49117  1  0  0  0
 50 51  1  0  0  0
 50118  1  0  0  0
 50119  1  0  0  0
 51 52  1  0  0  0
 51120  1  0  0  0
 51121  1  0  0  0
 52122  1  0  0  0
 52123  1  0  0  0
 53 54  1  0  0  0
 54 55  2  0  0  0
 54124  1  0  0  0
 55 57  1  0  0  0
 55125  1  0  0  0
 56 69  2  0  0  0
 57 58  2  0  0  0
 57126  1  0  0  0
 58127  1  0  0  0
 59 60  1  0  0  0
 59 61  1  0  0  0
 59 62  1  0  0  0
 60128  1  0  0  0
 60129  1  0  0  0
 60130  1  0  0  0
 61131  1  0  0  0
 61132  1  0  0  0
 61133  1  0  0  0
 62134  1  0  0  0
 62135  1  0  0  0
 62136  1  0  0  0
 63 65  1  0  0  0
 63137  1  0  0  0
 63138  1  0  0  0
 63139  1  0  0  0
 64140  1  0  0  0
 65141  1  0  0  0
 68 78  1  0  0  0
 71 72  2  0  0  0
 71 74  1  0  0  0
 71142  1  0  0  0
 72 75  1  0  0  0
 72143  1  0  0  0
 73 75  2  0  0  0
 73 76  1  0  0  0
 73144  1  0  0  0
 74 76  2  0  0  0
 74 80  1  0  0  0
 75 81  1  0  0  0
 76 82  1  0  0  0
 77 78  1  0  0  0
 77 79  1  0  0  0
 77145  1  0  0  0
 77146  1  0  0  0
 78147  1  0  0  0
 78148  1  0  0  0
 79 81  1  0  0  0
 79149  1  0  0  0
 79150  1  0  0  0
 80151  1  0  0  0
M  ISO  4   1 100  68 101  78 101  80 100
M  END
> <chiral flag>
0

> <version>
0

> <s_m_source_file>
/data/baiqing/PycharmProjects/Reinvent-master-3.2/result/LINK_invent/BTK/process_docking_weight1_custom_product_contain_oxygen_bond_distance_aromatic_linkinvent_7_9_3/rearranged_h_0012.sdf

> <i_m_source_file_index>
10

> <r_mmod_Potential_Energy-OPLS-2005>
8.48562717437744

> <r_mmod_Stretch_Energy-OPLS-2005>
78.0414810180664

> <r_mmod_Bend_Energy-OPLS-2005>
145.352081298828

> <r_mmod_Torsional_Energy-OPLS-2005>
209.226409912109

> <r_mmod_Improper_Torsional_Energy-OPLS-2005>
4.5839262008667

> <r_mmod_Van_der_Waal_Energy-OPLS-2005>
144.377670288086

> <r_mmod_Electrostatic_Energy-OPLS-2005>
-422.268218994141

> <r_mmod_Solvation_Energy-OPLS-2005>
-201.274765014648

> <b_mmod_Minimization_Converged-OPLS-2005>
0

> <r_mmod_RMS_Derivative-OPLS-2005>
0.238112762570381

$$$$
10
                    3D
 Structure written by MMmdl.
151159  0  0  1  0            999 V2000
  -30.5957  -14.6517   20.5206 C   0  0  0  0  0  0
  -30.4468  -12.4001   19.4548 C   0  0  0  0  0  0
  -29.5175  -12.4896   18.2211 C   0  0  0  0  0  0
  -28.0388  -12.3182   18.6343 C   0  0  0  0  0  0
  -27.6471  -13.2047   19.8473 C   0  0  2  0  0  0
  -28.6842  -13.0682   20.9833 C   0  0  0  0  0  0
  -25.2580  -13.8137   20.5633 C   0  0  0  0  0  0
  -24.1827  -13.0428   20.9227 C   0  0  0  0  0  0
  -24.6354  -11.6893   20.8710 C   0  0  0  0  0  0
  -23.9015  -10.4278   21.0397 C   0  0  0  0  0  0
  -24.3569   -9.4216   21.9199 C   0  0  0  0  0  0
  -23.6261   -8.2230   22.0757 C   0  0  0  0  0  0
  -22.4270   -8.0265   21.3523 C   0  0  0  0  0  0
  -21.9875   -9.0242   20.4647 C   0  0  0  0  0  0
  -22.7164  -10.2144   20.3067 C   0  0  0  0  0  0
  -21.6862   -6.0724   22.5264 C   0  0  0  0  0  0
  -21.4002   -6.5624   23.8206 C   0  0  0  0  0  0
  -21.3665   -5.6794   24.9166 C   0  0  0  0  0  0
  -21.6040   -4.3047   24.7232 C   0  0  0  0  0  0
  -21.8817   -3.8136   23.4349 C   0  0  0  0  0  0
  -21.9190   -4.6941   22.3404 C   0  0  0  0  0  0
  -22.7864  -13.5255   21.1900 C   0  0  0  0  0  0
  -22.1666   -4.2120   21.0980 F   0  0  0  0  0  0
  -21.5633   -3.4549   25.7751 F   0  0  0  0  0  0
  -30.0017  -13.4181   20.4278 N   0  0  0  0  0  0
  -26.2941  -12.9266   20.3180 N   0  0  0  0  0  0
  -25.9267  -11.6439   20.5665 N   0  0  0  0  0  0
  -22.0453  -12.8288   22.0448 N   0  0  0  0  0  0
  -25.4305  -15.1849   20.4002 N   0  0  0  0  0  0
  -31.7706  -14.8318   20.1791 O   0  0  0  0  0  0
  -21.6631   -6.8860   21.4232 O   0  0  0  0  0  0
  -22.3553  -14.5545   20.6716 O   0  0  0  0  0  0
  -24.6241  -31.8606   23.2091 C   0  0  0  0  0  0
  -25.9097  -32.4810   23.8384 C   0  0  1  0  0  0
  -27.2068  -27.3064   20.1361 C   0  0  0  0  0  0
  -25.5893  -33.8600   24.2308 N   0  0  0  0  0  0
  -23.4184  -30.4879   21.5526 C   0  0  2  0  0  0
  -24.8622  -28.9471   20.1150 C   0  0  0  0  0  0
  -22.7449  -29.4623   22.4959 C   0  0  0  0  0  0
  -18.0267  -28.1411   22.8515 C   0  0  0  0  0  0
  -24.1470  -36.7275   23.2641 C   0  0  0  0  0  0
  -25.9587  -30.7950   21.3782 C   0  0  0  0  0  0
  -26.0307  -29.4178   20.7274 C   0  0  0  0  0  0
  -27.2054  -28.6054   20.7331 C   0  0  0  0  0  0
  -26.0186  -26.9041   19.4792 C   0  0  0  0  0  0
  -24.8589  -27.6972   19.4808 C   0  0  0  0  0  0
  -23.6325  -29.8279   20.1663 C   0  0  0  0  0  0
  -25.4121  -36.3133   24.0333 C   0  0  1  0  0  0
  -20.5866  -28.3711   23.1334 C   0  0  2  0  0  0
  -20.6754  -26.9443   22.5445 C   0  0  0  0  0  0
  -19.5735  -26.6417   21.5236 C   0  0  0  0  0  0
  -18.1904  -26.7958   22.1635 C   0  0  0  0  0  0
  -19.1516  -28.8872   23.2919 C   0  0  0  0  0  0
  -18.9427  -30.1463   23.8950 C   0  0  0  0  0  0
  -17.6432  -30.6617   24.0589 C   0  0  0  0  0  0
  -25.9044  -34.9474   23.5145 C   0  0  0  0  0  0
  -16.5323  -29.9116   23.6350 C   0  0  0  0  0  0
  -16.7252  -28.6525   23.0394 C   0  0  0  0  0  0
  -26.4541  -31.6603   25.0708 C   0  0  0  0  0  0
  -25.3754  -31.3671   26.1388 C   0  0  0  0  0  0
  -27.0390  -30.3045   24.6132 C   0  0  0  0  0  0
  -27.6172  -32.4267   25.7434 C   0  0  0  0  0  0
  -27.5590  -37.1816   24.8511 C   0  0  0  0  0  0
  -21.4166  -29.3044   22.3690 N   0  0  0  0  0  0
  -26.4334  -37.3806   23.9410 N   0  0  0  0  0  0
  -24.6863  -31.0629   22.1044 N   0  0  0  0  0  0
  -23.4142  -28.8130   23.3034 O   0  0  0  0  0  0
  -28.3051  -26.4329   20.2156 O   0  0  0  0  0  0
  -26.5613  -34.8941   22.4719 O   0  0  0  0  0  0
  -23.5408  -32.1377   23.7429 O   0  0  0  0  0  0
  -28.6038  -17.8877   20.8354 C   0  0  0  0  0  0
  -28.5756  -19.3133   20.8367 C   0  0  0  0  0  0
  -31.0125  -17.8992   20.8130 C   0  0  0  0  0  0
  -29.8153  -17.1382   20.8075 C   0  0  0  0  0  0
  -29.7739  -20.0754   20.8318 C   0  0  0  0  0  0
  -30.9902  -19.3267   20.8292 C   0  0  0  0  0  0
  -29.0710  -23.9165   20.6529 C   0  0  0  0  0  0
  -28.0426  -24.9781   20.0660 C   0  0  0  0  0  0
  -28.7044  -22.3638   20.6054 C   0  0  0  0  0  0
  -29.7301  -15.6757   20.8082 N   0  0  0  0  0  0
  -29.8455  -21.4832   20.8581 O   0  0  0  0  0  0
  -32.4981  -20.1751   20.8495 Cl  0  0  0  0  0  0
  -31.4837  -12.5484   19.1533 H   0  0  0  0  0  0
  -30.3994  -11.4050   19.8997 H   0  0  0  0  0  0
  -29.7900  -11.7216   17.4959 H   0  0  0  0  0  0
  -29.6569  -13.4464   17.7181 H   0  0  0  0  0  0
  -27.9001  -11.2690   18.8961 H   0  0  0  0  0  0
  -27.3836  -12.5121   17.7843 H   0  0  0  0  0  0
  -27.6634  -14.2333   19.4904 H   0  0  0  0  0  0
  -28.6964  -12.0460   21.3662 H   0  0  0  0  0  0
  -28.4174  -13.7041   21.8288 H   0  0  0  0  0  0
  -25.2709   -9.5716   22.4787 H   0  0  0  0  0  0
  -23.9990   -7.4619   22.7486 H   0  0  0  0  0  0
  -21.0797   -8.8722   19.8962 H   0  0  0  0  0  0
  -22.3578  -10.9681   19.6183 H   0  0  0  0  0  0
  -21.1982   -7.6137   23.9694 H   0  0  0  0  0  0
  -21.1504   -6.0527   25.9073 H   0  0  0  0  0  0
  -22.0595   -2.7595   23.2859 H   0  0  0  0  0  0
  -22.4024  -11.9946   22.4863 H   0  0  0  0  0  0
  -21.1058  -13.1335   22.2591 H   0  0  0  0  0  0
  -24.6544  -15.8326   20.4870 H   0  0  0  0  0  0
  -26.2488  -15.6020   19.9740 H   0  0  0  0  0  0
  -26.7114  -32.5552   23.1101 H   0  0  0  0  0  0
  -25.0075  -33.9761   25.0469 H   0  0  0  0  0  0
  -22.7155  -31.3108   21.4176 H   0  0  0  0  0  0
  -23.3767  -35.9585   23.3386 H   0  0  0  0  0  0
  -24.3548  -36.8784   22.2039 H   0  0  0  0  0  0
  -23.7140  -37.6473   23.6588 H   0  0  0  0  0  0
  -26.0789  -31.5508   20.6012 H   0  0  0  0  0  0
  -26.8409  -30.8619   22.0022 H   0  0  0  0  0  0
  -28.1004  -28.9483   21.2313 H   0  0  0  0  0  0
  -25.9464  -25.9579   18.9634 H   0  0  0  0  0  0
  -23.9596  -27.3465   18.9899 H   0  0  0  0  0  0
  -23.7498  -30.6040   19.4108 H   0  0  0  0  0  0
  -22.7500  -29.2594   19.8728 H   0  0  0  0  0  0
  -25.1302  -36.2034   25.0819 H   0  0  0  0  0  0
  -21.0002  -28.3289   24.1447 H   0  0  0  0  0  0
  -20.5706  -26.2300   23.3638 H   0  0  0  0  0  0
  -21.6607  -26.7512   22.1198 H   0  0  0  0  0  0
  -19.6914  -25.6339   21.1225 H   0  0  0  0  0  0
  -19.6653  -27.3266   20.6793 H   0  0  0  0  0  0
  -17.4176  -26.6733   21.4028 H   0  0  0  0  0  0
  -18.0300  -26.0098   22.9017 H   0  0  0  0  0  0
  -19.7886  -30.7266   24.2357 H   0  0  0  0  0  0
  -17.4979  -31.6331   24.5141 H   0  0  0  0  0  0
  -15.5322  -30.3043   23.7676 H   0  0  0  0  0  0
  -15.8629  -28.0857   22.7151 H   0  0  0  0  0  0
  -24.6016  -30.6972   25.7625 H   0  0  0  0  0  0
  -24.8839  -32.2787   26.4784 H   0  0  0  0  0  0
  -25.8009  -30.8824   27.0168 H   0  0  0  0  0  0
  -26.2948  -29.6744   24.1248 H   0  0  0  0  0  0
  -27.4223  -29.7362   25.4613 H   0  0  0  0  0  0
  -27.8748  -30.4376   23.9261 H   0  0  0  0  0  0
  -27.2936  -33.3602   26.2042 H   0  0  0  0  0  0
  -28.3950  -32.6717   25.0187 H   0  0  0  0  0  0
  -28.0886  -31.8317   26.5280 H   0  0  0  0  0  0
  -28.2713  -38.0020   24.7521 H   0  0  0  0  0  0
  -28.0966  -36.2562   24.6412 H   0  0  0  0  0  0
  -27.2300  -37.1544   25.8914 H   0  0  0  0  0  0
  -20.9343  -29.8683   21.6829 H   0  0  0  0  0  0
  -26.0245  -38.2892   24.1403 H   0  0  0  0  0  0
  -27.6518  -17.3742   20.8497 H   0  0  0  0  0  0
  -27.6123  -19.8083   20.8552 H   0  0  0  0  0  0
  -31.9732  -17.4040   20.8253 H   0  0  0  0  0  0
  -29.2673  -24.1704   21.6963 H   0  0  0  0  0  0
  -30.0170  -24.0480   20.1306 H   0  0  0  0  0  0
  -27.0787  -24.7403   20.5160 H   0  0  0  0  0  0
  -27.9339  -24.7756   18.9967 H   0  0  0  0  0  0
  -28.2820  -22.1226   19.6289 H   0  0  0  0  0  0
  -27.9324  -22.1616   21.3509 H   0  0  0  0  0  0
  -28.7959  -15.3218   20.9411 H   0  0  0  0  0  0
  1 25  1  0  0  0
  1 30  2  0  0  0
  1 80  1  0  0  0
  2  3  1  0  0  0
  2 25  1  0  0  0
  2 83  1  0  0  0
  2 84  1  0  0  0
  3  4  1  0  0  0
  3 85  1  0  0  0
  3 86  1  0  0  0
  4  5  1  0  0  0
  4 87  1  0  0  0
  4 88  1  0  0  0
  5  6  1  0  0  0
  5 26  1  0  0  0
  5 89  1  0  0  0
  6 25  1  0  0  0
  6 90  1  0  0  0
  6 91  1  0  0  0
  7  8  2  0  0  0
  7 26  1  0  0  0
  7 29  1  0  0  0
  8  9  1  0  0  0
  8 22  1  0  0  0
  9 10  1  0  0  0
  9 27  2  0  0  0
 10 11  2  0  0  0
 10 15  1  0  0  0
 11 12  1  0  0  0
 11 92  1  0  0  0
 12 13  2  0  0  0
 12 93  1  0  0  0
 13 14  1  0  0  0
 13 31  1  0  0  0
 14 15  2  0  0  0
 14 94  1  0  0  0
 15 95  1  0  0  0
 16 17  2  0  0  0
 16 21  1  0  0  0
 16 31  1  0  0  0
 17 18  1  0  0  0
 17 96  1  0  0  0
 18 19  2  0  0  0
 18 97  1  0  0  0
 19 20  1  0  0  0
 19 24  1  0  0  0
 20 21  2  0  0  0
 20 98  1  0  0  0
 21 23  1  0  0  0
 22 28  1  0  0  0
 22 32  2  0  0  0
 26 27  1  0  0  0
 28 99  1  0  0  0
 28100  1  0  0  0
 29101  1  0  0  0
 29102  1  0  0  0
 33 34  1  0  0  0
 33 66  1  0  0  0
 33 70  2  0  0  0
 34 36  1  0  0  0
 34 59  1  0  0  0
 34103  1  0  0  0
 35 44  2  0  0  0
 35 45  1  0  0  0
 35 68  1  0  0  0
 36 56  1  0  0  0
 36104  1  0  0  0
 37 39  1  0  0  0
 37 47  1  0  0  0
 37 66  1  0  0  0
 37105  1  0  0  0
 38 43  2  0  0  0
 38 46  1  0  0  0
 38 47  1  0  0  0
 39 64  1  0  0  0
 39 67  2  0  0  0
 40 52  1  0  0  0
 40 53  2  0  0  0
 40 58  1  0  0  0
 41106  1  0  0  0
 41107  1  0  0  0
 41108  1  0  0  0
 41 48  1  0  0  0
 42 43  1  0  0  0
 42 66  1  0  0  0
 42109  1  0  0  0
 42110  1  0  0  0
 43 44  1  0  0  0
 44111  1  0  0  0
 45 46  2  0  0  0
 45112  1  0  0  0
 46113  1  0  0  0
 47114  1  0  0  0
 47115  1  0  0  0
 48 56  1  0  0  0
 48 65  1  0  0  0
 48116  1  0  0  0
 49 50  1  0  0  0
 49 53  1  0  0  0
 49 64  1  0  0  0
 49117  1  0  0  0
 50 51  1  0  0  0
 50118  1  0  0  0
 50119  1  0  0  0
 51 52  1  0  0  0
 51120  1  0  0  0
 51121  1  0  0  0
 52122  1  0  0  0
 52123  1  0  0  0
 53 54  1  0  0  0
 54 55  2  0  0  0
 54124  1  0  0  0
 55 57  1  0  0  0
 55125  1  0  0  0
 56 69  2  0  0  0
 57 58  2  0  0  0
 57126  1  0  0  0
 58127  1  0  0  0
 59 60  1  0  0  0
 59 61  1  0  0  0
 59 62  1  0  0  0
 60128  1  0  0  0
 60129  1  0  0  0
 60130  1  0  0  0
 61131  1  0  0  0
 61132  1  0  0  0
 61133  1  0  0  0
 62134  1  0  0  0
 62135  1  0  0  0
 62136  1  0  0  0
 63 65  1  0  0  0
 63137  1  0  0  0
 63138  1  0  0  0
 63139  1  0  0  0
 64140  1  0  0  0
 65141  1  0  0  0
 68 78  1  0  0  0
 71 72  2  0  0  0
 71 74  1  0  0  0
 71142  1  0  0  0
 72 75  1  0  0  0
 72143  1  0  0  0
 73 74  2  0  0  0
 73 76  1  0  0  0
 73144  1  0  0  0
 74 80  1  0  0  0
 75 76  2  0  0  0
 75 81  1  0  0  0
 76 82  1  0  0  0
 77 78  1  0  0  0
 77 79  1  0  0  0
 77145  1  0  0  0
 77146  1  0  0  0
 78147  1  0  0  0
 78148  1  0  0  0
 79 81  1  0  0  0
 79149  1  0  0  0
 79150  1  0  0  0
 80151  1  0  0  0
M  ISO  4   1 100  68 101  78 101  80 100
M  END
> <chiral flag>
0

> <version>
0

> <s_m_source_file>
/data/baiqing/PycharmProjects/Reinvent-master-3.2/result/LINK_invent/BTK/process_docking_weight1_custom_product_contain_oxygen_bond_distance_aromatic_linkinvent_7_9_3/rearranged_h_0012.sdf

> <i_m_source_file_index>
11

> <r_mmod_Potential_Energy-OPLS-2005>
75.7188110351562

> <r_mmod_Stretch_Energy-OPLS-2005>
78.2957916259766

> <r_mmod_Bend_Energy-OPLS-2005>
144.195495605469

> <r_mmod_Torsional_Energy-OPLS-2005>
211.836456298828

> <r_mmod_Improper_Torsional_Energy-OPLS-2005>
5.42349863052368

> <r_mmod_Van_der_Waal_Energy-OPLS-2005>
143.755264282227

> <r_mmod_Electrostatic_Energy-OPLS-2005>
-350.020111083984

> <r_mmod_Solvation_Energy-OPLS-2005>
-215.935211181641

> <b_mmod_Minimization_Converged-OPLS-2005>
0

> <r_mmod_RMS_Derivative-OPLS-2005>
5.47856521606445

$$$$
11
                    3D
 Structure written by MMmdl.
158166  0  0  1  0            999 V2000
  -30.6485  -14.6593   20.5661 C   0  0  0  0  0  0
  -30.4319  -12.4241   19.4679 C   0  0  0  0  0  0
  -29.5061  -12.5250   18.2371 C   0  0  0  0  0  0
  -28.0305  -12.3570   18.6456 C   0  0  0  0  0  0
  -27.6503  -13.2283   19.8699 C   0  0  2  0  0  0
  -28.6907  -13.0951   21.0016 C   0  0  0  0  0  0
  -25.2523  -13.8235   20.5743 C   0  0  0  0  0  0
  -24.1804  -13.0469   20.9228 C   0  0  0  0  0  0
  -24.6385  -11.6953   20.8751 C   0  0  0  0  0  0
  -23.9065  -10.4328   21.0412 C   0  0  0  0  0  0
  -24.3637   -9.4216   21.9144 C   0  0  0  0  0  0
  -23.6307   -8.2248   22.0714 C   0  0  0  0  0  0
  -22.4264   -8.0294   21.3538 C   0  0  0  0  0  0
  -21.9887   -9.0296   20.4662 C   0  0  0  0  0  0
  -22.7225  -10.2173   20.3073 C   0  0  0  0  0  0
  -21.6871   -6.0723   22.5284 C   0  0  0  0  0  0
  -21.4037   -6.5621   23.8223 C   0  0  0  0  0  0
  -21.3688   -5.6783   24.9186 C   0  0  0  0  0  0
  -21.6059   -4.3047   24.7250 C   0  0  0  0  0  0
  -21.8814   -3.8129   23.4372 C   0  0  0  0  0  0
  -21.9211   -4.6942   22.3420 C   0  0  0  0  0  0
  -22.7809  -13.5227   21.1854 C   0  0  0  0  0  0
  -22.1685   -4.2133   21.0996 F   0  0  0  0  0  0
  -21.5623   -3.4525   25.7756 F   0  0  0  0  0  0
  -30.0053  -13.4492   20.4450 N   0  0  0  0  0  0
  -26.2968  -12.9436   20.3359 N   0  0  0  0  0  0
  -25.9310  -11.6579   20.5780 N   0  0  0  0  0  0
  -22.0446  -12.8263   22.0453 N   0  0  0  0  0  0
  -25.4230  -15.1968   20.4176 N   0  0  0  0  0  0
  -31.7555  -14.8344   20.0467 O   0  0  0  0  0  0
  -21.6639   -6.8871   21.4239 O   0  0  0  0  0  0
  -22.3448  -14.5459   20.6580 O   0  0  0  0  0  0
  -24.6301  -31.8584   23.1962 C   0  0  0  0  0  0
  -25.9149  -32.4745   23.8337 C   0  0  1  0  0  0
  -27.2061  -27.2993   20.1307 C   0  0  0  0  0  0
  -25.5968  -33.8545   24.2261 N   0  0  0  0  0  0
  -23.4221  -30.4819   21.5378 C   0  0  2  0  0  0
  -24.8646  -28.9280   20.1100 C   0  0  0  0  0  0
  -22.7494  -29.4637   22.4899 C   0  0  0  0  0  0
  -18.0288  -28.1394   22.8479 C   0  0  0  0  0  0
  -24.1487  -36.7264   23.2636 C   0  0  0  0  0  0
  -25.9639  -30.7849   21.3676 C   0  0  0  0  0  0
  -26.0349  -29.4090   20.7127 C   0  0  0  0  0  0
  -27.2144  -28.6088   20.7072 C   0  0  0  0  0  0
  -26.0190  -26.8648   19.5110 C   0  0  0  0  0  0
  -24.8599  -27.6637   19.4973 C   0  0  0  0  0  0
  -23.6357  -29.8129   20.1539 C   0  0  0  0  0  0
  -25.4106  -36.3073   24.0337 C   0  0  1  0  0  0
  -20.5899  -28.3688   23.1272 C   0  0  2  0  0  0
  -20.6779  -26.9406   22.5399 C   0  0  0  0  0  0
  -19.5745  -26.6385   21.5209 C   0  0  0  0  0  0
  -18.1927  -26.7932   22.1626 C   0  0  0  0  0  0
  -19.1548  -28.8861   23.2870 C   0  0  0  0  0  0
  -18.9464  -30.1469   23.8885 C   0  0  0  0  0  0
  -17.6458  -30.6586   24.0569 C   0  0  0  0  0  0
  -25.9047  -34.9442   23.5090 C   0  0  0  0  0  0
  -16.5355  -29.9086   23.6332 C   0  0  0  0  0  0
  -16.7277  -28.6514   23.0341 C   0  0  0  0  0  0
  -26.4519  -31.6558   25.0709 C   0  0  0  0  0  0
  -25.3757  -31.3679   26.1429 C   0  0  0  0  0  0
  -27.0347  -30.2983   24.6171 C   0  0  0  0  0  0
  -27.6081  -32.4286   25.7483 C   0  0  0  0  0  0
  -27.5564  -37.1801   24.8479 C   0  0  0  0  0  0
  -21.4200  -29.3058   22.3675 N   0  0  0  0  0  0
  -26.4277  -37.3784   23.9418 N   0  0  0  0  0  0
  -24.6915  -31.0605   22.0899 N   0  0  0  0  0  0
  -23.4216  -28.8187   23.2995 O   0  0  0  0  0  0
  -28.3075  -26.4381   20.1361 O   0  0  0  0  0  0
  -26.5598  -34.8945   22.4641 O   0  0  0  0  0  0
  -23.5471  -32.1362   23.7306 O   0  0  0  0  0  0
  -29.2986  -19.4722   21.3316 C   0  0  0  0  0  0
  -29.7239  -18.1613   21.7149 C   0  0  0  0  0  0
  -28.7693  -18.6236   19.1652 C   0  0  0  0  0  0
  -28.7857  -19.7606   20.0407 C   0  0  0  0  0  0
  -29.6851  -17.0238   20.8446 C   0  0  0  0  0  0
  -29.1957  -17.3085   19.5440 C   0  0  0  0  0  0
  -30.2475  -15.4933   22.7625 C   0  0  0  0  0  0
  -27.2654  -20.9955   18.5873 C   0  0  0  0  0  0
  -28.2311  -23.7564   19.7666 C   0  0  0  0  0  0
  -28.2472  -22.3120   20.4909 C   0  0  0  0  0  0
  -28.1284  -25.0648   20.6834 C   0  0  0  0  0  0
  -30.0553  -15.6616   21.3122 N   0  0  0  0  0  0
  -28.2956  -21.0714   19.6310 N   0  0  0  0  0  0
  -29.0874  -16.3056   18.6386 F   0  0  0  0  0  0
  -31.4725  -12.5475   19.1636 H   0  0  0  0  0  0
  -30.3749  -11.4322   19.9181 H   0  0  0  0  0  0
  -29.7766  -11.7723   17.4964 H   0  0  0  0  0  0
  -29.6418  -13.4939   17.7568 H   0  0  0  0  0  0
  -27.8678  -11.3045   18.8751 H   0  0  0  0  0  0
  -27.3775  -12.5859   17.8048 H   0  0  0  0  0  0
  -27.6710  -14.2656   19.5333 H   0  0  0  0  0  0
  -28.7153  -12.0783   21.3985 H   0  0  0  0  0  0
  -28.4093  -13.7405   21.8353 H   0  0  0  0  0  0
  -25.2805   -9.5672   22.4689 H   0  0  0  0  0  0
  -24.0059   -7.4614   22.7380 H   0  0  0  0  0  0
  -21.0814   -8.8830   19.8973 H   0  0  0  0  0  0
  -22.3672  -10.9719   19.6214 H   0  0  0  0  0  0
  -21.2019   -7.6134   23.9708 H   0  0  0  0  0  0
  -21.1521   -6.0515   25.9090 H   0  0  0  0  0  0
  -22.0553   -2.7582   23.2887 H   0  0  0  0  0  0
  -22.4031  -12.0011   22.5031 H   0  0  0  0  0  0
  -21.1033  -13.1262   22.2541 H   0  0  0  0  0  0
  -24.6570  -15.8513   20.5286 H   0  0  0  0  0  0
  -26.2783  -15.6327   20.0990 H   0  0  0  0  0  0
  -26.7206  -32.5400   23.1078 H   0  0  0  0  0  0
  -25.0258  -33.9693   25.0510 H   0  0  0  0  0  0
  -22.7156  -31.3020   21.3928 H   0  0  0  0  0  0
  -23.3773  -35.9576   23.3314 H   0  0  0  0  0  0
  -24.3571  -36.8847   22.2043 H   0  0  0  0  0  0
  -23.7229  -37.6473   23.6628 H   0  0  0  0  0  0
  -26.1033  -31.5436   20.5967 H   0  0  0  0  0  0
  -26.8436  -30.8282   22.0001 H   0  0  0  0  0  0
  -28.1157  -28.9770   21.1762 H   0  0  0  0  0  0
  -25.9849  -25.8903   19.0447 H   0  0  0  0  0  0
  -23.9630  -27.2895   19.0210 H   0  0  0  0  0  0
  -23.7627  -30.5877   19.3956 H   0  0  0  0  0  0
  -22.7539  -29.2446   19.8518 H   0  0  0  0  0  0
  -25.1297  -36.1899   25.0832 H   0  0  0  0  0  0
  -20.9998  -28.3269   24.1391 H   0  0  0  0  0  0
  -20.5671  -26.2313   23.3617 H   0  0  0  0  0  0
  -21.6644  -26.7426   22.1198 H   0  0  0  0  0  0
  -19.6883  -25.6300   21.1237 H   0  0  0  0  0  0
  -19.6674  -27.3212   20.6749 H   0  0  0  0  0  0
  -17.4199  -26.6703   21.4023 H   0  0  0  0  0  0
  -18.0304  -26.0065   22.9015 H   0  0  0  0  0  0
  -19.7944  -30.7299   24.2246 H   0  0  0  0  0  0
  -17.5012  -31.6257   24.5181 H   0  0  0  0  0  0
  -15.5359  -30.2984   23.7648 H   0  0  0  0  0  0
  -15.8689  -28.0839   22.7038 H   0  0  0  0  0  0
  -24.5952  -30.7000   25.7754 H   0  0  0  0  0  0
  -24.8927  -32.2836   26.4854 H   0  0  0  0  0  0
  -25.8098  -30.8859   27.0200 H   0  0  0  0  0  0
  -26.2883  -29.6702   24.1277 H   0  0  0  0  0  0
  -27.4118  -29.7272   25.4670 H   0  0  0  0  0  0
  -27.8741  -30.4255   23.9323 H   0  0  0  0  0  0
  -27.2692  -33.3591   26.2053 H   0  0  0  0  0  0
  -28.3906  -32.6813   25.0309 H   0  0  0  0  0  0
  -28.0743  -31.8397   26.5402 H   0  0  0  0  0  0
  -28.2632  -38.0058   24.7516 H   0  0  0  0  0  0
  -28.1027  -36.2605   24.6327 H   0  0  0  0  0  0
  -27.2289  -37.1459   25.8889 H   0  0  0  0  0  0
  -20.9365  -29.8784   21.6894 H   0  0  0  0  0  0
  -26.0161  -38.2866   24.1410 H   0  0  0  0  0  0
  -29.3578  -20.2572   22.0714 H   0  0  0  0  0  0
  -30.0856  -18.0584   22.7261 H   0  0  0  0  0  0
  -28.4027  -18.7291   18.1546 H   0  0  0  0  0  0
  -29.3727  -15.8509   23.3083 H   0  0  0  0  0  0
  -31.1202  -16.0545   23.1022 H   0  0  0  0  0  0
  -30.4036  -14.4534   23.0645 H   0  0  0  0  0  0
  -26.6197  -20.1275   18.7249 H   0  0  0  0  0  0
  -27.7160  -20.9369   17.5938 H   0  0  0  0  0  0
  -26.5970  -21.8561   18.5924 H   0  0  0  0  0  0
  -27.4040  -23.8071   19.0578 H   0  0  0  0  0  0
  -29.1327  -23.8398   19.1619 H   0  0  0  0  0  0
  -27.3423  -22.2384   21.0963 H   0  0  0  0  0  0
  -29.0781  -22.2902   21.1954 H   0  0  0  0  0  0
  -28.9126  -24.9642   21.4330 H   0  0  0  0  0  0
  -27.2024  -25.0125   21.2599 H   0  0  0  0  0  0
  1 25  1  0  0  0
  1 30  2  0  0  0
  1 82  1  0  0  0
  2  3  1  0  0  0
  2 25  1  0  0  0
  2 85  1  0  0  0
  2 86  1  0  0  0
  3  4  1  0  0  0
  3 87  1  0  0  0
  3 88  1  0  0  0
  4  5  1  0  0  0
  4 89  1  0  0  0
  4 90  1  0  0  0
  5  6  1  0  0  0
  5 26  1  0  0  0
  5 91  1  0  0  0
  6 25  1  0  0  0
  6 92  1  0  0  0
  6 93  1  0  0  0
  7  8  2  0  0  0
  7 26  1  0  0  0
  7 29  1  0  0  0
  8  9  1  0  0  0
  8 22  1  0  0  0
  9 10  1  0  0  0
  9 27  2  0  0  0
 10 11  2  0  0  0
 10 15  1  0  0  0
 11 12  1  0  0  0
 11 94  1  0  0  0
 12 13  2  0  0  0
 12 95  1  0  0  0
 13 14  1  0  0  0
 13 31  1  0  0  0
 14 15  2  0  0  0
 14 96  1  0  0  0
 15 97  1  0  0  0
 16 17  2  0  0  0
 16 21  1  0  0  0
 16 31  1  0  0  0
 17 18  1  0  0  0
 17 98  1  0  0  0
 18 19  2  0  0  0
 18 99  1  0  0  0
 19 20  1  0  0  0
 19 24  1  0  0  0
 20 21  2  0  0  0
 20100  1  0  0  0
 21 23  1  0  0  0
 22 28  1  0  0  0
 22 32  2  0  0  0
 26 27  1  0  0  0
 28101  1  0  0  0
 28102  1  0  0  0
 29103  1  0  0  0
 29104  1  0  0  0
 33 34  1  0  0  0
 33 66  1  0  0  0
 33 70  2  0  0  0
 34 36  1  0  0  0
 34 59  1  0  0  0
 34105  1  0  0  0
 35 44  2  0  0  0
 35 45  1  0  0  0
 35 68  1  0  0  0
 36 56  1  0  0  0
 36106  1  0  0  0
 37 39  1  0  0  0
 37 47  1  0  0  0
 37 66  1  0  0  0
 37107  1  0  0  0
 38 43  2  0  0  0
 38 46  1  0  0  0
 38 47  1  0  0  0
 39 64  1  0  0  0
 39 67  2  0  0  0
 40 52  1  0  0  0
 40 53  2  0  0  0
 40 58  1  0  0  0
 41108  1  0  0  0
 41109  1  0  0  0
 41110  1  0  0  0
 41 48  1  0  0  0
 42 43  1  0  0  0
 42 66  1  0  0  0
 42111  1  0  0  0
 42112  1  0  0  0
 43 44  1  0  0  0
 44113  1  0  0  0
 45 46  2  0  0  0
 45114  1  0  0  0
 46115  1  0  0  0
 47116  1  0  0  0
 47117  1  0  0  0
 48 56  1  0  0  0
 48 65  1  0  0  0
 48118  1  0  0  0
 49 50  1  0  0  0
 49 53  1  0  0  0
 49 64  1  0  0  0
 49119  1  0  0  0
 50 51  1  0  0  0
 50120  1  0  0  0
 50121  1  0  0  0
 51 52  1  0  0  0
 51122  1  0  0  0
 51123  1  0  0  0
 52124  1  0  0  0
 52125  1  0  0  0
 53 54  1  0  0  0
 54 55  2  0  0  0
 54126  1  0  0  0
 55 57  1  0  0  0
 55127  1  0  0  0
 56 69  2  0  0  0
 57 58  2  0  0  0
 57128  1  0  0  0
 58129  1  0  0  0
 59 60  1  0  0  0
 59 61  1  0  0  0
 59 62  1  0  0  0
 60130  1  0  0  0
 60131  1  0  0  0
 60132  1  0  0  0
 61133  1  0  0  0
 61134  1  0  0  0
 61135  1  0  0  0
 62136  1  0  0  0
 62137  1  0  0  0
 62138  1  0  0  0
 63 65  1  0  0  0
 63139  1  0  0  0
 63140  1  0  0  0
 63141  1  0  0  0
 64142  1  0  0  0
 65143  1  0  0  0
 68 81  1  0  0  0
 71 72  2  0  0  0
 71 74  1  0  0  0
 71144  1  0  0  0
 72 75  1  0  0  0
 72145  1  0  0  0
 73 74  2  0  0  0
 73 76  1  0  0  0
 73146  1  0  0  0
 74 83  1  0  0  0
 75 76  2  0  0  0
 75 82  1  0  0  0
 76 84  1  0  0  0
 77 82  1  0  0  0
 77147  1  0  0  0
 77148  1  0  0  0
 77149  1  0  0  0
 78 83  1  0  0  0
 78150  1  0  0  0
 78151  1  0  0  0
 78152  1  0  0  0
 79 80  1  0  0  0
 79 81  1  0  0  0
 79153  1  0  0  0
 79154  1  0  0  0
 80 83  1  0  0  0
 80155  1  0  0  0
 80156  1  0  0  0
 81157  1  0  0  0
 81158  1  0  0  0
M  ISO  4   1 100  68 101  81 101  82 100
M  END
> <chiral flag>
0

> <version>
0

> <s_m_source_file>
/data/baiqing/PycharmProjects/Reinvent-master-3.2/result/LINK_invent/BTK/process_docking_weight1_custom_product_contain_oxygen_bond_distance_aromatic_linkinvent_7_9_3/rearranged_h_0012.sdf

> <i_m_source_file_index>
12

> <r_mmod_Potential_Energy-OPLS-2005>
218.672515869141

> <r_mmod_Stretch_Energy-OPLS-2005>
101.724830627441

> <r_mmod_Bend_Energy-OPLS-2005>
158.67057800293

> <r_mmod_Torsional_Energy-OPLS-2005>
281.721099853516

> <r_mmod_Improper_Torsional_Energy-OPLS-2005>
4.98924779891968

> <r_mmod_Van_der_Waal_Energy-OPLS-2005>
150.160934448242

> <r_mmod_Electrostatic_Energy-OPLS-2005>
-324.336059570312

> <r_mmod_Solvation_Energy-OPLS-2005>
-209.920227050781

> <b_mmod_Minimization_Converged-OPLS-2005>
0

> <r_mmod_RMS_Derivative-OPLS-2005>
4.07039260864258

$$$$
12
                    3D
 Structure written by MMmdl.
179189  0  0  1  0            999 V2000
  -30.7057  -14.4282   20.5741 C   0  0  0  0  0  0
  -30.4142  -12.2524   19.4598 C   0  0  0  0  0  0
  -29.5170  -12.4733   18.2269 C   0  0  0  0  0  0
  -28.0261  -12.3546   18.6150 C   0  0  0  0  0  0
  -27.6602  -13.1922   19.8707 C   0  0  2  0  0  0
  -28.6920  -12.9632   20.9979 C   0  0  0  0  0  0
  -25.2588  -13.8131   20.5626 C   0  0  0  0  0  0
  -24.1822  -13.0437   20.9148 C   0  0  0  0  0  0
  -24.6368  -11.6907   20.8724 C   0  0  0  0  0  0
  -23.9052  -10.4293   21.0417 C   0  0  0  0  0  0
  -24.3593   -9.4229   21.9223 C   0  0  0  0  0  0
  -23.6253   -8.2279   22.0797 C   0  0  0  0  0  0
  -22.4249   -8.0310   21.3556 C   0  0  0  0  0  0
  -21.9895   -9.0293   20.4656 C   0  0  0  0  0  0
  -22.7236  -10.2161   20.3060 C   0  0  0  0  0  0
  -21.6836   -6.0740   22.5251 C   0  0  0  0  0  0
  -21.3991   -6.5636   23.8181 C   0  0  0  0  0  0
  -21.3665   -5.6800   24.9157 C   0  0  0  0  0  0
  -21.6049   -4.3066   24.7230 C   0  0  0  0  0  0
  -21.8807   -3.8163   23.4346 C   0  0  0  0  0  0
  -21.9177   -4.6966   22.3385 C   0  0  0  0  0  0
  -22.7859  -13.5257   21.1827 C   0  0  0  0  0  0
  -22.1642   -4.2145   21.0981 F   0  0  0  0  0  0
  -21.5667   -3.4536   25.7739 F   0  0  0  0  0  0
  -30.0347  -13.2489   20.4690 N   0  0  0  0  0  0
  -26.3002  -12.9273   20.3294 N   0  0  0  0  0  0
  -25.9275  -11.6452   20.5735 N   0  0  0  0  0  0
  -22.0482  -12.8263   22.0388 N   0  0  0  0  0  0
  -25.4391  -15.1839   20.4004 N   0  0  0  0  0  0
  -31.8187  -14.5779   20.0548 O   0  0  0  0  0  0
  -21.6633   -6.8889   21.4220 O   0  0  0  0  0  0
  -22.3562  -14.5582   20.6695 O   0  0  0  0  0  0
  -24.6095  -31.8721   23.2127 C   0  0  0  0  0  0
  -25.9015  -32.4853   23.8414 C   0  0  1  0  0  0
  -27.2540  -27.4879   20.0812 C   0  0  0  0  0  0
  -25.5907  -33.8646   24.2383 N   0  0  0  0  0  0
  -23.3982  -30.4905   21.5494 C   0  0  2  0  0  0
  -24.8515  -28.9577   20.1154 C   0  0  0  0  0  0
  -22.7387  -29.4669   22.5006 C   0  0  0  0  0  0
  -18.0262  -28.1379   22.8520 C   0  0  0  0  0  0
  -24.1478  -36.7279   23.2654 C   0  0  0  0  0  0
  -25.9218  -30.8459   21.3678 C   0  0  0  0  0  0
  -26.0023  -29.4813   20.7198 C   0  0  0  0  0  0
  -27.2025  -28.7435   20.7157 C   0  0  0  0  0  0
  -26.0941  -26.9638   19.4732 C   0  0  0  0  0  0
  -24.8892  -27.6938   19.4947 C   0  0  0  0  0  0
  -23.6093  -29.8175   20.1647 C   0  0  0  0  0  0
  -25.4117  -36.3138   24.0368 C   0  0  1  0  0  0
  -20.5855  -28.3678   23.1334 C   0  0  2  0  0  0
  -20.6761  -26.9409   22.5442 C   0  0  0  0  0  0
  -19.5734  -26.6380   21.5241 C   0  0  0  0  0  0
  -18.1898  -26.7939   22.1611 C   0  0  0  0  0  0
  -19.1508  -28.8847   23.2917 C   0  0  0  0  0  0
  -18.9439  -30.1449   23.8929 C   0  0  0  0  0  0
  -17.6446  -30.6592   24.0571 C   0  0  0  0  0  0
  -25.9036  -34.9495   23.5173 C   0  0  0  0  0  0
  -16.5341  -29.9088   23.6335 C   0  0  0  0  0  0
  -16.7259  -28.6490   23.0394 C   0  0  0  0  0  0
  -26.4473  -31.6635   25.0729 C   0  0  0  0  0  0
  -25.3739  -31.3701   26.1465 C   0  0  0  0  0  0
  -27.0339  -30.3101   24.6101 C   0  0  0  0  0  0
  -27.6035  -32.4385   25.7490 C   0  0  0  0  0  0
  -27.5602  -37.1799   24.8486 C   0  0  0  0  0  0
  -21.4120  -29.3031   22.3728 N   0  0  0  0  0  0
  -26.4319  -37.3813   23.9426 N   0  0  0  0  0  0
  -24.6598  -31.0841   22.1011 N   0  0  0  0  0  0
  -23.4157  -28.8235   23.3067 O   0  0  0  0  0  0
  -28.4363  -26.7953   20.0844 O   0  0  0  0  0  0
  -26.5561  -34.8936   22.4704 O   0  0  0  0  0  0
  -23.5297  -32.1454   23.7535 O   0  0  0  0  0  0
  -31.6912  -21.1150   21.2539 C   0  0  0  0  0  0
  -31.3009  -22.4081   20.8510 C   0  0  0  0  0  0
  -31.5097  -20.3471   18.9515 C   0  0  0  0  0  0
  -31.7946  -20.0752   20.3060 C   0  0  0  0  0  0
  -31.0885  -21.6285   18.5473 C   0  0  0  0  0  0
  -30.9872  -22.6710   19.4970 C   0  0  0  0  0  0
  -31.0242  -16.6765   21.6309 C   0  0  0  0  0  0
  -27.1937  -21.1095   16.2820 C   0  0  0  0  0  0
  -27.6589  -21.9348   15.0811 C   0  0  0  0  0  0
  -29.2282  -16.4416   20.0729 C   0  0  0  0  0  0
  -30.1227  -17.6255   19.7039 C   0  0  0  0  0  0
  -28.4733  -20.8712   17.0855 C   0  0  0  0  0  0
  -28.9441  -22.6386   15.5458 C   0  0  0  0  0  0
  -29.9723  -15.6613   21.1746 C   0  0  1  0  0  0
  -32.2124  -18.6767   20.7363 C   0  0  0  0  0  0
  -30.7568  -21.8953   17.0836 C   0  0  0  0  0  0
  -30.4653  -26.2728   18.9545 C   0  0  0  0  0  0
  -28.9449  -26.4287   18.8105 C   0  0  0  0  0  0
  -30.8705  -25.0543   19.7928 C   0  0  0  0  0  0
  -31.1226  -17.6954   20.7633 N   0  0  0  0  0  0
  -29.3014  -22.0749   16.8674 N   0  3  0  0  0  0
  -31.6919  -16.5392   22.6640 O   0  0  0  0  0  0
  -30.5518  -23.8933   19.0354 O   0  0  0  0  0  0
  -31.4700  -12.2990   19.1938 H   0  0  0  0  0  0
  -30.2590  -11.2463   19.8560 H   0  0  0  0  0  0
  -29.7684  -11.7403   17.4587 H   0  0  0  0  0  0
  -29.7156  -13.4547   17.7955 H   0  0  0  0  0  0
  -27.8201  -11.3010   18.8097 H   0  0  0  0  0  0
  -27.3980  -12.6338   17.7699 H   0  0  0  0  0  0
  -27.6953  -14.2321   19.5644 H   0  0  0  0  0  0
  -28.6570  -11.9195   21.3205 H   0  0  0  0  0  0
  -28.4370  -13.5367   21.8878 H   0  0  0  0  0  0
  -25.2704   -9.5725   22.4842 H   0  0  0  0  0  0
  -23.9901   -7.4683   22.7560 H   0  0  0  0  0  0
  -21.0822   -8.8863   19.8943 H   0  0  0  0  0  0
  -22.3720  -10.9723   19.6186 H   0  0  0  0  0  0
  -21.1963   -7.6136   23.9649 H   0  0  0  0  0  0
  -21.1516   -6.0579   25.9050 H   0  0  0  0  0  0
  -22.0578   -2.7620   23.2884 H   0  0  0  0  0  0
  -22.4003  -11.9839   22.4692 H   0  0  0  0  0  0
  -21.1146  -13.1379   22.2631 H   0  0  0  0  0  0
  -24.6872  -15.8526   20.5230 H   0  0  0  0  0  0
  -26.2971  -15.6043   20.0702 H   0  0  0  0  0  0
  -26.7102  -32.5596   23.1201 H   0  0  0  0  0  0
  -25.0215  -33.9818   25.0641 H   0  0  0  0  0  0
  -22.6820  -31.3017   21.4063 H   0  0  0  0  0  0
  -23.3802  -35.9538   23.3282 H   0  0  0  0  0  0
  -24.3570  -36.8916   22.2067 H   0  0  0  0  0  0
  -23.7132  -37.6434   23.6674 H   0  0  0  0  0  0
  -26.0378  -31.6160   20.6035 H   0  0  0  0  0  0
  -26.8069  -30.8983   21.9896 H   0  0  0  0  0  0
  -28.0935  -29.1459   21.1782 H   0  0  0  0  0  0
  -26.1249  -25.9972   18.9882 H   0  0  0  0  0  0
  -24.0086  -27.2823   19.0226 H   0  0  0  0  0  0
  -23.7155  -30.5893   19.4023 H   0  0  0  0  0  0
  -22.7378  -29.2314   19.8671 H   0  0  0  0  0  0
  -25.1294  -36.2037   25.0866 H   0  0  0  0  0  0
  -20.9944  -28.3269   24.1452 H   0  0  0  0  0  0
  -20.5709  -26.2279   23.3629 H   0  0  0  0  0  0
  -21.6632  -26.7451   22.1237 H   0  0  0  0  0  0
  -19.6874  -25.6289   21.1264 H   0  0  0  0  0  0
  -19.6677  -27.3189   20.6767 H   0  0  0  0  0  0
  -17.4196  -26.6787   21.3965 H   0  0  0  0  0  0
  -18.0184  -26.0057   22.8959 H   0  0  0  0  0  0
  -19.7911  -30.7255   24.2322 H   0  0  0  0  0  0
  -17.4996  -31.6269   24.5169 H   0  0  0  0  0  0
  -15.5347  -30.3000   23.7628 H   0  0  0  0  0  0
  -15.8665  -28.0787   22.7150 H   0  0  0  0  0  0
  -24.5976  -30.6983   25.7792 H   0  0  0  0  0  0
  -24.8843  -32.2826   26.4864 H   0  0  0  0  0  0
  -25.8116  -30.8930   27.0242 H   0  0  0  0  0  0
  -26.2870  -29.6809   24.1249 H   0  0  0  0  0  0
  -27.4218  -29.7409   25.4558 H   0  0  0  0  0  0
  -27.8653  -30.4432   23.9175 H   0  0  0  0  0  0
  -27.2639  -33.3681   26.2066 H   0  0  0  0  0  0
  -28.3830  -32.6972   25.0313 H   0  0  0  0  0  0
  -28.0726  -31.8525   26.5402 H   0  0  0  0  0  0
  -28.2661  -38.0067   24.7577 H   0  0  0  0  0  0
  -28.1070  -36.2607   24.6308 H   0  0  0  0  0  0
  -27.2308  -37.1458   25.8889 H   0  0  0  0  0  0
  -20.9273  -29.8746   21.6950 H   0  0  0  0  0  0
  -26.0228  -38.2897   24.1442 H   0  0  0  0  0  0
  -31.9089  -20.9271   22.2963 H   0  0  0  0  0  0
  -31.2283  -23.1757   21.6065 H   0  0  0  0  0  0
  -31.6044  -19.5589   18.2172 H   0  0  0  0  0  0
  -26.6999  -20.1817   15.9898 H   0  0  0  0  0  0
  -26.4869  -21.6898   16.8759 H   0  0  0  0  0  0
  -26.8978  -22.6420   14.7494 H   0  0  0  0  0  0
  -27.8836  -21.2800   14.2382 H   0  0  0  0  0  0
  -29.0587  -15.8511   19.1732 H   0  0  0  0  0  0
  -28.2591  -16.7821   20.4386 H   0  0  0  0  0  0
  -29.5357  -18.5441   19.6343 H   0  0  0  0  0  0
  -30.5988  -17.4533   18.7373 H   0  0  0  0  0  0
  -28.9904  -19.9885   16.7040 H   0  0  0  0  0  0
  -28.2701  -20.7029   18.1442 H   0  0  0  0  0  0
  -28.8000  -23.7159   15.6371 H   0  0  0  0  0  0
  -29.7396  -22.4801   14.8157 H   0  0  0  0  0  0
  -29.3405  -15.4160   22.0232 H   0  0  0  0  0  0
  -32.6981  -18.7269   21.7133 H   0  0  0  0  0  0
  -32.9731  -18.3130   20.0433 H   0  0  0  0  0  0
  -31.1380  -21.0971   16.4442 H   0  0  0  0  0  0
  -31.2798  -22.8030   16.7767 H   0  0  0  0  0  0
  -30.8705  -27.1796   19.4061 H   0  0  0  0  0  0
  -30.9265  -26.1954   17.9690 H   0  0  0  0  0  0
  -28.4838  -25.5032   18.4657 H   0  0  0  0  0  0
  -28.7321  -27.2024   18.0700 H   0  0  0  0  0  0
  -30.3597  -25.0670   20.7567 H   0  0  0  0  0  0
  -31.9445  -25.0897   19.9838 H   0  0  0  0  0  0
  -29.0032  -22.7578   17.5465 H   0  0  0  0  0  0
  1 25  1  0  0  0
  1 30  2  0  0  0
  1 84  1  0  0  0
  2  3  1  0  0  0
  2 25  1  0  0  0
  2 94  1  0  0  0
  2 95  1  0  0  0
  3  4  1  0  0  0
  3 96  1  0  0  0
  3 97  1  0  0  0
  4  5  1  0  0  0
  4 98  1  0  0  0
  4 99  1  0  0  0
  5  6  1  0  0  0
  5 26  1  0  0  0
  5100  1  0  0  0
  6 25  1  0  0  0
  6101  1  0  0  0
  6102  1  0  0  0
  7  8  2  0  0  0
  7 26  1  0  0  0
  7 29  1  0  0  0
  8  9  1  0  0  0
  8 22  1  0  0  0
  9 10  1  0  0  0
  9 27  2  0  0  0
 10 11  2  0  0  0
 10 15  1  0  0  0
 11 12  1  0  0  0
 11103  1  0  0  0
 12 13  2  0  0  0
 12104  1  0  0  0
 13 14  1  0  0  0
 13 31  1  0  0  0
 14 15  2  0  0  0
 14105  1  0  0  0
 15106  1  0  0  0
 16 17  2  0  0  0
 16 21  1  0  0  0
 16 31  1  0  0  0
 17 18  1  0  0  0
 17107  1  0  0  0
 18 19  2  0  0  0
 18108  1  0  0  0
 19 20  1  0  0  0
 19 24  1  0  0  0
 20 21  2  0  0  0
 20109  1  0  0  0
 21 23  1  0  0  0
 22 28  1  0  0  0
 22 32  2  0  0  0
 26 27  1  0  0  0
 28110  1  0  0  0
 28111  1  0  0  0
 29112  1  0  0  0
 29113  1  0  0  0
 33 34  1  0  0  0
 33 66  1  0  0  0
 33 70  2  0  0  0
 34 36  1  0  0  0
 34 59  1  0  0  0
 34114  1  0  0  0
 35 44  2  0  0  0
 35 45  1  0  0  0
 35 68  1  0  0  0
 36 56  1  0  0  0
 36115  1  0  0  0
 37 39  1  0  0  0
 37 47  1  0  0  0
 37 66  1  0  0  0
 37116  1  0  0  0
 38 43  2  0  0  0
 38 46  1  0  0  0
 38 47  1  0  0  0
 39 64  1  0  0  0
 39 67  2  0  0  0
 40 52  1  0  0  0
 40 53  2  0  0  0
 40 58  1  0  0  0
 41117  1  0  0  0
 41118  1  0  0  0
 41119  1  0  0  0
 41 48  1  0  0  0
 42 43  1  0  0  0
 42 66  1  0  0  0
 42120  1  0  0  0
 42121  1  0  0  0
 43 44  1  0  0  0
 44122  1  0  0  0
 45 46  2  0  0  0
 45123  1  0  0  0
 46124  1  0  0  0
 47125  1  0  0  0
 47126  1  0  0  0
 48 56  1  0  0  0
 48 65  1  0  0  0
 48127  1  0  0  0
 49 50  1  0  0  0
 49 53  1  0  0  0
 49 64  1  0  0  0
 49128  1  0  0  0
 50 51  1  0  0  0
 50129  1  0  0  0
 50130  1  0  0  0
 51 52  1  0  0  0
 51131  1  0  0  0
 51132  1  0  0  0
 52133  1  0  0  0
 52134  1  0  0  0
 53 54  1  0  0  0
 54 55  2  0  0  0
 54135  1  0  0  0
 55 57  1  0  0  0
 55136  1  0  0  0
 56 69  2  0  0  0
 57 58  2  0  0  0
 57137  1  0  0  0
 58138  1  0  0  0
 59 60  1  0  0  0
 59 61  1  0  0  0
 59 62  1  0  0  0
 60139  1  0  0  0
 60140  1  0  0  0
 60141  1  0  0  0
 61142  1  0  0  0
 61143  1  0  0  0
 61144  1  0  0  0
 62145  1  0  0  0
 62146  1  0  0  0
 62147  1  0  0  0
 63 65  1  0  0  0
 63148  1  0  0  0
 63149  1  0  0  0
 63150  1  0  0  0
 64151  1  0  0  0
 65152  1  0  0  0
 68 88  1  0  0  0
 71 72  2  0  0  0
 71 74  1  0  0  0
 71153  1  0  0  0
 72 76  1  0  0  0
 72154  1  0  0  0
 73 74  2  0  0  0
 73 75  1  0  0  0
 73155  1  0  0  0
 74 85  1  0  0  0
 75 76  2  0  0  0
 75 86  1  0  0  0
 76 93  1  0  0  0
 77 84  1  0  0  0
 77 90  1  0  0  0
 77 92  2  0  0  0
 78 79  1  0  0  0
 78 82  1  0  0  0
 78156  1  0  0  0
 78157  1  0  0  0
 79 83  1  0  0  0
 79158  1  0  0  0
 79159  1  0  0  0
 80 81  1  0  0  0
 80 84  1  0  0  0
 80160  1  0  0  0
 80161  1  0  0  0
 81 90  1  0  0  0
 81162  1  0  0  0
 81163  1  0  0  0
 82 91  1  0  0  0
 82164  1  0  0  0
 82165  1  0  0  0
 83 91  1  0  0  0
 83166  1  0  0  0
 83167  1  0  0  0
 84168  1  0  0  0
 85 90  1  0  0  0
 85169  1  0  0  0
 85170  1  0  0  0
 86171  1  0  0  0
 86172  1  0  0  0
 86 91  1  0  0  0
 87 88  1  0  0  0
 87 89  1  0  0  0
 87173  1  0  0  0
 87174  1  0  0  0
 88175  1  0  0  0
 88176  1  0  0  0
 89 93  1  0  0  0
 89177  1  0  0  0
 89178  1  0  0  0
 91179  1  0  0  0
M  CHG  1  91   1
M  ISO  4   1 100  68 101  84 100  88 101
M  END
> <chiral flag>
0

> <version>
0

> <s_m_source_file>
/data/baiqing/PycharmProjects/Reinvent-master-3.2/result/LINK_invent/BTK/process_docking_weight1_custom_product_contain_oxygen_bond_distance_aromatic_linkinvent_7_9_3/rearranged_h_0012.sdf

> <i_m_source_file_index>
13

> <r_mmod_Potential_Energy-OPLS-2005>
-50.292293548584

> <r_mmod_Stretch_Energy-OPLS-2005>
34.2188949584961

> <r_mmod_Bend_Energy-OPLS-2005>
139.366058349609

> <r_mmod_Torsional_Energy-OPLS-2005>
297.674499511719

> <r_mmod_Improper_Torsional_Energy-OPLS-2005>
4.32090854644775

> <r_mmod_Van_der_Waal_Energy-OPLS-2005>
149.577484130859

> <r_mmod_Electrostatic_Energy-OPLS-2005>
-244.380874633789

> <r_mmod_Solvation_Energy-OPLS-2005>
-442.320922851562

> <b_mmod_Minimization_Converged-OPLS-2005>
0

> <r_mmod_RMS_Derivative-OPLS-2005>
3.94752287864685

$$$$
13
                    3D
 Structure written by MMmdl.
151159  0  0  1  0            999 V2000
  -30.6207  -14.6404   20.5017 C   0  0  0  0  0  0
  -30.4366  -12.3919   19.4535 C   0  0  0  0  0  0
  -29.5098  -12.5192   18.2233 C   0  0  0  0  0  0
  -28.0301  -12.3614   18.6287 C   0  0  0  0  0  0
  -27.6546  -13.2197   19.8662 C   0  0  2  0  0  0
  -28.6989  -13.0661   20.9954 C   0  0  0  0  0  0
  -25.2562  -13.8176   20.5677 C   0  0  0  0  0  0
  -24.1832  -13.0437   20.9184 C   0  0  0  0  0  0
  -24.6408  -11.6909   20.8734 C   0  0  0  0  0  0
  -23.9071  -10.4294   21.0403 C   0  0  0  0  0  0
  -24.3624   -9.4210   21.9184 C   0  0  0  0  0  0
  -23.6305   -8.2243   22.0754 C   0  0  0  0  0  0
  -22.4286   -8.0284   21.3541 C   0  0  0  0  0  0
  -21.9914   -9.0260   20.4646 C   0  0  0  0  0  0
  -22.7240  -10.2138   20.3055 C   0  0  0  0  0  0
  -21.6857   -6.0737   22.5278 C   0  0  0  0  0  0
  -21.4014   -6.5640   23.8212 C   0  0  0  0  0  0
  -21.3660   -5.6793   24.9175 C   0  0  0  0  0  0
  -21.6046   -4.3057   24.7221 C   0  0  0  0  0  0
  -21.8818   -3.8145   23.4342 C   0  0  0  0  0  0
  -21.9192   -4.6963   22.3399 C   0  0  0  0  0  0
  -22.7853  -13.5234   21.1843 C   0  0  0  0  0  0
  -22.1661   -4.2148   21.0977 F   0  0  0  0  0  0
  -21.5634   -3.4541   25.7733 F   0  0  0  0  0  0
  -30.0151  -13.4116   20.4353 N   0  0  0  0  0  0
  -26.2997  -12.9363   20.3319 N   0  0  0  0  0  0
  -25.9335  -11.6512   20.5749 N   0  0  0  0  0  0
  -22.0486  -12.8240   22.0403 N   0  0  0  0  0  0
  -25.4262  -15.1899   20.4079 N   0  0  0  0  0  0
  -31.7816  -14.8007   20.1137 O   0  0  0  0  0  0
  -21.6645   -6.8881   21.4242 O   0  0  0  0  0  0
  -22.3545  -14.5541   20.6689 O   0  0  0  0  0  0
  -24.6261  -31.8609   23.2045 C   0  0  0  0  0  0
  -25.9106  -32.4786   23.8370 C   0  0  1  0  0  0
  -27.2208  -27.3184   20.1168 C   0  0  0  0  0  0
  -25.5922  -33.8588   24.2296 N   0  0  0  0  0  0
  -23.4191  -30.4865   21.5481 C   0  0  2  0  0  0
  -24.8644  -28.9431   20.1147 C   0  0  0  0  0  0
  -22.7475  -29.4631   22.4947 C   0  0  0  0  0  0
  -18.0285  -28.1384   22.8493 C   0  0  0  0  0  0
  -24.1484  -36.7305   23.2639 C   0  0  0  0  0  0
  -25.9610  -30.7917   21.3754 C   0  0  0  0  0  0
  -26.0348  -29.4188   20.7191 C   0  0  0  0  0  0
  -27.2166  -28.6186   20.7108 C   0  0  0  0  0  0
  -26.0277  -26.9035   19.4793 C   0  0  0  0  0  0
  -24.8629  -27.6902   19.4870 C   0  0  0  0  0  0
  -23.6338  -29.8253   20.1625 C   0  0  0  0  0  0
  -25.4108  -36.3093   24.0334 C   0  0  1  0  0  0
  -20.5887  -28.3687   23.1297 C   0  0  2  0  0  0
  -20.6778  -26.9412   22.5417 C   0  0  0  0  0  0
  -19.5748  -26.6383   21.5224 C   0  0  0  0  0  0
  -18.1930  -26.7927   22.1635 C   0  0  0  0  0  0
  -19.1538  -28.8852   23.2889 C   0  0  0  0  0  0
  -18.9458  -30.1459   23.8898 C   0  0  0  0  0  0
  -17.6457  -30.6586   24.0566 C   0  0  0  0  0  0
  -25.9048  -34.9459   23.5116 C   0  0  0  0  0  0
  -16.5350  -29.9089   23.6324 C   0  0  0  0  0  0
  -16.7273  -28.6507   23.0345 C   0  0  0  0  0  0
  -26.4484  -31.6584   25.0734 C   0  0  0  0  0  0
  -25.3716  -31.3731   26.1462 C   0  0  0  0  0  0
  -27.0320  -30.3006   24.6178 C   0  0  0  0  0  0
  -27.6040  -32.4319   25.7509 C   0  0  0  0  0  0
  -27.5581  -37.1809   24.8464 C   0  0  0  0  0  0
  -21.4188  -29.3042   22.3692 N   0  0  0  0  0  0
  -26.4287  -37.3788   23.9414 N   0  0  0  0  0  0
  -24.6878  -31.0628   22.0996 N   0  0  0  0  0  0
  -23.4204  -28.8162   23.3016 O   0  0  0  0  0  0
  -28.3380  -26.4663   20.1474 O   0  0  0  0  0  0
  -26.5621  -34.8920   22.4686 O   0  0  0  0  0  0
  -23.5426  -32.1409   23.7376 O   0  0  0  0  0  0
  -30.9863  -17.8445   20.1353 C   0  0  0  0  0  0
  -30.9685  -19.2641   19.9932 C   0  0  0  0  0  0
  -28.7959  -17.9532   21.1125 C   0  0  0  0  0  0
  -29.8921  -17.1406   20.7028 C   0  0  0  0  0  0
  -29.8751  -20.0780   20.4000 C   0  0  0  0  0  0
  -28.7766  -19.3749   20.9706 C   0  0  0  0  0  0
  -29.2657  -23.9632   20.2182 C   0  0  0  0  0  0
  -28.0896  -25.0186   20.3689 C   0  0  0  0  0  0
  -28.9132  -22.4303   20.4994 C   0  0  0  0  0  0
  -29.8096  -15.6840   20.8721 N   0  0  0  0  0  0
  -29.9850  -21.4758   20.2123 O   0  0  0  0  0  0
  -27.6825  -20.0505   21.3985 F   0  0  0  0  0  0
  -31.4800  -12.5130   19.1578 H   0  0  0  0  0  0
  -30.3636  -11.3933   19.8877 H   0  0  0  0  0  0
  -29.7745  -11.7737   17.4721 H   0  0  0  0  0  0
  -29.6578  -13.4925   17.7514 H   0  0  0  0  0  0
  -27.8564  -11.3069   18.8449 H   0  0  0  0  0  0
  -27.3814  -12.6100   17.7878 H   0  0  0  0  0  0
  -27.6751  -14.2577   19.5349 H   0  0  0  0  0  0
  -28.7070  -12.0412   21.3704 H   0  0  0  0  0  0
  -28.4466  -13.6905   21.8533 H   0  0  0  0  0  0
  -25.2762   -9.5698   22.4766 H   0  0  0  0  0  0
  -24.0009   -7.4636   22.7478 H   0  0  0  0  0  0
  -21.0837   -8.8783   19.8964 H   0  0  0  0  0  0
  -22.3691  -10.9683   19.6175 H   0  0  0  0  0  0
  -21.2008   -7.6150   23.9716 H   0  0  0  0  0  0
  -21.1488   -6.0523   25.9081 H   0  0  0  0  0  0
  -22.0595   -2.7607   23.2840 H   0  0  0  0  0  0
  -22.4089  -11.9910   22.4815 H   0  0  0  0  0  0
  -21.1103  -13.1286   22.2588 H   0  0  0  0  0  0
  -24.6535  -15.8392   20.5078 H   0  0  0  0  0  0
  -26.2659  -15.6258   20.0488 H   0  0  0  0  0  0
  -26.7176  -32.5454   23.1120 H   0  0  0  0  0  0
  -25.0041  -33.9736   25.0421 H   0  0  0  0  0  0
  -22.7122  -31.3072   21.4089 H   0  0  0  0  0  0
  -23.3742  -35.9641   23.3296 H   0  0  0  0  0  0
  -24.3581  -36.8930   22.2055 H   0  0  0  0  0  0
  -23.7231  -37.6505   23.6659 H   0  0  0  0  0  0
  -26.0901  -31.5536   20.6055 H   0  0  0  0  0  0
  -26.8432  -30.8433   22.0018 H   0  0  0  0  0  0
  -28.1141  -28.9809   21.1926 H   0  0  0  0  0  0
  -25.9631  -25.9651   18.9527 H   0  0  0  0  0  0
  -23.9688  -27.3238   19.0015 H   0  0  0  0  0  0
  -23.7580  -30.6052   19.4102 H   0  0  0  0  0  0
  -22.7510  -29.2610   19.8558 H   0  0  0  0  0  0
  -25.1278  -36.1954   25.0826 H   0  0  0  0  0  0
  -20.9986  -28.3259   24.1416 H   0  0  0  0  0  0
  -20.5700  -26.2292   23.3614 H   0  0  0  0  0  0
  -21.6645  -26.7453   22.1199 H   0  0  0  0  0  0
  -19.6912  -25.6297   21.1248 H   0  0  0  0  0  0
  -19.6681  -27.3198   20.6759 H   0  0  0  0  0  0
  -17.4202  -26.6681   21.4034 H   0  0  0  0  0  0
  -18.0319  -26.0066   22.9030 H   0  0  0  0  0  0
  -19.7934  -30.7281   24.2258 H   0  0  0  0  0  0
  -17.5009  -31.6264   24.5173 H   0  0  0  0  0  0
  -15.5352  -30.2993   23.7638 H   0  0  0  0  0  0
  -15.8675  -28.0836   22.7043 H   0  0  0  0  0  0
  -24.5875  -30.7096   25.7793 H   0  0  0  0  0  0
  -24.8922  -32.2904   26.4894 H   0  0  0  0  0  0
  -25.8038  -30.8898   27.0234 H   0  0  0  0  0  0
  -26.2896  -29.6772   24.1177 H   0  0  0  0  0  0
  -27.3990  -29.7243   25.4681 H   0  0  0  0  0  0
  -27.8778  -30.4287   23.9419 H   0  0  0  0  0  0
  -27.2638  -33.3610   26.2096 H   0  0  0  0  0  0
  -28.3847  -32.6897   25.0339 H   0  0  0  0  0  0
  -28.0707  -31.8436   26.5420 H   0  0  0  0  0  0
  -28.2592  -38.0112   24.7515 H   0  0  0  0  0  0
  -28.1081  -36.2644   24.6274 H   0  0  0  0  0  0
  -27.2308  -37.1443   25.8869 H   0  0  0  0  0  0
  -20.9359  -29.8783   21.6922 H   0  0  0  0  0  0
  -26.0170  -38.2865   24.1414 H   0  0  0  0  0  0
  -31.8602  -17.3082   19.7940 H   0  0  0  0  0  0
  -31.8306  -19.7434   19.5523 H   0  0  0  0  0  0
  -27.9270  -17.4854   21.5514 H   0  0  0  0  0  0
  -30.0869  -24.2585   20.8705 H   0  0  0  0  0  0
  -29.6558  -24.0408   19.2037 H   0  0  0  0  0  0
  -27.6780  -24.9194   21.3744 H   0  0  0  0  0  0
  -27.3178  -24.6505   19.6997 H   0  0  0  0  0  0
  -28.0446  -22.1532   19.9005 H   0  0  0  0  0  0
  -28.6236  -22.3281   21.5461 H   0  0  0  0  0  0
  -28.9203  -15.3590   21.2197 H   0  0  0  0  0  0
  1 25  1  0  0  0
  1 30  2  0  0  0
  1 80  1  0  0  0
  2  3  1  0  0  0
  2 25  1  0  0  0
  2 83  1  0  0  0
  2 84  1  0  0  0
  3  4  1  0  0  0
  3 85  1  0  0  0
  3 86  1  0  0  0
  4  5  1  0  0  0
  4 87  1  0  0  0
  4 88  1  0  0  0
  5  6  1  0  0  0
  5 26  1  0  0  0
  5 89  1  0  0  0
  6 25  1  0  0  0
  6 90  1  0  0  0
  6 91  1  0  0  0
  7  8  2  0  0  0
  7 26  1  0  0  0
  7 29  1  0  0  0
  8  9  1  0  0  0
  8 22  1  0  0  0
  9 10  1  0  0  0
  9 27  2  0  0  0
 10 11  2  0  0  0
 10 15  1  0  0  0
 11 12  1  0  0  0
 11 92  1  0  0  0
 12 13  2  0  0  0
 12 93  1  0  0  0
 13 14  1  0  0  0
 13 31  1  0  0  0
 14 15  2  0  0  0
 14 94  1  0  0  0
 15 95  1  0  0  0
 16 17  2  0  0  0
 16 21  1  0  0  0
 16 31  1  0  0  0
 17 18  1  0  0  0
 17 96  1  0  0  0
 18 19  2  0  0  0
 18 97  1  0  0  0
 19 20  1  0  0  0
 19 24  1  0  0  0
 20 21  2  0  0  0
 20 98  1  0  0  0
 21 23  1  0  0  0
 22 28  1  0  0  0
 22 32  2  0  0  0
 26 27  1  0  0  0
 28 99  1  0  0  0
 28100  1  0  0  0
 29101  1  0  0  0
 29102  1  0  0  0
 33 34  1  0  0  0
 33 66  1  0  0  0
 33 70  2  0  0  0
 34 36  1  0  0  0
 34 59  1  0  0  0
 34103  1  0  0  0
 35 44  2  0  0  0
 35 45  1  0  0  0
 35 68  1  0  0  0
 36 56  1  0  0  0
 36104  1  0  0  0
 37 39  1  0  0  0
 37 47  1  0  0  0
 37 66  1  0  0  0
 37105  1  0  0  0
 38 43  2  0  0  0
 38 46  1  0  0  0
 38 47  1  0  0  0
 39 64  1  0  0  0
 39 67  2  0  0  0
 40 52  1  0  0  0
 40 53  2  0  0  0
 40 58  1  0  0  0
 41106  1  0  0  0
 41107  1  0  0  0
 41108  1  0  0  0
 41 48  1  0  0  0
 42 43  1  0  0  0
 42 66  1  0  0  0
 42109  1  0  0  0
 42110  1  0  0  0
 43 44  1  0  0  0
 44111  1  0  0  0
 45 46  2  0  0  0
 45112  1  0  0  0
 46113  1  0  0  0
 47114  1  0  0  0
 47115  1  0  0  0
 48 56  1  0  0  0
 48 65  1  0  0  0
 48116  1  0  0  0
 49 50  1  0  0  0
 49 53  1  0  0  0
 49 64  1  0  0  0
 49117  1  0  0  0
 50 51  1  0  0  0
 50118  1  0  0  0
 50119  1  0  0  0
 51 52  1  0  0  0
 51120  1  0  0  0
 51121  1  0  0  0
 52122  1  0  0  0
 52123  1  0  0  0
 53 54  1  0  0  0
 54 55  2  0  0  0
 54124  1  0  0  0
 55 57  1  0  0  0
 55125  1  0  0  0
 56 69  2  0  0  0
 57 58  2  0  0  0
 57126  1  0  0  0
 58127  1  0  0  0
 59 60  1  0  0  0
 59 61  1  0  0  0
 59 62  1  0  0  0
 60128  1  0  0  0
 60129  1  0  0  0
 60130  1  0  0  0
 61131  1  0  0  0
 61132  1  0  0  0
 61133  1  0  0  0
 62134  1  0  0  0
 62135  1  0  0  0
 62136  1  0  0  0
 63 65  1  0  0  0
 63137  1  0  0  0
 63138  1  0  0  0
 63139  1  0  0  0
 64140  1  0  0  0
 65141  1  0  0  0
 68 78  1  0  0  0
 71 72  2  0  0  0
 71 74  1  0  0  0
 71142  1  0  0  0
 72 75  1  0  0  0
 72143  1  0  0  0
 73 74  2  0  0  0
 73 76  1  0  0  0
 73144  1  0  0  0
 74 80  1  0  0  0
 75 76  2  0  0  0
 75 81  1  0  0  0
 76 82  1  0  0  0
 77 78  1  0  0  0
 77 79  1  0  0  0
 77145  1  0  0  0
 77146  1  0  0  0
 78147  1  0  0  0
 78148  1  0  0  0
 79 81  1  0  0  0
 79149  1  0  0  0
 79150  1  0  0  0
 80151  1  0  0  0
M  ISO  4   1 100  68 101  78 101  80 100
M  END
> <chiral flag>
0

> <version>
0

> <s_m_source_file>
/data/baiqing/PycharmProjects/Reinvent-master-3.2/result/LINK_invent/BTK/process_docking_weight1_custom_product_contain_oxygen_bond_distance_aromatic_linkinvent_7_9_3/rearranged_h_0012.sdf

> <i_m_source_file_index>
14

> <r_mmod_Potential_Energy-OPLS-2005>
74.7860946655273

> <r_mmod_Stretch_Energy-OPLS-2005>
79.5826568603516

> <r_mmod_Bend_Energy-OPLS-2005>
147.580917358398

> <r_mmod_Torsional_Energy-OPLS-2005>
214.559097290039

> <r_mmod_Improper_Torsional_Energy-OPLS-2005>
3.90157985687256

> <r_mmod_Van_der_Waal_Energy-OPLS-2005>
146.884353637695

> <r_mmod_Electrostatic_Energy-OPLS-2005>
-358.382598876953

> <r_mmod_Solvation_Energy-OPLS-2005>
-207.118133544922

> <b_mmod_Minimization_Converged-OPLS-2005>
0

> <r_mmod_RMS_Derivative-OPLS-2005>
1.06894218921661

$$$$
14
                    3D
 Structure written by MMmdl.
151159  0  0  1  0            999 V2000
  -30.5629  -14.9226   20.4887 C   0  0  0  0  0  0
  -30.4318  -12.5805   19.5101 C   0  0  0  0  0  0
  -29.5187  -12.5274   18.2645 C   0  0  0  0  0  0
  -28.0560  -12.2992   18.6790 C   0  0  0  0  0  0
  -27.6258  -13.2418   19.8308 C   0  0  2  0  0  0
  -28.6526  -13.2593   20.9798 C   0  0  0  0  0  0
  -25.2440  -13.8226   20.5662 C   0  0  0  0  0  0
  -24.1757  -13.0448   20.9204 C   0  0  0  0  0  0
  -24.6370  -11.6933   20.8721 C   0  0  0  0  0  0
  -23.9070  -10.4293   21.0386 C   0  0  0  0  0  0
  -24.3619   -9.4218   21.9170 C   0  0  0  0  0  0
  -23.6301   -8.2245   22.0751 C   0  0  0  0  0  0
  -22.4284   -8.0267   21.3539 C   0  0  0  0  0  0
  -21.9912   -9.0243   20.4643 C   0  0  0  0  0  0
  -22.7239  -10.2127   20.3046 C   0  0  0  0  0  0
  -21.6851   -6.0735   22.5287 C   0  0  0  0  0  0
  -21.4015   -6.5639   23.8224 C   0  0  0  0  0  0
  -21.3663   -5.6789   24.9189 C   0  0  0  0  0  0
  -21.6038   -4.3050   24.7231 C   0  0  0  0  0  0
  -21.8824   -3.8146   23.4352 C   0  0  0  0  0  0
  -21.9200   -4.6966   22.3413 C   0  0  0  0  0  0
  -22.7788  -13.5233   21.1889 C   0  0  0  0  0  0
  -22.1663   -4.2155   21.0988 F   0  0  0  0  0  0
  -21.5627   -3.4531   25.7739 F   0  0  0  0  0  0
  -29.9497  -13.6676   20.4135 N   0  0  0  0  0  0
  -26.2828  -12.9430   20.3129 N   0  0  0  0  0  0
  -25.9283  -11.6573   20.5670 N   0  0  0  0  0  0
  -22.0441  -12.8187   22.0422 N   0  0  0  0  0  0
  -25.4083  -15.1955   20.4149 N   0  0  0  0  0  0
  -31.7043  -15.0167   20.0186 O   0  0  0  0  0  0
  -21.6636   -6.8872   21.4248 O   0  0  0  0  0  0
  -22.3468  -14.5542   20.6761 O   0  0  0  0  0  0
  -24.6426  -31.8460   23.1909 C   0  0  0  0  0  0
  -25.9199  -32.4711   23.8300 C   0  0  1  0  0  0
  -27.2017  -27.1283   20.1259 C   0  0  0  0  0  0
  -25.5954  -33.8512   24.2223 N   0  0  0  0  0  0
  -23.4469  -30.4682   21.5386 C   0  0  2  0  0  0
  -24.8912  -28.9006   20.1029 C   0  0  0  0  0  0
  -22.7572  -29.4553   22.4858 C   0  0  0  0  0  0
  -18.0321  -28.1385   22.8493 C   0  0  0  0  0  0
  -24.1471  -36.7254   23.2639 C   0  0  0  0  0  0
  -26.0040  -30.7091   21.3950 C   0  0  0  0  0  0
  -26.0684  -29.3216   20.7326 C   0  0  0  0  0  0
  -27.2226  -28.4489   20.7334 C   0  0  0  0  0  0
  -26.0026  -26.8199   19.4470 C   0  0  0  0  0  0
  -24.8716  -27.6636   19.4461 C   0  0  0  0  0  0
  -23.6699  -29.8077   20.1535 C   0  0  0  0  0  0
  -25.4102  -36.3036   24.0317 C   0  0  1  0  0  0
  -20.5937  -28.3706   23.1232 C   0  0  2  0  0  0
  -20.6805  -26.9411   22.5401 C   0  0  0  0  0  0
  -19.5754  -26.6375   21.5226 C   0  0  0  0  0  0
  -18.1940  -26.7936   22.1633 C   0  0  0  0  0  0
  -19.1582  -28.8861   23.2856 C   0  0  0  0  0  0
  -18.9499  -30.1471   23.8852 C   0  0  0  0  0  0
  -17.6490  -30.6581   24.0558 C   0  0  0  0  0  0
  -25.9065  -34.9409   23.5079 C   0  0  0  0  0  0
  -16.5377  -29.9081   23.6339 C   0  0  0  0  0  0
  -16.7311  -28.6507   23.0351 C   0  0  0  0  0  0
  -26.4528  -31.6562   25.0736 C   0  0  0  0  0  0
  -25.3710  -31.3735   26.1432 C   0  0  0  0  0  0
  -27.0408  -30.2955   24.6310 C   0  0  0  0  0  0
  -27.6059  -32.4351   25.7485 C   0  0  0  0  0  0
  -27.5581  -37.1754   24.8458 C   0  0  0  0  0  0
  -21.4267  -29.3039   22.3599 N   0  0  0  0  0  0
  -26.4264  -37.3747   23.9432 N   0  0  0  0  0  0
  -24.7184  -31.0286   22.0966 N   0  0  0  0  0  0
  -23.4219  -28.8086   23.2999 O   0  0  0  0  0  0
  -28.2396  -26.1249   20.1949 O   0  0  0  0  0  0
  -26.5647  -34.8916   22.4658 O   0  0  0  0  0  0
  -23.5548  -32.1365   23.7117 O   0  0  0  0  0  0
  -29.9175  -18.6294   21.6204 C   0  0  0  0  0  0
  -29.6026  -20.0258   21.3456 C   0  0  0  0  0  0
  -28.8403  -19.3718   19.2208 C   0  0  0  0  0  0
  -29.7256  -17.5086   20.7209 C   0  0  0  0  0  0
  -29.0219  -20.4875   20.1199 C   0  0  0  0  0  0
  -29.1705  -17.9744   19.4840 C   0  0  0  0  0  0
  -30.0518  -15.8625   22.5949 C   0  0  0  0  0  0
  -27.9577  -24.6142   19.9107 C   0  0  0  0  0  0
  -28.8429  -23.2389   20.3466 C   0  0  0  0  0  0
  -29.9532  -16.0355   21.1364 N   0  0  0  0  0  0
  -28.5721  -21.8391   19.7523 O   0  0  0  0  0  0
  -28.8915  -17.0534   18.5282 F   0  0  0  0  0  0
  -31.4653  -12.7317   19.1975 H   0  0  0  0  0  0
  -30.4233  -11.6237   20.0332 H   0  0  0  0  0  0
  -29.8448  -11.7330   17.5937 H   0  0  0  0  0  0
  -29.5991  -13.4588   17.7019 H   0  0  0  0  0  0
  -27.9704  -11.2619   19.0054 H   0  0  0  0  0  0
  -27.3921  -12.4019   17.8205 H   0  0  0  0  0  0
  -27.5969  -14.2448   19.4031 H   0  0  0  0  0  0
  -28.7196  -12.2851   21.4645 H   0  0  0  0  0  0
  -28.3075  -13.9540   21.7431 H   0  0  0  0  0  0
  -25.2771   -9.5708   22.4739 H   0  0  0  0  0  0
  -24.0022   -7.4650   22.7479 H   0  0  0  0  0  0
  -21.0842   -8.8769   19.8953 H   0  0  0  0  0  0
  -22.3694  -10.9662   19.6148 H   0  0  0  0  0  0
  -21.1996   -7.6145   23.9734 H   0  0  0  0  0  0
  -21.1475   -6.0509   25.9089 H   0  0  0  0  0  0
  -22.0593   -2.7604   23.2850 H   0  0  0  0  0  0
  -22.4073  -11.9854   22.4798 H   0  0  0  0  0  0
  -21.1042  -13.1165   22.2612 H   0  0  0  0  0  0
  -24.6418  -15.8436   20.5596 H   0  0  0  0  0  0
  -26.2579  -15.6482   20.1004 H   0  0  0  0  0  0
  -26.7247  -32.5283   23.1016 H   0  0  0  0  0  0
  -25.0060  -33.9639   25.0340 H   0  0  0  0  0  0
  -22.7492  -31.2945   21.3915 H   0  0  0  0  0  0
  -23.3763  -35.9555   23.3260 H   0  0  0  0  0  0
  -24.3565  -36.8948   22.2067 H   0  0  0  0  0  0
  -23.7221  -37.6429   23.6720 H   0  0  0  0  0  0
  -26.1615  -31.4623   20.6233 H   0  0  0  0  0  0
  -26.8731  -30.7581   22.0388 H   0  0  0  0  0  0
  -28.1159  -28.7589   21.2565 H   0  0  0  0  0  0
  -25.9027  -25.8851   18.9154 H   0  0  0  0  0  0
  -23.9767  -27.3454   18.9288 H   0  0  0  0  0  0
  -23.8105  -30.5921   19.4081 H   0  0  0  0  0  0
  -22.7804  -29.2590   19.8384 H   0  0  0  0  0  0
  -25.1284  -36.1855   25.0810 H   0  0  0  0  0  0
  -21.0039  -28.3309   24.1353 H   0  0  0  0  0  0
  -20.5740  -26.2314   23.3619 H   0  0  0  0  0  0
  -21.6661  -26.7433   22.1159 H   0  0  0  0  0  0
  -19.6907  -25.6296   21.1244 H   0  0  0  0  0  0
  -19.6683  -27.3190   20.6755 H   0  0  0  0  0  0
  -17.4219  -26.6713   21.4019 H   0  0  0  0  0  0
  -18.0304  -26.0062   22.9008 H   0  0  0  0  0  0
  -19.7978  -30.7309   24.2180 H   0  0  0  0  0  0
  -17.5053  -31.6261   24.5183 H   0  0  0  0  0  0
  -15.5390  -30.2956   23.7699 H   0  0  0  0  0  0
  -15.8713  -28.0834   22.7029 H   0  0  0  0  0  0
  -24.5896  -30.7085   25.7758 H   0  0  0  0  0  0
  -24.8879  -32.2897   26.4810 H   0  0  0  0  0  0
  -25.7987  -30.8945   27.0245 H   0  0  0  0  0  0
  -26.3033  -29.6634   24.1359 H   0  0  0  0  0  0
  -27.4089  -29.7289   25.4872 H   0  0  0  0  0  0
  -27.8907  -30.4208   23.9603 H   0  0  0  0  0  0
  -27.2679  -33.3703   26.1947 H   0  0  0  0  0  0
  -28.3891  -32.6829   25.0317 H   0  0  0  0  0  0
  -28.0694  -31.8560   26.5479 H   0  0  0  0  0  0
  -28.2528  -38.0114   24.7604 H   0  0  0  0  0  0
  -28.1159  -36.2659   24.6167 H   0  0  0  0  0  0
  -27.2319  -37.1262   25.8860 H   0  0  0  0  0  0
  -20.9466  -29.8800   21.6821 H   0  0  0  0  0  0
  -26.0133  -38.2800   24.1527 H   0  0  0  0  0  0
  -30.3106  -18.4252   22.6051 H   0  0  0  0  0  0
  -29.7880  -20.7497   22.1274 H   0  0  0  0  0  0
  -28.3949  -19.5887   18.2612 H   0  0  0  0  0  0
  -29.2589  -16.4073   23.1090 H   0  0  0  0  0  0
  -31.0133  -16.2393   22.9485 H   0  0  0  0  0  0
  -29.9836  -14.8265   22.9321 H   0  0  0  0  0  0
  -26.9541  -24.4188   20.2873 H   0  0  0  0  0  0
  -27.8553  -24.5616   18.8261 H   0  0  0  0  0  0
  -28.8174  -23.1458   21.4329 H   0  0  0  0  0  0
  -29.8815  -23.4579   20.0970 H   0  0  0  0  0  0
  1 25  1  0  0  0
  1 30  2  0  0  0
  1 80  1  0  0  0
  2  3  1  0  0  0
  2 25  1  0  0  0
  2 83  1  0  0  0
  2 84  1  0  0  0
  3  4  1  0  0  0
  3 85  1  0  0  0
  3 86  1  0  0  0
  4  5  1  0  0  0
  4 87  1  0  0  0
  4 88  1  0  0  0
  5  6  1  0  0  0
  5 26  1  0  0  0
  5 89  1  0  0  0
  6 25  1  0  0  0
  6 90  1  0  0  0
  6 91  1  0  0  0
  7  8  2  0  0  0
  7 26  1  0  0  0
  7 29  1  0  0  0
  8  9  1  0  0  0
  8 22  1  0  0  0
  9 10  1  0  0  0
  9 27  2  0  0  0
 10 11  2  0  0  0
 10 15  1  0  0  0
 11 12  1  0  0  0
 11 92  1  0  0  0
 12 13  2  0  0  0
 12 93  1  0  0  0
 13 14  1  0  0  0
 13 31  1  0  0  0
 14 15  2  0  0  0
 14 94  1  0  0  0
 15 95  1  0  0  0
 16 17  2  0  0  0
 16 21  1  0  0  0
 16 31  1  0  0  0
 17 18  1  0  0  0
 17 96  1  0  0  0
 18 19  2  0  0  0
 18 97  1  0  0  0
 19 20  1  0  0  0
 19 24  1  0  0  0
 20 21  2  0  0  0
 20 98  1  0  0  0
 21 23  1  0  0  0
 22 28  1  0  0  0
 22 32  2  0  0  0
 26 27  1  0  0  0
 28 99  1  0  0  0
 28100  1  0  0  0
 29101  1  0  0  0
 29102  1  0  0  0
 33 34  1  0  0  0
 33 66  1  0  0  0
 33 70  2  0  0  0
 34 36  1  0  0  0
 34 59  1  0  0  0
 34103  1  0  0  0
 35 44  2  0  0  0
 35 45  1  0  0  0
 35 68  1  0  0  0
 36 56  1  0  0  0
 36104  1  0  0  0
 37 39  1  0  0  0
 37 47  1  0  0  0
 37 66  1  0  0  0
 37105  1  0  0  0
 38 43  2  0  0  0
 38 46  1  0  0  0
 38 47  1  0  0  0
 39 64  1  0  0  0
 39 67  2  0  0  0
 40 52  1  0  0  0
 40 53  2  0  0  0
 40 58  1  0  0  0
 41106  1  0  0  0
 41107  1  0  0  0
 41108  1  0  0  0
 41 48  1  0  0  0
 42 43  1  0  0  0
 42 66  1  0  0  0
 42109  1  0  0  0
 42110  1  0  0  0
 43 44  1  0  0  0
 44111  1  0  0  0
 45 46  2  0  0  0
 45112  1  0  0  0
 46113  1  0  0  0
 47114  1  0  0  0
 47115  1  0  0  0
 48 56  1  0  0  0
 48 65  1  0  0  0
 48116  1  0  0  0
 49 50  1  0  0  0
 49 53  1  0  0  0
 49 64  1  0  0  0
 49117  1  0  0  0
 50 51  1  0  0  0
 50118  1  0  0  0
 50119  1  0  0  0
 51 52  1  0  0  0
 51120  1  0  0  0
 51121  1  0  0  0
 52122  1  0  0  0
 52123  1  0  0  0
 53 54  1  0  0  0
 54 55  2  0  0  0
 54124  1  0  0  0
 55 57  1  0  0  0
 55125  1  0  0  0
 56 69  2  0  0  0
 57 58  2  0  0  0
 57126  1  0  0  0
 58127  1  0  0  0
 59 60  1  0  0  0
 59 61  1  0  0  0
 59 62  1  0  0  0
 60128  1  0  0  0
 60129  1  0  0  0
 60130  1  0  0  0
 61131  1  0  0  0
 61132  1  0  0  0
 61133  1  0  0  0
 62134  1  0  0  0
 62135  1  0  0  0
 62136  1  0  0  0
 63 65  1  0  0  0
 63137  1  0  0  0
 63138  1  0  0  0
 63139  1  0  0  0
 64140  1  0  0  0
 65141  1  0  0  0
 68 78  1  0  0  0
 71 72  2  0  0  0
 71 74  1  0  0  0
 71142  1  0  0  0
 72 75  1  0  0  0
 72143  1  0  0  0
 73 75  2  0  0  0
 73 76  1  0  0  0
 73144  1  0  0  0
 74 76  2  0  0  0
 74 80  1  0  0  0
 75 81  1  0  0  0
 76 82  1  0  0  0
 77 80  1  0  0  0
 77145  1  0  0  0
 77146  1  0  0  0
 77147  1  0  0  0
 78 79  1  0  0  0
 78148  1  0  0  0
 78149  1  0  0  0
 79 81  1  0  0  0
 79150  1  0  0  0
 79151  1  0  0  0
M  ISO  4   1 100  68 101  78 101  80 100
M  END
> <chiral flag>
0

> <version>
0

> <s_m_source_file>
/data/baiqing/PycharmProjects/Reinvent-master-3.2/result/LINK_invent/BTK/process_docking_weight1_custom_product_contain_oxygen_bond_distance_aromatic_linkinvent_7_9_3/rearranged_h_0012.sdf

> <i_m_source_file_index>
15

> <r_mmod_Potential_Energy-OPLS-2005>
628.907043457031

> <r_mmod_Stretch_Energy-OPLS-2005>
245.900985717773

> <r_mmod_Bend_Energy-OPLS-2005>
286.098541259766

> <r_mmod_Torsional_Energy-OPLS-2005>
279.547088623047

> <r_mmod_Improper_Torsional_Energy-OPLS-2005>
4.31507015228271

> <r_mmod_Van_der_Waal_Energy-OPLS-2005>
140.764587402344

> <r_mmod_Electrostatic_Energy-OPLS-2005>
-320.791687011719

> <r_mmod_Solvation_Energy-OPLS-2005>
-194.976348876953

> <b_mmod_Minimization_Converged-OPLS-2005>
0

> <r_mmod_RMS_Derivative-OPLS-2005>
3.69370436668396

$$$$
15
                    3D
 Structure written by MMmdl.
164173  0  0  1  0            999 V2000
  -30.7037  -14.5506   20.4591 C   0  0  0  0  0  0
  -30.4223  -12.3345   19.4300 C   0  0  0  0  0  0
  -29.4959  -12.4482   18.2019 C   0  0  0  0  0  0
  -28.0170  -12.3115   18.6236 C   0  0  0  0  0  0
  -27.6407  -13.1931   19.8444 C   0  0  2  0  0  0
  -28.6973  -13.0976   20.9693 C   0  0  0  0  0  0
  -25.2557  -13.8094   20.5693 C   0  0  0  0  0  0
  -24.1812  -13.0397   20.9217 C   0  0  0  0  0  0
  -24.6348  -11.6865   20.8757 C   0  0  0  0  0  0
  -23.9015  -10.4275   21.0413 C   0  0  0  0  0  0
  -24.3575   -9.4199   21.9187 C   0  0  0  0  0  0
  -23.6272   -8.2229   22.0752 C   0  0  0  0  0  0
  -22.4252   -8.0270   21.3541 C   0  0  0  0  0  0
  -21.9882   -9.0238   20.4646 C   0  0  0  0  0  0
  -22.7192  -10.2125   20.3057 C   0  0  0  0  0  0
  -21.6853   -6.0727   22.5285 C   0  0  0  0  0  0
  -21.4010   -6.5633   23.8214 C   0  0  0  0  0  0
  -21.3660   -5.6782   24.9176 C   0  0  0  0  0  0
  -21.6056   -4.3053   24.7219 C   0  0  0  0  0  0
  -21.8816   -3.8138   23.4339 C   0  0  0  0  0  0
  -21.9195   -4.6957   22.3391 C   0  0  0  0  0  0
  -22.7852  -13.5245   21.1875 C   0  0  0  0  0  0
  -22.1656   -4.2136   21.0972 F   0  0  0  0  0  0
  -21.5628   -3.4542   25.7739 F   0  0  0  0  0  0
  -30.0161  -13.3765   20.3832 N   0  0  0  0  0  0
  -26.2924  -12.9208   20.3274 N   0  0  0  0  0  0
  -25.9258  -11.6397   20.5763 N   0  0  0  0  0  0
  -22.0445  -12.8276   22.0417 N   0  0  0  0  0  0
  -25.4270  -15.1823   20.4110 N   0  0  0  0  0  0
  -31.9171  -14.6141   20.2448 O   0  0  0  0  0  0
  -21.6622   -6.8873   21.4247 O   0  0  0  0  0  0
  -22.3571  -14.5551   20.6701 O   0  0  0  0  0  0
  -24.6134  -31.8702   23.2116 C   0  0  0  0  0  0
  -25.9038  -32.4827   23.8409 C   0  0  1  0  0  0
  -27.2476  -27.4398   20.1059 C   0  0  0  0  0  0
  -25.5895  -33.8630   24.2338 N   0  0  0  0  0  0
  -23.4041  -30.4929   21.5500 C   0  0  2  0  0  0
  -24.8566  -28.9571   20.1225 C   0  0  0  0  0  0
  -22.7409  -29.4682   22.4978 C   0  0  0  0  0  0
  -18.0279  -28.1389   22.8488 C   0  0  0  0  0  0
  -24.1483  -36.7315   23.2639 C   0  0  0  0  0  0
  -25.9324  -30.8338   21.3690 C   0  0  0  0  0  0
  -26.0134  -29.4636   20.7294 C   0  0  0  0  0  0
  -27.2120  -28.7102   20.7334 C   0  0  0  0  0  0
  -26.0778  -26.9547   19.4892 C   0  0  0  0  0  0
  -24.8817  -27.6961   19.5024 C   0  0  0  0  0  0
  -23.6173  -29.8238   20.1658 C   0  0  0  0  0  0
  -25.4099  -36.3116   24.0344 C   0  0  1  0  0  0
  -20.5867  -28.3681   23.1305 C   0  0  2  0  0  0
  -20.6771  -26.9417   22.5417 C   0  0  0  0  0  0
  -19.5755  -26.6392   21.5213 C   0  0  0  0  0  0
  -18.1929  -26.7934   22.1618 C   0  0  0  0  0  0
  -19.1528  -28.8848   23.2897 C   0  0  0  0  0  0
  -18.9458  -30.1451   23.8911 C   0  0  0  0  0  0
  -17.6462  -30.6594   24.0570 C   0  0  0  0  0  0
  -25.9024  -34.9481   23.5137 C   0  0  0  0  0  0
  -16.5353  -29.9101   23.6326 C   0  0  0  0  0  0
  -16.7268  -28.6520   23.0343 C   0  0  0  0  0  0
  -26.4474  -31.6603   25.0727 C   0  0  0  0  0  0
  -25.3740  -31.3711   26.1474 C   0  0  0  0  0  0
  -27.0319  -30.3051   24.6102 C   0  0  0  0  0  0
  -27.6048  -32.4326   25.7483 C   0  0  0  0  0  0
  -27.5583  -37.1813   24.8470 C   0  0  0  0  0  0
  -21.4139  -29.3047   22.3704 N   0  0  0  0  0  0
  -26.4293  -37.3792   23.9416 N   0  0  0  0  0  0
  -24.6673  -31.0801   22.1017 N   0  0  0  0  0  0
  -23.4169  -28.8224   23.3031 O   0  0  0  0  0  0
  -28.3591  -26.6296   20.0075 O   0  0  0  0  0  0
  -26.5587  -34.8932   22.4693 O   0  0  0  0  0  0
  -23.5330  -32.1461   23.7503 O   0  0  0  0  0  0
  -28.9822  -19.6512   21.2570 C   0  0  0  0  0  0
  -28.8136  -21.0385   21.0364 C   0  0  0  0  0  0
  -30.9700  -21.4680   22.0489 C   0  0  0  0  0  0
  -30.1688  -19.1503   21.8426 C   0  0  0  0  0  0
  -29.8035  -21.9724   21.4141 C   0  0  0  0  0  0
  -31.1527  -20.0802   22.2484 C   0  0  0  0  0  0
  -29.9846  -17.4261   18.7826 C   0  0  0  0  0  0
  -29.2586  -16.1640   19.2774 C   0  0  0  0  0  0
  -31.2178  -17.5584   19.6723 C   0  0  0  0  0  0
  -30.3780  -17.6355   22.0655 C   0  0  0  0  0  0
  -30.4527  -25.6133   20.6780 C   0  0  0  0  0  0
  -29.3570  -26.6550   21.0239 C   0  0  0  0  0  0
  -30.5282  -24.3021   21.5042 C   0  0  0  0  0  0
  -29.9511  -15.6937   20.4886 N   0  0  0  0  0  0
  -30.8848  -16.8174   20.9113 N   0  3  1  0  0  0
  -29.5634  -23.3117   21.1240 O   0  0  0  0  0  0
  -32.2948  -19.6378   22.8268 F   0  0  0  0  0  0
  -31.4664  -12.4283   19.1222 H   0  0  0  0  0  0
  -30.3282  -11.3478   19.8890 H   0  0  0  0  0  0
  -29.7460  -11.6709   17.4792 H   0  0  0  0  0  0
  -29.6557  -13.3960   17.6877 H   0  0  0  0  0  0
  -27.8488  -11.2627   18.8687 H   0  0  0  0  0  0
  -27.3598  -12.5284   17.7808 H   0  0  0  0  0  0
  -27.6208  -14.2083   19.4723 H   0  0  0  0  0  0
  -28.6888  -12.1025   21.4188 H   0  0  0  0  0  0
  -28.4627  -13.8002   21.7706 H   0  0  0  0  0  0
  -25.2717   -9.5686   22.4758 H   0  0  0  0  0  0
  -23.9986   -7.4637   22.7466 H   0  0  0  0  0  0
  -21.0809   -8.8759   19.8965 H   0  0  0  0  0  0
  -22.3649  -10.9660   19.6171 H   0  0  0  0  0  0
  -21.1985   -7.6139   23.9715 H   0  0  0  0  0  0
  -21.1495   -6.0504   25.9083 H   0  0  0  0  0  0
  -22.0592   -2.7597   23.2835 H   0  0  0  0  0  0
  -22.3992  -11.9945   22.4864 H   0  0  0  0  0  0
  -21.1053  -13.1365   22.2533 H   0  0  0  0  0  0
  -24.6599  -15.8351   20.5318 H   0  0  0  0  0  0
  -26.2793  -15.6263   20.1006 H   0  0  0  0  0  0
  -26.7106  -32.5569   23.1182 H   0  0  0  0  0  0
  -25.0071  -33.9791   25.0505 H   0  0  0  0  0  0
  -22.6933  -31.3096   21.4083 H   0  0  0  0  0  0
  -23.3742  -35.9652   23.3313 H   0  0  0  0  0  0
  -24.3577  -36.8911   22.2050 H   0  0  0  0  0  0
  -23.7240  -37.6529   23.6637 H   0  0  0  0  0  0
  -26.0446  -31.5917   20.5923 H   0  0  0  0  0  0
  -26.8197  -30.8933   21.9865 H   0  0  0  0  0  0
  -28.0981  -29.1165   21.1982 H   0  0  0  0  0  0
  -26.0970  -25.9912   18.9984 H   0  0  0  0  0  0
  -23.9964  -27.2991   19.0259 H   0  0  0  0  0  0
  -23.7275  -30.5975   19.4053 H   0  0  0  0  0  0
  -22.7422  -29.2425   19.8692 H   0  0  0  0  0  0
  -25.1279  -36.1982   25.0838 H   0  0  0  0  0  0
  -20.9971  -28.3262   24.1421 H   0  0  0  0  0  0
  -20.5688  -26.2292   23.3611 H   0  0  0  0  0  0
  -21.6639  -26.7475   22.1203 H   0  0  0  0  0  0
  -19.6922  -25.6307   21.1235 H   0  0  0  0  0  0
  -19.6695  -27.3198   20.6742 H   0  0  0  0  0  0
  -17.4208  -26.6683   21.4017 H   0  0  0  0  0  0
  -18.0336  -26.0080   22.9016 H   0  0  0  0  0  0
  -19.7938  -30.7260   24.2284 H   0  0  0  0  0  0
  -17.5027  -31.6271   24.5174 H   0  0  0  0  0  0
  -15.5356  -30.3012   23.7651 H   0  0  0  0  0  0
  -15.8666  -28.0850   22.7044 H   0  0  0  0  0  0
  -24.5898  -30.7078   25.7809 H   0  0  0  0  0  0
  -24.8953  -32.2870   26.4948 H   0  0  0  0  0  0
  -25.8091  -30.8858   27.0220 H   0  0  0  0  0  0
  -26.2875  -29.6793   24.1164 H   0  0  0  0  0  0
  -27.4110  -29.7299   25.4561 H   0  0  0  0  0  0
  -27.8693  -30.4381   23.9247 H   0  0  0  0  0  0
  -27.2664  -33.3615   26.2091 H   0  0  0  0  0  0
  -28.3835  -32.6908   25.0293 H   0  0  0  0  0  0
  -28.0741  -31.8436   26.5376 H   0  0  0  0  0  0
  -28.2608  -38.0107   24.7509 H   0  0  0  0  0  0
  -28.1072  -36.2637   24.6295 H   0  0  0  0  0  0
  -27.2306  -37.1465   25.8877 H   0  0  0  0  0  0
  -20.9305  -29.8754   21.6915 H   0  0  0  0  0  0
  -26.0187  -38.2878   24.1405 H   0  0  0  0  0  0
  -28.1958  -18.9722   20.9568 H   0  0  0  0  0  0
  -27.9078  -21.3915   20.5628 H   0  0  0  0  0  0
  -31.7576  -22.1213   22.3911 H   0  0  0  0  0  0
  -29.3384  -18.2976   18.8850 H   0  0  0  0  0  0
  -30.2634  -17.3613   17.7290 H   0  0  0  0  0  0
  -29.2450  -15.4178   18.4833 H   0  0  0  0  0  0
  -28.2220  -16.4025   19.5175 H   0  0  0  0  0  0
  -31.5553  -18.5856   19.8024 H   0  0  0  0  0  0
  -32.0506  -17.0434   19.1911 H   0  0  0  0  0  0
  -29.4368  -17.2163   22.4221 H   0  0  0  0  0  0
  -31.0755  -17.4925   22.8896 H   0  0  0  0  0  0
  -31.4097  -26.1163   20.8289 H   0  0  0  0  0  0
  -30.4327  -25.3768   19.6133 H   0  0  0  0  0  0
  -29.8124  -27.6469   21.0464 H   0  0  0  0  0  0
  -28.9276  -26.4702   22.0097 H   0  0  0  0  0  0
  -30.4426  -24.5106   22.5720 H   0  0  0  0  0  0
  -31.5353  -23.9226   21.3322 H   0  0  0  0  0  0
  -31.7393  -16.3467   21.1922 H   0  0  0  0  0  0
  1 25  1  0  0  0
  1 30  2  0  0  0
  1 84  1  0  0  0
  2  3  1  0  0  0
  2 25  1  0  0  0
  2 88  1  0  0  0
  2 89  1  0  0  0
  3  4  1  0  0  0
  3 90  1  0  0  0
  3 91  1  0  0  0
  4  5  1  0  0  0
  4 92  1  0  0  0
  4 93  1  0  0  0
  5  6  1  0  0  0
  5 26  1  0  0  0
  5 94  1  0  0  0
  6 25  1  0  0  0
  6 95  1  0  0  0
  6 96  1  0  0  0
  7  8  2  0  0  0
  7 26  1  0  0  0
  7 29  1  0  0  0
  8  9  1  0  0  0
  8 22  1  0  0  0
  9 10  1  0  0  0
  9 27  2  0  0  0
 10 11  2  0  0  0
 10 15  1  0  0  0
 11 12  1  0  0  0
 11 97  1  0  0  0
 12 13  2  0  0  0
 12 98  1  0  0  0
 13 14  1  0  0  0
 13 31  1  0  0  0
 14 15  2  0  0  0
 14 99  1  0  0  0
 15100  1  0  0  0
 16 17  2  0  0  0
 16 21  1  0  0  0
 16 31  1  0  0  0
 17 18  1  0  0  0
 17101  1  0  0  0
 18 19  2  0  0  0
 18102  1  0  0  0
 19 20  1  0  0  0
 19 24  1  0  0  0
 20 21  2  0  0  0
 20103  1  0  0  0
 21 23  1  0  0  0
 22 28  1  0  0  0
 22 32  2  0  0  0
 26 27  1  0  0  0
 28104  1  0  0  0
 28105  1  0  0  0
 29106  1  0  0  0
 29107  1  0  0  0
 33 34  1  0  0  0
 33 66  1  0  0  0
 33 70  2  0  0  0
 34 36  1  0  0  0
 34 59  1  0  0  0
 34108  1  0  0  0
 35 44  2  0  0  0
 35 45  1  0  0  0
 35 68  1  0  0  0
 36 56  1  0  0  0
 36109  1  0  0  0
 37 39  1  0  0  0
 37 47  1  0  0  0
 37 66  1  0  0  0
 37110  1  0  0  0
 38 43  2  0  0  0
 38 46  1  0  0  0
 38 47  1  0  0  0
 39 64  1  0  0  0
 39 67  2  0  0  0
 40 52  1  0  0  0
 40 53  2  0  0  0
 40 58  1  0  0  0
 41111  1  0  0  0
 41112  1  0  0  0
 41113  1  0  0  0
 41 48  1  0  0  0
 42 43  1  0  0  0
 42 66  1  0  0  0
 42114  1  0  0  0
 42115  1  0  0  0
 43 44  1  0  0  0
 44116  1  0  0  0
 45 46  2  0  0  0
 45117  1  0  0  0
 46118  1  0  0  0
 47119  1  0  0  0
 47120  1  0  0  0
 48 56  1  0  0  0
 48 65  1  0  0  0
 48121  1  0  0  0
 49 50  1  0  0  0
 49 53  1  0  0  0
 49 64  1  0  0  0
 49122  1  0  0  0
 50 51  1  0  0  0
 50123  1  0  0  0
 50124  1  0  0  0
 51 52  1  0  0  0
 51125  1  0  0  0
 51126  1  0  0  0
 52127  1  0  0  0
 52128  1  0  0  0
 53 54  1  0  0  0
 54 55  2  0  0  0
 54129  1  0  0  0
 55 57  1  0  0  0
 55130  1  0  0  0
 56 69  2  0  0  0
 57 58  2  0  0  0
 57131  1  0  0  0
 58132  1  0  0  0
 59 60  1  0  0  0
 59 61  1  0  0  0
 59 62  1  0  0  0
 60133  1  0  0  0
 60134  1  0  0  0
 60135  1  0  0  0
 61136  1  0  0  0
 61137  1  0  0  0
 61138  1  0  0  0
 62139  1  0  0  0
 62140  1  0  0  0
 62141  1  0  0  0
 63 65  1  0  0  0
 63142  1  0  0  0
 63143  1  0  0  0
 63144  1  0  0  0
 64145  1  0  0  0
 65146  1  0  0  0
 68 82  1  0  0  0
 71 72  2  0  0  0
 71 74  1  0  0  0
 71147  1  0  0  0
 72 75  1  0  0  0
 72148  1  0  0  0
 73 75  2  0  0  0
 73 76  1  0  0  0
 73149  1  0  0  0
 74 76  2  0  0  0
 74 80  1  0  0  0
 75 86  1  0  0  0
 76 87  1  0  0  0
 77 78  1  0  0  0
 77 79  1  0  0  0
 77150  1  0  0  0
 77151  1  0  0  0
 78 84  1  0  0  0
 78152  1  0  0  0
 78153  1  0  0  0
 79 85  1  0  0  0
 79154  1  0  0  0
 79155  1  0  0  0
 80156  1  0  0  0
 80157  1  0  0  0
 80 85  1  0  0  0
 81 82  1  0  0  0
 81 83  1  0  0  0
 81158  1  0  0  0
 81159  1  0  0  0
 82160  1  0  0  0
 82161  1  0  0  0
 83 86  1  0  0  0
 83162  1  0  0  0
 83163  1  0  0  0
 84 85  1  0  0  0
 85164  1  0  0  0
M  CHG  1  85   1
M  ISO  4   1 100  68 101  82 101  84 100
M  END
> <chiral flag>
0

> <version>
0

> <s_m_source_file>
/data/baiqing/PycharmProjects/Reinvent-master-3.2/result/LINK_invent/BTK/process_docking_weight1_custom_product_contain_oxygen_bond_distance_aromatic_linkinvent_7_9_3/rearranged_h_0012.sdf

> <i_m_source_file_index>
16

> <r_mmod_Potential_Energy-OPLS-2005>
-66.3213348388672

> <r_mmod_Stretch_Energy-OPLS-2005>
44.6953239440918

> <r_mmod_Bend_Energy-OPLS-2005>
146.670684814453

> <r_mmod_Torsional_Energy-OPLS-2005>
320.825531005859

> <r_mmod_Improper_Torsional_Energy-OPLS-2005>
12.834005355835

> <r_mmod_Van_der_Waal_Energy-OPLS-2005>
162.206130981445

> <r_mmod_Electrostatic_Energy-OPLS-2005>
-367.675018310547

> <r_mmod_Solvation_Energy-OPLS-2005>
-416.143188476562

> <b_mmod_Minimization_Converged-OPLS-2005>
0

> <r_mmod_RMS_Derivative-OPLS-2005>
2.25878691673279

$$$$
16
                    3D
 Structure written by MMmdl.
151159  0  0  1  0            999 V2000
  -30.5200  -14.9896   20.4004 C   0  0  0  0  0  0
  -30.4449  -12.6143   19.5129 C   0  0  0  0  0  0
  -29.5289  -12.5358   18.2674 C   0  0  0  0  0  0
  -28.0612  -12.3230   18.6791 C   0  0  0  0  0  0
  -27.6319  -13.2541   19.8445 C   0  0  2  0  0  0
  -28.6717  -13.2825   20.9848 C   0  0  0  0  0  0
  -25.2477  -13.8230   20.5743 C   0  0  0  0  0  0
  -24.1788  -13.0451   20.9222 C   0  0  0  0  0  0
  -24.6403  -11.6935   20.8736 C   0  0  0  0  0  0
  -23.9087  -10.4300   21.0403 C   0  0  0  0  0  0
  -24.3629   -9.4219   21.9187 C   0  0  0  0  0  0
  -23.6295   -8.2258   22.0767 C   0  0  0  0  0  0
  -22.4283   -8.0286   21.3550 C   0  0  0  0  0  0
  -21.9926   -9.0260   20.4653 C   0  0  0  0  0  0
  -22.7261  -10.2134   20.3055 C   0  0  0  0  0  0
  -21.6858   -6.0731   22.5281 C   0  0  0  0  0  0
  -21.4020   -6.5632   23.8213 C   0  0  0  0  0  0
  -21.3660   -5.6782   24.9170 C   0  0  0  0  0  0
  -21.6045   -4.3045   24.7219 C   0  0  0  0  0  0
  -21.8821   -3.8141   23.4338 C   0  0  0  0  0  0
  -21.9196   -4.6960   22.3397 C   0  0  0  0  0  0
  -22.7808  -13.5226   21.1843 C   0  0  0  0  0  0
  -22.1666   -4.2151   21.0973 F   0  0  0  0  0  0
  -21.5628   -3.4529   25.7730 F   0  0  0  0  0  0
  -29.9438  -13.7151   20.3937 N   0  0  0  0  0  0
  -26.2904  -12.9472   20.3271 N   0  0  0  0  0  0
  -25.9344  -11.6595   20.5727 N   0  0  0  0  0  0
  -22.0433  -12.8231   22.0383 N   0  0  0  0  0  0
  -25.4154  -15.1961   20.4223 N   0  0  0  0  0  0
  -31.7164  -15.0433   20.0902 O   0  0  0  0  0  0
  -21.6647   -6.8884   21.4247 O   0  0  0  0  0  0
  -22.3499  -14.5521   20.6668 O   0  0  0  0  0  0
  -24.6470  -31.8414   23.1860 C   0  0  0  0  0  0
  -25.9221  -32.4684   23.8271 C   0  0  1  0  0  0
  -27.2134  -27.0906   20.1601 C   0  0  0  0  0  0
  -25.5962  -33.8492   24.2183 N   0  0  0  0  0  0
  -23.4522  -30.4596   21.5324 C   0  0  2  0  0  0
  -24.9025  -28.8764   20.1116 C   0  0  0  0  0  0
  -22.7587  -29.4553   22.4873 C   0  0  0  0  0  0
  -18.0313  -28.1375   22.8475 C   0  0  0  0  0  0
  -24.1486  -36.7244   23.2648 C   0  0  0  0  0  0
  -26.0124  -30.6979   21.3942 C   0  0  0  0  0  0
  -26.0815  -29.3066   20.7324 C   0  0  0  0  0  0
  -27.2375  -28.4309   20.7380 C   0  0  0  0  0  0
  -26.0094  -26.7765   19.4916 C   0  0  0  0  0  0
  -24.8814  -27.6260   19.4757 C   0  0  0  0  0  0
  -23.6815  -29.7849   20.1529 C   0  0  0  0  0  0
  -25.4124  -36.3019   24.0310 C   0  0  1  0  0  0
  -20.5926  -28.3742   23.1241 C   0  0  2  0  0  0
  -20.6851  -26.9491   22.5313 C   0  0  0  0  0  0
  -19.5821  -26.6479   21.5116 C   0  0  0  0  0  0
  -18.1996  -26.7957   22.1523 C   0  0  0  0  0  0
  -19.1557  -28.8859   23.2857 C   0  0  0  0  0  0
  -18.9463  -30.1458   23.8882 C   0  0  0  0  0  0
  -17.6452  -30.6567   24.0533 C   0  0  0  0  0  0
  -25.9078  -34.9400   23.5055 C   0  0  0  0  0  0
  -16.5349  -29.9055   23.6305 C   0  0  0  0  0  0
  -16.7295  -28.6466   23.0332 C   0  0  0  0  0  0
  -26.4528  -31.6572   25.0737 C   0  0  0  0  0  0
  -25.3694  -31.3785   26.1417 C   0  0  0  0  0  0
  -27.0408  -30.2960   24.6373 C   0  0  0  0  0  0
  -27.6037  -32.4365   25.7525 C   0  0  0  0  0  0
  -27.5571  -37.1777   24.8469 C   0  0  0  0  0  0
  -21.4256  -29.3142   22.3679 N   0  0  0  0  0  0
  -26.4287  -37.3736   23.9402 N   0  0  0  0  0  0
  -24.7236  -31.0225   22.0919 N   0  0  0  0  0  0
  -23.4224  -28.8061   23.2978 O   0  0  0  0  0  0
  -28.2483  -26.0733   20.2419 O   0  0  0  0  0  0
  -26.5672  -34.8900   22.4650 O   0  0  0  0  0  0
  -23.5577  -32.1322   23.7049 O   0  0  0  0  0  0
  -29.8225  -17.2205   18.4949 C   0  0  0  0  0  0
  -28.6963  -17.4488   17.6801 C   0  0  0  0  0  0
  -27.7049  -18.8243   19.4146 C   0  0  0  0  0  0
  -29.7696  -17.5635   19.8684 C   0  0  0  0  0  0
  -28.9395  -18.8200   20.1034 C   0  0  0  0  0  0
  -27.5906  -18.1472   18.1906 C   0  0  0  0  0  0
  -28.9384  -23.1627   20.4119 C   0  0  0  0  0  0
  -27.9503  -24.5295   20.1033 C   0  0  0  0  0  0
  -28.5273  -21.5122   20.1948 C   0  0  0  0  0  0
  -29.7581  -16.1949   20.5963 N   0  0  0  0  0  0
  -29.3505  -20.1916   20.4808 O   0  0  0  0  0  0
  -26.4612  -18.2678   17.4531 F   0  0  0  0  0  0
  -31.4769  -12.7792   19.1972 H   0  0  0  0  0  0
  -30.4553  -11.6654   20.0507 H   0  0  0  0  0  0
  -29.8518  -11.7283   17.6096 H   0  0  0  0  0  0
  -29.6196  -13.4577   17.6899 H   0  0  0  0  0  0
  -27.9534  -11.2811   18.9826 H   0  0  0  0  0  0
  -27.4030  -12.4590   17.8200 H   0  0  0  0  0  0
  -27.5953  -14.2575   19.4204 H   0  0  0  0  0  0
  -28.7691  -12.2990   21.4475 H   0  0  0  0  0  0
  -28.3651  -13.9677   21.7763 H   0  0  0  0  0  0
  -25.2768   -9.5690   22.4770 H   0  0  0  0  0  0
  -23.9989   -7.4657   22.7509 H   0  0  0  0  0  0
  -21.0852   -8.8785   19.8958 H   0  0  0  0  0  0
  -22.3725  -10.9673   19.6158 H   0  0  0  0  0  0
  -21.2020   -7.6143   23.9714 H   0  0  0  0  0  0
  -21.1481   -6.0511   25.9071 H   0  0  0  0  0  0
  -22.0599   -2.7608   23.2835 H   0  0  0  0  0  0
  -22.4047  -11.9910   22.4804 H   0  0  0  0  0  0
  -21.1042  -13.1270   22.2540 H   0  0  0  0  0  0
  -24.6455  -15.8442   20.5477 H   0  0  0  0  0  0
  -26.2567  -15.6410   20.0809 H   0  0  0  0  0  0
  -26.7288  -32.5265   23.0994 H   0  0  0  0  0  0
  -25.0058  -33.9616   25.0286 H   0  0  0  0  0  0
  -22.7561  -31.2861   21.3737 H   0  0  0  0  0  0
  -23.3758  -35.9565   23.3301 H   0  0  0  0  0  0
  -24.3576  -36.8895   22.2069 H   0  0  0  0  0  0
  -23.7235  -37.6428   23.6699 H   0  0  0  0  0  0
  -26.1822  -31.4529   20.6253 H   0  0  0  0  0  0
  -26.8764  -30.7433   22.0457 H   0  0  0  0  0  0
  -28.1314  -28.7561   21.2510 H   0  0  0  0  0  0
  -25.9056  -25.8237   18.9942 H   0  0  0  0  0  0
  -23.9803  -27.2932   18.9797 H   0  0  0  0  0  0
  -23.8218  -30.5568   19.3966 H   0  0  0  0  0  0
  -22.7942  -29.2283   19.8439 H   0  0  0  0  0  0
  -25.1314  -36.1841   25.0800 H   0  0  0  0  0  0
  -20.9979  -28.3293   24.1376 H   0  0  0  0  0  0
  -20.5825  -26.2323   23.3469 H   0  0  0  0  0  0
  -21.6712  -26.7613   22.1027 H   0  0  0  0  0  0
  -19.7034  -25.6435   21.1045 H   0  0  0  0  0  0
  -19.6747  -27.3365   20.6710 H   0  0  0  0  0  0
  -17.4294  -26.6794   21.3882 H   0  0  0  0  0  0
  -18.0363  -26.0022   22.8820 H   0  0  0  0  0  0
  -19.7920  -30.7291   24.2235 H   0  0  0  0  0  0
  -17.4987  -31.6245   24.5114 H   0  0  0  0  0  0
  -15.5343  -30.2943   23.7609 H   0  0  0  0  0  0
  -15.8701  -28.0778   22.7035 H   0  0  0  0  0  0
  -24.5875  -30.7138   25.7732 H   0  0  0  0  0  0
  -24.8885  -32.2977   26.4765 H   0  0  0  0  0  0
  -25.7960  -30.9004   27.0244 H   0  0  0  0  0  0
  -26.3047  -29.6670   24.1358 H   0  0  0  0  0  0
  -27.3967  -29.7284   25.4979 H   0  0  0  0  0  0
  -27.8976  -30.4184   23.9750 H   0  0  0  0  0  0
  -27.2609  -33.3685   26.2033 H   0  0  0  0  0  0
  -28.3880  -32.6913   25.0385 H   0  0  0  0  0  0
  -28.0671  -31.8557   26.5507 H   0  0  0  0  0  0
  -28.2574  -38.0082   24.7503 H   0  0  0  0  0  0
  -28.1081  -36.2612   24.6303 H   0  0  0  0  0  0
  -27.2295  -37.1427   25.8874 H   0  0  0  0  0  0
  -20.9463  -29.8957   21.6950 H   0  0  0  0  0  0
  -26.0149  -38.2801   24.1407 H   0  0  0  0  0  0
  -30.5188  -16.4825   18.1248 H   0  0  0  0  0  0
  -28.6400  -17.0066   16.6964 H   0  0  0  0  0  0
  -26.9304  -19.5390   19.6438 H   0  0  0  0  0  0
  -29.2632  -23.2571   21.4478 H   0  0  0  0  0  0
  -29.8454  -23.3193   19.8274 H   0  0  0  0  0  0
  -27.0554  -24.3678   20.7040 H   0  0  0  0  0  0
  -27.6158  -24.4042   19.0735 H   0  0  0  0  0  0
  -28.2355  -21.4447   19.1453 H   0  0  0  0  0  0
  -27.6005  -21.3809   20.7534 H   0  0  0  0  0  0
  -28.9073  -16.0312   21.1144 H   0  0  0  0  0  0
  1 25  1  0  0  0
  1 30  2  0  0  0
  1 80  1  0  0  0
  2  3  1  0  0  0
  2 25  1  0  0  0
  2 83  1  0  0  0
  2 84  1  0  0  0
  3  4  1  0  0  0
  3 85  1  0  0  0
  3 86  1  0  0  0
  4  5  1  0  0  0
  4 87  1  0  0  0
  4 88  1  0  0  0
  5  6  1  0  0  0
  5 26  1  0  0  0
  5 89  1  0  0  0
  6 25  1  0  0  0
  6 90  1  0  0  0
  6 91  1  0  0  0
  7  8  2  0  0  0
  7 26  1  0  0  0
  7 29  1  0  0  0
  8  9  1  0  0  0
  8 22  1  0  0  0
  9 10  1  0  0  0
  9 27  2  0  0  0
 10 11  2  0  0  0
 10 15  1  0  0  0
 11 12  1  0  0  0
 11 92  1  0  0  0
 12 13  2  0  0  0
 12 93  1  0  0  0
 13 14  1  0  0  0
 13 31  1  0  0  0
 14 15  2  0  0  0
 14 94  1  0  0  0
 15 95  1  0  0  0
 16 17  2  0  0  0
 16 21  1  0  0  0
 16 31  1  0  0  0
 17 18  1  0  0  0
 17 96  1  0  0  0
 18 19  2  0  0  0
 18 97  1  0  0  0
 19 20  1  0  0  0
 19 24  1  0  0  0
 20 21  2  0  0  0
 20 98  1  0  0  0
 21 23  1  0  0  0
 22 28  1  0  0  0
 22 32  2  0  0  0
 26 27  1  0  0  0
 28 99  1  0  0  0
 28100  1  0  0  0
 29101  1  0  0  0
 29102  1  0  0  0
 33 34  1  0  0  0
 33 66  1  0  0  0
 33 70  2  0  0  0
 34 36  1  0  0  0
 34 59  1  0  0  0
 34103  1  0  0  0
 35 44  2  0  0  0
 35 45  1  0  0  0
 35 68  1  0  0  0
 36 56  1  0  0  0
 36104  1  0  0  0
 37 39  1  0  0  0
 37 47  1  0  0  0
 37 66  1  0  0  0
 37105  1  0  0  0
 38 43  2  0  0  0
 38 46  1  0  0  0
 38 47  1  0  0  0
 39 64  1  0  0  0
 39 67  2  0  0  0
 40 52  1  0  0  0
 40 53  2  0  0  0
 40 58  1  0  0  0
 41106  1  0  0  0
 41107  1  0  0  0
 41108  1  0  0  0
 41 48  1  0  0  0
 42 43  1  0  0  0
 42 66  1  0  0  0
 42109  1  0  0  0
 42110  1  0  0  0
 43 44  1  0  0  0
 44111  1  0  0  0
 45 46  2  0  0  0
 45112  1  0  0  0
 46113  1  0  0  0
 47114  1  0  0  0
 47115  1  0  0  0
 48 56  1  0  0  0
 48 65  1  0  0  0
 48116  1  0  0  0
 49 50  1  0  0  0
 49 53  1  0  0  0
 49 64  1  0  0  0
 49117  1  0  0  0
 50 51  1  0  0  0
 50118  1  0  0  0
 50119  1  0  0  0
 51 52  1  0  0  0
 51120  1  0  0  0
 51121  1  0  0  0
 52122  1  0  0  0
 52123  1  0  0  0
 53 54  1  0  0  0
 54 55  2  0  0  0
 54124  1  0  0  0
 55 57  1  0  0  0
 55125  1  0  0  0
 56 69  2  0  0  0
 57 58  2  0  0  0
 57126  1  0  0  0
 58127  1  0  0  0
 59 60  1  0  0  0
 59 61  1  0  0  0
 59 62  1  0  0  0
 60128  1  0  0  0
 60129  1  0  0  0
 60130  1  0  0  0
 61131  1  0  0  0
 61132  1  0  0  0
 61133  1  0  0  0
 62134  1  0  0  0
 62135  1  0  0  0
 62136  1  0  0  0
 63 65  1  0  0  0
 63137  1  0  0  0
 63138  1  0  0  0
 63139  1  0  0  0
 64140  1  0  0  0
 65141  1  0  0  0
 68 78  1  0  0  0
 71 72  2  0  0  0
 71 74  1  0  0  0
 71142  1  0  0  0
 72 76  1  0  0  0
 72143  1  0  0  0
 73 75  1  0  0  0
 73 76  2  0  0  0
 73144  1  0  0  0
 74 75  2  0  0  0
 74 80  1  0  0  0
 75 81  1  0  0  0
 76 82  1  0  0  0
 77 78  1  0  0  0
 77 79  1  0  0  0
 77145  1  0  0  0
 77146  1  0  0  0
 78147  1  0  0  0
 78148  1  0  0  0
 79 81  1  0  0  0
 79149  1  0  0  0
 79150  1  0  0  0
 80151  1  0  0  0
M  ISO  4   1 100  68 101  78 101  80 100
M  END
> <chiral flag>
0

> <version>
0

> <s_m_source_file>
/data/baiqing/PycharmProjects/Reinvent-master-3.2/result/LINK_invent/BTK/process_docking_weight1_custom_product_contain_oxygen_bond_distance_aromatic_linkinvent_7_9_3/rearranged_h_0012.sdf

> <i_m_source_file_index>
17

> <r_mmod_Potential_Energy-OPLS-2005>
857.419921875

> <r_mmod_Stretch_Energy-OPLS-2005>
336.438507080078

> <r_mmod_Bend_Energy-OPLS-2005>
310.80419921875

> <r_mmod_Torsional_Energy-OPLS-2005>
432.230163574219

> <r_mmod_Improper_Torsional_Energy-OPLS-2005>
29.0202121734619

> <r_mmod_Van_der_Waal_Energy-OPLS-2005>
139.21208190918

> <r_mmod_Electrostatic_Energy-OPLS-2005>
-404.071319580078

> <r_mmod_Solvation_Energy-OPLS-2005>
-214.154571533203

> <b_mmod_Minimization_Converged-OPLS-2005>
0

> <r_mmod_RMS_Derivative-OPLS-2005>
2.46549153327942

$$$$
17
                    3D
 Structure written by MMmdl.
151159  0  0  1  0            999 V2000
  -30.6207  -14.6404   20.5017 C   0  0  0  0  0  0
  -30.4366  -12.3919   19.4535 C   0  0  0  0  0  0
  -29.5098  -12.5192   18.2233 C   0  0  0  0  0  0
  -28.0301  -12.3614   18.6287 C   0  0  0  0  0  0
  -27.6546  -13.2197   19.8662 C   0  0  2  0  0  0
  -28.6989  -13.0661   20.9954 C   0  0  0  0  0  0
  -25.2562  -13.8176   20.5677 C   0  0  0  0  0  0
  -24.1832  -13.0437   20.9184 C   0  0  0  0  0  0
  -24.6408  -11.6909   20.8734 C   0  0  0  0  0  0
  -23.9071  -10.4294   21.0403 C   0  0  0  0  0  0
  -24.3624   -9.4210   21.9184 C   0  0  0  0  0  0
  -23.6305   -8.2243   22.0754 C   0  0  0  0  0  0
  -22.4286   -8.0284   21.3541 C   0  0  0  0  0  0
  -21.9914   -9.0260   20.4646 C   0  0  0  0  0  0
  -22.7240  -10.2138   20.3055 C   0  0  0  0  0  0
  -21.6857   -6.0737   22.5278 C   0  0  0  0  0  0
  -21.4014   -6.5640   23.8212 C   0  0  0  0  0  0
  -21.3660   -5.6793   24.9175 C   0  0  0  0  0  0
  -21.6046   -4.3057   24.7221 C   0  0  0  0  0  0
  -21.8818   -3.8145   23.4342 C   0  0  0  0  0  0
  -21.9192   -4.6963   22.3399 C   0  0  0  0  0  0
  -22.7853  -13.5234   21.1843 C   0  0  0  0  0  0
  -22.1661   -4.2148   21.0977 F   0  0  0  0  0  0
  -21.5634   -3.4541   25.7733 F   0  0  0  0  0  0
  -30.0151  -13.4116   20.4353 N   0  0  0  0  0  0
  -26.2997  -12.9363   20.3319 N   0  0  0  0  0  0
  -25.9335  -11.6512   20.5749 N   0  0  0  0  0  0
  -22.0486  -12.8240   22.0403 N   0  0  0  0  0  0
  -25.4262  -15.1899   20.4079 N   0  0  0  0  0  0
  -31.7816  -14.8007   20.1137 O   0  0  0  0  0  0
  -21.6645   -6.8881   21.4242 O   0  0  0  0  0  0
  -22.3545  -14.5541   20.6689 O   0  0  0  0  0  0
  -24.6261  -31.8609   23.2045 C   0  0  0  0  0  0
  -25.9106  -32.4786   23.8370 C   0  0  1  0  0  0
  -27.2208  -27.3184   20.1168 C   0  0  0  0  0  0
  -25.5922  -33.8588   24.2296 N   0  0  0  0  0  0
  -23.4191  -30.4865   21.5481 C   0  0  2  0  0  0
  -24.8644  -28.9431   20.1147 C   0  0  0  0  0  0
  -22.7475  -29.4631   22.4947 C   0  0  0  0  0  0
  -18.0285  -28.1384   22.8493 C   0  0  0  0  0  0
  -24.1484  -36.7305   23.2639 C   0  0  0  0  0  0
  -25.9610  -30.7917   21.3754 C   0  0  0  0  0  0
  -26.0348  -29.4188   20.7191 C   0  0  0  0  0  0
  -27.2166  -28.6186   20.7108 C   0  0  0  0  0  0
  -26.0277  -26.9035   19.4793 C   0  0  0  0  0  0
  -24.8629  -27.6902   19.4870 C   0  0  0  0  0  0
  -23.6338  -29.8253   20.1625 C   0  0  0  0  0  0
  -25.4108  -36.3093   24.0334 C   0  0  1  0  0  0
  -20.5887  -28.3687   23.1297 C   0  0  2  0  0  0
  -20.6778  -26.9412   22.5417 C   0  0  0  0  0  0
  -19.5748  -26.6383   21.5224 C   0  0  0  0  0  0
  -18.1930  -26.7927   22.1635 C   0  0  0  0  0  0
  -19.1538  -28.8852   23.2889 C   0  0  0  0  0  0
  -18.9458  -30.1459   23.8898 C   0  0  0  0  0  0
  -17.6457  -30.6586   24.0566 C   0  0  0  0  0  0
  -25.9048  -34.9459   23.5116 C   0  0  0  0  0  0
  -16.5350  -29.9089   23.6324 C   0  0  0  0  0  0
  -16.7273  -28.6507   23.0345 C   0  0  0  0  0  0
  -26.4484  -31.6584   25.0734 C   0  0  0  0  0  0
  -25.3716  -31.3731   26.1462 C   0  0  0  0  0  0
  -27.0320  -30.3006   24.6178 C   0  0  0  0  0  0
  -27.6040  -32.4319   25.7509 C   0  0  0  0  0  0
  -27.5581  -37.1809   24.8464 C   0  0  0  0  0  0
  -21.4188  -29.3042   22.3692 N   0  0  0  0  0  0
  -26.4287  -37.3788   23.9414 N   0  0  0  0  0  0
  -24.6878  -31.0628   22.0996 N   0  0  0  0  0  0
  -23.4204  -28.8162   23.3016 O   0  0  0  0  0  0
  -28.3380  -26.4663   20.1474 O   0  0  0  0  0  0
  -26.5621  -34.8920   22.4686 O   0  0  0  0  0  0
  -23.5426  -32.1409   23.7376 O   0  0  0  0  0  0
  -30.9863  -17.8445   20.1353 C   0  0  0  0  0  0
  -30.9685  -19.2641   19.9932 C   0  0  0  0  0  0
  -28.7959  -17.9532   21.1125 C   0  0  0  0  0  0
  -29.8921  -17.1406   20.7028 C   0  0  0  0  0  0
  -29.8751  -20.0780   20.4000 C   0  0  0  0  0  0
  -28.7766  -19.3749   20.9706 C   0  0  0  0  0  0
  -29.2657  -23.9632   20.2182 C   0  0  0  0  0  0
  -28.0896  -25.0186   20.3689 C   0  0  0  0  0  0
  -28.9132  -22.4303   20.4994 C   0  0  0  0  0  0
  -29.8096  -15.6840   20.8721 N   0  0  0  0  0  0
  -29.9850  -21.4758   20.2123 O   0  0  0  0  0  0
  -27.6825  -20.0505   21.3985 F   0  0  0  0  0  0
  -31.4800  -12.5130   19.1578 H   0  0  0  0  0  0
  -30.3636  -11.3933   19.8877 H   0  0  0  0  0  0
  -29.7745  -11.7737   17.4721 H   0  0  0  0  0  0
  -29.6578  -13.4925   17.7514 H   0  0  0  0  0  0
  -27.8564  -11.3069   18.8449 H   0  0  0  0  0  0
  -27.3814  -12.6100   17.7878 H   0  0  0  0  0  0
  -27.6751  -14.2577   19.5349 H   0  0  0  0  0  0
  -28.7070  -12.0412   21.3704 H   0  0  0  0  0  0
  -28.4466  -13.6905   21.8533 H   0  0  0  0  0  0
  -25.2762   -9.5698   22.4766 H   0  0  0  0  0  0
  -24.0009   -7.4636   22.7478 H   0  0  0  0  0  0
  -21.0837   -8.8783   19.8964 H   0  0  0  0  0  0
  -22.3691  -10.9683   19.6175 H   0  0  0  0  0  0
  -21.2008   -7.6150   23.9716 H   0  0  0  0  0  0
  -21.1488   -6.0523   25.9081 H   0  0  0  0  0  0
  -22.0595   -2.7607   23.2840 H   0  0  0  0  0  0
  -22.4089  -11.9910   22.4815 H   0  0  0  0  0  0
  -21.1103  -13.1286   22.2588 H   0  0  0  0  0  0
  -24.6535  -15.8392   20.5078 H   0  0  0  0  0  0
  -26.2659  -15.6258   20.0488 H   0  0  0  0  0  0
  -26.7176  -32.5454   23.1120 H   0  0  0  0  0  0
  -25.0041  -33.9736   25.0421 H   0  0  0  0  0  0
  -22.7122  -31.3072   21.4089 H   0  0  0  0  0  0
  -23.3742  -35.9641   23.3296 H   0  0  0  0  0  0
  -24.3581  -36.8930   22.2055 H   0  0  0  0  0  0
  -23.7231  -37.6505   23.6659 H   0  0  0  0  0  0
  -26.0901  -31.5536   20.6055 H   0  0  0  0  0  0
  -26.8432  -30.8433   22.0018 H   0  0  0  0  0  0
  -28.1141  -28.9809   21.1926 H   0  0  0  0  0  0
  -25.9631  -25.9651   18.9527 H   0  0  0  0  0  0
  -23.9688  -27.3238   19.0015 H   0  0  0  0  0  0
  -23.7580  -30.6052   19.4102 H   0  0  0  0  0  0
  -22.7510  -29.2610   19.8558 H   0  0  0  0  0  0
  -25.1278  -36.1954   25.0826 H   0  0  0  0  0  0
  -20.9986  -28.3259   24.1416 H   0  0  0  0  0  0
  -20.5700  -26.2292   23.3614 H   0  0  0  0  0  0
  -21.6645  -26.7453   22.1199 H   0  0  0  0  0  0
  -19.6912  -25.6297   21.1248 H   0  0  0  0  0  0
  -19.6681  -27.3198   20.6759 H   0  0  0  0  0  0
  -17.4202  -26.6681   21.4034 H   0  0  0  0  0  0
  -18.0319  -26.0066   22.9030 H   0  0  0  0  0  0
  -19.7934  -30.7281   24.2258 H   0  0  0  0  0  0
  -17.5009  -31.6264   24.5173 H   0  0  0  0  0  0
  -15.5352  -30.2993   23.7638 H   0  0  0  0  0  0
  -15.8675  -28.0836   22.7043 H   0  0  0  0  0  0
  -24.5875  -30.7096   25.7793 H   0  0  0  0  0  0
  -24.8922  -32.2904   26.4894 H   0  0  0  0  0  0
  -25.8038  -30.8898   27.0234 H   0  0  0  0  0  0
  -26.2896  -29.6772   24.1177 H   0  0  0  0  0  0
  -27.3990  -29.7243   25.4681 H   0  0  0  0  0  0
  -27.8778  -30.4287   23.9419 H   0  0  0  0  0  0
  -27.2638  -33.3610   26.2096 H   0  0  0  0  0  0
  -28.3847  -32.6897   25.0339 H   0  0  0  0  0  0
  -28.0707  -31.8436   26.5420 H   0  0  0  0  0  0
  -28.2592  -38.0112   24.7515 H   0  0  0  0  0  0
  -28.1081  -36.2644   24.6274 H   0  0  0  0  0  0
  -27.2308  -37.1443   25.8869 H   0  0  0  0  0  0
  -20.9359  -29.8783   21.6922 H   0  0  0  0  0  0
  -26.0170  -38.2865   24.1414 H   0  0  0  0  0  0
  -31.8602  -17.3082   19.7940 H   0  0  0  0  0  0
  -31.8306  -19.7434   19.5523 H   0  0  0  0  0  0
  -27.9270  -17.4854   21.5514 H   0  0  0  0  0  0
  -30.0869  -24.2585   20.8705 H   0  0  0  0  0  0
  -29.6558  -24.0408   19.2037 H   0  0  0  0  0  0
  -27.6780  -24.9194   21.3744 H   0  0  0  0  0  0
  -27.3178  -24.6505   19.6997 H   0  0  0  0  0  0
  -28.0446  -22.1532   19.9005 H   0  0  0  0  0  0
  -28.6236  -22.3281   21.5461 H   0  0  0  0  0  0
  -28.9203  -15.3590   21.2197 H   0  0  0  0  0  0
  1 25  1  0  0  0
  1 30  2  0  0  0
  1 80  1  0  0  0
  2  3  1  0  0  0
  2 25  1  0  0  0
  2 83  1  0  0  0
  2 84  1  0  0  0
  3  4  1  0  0  0
  3 85  1  0  0  0
  3 86  1  0  0  0
  4  5  1  0  0  0
  4 87  1  0  0  0
  4 88  1  0  0  0
  5  6  1  0  0  0
  5 26  1  0  0  0
  5 89  1  0  0  0
  6 25  1  0  0  0
  6 90  1  0  0  0
  6 91  1  0  0  0
  7  8  2  0  0  0
  7 26  1  0  0  0
  7 29  1  0  0  0
  8  9  1  0  0  0
  8 22  1  0  0  0
  9 10  1  0  0  0
  9 27  2  0  0  0
 10 11  2  0  0  0
 10 15  1  0  0  0
 11 12  1  0  0  0
 11 92  1  0  0  0
 12 13  2  0  0  0
 12 93  1  0  0  0
 13 14  1  0  0  0
 13 31  1  0  0  0
 14 15  2  0  0  0
 14 94  1  0  0  0
 15 95  1  0  0  0
 16 17  2  0  0  0
 16 21  1  0  0  0
 16 31  1  0  0  0
 17 18  1  0  0  0
 17 96  1  0  0  0
 18 19  2  0  0  0
 18 97  1  0  0  0
 19 20  1  0  0  0
 19 24  1  0  0  0
 20 21  2  0  0  0
 20 98  1  0  0  0
 21 23  1  0  0  0
 22 28  1  0  0  0
 22 32  2  0  0  0
 26 27  1  0  0  0
 28 99  1  0  0  0
 28100  1  0  0  0
 29101  1  0  0  0
 29102  1  0  0  0
 33 34  1  0  0  0
 33 66  1  0  0  0
 33 70  2  0  0  0
 34 36  1  0  0  0
 34 59  1  0  0  0
 34103  1  0  0  0
 35 44  2  0  0  0
 35 45  1  0  0  0
 35 68  1  0  0  0
 36 56  1  0  0  0
 36104  1  0  0  0
 37 39  1  0  0  0
 37 47  1  0  0  0
 37 66  1  0  0  0
 37105  1  0  0  0
 38 43  2  0  0  0
 38 46  1  0  0  0
 38 47  1  0  0  0
 39 64  1  0  0  0
 39 67  2  0  0  0
 40 52  1  0  0  0
 40 53  2  0  0  0
 40 58  1  0  0  0
 41106  1  0  0  0
 41107  1  0  0  0
 41108  1  0  0  0
 41 48  1  0  0  0
 42 43  1  0  0  0
 42 66  1  0  0  0
 42109  1  0  0  0
 42110  1  0  0  0
 43 44  1  0  0  0
 44111  1  0  0  0
 45 46  2  0  0  0
 45112  1  0  0  0
 46113  1  0  0  0
 47114  1  0  0  0
 47115  1  0  0  0
 48 56  1  0  0  0
 48 65  1  0  0  0
 48116  1  0  0  0
 49 50  1  0  0  0
 49 53  1  0  0  0
 49 64  1  0  0  0
 49117  1  0  0  0
 50 51  1  0  0  0
 50118  1  0  0  0
 50119  1  0  0  0
 51 52  1  0  0  0
 51120  1  0  0  0
 51121  1  0  0  0
 52122  1  0  0  0
 52123  1  0  0  0
 53 54  1  0  0  0
 54 55  2  0  0  0
 54124  1  0  0  0
 55 57  1  0  0  0
 55125  1  0  0  0
 56 69  2  0  0  0
 57 58  2  0  0  0
 57126  1  0  0  0
 58127  1  0  0  0
 59 60  1  0  0  0
 59 61  1  0  0  0
 59 62  1  0  0  0
 60128  1  0  0  0
 60129  1  0  0  0
 60130  1  0  0  0
 61131  1  0  0  0
 61132  1  0  0  0
 61133  1  0  0  0
 62134  1  0  0  0
 62135  1  0  0  0
 62136  1  0  0  0
 63 65  1  0  0  0
 63137  1  0  0  0
 63138  1  0  0  0
 63139  1  0  0  0
 64140  1  0  0  0
 65141  1  0  0  0
 68 78  1  0  0  0
 71 72  2  0  0  0
 71 74  1  0  0  0
 71142  1  0  0  0
 72 75  1  0  0  0
 72143  1  0  0  0
 73 74  2  0  0  0
 73 76  1  0  0  0
 73144  1  0  0  0
 74 80  1  0  0  0
 75 76  2  0  0  0
 75 81  1  0  0  0
 76 82  1  0  0  0
 77 78  1  0  0  0
 77 79  1  0  0  0
 77145  1  0  0  0
 77146  1  0  0  0
 78147  1  0  0  0
 78148  1  0  0  0
 79 81  1  0  0  0
 79149  1  0  0  0
 79150  1  0  0  0
 80151  1  0  0  0
M  ISO  4   1 100  68 101  78 101  80 100
M  END
> <chiral flag>
0

> <version>
0

> <s_m_source_file>
/data/baiqing/PycharmProjects/Reinvent-master-3.2/result/LINK_invent/BTK/process_docking_weight1_custom_product_contain_oxygen_bond_distance_aromatic_linkinvent_7_9_3/rearranged_h_0012.sdf

> <i_m_source_file_index>
18

> <r_mmod_Potential_Energy-OPLS-2005>
74.7860946655273

> <r_mmod_Stretch_Energy-OPLS-2005>
79.5826568603516

> <r_mmod_Bend_Energy-OPLS-2005>
147.580917358398

> <r_mmod_Torsional_Energy-OPLS-2005>
214.559097290039

> <r_mmod_Improper_Torsional_Energy-OPLS-2005>
3.90157985687256

> <r_mmod_Van_der_Waal_Energy-OPLS-2005>
146.884353637695

> <r_mmod_Electrostatic_Energy-OPLS-2005>
-358.382598876953

> <r_mmod_Solvation_Energy-OPLS-2005>
-207.118133544922

> <b_mmod_Minimization_Converged-OPLS-2005>
0

> <r_mmod_RMS_Derivative-OPLS-2005>
1.06894218921661

$$$$
18
                    3D
 Structure written by MMmdl.
164174  0  0  1  0            999 V2000
  -30.6083  -14.7013   20.3575 C   0  0  0  0  0  0
  -30.4379  -12.3855   19.4713 C   0  0  0  0  0  0
  -29.5094  -12.3598   18.2365 C   0  0  0  0  0  0
  -28.0200  -12.2995   18.6436 C   0  0  0  0  0  0
  -27.6376  -13.2116   19.8449 C   0  0  2  0  0  0
  -28.6942  -13.1627   20.9670 C   0  0  0  0  0  0
  -25.2534  -13.8150   20.5729 C   0  0  0  0  0  0
  -24.1793  -13.0428   20.9219 C   0  0  0  0  0  0
  -24.6355  -11.6899   20.8778 C   0  0  0  0  0  0
  -23.9029  -10.4289   21.0432 C   0  0  0  0  0  0
  -24.3590   -9.4204   21.9203 C   0  0  0  0  0  0
  -23.6277   -8.2232   22.0760 C   0  0  0  0  0  0
  -22.4263   -8.0269   21.3546 C   0  0  0  0  0  0
  -21.9896   -9.0241   20.4647 C   0  0  0  0  0  0
  -22.7210  -10.2130   20.3071 C   0  0  0  0  0  0
  -21.6851   -6.0729   22.5278 C   0  0  0  0  0  0
  -21.4010   -6.5636   23.8209 C   0  0  0  0  0  0
  -21.3658   -5.6791   24.9173 C   0  0  0  0  0  0
  -21.6041   -4.3053   24.7229 C   0  0  0  0  0  0
  -21.8818   -3.8146   23.4351 C   0  0  0  0  0  0
  -21.9194   -4.6960   22.3405 C   0  0  0  0  0  0
  -22.7823  -13.5233   21.1872 C   0  0  0  0  0  0
  -22.1664   -4.2145   21.0984 F   0  0  0  0  0  0
  -21.5632   -3.4540   25.7744 F   0  0  0  0  0  0
  -29.9888  -13.4772   20.3541 N   0  0  0  0  0  0
  -26.2931  -12.9308   20.3339 N   0  0  0  0  0  0
  -25.9282  -11.6480   20.5826 N   0  0  0  0  0  0
  -22.0468  -12.8218   22.0419 N   0  0  0  0  0  0
  -25.4277  -15.1871   20.4155 N   0  0  0  0  0  0
  -31.8365  -14.7785   20.2648 O   0  0  0  0  0  0
  -21.6635   -6.8864   21.4235 O   0  0  0  0  0  0
  -22.3520  -14.5546   20.6725 O   0  0  0  0  0  0
  -24.6227  -31.8610   23.1997 C   0  0  0  0  0  0
  -25.9082  -32.4785   23.8335 C   0  0  1  0  0  0
  -27.2316  -27.3331   20.1355 C   0  0  0  0  0  0
  -25.5907  -33.8583   24.2271 N   0  0  0  0  0  0
  -23.4170  -30.4792   21.5421 C   0  0  2  0  0  0
  -24.8660  -28.9242   20.1185 C   0  0  0  0  0  0
  -22.7456  -29.4621   22.4945 C   0  0  0  0  0  0
  -18.0286  -28.1364   22.8488 C   0  0  0  0  0  0
  -24.1493  -36.7296   23.2637 C   0  0  0  0  0  0
  -25.9527  -30.7970   21.3653 C   0  0  0  0  0  0
  -26.0307  -29.4210   20.7168 C   0  0  0  0  0  0
  -27.2202  -28.6388   20.7085 C   0  0  0  0  0  0
  -26.0480  -26.8707   19.5267 C   0  0  0  0  0  0
  -24.8748  -27.6541   19.5139 C   0  0  0  0  0  0
  -23.6324  -29.8038   20.1609 C   0  0  0  0  0  0
  -25.4117  -36.3089   24.0330 C   0  0  1  0  0  0
  -20.5881  -28.3670   23.1283 C   0  0  2  0  0  0
  -20.6773  -26.9394   22.5406 C   0  0  0  0  0  0
  -19.5752  -26.6370   21.5200 C   0  0  0  0  0  0
  -18.1934  -26.7911   22.1614 C   0  0  0  0  0  0
  -19.1541  -28.8833   23.2878 C   0  0  0  0  0  0
  -18.9469  -30.1435   23.8891 C   0  0  0  0  0  0
  -17.6473  -30.6571   24.0558 C   0  0  0  0  0  0
  -25.9047  -34.9458   23.5105 C   0  0  0  0  0  0
  -16.5361  -29.9072   23.6321 C   0  0  0  0  0  0
  -16.7276  -28.6487   23.0347 C   0  0  0  0  0  0
  -26.4479  -31.6590   25.0705 C   0  0  0  0  0  0
  -25.3713  -31.3718   26.1438 C   0  0  0  0  0  0
  -27.0318  -30.3026   24.6123 C   0  0  0  0  0  0
  -27.6048  -32.4314   25.7469 C   0  0  0  0  0  0
  -27.5578  -37.1800   24.8464 C   0  0  0  0  0  0
  -21.4174  -29.3032   22.3686 N   0  0  0  0  0  0
  -26.4296  -37.3782   23.9407 N   0  0  0  0  0  0
  -24.6826  -31.0631   22.0935 N   0  0  0  0  0  0
  -23.4194  -28.8161   23.3017 O   0  0  0  0  0  0
  -28.3778  -26.5393   20.1095 O   0  0  0  0  0  0
  -26.5615  -34.8922   22.4667 O   0  0  0  0  0  0
  -23.5396  -32.1405   23.7333 O   0  0  0  0  0  0
  -29.0724  -19.3035   19.1941 C   0  0  0  0  0  0
  -29.2491  -19.1164   21.5967 C   0  0  0  0  0  0
  -29.4285  -17.9351   19.1055 C   0  0  0  0  0  0
  -28.9499  -19.9353   20.4572 C   0  0  0  0  0  0
  -29.6706  -17.1114   20.2122 C   0  0  0  0  0  0
  -29.6012  -17.7246   21.4881 C   0  0  0  0  0  0
  -29.5461  -17.1643   17.8334 C   0  0  0  0  0  0
  -29.8684  -22.9642   18.0821 C   0  0  0  0  0  0
  -29.0754  -24.2135   18.4444 C   0  0  0  0  0  0
  -29.7627  -15.7214   18.3192 C   0  0  0  0  0  0
  -30.3164  -22.4636   19.4508 C   0  0  0  0  0  0
  -28.4104  -23.8953   19.8023 C   0  0  2  0  0  0
  -28.3229  -21.3866   20.5473 C   0  0  0  0  0  0
  -28.3665  -25.1959   20.7269 C   0  0  0  0  0  0
  -29.8589  -15.7236   19.7995 N   0  0  0  0  0  0
  -29.1485  -22.6547   20.3436 N   0  3  1  0  0  0
  -29.8180  -16.9856   22.6021 F   0  0  0  0  0  0
  -31.4762  -12.5099   19.1601 H   0  0  0  0  0  0
  -30.3938  -11.4344   20.0049 H   0  0  0  0  0  0
  -29.7449  -11.4840   17.6304 H   0  0  0  0  0  0
  -29.7049  -13.1992   17.5770 H   0  0  0  0  0  0
  -27.8131  -11.2605   18.9021 H   0  0  0  0  0  0
  -27.3849  -12.5207   17.7854 H   0  0  0  0  0  0
  -27.6108  -14.2291   19.4668 H   0  0  0  0  0  0
  -28.7207  -12.1808   21.4422 H   0  0  0  0  0  0
  -28.4563  -13.8860   21.7490 H   0  0  0  0  0  0
  -25.2736   -9.5688   22.4776 H   0  0  0  0  0  0
  -23.9994   -7.4620   22.7469 H   0  0  0  0  0  0
  -21.0841   -8.8741   19.8943 H   0  0  0  0  0  0
  -22.3661  -10.9665   19.6181 H   0  0  0  0  0  0
  -21.1993   -7.6144   23.9708 H   0  0  0  0  0  0
  -21.1483   -6.0529   25.9072 H   0  0  0  0  0  0
  -22.0600   -2.7609   23.2854 H   0  0  0  0  0  0
  -22.4093  -11.9864   22.4773 H   0  0  0  0  0  0
  -21.1087  -13.1233   22.2646 H   0  0  0  0  0  0
  -24.6660  -15.8462   20.5304 H   0  0  0  0  0  0
  -26.2912  -15.6254   20.1213 H   0  0  0  0  0  0
  -26.7146  -32.5486   23.1086 H   0  0  0  0  0  0
  -25.0108  -33.9734   25.0452 H   0  0  0  0  0  0
  -22.7098  -31.2972   21.3927 H   0  0  0  0  0  0
  -23.3762  -35.9620   23.3320 H   0  0  0  0  0  0
  -24.3584  -36.8903   22.2046 H   0  0  0  0  0  0
  -23.7236  -37.6499   23.6650 H   0  0  0  0  0  0
  -26.0749  -31.5557   20.5911 H   0  0  0  0  0  0
  -26.8357  -30.8555   21.9897 H   0  0  0  0  0  0
  -28.1225  -29.0248   21.1607 H   0  0  0  0  0  0
  -26.0303  -25.8992   19.0532 H   0  0  0  0  0  0
  -23.9819  -27.2678   19.0421 H   0  0  0  0  0  0
  -23.7500  -30.5748   19.3990 H   0  0  0  0  0  0
  -22.7538  -29.2288   19.8632 H   0  0  0  0  0  0
  -25.1290  -36.1945   25.0820 H   0  0  0  0  0  0
  -20.9971  -28.3246   24.1400 H   0  0  0  0  0  0
  -20.5656  -26.2277   23.3602 H   0  0  0  0  0  0
  -21.6645  -26.7410   22.1208 H   0  0  0  0  0  0
  -19.6915  -25.6277   21.1233 H   0  0  0  0  0  0
  -19.6696  -27.3177   20.6728 H   0  0  0  0  0  0
  -17.4199  -26.6660   21.4020 H   0  0  0  0  0  0
  -18.0347  -26.0034   22.8995 H   0  0  0  0  0  0
  -19.7951  -30.7254   24.2251 H   0  0  0  0  0  0
  -17.5031  -31.6252   24.5159 H   0  0  0  0  0  0
  -15.5364  -30.2973   23.7640 H   0  0  0  0  0  0
  -15.8681  -28.0807   22.7048 H   0  0  0  0  0  0
  -24.5892  -30.7062   25.7776 H   0  0  0  0  0  0
  -24.8898  -32.2877   26.4867 H   0  0  0  0  0  0
  -25.8040  -30.8900   27.0215 H   0  0  0  0  0  0
  -26.2882  -29.6789   24.1152 H   0  0  0  0  0  0
  -27.4048  -29.7273   25.4607 H   0  0  0  0  0  0
  -27.8730  -30.4345   23.9315 H   0  0  0  0  0  0
  -27.2673  -33.3620   26.2042 H   0  0  0  0  0  0
  -28.3857  -32.6866   25.0291 H   0  0  0  0  0  0
  -28.0718  -31.8443   26.5386 H   0  0  0  0  0  0
  -28.2590  -38.0101   24.7519 H   0  0  0  0  0  0
  -28.1080  -36.2633   24.6289 H   0  0  0  0  0  0
  -27.2301  -37.1446   25.8867 H   0  0  0  0  0  0
  -20.9344  -29.8778   21.6923 H   0  0  0  0  0  0
  -26.0194  -38.2863   24.1415 H   0  0  0  0  0  0
  -28.8429  -19.8514   18.2900 H   0  0  0  0  0  0
  -29.1505  -19.5373   22.5875 H   0  0  0  0  0  0
  -30.3961  -17.5250   17.2531 H   0  0  0  0  0  0
  -28.6428  -17.2611   17.2290 H   0  0  0  0  0  0
  -30.7040  -23.1693   17.4117 H   0  0  0  0  0  0
  -29.2229  -22.2278   17.6006 H   0  0  0  0  0  0
  -28.3495  -24.4878   17.6770 H   0  0  0  0  0  0
  -29.7702  -25.0488   18.5451 H   0  0  0  0  0  0
  -30.6484  -15.2960   17.8431 H   0  0  0  0  0  0
  -28.9016  -15.1395   18.0002 H   0  0  0  0  0  0
  -31.1229  -23.1023   19.8142 H   0  0  0  0  0  0
  -30.7279  -21.4564   19.4224 H   0  0  0  0  0  0
  -27.3755  -23.6198   19.5952 H   0  0  0  0  0  0
  -27.8045  -21.4780   21.5018 H   0  0  0  0  0  0
  -27.5277  -21.3928   19.8014 H   0  0  0  0  0  0
  -29.2626  -25.1822   21.3484 H   0  0  0  0  0  0
  -27.5379  -25.1146   21.4317 H   0  0  0  0  0  0
  -29.5288  -22.8674   21.2549 H   0  0  0  0  0  0
  1 25  1  0  0  0
  1 30  2  0  0  0
  1 85  1  0  0  0
  2  3  1  0  0  0
  2 25  1  0  0  0
  2 88  1  0  0  0
  2 89  1  0  0  0
  3  4  1  0  0  0
  3 90  1  0  0  0
  3 91  1  0  0  0
  4  5  1  0  0  0
  4 92  1  0  0  0
  4 93  1  0  0  0
  5  6  1  0  0  0
  5 26  1  0  0  0
  5 94  1  0  0  0
  6 25  1  0  0  0
  6 95  1  0  0  0
  6 96  1  0  0  0
  7  8  2  0  0  0
  7 26  1  0  0  0
  7 29  1  0  0  0
  8  9  1  0  0  0
  8 22  1  0  0  0
  9 10  1  0  0  0
  9 27  2  0  0  0
 10 11  2  0  0  0
 10 15  1  0  0  0
 11 12  1  0  0  0
 11 97  1  0  0  0
 12 13  2  0  0  0
 12 98  1  0  0  0
 13 14  1  0  0  0
 13 31  1  0  0  0
 14 15  2  0  0  0
 14 99  1  0  0  0
 15100  1  0  0  0
 16 17  2  0  0  0
 16 21  1  0  0  0
 16 31  1  0  0  0
 17 18  1  0  0  0
 17101  1  0  0  0
 18 19  2  0  0  0
 18102  1  0  0  0
 19 20  1  0  0  0
 19 24  1  0  0  0
 20 21  2  0  0  0
 20103  1  0  0  0
 21 23  1  0  0  0
 22 28  1  0  0  0
 22 32  2  0  0  0
 26 27  1  0  0  0
 28104  1  0  0  0
 28105  1  0  0  0
 29106  1  0  0  0
 29107  1  0  0  0
 33 34  1  0  0  0
 33 66  1  0  0  0
 33 70  2  0  0  0
 34 36  1  0  0  0
 34 59  1  0  0  0
 34108  1  0  0  0
 35 44  2  0  0  0
 35 45  1  0  0  0
 35 68  1  0  0  0
 36 56  1  0  0  0
 36109  1  0  0  0
 37 39  1  0  0  0
 37 47  1  0  0  0
 37 66  1  0  0  0
 37110  1  0  0  0
 38 43  2  0  0  0
 38 46  1  0  0  0
 38 47  1  0  0  0
 39 64  1  0  0  0
 39 67  2  0  0  0
 40 52  1  0  0  0
 40 53  2  0  0  0
 40 58  1  0  0  0
 41111  1  0  0  0
 41112  1  0  0  0
 41113  1  0  0  0
 41 48  1  0  0  0
 42 43  1  0  0  0
 42 66  1  0  0  0
 42114  1  0  0  0
 42115  1  0  0  0
 43 44  1  0  0  0
 44116  1  0  0  0
 45 46  2  0  0  0
 45117  1  0  0  0
 46118  1  0  0  0
 47119  1  0  0  0
 47120  1  0  0  0
 48 56  1  0  0  0
 48 65  1  0  0  0
 48121  1  0  0  0
 49 50  1  0  0  0
 49 53  1  0  0  0
 49 64  1  0  0  0
 49122  1  0  0  0
 50 51  1  0  0  0
 50123  1  0  0  0
 50124  1  0  0  0
 51 52  1  0  0  0
 51125  1  0  0  0
 51126  1  0  0  0
 52127  1  0  0  0
 52128  1  0  0  0
 53 54  1  0  0  0
 54 55  2  0  0  0
 54129  1  0  0  0
 55 57  1  0  0  0
 55130  1  0  0  0
 56 69  2  0  0  0
 57 58  2  0  0  0
 57131  1  0  0  0
 58132  1  0  0  0
 59 60  1  0  0  0
 59 61  1  0  0  0
 59 62  1  0  0  0
 60133  1  0  0  0
 60134  1  0  0  0
 60135  1  0  0  0
 61136  1  0  0  0
 61137  1  0  0  0
 61138  1  0  0  0
 62139  1  0  0  0
 62140  1  0  0  0
 62141  1  0  0  0
 63 65  1  0  0  0
 63142  1  0  0  0
 63143  1  0  0  0
 63144  1  0  0  0
 64145  1  0  0  0
 65146  1  0  0  0
 68 84  1  0  0  0
 71 73  2  0  0  0
 71 74  1  0  0  0
 71147  1  0  0  0
 72 74  2  0  0  0
 72 76  1  0  0  0
 72148  1  0  0  0
 73 75  1  0  0  0
 73 77  1  0  0  0
 74 83  1  0  0  0
 75 76  2  0  0  0
 75 85  1  0  0  0
 76 87  1  0  0  0
 77 80  1  0  0  0
 77149  1  0  0  0
 77150  1  0  0  0
 78 79  1  0  0  0
 78 81  1  0  0  0
 78151  1  0  0  0
 78152  1  0  0  0
 79 82  1  0  0  0
 79153  1  0  0  0
 79154  1  0  0  0
 80 85  1  0  0  0
 80155  1  0  0  0
 80156  1  0  0  0
 81 86  1  0  0  0
 81157  1  0  0  0
 81158  1  0  0  0
 82 84  1  0  0  0
 82 86  1  0  0  0
 82159  1  0  0  0
 83160  1  0  0  0
 83161  1  0  0  0
 83 86  1  0  0  0
 84162  1  0  0  0
 84163  1  0  0  0
 86164  1  0  0  0
M  CHG  1  86   1
M  ISO  4   1 100  68 101  84 101  85 100
M  END
> <chiral flag>
0

> <version>
0

> <s_m_source_file>
/data/baiqing/PycharmProjects/Reinvent-master-3.2/result/LINK_invent/BTK/process_docking_weight1_custom_product_contain_oxygen_bond_distance_aromatic_linkinvent_7_9_3/rearranged_h_0012.sdf

> <i_m_source_file_index>
19

> <r_mmod_Potential_Energy-OPLS-2005>
327.472351074219

> <r_mmod_Stretch_Energy-OPLS-2005>
85.8865585327148

> <r_mmod_Bend_Energy-OPLS-2005>
226.316116333008

> <r_mmod_Torsional_Energy-OPLS-2005>
397.129608154297

> <r_mmod_Improper_Torsional_Energy-OPLS-2005>
28.0900421142578

> <r_mmod_Van_der_Waal_Energy-OPLS-2005>
129.033050537109

> <r_mmod_Electrostatic_Energy-OPLS-2005>
-182.168960571289

> <r_mmod_Solvation_Energy-OPLS-2005>
-425.393920898438

> <b_mmod_Minimization_Converged-OPLS-2005>
0

> <r_mmod_RMS_Derivative-OPLS-2005>
1.22452902793884

$$$$
19
                    3D
 Structure written by MMmdl.
151159  0  0  1  0            999 V2000
  -30.6207  -14.6404   20.5017 C   0  0  0  0  0  0
  -30.4366  -12.3919   19.4535 C   0  0  0  0  0  0
  -29.5098  -12.5192   18.2233 C   0  0  0  0  0  0
  -28.0301  -12.3614   18.6287 C   0  0  0  0  0  0
  -27.6546  -13.2197   19.8662 C   0  0  2  0  0  0
  -28.6989  -13.0661   20.9954 C   0  0  0  0  0  0
  -25.2562  -13.8176   20.5677 C   0  0  0  0  0  0
  -24.1832  -13.0437   20.9184 C   0  0  0  0  0  0
  -24.6408  -11.6909   20.8734 C   0  0  0  0  0  0
  -23.9071  -10.4294   21.0403 C   0  0  0  0  0  0
  -24.3624   -9.4210   21.9184 C   0  0  0  0  0  0
  -23.6305   -8.2243   22.0754 C   0  0  0  0  0  0
  -22.4286   -8.0284   21.3541 C   0  0  0  0  0  0
  -21.9914   -9.0260   20.4646 C   0  0  0  0  0  0
  -22.7240  -10.2138   20.3055 C   0  0  0  0  0  0
  -21.6857   -6.0737   22.5278 C   0  0  0  0  0  0
  -21.4014   -6.5640   23.8212 C   0  0  0  0  0  0
  -21.3660   -5.6793   24.9175 C   0  0  0  0  0  0
  -21.6046   -4.3057   24.7221 C   0  0  0  0  0  0
  -21.8818   -3.8145   23.4342 C   0  0  0  0  0  0
  -21.9192   -4.6963   22.3399 C   0  0  0  0  0  0
  -22.7853  -13.5234   21.1843 C   0  0  0  0  0  0
  -22.1661   -4.2148   21.0977 F   0  0  0  0  0  0
  -21.5634   -3.4541   25.7733 F   0  0  0  0  0  0
  -30.0151  -13.4116   20.4353 N   0  0  0  0  0  0
  -26.2997  -12.9363   20.3319 N   0  0  0  0  0  0
  -25.9335  -11.6512   20.5749 N   0  0  0  0  0  0
  -22.0486  -12.8240   22.0403 N   0  0  0  0  0  0
  -25.4262  -15.1899   20.4079 N   0  0  0  0  0  0
  -31.7816  -14.8007   20.1137 O   0  0  0  0  0  0
  -21.6645   -6.8881   21.4242 O   0  0  0  0  0  0
  -22.3545  -14.5541   20.6689 O   0  0  0  0  0  0
  -24.6261  -31.8609   23.2045 C   0  0  0  0  0  0
  -25.9106  -32.4786   23.8370 C   0  0  1  0  0  0
  -27.2208  -27.3184   20.1168 C   0  0  0  0  0  0
  -25.5922  -33.8588   24.2296 N   0  0  0  0  0  0
  -23.4191  -30.4865   21.5481 C   0  0  2  0  0  0
  -24.8644  -28.9431   20.1147 C   0  0  0  0  0  0
  -22.7475  -29.4631   22.4947 C   0  0  0  0  0  0
  -18.0285  -28.1384   22.8493 C   0  0  0  0  0  0
  -24.1484  -36.7305   23.2639 C   0  0  0  0  0  0
  -25.9610  -30.7917   21.3754 C   0  0  0  0  0  0
  -26.0348  -29.4188   20.7191 C   0  0  0  0  0  0
  -27.2166  -28.6186   20.7108 C   0  0  0  0  0  0
  -26.0277  -26.9035   19.4793 C   0  0  0  0  0  0
  -24.8629  -27.6902   19.4870 C   0  0  0  0  0  0
  -23.6338  -29.8253   20.1625 C   0  0  0  0  0  0
  -25.4108  -36.3093   24.0334 C   0  0  1  0  0  0
  -20.5887  -28.3687   23.1297 C   0  0  2  0  0  0
  -20.6778  -26.9412   22.5417 C   0  0  0  0  0  0
  -19.5748  -26.6383   21.5224 C   0  0  0  0  0  0
  -18.1930  -26.7927   22.1635 C   0  0  0  0  0  0
  -19.1538  -28.8852   23.2889 C   0  0  0  0  0  0
  -18.9458  -30.1459   23.8898 C   0  0  0  0  0  0
  -17.6457  -30.6586   24.0566 C   0  0  0  0  0  0
  -25.9048  -34.9459   23.5116 C   0  0  0  0  0  0
  -16.5350  -29.9089   23.6324 C   0  0  0  0  0  0
  -16.7273  -28.6507   23.0345 C   0  0  0  0  0  0
  -26.4484  -31.6584   25.0734 C   0  0  0  0  0  0
  -25.3716  -31.3731   26.1462 C   0  0  0  0  0  0
  -27.0320  -30.3006   24.6178 C   0  0  0  0  0  0
  -27.6040  -32.4319   25.7509 C   0  0  0  0  0  0
  -27.5581  -37.1809   24.8464 C   0  0  0  0  0  0
  -21.4188  -29.3042   22.3692 N   0  0  0  0  0  0
  -26.4287  -37.3788   23.9414 N   0  0  0  0  0  0
  -24.6878  -31.0628   22.0996 N   0  0  0  0  0  0
  -23.4204  -28.8162   23.3016 O   0  0  0  0  0  0
  -28.3380  -26.4663   20.1474 O   0  0  0  0  0  0
  -26.5621  -34.8920   22.4686 O   0  0  0  0  0  0
  -23.5426  -32.1409   23.7376 O   0  0  0  0  0  0
  -30.9863  -17.8445   20.1353 C   0  0  0  0  0  0
  -30.9685  -19.2641   19.9932 C   0  0  0  0  0  0
  -28.7959  -17.9532   21.1125 C   0  0  0  0  0  0
  -29.8921  -17.1406   20.7028 C   0  0  0  0  0  0
  -29.8751  -20.0780   20.4000 C   0  0  0  0  0  0
  -28.7766  -19.3749   20.9706 C   0  0  0  0  0  0
  -29.2657  -23.9632   20.2182 C   0  0  0  0  0  0
  -28.0896  -25.0186   20.3689 C   0  0  0  0  0  0
  -28.9132  -22.4303   20.4994 C   0  0  0  0  0  0
  -29.8096  -15.6840   20.8721 N   0  0  0  0  0  0
  -29.9850  -21.4758   20.2123 O   0  0  0  0  0  0
  -27.6825  -20.0505   21.3985 F   0  0  0  0  0  0
  -31.4800  -12.5130   19.1578 H   0  0  0  0  0  0
  -30.3636  -11.3933   19.8877 H   0  0  0  0  0  0
  -29.7745  -11.7737   17.4721 H   0  0  0  0  0  0
  -29.6578  -13.4925   17.7514 H   0  0  0  0  0  0
  -27.8564  -11.3069   18.8449 H   0  0  0  0  0  0
  -27.3814  -12.6100   17.7878 H   0  0  0  0  0  0
  -27.6751  -14.2577   19.5349 H   0  0  0  0  0  0
  -28.7070  -12.0412   21.3704 H   0  0  0  0  0  0
  -28.4466  -13.6905   21.8533 H   0  0  0  0  0  0
  -25.2762   -9.5698   22.4766 H   0  0  0  0  0  0
  -24.0009   -7.4636   22.7478 H   0  0  0  0  0  0
  -21.0837   -8.8783   19.8964 H   0  0  0  0  0  0
  -22.3691  -10.9683   19.6175 H   0  0  0  0  0  0
  -21.2008   -7.6150   23.9716 H   0  0  0  0  0  0
  -21.1488   -6.0523   25.9081 H   0  0  0  0  0  0
  -22.0595   -2.7607   23.2840 H   0  0  0  0  0  0
  -22.4089  -11.9910   22.4815 H   0  0  0  0  0  0
  -21.1103  -13.1286   22.2588 H   0  0  0  0  0  0
  -24.6535  -15.8392   20.5078 H   0  0  0  0  0  0
  -26.2659  -15.6258   20.0488 H   0  0  0  0  0  0
  -26.7176  -32.5454   23.1120 H   0  0  0  0  0  0
  -25.0041  -33.9736   25.0421 H   0  0  0  0  0  0
  -22.7122  -31.3072   21.4089 H   0  0  0  0  0  0
  -23.3742  -35.9641   23.3296 H   0  0  0  0  0  0
  -24.3581  -36.8930   22.2055 H   0  0  0  0  0  0
  -23.7231  -37.6505   23.6659 H   0  0  0  0  0  0
  -26.0901  -31.5536   20.6055 H   0  0  0  0  0  0
  -26.8432  -30.8433   22.0018 H   0  0  0  0  0  0
  -28.1141  -28.9809   21.1926 H   0  0  0  0  0  0
  -25.9631  -25.9651   18.9527 H   0  0  0  0  0  0
  -23.9688  -27.3238   19.0015 H   0  0  0  0  0  0
  -23.7580  -30.6052   19.4102 H   0  0  0  0  0  0
  -22.7510  -29.2610   19.8558 H   0  0  0  0  0  0
  -25.1278  -36.1954   25.0826 H   0  0  0  0  0  0
  -20.9986  -28.3259   24.1416 H   0  0  0  0  0  0
  -20.5700  -26.2292   23.3614 H   0  0  0  0  0  0
  -21.6645  -26.7453   22.1199 H   0  0  0  0  0  0
  -19.6912  -25.6297   21.1248 H   0  0  0  0  0  0
  -19.6681  -27.3198   20.6759 H   0  0  0  0  0  0
  -17.4202  -26.6681   21.4034 H   0  0  0  0  0  0
  -18.0319  -26.0066   22.9030 H   0  0  0  0  0  0
  -19.7934  -30.7281   24.2258 H   0  0  0  0  0  0
  -17.5009  -31.6264   24.5173 H   0  0  0  0  0  0
  -15.5352  -30.2993   23.7638 H   0  0  0  0  0  0
  -15.8675  -28.0836   22.7043 H   0  0  0  0  0  0
  -24.5875  -30.7096   25.7793 H   0  0  0  0  0  0
  -24.8922  -32.2904   26.4894 H   0  0  0  0  0  0
  -25.8038  -30.8898   27.0234 H   0  0  0  0  0  0
  -26.2896  -29.6772   24.1177 H   0  0  0  0  0  0
  -27.3990  -29.7243   25.4681 H   0  0  0  0  0  0
  -27.8778  -30.4287   23.9419 H   0  0  0  0  0  0
  -27.2638  -33.3610   26.2096 H   0  0  0  0  0  0
  -28.3847  -32.6897   25.0339 H   0  0  0  0  0  0
  -28.0707  -31.8436   26.5420 H   0  0  0  0  0  0
  -28.2592  -38.0112   24.7515 H   0  0  0  0  0  0
  -28.1081  -36.2644   24.6274 H   0  0  0  0  0  0
  -27.2308  -37.1443   25.8869 H   0  0  0  0  0  0
  -20.9359  -29.8783   21.6922 H   0  0  0  0  0  0
  -26.0170  -38.2865   24.1414 H   0  0  0  0  0  0
  -31.8602  -17.3082   19.7940 H   0  0  0  0  0  0
  -31.8306  -19.7434   19.5523 H   0  0  0  0  0  0
  -27.9270  -17.4854   21.5514 H   0  0  0  0  0  0
  -30.0869  -24.2585   20.8705 H   0  0  0  0  0  0
  -29.6558  -24.0408   19.2037 H   0  0  0  0  0  0
  -27.6780  -24.9194   21.3744 H   0  0  0  0  0  0
  -27.3178  -24.6505   19.6997 H   0  0  0  0  0  0
  -28.0446  -22.1532   19.9005 H   0  0  0  0  0  0
  -28.6236  -22.3281   21.5461 H   0  0  0  0  0  0
  -28.9203  -15.3590   21.2197 H   0  0  0  0  0  0
  1 25  1  0  0  0
  1 30  2  0  0  0
  1 80  1  0  0  0
  2  3  1  0  0  0
  2 25  1  0  0  0
  2 83  1  0  0  0
  2 84  1  0  0  0
  3  4  1  0  0  0
  3 85  1  0  0  0
  3 86  1  0  0  0
  4  5  1  0  0  0
  4 87  1  0  0  0
  4 88  1  0  0  0
  5  6  1  0  0  0
  5 26  1  0  0  0
  5 89  1  0  0  0
  6 25  1  0  0  0
  6 90  1  0  0  0
  6 91  1  0  0  0
  7  8  2  0  0  0
  7 26  1  0  0  0
  7 29  1  0  0  0
  8  9  1  0  0  0
  8 22  1  0  0  0
  9 10  1  0  0  0
  9 27  2  0  0  0
 10 11  2  0  0  0
 10 15  1  0  0  0
 11 12  1  0  0  0
 11 92  1  0  0  0
 12 13  2  0  0  0
 12 93  1  0  0  0
 13 14  1  0  0  0
 13 31  1  0  0  0
 14 15  2  0  0  0
 14 94  1  0  0  0
 15 95  1  0  0  0
 16 17  2  0  0  0
 16 21  1  0  0  0
 16 31  1  0  0  0
 17 18  1  0  0  0
 17 96  1  0  0  0
 18 19  2  0  0  0
 18 97  1  0  0  0
 19 20  1  0  0  0
 19 24  1  0  0  0
 20 21  2  0  0  0
 20 98  1  0  0  0
 21 23  1  0  0  0
 22 28  1  0  0  0
 22 32  2  0  0  0
 26 27  1  0  0  0
 28 99  1  0  0  0
 28100  1  0  0  0
 29101  1  0  0  0
 29102  1  0  0  0
 33 34  1  0  0  0
 33 66  1  0  0  0
 33 70  2  0  0  0
 34 36  1  0  0  0
 34 59  1  0  0  0
 34103  1  0  0  0
 35 44  2  0  0  0
 35 45  1  0  0  0
 35 68  1  0  0  0
 36 56  1  0  0  0
 36104  1  0  0  0
 37 39  1  0  0  0
 37 47  1  0  0  0
 37 66  1  0  0  0
 37105  1  0  0  0
 38 43  2  0  0  0
 38 46  1  0  0  0
 38 47  1  0  0  0
 39 64  1  0  0  0
 39 67  2  0  0  0
 40 52  1  0  0  0
 40 53  2  0  0  0
 40 58  1  0  0  0
 41106  1  0  0  0
 41107  1  0  0  0
 41108  1  0  0  0
 41 48  1  0  0  0
 42 43  1  0  0  0
 42 66  1  0  0  0
 42109  1  0  0  0
 42110  1  0  0  0
 43 44  1  0  0  0
 44111  1  0  0  0
 45 46  2  0  0  0
 45112  1  0  0  0
 46113  1  0  0  0
 47114  1  0  0  0
 47115  1  0  0  0
 48 56  1  0  0  0
 48 65  1  0  0  0
 48116  1  0  0  0
 49 50  1  0  0  0
 49 53  1  0  0  0
 49 64  1  0  0  0
 49117  1  0  0  0
 50 51  1  0  0  0
 50118  1  0  0  0
 50119  1  0  0  0
 51 52  1  0  0  0
 51120  1  0  0  0
 51121  1  0  0  0
 52122  1  0  0  0
 52123  1  0  0  0
 53 54  1  0  0  0
 54 55  2  0  0  0
 54124  1  0  0  0
 55 57  1  0  0  0
 55125  1  0  0  0
 56 69  2  0  0  0
 57 58  2  0  0  0
 57126  1  0  0  0
 58127  1  0  0  0
 59 60  1  0  0  0
 59 61  1  0  0  0
 59 62  1  0  0  0
 60128  1  0  0  0
 60129  1  0  0  0
 60130  1  0  0  0
 61131  1  0  0  0
 61132  1  0  0  0
 61133  1  0  0  0
 62134  1  0  0  0
 62135  1  0  0  0
 62136  1  0  0  0
 63 65  1  0  0  0
 63137  1  0  0  0
 63138  1  0  0  0
 63139  1  0  0  0
 64140  1  0  0  0
 65141  1  0  0  0
 68 78  1  0  0  0
 71 72  2  0  0  0
 71 74  1  0  0  0
 71142  1  0  0  0
 72 75  1  0  0  0
 72143  1  0  0  0
 73 74  2  0  0  0
 73 76  1  0  0  0
 73144  1  0  0  0
 74 80  1  0  0  0
 75 76  2  0  0  0
 75 81  1  0  0  0
 76 82  1  0  0  0
 77 78  1  0  0  0
 77 79  1  0  0  0
 77145  1  0  0  0
 77146  1  0  0  0
 78147  1  0  0  0
 78148  1  0  0  0
 79 81  1  0  0  0
 79149  1  0  0  0
 79150  1  0  0  0
 80151  1  0  0  0
M  ISO  4   1 100  68 101  78 101  80 100
M  END
> <chiral flag>
0

> <version>
0

> <s_m_source_file>
/data/baiqing/PycharmProjects/Reinvent-master-3.2/result/LINK_invent/BTK/process_docking_weight1_custom_product_contain_oxygen_bond_distance_aromatic_linkinvent_7_9_3/rearranged_h_0012.sdf

> <i_m_source_file_index>
20

> <r_mmod_Potential_Energy-OPLS-2005>
74.7860946655273

> <r_mmod_Stretch_Energy-OPLS-2005>
79.5826568603516

> <r_mmod_Bend_Energy-OPLS-2005>
147.580917358398

> <r_mmod_Torsional_Energy-OPLS-2005>
214.559097290039

> <r_mmod_Improper_Torsional_Energy-OPLS-2005>
3.90157985687256

> <r_mmod_Van_der_Waal_Energy-OPLS-2005>
146.884353637695

> <r_mmod_Electrostatic_Energy-OPLS-2005>
-358.382598876953

> <r_mmod_Solvation_Energy-OPLS-2005>
-207.118133544922

> <b_mmod_Minimization_Converged-OPLS-2005>
0

> <r_mmod_RMS_Derivative-OPLS-2005>
1.06894218921661

$$$$
20
                    3D
 Structure written by MMmdl.
159167  0  0  1  0            999 V2000
  -30.6295  -14.6157   20.5104 C   0  0  0  0  0  0
  -30.4397  -12.3833   19.4420 C   0  0  0  0  0  0
  -29.5097  -12.5239   18.2164 C   0  0  0  0  0  0
  -28.0298  -12.3601   18.6229 C   0  0  0  0  0  0
  -27.6563  -13.2174   19.8625 C   0  0  2  0  0  0
  -28.7008  -13.0467   20.9906 C   0  0  0  0  0  0
  -25.2567  -13.8160   20.5680 C   0  0  0  0  0  0
  -24.1819  -13.0437   20.9173 C   0  0  0  0  0  0
  -24.6377  -11.6912   20.8696 C   0  0  0  0  0  0
  -23.9045  -10.4297   21.0362 C   0  0  0  0  0  0
  -24.3600   -9.4228   21.9163 C   0  0  0  0  0  0
  -23.6286   -8.2243   22.0736 C   0  0  0  0  0  0
  -22.4263   -8.0260   21.3535 C   0  0  0  0  0  0
  -21.9895   -9.0225   20.4640 C   0  0  0  0  0  0
  -22.7201  -10.2117   20.3041 C   0  0  0  0  0  0
  -21.6844   -6.0713   22.5273 C   0  0  0  0  0  0
  -21.4006   -6.5628   23.8201 C   0  0  0  0  0  0
  -21.3684   -5.6780   24.9166 C   0  0  0  0  0  0
  -21.6040   -4.3038   24.7219 C   0  0  0  0  0  0
  -21.8830   -3.8138   23.4340 C   0  0  0  0  0  0
  -21.9187   -4.6947   22.3398 C   0  0  0  0  0  0
  -22.7836  -13.5236   21.1817 C   0  0  0  0  0  0
  -22.1668   -4.2135   21.0974 F   0  0  0  0  0  0
  -21.5648   -3.4540   25.7739 F   0  0  0  0  0  0
  -30.0187  -13.3905   20.4359 N   0  0  0  0  0  0
  -26.3000  -12.9349   20.3296 N   0  0  0  0  0  0
  -25.9312  -11.6495   20.5694 N   0  0  0  0  0  0
  -22.0454  -12.8242   22.0367 N   0  0  0  0  0  0
  -25.4283  -15.1874   20.4115 N   0  0  0  0  0  0
  -31.7766  -14.7866   20.0909 O   0  0  0  0  0  0
  -21.6632   -6.8845   21.4225 O   0  0  0  0  0  0
  -22.3536  -14.5552   20.6655 O   0  0  0  0  0  0
  -24.6259  -31.8613   23.2013 C   0  0  0  0  0  0
  -25.9128  -32.4791   23.8329 C   0  0  1  0  0  0
  -27.2353  -27.3403   20.1163 C   0  0  0  0  0  0
  -25.5953  -33.8585   24.2271 N   0  0  0  0  0  0
  -23.4194  -30.4835   21.5450 C   0  0  2  0  0  0
  -24.8668  -28.9356   20.1176 C   0  0  0  0  0  0
  -22.7493  -29.4631   22.4953 C   0  0  0  0  0  0
  -18.0289  -28.1400   22.8488 C   0  0  0  0  0  0
  -24.1489  -36.7275   23.2639 C   0  0  0  0  0  0
  -25.9589  -30.8022   21.3686 C   0  0  0  0  0  0
  -26.0344  -29.4285   20.7128 C   0  0  0  0  0  0
  -27.2232  -28.6433   20.6988 C   0  0  0  0  0  0
  -26.0490  -26.8956   19.4938 C   0  0  0  0  0  0
  -24.8735  -27.6744   19.5012 C   0  0  0  0  0  0
  -23.6349  -29.8159   20.1612 C   0  0  0  0  0  0
  -25.4117  -36.3079   24.0330 C   0  0  1  0  0  0
  -20.5894  -28.3685   23.1311 C   0  0  2  0  0  0
  -20.6787  -26.9418   22.5430 C   0  0  0  0  0  0
  -19.5756  -26.6407   21.5233 C   0  0  0  0  0  0
  -18.1931  -26.7950   22.1641 C   0  0  0  0  0  0
  -19.1546  -28.8862   23.2891 C   0  0  0  0  0  0
  -18.9477  -30.1463   23.8895 C   0  0  0  0  0  0
  -17.6477  -30.6596   24.0568 C   0  0  0  0  0  0
  -25.9063  -34.9455   23.5092 C   0  0  0  0  0  0
  -16.5364  -29.9101   23.6324 C   0  0  0  0  0  0
  -16.7281  -28.6530   23.0334 C   0  0  0  0  0  0
  -26.4502  -31.6611   25.0707 C   0  0  0  0  0  0
  -25.3741  -31.3766   26.1443 C   0  0  0  0  0  0
  -27.0341  -30.3035   24.6158 C   0  0  0  0  0  0
  -27.6051  -32.4346   25.7494 C   0  0  0  0  0  0
  -27.5575  -37.1797   24.8463 C   0  0  0  0  0  0
  -21.4207  -29.3031   22.3706 N   0  0  0  0  0  0
  -26.4274  -37.3791   23.9419 N   0  0  0  0  0  0
  -24.6875  -31.0638   22.0963 N   0  0  0  0  0  0
  -23.4247  -28.8189   23.3028 O   0  0  0  0  0  0
  -28.3667  -26.5180   20.1139 O   0  0  0  0  0  0
  -26.5612  -34.8923   22.4650 O   0  0  0  0  0  0
  -23.5429  -32.1386   23.7358 O   0  0  0  0  0  0
  -29.4795  -19.4045   21.5467 C   0  0  0  0  0  0
  -29.5033  -17.9925   21.7490 C   0  0  0  0  0  0
  -30.2218  -19.0636   19.2855 C   0  0  0  0  0  0
  -29.8315  -19.9816   20.2994 C   0  0  0  0  0  0
  -29.9239  -17.0803   20.7409 C   0  0  0  0  0  0
  -30.2729  -17.6558   19.4898 C   0  0  0  0  0  0
  -30.5849  -24.4331   19.9792 C   0  0  0  0  0  0
  -27.5521  -22.0280   20.4310 C   0  0  0  0  0  0
  -29.9492  -21.5278   20.0250 C   0  0  0  0  0  0
  -28.2163  -25.1341   20.6127 C   0  0  0  0  0  0
  -29.1056  -23.9785   19.9534 C   0  0  2  0  0  0
  -29.8659  -15.6425   20.9907 N   0  0  0  0  0  0
  -28.9393  -22.5530   20.5282 N   0  3  1  0  0  0
  -30.6293  -16.8653   18.4498 F   0  0  0  0  0  0
  -31.4832  -12.5042   19.1429 H   0  0  0  0  0  0
  -30.3657  -11.3813   19.8670 H   0  0  0  0  0  0
  -29.7769  -11.7941   17.4512 H   0  0  0  0  0  0
  -29.6549  -13.5055   17.7610 H   0  0  0  0  0  0
  -27.8543  -11.3061   18.8366 H   0  0  0  0  0  0
  -27.3813  -12.6097   17.7810 H   0  0  0  0  0  0
  -27.6827  -14.2591   19.5368 H   0  0  0  0  0  0
  -28.7059  -12.0166   21.3541 H   0  0  0  0  0  0
  -28.4459  -13.6582   21.8575 H   0  0  0  0  0  0
  -25.2743   -9.5732   22.4732 H   0  0  0  0  0  0
  -24.0016   -7.4647   22.7474 H   0  0  0  0  0  0
  -21.0816   -8.8723   19.8962 H   0  0  0  0  0  0
  -22.3631  -10.9637   19.6157 H   0  0  0  0  0  0
  -21.1992   -7.6128   23.9717 H   0  0  0  0  0  0
  -21.1508   -6.0493   25.9068 H   0  0  0  0  0  0
  -22.0590   -2.7597   23.2832 H   0  0  0  0  0  0
  -22.4051  -11.9959   22.4878 H   0  0  0  0  0  0
  -21.1075  -13.1314   22.2512 H   0  0  0  0  0  0
  -24.6581  -15.8393   20.5138 H   0  0  0  0  0  0
  -26.2859  -15.6333   20.1123 H   0  0  0  0  0  0
  -26.7215  -32.5477   23.1102 H   0  0  0  0  0  0
  -25.0113  -33.9711   25.0417 H   0  0  0  0  0  0
  -22.7125  -31.3031   21.4026 H   0  0  0  0  0  0
  -23.3754  -35.9606   23.3296 H   0  0  0  0  0  0
  -24.3555  -36.8899   22.2051 H   0  0  0  0  0  0
  -23.7244  -37.6482   23.6648 H   0  0  0  0  0  0
  -26.0857  -31.5737   20.6070 H   0  0  0  0  0  0
  -26.8402  -30.8513   21.9970 H   0  0  0  0  0  0
  -28.1257  -29.0241   21.1543 H   0  0  0  0  0  0
  -26.0229  -25.9385   18.9956 H   0  0  0  0  0  0
  -23.9785  -27.2926   19.0313 H   0  0  0  0  0  0
  -23.7615  -30.5940   19.4067 H   0  0  0  0  0  0
  -22.7554  -29.2481   19.8544 H   0  0  0  0  0  0
  -25.1302  -36.1918   25.0821 H   0  0  0  0  0  0
  -20.9968  -28.3265   24.1440 H   0  0  0  0  0  0
  -20.5722  -26.2285   23.3623 H   0  0  0  0  0  0
  -21.6654  -26.7476   22.1202 H   0  0  0  0  0  0
  -19.6910  -25.6322   21.1261 H   0  0  0  0  0  0
  -19.6697  -27.3216   20.6759 H   0  0  0  0  0  0
  -17.4211  -26.6693   21.4035 H   0  0  0  0  0  0
  -18.0303  -26.0110   22.9049 H   0  0  0  0  0  0
  -19.7948  -30.7282   24.2272 H   0  0  0  0  0  0
  -17.5025  -31.6273   24.5179 H   0  0  0  0  0  0
  -15.5363  -30.3001   23.7635 H   0  0  0  0  0  0
  -15.8687  -28.0854   22.7012 H   0  0  0  0  0  0
  -24.5886  -30.7147   25.7778 H   0  0  0  0  0  0
  -24.8957  -32.2945   26.4875 H   0  0  0  0  0  0
  -25.8064  -30.8940   27.0216 H   0  0  0  0  0  0
  -26.2912  -29.6805   24.1171 H   0  0  0  0  0  0
  -27.4037  -29.7278   25.4652 H   0  0  0  0  0  0
  -27.8772  -30.4306   23.9362 H   0  0  0  0  0  0
  -27.2646  -33.3627   26.2087 H   0  0  0  0  0  0
  -28.3870  -32.6965   25.0355 H   0  0  0  0  0  0
  -28.0715  -31.8481   26.5425 H   0  0  0  0  0  0
  -28.2600  -38.0087   24.7514 H   0  0  0  0  0  0
  -28.1069  -36.2625   24.6285 H   0  0  0  0  0  0
  -27.2281  -37.1443   25.8860 H   0  0  0  0  0  0
  -20.9386  -29.8758   21.6919 H   0  0  0  0  0  0
  -26.0160  -38.2860   24.1445 H   0  0  0  0  0  0
  -29.1878  -20.0436   22.3691 H   0  0  0  0  0  0
  -29.1984  -17.6062   22.7112 H   0  0  0  0  0  0
  -30.5213  -19.4414   18.3193 H   0  0  0  0  0  0
  -30.6975  -25.4372   19.5666 H   0  0  0  0  0  0
  -31.2282  -23.7889   19.3812 H   0  0  0  0  0  0
  -30.9841  -24.4526   20.9941 H   0  0  0  0  0  0
  -27.4297  -21.1466   21.0602 H   0  0  0  0  0  0
  -27.2983  -21.7473   19.4099 H   0  0  0  0  0  0
  -26.8083  -22.7369   20.7815 H   0  0  0  0  0  0
  -29.9858  -21.6446   18.9415 H   0  0  0  0  0  0
  -30.9374  -21.8102   20.3863 H   0  0  0  0  0  0
  -28.4602  -25.1828   21.6749 H   0  0  0  0  0  0
  -27.1714  -24.8407   20.5782 H   0  0  0  0  0  0
  -28.8102  -23.9227   18.9036 H   0  0  0  0  0  0
  -29.0492  -15.3395   21.4953 H   0  0  0  0  0  0
  -29.1192  -22.6244   21.5201 H   0  0  0  0  0  0
  1 25  1  0  0  0
  1 30  2  0  0  0
  1 82  1  0  0  0
  2  3  1  0  0  0
  2 25  1  0  0  0
  2 85  1  0  0  0
  2 86  1  0  0  0
  3  4  1  0  0  0
  3 87  1  0  0  0
  3 88  1  0  0  0
  4  5  1  0  0  0
  4 89  1  0  0  0
  4 90  1  0  0  0
  5  6  1  0  0  0
  5 26  1  0  0  0
  5 91  1  0  0  0
  6 25  1  0  0  0
  6 92  1  0  0  0
  6 93  1  0  0  0
  7  8  2  0  0  0
  7 26  1  0  0  0
  7 29  1  0  0  0
  8  9  1  0  0  0
  8 22  1  0  0  0
  9 10  1  0  0  0
  9 27  2  0  0  0
 10 11  2  0  0  0
 10 15  1  0  0  0
 11 12  1  0  0  0
 11 94  1  0  0  0
 12 13  2  0  0  0
 12 95  1  0  0  0
 13 14  1  0  0  0
 13 31  1  0  0  0
 14 15  2  0  0  0
 14 96  1  0  0  0
 15 97  1  0  0  0
 16 17  2  0  0  0
 16 21  1  0  0  0
 16 31  1  0  0  0
 17 18  1  0  0  0
 17 98  1  0  0  0
 18 19  2  0  0  0
 18 99  1  0  0  0
 19 20  1  0  0  0
 19 24  1  0  0  0
 20 21  2  0  0  0
 20100  1  0  0  0
 21 23  1  0  0  0
 22 28  1  0  0  0
 22 32  2  0  0  0
 26 27  1  0  0  0
 28101  1  0  0  0
 28102  1  0  0  0
 29103  1  0  0  0
 29104  1  0  0  0
 33 34  1  0  0  0
 33 66  1  0  0  0
 33 70  2  0  0  0
 34 36  1  0  0  0
 34 59  1  0  0  0
 34105  1  0  0  0
 35 44  2  0  0  0
 35 45  1  0  0  0
 35 68  1  0  0  0
 36 56  1  0  0  0
 36106  1  0  0  0
 37 39  1  0  0  0
 37 47  1  0  0  0
 37 66  1  0  0  0
 37107  1  0  0  0
 38 43  2  0  0  0
 38 46  1  0  0  0
 38 47  1  0  0  0
 39 64  1  0  0  0
 39 67  2  0  0  0
 40 52  1  0  0  0
 40 53  2  0  0  0
 40 58  1  0  0  0
 41108  1  0  0  0
 41109  1  0  0  0
 41110  1  0  0  0
 41 48  1  0  0  0
 42 43  1  0  0  0
 42 66  1  0  0  0
 42111  1  0  0  0
 42112  1  0  0  0
 43 44  1  0  0  0
 44113  1  0  0  0
 45 46  2  0  0  0
 45114  1  0  0  0
 46115  1  0  0  0
 47116  1  0  0  0
 47117  1  0  0  0
 48 56  1  0  0  0
 48 65  1  0  0  0
 48118  1  0  0  0
 49 50  1  0  0  0
 49 53  1  0  0  0
 49 64  1  0  0  0
 49119  1  0  0  0
 50 51  1  0  0  0
 50120  1  0  0  0
 50121  1  0  0  0
 51 52  1  0  0  0
 51122  1  0  0  0
 51123  1  0  0  0
 52124  1  0  0  0
 52125  1  0  0  0
 53 54  1  0  0  0
 54 55  2  0  0  0
 54126  1  0  0  0
 55 57  1  0  0  0
 55127  1  0  0  0
 56 69  2  0  0  0
 57 58  2  0  0  0
 57128  1  0  0  0
 58129  1  0  0  0
 59 60  1  0  0  0
 59 61  1  0  0  0
 59 62  1  0  0  0
 60130  1  0  0  0
 60131  1  0  0  0
 60132  1  0  0  0
 61133  1  0  0  0
 61134  1  0  0  0
 61135  1  0  0  0
 62136  1  0  0  0
 62137  1  0  0  0
 62138  1  0  0  0
 63 65  1  0  0  0
 63139  1  0  0  0
 63140  1  0  0  0
 63141  1  0  0  0
 64142  1  0  0  0
 65143  1  0  0  0
 68 80  1  0  0  0
 71 72  2  0  0  0
 71 74  1  0  0  0
 71144  1  0  0  0
 72 75  1  0  0  0
 72145  1  0  0  0
 73 74  2  0  0  0
 73 76  1  0  0  0
 73146  1  0  0  0
 74 79  1  0  0  0
 75 76  2  0  0  0
 75 82  1  0  0  0
 76 84  1  0  0  0
 77147  1  0  0  0
 77148  1  0  0  0
 77149  1  0  0  0
 77 81  1  0  0  0
 78150  1  0  0  0
 78151  1  0  0  0
 78152  1  0  0  0
 78 83  1  0  0  0
 79 83  1  0  0  0
 79153  1  0  0  0
 79154  1  0  0  0
 80 81  1  0  0  0
 80155  1  0  0  0
 80156  1  0  0  0
 81 83  1  0  0  0
 81157  1  0  0  0
 82158  1  0  0  0
 83159  1  0  0  0
M  CHG  1  83   1
M  ISO  4   1 100  68 101  80 101  82 100
M  END
> <chiral flag>
0

> <version>
0

> <s_m_source_file>
/data/baiqing/PycharmProjects/Reinvent-master-3.2/result/LINK_invent/BTK/process_docking_weight1_custom_product_contain_oxygen_bond_distance_aromatic_linkinvent_7_9_3/rearranged_h_0012.sdf

> <i_m_source_file_index>
21

> <r_mmod_Potential_Energy-OPLS-2005>
-40.4599609375

> <r_mmod_Stretch_Energy-OPLS-2005>
80.6737213134766

> <r_mmod_Bend_Energy-OPLS-2005>
138.689926147461

> <r_mmod_Torsional_Energy-OPLS-2005>
245.848846435547

> <r_mmod_Improper_Torsional_Energy-OPLS-2005>
3.5623095035553

> <r_mmod_Van_der_Waal_Energy-OPLS-2005>
148.005676269531

> <r_mmod_Electrostatic_Energy-OPLS-2005>
-246.662796020508

> <r_mmod_Solvation_Energy-OPLS-2005>
-448.829406738281

> <b_mmod_Minimization_Converged-OPLS-2005>
0

> <r_mmod_RMS_Derivative-OPLS-2005>
3.71273493766785

$$$$
21
                    3D
 Structure written by MMmdl.
166175  0  0  1  0            999 V2000
  -30.6105  -14.7521   20.5110 C   0  0  0  0  0  0
  -30.4519  -12.4686   19.4672 C   0  0  0  0  0  0
  -29.5143  -12.4943   18.2357 C   0  0  0  0  0  0
  -28.0320  -12.3325   18.6301 C   0  0  0  0  0  0
  -27.6446  -13.2179   19.8448 C   0  0  2  0  0  0
  -28.6911  -13.0780   20.9656 C   0  0  0  0  0  0
  -25.2550  -13.8135   20.5592 C   0  0  0  0  0  0
  -24.1819  -13.0418   20.9110 C   0  0  0  0  0  0
  -24.6389  -11.6874   20.8732 C   0  0  0  0  0  0
  -23.9065  -10.4291   21.0409 C   0  0  0  0  0  0
  -24.3625   -9.4211   21.9190 C   0  0  0  0  0  0
  -23.6313   -8.2239   22.0761 C   0  0  0  0  0  0
  -22.4298   -8.0281   21.3541 C   0  0  0  0  0  0
  -21.9915   -9.0227   20.4641 C   0  0  0  0  0  0
  -22.7222  -10.2124   20.3054 C   0  0  0  0  0  0
  -21.6841   -6.0779   22.5284 C   0  0  0  0  0  0
  -21.4010   -6.5679   23.8216 C   0  0  0  0  0  0
  -21.3653   -5.6811   24.9192 C   0  0  0  0  0  0
  -21.6026   -4.3081   24.7221 C   0  0  0  0  0  0
  -21.8807   -3.8176   23.4314 C   0  0  0  0  0  0
  -21.9176   -4.6993   22.3397 C   0  0  0  0  0  0
  -22.7841  -13.5229   21.1742 C   0  0  0  0  0  0
  -22.1639   -4.2209   21.0956 F   0  0  0  0  0  0
  -21.5630   -3.4535   25.7714 F   0  0  0  0  0  0
  -29.9839  -13.5170   20.4105 N   0  0  0  0  0  0
  -26.2959  -12.9310   20.3212 N   0  0  0  0  0  0
  -25.9309  -11.6462   20.5724 N   0  0  0  0  0  0
  -22.0490  -12.8306   22.0344 N   0  0  0  0  0  0
  -25.4350  -15.1865   20.4033 N   0  0  0  0  0  0
  -31.7917  -14.8286   20.1554 O   0  0  0  0  0  0
  -21.6618   -6.8892   21.4249 O   0  0  0  0  0  0
  -22.3505  -14.5497   20.6531 O   0  0  0  0  0  0
  -24.6276  -31.8686   23.1954 C   0  0  0  0  0  0
  -25.9107  -32.4831   23.8323 C   0  0  1  0  0  0
  -27.2209  -27.2923   20.1648 C   0  0  0  0  0  0
  -25.6028  -33.8635   24.2273 N   0  0  0  0  0  0
  -23.4198  -30.4892   21.5322 C   0  0  2  0  0  0
  -24.8689  -28.9364   20.0907 C   0  0  0  0  0  0
  -22.7469  -29.4727   22.4855 C   0  0  0  0  0  0
  -18.0330  -28.1430   22.8516 C   0  0  0  0  0  0
  -24.1467  -36.7272   23.2626 C   0  0  0  0  0  0
  -25.9546  -30.7950   21.3580 C   0  0  0  0  0  0
  -26.0250  -29.4130   20.7167 C   0  0  0  0  0  0
  -27.1964  -28.6018   20.7423 C   0  0  0  0  0  0
  -26.0503  -26.8712   19.4985 C   0  0  0  0  0  0
  -24.8881  -27.6747   19.4633 C   0  0  0  0  0  0
  -23.6358  -29.8235   20.1429 C   0  0  0  0  0  0
  -25.4091  -36.3073   24.0308 C   0  0  1  0  0  0
  -20.5925  -28.3775   23.1247 C   0  0  2  0  0  0
  -20.6835  -26.9479   22.5418 C   0  0  0  0  0  0
  -19.5799  -26.6423   21.5238 C   0  0  0  0  0  0
  -18.1969  -26.8001   22.1614 C   0  0  0  0  0  0
  -19.1569  -28.8899   23.2903 C   0  0  0  0  0  0
  -18.9495  -30.1498   23.8954 C   0  0  0  0  0  0
  -17.6503  -30.6651   24.0598 C   0  0  0  0  0  0
  -25.9059  -34.9484   23.5052 C   0  0  0  0  0  0
  -16.5395  -29.9146   23.6342 C   0  0  0  0  0  0
  -16.7311  -28.6553   23.0376 C   0  0  0  0  0  0
  -26.4490  -31.6682   25.0736 C   0  0  0  0  0  0
  -25.3758  -31.3885   26.1501 C   0  0  0  0  0  0
  -27.0326  -30.3130   24.6148 C   0  0  0  0  0  0
  -27.6047  -32.4413   25.7549 C   0  0  0  0  0  0
  -27.5544  -37.1757   24.8459 C   0  0  0  0  0  0
  -21.4179  -29.3138   22.3600 N   0  0  0  0  0  0
  -26.4248  -37.3765   23.9425 N   0  0  0  0  0  0
  -24.6865  -31.0663   22.0886 N   0  0  0  0  0  0
  -23.4205  -28.8291   23.2933 O   0  0  0  0  0  0
  -28.3643  -26.4800   20.2943 O   0  0  0  0  0  0
  -26.5540  -34.8966   22.4564 O   0  0  0  0  0  0
  -23.5434  -32.1496   23.7253 O   0  0  0  0  0  0
  -30.8602  -17.5049   19.1023 C   0  0  0  0  0  0
  -30.9635  -18.7584   18.4665 C   0  0  0  0  0  0
  -29.1791  -18.4527   20.5575 C   0  0  0  0  0  0
  -29.2956  -19.7760   19.9518 C   0  0  0  0  0  0
  -29.9601  -17.2756   20.1711 C   0  0  0  0  0  0
  -30.1912  -19.8689   18.8560 C   0  0  0  0  0  0
  -29.8949  -23.1958   22.4524 C   0  0  0  0  0  0
  -28.6004  -23.9729   22.1928 C   0  0  0  0  0  0
  -30.2709  -22.5810   21.1043 C   0  0  0  0  0  0
  -28.1939  -23.7461   20.7144 C   0  0  2  0  0  0
  -26.6586  -23.5404   20.6477 C   0  0  0  0  0  0
  -29.2211  -15.9397   22.1416 C   0  0  0  0  0  0
  -28.4325  -21.0532   20.3976 C   0  0  0  0  0  0
  -28.5184  -25.0713   19.8212 C   0  0  0  0  0  0
  -29.8837  -15.9207   20.8297 N   0  0  0  0  0  0
  -29.0159  -22.4836   20.3206 N   0  3  2  0  0  0
  -30.3764  -21.3232   17.9362 Cl  0  0  0  0  0  0
  -31.4808  -12.6199   19.1421 H   0  0  0  0  0  0
  -30.4437  -11.4907   19.9524 H   0  0  0  0  0  0
  -29.8098  -11.7315   17.5186 H   0  0  0  0  0  0
  -29.6401  -13.4472   17.7263 H   0  0  0  0  0  0
  -27.8478  -11.2790   18.8550 H   0  0  0  0  0  0
  -27.3998  -12.5723   17.7774 H   0  0  0  0  0  0
  -27.6596  -14.2498   19.4912 H   0  0  0  0  0  0
  -28.7398  -12.0322   21.2762 H   0  0  0  0  0  0
  -28.3944  -13.6002   21.8656 H   0  0  0  0  0  0
  -25.2780   -9.5709   22.4762 H   0  0  0  0  0  0
  -24.0024   -7.4636   22.7484 H   0  0  0  0  0  0
  -21.0835   -8.8707   19.8964 H   0  0  0  0  0  0
  -22.3629  -10.9660   19.6184 H   0  0  0  0  0  0
  -21.2001   -7.6187   23.9749 H   0  0  0  0  0  0
  -21.1505   -6.0551   25.9107 H   0  0  0  0  0  0
  -22.0597   -2.7635   23.2785 H   0  0  0  0  0  0
  -22.4080  -12.0029   22.4860 H   0  0  0  0  0  0
  -21.1100  -13.1390   22.2454 H   0  0  0  0  0  0
  -24.6813  -15.8593   20.5084 H   0  0  0  0  0  0
  -26.3001  -15.6187   20.1060 H   0  0  0  0  0  0
  -26.7204  -32.5497   23.1095 H   0  0  0  0  0  0
  -25.0512  -33.9820   25.0639 H   0  0  0  0  0  0
  -22.7119  -31.3075   21.3871 H   0  0  0  0  0  0
  -23.3751  -35.9582   23.3289 H   0  0  0  0  0  0
  -24.3612  -36.8910   22.2050 H   0  0  0  0  0  0
  -23.7161  -37.6445   23.6675 H   0  0  0  0  0  0
  -26.0583  -31.5429   20.5703 H   0  0  0  0  0  0
  -26.8417  -30.8727   21.9731 H   0  0  0  0  0  0
  -28.0754  -28.9619   21.2530 H   0  0  0  0  0  0
  -26.0104  -25.9042   19.0218 H   0  0  0  0  0  0
  -24.0069  -27.3120   18.9495 H   0  0  0  0  0  0
  -23.7533  -30.6075   19.3941 H   0  0  0  0  0  0
  -22.7537  -29.2641   19.8287 H   0  0  0  0  0  0
  -25.1223  -36.1928   25.0787 H   0  0  0  0  0  0
  -21.0067  -28.3430   24.1330 H   0  0  0  0  0  0
  -20.5834  -26.2384   23.3650 H   0  0  0  0  0  0
  -21.6691  -26.7599   22.1116 H   0  0  0  0  0  0
  -19.6998  -25.6311   21.1334 H   0  0  0  0  0  0
  -19.6750  -27.3190   20.6729 H   0  0  0  0  0  0
  -17.4235  -26.6808   21.4011 H   0  0  0  0  0  0
  -18.0346  -26.0161   22.9005 H   0  0  0  0  0  0
  -19.7968  -30.7306   24.2377 H   0  0  0  0  0  0
  -17.5052  -31.6354   24.5150 H   0  0  0  0  0  0
  -15.5395  -30.3063   23.7640 H   0  0  0  0  0  0
  -15.8718  -28.0896   22.7039 H   0  0  0  0  0  0
  -24.5868  -30.7288   25.7851 H   0  0  0  0  0  0
  -24.9072  -32.3136   26.4891 H   0  0  0  0  0  0
  -25.8142  -30.9108   27.0278 H   0  0  0  0  0  0
  -26.2904  -29.6904   24.1150 H   0  0  0  0  0  0
  -27.4039  -29.7340   25.4591 H   0  0  0  0  0  0
  -27.8748  -30.4422   23.9355 H   0  0  0  0  0  0
  -27.2645  -33.3706   26.2114 H   0  0  0  0  0  0
  -28.3940  -32.6966   25.0479 H   0  0  0  0  0  0
  -28.0652  -31.8592   26.5534 H   0  0  0  0  0  0
  -28.2466  -38.0112   24.7539 H   0  0  0  0  0  0
  -28.1104  -36.2637   24.6222 H   0  0  0  0  0  0
  -27.2356  -37.1377   25.8885 H   0  0  0  0  0  0
  -20.9336  -29.8802   21.6773 H   0  0  0  0  0  0
  -26.0127  -38.2821   24.1514 H   0  0  0  0  0  0
  -31.5114  -16.7295   18.7373 H   0  0  0  0  0  0
  -31.6648  -18.8763   17.6514 H   0  0  0  0  0  0
  -28.4299  -18.3447   21.3318 H   0  0  0  0  0  0
  -29.7215  -22.4132   23.1968 H   0  0  0  0  0  0
  -30.6814  -23.8433   22.8454 H   0  0  0  0  0  0
  -28.6953  -25.0260   22.4524 H   0  0  0  0  0  0
  -27.8398  -23.5557   22.8557 H   0  0  0  0  0  0
  -30.8056  -21.6328   21.2238 H   0  0  0  0  0  0
  -30.9543  -23.2571   20.5841 H   0  0  0  0  0  0
  -26.3190  -22.6943   21.2393 H   0  0  0  0  0  0
  -26.2973  -23.4026   19.6287 H   0  0  0  0  0  0
  -26.1423  -24.4270   21.0273 H   0  0  0  0  0  0
  -29.3949  -16.8705   22.6785 H   0  0  0  0  0  0
  -29.5885  -15.1598   22.8092 H   0  0  0  0  0  0
  -28.1457  -15.8165   22.0163 H   0  0  0  0  0  0
  -28.1103  -20.8799   21.4259 H   0  0  0  0  0  0
  -27.5224  -21.0371   19.7994 H   0  0  0  0  0  0
  -28.0638  -24.9739   18.8385 H   0  0  0  0  0  0
  -29.5863  -25.0309   19.6028 H   0  0  0  0  0  0
  -29.2778  -22.5827   19.3446 H   0  0  0  0  0  0
  1 25  1  0  0  0
  1 30  2  0  0  0
  1 85  1  0  0  0
  2  3  1  0  0  0
  2 25  1  0  0  0
  2 88  1  0  0  0
  2 89  1  0  0  0
  3  4  1  0  0  0
  3 90  1  0  0  0
  3 91  1  0  0  0
  4  5  1  0  0  0
  4 92  1  0  0  0
  4 93  1  0  0  0
  5  6  1  0  0  0
  5 26  1  0  0  0
  5 94  1  0  0  0
  6 25  1  0  0  0
  6 95  1  0  0  0
  6 96  1  0  0  0
  7  8  2  0  0  0
  7 26  1  0  0  0
  7 29  1  0  0  0
  8  9  1  0  0  0
  8 22  1  0  0  0
  9 10  1  0  0  0
  9 27  2  0  0  0
 10 11  2  0  0  0
 10 15  1  0  0  0
 11 12  1  0  0  0
 11 97  1  0  0  0
 12 13  2  0  0  0
 12 98  1  0  0  0
 13 14  1  0  0  0
 13 31  1  0  0  0
 14 15  2  0  0  0
 14 99  1  0  0  0
 15100  1  0  0  0
 16 17  2  0  0  0
 16 21  1  0  0  0
 16 31  1  0  0  0
 17 18  1  0  0  0
 17101  1  0  0  0
 18 19  2  0  0  0
 18102  1  0  0  0
 19 20  1  0  0  0
 19 24  1  0  0  0
 20 21  2  0  0  0
 20103  1  0  0  0
 21 23  1  0  0  0
 22 28  1  0  0  0
 22 32  2  0  0  0
 26 27  1  0  0  0
 28104  1  0  0  0
 28105  1  0  0  0
 29106  1  0  0  0
 29107  1  0  0  0
 33 34  1  0  0  0
 33 66  1  0  0  0
 33 70  2  0  0  0
 34 36  1  0  0  0
 34 59  1  0  0  0
 34108  1  0  0  0
 35 44  2  0  0  0
 35 45  1  0  0  0
 35 68  1  0  0  0
 36 56  1  0  0  0
 36109  1  0  0  0
 37 39  1  0  0  0
 37 47  1  0  0  0
 37 66  1  0  0  0
 37110  1  0  0  0
 38 43  2  0  0  0
 38 46  1  0  0  0
 38 47  1  0  0  0
 39 64  1  0  0  0
 39 67  2  0  0  0
 40 52  1  0  0  0
 40 53  2  0  0  0
 40 58  1  0  0  0
 41111  1  0  0  0
 41112  1  0  0  0
 41113  1  0  0  0
 41 48  1  0  0  0
 42 43  1  0  0  0
 42 66  1  0  0  0
 42114  1  0  0  0
 42115  1  0  0  0
 43 44  1  0  0  0
 44116  1  0  0  0
 45 46  2  0  0  0
 45117  1  0  0  0
 46118  1  0  0  0
 47119  1  0  0  0
 47120  1  0  0  0
 48 56  1  0  0  0
 48 65  1  0  0  0
 48121  1  0  0  0
 49 50  1  0  0  0
 49 53  1  0  0  0
 49 64  1  0  0  0
 49122  1  0  0  0
 50 51  1  0  0  0
 50123  1  0  0  0
 50124  1  0  0  0
 51 52  1  0  0  0
 51125  1  0  0  0
 51126  1  0  0  0
 52127  1  0  0  0
 52128  1  0  0  0
 53 54  1  0  0  0
 54 55  2  0  0  0
 54129  1  0  0  0
 55 57  1  0  0  0
 55130  1  0  0  0
 56 69  2  0  0  0
 57 58  2  0  0  0
 57131  1  0  0  0
 58132  1  0  0  0
 59 60  1  0  0  0
 59 61  1  0  0  0
 59 62  1  0  0  0
 60133  1  0  0  0
 60134  1  0  0  0
 60135  1  0  0  0
 61136  1  0  0  0
 61137  1  0  0  0
 61138  1  0  0  0
 62139  1  0  0  0
 62140  1  0  0  0
 62141  1  0  0  0
 63 65  1  0  0  0
 63142  1  0  0  0
 63143  1  0  0  0
 63144  1  0  0  0
 64145  1  0  0  0
 65146  1  0  0  0
 68 84  1  0  0  0
 71 72  2  0  0  0
 71 75  1  0  0  0
 71147  1  0  0  0
 72 76  1  0  0  0
 72148  1  0  0  0
 73 74  1  0  0  0
 73 75  2  0  0  0
 73149  1  0  0  0
 74 76  2  0  0  0
 74 83  1  0  0  0
 75 85  1  0  0  0
 76 87  1  0  0  0
 77 78  1  0  0  0
 77 79  1  0  0  0
 77150  1  0  0  0
 77151  1  0  0  0
 78 80  1  0  0  0
 78152  1  0  0  0
 78153  1  0  0  0
 79 86  1  0  0  0
 79154  1  0  0  0
 79155  1  0  0  0
 80 81  1  0  0  0
 80 84  1  0  0  0
 80 86  1  0  0  0
 81156  1  0  0  0
 81157  1  0  0  0
 81158  1  0  0  0
 82 85  1  0  0  0
 82159  1  0  0  0
 82160  1  0  0  0
 82161  1  0  0  0
 83162  1  0  0  0
 83163  1  0  0  0
 83 86  1  0  0  0
 84164  1  0  0  0
 84165  1  0  0  0
 86166  1  0  0  0
M  CHG  1  86   1
M  ISO  4   1 100  68 101  84 101  85 100
M  END
> <chiral flag>
0

> <version>
0

> <s_m_source_file>
/data/baiqing/PycharmProjects/Reinvent-master-3.2/result/LINK_invent/BTK/process_docking_weight1_custom_product_contain_oxygen_bond_distance_aromatic_linkinvent_7_9_3/rearranged_h_0012.sdf

> <i_m_source_file_index>
22

> <r_mmod_Potential_Energy-OPLS-2005>
363.049499511719

> <r_mmod_Stretch_Energy-OPLS-2005>
144.244232177734

> <r_mmod_Bend_Energy-OPLS-2005>
224.10758972168

> <r_mmod_Torsional_Energy-OPLS-2005>
348.196960449219

> <r_mmod_Improper_Torsional_Energy-OPLS-2005>
4.39327812194824

> <r_mmod_Van_der_Waal_Energy-OPLS-2005>
148.909805297852

> <r_mmod_Electrostatic_Energy-OPLS-2005>
-183.478759765625

> <r_mmod_Solvation_Energy-OPLS-2005>
-398.619445800781

> <b_mmod_Minimization_Converged-OPLS-2005>
0

> <r_mmod_RMS_Derivative-OPLS-2005>
7.811683177948

$$$$
22
                    3D
 Structure written by MMmdl.
153162  0  0  1  0            999 V2000
  -30.5011  -14.9501   20.4203 C   0  0  0  0  0  0
  -30.4530  -12.5884   19.4893 C   0  0  0  0  0  0
  -29.5251  -12.5277   18.2517 C   0  0  0  0  0  0
  -28.0575  -12.3110   18.6714 C   0  0  0  0  0  0
  -27.6331  -13.2385   19.8397 C   0  0  2  0  0  0
  -28.6776  -13.2460   20.9761 C   0  0  0  0  0  0
  -25.2477  -13.8187   20.5677 C   0  0  0  0  0  0
  -24.1791  -13.0427   20.9230 C   0  0  0  0  0  0
  -24.6398  -11.6911   20.8769 C   0  0  0  0  0  0
  -23.9076  -10.4287   21.0422 C   0  0  0  0  0  0
  -24.3628   -9.4201   21.9197 C   0  0  0  0  0  0
  -23.6300   -8.2239   22.0761 C   0  0  0  0  0  0
  -22.4281   -8.0283   21.3548 C   0  0  0  0  0  0
  -21.9920   -9.0255   20.4648 C   0  0  0  0  0  0
  -22.7253  -10.2132   20.3065 C   0  0  0  0  0  0
  -21.6850   -6.0743   22.5281 C   0  0  0  0  0  0
  -21.4010   -6.5646   23.8215 C   0  0  0  0  0  0
  -21.3659   -5.6795   24.9173 C   0  0  0  0  0  0
  -21.6042   -4.3058   24.7219 C   0  0  0  0  0  0
  -21.8820   -3.8151   23.4342 C   0  0  0  0  0  0
  -21.9191   -4.6971   22.3401 C   0  0  0  0  0  0
  -22.7810  -13.5208   21.1884 C   0  0  0  0  0  0
  -22.1661   -4.2158   21.0980 F   0  0  0  0  0  0
  -21.5629   -3.4540   25.7732 F   0  0  0  0  0  0
  -29.9521  -13.6702   20.3811 N   0  0  0  0  0  0
  -26.2901  -12.9402   20.3235 N   0  0  0  0  0  0
  -25.9327  -11.6542   20.5746 N   0  0  0  0  0  0
  -22.0455  -12.8198   22.0431 N   0  0  0  0  0  0
  -25.4114  -15.1914   20.4036 N   0  0  0  0  0  0
  -31.7072  -15.0665   20.1732 O   0  0  0  0  0  0
  -21.6642   -6.8885   21.4244 O   0  0  0  0  0  0
  -22.3504  -14.5521   20.6734 O   0  0  0  0  0  0
  -24.6432  -31.8435   23.1855 C   0  0  0  0  0  0
  -25.9197  -32.4696   23.8254 C   0  0  1  0  0  0
  -27.2229  -27.1404   20.1613 C   0  0  0  0  0  0
  -25.5949  -33.8501   24.2183 N   0  0  0  0  0  0
  -23.4469  -30.4603   21.5316 C   0  0  2  0  0  0
  -24.8964  -28.8774   20.1176 C   0  0  0  0  0  0
  -22.7559  -29.4548   22.4862 C   0  0  0  0  0  0
  -18.0299  -28.1400   22.8484 C   0  0  0  0  0  0
  -24.1489  -36.7251   23.2640 C   0  0  0  0  0  0
  -26.0008  -30.7199   21.3795 C   0  0  0  0  0  0
  -26.0737  -29.3282   20.7284 C   0  0  0  0  0  0
  -27.2411  -28.4780   20.7251 C   0  0  0  0  0  0
  -26.0180  -26.7780   19.5255 C   0  0  0  0  0  0
  -24.8797  -27.6154   19.5013 C   0  0  0  0  0  0
  -23.6729  -29.7806   20.1544 C   0  0  0  0  0  0
  -25.4120  -36.3033   24.0317 C   0  0  1  0  0  0
  -20.5916  -28.3722   23.1243 C   0  0  2  0  0  0
  -20.6787  -26.9423   22.5409 C   0  0  0  0  0  0
  -19.5760  -26.6387   21.5218 C   0  0  0  0  0  0
  -18.1940  -26.7944   22.1626 C   0  0  0  0  0  0
  -19.1557  -28.8878   23.2861 C   0  0  0  0  0  0
  -18.9477  -30.1476   23.8884 C   0  0  0  0  0  0
  -17.6474  -30.6600   24.0565 C   0  0  0  0  0  0
  -25.9068  -34.9408   23.5059 C   0  0  0  0  0  0
  -16.5361  -29.9097   23.6339 C   0  0  0  0  0  0
  -16.7283  -28.6512   23.0362 C   0  0  0  0  0  0
  -26.4508  -31.6559   25.0697 C   0  0  0  0  0  0
  -25.3698  -31.3813   26.1415 C   0  0  0  0  0  0
  -27.0303  -30.2927   24.6268 C   0  0  0  0  0  0
  -27.6084  -32.4275   25.7463 C   0  0  0  0  0  0
  -27.5576  -37.1780   24.8465 C   0  0  0  0  0  0
  -21.4251  -29.3050   22.3614 N   0  0  0  0  0  0
  -26.4283  -37.3748   23.9414 N   0  0  0  0  0  0
  -24.7170  -31.0295   22.0881 N   0  0  0  0  0  0
  -23.4200  -28.8098   23.3017 O   0  0  0  0  0  0
  -28.3026  -26.1907   20.1578 O   0  0  0  0  0  0
  -26.5654  -34.8910   22.4638 O   0  0  0  0  0  0
  -23.5549  -32.1295   23.7082 O   0  0  0  0  0  0
  -30.1427  -19.9397   21.3229 C   0  0  0  0  0  0
  -28.5452  -19.7942   19.6124 C   0  0  0  0  0  0
  -30.3499  -18.4954   21.2873 C   0  0  0  0  0  0
  -28.7245  -18.3453   19.5989 C   0  0  0  0  0  0
  -29.2234  -20.6946   20.5007 C   0  0  0  0  0  0
  -29.6367  -17.5955   20.4284 C   0  0  0  0  0  0
  -29.1146  -24.3827   21.7327 C   0  0  0  0  0  0
  -29.1946  -22.8331   21.9267 C   0  0  0  0  0  0
  -28.4721  -23.3054   19.7362 C   0  0  0  0  0  0
  -28.1508  -24.6972   20.5732 C   0  0  2  0  0  0
  -29.0037  -22.1726   20.6318 N   0  0  0  0  0  0
  -29.6152  -16.0593   20.5055 N   0  0  0  0  0  0
  -31.4814  -12.7721   19.1743 H   0  0  0  0  0  0
  -30.4663  -11.6321   20.0142 H   0  0  0  0  0  0
  -29.8446  -11.7305   17.5790 H   0  0  0  0  0  0
  -29.6087  -13.4565   17.6854 H   0  0  0  0  0  0
  -27.9547  -11.2689   18.9764 H   0  0  0  0  0  0
  -27.3923  -12.4445   17.8173 H   0  0  0  0  0  0
  -27.6001  -14.2428   19.4174 H   0  0  0  0  0  0
  -28.7672  -12.2606   21.4366 H   0  0  0  0  0  0
  -28.3766  -13.9301   21.7718 H   0  0  0  0  0  0
  -25.2772   -9.5677   22.4773 H   0  0  0  0  0  0
  -24.0006   -7.4627   22.7478 H   0  0  0  0  0  0
  -21.0852   -8.8776   19.8948 H   0  0  0  0  0  0
  -22.3718  -10.9675   19.6173 H   0  0  0  0  0  0
  -21.2002   -7.6155   23.9720 H   0  0  0  0  0  0
  -21.1479   -6.0525   25.9076 H   0  0  0  0  0  0
  -22.0600   -2.7613   23.2835 H   0  0  0  0  0  0
  -22.4068  -11.9851   22.4808 H   0  0  0  0  0  0
  -21.1071  -13.1225   22.2634 H   0  0  0  0  0  0
  -24.6289  -15.8305   20.4959 H   0  0  0  0  0  0
  -26.2282  -15.6289   19.9990 H   0  0  0  0  0  0
  -26.7269  -32.5304   23.0989 H   0  0  0  0  0  0
  -25.0087  -33.9612   25.0328 H   0  0  0  0  0  0
  -22.7506  -31.2867   21.3731 H   0  0  0  0  0  0
  -23.3773  -35.9559   23.3256 H   0  0  0  0  0  0
  -24.3585  -36.8916   22.2062 H   0  0  0  0  0  0
  -23.7205  -37.6422   23.6692 H   0  0  0  0  0  0
  -26.1490  -31.4697   20.6011 H   0  0  0  0  0  0
  -26.8747  -30.7783   22.0165 H   0  0  0  0  0  0
  -28.1466  -28.8255   21.2021 H   0  0  0  0  0  0
  -25.9483  -25.8090   19.0513 H   0  0  0  0  0  0
  -23.9782  -27.2644   19.0178 H   0  0  0  0  0  0
  -23.8097  -30.5496   19.3934 H   0  0  0  0  0  0
  -22.7882  -29.2198   19.8469 H   0  0  0  0  0  0
  -25.1305  -36.1857   25.0808 H   0  0  0  0  0  0
  -21.0011  -28.3307   24.1363 H   0  0  0  0  0  0
  -20.5673  -26.2333   23.3628 H   0  0  0  0  0  0
  -21.6650  -26.7427   22.1208 H   0  0  0  0  0  0
  -19.6922  -25.6294   21.1251 H   0  0  0  0  0  0
  -19.6703  -27.3199   20.6751 H   0  0  0  0  0  0
  -17.4208  -26.6684   21.4030 H   0  0  0  0  0  0
  -18.0342  -26.0094   22.9031 H   0  0  0  0  0  0
  -19.7951  -30.7300   24.2239 H   0  0  0  0  0  0
  -17.5028  -31.6280   24.5170 H   0  0  0  0  0  0
  -15.5363  -30.3000   23.7677 H   0  0  0  0  0  0
  -15.8678  -28.0830   22.7090 H   0  0  0  0  0  0
  -24.5830  -30.7208   25.7754 H   0  0  0  0  0  0
  -24.8957  -32.3036   26.4786 H   0  0  0  0  0  0
  -25.7969  -30.9002   27.0224 H   0  0  0  0  0  0
  -26.2874  -29.6698   24.1275 H   0  0  0  0  0  0
  -27.3884  -29.7193   25.4828 H   0  0  0  0  0  0
  -27.8816  -30.4116   23.9566 H   0  0  0  0  0  0
  -27.2774  -33.3700   26.1836 H   0  0  0  0  0  0
  -28.4015  -32.6591   25.0342 H   0  0  0  0  0  0
  -28.0583  -31.8481   26.5534 H   0  0  0  0  0  0
  -28.2586  -38.0084   24.7515 H   0  0  0  0  0  0
  -28.1075  -36.2612   24.6280 H   0  0  0  0  0  0
  -27.2300  -37.1416   25.8869 H   0  0  0  0  0  0
  -20.9453  -29.8756   21.6792 H   0  0  0  0  0  0
  -26.0148  -38.2812   24.1433 H   0  0  0  0  0  0
  -30.7354  -20.4797   22.0459 H   0  0  0  0  0  0
  -27.8115  -20.2111   18.9372 H   0  0  0  0  0  0
  -31.0500  -18.0717   21.9936 H   0  0  0  0  0  0
  -28.0961  -17.7890   18.9180 H   0  0  0  0  0  0
  -30.1064  -24.7516   21.4683 H   0  0  0  0  0  0
  -28.8263  -24.8931   22.6526 H   0  0  0  0  0  0
  -28.4038  -22.5049   22.6032 H   0  0  0  0  0  0
  -30.1454  -22.5639   22.3871 H   0  0  0  0  0  0
  -29.2327  -23.5138   18.9827 H   0  0  0  0  0  0
  -27.5843  -22.9767   19.1936 H   0  0  0  0  0  0
  -27.1394  -24.5886   20.9679 H   0  0  0  0  0  0
  -28.6724  -15.7064   20.5518 H   0  0  0  0  0  0
  1 25  1  0  0  0
  1 30  2  0  0  0
  1 82  1  0  0  0
  2  3  1  0  0  0
  2 25  1  0  0  0
  2 83  1  0  0  0
  2 84  1  0  0  0
  3  4  1  0  0  0
  3 85  1  0  0  0
  3 86  1  0  0  0
  4  5  1  0  0  0
  4 87  1  0  0  0
  4 88  1  0  0  0
  5  6  1  0  0  0
  5 26  1  0  0  0
  5 89  1  0  0  0
  6 25  1  0  0  0
  6 90  1  0  0  0
  6 91  1  0  0  0
  7  8  2  0  0  0
  7 26  1  0  0  0
  7 29  1  0  0  0
  8  9  1  0  0  0
  8 22  1  0  0  0
  9 10  1  0  0  0
  9 27  2  0  0  0
 10 11  2  0  0  0
 10 15  1  0  0  0
 11 12  1  0  0  0
 11 92  1  0  0  0
 12 13  2  0  0  0
 12 93  1  0  0  0
 13 14  1  0  0  0
 13 31  1  0  0  0
 14 15  2  0  0  0
 14 94  1  0  0  0
 15 95  1  0  0  0
 16 17  2  0  0  0
 16 21  1  0  0  0
 16 31  1  0  0  0
 17 18  1  0  0  0
 17 96  1  0  0  0
 18 19  2  0  0  0
 18 97  1  0  0  0
 19 20  1  0  0  0
 19 24  1  0  0  0
 20 21  2  0  0  0
 20 98  1  0  0  0
 21 23  1  0  0  0
 22 28  1  0  0  0
 22 32  2  0  0  0
 26 27  1  0  0  0
 28 99  1  0  0  0
 28100  1  0  0  0
 29101  1  0  0  0
 29102  1  0  0  0
 33 34  1  0  0  0
 33 66  1  0  0  0
 33 70  2  0  0  0
 34 36  1  0  0  0
 34 59  1  0  0  0
 34103  1  0  0  0
 35 44  2  0  0  0
 35 45  1  0  0  0
 35 68  1  0  0  0
 36 56  1  0  0  0
 36104  1  0  0  0
 37 39  1  0  0  0
 37 47  1  0  0  0
 37 66  1  0  0  0
 37105  1  0  0  0
 38 43  2  0  0  0
 38 46  1  0  0  0
 38 47  1  0  0  0
 39 64  1  0  0  0
 39 67  2  0  0  0
 40 52  1  0  0  0
 40 53  2  0  0  0
 40 58  1  0  0  0
 41106  1  0  0  0
 41107  1  0  0  0
 41108  1  0  0  0
 41 48  1  0  0  0
 42 43  1  0  0  0
 42 66  1  0  0  0
 42109  1  0  0  0
 42110  1  0  0  0
 43 44  1  0  0  0
 44111  1  0  0  0
 45 46  2  0  0  0
 45112  1  0  0  0
 46113  1  0  0  0
 47114  1  0  0  0
 47115  1  0  0  0
 48 56  1  0  0  0
 48 65  1  0  0  0
 48116  1  0  0  0
 49 50  1  0  0  0
 49 53  1  0  0  0
 49 64  1  0  0  0
 49117  1  0  0  0
 50 51  1  0  0  0
 50118  1  0  0  0
 50119  1  0  0  0
 51 52  1  0  0  0
 51120  1  0  0  0
 51121  1  0  0  0
 52122  1  0  0  0
 52123  1  0  0  0
 53 54  1  0  0  0
 54 55  2  0  0  0
 54124  1  0  0  0
 55 57  1  0  0  0
 55125  1  0  0  0
 56 69  2  0  0  0
 57 58  2  0  0  0
 57126  1  0  0  0
 58127  1  0  0  0
 59 60  1  0  0  0
 59 61  1  0  0  0
 59 62  1  0  0  0
 60128  1  0  0  0
 60129  1  0  0  0
 60130  1  0  0  0
 61131  1  0  0  0
 61132  1  0  0  0
 61133  1  0  0  0
 62134  1  0  0  0
 62135  1  0  0  0
 62136  1  0  0  0
 63 65  1  0  0  0
 63137  1  0  0  0
 63138  1  0  0  0
 63139  1  0  0  0
 64140  1  0  0  0
 65141  1  0  0  0
 68 80  1  0  0  0
 71 73  2  0  0  0
 71 75  1  0  0  0
 71142  1  0  0  0
 72 74  1  0  0  0
 72 75  2  0  0  0
 72143  1  0  0  0
 73 76  1  0  0  0
 73144  1  0  0  0
 74 76  2  0  0  0
 74145  1  0  0  0
 75 81  1  0  0  0
 76 82  1  0  0  0
 77 78  1  0  0  0
 77 80  1  0  0  0
 77146  1  0  0  0
 77147  1  0  0  0
 78 81  1  0  0  0
 78148  1  0  0  0
 78149  1  0  0  0
 79 80  1  0  0  0
 79 81  1  0  0  0
 79150  1  0  0  0
 79151  1  0  0  0
 80152  1  0  0  0
 82153  1  0  0  0
M  ISO  4   1 100  68 101  80 101  82 100
M  END
> <chiral flag>
0

> <version>
0

> <s_m_source_file>
/data/baiqing/PycharmProjects/Reinvent-master-3.2/result/LINK_invent/BTK/process_docking_weight1_custom_product_contain_oxygen_bond_distance_aromatic_linkinvent_7_9_3/rearranged_h_0012.sdf

> <i_m_source_file_index>
23

> <r_mmod_Potential_Energy-OPLS-2005>
525.946105957031

> <r_mmod_Stretch_Energy-OPLS-2005>
213.858779907227

> <r_mmod_Bend_Energy-OPLS-2005>
307.925323486328

> <r_mmod_Torsional_Energy-OPLS-2005>
299.310577392578

> <r_mmod_Improper_Torsional_Energy-OPLS-2005>
7.30253410339355

> <r_mmod_Van_der_Waal_Energy-OPLS-2005>
124.300971984863

> <r_mmod_Electrostatic_Energy-OPLS-2005>
-383.096618652344

> <r_mmod_Solvation_Energy-OPLS-2005>
-232.282287597656

> <b_mmod_Minimization_Converged-OPLS-2005>
0

> <r_mmod_RMS_Derivative-OPLS-2005>
0.949168264865875

$$$$
23
                    3D
 Structure written by MMmdl.
149157  0  0  1  0            999 V2000
  -30.5268  -14.9002   20.4346 C   0  0  0  0  0  0
  -30.4537  -12.5539   19.4879 C   0  0  0  0  0  0
  -29.5240  -12.5325   18.2507 C   0  0  0  0  0  0
  -28.0532  -12.3281   18.6658 C   0  0  0  0  0  0
  -27.6386  -13.2408   19.8500 C   0  0  2  0  0  0
  -28.6865  -13.2135   20.9848 C   0  0  0  0  0  0
  -25.2451  -13.8153   20.5684 C   0  0  0  0  0  0
  -24.1765  -13.0383   20.9178 C   0  0  0  0  0  0
  -24.6400  -11.6883   20.8733 C   0  0  0  0  0  0
  -23.9083  -10.4265   21.0396 C   0  0  0  0  0  0
  -24.3627   -9.4187   21.9182 C   0  0  0  0  0  0
  -23.6292   -8.2231   22.0757 C   0  0  0  0  0  0
  -22.4273   -8.0274   21.3547 C   0  0  0  0  0  0
  -21.9913   -9.0246   20.4647 C   0  0  0  0  0  0
  -22.7251  -10.2116   20.3048 C   0  0  0  0  0  0
  -21.6850   -6.0732   22.5281 C   0  0  0  0  0  0
  -21.4012   -6.5636   23.8214 C   0  0  0  0  0  0
  -21.3660   -5.6789   24.9176 C   0  0  0  0  0  0
  -21.6043   -4.3052   24.7226 C   0  0  0  0  0  0
  -21.8819   -3.8145   23.4347 C   0  0  0  0  0  0
  -21.9192   -4.6961   22.3404 C   0  0  0  0  0  0
  -22.7789  -13.5169   21.1854 C   0  0  0  0  0  0
  -22.1661   -4.2147   21.0981 F   0  0  0  0  0  0
  -21.5629   -3.4537   25.7739 F   0  0  0  0  0  0
  -29.9733  -13.6247   20.4012 N   0  0  0  0  0  0
  -26.2930  -12.9412   20.3301 N   0  0  0  0  0  0
  -25.9345  -11.6539   20.5759 N   0  0  0  0  0  0
  -22.0451  -12.8170   22.0431 N   0  0  0  0  0  0
  -25.3973  -15.1876   20.4153 N   0  0  0  0  0  0
  -31.7150  -15.0360   20.1227 O   0  0  0  0  0  0
  -21.6634   -6.8875   21.4243 O   0  0  0  0  0  0
  -22.3465  -14.5481   20.6716 O   0  0  0  0  0  0
  -24.6417  -31.8460   23.1898 C   0  0  0  0  0  0
  -25.9197  -32.4706   23.8284 C   0  0  1  0  0  0
  -27.2240  -27.1612   20.1444 C   0  0  0  0  0  0
  -25.5951  -33.8511   24.2202 N   0  0  0  0  0  0
  -23.4443  -30.4661   21.5351 C   0  0  2  0  0  0
  -24.8944  -28.8972   20.1110 C   0  0  0  0  0  0
  -22.7558  -29.4558   22.4867 C   0  0  0  0  0  0
  -18.0304  -28.1393   22.8479 C   0  0  0  0  0  0
  -24.1491  -36.7261   23.2642 C   0  0  0  0  0  0
  -25.9990  -30.7280   21.3849 C   0  0  0  0  0  0
  -26.0717  -29.3416   20.7261 C   0  0  0  0  0  0
  -27.2376  -28.4903   20.7249 C   0  0  0  0  0  0
  -26.0175  -26.8124   19.4953 C   0  0  0  0  0  0
  -24.8790  -27.6448   19.4811 C   0  0  0  0  0  0
  -23.6697  -29.7961   20.1543 C   0  0  0  0  0  0
  -25.4122  -36.3039   24.0318 C   0  0  1  0  0  0
  -20.5915  -28.3718   23.1239 C   0  0  2  0  0  0
  -20.6787  -26.9423   22.5403 C   0  0  0  0  0  0
  -19.5761  -26.6381   21.5211 C   0  0  0  0  0  0
  -18.1943  -26.7932   22.1625 C   0  0  0  0  0  0
  -19.1560  -28.8873   23.2852 C   0  0  0  0  0  0
  -18.9476  -30.1469   23.8878 C   0  0  0  0  0  0
  -17.6473  -30.6590   24.0559 C   0  0  0  0  0  0
  -25.9070  -34.9413   23.5067 C   0  0  0  0  0  0
  -16.5365  -29.9083   23.6334 C   0  0  0  0  0  0
  -16.7289  -28.6501   23.0357 C   0  0  0  0  0  0
  -26.4524  -31.6566   25.0717 C   0  0  0  0  0  0
  -25.3713  -31.3748   26.1414 C   0  0  0  0  0  0
  -27.0389  -30.2966   24.6282 C   0  0  0  0  0  0
  -27.6055  -32.4329   25.7503 C   0  0  0  0  0  0
  -27.5575  -37.1788   24.8466 C   0  0  0  0  0  0
  -21.4253  -29.3049   22.3614 N   0  0  0  0  0  0
  -26.4288  -37.3749   23.9407 N   0  0  0  0  0  0
  -24.7147  -31.0338   22.0921 N   0  0  0  0  0  0
  -23.4209  -28.8103   23.3010 O   0  0  0  0  0  0
  -28.2885  -26.1936   20.2089 O   0  0  0  0  0  0
  -26.5654  -34.8907   22.4644 O   0  0  0  0  0  0
  -23.5540  -32.1326   23.7130 O   0  0  0  0  0  0
  -30.2718  -19.9635   20.2876 C   0  0  0  0  0  0
  -30.5709  -18.5270   20.3538 C   0  0  0  0  0  0
  -27.9792  -19.4844   20.5411 C   0  0  0  0  0  0
  -28.9448  -20.5249   20.3726 C   0  0  0  0  0  0
  -29.5701  -17.5023   20.5257 C   0  0  0  0  0  0
  -28.2682  -18.0752   20.6197 C   0  0  0  0  0  0
  -29.0301  -23.3681   20.3266 C   0  0  0  0  0  0
  -28.0005  -24.6762   20.0903 C   0  0  0  0  0  0
  -29.6535  -15.9832   20.6551 N   0  0  0  0  0  0
  -28.4580  -21.9272   20.2844 N   0  0  0  0  0  0
  -27.2315  -17.2229   20.7918 F   0  0  0  0  0  0
  -31.4861  -12.7220   19.1770 H   0  0  0  0  0  0
  -30.4481  -11.5874   19.9944 H   0  0  0  0  0  0
  -29.8309  -11.7460   17.5599 H   0  0  0  0  0  0
  -29.6215  -13.4726   17.7054 H   0  0  0  0  0  0
  -27.9347  -11.2819   18.9500 H   0  0  0  0  0  0
  -27.3925  -12.4880   17.8129 H   0  0  0  0  0  0
  -27.6130  -14.2545   19.4491 H   0  0  0  0  0  0
  -28.7594  -12.2172   21.4233 H   0  0  0  0  0  0
  -28.3947  -13.8813   21.7970 H   0  0  0  0  0  0
  -25.2770   -9.5663   22.4758 H   0  0  0  0  0  0
  -23.9996   -7.4622   22.7478 H   0  0  0  0  0  0
  -21.0843   -8.8768   19.8954 H   0  0  0  0  0  0
  -22.3713  -10.9655   19.6156 H   0  0  0  0  0  0
  -21.2005   -7.6144   23.9716 H   0  0  0  0  0  0
  -21.1482   -6.0520   25.9079 H   0  0  0  0  0  0
  -22.0599   -2.7607   23.2847 H   0  0  0  0  0  0
  -22.4075  -11.9835   22.4817 H   0  0  0  0  0  0
  -21.1075  -13.1202   22.2657 H   0  0  0  0  0  0
  -24.6241  -15.8232   20.5724 H   0  0  0  0  0  0
  -26.2642  -15.6811   20.2333 H   0  0  0  0  0  0
  -26.7264  -32.5322   23.1017 H   0  0  0  0  0  0
  -25.0077  -33.9628   25.0335 H   0  0  0  0  0  0
  -22.7460  -31.2915   21.3817 H   0  0  0  0  0  0
  -23.3755  -35.9591   23.3297 H   0  0  0  0  0  0
  -24.3578  -36.8899   22.2059 H   0  0  0  0  0  0
  -23.7245  -37.6456   23.6682 H   0  0  0  0  0  0
  -26.1516  -31.4838   20.6133 H   0  0  0  0  0  0
  -26.8706  -30.7780   22.0259 H   0  0  0  0  0  0
  -28.1351  -28.8273   21.2243 H   0  0  0  0  0  0
  -25.9160  -25.8569   19.0048 H   0  0  0  0  0  0
  -23.9803  -27.2988   18.9892 H   0  0  0  0  0  0
  -23.8039  -30.5708   19.3984 H   0  0  0  0  0  0
  -22.7854  -29.2362   19.8446 H   0  0  0  0  0  0
  -25.1309  -36.1871   25.0810 H   0  0  0  0  0  0
  -21.0009  -28.3307   24.1359 H   0  0  0  0  0  0
  -20.5679  -26.2332   23.3621 H   0  0  0  0  0  0
  -21.6654  -26.7428   22.1203 H   0  0  0  0  0  0
  -19.6921  -25.6286   21.1255 H   0  0  0  0  0  0
  -19.6695  -27.3178   20.6730 H   0  0  0  0  0  0
  -17.4210  -26.6675   21.4031 H   0  0  0  0  0  0
  -18.0345  -26.0078   22.9026 H   0  0  0  0  0  0
  -19.7952  -30.7290   24.2241 H   0  0  0  0  0  0
  -17.5025  -31.6268   24.5164 H   0  0  0  0  0  0
  -15.5364  -30.2978   23.7665 H   0  0  0  0  0  0
  -15.8690  -28.0810   22.7084 H   0  0  0  0  0  0
  -24.5901  -30.7086   25.7735 H   0  0  0  0  0  0
  -24.8892  -32.2926   26.4788 H   0  0  0  0  0  0
  -25.8001  -30.8957   27.0225 H   0  0  0  0  0  0
  -26.3003  -29.6691   24.1282 H   0  0  0  0  0  0
  -27.4003  -29.7261   25.4849 H   0  0  0  0  0  0
  -27.8909  -30.4209   23.9595 H   0  0  0  0  0  0
  -27.2648  -33.3645   26.2032 H   0  0  0  0  0  0
  -28.3893  -32.6863   25.0353 H   0  0  0  0  0  0
  -28.0693  -31.8486   26.5461 H   0  0  0  0  0  0
  -28.2588  -38.0088   24.7507 H   0  0  0  0  0  0
  -28.1075  -36.2617   24.6300 H   0  0  0  0  0  0
  -27.2293  -37.1445   25.8870 H   0  0  0  0  0  0
  -20.9458  -29.8766   21.6799 H   0  0  0  0  0  0
  -26.0156  -38.2819   24.1403 H   0  0  0  0  0  0
  -31.1021  -20.6423   20.1539 H   0  0  0  0  0  0
  -31.6040  -18.2208   20.2760 H   0  0  0  0  0  0
  -26.9386  -19.7615   20.6198 H   0  0  0  0  0  0
  -29.5089  -23.4913   21.2988 H   0  0  0  0  0  0
  -29.8371  -23.4288   19.5954 H   0  0  0  0  0  0
  -27.1514  -24.5025   20.7527 H   0  0  0  0  0  0
  -27.6127  -24.5330   19.0822 H   0  0  0  0  0  0
  -28.7423  -15.6155   20.8847 H   0  0  0  0  0  0
  -27.4410  -21.9665   20.2841 H   0  0  0  0  0  0
  1 25  1  0  0  0
  1 30  2  0  0  0
  1 79  1  0  0  0
  2  3  1  0  0  0
  2 25  1  0  0  0
  2 82  1  0  0  0
  2 83  1  0  0  0
  3  4  1  0  0  0
  3 84  1  0  0  0
  3 85  1  0  0  0
  4  5  1  0  0  0
  4 86  1  0  0  0
  4 87  1  0  0  0
  5  6  1  0  0  0
  5 26  1  0  0  0
  5 88  1  0  0  0
  6 25  1  0  0  0
  6 89  1  0  0  0
  6 90  1  0  0  0
  7  8  2  0  0  0
  7 26  1  0  0  0
  7 29  1  0  0  0
  8  9  1  0  0  0
  8 22  1  0  0  0
  9 10  1  0  0  0
  9 27  2  0  0  0
 10 11  2  0  0  0
 10 15  1  0  0  0
 11 12  1  0  0  0
 11 91  1  0  0  0
 12 13  2  0  0  0
 12 92  1  0  0  0
 13 14  1  0  0  0
 13 31  1  0  0  0
 14 15  2  0  0  0
 14 93  1  0  0  0
 15 94  1  0  0  0
 16 17  2  0  0  0
 16 21  1  0  0  0
 16 31  1  0  0  0
 17 18  1  0  0  0
 17 95  1  0  0  0
 18 19  2  0  0  0
 18 96  1  0  0  0
 19 20  1  0  0  0
 19 24  1  0  0  0
 20 21  2  0  0  0
 20 97  1  0  0  0
 21 23  1  0  0  0
 22 28  1  0  0  0
 22 32  2  0  0  0
 26 27  1  0  0  0
 28 98  1  0  0  0
 28 99  1  0  0  0
 29100  1  0  0  0
 29101  1  0  0  0
 33 34  1  0  0  0
 33 66  1  0  0  0
 33 70  2  0  0  0
 34 36  1  0  0  0
 34 59  1  0  0  0
 34102  1  0  0  0
 35 44  2  0  0  0
 35 45  1  0  0  0
 35 68  1  0  0  0
 36 56  1  0  0  0
 36103  1  0  0  0
 37 39  1  0  0  0
 37 47  1  0  0  0
 37 66  1  0  0  0
 37104  1  0  0  0
 38 43  2  0  0  0
 38 46  1  0  0  0
 38 47  1  0  0  0
 39 64  1  0  0  0
 39 67  2  0  0  0
 40 52  1  0  0  0
 40 53  2  0  0  0
 40 58  1  0  0  0
 41105  1  0  0  0
 41106  1  0  0  0
 41107  1  0  0  0
 41 48  1  0  0  0
 42 43  1  0  0  0
 42 66  1  0  0  0
 42108  1  0  0  0
 42109  1  0  0  0
 43 44  1  0  0  0
 44110  1  0  0  0
 45 46  2  0  0  0
 45111  1  0  0  0
 46112  1  0  0  0
 47113  1  0  0  0
 47114  1  0  0  0
 48 56  1  0  0  0
 48 65  1  0  0  0
 48115  1  0  0  0
 49 50  1  0  0  0
 49 53  1  0  0  0
 49 64  1  0  0  0
 49116  1  0  0  0
 50 51  1  0  0  0
 50117  1  0  0  0
 50118  1  0  0  0
 51 52  1  0  0  0
 51119  1  0  0  0
 51120  1  0  0  0
 52121  1  0  0  0
 52122  1  0  0  0
 53 54  1  0  0  0
 54 55  2  0  0  0
 54123  1  0  0  0
 55 57  1  0  0  0
 55124  1  0  0  0
 56 69  2  0  0  0
 57 58  2  0  0  0
 57125  1  0  0  0
 58126  1  0  0  0
 59 60  1  0  0  0
 59 61  1  0  0  0
 59 62  1  0  0  0
 60127  1  0  0  0
 60128  1  0  0  0
 60129  1  0  0  0
 61130  1  0  0  0
 61131  1  0  0  0
 61132  1  0  0  0
 62133  1  0  0  0
 62134  1  0  0  0
 62135  1  0  0  0
 63 65  1  0  0  0
 63136  1  0  0  0
 63137  1  0  0  0
 63138  1  0  0  0
 64139  1  0  0  0
 65140  1  0  0  0
 68 78  1  0  0  0
 71 72  2  0  0  0
 71 74  1  0  0  0
 71141  1  0  0  0
 72 75  1  0  0  0
 72142  1  0  0  0
 73 74  2  0  0  0
 73 76  1  0  0  0
 73143  1  0  0  0
 74 80  1  0  0  0
 75 76  2  0  0  0
 75 79  1  0  0  0
 76 81  1  0  0  0
 77 78  1  0  0  0
 77 80  1  0  0  0
 77144  1  0  0  0
 77145  1  0  0  0
 78146  1  0  0  0
 78147  1  0  0  0
 79148  1  0  0  0
 80149  1  0  0  0
M  ISO  4   1 100  68 101  78 101  79 100
M  END
> <chiral flag>
0

> <version>
0

> <s_m_source_file>
/data/baiqing/PycharmProjects/Reinvent-master-3.2/result/LINK_invent/BTK/process_docking_weight1_custom_product_contain_oxygen_bond_distance_aromatic_linkinvent_7_9_3/rearranged_h_0012.sdf

> <i_m_source_file_index>
24

> <r_mmod_Potential_Energy-OPLS-2005>
383.99658203125

> <r_mmod_Stretch_Energy-OPLS-2005>
201.653121948242

> <r_mmod_Bend_Energy-OPLS-2005>
292.421051025391

> <r_mmod_Torsional_Energy-OPLS-2005>
202.540115356445

> <r_mmod_Improper_Torsional_Energy-OPLS-2005>
4.12791681289673

> <r_mmod_Van_der_Waal_Energy-OPLS-2005>
134.1064453125

> <r_mmod_Electrostatic_Energy-OPLS-2005>
-401.087951660156

> <r_mmod_Solvation_Energy-OPLS-2005>
-214.647521972656

> <b_mmod_Minimization_Converged-OPLS-2005>
0

> <r_mmod_RMS_Derivative-OPLS-2005>
0.230514645576477

$$$$
24
                    3D
 Structure written by MMmdl.
155164  0  0  1  0            999 V2000
  -30.7192  -14.4738   20.5775 C   0  0  0  0  0  0
  -30.4171  -12.3078   19.4303 C   0  0  0  0  0  0
  -29.4939  -12.5009   18.2101 C   0  0  0  0  0  0
  -28.0159  -12.3629   18.6222 C   0  0  0  0  0  0
  -27.6607  -13.2104   19.8736 C   0  0  2  0  0  0
  -28.7010  -13.0061   20.9986 C   0  0  0  0  0  0
  -25.2582  -13.8169   20.5678 C   0  0  0  0  0  0
  -24.1839  -13.0443   20.9183 C   0  0  0  0  0  0
  -24.6393  -11.6909   20.8736 C   0  0  0  0  0  0
  -23.9058  -10.4294   21.0409 C   0  0  0  0  0  0
  -24.3613   -9.4209   21.9187 C   0  0  0  0  0  0
  -23.6293   -8.2241   22.0750 C   0  0  0  0  0  0
  -22.4274   -8.0280   21.3541 C   0  0  0  0  0  0
  -21.9909   -9.0255   20.4643 C   0  0  0  0  0  0
  -22.7234  -10.2136   20.3056 C   0  0  0  0  0  0
  -21.6855   -6.0733   22.5281 C   0  0  0  0  0  0
  -21.4011   -6.5635   23.8213 C   0  0  0  0  0  0
  -21.3659   -5.6790   24.9176 C   0  0  0  0  0  0
  -21.6046   -4.3054   24.7227 C   0  0  0  0  0  0
  -21.8820   -3.8144   23.4349 C   0  0  0  0  0  0
  -21.9193   -4.6961   22.3404 C   0  0  0  0  0  0
  -22.7863  -13.5243   21.1855 C   0  0  0  0  0  0
  -22.1664   -4.2147   21.0984 F   0  0  0  0  0  0
  -21.5630   -3.4536   25.7738 F   0  0  0  0  0  0
  -30.0337  -13.3030   20.4470 N   0  0  0  0  0  0
  -26.3018  -12.9348   20.3359 N   0  0  0  0  0  0
  -25.9321  -11.6504   20.5769 N   0  0  0  0  0  0
  -22.0499  -12.8231   22.0406 N   0  0  0  0  0  0
  -25.4304  -15.1886   20.4069 N   0  0  0  0  0  0
  -31.8371  -14.6250   20.0802 O   0  0  0  0  0  0
  -21.6639   -6.8876   21.4241 O   0  0  0  0  0  0
  -22.3553  -14.5550   20.6706 O   0  0  0  0  0  0
  -24.6127  -31.8687   23.2105 C   0  0  0  0  0  0
  -25.9019  -32.4830   23.8410 C   0  0  1  0  0  0
  -27.2369  -27.4422   20.1012 C   0  0  0  0  0  0
  -25.5878  -33.8631   24.2335 N   0  0  0  0  0  0
  -23.4031  -30.4906   21.5489 C   0  0  2  0  0  0
  -24.8542  -28.9578   20.1130 C   0  0  0  0  0  0
  -22.7410  -29.4651   22.4970 C   0  0  0  0  0  0
  -18.0273  -28.1394   22.8504 C   0  0  0  0  0  0
  -24.1476  -36.7313   23.2639 C   0  0  0  0  0  0
  -25.9311  -30.8351   21.3650 C   0  0  0  0  0  0
  -26.0116  -29.4682   20.7178 C   0  0  0  0  0  0
  -27.2072  -28.7143   20.7192 C   0  0  0  0  0  0
  -26.0723  -26.9484   19.4833 C   0  0  0  0  0  0
  -24.8786  -27.6954   19.4938 C   0  0  0  0  0  0
  -23.6141  -29.8220   20.1632 C   0  0  0  0  0  0
  -25.4100  -36.3117   24.0339 C   0  0  1  0  0  0
  -20.5868  -28.3670   23.1319 C   0  0  2  0  0  0
  -20.6756  -26.9403   22.5423 C   0  0  0  0  0  0
  -19.5728  -26.6397   21.5220 C   0  0  0  0  0  0
  -18.1908  -26.7943   22.1635 C   0  0  0  0  0  0
  -19.1526  -28.8849   23.2913 C   0  0  0  0  0  0
  -18.9455  -30.1463   23.8914 C   0  0  0  0  0  0
  -17.6459  -30.6602   24.0572 C   0  0  0  0  0  0
  -25.9034  -34.9485   23.5143 C   0  0  0  0  0  0
  -16.5348  -29.9107   23.6336 C   0  0  0  0  0  0
  -16.7263  -28.6523   23.0357 C   0  0  0  0  0  0
  -26.4453  -31.6603   25.0732 C   0  0  0  0  0  0
  -25.3721  -31.3724   26.1484 C   0  0  0  0  0  0
  -27.0274  -30.3043   24.6096 C   0  0  0  0  0  0
  -27.6041  -32.4317   25.7484 C   0  0  0  0  0  0
  -27.5577  -37.1809   24.8468 C   0  0  0  0  0  0
  -21.4140  -29.3034   22.3720 N   0  0  0  0  0  0
  -26.4288  -37.3795   23.9412 N   0  0  0  0  0  0
  -24.6668  -31.0794   22.1001 N   0  0  0  0  0  0
  -23.4178  -28.8191   23.3014 O   0  0  0  0  0  0
  -28.3582  -26.6463   20.0999 O   0  0  0  0  0  0
  -26.5594  -34.8933   22.4701 O   0  0  0  0  0  0
  -23.5318  -32.1440   23.7494 O   0  0  0  0  0  0
  -29.0738  -23.8588   22.5167 C   0  0  0  0  0  0
  -29.9564  -24.1664   20.2745 C   0  0  0  0  0  0
  -29.3673  -17.7988   21.6655 C   0  0  0  0  0  0
  -29.6896  -22.5900   22.5917 C   0  0  0  0  0  0
  -30.5716  -22.8937   20.3488 C   0  0  0  0  0  0
  -29.6243  -19.1890   21.7815 C   0  0  0  0  0  0
  -31.6535  -17.4295   20.9541 C   0  0  0  0  0  0
  -29.2240  -24.6738   21.3707 C   0  0  0  0  0  0
  -30.3755  -16.8915   21.2519 C   0  0  0  0  0  0
  -30.4661  -22.1082   21.5180 C   0  0  0  0  0  0
  -30.9066  -19.7071   21.4885 C   0  0  0  0  0  0
  -31.9098  -18.8104   21.0674 C   0  0  0  0  0  0
  -28.6732  -26.1043   21.3883 C   0  0  0  0  0  0
  -30.0527  -15.4876   21.1785 N   0  0  0  0  0  0
  -31.2906  -21.0184   21.6912 O   0  0  0  0  0  0
  -33.1532  -19.2773   20.7960 F   0  0  0  0  0  0
  -31.4629  -12.3918   19.1291 H   0  0  0  0  0  0
  -30.3085  -11.3001   19.8346 H   0  0  0  0  0  0
  -29.7343  -11.7698   17.4370 H   0  0  0  0  0  0
  -29.6646  -13.4831   17.7658 H   0  0  0  0  0  0
  -27.8289  -11.3080   18.8271 H   0  0  0  0  0  0
  -27.3646  -12.6281   17.7887 H   0  0  0  0  0  0
  -27.7018  -14.2563   19.5684 H   0  0  0  0  0  0
  -28.6748  -11.9747   21.3534 H   0  0  0  0  0  0
  -28.4591  -13.6181   21.8682 H   0  0  0  0  0  0
  -25.2758   -9.5684   22.4763 H   0  0  0  0  0  0
  -24.0005   -7.4628   22.7462 H   0  0  0  0  0  0
  -21.0842   -8.8771   19.8951 H   0  0  0  0  0  0
  -22.3693  -10.9674   19.6162 H   0  0  0  0  0  0
  -21.1998   -7.6144   23.9714 H   0  0  0  0  0  0
  -21.1485   -6.0521   25.9080 H   0  0  0  0  0  0
  -22.0598   -2.7606   23.2849 H   0  0  0  0  0  0
  -22.4109  -11.9890   22.4793 H   0  0  0  0  0  0
  -21.1119  -13.1261   22.2616 H   0  0  0  0  0  0
  -24.6602  -15.8421   20.4992 H   0  0  0  0  0  0
  -26.2811  -15.6235   20.0721 H   0  0  0  0  0  0
  -26.7092  -32.5544   23.1184 H   0  0  0  0  0  0
  -25.0022  -33.9800   25.0473 H   0  0  0  0  0  0
  -22.6915  -31.3070   21.4085 H   0  0  0  0  0  0
  -23.3744  -35.9640   23.3317 H   0  0  0  0  0  0
  -24.3575  -36.8911   22.2052 H   0  0  0  0  0  0
  -23.7226  -37.6522   23.6643 H   0  0  0  0  0  0
  -26.0418  -31.5969   20.5922 H   0  0  0  0  0  0
  -26.8200  -30.8941   21.9811 H   0  0  0  0  0  0
  -28.0987  -29.1014   21.1934 H   0  0  0  0  0  0
  -26.0884  -25.9755   19.0109 H   0  0  0  0  0  0
  -23.9891  -27.2975   19.0241 H   0  0  0  0  0  0
  -23.7196  -30.5970   19.4031 H   0  0  0  0  0  0
  -22.7394  -29.2387   19.8690 H   0  0  0  0  0  0
  -25.1278  -36.1986   25.0829 H   0  0  0  0  0  0
  -20.9976  -28.3241   24.1433 H   0  0  0  0  0  0
  -20.5658  -26.2277   23.3615 H   0  0  0  0  0  0
  -21.6623  -26.7436   22.1206 H   0  0  0  0  0  0
  -19.6875  -25.6310   21.1240 H   0  0  0  0  0  0
  -19.6671  -27.3221   20.6760 H   0  0  0  0  0  0
  -17.4178  -26.6714   21.4032 H   0  0  0  0  0  0
  -18.0299  -26.0094   22.9038 H   0  0  0  0  0  0
  -19.7932  -30.7284   24.2279 H   0  0  0  0  0  0
  -17.5016  -31.6282   24.5183 H   0  0  0  0  0  0
  -15.5352  -30.3015   23.7659 H   0  0  0  0  0  0
  -15.8664  -28.0856   22.7053 H   0  0  0  0  0  0
  -24.5872  -30.7095   25.7824 H   0  0  0  0  0  0
  -24.8934  -32.2886   26.4949 H   0  0  0  0  0  0
  -25.8072  -30.8876   27.0227 H   0  0  0  0  0  0
  -26.2811  -29.6826   24.1134 H   0  0  0  0  0  0
  -27.4031  -29.7262   25.4547 H   0  0  0  0  0  0
  -27.8654  -30.4374   23.9250 H   0  0  0  0  0  0
  -27.2679  -33.3619   26.2081 H   0  0  0  0  0  0
  -28.3841  -32.6874   25.0298 H   0  0  0  0  0  0
  -28.0717  -31.8421   26.5384 H   0  0  0  0  0  0
  -28.2609  -38.0095   24.7512 H   0  0  0  0  0  0
  -28.1063  -36.2631   24.6297 H   0  0  0  0  0  0
  -27.2301  -37.1461   25.8874 H   0  0  0  0  0  0
  -20.9301  -29.8772   21.6956 H   0  0  0  0  0  0
  -26.0185  -38.2870   24.1427 H   0  0  0  0  0  0
  -28.5258  -24.2295   23.3716 H   0  0  0  0  0  0
  -30.0942  -24.7746   19.3916 H   0  0  0  0  0  0
  -28.3800  -17.4345   21.9124 H   0  0  0  0  0  0
  -29.6231  -22.0175   23.5060 H   0  0  0  0  0  0
  -31.1898  -22.5547   19.5298 H   0  0  0  0  0  0
  -28.8401  -19.8463   22.1272 H   0  0  0  0  0  0
  -32.4820  -16.8108   20.6528 H   0  0  0  0  0  0
  -29.4192  -26.7482   21.8555 H   0  0  0  0  0  0
  -27.8004  -26.1192   22.0452 H   0  0  0  0  0  0
  -29.1424  -15.2272   21.5273 H   0  0  0  0  0  0
  1 25  1  0  0  0
  1 30  2  0  0  0
  1 84  1  0  0  0
  2  3  1  0  0  0
  2 25  1  0  0  0
  2 87  1  0  0  0
  2 88  1  0  0  0
  3  4  1  0  0  0
  3 89  1  0  0  0
  3 90  1  0  0  0
  4  5  1  0  0  0
  4 91  1  0  0  0
  4 92  1  0  0  0
  5  6  1  0  0  0
  5 26  1  0  0  0
  5 93  1  0  0  0
  6 25  1  0  0  0
  6 94  1  0  0  0
  6 95  1  0  0  0
  7  8  2  0  0  0
  7 26  1  0  0  0
  7 29  1  0  0  0
  8  9  1  0  0  0
  8 22  1  0  0  0
  9 10  1  0  0  0
  9 27  2  0  0  0
 10 11  2  0  0  0
 10 15  1  0  0  0
 11 12  1  0  0  0
 11 96  1  0  0  0
 12 13  2  0  0  0
 12 97  1  0  0  0
 13 14  1  0  0  0
 13 31  1  0  0  0
 14 15  2  0  0  0
 14 98  1  0  0  0
 15 99  1  0  0  0
 16 17  2  0  0  0
 16 21  1  0  0  0
 16 31  1  0  0  0
 17 18  1  0  0  0
 17100  1  0  0  0
 18 19  2  0  0  0
 18101  1  0  0  0
 19 20  1  0  0  0
 19 24  1  0  0  0
 20 21  2  0  0  0
 20102  1  0  0  0
 21 23  1  0  0  0
 22 28  1  0  0  0
 22 32  2  0  0  0
 26 27  1  0  0  0
 28103  1  0  0  0
 28104  1  0  0  0
 29105  1  0  0  0
 29106  1  0  0  0
 33 34  1  0  0  0
 33 66  1  0  0  0
 33 70  2  0  0  0
 34 36  1  0  0  0
 34 59  1  0  0  0
 34107  1  0  0  0
 35 44  2  0  0  0
 35 45  1  0  0  0
 35 68  1  0  0  0
 36 56  1  0  0  0
 36108  1  0  0  0
 37 39  1  0  0  0
 37 47  1  0  0  0
 37 66  1  0  0  0
 37109  1  0  0  0
 38 43  2  0  0  0
 38 46  1  0  0  0
 38 47  1  0  0  0
 39 64  1  0  0  0
 39 67  2  0  0  0
 40 52  1  0  0  0
 40 53  2  0  0  0
 40 58  1  0  0  0
 41110  1  0  0  0
 41111  1  0  0  0
 41112  1  0  0  0
 41 48  1  0  0  0
 42 43  1  0  0  0
 42 66  1  0  0  0
 42113  1  0  0  0
 42114  1  0  0  0
 43 44  1  0  0  0
 44115  1  0  0  0
 45 46  2  0  0  0
 45116  1  0  0  0
 46117  1  0  0  0
 47118  1  0  0  0
 47119  1  0  0  0
 48 56  1  0  0  0
 48 65  1  0  0  0
 48120  1  0  0  0
 49 50  1  0  0  0
 49 53  1  0  0  0
 49 64  1  0  0  0
 49121  1  0  0  0
 50 51  1  0  0  0
 50122  1  0  0  0
 50123  1  0  0  0
 51 52  1  0  0  0
 51124  1  0  0  0
 51125  1  0  0  0
 52126  1  0  0  0
 52127  1  0  0  0
 53 54  1  0  0  0
 54 55  2  0  0  0
 54128  1  0  0  0
 55 57  1  0  0  0
 55129  1  0  0  0
 56 69  2  0  0  0
 57 58  2  0  0  0
 57130  1  0  0  0
 58131  1  0  0  0
 59 60  1  0  0  0
 59 61  1  0  0  0
 59 62  1  0  0  0
 60132  1  0  0  0
 60133  1  0  0  0
 60134  1  0  0  0
 61135  1  0  0  0
 61136  1  0  0  0
 61137  1  0  0  0
 62138  1  0  0  0
 62139  1  0  0  0
 62140  1  0  0  0
 63 65  1  0  0  0
 63141  1  0  0  0
 63142  1  0  0  0
 63143  1  0  0  0
 64144  1  0  0  0
 65145  1  0  0  0
 68 83  1  0  0  0
 71 74  2  0  0  0
 71 78  1  0  0  0
 71146  1  0  0  0
 72 75  1  0  0  0
 72 78  2  0  0  0
 72147  1  0  0  0
 73 76  2  0  0  0
 73 79  1  0  0  0
 73148  1  0  0  0
 74 80  1  0  0  0
 74149  1  0  0  0
 75 80  2  0  0  0
 75150  1  0  0  0
 76 81  1  0  0  0
 76151  1  0  0  0
 77 79  2  0  0  0
 77 82  1  0  0  0
 77152  1  0  0  0
 78 83  1  0  0  0
 79 84  1  0  0  0
 80 85  1  0  0  0
 81 82  2  0  0  0
 81 85  1  0  0  0
 82 86  1  0  0  0
 83153  1  0  0  0
 83154  1  0  0  0
 84155  1  0  0  0
M  ISO  4   1 100  68 101  83 101  84 100
M  END
> <chiral flag>
0

> <version>
0

> <s_m_source_file>
/data/baiqing/PycharmProjects/Reinvent-master-3.2/result/LINK_invent/BTK/process_docking_weight1_custom_product_contain_oxygen_bond_distance_aromatic_linkinvent_7_9_3/rearranged_h_0012.sdf

> <i_m_source_file_index>
25

> <r_mmod_Potential_Energy-OPLS-2005>
31.0338821411133

> <r_mmod_Stretch_Energy-OPLS-2005>
39.5931739807129

> <r_mmod_Bend_Energy-OPLS-2005>
105.278358459473

> <r_mmod_Torsional_Energy-OPLS-2005>
253.090393066406

> <r_mmod_Improper_Torsional_Energy-OPLS-2005>
4.98637819290161

> <r_mmod_Van_der_Waal_Energy-OPLS-2005>
168.633850097656

> <r_mmod_Electrostatic_Energy-OPLS-2005>
-347.590484619141

> <r_mmod_Solvation_Energy-OPLS-2005>
-206.171829223633

> <b_mmod_Minimization_Converged-OPLS-2005>
0

> <r_mmod_RMS_Derivative-OPLS-2005>
1.17254233360291

$$$$
25
                    3D
 Structure written by MMmdl.
158166  0  0  1  0            999 V2000
  -30.6440  -14.6526   20.3832 C   0  0  0  0  0  0
  -30.4199  -12.3798   19.4437 C   0  0  0  0  0  0
  -29.4883  -12.4451   18.2158 C   0  0  0  0  0  0
  -28.0154  -12.3072   18.6451 C   0  0  0  0  0  0
  -27.6392  -13.2024   19.8581 C   0  0  2  0  0  0
  -28.6984  -13.1483   20.9757 C   0  0  0  0  0  0
  -25.2544  -13.8122   20.5766 C   0  0  0  0  0  0
  -24.1792  -13.0411   20.9241 C   0  0  0  0  0  0
  -24.6342  -11.6878   20.8774 C   0  0  0  0  0  0
  -23.9007  -10.4270   21.0428 C   0  0  0  0  0  0
  -24.3578   -9.4195   21.9200 C   0  0  0  0  0  0
  -23.6277   -8.2221   22.0747 C   0  0  0  0  0  0
  -22.4257   -8.0256   21.3541 C   0  0  0  0  0  0
  -21.9876   -9.0224   20.4642 C   0  0  0  0  0  0
  -22.7180  -10.2118   20.3073 C   0  0  0  0  0  0
  -21.6841   -6.0722   22.5282 C   0  0  0  0  0  0
  -21.4000   -6.5632   23.8214 C   0  0  0  0  0  0
  -21.3667   -5.6792   24.9178 C   0  0  0  0  0  0
  -21.6055   -4.3054   24.7224 C   0  0  0  0  0  0
  -21.8825   -3.8139   23.4345 C   0  0  0  0  0  0
  -21.9190   -4.6953   22.3399 C   0  0  0  0  0  0
  -22.7828  -13.5234   21.1881 C   0  0  0  0  0  0
  -22.1677   -4.2152   21.0976 F   0  0  0  0  0  0
  -21.5625   -3.4530   25.7733 F   0  0  0  0  0  0
  -29.9927  -13.4516   20.3577 N   0  0  0  0  0  0
  -26.2931  -12.9260   20.3409 N   0  0  0  0  0  0
  -25.9268  -11.6442   20.5853 N   0  0  0  0  0  0
  -22.0465  -12.8229   22.0434 N   0  0  0  0  0  0
  -25.4313  -15.1835   20.4178 N   0  0  0  0  0  0
  -31.8695  -14.7065   20.2435 O   0  0  0  0  0  0
  -21.6623   -6.8855   21.4245 O   0  0  0  0  0  0
  -22.3545  -14.5553   20.6726 O   0  0  0  0  0  0
  -24.6255  -31.8639   23.2047 C   0  0  0  0  0  0
  -25.9106  -32.4803   23.8367 C   0  0  1  0  0  0
  -27.2098  -27.3154   20.1080 C   0  0  0  0  0  0
  -25.5930  -33.8599   24.2299 N   0  0  0  0  0  0
  -23.4171  -30.4921   21.5494 C   0  0  2  0  0  0
  -24.8605  -28.9554   20.1081 C   0  0  0  0  0  0
  -22.7477  -29.4663   22.4949 C   0  0  0  0  0  0
  -18.0289  -28.1385   22.8497 C   0  0  0  0  0  0
  -24.1493  -36.7289   23.2639 C   0  0  0  0  0  0
  -25.9613  -30.7919   21.3802 C   0  0  0  0  0  0
  -26.0328  -29.4215   20.7176 C   0  0  0  0  0  0
  -27.2104  -28.6120   20.7132 C   0  0  0  0  0  0
  -26.0161  -26.9233   19.4542 C   0  0  0  0  0  0
  -24.8549  -27.7105   19.4686 C   0  0  0  0  0  0
  -23.6307  -29.8359   20.1619 C   0  0  0  0  0  0
  -25.4124  -36.3098   24.0334 C   0  0  1  0  0  0
  -20.5887  -28.3702   23.1269 C   0  0  2  0  0  0
  -20.6782  -26.9426   22.5409 C   0  0  0  0  0  0
  -19.5760  -26.6391   21.5207 C   0  0  0  0  0  0
  -18.1932  -26.7932   22.1627 C   0  0  0  0  0  0
  -19.1541  -28.8860   23.2883 C   0  0  0  0  0  0
  -18.9468  -30.1457   23.8912 C   0  0  0  0  0  0
  -17.6468  -30.6594   24.0558 C   0  0  0  0  0  0
  -25.9062  -34.9463   23.5119 C   0  0  0  0  0  0
  -16.5356  -29.9092   23.6324 C   0  0  0  0  0  0
  -16.7275  -28.6500   23.0360 C   0  0  0  0  0  0
  -26.4485  -31.6601   25.0732 C   0  0  0  0  0  0
  -25.3716  -31.3720   26.1455 C   0  0  0  0  0  0
  -27.0320  -30.3027   24.6160 C   0  0  0  0  0  0
  -27.6055  -32.4316   25.7507 C   0  0  0  0  0  0
  -27.5578  -37.1826   24.8482 C   0  0  0  0  0  0
  -21.4191  -29.3065   22.3669 N   0  0  0  0  0  0
  -26.4314  -37.3782   23.9395 N   0  0  0  0  0  0
  -24.6867  -31.0651   22.1009 N   0  0  0  0  0  0
  -23.4205  -28.8195   23.3027 O   0  0  0  0  0  0
  -28.2990  -26.4236   20.1767 O   0  0  0  0  0  0
  -26.5613  -34.8910   22.4675 O   0  0  0  0  0  0
  -23.5421  -32.1444   23.7376 O   0  0  0  0  0  0
  -28.2061  -18.7687   19.9593 C   0  0  0  0  0  0
  -30.2613  -19.4500   21.0015 C   0  0  0  0  0  0
  -27.8898  -20.1377   19.7333 C   0  0  0  0  0  0
  -29.9358  -20.8270   20.7868 C   0  0  0  0  0  0
  -29.4035  -18.3823   20.6115 C   0  0  0  0  0  0
  -28.7237  -21.2067   20.1535 C   0  0  0  0  0  0
  -28.5479  -17.1760   16.8546 C   0  0  0  0  0  0
  -28.7907  -16.2910   17.8316 C   0  0  0  0  0  0
  -29.7024  -16.8868   21.0221 C   0  0  0  0  0  0
  -30.0823  -16.2235   18.6334 C   0  0  0  0  0  0
  -28.9135  -23.7571   20.3475 C   0  0  0  0  0  0
  -27.9906  -24.9882   19.9410 C   0  0  0  0  0  0
  -29.9001  -15.7667   20.0327 N   0  0  0  0  0  0
  -28.2707  -22.5162   19.9055 O   0  0  0  0  0  0
  -31.4610  -12.4867   19.1314 H   0  0  0  0  0  0
  -30.3430  -11.4105   19.9413 H   0  0  0  0  0  0
  -29.7410  -11.6499   17.5118 H   0  0  0  0  0  0
  -29.6329  -13.3807   17.6765 H   0  0  0  0  0  0
  -27.8568  -11.2597   18.9051 H   0  0  0  0  0  0
  -27.3528  -12.5141   17.8029 H   0  0  0  0  0  0
  -27.6251  -14.2212   19.5003 H   0  0  0  0  0  0
  -28.7193  -12.1687   21.4549 H   0  0  0  0  0  0
  -28.4666  -13.8781   21.7537 H   0  0  0  0  0  0
  -25.2719   -9.5678   22.4782 H   0  0  0  0  0  0
  -23.9996   -7.4598   22.7447 H   0  0  0  0  0  0
  -21.0814   -8.8715   19.8938 H   0  0  0  0  0  0
  -22.3621  -10.9657   19.6190 H   0  0  0  0  0  0
  -21.1990   -7.6141   23.9716 H   0  0  0  0  0  0
  -21.1495   -6.0518   25.9087 H   0  0  0  0  0  0
  -22.0595   -2.7603   23.2831 H   0  0  0  0  0  0
  -22.4074  -11.9885   22.4822 H   0  0  0  0  0  0
  -21.1094  -13.1278   22.2667 H   0  0  0  0  0  0
  -24.6672  -15.8408   20.5283 H   0  0  0  0  0  0
  -26.2920  -15.6193   20.1138 H   0  0  0  0  0  0
  -26.7179  -32.5485   23.1121 H   0  0  0  0  0  0
  -25.0091  -33.9765   25.0447 H   0  0  0  0  0  0
  -22.7093  -31.3129   21.4103 H   0  0  0  0  0  0
  -23.3750  -35.9635   23.3360 H   0  0  0  0  0  0
  -24.3563  -36.8844   22.2041 H   0  0  0  0  0  0
  -23.7256  -37.6515   23.6617 H   0  0  0  0  0  0
  -26.0947  -31.5586   20.6151 H   0  0  0  0  0  0
  -26.8404  -30.8388   22.0116 H   0  0  0  0  0  0
  -28.1034  -28.9594   21.2133 H   0  0  0  0  0  0
  -25.9335  -25.9834   18.9298 H   0  0  0  0  0  0
  -23.9596  -27.3504   18.9792 H   0  0  0  0  0  0
  -23.7503  -30.6154   19.4094 H   0  0  0  0  0  0
  -22.7498  -29.2679   19.8567 H   0  0  0  0  0  0
  -25.1305  -36.1971   25.0830 H   0  0  0  0  0  0
  -20.9984  -28.3288   24.1391 H   0  0  0  0  0  0
  -20.5668  -26.2325   23.3616 H   0  0  0  0  0  0
  -21.6648  -26.7459   22.1208 H   0  0  0  0  0  0
  -19.6918  -25.6294   21.1249 H   0  0  0  0  0  0
  -19.6680  -27.3191   20.6718 H   0  0  0  0  0  0
  -17.4203  -26.6668   21.4036 H   0  0  0  0  0  0
  -18.0352  -26.0066   22.9020 H   0  0  0  0  0  0
  -19.7941  -30.7256   24.2303 H   0  0  0  0  0  0
  -17.5024  -31.6277   24.5151 H   0  0  0  0  0  0
  -15.5360  -30.2997   23.7639 H   0  0  0  0  0  0
  -15.8672  -28.0806   22.7092 H   0  0  0  0  0  0
  -24.5926  -30.7026   25.7781 H   0  0  0  0  0  0
  -24.8863  -32.2879   26.4846 H   0  0  0  0  0  0
  -25.8056  -30.8937   27.0246 H   0  0  0  0  0  0
  -26.2891  -29.6804   24.1163 H   0  0  0  0  0  0
  -27.4004  -29.7250   25.4646 H   0  0  0  0  0  0
  -27.8764  -30.4314   23.9383 H   0  0  0  0  0  0
  -27.2681  -33.3620   26.2075 H   0  0  0  0  0  0
  -28.3878  -32.6862   25.0348 H   0  0  0  0  0  0
  -28.0697  -31.8435   26.5432 H   0  0  0  0  0  0
  -28.2653  -38.0065   24.7450 H   0  0  0  0  0  0
  -28.1017  -36.2594   24.6428 H   0  0  0  0  0  0
  -27.2278  -37.1615   25.8882 H   0  0  0  0  0  0
  -20.9353  -29.8805   21.6894 H   0  0  0  0  0  0
  -26.0206  -38.2877   24.1325 H   0  0  0  0  0  0
  -27.5036  -18.0110   19.6432 H   0  0  0  0  0  0
  -31.1858  -19.2195   21.5117 H   0  0  0  0  0  0
  -26.9598  -20.3717   19.2335 H   0  0  0  0  0  0
  -30.6229  -21.5884   21.1277 H   0  0  0  0  0  0
  -27.6095  -17.1645   16.3169 H   0  0  0  0  0  0
  -29.2781  -17.9201   16.5681 H   0  0  0  0  0  0
  -28.0231  -15.5675   18.0401 H   0  0  0  0  0  0
  -28.8746  -16.5765   21.6621 H   0  0  0  0  0  0
  -30.5724  -16.9076   21.6814 H   0  0  0  0  0  0
  -30.5944  -17.1853   18.6001 H   0  0  0  0  0  0
  -30.7373  -15.5468   18.0782 H   0  0  0  0  0  0
  -29.0576  -23.7300   21.4282 H   0  0  0  0  0  0
  -29.8983  -23.8473   19.8883 H   0  0  0  0  0  0
  -27.0436  -24.7722   20.4396 H   0  0  0  0  0  0
  -27.8131  -24.8805   18.8698 H   0  0  0  0  0  0
  1 25  1  0  0  0
  1 30  2  0  0  0
  1 83  1  0  0  0
  2  3  1  0  0  0
  2 25  1  0  0  0
  2 85  1  0  0  0
  2 86  1  0  0  0
  3  4  1  0  0  0
  3 87  1  0  0  0
  3 88  1  0  0  0
  4  5  1  0  0  0
  4 89  1  0  0  0
  4 90  1  0  0  0
  5  6  1  0  0  0
  5 26  1  0  0  0
  5 91  1  0  0  0
  6 25  1  0  0  0
  6 92  1  0  0  0
  6 93  1  0  0  0
  7  8  2  0  0  0
  7 26  1  0  0  0
  7 29  1  0  0  0
  8  9  1  0  0  0
  8 22  1  0  0  0
  9 10  1  0  0  0
  9 27  2  0  0  0
 10 11  2  0  0  0
 10 15  1  0  0  0
 11 12  1  0  0  0
 11 94  1  0  0  0
 12 13  2  0  0  0
 12 95  1  0  0  0
 13 14  1  0  0  0
 13 31  1  0  0  0
 14 15  2  0  0  0
 14 96  1  0  0  0
 15 97  1  0  0  0
 16 17  2  0  0  0
 16 21  1  0  0  0
 16 31  1  0  0  0
 17 18  1  0  0  0
 17 98  1  0  0  0
 18 19  2  0  0  0
 18 99  1  0  0  0
 19 20  1  0  0  0
 19 24  1  0  0  0
 20 21  2  0  0  0
 20100  1  0  0  0
 21 23  1  0  0  0
 22 28  1  0  0  0
 22 32  2  0  0  0
 26 27  1  0  0  0
 28101  1  0  0  0
 28102  1  0  0  0
 29103  1  0  0  0
 29104  1  0  0  0
 33 34  1  0  0  0
 33 66  1  0  0  0
 33 70  2  0  0  0
 34 36  1  0  0  0
 34 59  1  0  0  0
 34105  1  0  0  0
 35 44  2  0  0  0
 35 45  1  0  0  0
 35 68  1  0  0  0
 36 56  1  0  0  0
 36106  1  0  0  0
 37 39  1  0  0  0
 37 47  1  0  0  0
 37 66  1  0  0  0
 37107  1  0  0  0
 38 43  2  0  0  0
 38 46  1  0  0  0
 38 47  1  0  0  0
 39 64  1  0  0  0
 39 67  2  0  0  0
 40 52  1  0  0  0
 40 53  2  0  0  0
 40 58  1  0  0  0
 41108  1  0  0  0
 41109  1  0  0  0
 41110  1  0  0  0
 41 48  1  0  0  0
 42 43  1  0  0  0
 42 66  1  0  0  0
 42111  1  0  0  0
 42112  1  0  0  0
 43 44  1  0  0  0
 44113  1  0  0  0
 45 46  2  0  0  0
 45114  1  0  0  0
 46115  1  0  0  0
 47116  1  0  0  0
 47117  1  0  0  0
 48 56  1  0  0  0
 48 65  1  0  0  0
 48118  1  0  0  0
 49 50  1  0  0  0
 49 53  1  0  0  0
 49 64  1  0  0  0
 49119  1  0  0  0
 50 51  1  0  0  0
 50120  1  0  0  0
 50121  1  0  0  0
 51 52  1  0  0  0
 51122  1  0  0  0
 51123  1  0  0  0
 52124  1  0  0  0
 52125  1  0  0  0
 53 54  1  0  0  0
 54 55  2  0  0  0
 54126  1  0  0  0
 55 57  1  0  0  0
 55127  1  0  0  0
 56 69  2  0  0  0
 57 58  2  0  0  0
 57128  1  0  0  0
 58129  1  0  0  0
 59 60  1  0  0  0
 59 61  1  0  0  0
 59 62  1  0  0  0
 60130  1  0  0  0
 60131  1  0  0  0
 60132  1  0  0  0
 61133  1  0  0  0
 61134  1  0  0  0
 61135  1  0  0  0
 62136  1  0  0  0
 62137  1  0  0  0
 62138  1  0  0  0
 63 65  1  0  0  0
 63139  1  0  0  0
 63140  1  0  0  0
 63141  1  0  0  0
 64142  1  0  0  0
 65143  1  0  0  0
 68 82  1  0  0  0
 71 73  2  0  0  0
 71 75  1  0  0  0
 71144  1  0  0  0
 72 74  1  0  0  0
 72 75  2  0  0  0
 72145  1  0  0  0
 73 76  1  0  0  0
 73146  1  0  0  0
 74 76  2  0  0  0
 74147  1  0  0  0
 75 79  1  0  0  0
 76 84  1  0  0  0
 77 78  2  0  0  0
 77148  1  0  0  0
 77149  1  0  0  0
 78 80  1  0  0  0
 78150  1  0  0  0
 79 83  1  0  0  0
 79151  1  0  0  0
 79152  1  0  0  0
 80 83  1  0  0  0
 80153  1  0  0  0
 80154  1  0  0  0
 81 82  1  0  0  0
 81 84  1  0  0  0
 81155  1  0  0  0
 81156  1  0  0  0
 82157  1  0  0  0
 82158  1  0  0  0
M  ISO  4   1 100  68 101  82 101  83 100
M  END
> <chiral flag>
0

> <version>
0

> <s_m_source_file>
/data/baiqing/PycharmProjects/Reinvent-master-3.2/result/LINK_invent/BTK/process_docking_weight1_custom_product_contain_oxygen_bond_distance_aromatic_linkinvent_7_9_3/rearranged_h_0012.sdf

> <i_m_source_file_index>
26

> <r_mmod_Potential_Energy-OPLS-2005>
275.836517333984

> <r_mmod_Stretch_Energy-OPLS-2005>
81.1218719482422

> <r_mmod_Bend_Energy-OPLS-2005>
165.822982788086

> <r_mmod_Torsional_Energy-OPLS-2005>
290.516662597656

> <r_mmod_Improper_Torsional_Energy-OPLS-2005>
20.5122470855713

> <r_mmod_Van_der_Waal_Energy-OPLS-2005>
146.110321044922

> <r_mmod_Electrostatic_Energy-OPLS-2005>
-299.286865234375

> <r_mmod_Solvation_Energy-OPLS-2005>
-195.740615844727

> <b_mmod_Minimization_Converged-OPLS-2005>
0

> <r_mmod_RMS_Derivative-OPLS-2005>
2.69257259368896

$$$$
26
                    3D
 Structure written by MMmdl.
152160  0  0  1  0            999 V2000
  -30.6638  -14.5865   20.5136 C   0  0  0  0  0  0
  -30.4293  -12.3609   19.4535 C   0  0  0  0  0  0
  -29.5105  -12.5208   18.2230 C   0  0  0  0  0  0
  -28.0296  -12.3680   18.6265 C   0  0  0  0  0  0
  -27.6579  -13.2225   19.8689 C   0  0  2  0  0  0
  -28.7009  -13.0615   20.9990 C   0  0  0  0  0  0
  -25.2575  -13.8192   20.5682 C   0  0  0  0  0  0
  -24.1843  -13.0446   20.9176 C   0  0  0  0  0  0
  -24.6421  -11.6923   20.8727 C   0  0  0  0  0  0
  -23.9083  -10.4302   21.0391 C   0  0  0  0  0  0
  -24.3628   -9.4221   21.9175 C   0  0  0  0  0  0
  -23.6313   -8.2253   22.0750 C   0  0  0  0  0  0
  -22.4289   -8.0292   21.3535 C   0  0  0  0  0  0
  -21.9920   -9.0266   20.4647 C   0  0  0  0  0  0
  -22.7247  -10.2145   20.3052 C   0  0  0  0  0  0
  -21.6860   -6.0751   22.5284 C   0  0  0  0  0  0
  -21.4026   -6.5650   23.8217 C   0  0  0  0  0  0
  -21.3653   -5.6795   24.9178 C   0  0  0  0  0  0
  -21.6039   -4.3061   24.7217 C   0  0  0  0  0  0
  -21.8814   -3.8152   23.4338 C   0  0  0  0  0  0
  -21.9195   -4.6977   22.3399 C   0  0  0  0  0  0
  -22.7865  -13.5237   21.1837 C   0  0  0  0  0  0
  -22.1660   -4.2166   21.0974 F   0  0  0  0  0  0
  -21.5619   -3.4533   25.7729 F   0  0  0  0  0  0
  -30.0242  -13.3795   20.4407 N   0  0  0  0  0  0
  -26.3012  -12.9388   20.3336 N   0  0  0  0  0  0
  -25.9356  -11.6528   20.5760 N   0  0  0  0  0  0
  -22.0500  -12.8249   22.0393 N   0  0  0  0  0  0
  -25.4262  -15.1919   20.4081 N   0  0  0  0  0  0
  -31.8207  -14.7197   20.1057 O   0  0  0  0  0  0
  -21.6646   -6.8892   21.4247 O   0  0  0  0  0  0
  -22.3549  -14.5535   20.6666 O   0  0  0  0  0  0
  -24.6209  -31.8635   23.2044 C   0  0  0  0  0  0
  -25.9073  -32.4798   23.8359 C   0  0  1  0  0  0
  -27.2250  -27.3659   20.1032 C   0  0  0  0  0  0
  -25.5905  -33.8593   24.2290 N   0  0  0  0  0  0
  -23.4111  -30.4891   21.5472 C   0  0  2  0  0  0
  -24.8553  -28.9501   20.1093 C   0  0  0  0  0  0
  -22.7442  -29.4654   22.4962 C   0  0  0  0  0  0
  -18.0279  -28.1374   22.8508 C   0  0  0  0  0  0
  -24.1487  -36.7313   23.2639 C   0  0  0  0  0  0
  -25.9461  -30.8106   21.3641 C   0  0  0  0  0  0
  -26.0207  -29.4393   20.7110 C   0  0  0  0  0  0
  -27.2074  -28.6571   20.7015 C   0  0  0  0  0  0
  -26.0390  -26.9210   19.4718 C   0  0  0  0  0  0
  -24.8639  -27.6952   19.4808 C   0  0  0  0  0  0
  -23.6198  -29.8222   20.1624 C   0  0  0  0  0  0
  -25.4105  -36.3097   24.0335 C   0  0  1  0  0  0
  -20.5877  -28.3678   23.1307 C   0  0  2  0  0  0
  -20.6771  -26.9408   22.5422 C   0  0  0  0  0  0
  -19.5741  -26.6382   21.5224 C   0  0  0  0  0  0
  -18.1924  -26.7921   22.1638 C   0  0  0  0  0  0
  -19.1534  -28.8838   23.2905 C   0  0  0  0  0  0
  -18.9457  -30.1442   23.8917 C   0  0  0  0  0  0
  -17.6459  -30.6586   24.0563 C   0  0  0  0  0  0
  -25.9040  -34.9465   23.5116 C   0  0  0  0  0  0
  -16.5349  -29.9091   23.6315 C   0  0  0  0  0  0
  -16.7269  -28.6499   23.0356 C   0  0  0  0  0  0
  -26.4475  -31.6579   25.0698 C   0  0  0  0  0  0
  -25.3727  -31.3710   26.1439 C   0  0  0  0  0  0
  -27.0286  -30.3011   24.6077 C   0  0  0  0  0  0
  -27.6036  -32.4306   25.7478 C   0  0  0  0  0  0
  -27.5576  -37.1814   24.8462 C   0  0  0  0  0  0
  -21.4162  -29.3040   22.3703 N   0  0  0  0  0  0
  -26.4286  -37.3787   23.9409 N   0  0  0  0  0  0
  -24.6790  -31.0701   22.0966 N   0  0  0  0  0  0
  -23.4196  -28.8186   23.3017 O   0  0  0  0  0  0
  -28.3653  -26.5619   20.1535 O   0  0  0  0  0  0
  -26.5614  -34.8930   22.4686 O   0  0  0  0  0  0
  -23.5390  -32.1403   23.7416 O   0  0  0  0  0  0
  -28.9977  -17.9586   21.0884 C   0  0  0  0  0  0
  -31.1662  -17.6873   20.0605 C   0  0  0  0  0  0
  -29.0423  -19.3651   20.8460 C   0  0  0  0  0  0
  -31.2117  -19.0851   19.8193 C   0  0  0  0  0  0
  -30.0473  -17.0806   20.6903 C   0  0  0  0  0  0
  -30.1510  -19.9457   20.1884 C   0  0  0  0  0  0
  -29.3357  -24.2252   20.5865 C   0  0  0  0  0  0
  -28.2045  -25.1177   19.9684 C   0  0  0  0  0  0
  -29.9050  -15.6473   20.9195 N   0  0  0  0  0  0
  -29.1107  -22.7343   20.5016 N   0  0  0  0  0  0
  -31.6097  -22.1989   20.2573 O   0  0  0  0  0  0
  -30.0664  -21.8581   18.2851 O   0  0  0  0  0  0
  -30.3171  -21.7318   19.7300 S   0  0  0  0  0  0
  -31.4785  -12.4527   19.1651 H   0  0  0  0  0  0
  -30.3285  -11.3618   19.8805 H   0  0  0  0  0  0
  -29.7723  -11.7876   17.4600 H   0  0  0  0  0  0
  -29.6703  -13.5019   17.7722 H   0  0  0  0  0  0
  -27.8523  -11.3128   18.8364 H   0  0  0  0  0  0
  -27.3824  -12.6242   17.7858 H   0  0  0  0  0  0
  -27.6819  -14.2625   19.5430 H   0  0  0  0  0  0
  -28.6970  -12.0415   21.3863 H   0  0  0  0  0  0
  -28.4575  -13.6999   21.8486 H   0  0  0  0  0  0
  -25.2776   -9.5711   22.4741 H   0  0  0  0  0  0
  -24.0024   -7.4652   22.7469 H   0  0  0  0  0  0
  -21.0842   -8.8790   19.8963 H   0  0  0  0  0  0
  -22.3702  -10.9683   19.6158 H   0  0  0  0  0  0
  -21.2035   -7.6167   23.9731 H   0  0  0  0  0  0
  -21.1471   -6.0525   25.9080 H   0  0  0  0  0  0
  -22.0600   -2.7621   23.2827 H   0  0  0  0  0  0
  -22.4098  -11.9933   22.4836 H   0  0  0  0  0  0
  -21.1107  -13.1282   22.2554 H   0  0  0  0  0  0
  -24.6526  -15.8418   20.5005 H   0  0  0  0  0  0
  -26.2725  -15.6314   20.0680 H   0  0  0  0  0  0
  -26.7135  -32.5491   23.1109 H   0  0  0  0  0  0
  -25.0032  -33.9733   25.0421 H   0  0  0  0  0  0
  -22.7029  -31.3089   21.4072 H   0  0  0  0  0  0
  -23.3735  -35.9662   23.3310 H   0  0  0  0  0  0
  -24.3581  -36.8921   22.2051 H   0  0  0  0  0  0
  -23.7251  -37.6529   23.6643 H   0  0  0  0  0  0
  -26.0577  -31.5714   20.5906 H   0  0  0  0  0  0
  -26.8353  -30.8693   21.9805 H   0  0  0  0  0  0
  -28.1023  -29.0280   21.1813 H   0  0  0  0  0  0
  -25.9945  -25.9665   18.9684 H   0  0  0  0  0  0
  -23.9706  -27.3219   18.9990 H   0  0  0  0  0  0
  -23.7261  -30.5946   19.4001 H   0  0  0  0  0  0
  -22.7421  -29.2441   19.8693 H   0  0  0  0  0  0
  -25.1280  -36.1963   25.0828 H   0  0  0  0  0  0
  -20.9972  -28.3245   24.1423 H   0  0  0  0  0  0
  -20.5682  -26.2286   23.3614 H   0  0  0  0  0  0
  -21.6642  -26.7454   22.1206 H   0  0  0  0  0  0
  -19.6913  -25.6295   21.1241 H   0  0  0  0  0  0
  -19.6675  -27.3201   20.6757 H   0  0  0  0  0  0
  -17.4200  -26.6682   21.4030 H   0  0  0  0  0  0
  -18.0323  -26.0047   22.9018 H   0  0  0  0  0  0
  -19.7935  -30.7250   24.2300 H   0  0  0  0  0  0
  -17.5018  -31.6265   24.5167 H   0  0  0  0  0  0
  -15.5351  -30.3007   23.7613 H   0  0  0  0  0  0
  -15.8667  -28.0815   22.7068 H   0  0  0  0  0  0
  -24.5889  -30.7064   25.7778 H   0  0  0  0  0  0
  -24.8929  -32.2878   26.4877 H   0  0  0  0  0  0
  -25.8072  -30.8880   27.0199 H   0  0  0  0  0  0
  -26.2816  -29.6798   24.1111 H   0  0  0  0  0  0
  -27.4021  -29.7219   25.4532 H   0  0  0  0  0  0
  -27.8675  -30.4310   23.9234 H   0  0  0  0  0  0
  -27.2623  -33.3592   26.2068 H   0  0  0  0  0  0
  -28.3844  -32.6891   25.0310 H   0  0  0  0  0  0
  -28.0692  -31.8417   26.5390 H   0  0  0  0  0  0
  -28.2600  -38.0104   24.7497 H   0  0  0  0  0  0
  -28.1066  -36.2637   24.6298 H   0  0  0  0  0  0
  -27.2300  -37.1480   25.8867 H   0  0  0  0  0  0
  -20.9328  -29.8761   21.6917 H   0  0  0  0  0  0
  -26.0176  -38.2871   24.1393 H   0  0  0  0  0  0
  -28.1244  -17.5522   21.5782 H   0  0  0  0  0  0
  -32.0100  -17.0996   19.7340 H   0  0  0  0  0  0
  -28.2184  -19.9950   21.1468 H   0  0  0  0  0  0
  -32.0694  -19.5110   19.3194 H   0  0  0  0  0  0
  -29.4540  -24.4890   21.6376 H   0  0  0  0  0  0
  -30.2824  -24.4783   20.1074 H   0  0  0  0  0  0
  -27.2672  -24.7893   20.4199 H   0  0  0  0  0  0
  -28.1350  -24.9164   18.8984 H   0  0  0  0  0  0
  -29.0181  -15.3666   21.3100 H   0  0  0  0  0  0
  -28.1816  -22.4966   20.1495 H   0  0  0  0  0  0
  1 25  1  0  0  0
  1 30  2  0  0  0
  1 79  1  0  0  0
  2  3  1  0  0  0
  2 25  1  0  0  0
  2 84  1  0  0  0
  2 85  1  0  0  0
  3  4  1  0  0  0
  3 86  1  0  0  0
  3 87  1  0  0  0
  4  5  1  0  0  0
  4 88  1  0  0  0
  4 89  1  0  0  0
  5  6  1  0  0  0
  5 26  1  0  0  0
  5 90  1  0  0  0
  6 25  1  0  0  0
  6 91  1  0  0  0
  6 92  1  0  0  0
  7  8  2  0  0  0
  7 26  1  0  0  0
  7 29  1  0  0  0
  8  9  1  0  0  0
  8 22  1  0  0  0
  9 10  1  0  0  0
  9 27  2  0  0  0
 10 11  2  0  0  0
 10 15  1  0  0  0
 11 12  1  0  0  0
 11 93  1  0  0  0
 12 13  2  0  0  0
 12 94  1  0  0  0
 13 14  1  0  0  0
 13 31  1  0  0  0
 14 15  2  0  0  0
 14 95  1  0  0  0
 15 96  1  0  0  0
 16 17  2  0  0  0
 16 21  1  0  0  0
 16 31  1  0  0  0
 17 18  1  0  0  0
 17 97  1  0  0  0
 18 19  2  0  0  0
 18 98  1  0  0  0
 19 20  1  0  0  0
 19 24  1  0  0  0
 20 21  2  0  0  0
 20 99  1  0  0  0
 21 23  1  0  0  0
 22 28  1  0  0  0
 22 32  2  0  0  0
 26 27  1  0  0  0
 28100  1  0  0  0
 28101  1  0  0  0
 29102  1  0  0  0
 29103  1  0  0  0
 33 34  1  0  0  0
 33 66  1  0  0  0
 33 70  2  0  0  0
 34 36  1  0  0  0
 34 59  1  0  0  0
 34104  1  0  0  0
 35 44  2  0  0  0
 35 45  1  0  0  0
 35 68  1  0  0  0
 36 56  1  0  0  0
 36105  1  0  0  0
 37 39  1  0  0  0
 37 47  1  0  0  0
 37 66  1  0  0  0
 37106  1  0  0  0
 38 43  2  0  0  0
 38 46  1  0  0  0
 38 47  1  0  0  0
 39 64  1  0  0  0
 39 67  2  0  0  0
 40 52  1  0  0  0
 40 53  2  0  0  0
 40 58  1  0  0  0
 41107  1  0  0  0
 41108  1  0  0  0
 41109  1  0  0  0
 41 48  1  0  0  0
 42 43  1  0  0  0
 42 66  1  0  0  0
 42110  1  0  0  0
 42111  1  0  0  0
 43 44  1  0  0  0
 44112  1  0  0  0
 45 46  2  0  0  0
 45113  1  0  0  0
 46114  1  0  0  0
 47115  1  0  0  0
 47116  1  0  0  0
 48 56  1  0  0  0
 48 65  1  0  0  0
 48117  1  0  0  0
 49 50  1  0  0  0
 49 53  1  0  0  0
 49 64  1  0  0  0
 49118  1  0  0  0
 50 51  1  0  0  0
 50119  1  0  0  0
 50120  1  0  0  0
 51 52  1  0  0  0
 51121  1  0  0  0
 51122  1  0  0  0
 52123  1  0  0  0
 52124  1  0  0  0
 53 54  1  0  0  0
 54 55  2  0  0  0
 54125  1  0  0  0
 55 57  1  0  0  0
 55126  1  0  0  0
 56 69  2  0  0  0
 57 58  2  0  0  0
 57127  1  0  0  0
 58128  1  0  0  0
 59 60  1  0  0  0
 59 61  1  0  0  0
 59 62  1  0  0  0
 60129  1  0  0  0
 60130  1  0  0  0
 60131  1  0  0  0
 61132  1  0  0  0
 61133  1  0  0  0
 61134  1  0  0  0
 62135  1  0  0  0
 62136  1  0  0  0
 62137  1  0  0  0
 63 65  1  0  0  0
 63138  1  0  0  0
 63139  1  0  0  0
 63140  1  0  0  0
 64141  1  0  0  0
 65142  1  0  0  0
 68 78  1  0  0  0
 71 73  2  0  0  0
 71 75  1  0  0  0
 71143  1  0  0  0
 72 74  1  0  0  0
 72 75  2  0  0  0
 72144  1  0  0  0
 73 76  1  0  0  0
 73145  1  0  0  0
 74 76  2  0  0  0
 74146  1  0  0  0
 75 79  1  0  0  0
 76 83  1  0  0  0
 77 78  1  0  0  0
 77 80  1  0  0  0
 77147  1  0  0  0
 77148  1  0  0  0
 78149  1  0  0  0
 78150  1  0  0  0
 79151  1  0  0  0
 80152  1  0  0  0
 80 83  1  0  0  0
 81 83  2  0  0  0
 82 83  2  0  0  0
M  ISO  4   1 100  68 101  78 101  79 100
M  END
> <chiral flag>
0

> <version>
0

> <s_m_source_file>
/data/baiqing/PycharmProjects/Reinvent-master-3.2/result/LINK_invent/BTK/process_docking_weight1_custom_product_contain_oxygen_bond_distance_aromatic_linkinvent_7_9_3/rearranged_h_0012.sdf

> <i_m_source_file_index>
27

> <r_mmod_Potential_Energy-OPLS-2005>
-110.636573791504

> <r_mmod_Stretch_Energy-OPLS-2005>
60.5902709960938

> <r_mmod_Bend_Energy-OPLS-2005>
129.689086914062

> <r_mmod_Torsional_Energy-OPLS-2005>
222.875747680664

> <r_mmod_Improper_Torsional_Energy-OPLS-2005>
8.39244842529297

> <r_mmod_Van_der_Waal_Energy-OPLS-2005>
144.874420166016

> <r_mmod_Electrostatic_Energy-OPLS-2005>
-455.426177978516

> <r_mmod_Solvation_Energy-OPLS-2005>
-253.121444702148

> <b_mmod_Minimization_Converged-OPLS-2005>
0

> <r_mmod_RMS_Derivative-OPLS-2005>
1.93183577060699

$$$$
27
                    3D
 Structure written by MMmdl.
158166  0  0  1  0            999 V2000
  -30.7391  -14.4760   20.5760 C   0  0  0  0  0  0
  -30.4125  -12.3281   19.4118 C   0  0  0  0  0  0
  -29.4808  -12.5098   18.1967 C   0  0  0  0  0  0
  -28.0086  -12.3561   18.6209 C   0  0  0  0  0  0
  -27.6556  -13.2059   19.8717 C   0  0  2  0  0  0
  -28.7040  -13.0089   20.9905 C   0  0  0  0  0  0
  -25.2577  -13.8160   20.5724 C   0  0  0  0  0  0
  -24.1826  -13.0442   20.9210 C   0  0  0  0  0  0
  -24.6375  -11.6909   20.8752 C   0  0  0  0  0  0
  -23.9047  -10.4297   21.0412 C   0  0  0  0  0  0
  -24.3596   -9.4211   21.9191 C   0  0  0  0  0  0
  -23.6273   -8.2246   22.0758 C   0  0  0  0  0  0
  -22.4254   -8.0289   21.3547 C   0  0  0  0  0  0
  -21.9895   -9.0266   20.4648 C   0  0  0  0  0  0
  -22.7223  -10.2143   20.3060 C   0  0  0  0  0  0
  -21.6852   -6.0731   22.5275 C   0  0  0  0  0  0
  -21.4017   -6.5635   23.8214 C   0  0  0  0  0  0
  -21.3656   -5.6784   24.9175 C   0  0  0  0  0  0
  -21.6037   -4.3048   24.7217 C   0  0  0  0  0  0
  -21.8827   -3.8144   23.4341 C   0  0  0  0  0  0
  -21.9196   -4.6960   22.3401 C   0  0  0  0  0  0
  -22.7861  -13.5260   21.1857 C   0  0  0  0  0  0
  -22.1669   -4.2157   21.0972 F   0  0  0  0  0  0
  -21.5620   -3.4527   25.7726 F   0  0  0  0  0  0
  -30.0238  -13.3249   20.4271 N   0  0  0  0  0  0
  -26.3003  -12.9325   20.3394 N   0  0  0  0  0  0
  -25.9299  -11.6486   20.5766 N   0  0  0  0  0  0
  -22.0478  -12.8269   22.0401 N   0  0  0  0  0  0
  -25.4247  -15.1883   20.4119 N   0  0  0  0  0  0
  -31.8694  -14.6104   20.1080 O   0  0  0  0  0  0
  -21.6634   -6.8881   21.4241 O   0  0  0  0  0  0
  -22.3561  -14.5570   20.6699 O   0  0  0  0  0  0
  -24.6163  -31.8669   23.2082 C   0  0  0  0  0  0
  -25.9045  -32.4818   23.8383 C   0  0  1  0  0  0
  -27.2268  -27.4097   20.1121 C   0  0  0  0  0  0
  -25.5910  -33.8617   24.2308 N   0  0  0  0  0  0
  -23.4039  -30.4888   21.5519 C   0  0  2  0  0  0
  -24.8487  -28.9488   20.1195 C   0  0  0  0  0  0
  -22.7393  -29.4645   22.5014 C   0  0  0  0  0  0
  -18.0273  -28.1353   22.8480 C   0  0  0  0  0  0
  -24.1488  -36.7316   23.2642 C   0  0  0  0  0  0
  -25.9362  -30.8232   21.3661 C   0  0  0  0  0  0
  -26.0102  -29.4547   20.7191 C   0  0  0  0  0  0
  -27.2034  -28.6906   20.7138 C   0  0  0  0  0  0
  -26.0567  -26.9331   19.4878 C   0  0  0  0  0  0
  -24.8671  -27.6865   19.5009 C   0  0  0  0  0  0
  -23.6117  -29.8185   20.1682 C   0  0  0  0  0  0
  -25.4111  -36.3123   24.0344 C   0  0  1  0  0  0
  -20.5857  -28.3637   23.1331 C   0  0  2  0  0  0
  -20.6769  -26.9413   22.5315 C   0  0  0  0  0  0
  -19.5750  -26.6436   21.5112 C   0  0  0  0  0  0
  -18.1926  -26.7947   22.1513 C   0  0  0  0  0  0
  -19.1519  -28.8803   23.2938 C   0  0  0  0  0  0
  -18.9434  -30.1408   23.8969 C   0  0  0  0  0  0
  -17.6448  -30.6563   24.0596 C   0  0  0  0  0  0
  -25.9045  -34.9483   23.5125 C   0  0  0  0  0  0
  -16.5343  -29.9051   23.6346 C   0  0  0  0  0  0
  -16.7272  -28.6493   23.0331 C   0  0  0  0  0  0
  -26.4461  -31.6612   25.0720 C   0  0  0  0  0  0
  -25.3718  -31.3713   26.1464 C   0  0  0  0  0  0
  -27.0294  -30.3054   24.6110 C   0  0  0  0  0  0
  -27.6030  -32.4342   25.7483 C   0  0  0  0  0  0
  -27.5580  -37.1818   24.8470 C   0  0  0  0  0  0
  -21.4124  -29.3045   22.3780 N   0  0  0  0  0  0
  -26.4294  -37.3803   23.9407 N   0  0  0  0  0  0
  -24.6711  -31.0735   22.1006 N   0  0  0  0  0  0
  -23.4156  -28.8168   23.3052 O   0  0  0  0  0  0
  -28.3881  -26.6669   20.0710 O   0  0  0  0  0  0
  -26.5610  -34.8946   22.4684 O   0  0  0  0  0  0
  -23.5344  -32.1449   23.7456 O   0  0  0  0  0  0
  -29.4029  -18.5635   20.4671 C   0  0  0  0  0  0
  -27.3599  -18.0943   21.6773 C   0  0  0  0  0  0
  -29.0059  -19.9196   20.3260 C   0  0  0  0  0  0
  -26.9720  -19.4440   21.5452 C   0  0  0  0  0  0
  -28.5657  -17.6201   21.1198 C   0  0  0  0  0  0
  -27.7644  -20.3794   20.8308 C   0  0  0  0  0  0
  -25.8460  -21.8818   20.5876 C   0  0  0  0  0  0
  -28.8766  -16.1096   21.2354 C   0  0  0  0  0  0
  -27.8493  -24.1755   20.2173 C   0  0  0  0  0  0
  -28.1225  -22.8506   21.0036 C   0  0  0  0  0  0
  -28.4419  -25.4601   20.8646 C   0  0  0  0  0  0
  -30.2220  -15.5173   21.2620 N   0  0  0  0  0  0
  -27.3022  -21.7011   20.5670 N   0  0  0  0  0  0
  -31.4546  -12.4209   19.1019 H   0  0  0  0  0  0
  -30.3177  -11.3199   19.8180 H   0  0  0  0  0  0
  -29.7202  -11.7816   17.4208 H   0  0  0  0  0  0
  -29.6352  -13.4942   17.7509 H   0  0  0  0  0  0
  -27.8329  -11.2996   18.8284 H   0  0  0  0  0  0
  -27.3485  -12.6145   17.7909 H   0  0  0  0  0  0
  -27.6877  -14.2472   19.5551 H   0  0  0  0  0  0
  -28.6957  -11.9741   21.3354 H   0  0  0  0  0  0
  -28.4704  -13.6070   21.8710 H   0  0  0  0  0  0
  -25.2748   -9.5704   22.4755 H   0  0  0  0  0  0
  -23.9992   -7.4646   22.7479 H   0  0  0  0  0  0
  -21.0831   -8.8797   19.8945 H   0  0  0  0  0  0
  -22.3701  -10.9687   19.6165 H   0  0  0  0  0  0
  -21.2016   -7.6147   23.9724 H   0  0  0  0  0  0
  -21.1458   -6.0507   25.9077 H   0  0  0  0  0  0
  -22.0601   -2.7608   23.2835 H   0  0  0  0  0  0
  -22.4057  -11.9951   22.4857 H   0  0  0  0  0  0
  -21.1084  -13.1317   22.2526 H   0  0  0  0  0  0
  -24.6459  -15.8308   20.5082 H   0  0  0  0  0  0
  -26.2681  -15.6380   20.0834 H   0  0  0  0  0  0
  -26.7110  -32.5529   23.1143 H   0  0  0  0  0  0
  -25.0095  -33.9780   25.0481 H   0  0  0  0  0  0
  -22.6955  -31.3089   21.4128 H   0  0  0  0  0  0
  -23.3755  -35.9644   23.3320 H   0  0  0  0  0  0
  -24.3581  -36.8905   22.2050 H   0  0  0  0  0  0
  -23.7230  -37.6526   23.6636 H   0  0  0  0  0  0
  -26.0552  -31.5831   20.5924 H   0  0  0  0  0  0
  -26.8229  -30.8742   21.9867 H   0  0  0  0  0  0
  -28.1021  -29.0763   21.1745 H   0  0  0  0  0  0
  -26.0604  -25.9867   18.9695 H   0  0  0  0  0  0
  -23.9797  -27.2910   19.0262 H   0  0  0  0  0  0
  -23.7221  -30.5951   19.4104 H   0  0  0  0  0  0
  -22.7356  -29.2379   19.8721 H   0  0  0  0  0  0
  -25.1285  -36.2006   25.0837 H   0  0  0  0  0  0
  -20.9943  -28.3134   24.1456 H   0  0  0  0  0  0
  -20.5700  -26.2209   23.3457 H   0  0  0  0  0  0
  -21.6623  -26.7516   22.1057 H   0  0  0  0  0  0
  -19.6937  -25.6352   21.1104 H   0  0  0  0  0  0
  -19.6698  -27.3253   20.6649 H   0  0  0  0  0  0
  -17.4204  -26.6747   21.3899 H   0  0  0  0  0  0
  -18.0289  -26.0003   22.8806 H   0  0  0  0  0  0
  -19.7908  -30.7200   24.2383 H   0  0  0  0  0  0
  -17.5003  -31.6245   24.5203 H   0  0  0  0  0  0
  -15.5342  -30.2961   23.7649 H   0  0  0  0  0  0
  -15.8684  -28.0835   22.6958 H   0  0  0  0  0  0
  -24.5881  -30.7084   25.7777 H   0  0  0  0  0  0
  -24.8935  -32.2870   26.4949 H   0  0  0  0  0  0
  -25.8072  -30.8840   27.0197 H   0  0  0  0  0  0
  -26.2838  -29.6822   24.1158 H   0  0  0  0  0  0
  -27.4043  -29.7292   25.4575 H   0  0  0  0  0  0
  -27.8686  -30.4363   23.9276 H   0  0  0  0  0  0
  -27.2637  -33.3622   26.2099 H   0  0  0  0  0  0
  -28.3817  -32.6936   25.0298 H   0  0  0  0  0  0
  -28.0727  -31.8449   26.5367 H   0  0  0  0  0  0
  -28.2618  -38.0097   24.7514 H   0  0  0  0  0  0
  -28.1061  -36.2633   24.6311 H   0  0  0  0  0  0
  -27.2307  -37.1493   25.8877 H   0  0  0  0  0  0
  -20.9269  -29.8835   21.7068 H   0  0  0  0  0  0
  -26.0202  -38.2888   24.1393 H   0  0  0  0  0  0
  -30.3418  -18.2457   20.0345 H   0  0  0  0  0  0
  -26.7097  -17.4089   22.2040 H   0  0  0  0  0  0
  -29.6485  -20.5940   19.7781 H   0  0  0  0  0  0
  -26.0324  -19.7325   21.9931 H   0  0  0  0  0  0
  -25.5295  -22.6145   19.8467 H   0  0  0  0  0  0
  -25.5099  -22.2255   21.5673 H   0  0  0  0  0  0
  -25.3006  -20.9701   20.3415 H   0  0  0  0  0  0
  -29.3027  -16.5036   22.1583 H   0  0  0  0  0  0
  -29.0488  -16.2173   20.1619 H   0  0  0  0  0  0
  -26.7777  -24.3292   20.1344 H   0  0  0  0  0  0
  -28.2316  -24.0751   19.2010 H   0  0  0  0  0  0
  -27.9167  -23.0199   22.0617 H   0  0  0  0  0  0
  -29.1837  -22.6072   20.9348 H   0  0  0  0  0  0
  -29.4980  -25.2818   21.0730 H   0  0  0  0  0  0
  -27.9734  -25.6326   21.8356 H   0  0  0  0  0  0
  -30.9331  -16.1939   21.4964 H   0  0  0  0  0  0
  1 25  1  0  0  0
  1 30  2  0  0  0
  1 82  1  0  0  0
  2  3  1  0  0  0
  2 25  1  0  0  0
  2 84  1  0  0  0
  2 85  1  0  0  0
  3  4  1  0  0  0
  3 86  1  0  0  0
  3 87  1  0  0  0
  4  5  1  0  0  0
  4 88  1  0  0  0
  4 89  1  0  0  0
  5  6  1  0  0  0
  5 26  1  0  0  0
  5 90  1  0  0  0
  6 25  1  0  0  0
  6 91  1  0  0  0
  6 92  1  0  0  0
  7  8  2  0  0  0
  7 26  1  0  0  0
  7 29  1  0  0  0
  8  9  1  0  0  0
  8 22  1  0  0  0
  9 10  1  0  0  0
  9 27  2  0  0  0
 10 11  2  0  0  0
 10 15  1  0  0  0
 11 12  1  0  0  0
 11 93  1  0  0  0
 12 13  2  0  0  0
 12 94  1  0  0  0
 13 14  1  0  0  0
 13 31  1  0  0  0
 14 15  2  0  0  0
 14 95  1  0  0  0
 15 96  1  0  0  0
 16 17  2  0  0  0
 16 21  1  0  0  0
 16 31  1  0  0  0
 17 18  1  0  0  0
 17 97  1  0  0  0
 18 19  2  0  0  0
 18 98  1  0  0  0
 19 20  1  0  0  0
 19 24  1  0  0  0
 20 21  2  0  0  0
 20 99  1  0  0  0
 21 23  1  0  0  0
 22 28  1  0  0  0
 22 32  2  0  0  0
 26 27  1  0  0  0
 28100  1  0  0  0
 28101  1  0  0  0
 29102  1  0  0  0
 29103  1  0  0  0
 33 34  1  0  0  0
 33 66  1  0  0  0
 33 70  2  0  0  0
 34 36  1  0  0  0
 34 59  1  0  0  0
 34104  1  0  0  0
 35 44  2  0  0  0
 35 45  1  0  0  0
 35 68  1  0  0  0
 36 56  1  0  0  0
 36105  1  0  0  0
 37 39  1  0  0  0
 37 47  1  0  0  0
 37 66  1  0  0  0
 37106  1  0  0  0
 38 43  2  0  0  0
 38 46  1  0  0  0
 38 47  1  0  0  0
 39 64  1  0  0  0
 39 67  2  0  0  0
 40 52  1  0  0  0
 40 53  2  0  0  0
 40 58  1  0  0  0
 41107  1  0  0  0
 41108  1  0  0  0
 41109  1  0  0  0
 41 48  1  0  0  0
 42 43  1  0  0  0
 42 66  1  0  0  0
 42110  1  0  0  0
 42111  1  0  0  0
 43 44  1  0  0  0
 44112  1  0  0  0
 45 46  2  0  0  0
 45113  1  0  0  0
 46114  1  0  0  0
 47115  1  0  0  0
 47116  1  0  0  0
 48 56  1  0  0  0
 48 65  1  0  0  0
 48117  1  0  0  0
 49 50  1  0  0  0
 49 53  1  0  0  0
 49 64  1  0  0  0
 49118  1  0  0  0
 50 51  1  0  0  0
 50119  1  0  0  0
 50120  1  0  0  0
 51 52  1  0  0  0
 51121  1  0  0  0
 51122  1  0  0  0
 52123  1  0  0  0
 52124  1  0  0  0
 53 54  1  0  0  0
 54 55  2  0  0  0
 54125  1  0  0  0
 55 57  1  0  0  0
 55126  1  0  0  0
 56 69  2  0  0  0
 57 58  2  0  0  0
 57127  1  0  0  0
 58128  1  0  0  0
 59 60  1  0  0  0
 59 61  1  0  0  0
 59 62  1  0  0  0
 60129  1  0  0  0
 60130  1  0  0  0
 60131  1  0  0  0
 61132  1  0  0  0
 61133  1  0  0  0
 61134  1  0  0  0
 62135  1  0  0  0
 62136  1  0  0  0
 62137  1  0  0  0
 63 65  1  0  0  0
 63138  1  0  0  0
 63139  1  0  0  0
 63140  1  0  0  0
 64141  1  0  0  0
 65142  1  0  0  0
 68 81  1  0  0  0
 71 73  2  0  0  0
 71 75  1  0  0  0
 71143  1  0  0  0
 72 74  1  0  0  0
 72 75  2  0  0  0
 72144  1  0  0  0
 73 76  1  0  0  0
 73145  1  0  0  0
 74 76  2  0  0  0
 74146  1  0  0  0
 75 78  1  0  0  0
 76 83  1  0  0  0
 77 83  1  0  0  0
 77147  1  0  0  0
 77148  1  0  0  0
 77149  1  0  0  0
 78 82  1  0  0  0
 78150  1  0  0  0
 78151  1  0  0  0
 79 80  1  0  0  0
 79 81  1  0  0  0
 79152  1  0  0  0
 79153  1  0  0  0
 80 83  1  0  0  0
 80154  1  0  0  0
 80155  1  0  0  0
 81156  1  0  0  0
 81157  1  0  0  0
 82158  1  0  0  0
M  ISO  4   1 100  68 101  81 101  82 100
M  END
> <chiral flag>
0

> <version>
0

> <s_m_source_file>
/data/baiqing/PycharmProjects/Reinvent-master-3.2/result/LINK_invent/BTK/process_docking_weight1_custom_product_contain_oxygen_bond_distance_aromatic_linkinvent_7_9_3/rearranged_h_0012.sdf

> <i_m_source_file_index>
28

> <r_mmod_Potential_Energy-OPLS-2005>
187.892166137695

> <r_mmod_Stretch_Energy-OPLS-2005>
44.2846984863281

> <r_mmod_Bend_Energy-OPLS-2005>
328.491333007812

> <r_mmod_Torsional_Energy-OPLS-2005>
267.513336181641

> <r_mmod_Improper_Torsional_Energy-OPLS-2005>
6.40733671188354

> <r_mmod_Van_der_Waal_Energy-OPLS-2005>
158.025238037109

> <r_mmod_Electrostatic_Energy-OPLS-2005>
-414.659057617188

> <r_mmod_Solvation_Energy-OPLS-2005>
-217.352798461914

> <b_mmod_Minimization_Converged-OPLS-2005>
0

> <r_mmod_RMS_Derivative-OPLS-2005>
2.65969800949097

$$$$
28
                    3D
 Structure written by MMmdl.
154162  0  0  1  0            999 V2000
  -30.6094  -14.7063   20.3582 C   0  0  0  0  0  0
  -30.4390  -12.3871   19.4741 C   0  0  0  0  0  0
  -29.5129  -12.3595   18.2392 C   0  0  0  0  0  0
  -28.0254  -12.2915   18.6532 C   0  0  0  0  0  0
  -27.6413  -13.2119   19.8466 C   0  0  2  0  0  0
  -28.6972  -13.1704   20.9702 C   0  0  0  0  0  0
  -25.2544  -13.8175   20.5714 C   0  0  0  0  0  0
  -24.1807  -13.0447   20.9232 C   0  0  0  0  0  0
  -24.6371  -11.6914   20.8814 C   0  0  0  0  0  0
  -23.9038  -10.4303   21.0461 C   0  0  0  0  0  0
  -24.3591   -9.4220   21.9244 C   0  0  0  0  0  0
  -23.6274   -8.2247   22.0782 C   0  0  0  0  0  0
  -22.4265   -8.0295   21.3557 C   0  0  0  0  0  0
  -21.9893   -9.0269   20.4664 C   0  0  0  0  0  0
  -22.7213  -10.2159   20.3103 C   0  0  0  0  0  0
  -21.6849   -6.0744   22.5281 C   0  0  0  0  0  0
  -21.4022   -6.5655   23.8218 C   0  0  0  0  0  0
  -21.3663   -5.6816   24.9185 C   0  0  0  0  0  0
  -21.6034   -4.3072   24.7235 C   0  0  0  0  0  0
  -21.8805   -3.8160   23.4358 C   0  0  0  0  0  0
  -21.9178   -4.6970   22.3414 C   0  0  0  0  0  0
  -22.7839  -13.5271   21.1875 C   0  0  0  0  0  0
  -22.1646   -4.2153   21.0987 F   0  0  0  0  0  0
  -21.5611   -3.4555   25.7747 F   0  0  0  0  0  0
  -29.9892  -13.4825   20.3528 N   0  0  0  0  0  0
  -26.2952  -12.9329   20.3353 N   0  0  0  0  0  0
  -25.9304  -11.6494   20.5865 N   0  0  0  0  0  0
  -22.0436  -12.8293   22.0420 N   0  0  0  0  0  0
  -25.4257  -15.1884   20.4045 N   0  0  0  0  0  0
  -31.8368  -14.7804   20.2368 O   0  0  0  0  0  0
  -21.6639   -6.8885   21.4243 O   0  0  0  0  0  0
  -22.3559  -14.5587   20.6723 O   0  0  0  0  0  0
  -24.6301  -31.8575   23.2049 C   0  0  0  0  0  0
  -25.9144  -32.4758   23.8389 C   0  0  1  0  0  0
  -27.2185  -27.2964   20.1397 C   0  0  0  0  0  0
  -25.5967  -33.8563   24.2332 N   0  0  0  0  0  0
  -23.4234  -30.4855   21.5462 C   0  0  2  0  0  0
  -24.8659  -28.9337   20.1154 C   0  0  0  0  0  0
  -22.7481  -29.4625   22.4915 C   0  0  0  0  0  0
  -18.0281  -28.1390   22.8474 C   0  0  0  0  0  0
  -24.1476  -36.7271   23.2644 C   0  0  0  0  0  0
  -25.9639  -30.7882   21.3715 C   0  0  0  0  0  0
  -26.0349  -29.4130   20.7165 C   0  0  0  0  0  0
  -27.2116  -28.6072   20.7135 C   0  0  0  0  0  0
  -26.0186  -26.8633   19.5310 C   0  0  0  0  0  0
  -24.8592  -27.6642   19.5172 C   0  0  0  0  0  0
  -23.6419  -29.8270   20.1580 C   0  0  0  0  0  0
  -25.4094  -36.3066   24.0354 C   0  0  1  0  0  0
  -20.5881  -28.3709   23.1261 C   0  0  2  0  0  0
  -20.6764  -26.9420   22.5408 C   0  0  0  0  0  0
  -19.5750  -26.6386   21.5197 C   0  0  0  0  0  0
  -18.1929  -26.7933   22.1608 C   0  0  0  0  0  0
  -19.1528  -28.8857   23.2868 C   0  0  0  0  0  0
  -18.9452  -30.1449   23.8908 C   0  0  0  0  0  0
  -17.6448  -30.6579   24.0573 C   0  0  0  0  0  0
  -25.9044  -34.9433   23.5131 C   0  0  0  0  0  0
  -16.5344  -29.9091   23.6318 C   0  0  0  0  0  0
  -16.7262  -28.6508   23.0335 C   0  0  0  0  0  0
  -26.4525  -31.6567   25.0766 C   0  0  0  0  0  0
  -25.3795  -31.3681   26.1529 C   0  0  0  0  0  0
  -27.0386  -30.3006   24.6213 C   0  0  0  0  0  0
  -27.6084  -32.4313   25.7529 C   0  0  0  0  0  0
  -27.5560  -37.1807   24.8481 C   0  0  0  0  0  0
  -21.4183  -29.3074   22.3658 N   0  0  0  0  0  0
  -26.4268  -37.3774   23.9426 N   0  0  0  0  0  0
  -24.6922  -31.0607   22.0982 N   0  0  0  0  0  0
  -23.4188  -28.8137   23.2985 O   0  0  0  0  0  0
  -28.3596  -26.4787   20.2172 O   0  0  0  0  0  0
  -26.5565  -34.8905   22.4676 O   0  0  0  0  0  0
  -23.5463  -32.1355   23.7385 O   0  0  0  0  0  0
  -30.5270  -18.1896   20.0148 C   0  0  0  0  0  0
  -28.5391  -17.4975   21.1753 C   0  0  0  0  0  0
  -30.1843  -19.5632   20.2231 C   0  0  0  0  0  0
  -28.2123  -18.8695   21.4002 C   0  0  0  0  0  0
  -29.7015  -17.1152   20.4614 C   0  0  0  0  0  0
  -29.0013  -19.9459   20.9094 C   0  0  0  0  0  0
  -29.7208  -15.8229   18.4297 C   0  0  0  0  0  0
  -28.4031  -23.8474   20.7857 C   0  0  0  0  0  0
  -28.8017  -22.3883   20.2483 C   0  0  0  0  0  0
  -28.4154  -25.0662   19.7511 C   0  0  0  0  0  0
  -29.8359  -15.7658   19.9007 N   0  0  0  0  0  0
  -28.5976  -21.2736   21.1815 O   0  0  0  0  0  0
  -31.4785  -12.5026   19.1598 H   0  0  0  0  0  0
  -30.3869  -11.4367   20.0077 H   0  0  0  0  0  0
  -29.7480  -11.4775   17.6418 H   0  0  0  0  0  0
  -29.7160  -13.1994   17.5802 H   0  0  0  0  0  0
  -27.8352  -11.2556   18.9359 H   0  0  0  0  0  0
  -27.3801  -12.4872   17.7964 H   0  0  0  0  0  0
  -27.6151  -14.2271   19.4624 H   0  0  0  0  0  0
  -28.7249  -12.1942   21.4562 H   0  0  0  0  0  0
  -28.4615  -13.9018   21.7458 H   0  0  0  0  0  0
  -25.2707   -9.5715   22.4864 H   0  0  0  0  0  0
  -23.9963   -7.4647   22.7526 H   0  0  0  0  0  0
  -21.0810   -8.8813   19.8987 H   0  0  0  0  0  0
  -22.3657  -10.9729   19.6252 H   0  0  0  0  0  0
  -21.2041   -7.6169   23.9726 H   0  0  0  0  0  0
  -21.1491   -6.0553   25.9088 H   0  0  0  0  0  0
  -22.0571   -2.7618   23.2863 H   0  0  0  0  0  0
  -22.3957  -11.9904   22.4791 H   0  0  0  0  0  0
  -21.1112  -13.1453   22.2679 H   0  0  0  0  0  0
  -24.6534  -15.8416   20.4815 H   0  0  0  0  0  0
  -26.2693  -15.6147   20.0428 H   0  0  0  0  0  0
  -26.7225  -32.5428   23.1146 H   0  0  0  0  0  0
  -25.0250  -33.9697   25.0565 H   0  0  0  0  0  0
  -22.7219  -31.3095   21.4060 H   0  0  0  0  0  0
  -23.3733  -35.9610   23.3321 H   0  0  0  0  0  0
  -24.3569  -36.8861   22.2055 H   0  0  0  0  0  0
  -23.7233  -37.6492   23.6631 H   0  0  0  0  0  0
  -26.0958  -31.5488   20.6010 H   0  0  0  0  0  0
  -26.8438  -30.8380   22.0011 H   0  0  0  0  0  0
  -28.1115  -28.9745   21.1861 H   0  0  0  0  0  0
  -25.9256  -25.8879   19.0853 H   0  0  0  0  0  0
  -23.9563  -27.2794   19.0638 H   0  0  0  0  0  0
  -23.7912  -30.6132   19.4168 H   0  0  0  0  0  0
  -22.7545  -29.2829   19.8300 H   0  0  0  0  0  0
  -25.1264  -36.1935   25.0848 H   0  0  0  0  0  0
  -20.9969  -28.3300   24.1381 H   0  0  0  0  0  0
  -20.5626  -26.2328   23.3623 H   0  0  0  0  0  0
  -21.6642  -26.7435   22.1227 H   0  0  0  0  0  0
  -19.6912  -25.6292   21.1242 H   0  0  0  0  0  0
  -19.6684  -27.3181   20.6715 H   0  0  0  0  0  0
  -17.4194  -26.6652   21.4020 H   0  0  0  0  0  0
  -18.0345  -26.0085   22.9014 H   0  0  0  0  0  0
  -19.7923  -30.7243   24.2312 H   0  0  0  0  0  0
  -17.5005  -31.6253   24.5185 H   0  0  0  0  0  0
  -15.5349  -30.2993   23.7634 H   0  0  0  0  0  0
  -15.8661  -28.0829   22.7050 H   0  0  0  0  0  0
  -24.5956  -30.7025   25.7896 H   0  0  0  0  0  0
  -24.9020  -32.2840   26.5029 H   0  0  0  0  0  0
  -25.8181  -30.8853   27.0276 H   0  0  0  0  0  0
  -26.2960  -29.6739   24.1277 H   0  0  0  0  0  0
  -27.4122  -29.7288   25.4714 H   0  0  0  0  0  0
  -27.8816  -30.4298   23.9427 H   0  0  0  0  0  0
  -27.2695  -33.3603   26.2126 H   0  0  0  0  0  0
  -28.3883  -32.6902   25.0354 H   0  0  0  0  0  0
  -28.0784  -31.8450   26.5438 H   0  0  0  0  0  0
  -28.2608  -38.0072   24.7473 H   0  0  0  0  0  0
  -28.1019  -36.2606   24.6356 H   0  0  0  0  0  0
  -27.2285  -37.1531   25.8888 H   0  0  0  0  0  0
  -20.9354  -29.8881   21.6939 H   0  0  0  0  0  0
  -26.0147  -38.2845   24.1443 H   0  0  0  0  0  0
  -31.4073  -17.9620   19.4295 H   0  0  0  0  0  0
  -27.8366  -16.7389   21.4920 H   0  0  0  0  0  0
  -30.8481  -20.3233   19.8388 H   0  0  0  0  0  0
  -27.2929  -19.0942   21.9224 H   0  0  0  0  0  0
  -30.6717  -15.6244   17.9304 H   0  0  0  0  0  0
  -29.3770  -16.7958   18.0744 H   0  0  0  0  0  0
  -28.9821  -15.1213   18.0573 H   0  0  0  0  0  0
  -29.0812  -24.0940   21.6043 H   0  0  0  0  0  0
  -27.4120  -23.7888   21.2376 H   0  0  0  0  0  0
  -29.8385  -22.4039   19.9138 H   0  0  0  0  0  0
  -28.1943  -22.1649   19.3705 H   0  0  0  0  0  0
  -27.6990  -24.8619   18.9597 H   0  0  0  0  0  0
  -29.3736  -25.0009   19.2357 H   0  0  0  0  0  0
  1 25  1  0  0  0
  1 30  2  0  0  0
  1 81  1  0  0  0
  2  3  1  0  0  0
  2 25  1  0  0  0
  2 83  1  0  0  0
  2 84  1  0  0  0
  3  4  1  0  0  0
  3 85  1  0  0  0
  3 86  1  0  0  0
  4  5  1  0  0  0
  4 87  1  0  0  0
  4 88  1  0  0  0
  5  6  1  0  0  0
  5 26  1  0  0  0
  5 89  1  0  0  0
  6 25  1  0  0  0
  6 90  1  0  0  0
  6 91  1  0  0  0
  7  8  2  0  0  0
  7 26  1  0  0  0
  7 29  1  0  0  0
  8  9  1  0  0  0
  8 22  1  0  0  0
  9 10  1  0  0  0
  9 27  2  0  0  0
 10 11  2  0  0  0
 10 15  1  0  0  0
 11 12  1  0  0  0
 11 92  1  0  0  0
 12 13  2  0  0  0
 12 93  1  0  0  0
 13 14  1  0  0  0
 13 31  1  0  0  0
 14 15  2  0  0  0
 14 94  1  0  0  0
 15 95  1  0  0  0
 16 17  2  0  0  0
 16 21  1  0  0  0
 16 31  1  0  0  0
 17 18  1  0  0  0
 17 96  1  0  0  0
 18 19  2  0  0  0
 18 97  1  0  0  0
 19 20  1  0  0  0
 19 24  1  0  0  0
 20 21  2  0  0  0
 20 98  1  0  0  0
 21 23  1  0  0  0
 22 28  1  0  0  0
 22 32  2  0  0  0
 26 27  1  0  0  0
 28 99  1  0  0  0
 28100  1  0  0  0
 29101  1  0  0  0
 29102  1  0  0  0
 33 34  1  0  0  0
 33 66  1  0  0  0
 33 70  2  0  0  0
 34 36  1  0  0  0
 34 59  1  0  0  0
 34103  1  0  0  0
 35 44  2  0  0  0
 35 45  1  0  0  0
 35 68  1  0  0  0
 36 56  1  0  0  0
 36104  1  0  0  0
 37 39  1  0  0  0
 37 47  1  0  0  0
 37 66  1  0  0  0
 37105  1  0  0  0
 38 43  2  0  0  0
 38 46  1  0  0  0
 38 47  1  0  0  0
 39 64  1  0  0  0
 39 67  2  0  0  0
 40 52  1  0  0  0
 40 53  2  0  0  0
 40 58  1  0  0  0
 41106  1  0  0  0
 41107  1  0  0  0
 41108  1  0  0  0
 41 48  1  0  0  0
 42 43  1  0  0  0
 42 66  1  0  0  0
 42109  1  0  0  0
 42110  1  0  0  0
 43 44  1  0  0  0
 44111  1  0  0  0
 45 46  2  0  0  0
 45112  1  0  0  0
 46113  1  0  0  0
 47114  1  0  0  0
 47115  1  0  0  0
 48 56  1  0  0  0
 48 65  1  0  0  0
 48116  1  0  0  0
 49 50  1  0  0  0
 49 53  1  0  0  0
 49 64  1  0  0  0
 49117  1  0  0  0
 50 51  1  0  0  0
 50118  1  0  0  0
 50119  1  0  0  0
 51 52  1  0  0  0
 51120  1  0  0  0
 51121  1  0  0  0
 52122  1  0  0  0
 52123  1  0  0  0
 53 54  1  0  0  0
 54 55  2  0  0  0
 54124  1  0  0  0
 55 57  1  0  0  0
 55125  1  0  0  0
 56 69  2  0  0  0
 57 58  2  0  0  0
 57126  1  0  0  0
 58127  1  0  0  0
 59 60  1  0  0  0
 59 61  1  0  0  0
 59 62  1  0  0  0
 60128  1  0  0  0
 60129  1  0  0  0
 60130  1  0  0  0
 61131  1  0  0  0
 61132  1  0  0  0
 61133  1  0  0  0
 62134  1  0  0  0
 62135  1  0  0  0
 62136  1  0  0  0
 63 65  1  0  0  0
 63137  1  0  0  0
 63138  1  0  0  0
 63139  1  0  0  0
 64140  1  0  0  0
 65141  1  0  0  0
 68 80  1  0  0  0
 71 73  2  0  0  0
 71 75  1  0  0  0
 71142  1  0  0  0
 72 74  1  0  0  0
 72 75  2  0  0  0
 72143  1  0  0  0
 73 76  1  0  0  0
 73144  1  0  0  0
 74 76  2  0  0  0
 74145  1  0  0  0
 75 81  1  0  0  0
 76 82  1  0  0  0
 77 81  1  0  0  0
 77146  1  0  0  0
 77147  1  0  0  0
 77148  1  0  0  0
 78 79  1  0  0  0
 78 80  1  0  0  0
 78149  1  0  0  0
 78150  1  0  0  0
 79 82  1  0  0  0
 79151  1  0  0  0
 79152  1  0  0  0
 80153  1  0  0  0
 80154  1  0  0  0
M  ISO  4   1 100  68 101  80 101  81 100
M  END
> <chiral flag>
0

> <version>
0

> <s_m_source_file>
/data/baiqing/PycharmProjects/Reinvent-master-3.2/result/LINK_invent/BTK/process_docking_weight1_custom_product_contain_oxygen_bond_distance_aromatic_linkinvent_7_9_3/rearranged_h_0012.sdf

> <i_m_source_file_index>
29

> <r_mmod_Potential_Energy-OPLS-2005>
326.434143066406

> <r_mmod_Stretch_Energy-OPLS-2005>
87.9355850219727

> <r_mmod_Bend_Energy-OPLS-2005>
167.475799560547

> <r_mmod_Torsional_Energy-OPLS-2005>
334.097442626953

> <r_mmod_Improper_Torsional_Energy-OPLS-2005>
26.7105770111084

> <r_mmod_Van_der_Waal_Energy-OPLS-2005>
141.255142211914

> <r_mmod_Electrostatic_Energy-OPLS-2005>
-312.797546386719

> <r_mmod_Solvation_Energy-OPLS-2005>
-196.871047973633

> <b_mmod_Minimization_Converged-OPLS-2005>
0

> <r_mmod_RMS_Derivative-OPLS-2005>
2.83015894889832

$$$$
29
                    3D
 Structure written by MMmdl.
151159  0  0  1  0            999 V2000
  -30.6215  -14.6492   20.4477 C   0  0  0  0  0  0
  -30.4275  -12.3810   19.4734 C   0  0  0  0  0  0
  -29.5099  -12.4986   18.2352 C   0  0  0  0  0  0
  -28.0306  -12.3465   18.6432 C   0  0  0  0  0  0
  -27.6507  -13.2230   19.8669 C   0  0  2  0  0  0
  -28.6941  -13.1038   21.0043 C   0  0  0  0  0  0
  -25.2533  -13.8202   20.5707 C   0  0  0  0  0  0
  -24.1808  -13.0439   20.9201 C   0  0  0  0  0  0
  -24.6390  -11.6922   20.8762 C   0  0  0  0  0  0
  -23.9078  -10.4284   21.0402 C   0  0  0  0  0  0
  -24.3626   -9.4210   21.9187 C   0  0  0  0  0  0
  -23.6294   -8.2251   22.0753 C   0  0  0  0  0  0
  -22.4289   -8.0277   21.3532 C   0  0  0  0  0  0
  -21.9916   -9.0261   20.4642 C   0  0  0  0  0  0
  -22.7247  -10.2135   20.3049 C   0  0  0  0  0  0
  -21.6852   -6.0738   22.5274 C   0  0  0  0  0  0
  -21.4025   -6.5641   23.8211 C   0  0  0  0  0  0
  -21.3665   -5.6787   24.9168 C   0  0  0  0  0  0
  -21.6033   -4.3050   24.7214 C   0  0  0  0  0  0
  -21.8827   -3.8147   23.4337 C   0  0  0  0  0  0
  -21.9203   -4.6966   22.3400 C   0  0  0  0  0  0
  -22.7819  -13.5225   21.1848 C   0  0  0  0  0  0
  -22.1660   -4.2147   21.0980 F   0  0  0  0  0  0
  -21.5629   -3.4543   25.7732 F   0  0  0  0  0  0
  -30.0094  -13.4232   20.4332 N   0  0  0  0  0  0
  -26.2965  -12.9392   20.3348 N   0  0  0  0  0  0
  -25.9320  -11.6541   20.5792 N   0  0  0  0  0  0
  -22.0487  -12.8222   22.0414 N   0  0  0  0  0  0
  -25.4253  -15.1930   20.4161 N   0  0  0  0  0  0
  -31.7872  -14.7798   20.0701 O   0  0  0  0  0  0
  -21.6643   -6.8884   21.4229 O   0  0  0  0  0  0
  -22.3500  -14.5539   20.6693 O   0  0  0  0  0  0
  -24.6235  -31.8587   23.2016 C   0  0  0  0  0  0
  -25.9099  -32.4776   23.8336 C   0  0  1  0  0  0
  -27.2385  -27.3275   20.1077 C   0  0  0  0  0  0
  -25.5910  -33.8575   24.2274 N   0  0  0  0  0  0
  -23.4180  -30.4806   21.5421 C   0  0  2  0  0  0
  -24.8655  -28.9282   20.1102 C   0  0  0  0  0  0
  -22.7452  -29.4625   22.4921 C   0  0  0  0  0  0
  -18.0285  -28.1385   22.8487 C   0  0  0  0  0  0
  -24.1488  -36.7295   23.2645 C   0  0  0  0  0  0
  -25.9553  -30.7898   21.3711 C   0  0  0  0  0  0
  -26.0296  -29.4151   20.7163 C   0  0  0  0  0  0
  -27.2125  -28.6230   20.7104 C   0  0  0  0  0  0
  -26.0491  -26.8779   19.4927 C   0  0  0  0  0  0
  -24.8766  -27.6643   19.4941 C   0  0  0  0  0  0
  -23.6315  -29.8072   20.1585 C   0  0  0  0  0  0
  -25.4113  -36.3080   24.0328 C   0  0  1  0  0  0
  -20.5890  -28.3688   23.1276 C   0  0  2  0  0  0
  -20.6783  -26.9412   22.5383 C   0  0  0  0  0  0
  -19.5759  -26.6405   21.5187 C   0  0  0  0  0  0
  -18.1934  -26.7947   22.1597 C   0  0  0  0  0  0
  -19.1546  -28.8844   23.2890 C   0  0  0  0  0  0
  -18.9476  -30.1437   23.8911 C   0  0  0  0  0  0
  -17.6476  -30.6567   24.0562 C   0  0  0  0  0  0
  -25.9047  -34.9450   23.5105 C   0  0  0  0  0  0
  -16.5357  -29.9076   23.6330 C   0  0  0  0  0  0
  -16.7273  -28.6499   23.0343 C   0  0  0  0  0  0
  -26.4493  -31.6584   25.0706 C   0  0  0  0  0  0
  -25.3728  -31.3703   26.1441 C   0  0  0  0  0  0
  -27.0335  -30.3004   24.6143 C   0  0  0  0  0  0
  -27.6038  -32.4330   25.7489 C   0  0  0  0  0  0
  -27.5577  -37.1803   24.8470 C   0  0  0  0  0  0
  -21.4166  -29.3057   22.3664 N   0  0  0  0  0  0
  -26.4291  -37.3770   23.9409 N   0  0  0  0  0  0
  -24.6847  -31.0599   22.0962 N   0  0  0  0  0  0
  -23.4173  -28.8167   23.3008 O   0  0  0  0  0  0
  -28.3918  -26.5347   20.1747 O   0  0  0  0  0  0
  -26.5618  -34.8915   22.4675 O   0  0  0  0  0  0
  -23.5398  -32.1379   23.7349 O   0  0  0  0  0  0
  -30.4792  -19.3825   20.9136 C   0  0  0  0  0  0
  -30.3697  -20.8030   20.9617 C   0  0  0  0  0  0
  -28.4566  -20.7329   19.5146 C   0  0  0  0  0  0
  -29.6065  -18.5851   20.1268 C   0  0  0  0  0  0
  -29.3631  -21.5269   20.2663 C   0  0  0  0  0  0
  -28.5870  -19.3107   19.4359 C   0  0  0  0  0  0
  -29.8451  -17.0406   19.8407 C   0  0  0  0  0  0
  -28.5459  -25.2436   19.4750 C   0  0  0  0  0  0
  -28.2580  -23.8332   20.1684 C   0  0  0  0  0  0
  -29.8109  -15.7459   20.6304 N   0  0  0  0  0  0
  -29.4158  -22.9391   20.3006 O   0  0  0  0  0  0
  -27.7311  -18.6335   18.6361 F   0  0  0  0  0  0
  -31.4746  -12.4849   19.1817 H   0  0  0  0  0  0
  -30.3467  -11.3896   19.9248 H   0  0  0  0  0  0
  -29.7726  -11.7377   17.4974 H   0  0  0  0  0  0
  -29.6663  -13.4628   17.7513 H   0  0  0  0  0  0
  -27.8615  -11.2936   18.8810 H   0  0  0  0  0  0
  -27.3810  -12.5753   17.7984 H   0  0  0  0  0  0
  -27.6655  -14.2535   19.5146 H   0  0  0  0  0  0
  -28.6945  -12.0988   21.4279 H   0  0  0  0  0  0
  -28.4500  -13.7786   21.8288 H   0  0  0  0  0  0
  -25.2776   -9.5689   22.4761 H   0  0  0  0  0  0
  -24.0000   -7.4643   22.7477 H   0  0  0  0  0  0
  -21.0851   -8.8785   19.8948 H   0  0  0  0  0  0
  -22.3713  -10.9675   19.6155 H   0  0  0  0  0  0
  -21.2016   -7.6151   23.9710 H   0  0  0  0  0  0
  -21.1477   -6.0523   25.9068 H   0  0  0  0  0  0
  -22.0602   -2.7609   23.2846 H   0  0  0  0  0  0
  -22.4092  -11.9876   22.4799 H   0  0  0  0  0  0
  -21.1088  -13.1205   22.2621 H   0  0  0  0  0  0
  -24.6576  -15.8473   20.5300 H   0  0  0  0  0  0
  -26.2762  -15.6383   20.0920 H   0  0  0  0  0  0
  -26.7159  -32.5438   23.1071 H   0  0  0  0  0  0
  -25.0034  -33.9712   25.0409 H   0  0  0  0  0  0
  -22.7123  -31.2999   21.3966 H   0  0  0  0  0  0
  -23.3746  -35.9635   23.3316 H   0  0  0  0  0  0
  -24.3577  -36.8908   22.2058 H   0  0  0  0  0  0
  -23.7247  -37.6498   23.6669 H   0  0  0  0  0  0
  -26.0828  -31.5516   20.6003 H   0  0  0  0  0  0
  -26.8380  -30.8422   21.9969 H   0  0  0  0  0  0
  -28.1068  -28.9932   21.1921 H   0  0  0  0  0  0
  -25.9993  -25.9030   19.0294 H   0  0  0  0  0  0
  -23.9817  -27.2811   19.0239 H   0  0  0  0  0  0
  -23.7488  -30.5803   19.3984 H   0  0  0  0  0  0
  -22.7523  -29.2311   19.8600 H   0  0  0  0  0  0
  -25.1304  -36.1925   25.0817 H   0  0  0  0  0  0
  -20.9977  -28.3238   24.1413 H   0  0  0  0  0  0
  -21.6647  -26.7437   22.1164 H   0  0  0  0  0  0
  -20.5677  -26.2280   23.3556 H   0  0  0  0  0  0
  -19.6886  -25.6326   21.1195 H   0  0  0  0  0  0
  -19.6724  -27.3262   20.6755 H   0  0  0  0  0  0
  -17.4208  -26.6691   21.4003 H   0  0  0  0  0  0
  -18.0284  -26.0080   22.8972 H   0  0  0  0  0  0
  -19.7948  -30.7255   24.2288 H   0  0  0  0  0  0
  -17.5051  -31.6236   24.5171 H   0  0  0  0  0  0
  -15.5353  -30.2993   23.7667 H   0  0  0  0  0  0
  -15.8674  -28.0809   22.7040 H   0  0  0  0  0  0
  -24.5915  -30.7040   25.7772 H   0  0  0  0  0  0
  -24.8910  -32.2856   26.4881 H   0  0  0  0  0  0
  -25.8069  -30.8873   27.0206 H   0  0  0  0  0  0
  -26.2889  -29.6754   24.1188 H   0  0  0  0  0  0
  -27.4065  -29.7270   25.4646 H   0  0  0  0  0  0
  -27.8760  -30.4316   23.9344 H   0  0  0  0  0  0
  -27.2633  -33.3638   26.2050 H   0  0  0  0  0  0
  -28.3861  -32.6869   25.0323 H   0  0  0  0  0  0
  -28.0690  -31.8454   26.5418 H   0  0  0  0  0  0
  -28.2603  -38.0087   24.7500 H   0  0  0  0  0  0
  -28.1054  -36.2615   24.6324 H   0  0  0  0  0  0
  -27.2289  -37.1499   25.8868 H   0  0  0  0  0  0
  -20.9331  -29.8780   21.6882 H   0  0  0  0  0  0
  -26.0174  -38.2847   24.1390 H   0  0  0  0  0  0
  -31.2948  -18.9099   21.4409 H   0  0  0  0  0  0
  -31.1036  -21.3562   21.5332 H   0  0  0  0  0  0
  -27.6841  -21.2047   18.9279 H   0  0  0  0  0  0
  -28.9769  -17.0770   20.5012 H   0  0  0  0  0  0
  -30.8887  -17.1609   20.1257 H   0  0  0  0  0  0
  -28.0493  -25.2824   18.5066 H   0  0  0  0  0  0
  -29.6013  -25.2260   19.2040 H   0  0  0  0  0  0
  -27.4521  -23.3397   19.6279 H   0  0  0  0  0  0
  -27.8713  -24.0108   21.1719 H   0  0  0  0  0  0
  -28.9104  -15.5259   21.0240 H   0  0  0  0  0  0
  1 25  1  0  0  0
  1 30  2  0  0  0
  1 80  1  0  0  0
  2  3  1  0  0  0
  2 25  1  0  0  0
  2 83  1  0  0  0
  2 84  1  0  0  0
  3  4  1  0  0  0
  3 85  1  0  0  0
  3 86  1  0  0  0
  4  5  1  0  0  0
  4 87  1  0  0  0
  4 88  1  0  0  0
  5  6  1  0  0  0
  5 26  1  0  0  0
  5 89  1  0  0  0
  6 25  1  0  0  0
  6 90  1  0  0  0
  6 91  1  0  0  0
  7  8  2  0  0  0
  7 26  1  0  0  0
  7 29  1  0  0  0
  8  9  1  0  0  0
  8 22  1  0  0  0
  9 10  1  0  0  0
  9 27  2  0  0  0
 10 11  2  0  0  0
 10 15  1  0  0  0
 11 12  1  0  0  0
 11 92  1  0  0  0
 12 13  2  0  0  0
 12 93  1  0  0  0
 13 14  1  0  0  0
 13 31  1  0  0  0
 14 15  2  0  0  0
 14 94  1  0  0  0
 15 95  1  0  0  0
 16 17  2  0  0  0
 16 21  1  0  0  0
 16 31  1  0  0  0
 17 18  1  0  0  0
 17 96  1  0  0  0
 18 19  2  0  0  0
 18 97  1  0  0  0
 19 20  1  0  0  0
 19 24  1  0  0  0
 20 21  2  0  0  0
 20 98  1  0  0  0
 21 23  1  0  0  0
 22 28  1  0  0  0
 22 32  2  0  0  0
 26 27  1  0  0  0
 28 99  1  0  0  0
 28100  1  0  0  0
 29101  1  0  0  0
 29102  1  0  0  0
 33 34  1  0  0  0
 33 66  1  0  0  0
 33 70  2  0  0  0
 34 36  1  0  0  0
 34 59  1  0  0  0
 34103  1  0  0  0
 35 44  2  0  0  0
 35 45  1  0  0  0
 35 68  1  0  0  0
 36 56  1  0  0  0
 36104  1  0  0  0
 37 39  1  0  0  0
 37 47  1  0  0  0
 37 66  1  0  0  0
 37105  1  0  0  0
 38 43  2  0  0  0
 38 46  1  0  0  0
 38 47  1  0  0  0
 39 64  1  0  0  0
 39 67  2  0  0  0
 40 52  1  0  0  0
 40 53  2  0  0  0
 40 58  1  0  0  0
 41106  1  0  0  0
 41107  1  0  0  0
 41108  1  0  0  0
 41 48  1  0  0  0
 42 43  1  0  0  0
 42 66  1  0  0  0
 42109  1  0  0  0
 42110  1  0  0  0
 43 44  1  0  0  0
 44111  1  0  0  0
 45 46  2  0  0  0
 45112  1  0  0  0
 46113  1  0  0  0
 47114  1  0  0  0
 47115  1  0  0  0
 48 56  1  0  0  0
 48 65  1  0  0  0
 48116  1  0  0  0
 49 50  1  0  0  0
 49 53  1  0  0  0
 49 64  1  0  0  0
 49117  1  0  0  0
 50 51  1  0  0  0
 50118  1  0  0  0
 50119  1  0  0  0
 51 52  1  0  0  0
 51120  1  0  0  0
 51121  1  0  0  0
 52122  1  0  0  0
 52123  1  0  0  0
 53 54  1  0  0  0
 54 55  2  0  0  0
 54124  1  0  0  0
 55 57  1  0  0  0
 55125  1  0  0  0
 56 69  2  0  0  0
 57 58  2  0  0  0
 57126  1  0  0  0
 58127  1  0  0  0
 59 60  1  0  0  0
 59 61  1  0  0  0
 59 62  1  0  0  0
 60128  1  0  0  0
 60129  1  0  0  0
 60130  1  0  0  0
 61131  1  0  0  0
 61132  1  0  0  0
 61133  1  0  0  0
 62134  1  0  0  0
 62135  1  0  0  0
 62136  1  0  0  0
 63 65  1  0  0  0
 63137  1  0  0  0
 63138  1  0  0  0
 63139  1  0  0  0
 64140  1  0  0  0
 65141  1  0  0  0
 68 78  1  0  0  0
 71 72  2  0  0  0
 71 74  1  0  0  0
 71142  1  0  0  0
 72 75  1  0  0  0
 72143  1  0  0  0
 73 75  2  0  0  0
 73 76  1  0  0  0
 73144  1  0  0  0
 74 76  2  0  0  0
 74 77  1  0  0  0
 75 81  1  0  0  0
 76 82  1  0  0  0
 77 80  1  0  0  0
 77145  1  0  0  0
 77146  1  0  0  0
 78 79  1  0  0  0
 78147  1  0  0  0
 78148  1  0  0  0
 79 81  1  0  0  0
 79149  1  0  0  0
 79150  1  0  0  0
 80151  1  0  0  0
M  ISO  4   1 100  68 101  78 101  80 100
M  END
> <chiral flag>
0

> <version>
0

> <s_m_source_file>
/data/baiqing/PycharmProjects/Reinvent-master-3.2/result/LINK_invent/BTK/process_docking_weight1_custom_product_contain_oxygen_bond_distance_aromatic_linkinvent_7_9_3/rearranged_h_0012.sdf

> <i_m_source_file_index>
30

> <r_mmod_Potential_Energy-OPLS-2005>
303.300933837891

> <r_mmod_Stretch_Energy-OPLS-2005>
83.030647277832

> <r_mmod_Bend_Energy-OPLS-2005>
379.425720214844

> <r_mmod_Torsional_Energy-OPLS-2005>
228.444473266602

> <r_mmod_Improper_Torsional_Energy-OPLS-2005>
9.71850299835205

> <r_mmod_Van_der_Waal_Energy-OPLS-2005>
146.954132080078

> <r_mmod_Electrostatic_Energy-OPLS-2005>
-379.869842529297

> <r_mmod_Solvation_Energy-OPLS-2005>
-212.534759521484

> <b_mmod_Minimization_Converged-OPLS-2005>
0

> <r_mmod_RMS_Derivative-OPLS-2005>
4.19597911834717

$$$$
30
                    3D
 Structure written by MMmdl.
172181  0  0  1  0            999 V2000
  -30.7135  -14.4879   20.6200 C   0  0  0  0  0  0
  -30.4180  -12.3359   19.4219 C   0  0  0  0  0  0
  -29.4861  -12.5155   18.2054 C   0  0  0  0  0  0
  -28.0123  -12.3395   18.6157 C   0  0  0  0  0  0
  -27.6513  -13.1780   19.8654 C   0  0  2  0  0  0
  -28.6998  -12.9753   20.9931 C   0  0  0  0  0  0
  -25.2549  -13.8050   20.5625 C   0  0  0  0  0  0
  -24.1812  -13.0359   20.9181 C   0  0  0  0  0  0
  -24.6372  -11.6829   20.8806 C   0  0  0  0  0  0
  -23.9045  -10.4240   21.0474 C   0  0  0  0  0  0
  -24.3626   -9.4154   21.9237 C   0  0  0  0  0  0
  -23.6327   -8.2164   22.0747 C   0  0  0  0  0  0
  -22.4312   -8.0207   21.3513 C   0  0  0  0  0  0
  -21.9923   -9.0195   20.4640 C   0  0  0  0  0  0
  -22.7226  -10.2098   20.3094 C   0  0  0  0  0  0
  -21.6835   -6.0695   22.5241 C   0  0  0  0  0  0
  -21.3984   -6.5615   23.8172 C   0  0  0  0  0  0
  -21.3693   -5.6774   24.9159 C   0  0  0  0  0  0
  -21.6090   -4.3031   24.7197 C   0  0  0  0  0  0
  -21.8814   -3.8102   23.4312 C   0  0  0  0  0  0
  -21.9188   -4.6925   22.3377 C   0  0  0  0  0  0
  -22.7852  -13.5193   21.1858 C   0  0  0  0  0  0
  -22.1632   -4.2106   21.0956 F   0  0  0  0  0  0
  -21.5715   -3.4530   25.7719 F   0  0  0  0  0  0
  -30.0190  -13.3230   20.4417 N   0  0  0  0  0  0
  -26.2945  -12.9161   20.3299 N   0  0  0  0  0  0
  -25.9267  -11.6358   20.5779 N   0  0  0  0  0  0
  -22.0501  -12.8242   22.0454 N   0  0  0  0  0  0
  -25.4237  -15.1765   20.4009 N   0  0  0  0  0  0
  -31.8429  -14.6340   20.1331 O   0  0  0  0  0  0
  -21.6647   -6.8825   21.4195 O   0  0  0  0  0  0
  -22.3573  -14.5480   20.6674 O   0  0  0  0  0  0
  -24.6119  -31.8682   23.2118 C   0  0  0  0  0  0
  -25.9040  -32.4822   23.8403 C   0  0  1  0  0  0
  -27.2520  -27.4822   20.0897 C   0  0  0  0  0  0
  -25.5884  -33.8623   24.2343 N   0  0  0  0  0  0
  -23.3998  -30.4958   21.5440 C   0  0  2  0  0  0
  -24.8518  -28.9567   20.1153 C   0  0  0  0  0  0
  -22.7351  -29.4736   22.4939 C   0  0  0  0  0  0
  -18.0263  -28.1375   22.8514 C   0  0  0  0  0  0
  -24.1482  -36.7347   23.2632 C   0  0  0  0  0  0
  -25.9229  -30.8471   21.3599 C   0  0  0  0  0  0
  -26.0052  -29.4831   20.7122 C   0  0  0  0  0  0
  -27.2100  -28.7500   20.7052 C   0  0  0  0  0  0
  -26.0869  -26.9525   19.5022 C   0  0  0  0  0  0
  -24.8856  -27.6885   19.5098 C   0  0  0  0  0  0
  -23.6093  -29.8152   20.1635 C   0  0  0  0  0  0
  -25.4091  -36.3133   24.0341 C   0  0  1  0  0  0
  -20.5853  -28.3690   23.1279 C   0  0  2  0  0  0
  -20.6799  -26.9429   22.5412 C   0  0  0  0  0  0
  -19.5805  -26.6390   21.5192 C   0  0  0  0  0  0
  -18.1956  -26.7929   22.1578 C   0  0  0  0  0  0
  -19.1508  -28.8823   23.2915 C   0  0  0  0  0  0
  -18.9455  -30.1430   23.8961 C   0  0  0  0  0  0
  -17.6473  -30.6605   24.0568 C   0  0  0  0  0  0
  -25.9012  -34.9481   23.5158 C   0  0  0  0  0  0
  -16.5359  -29.9140   23.6308 C   0  0  0  0  0  0
  -16.7250  -28.6509   23.0385 C   0  0  0  0  0  0
  -26.4469  -31.6570   25.0710 C   0  0  0  0  0  0
  -25.3746  -31.3708   26.1479 C   0  0  0  0  0  0
  -27.0283  -30.2994   24.6113 C   0  0  0  0  0  0
  -27.6107  -32.4227   25.7429 C   0  0  0  0  0  0
  -27.5579  -37.1835   24.8448 C   0  0  0  0  0  0
  -21.4066  -29.3072   22.3658 N   0  0  0  0  0  0
  -26.4277  -37.3811   23.9408 N   0  0  0  0  0  0
  -24.6632  -31.0826   22.0990 N   0  0  0  0  0  0
  -23.4102  -28.8315   23.2998 O   0  0  0  0  0  0
  -28.4135  -26.7509   20.0727 O   0  0  0  0  0  0
  -26.5594  -34.8914   22.4726 O   0  0  0  0  0  0
  -23.5319  -32.1404   23.7554 O   0  0  0  0  0  0
  -30.6556  -21.0055   20.3458 C   0  0  0  0  0  0
  -30.7351  -21.9294   19.2846 C   0  0  0  0  0  0
  -28.3255  -22.2196   19.3586 C   0  0  0  0  0  0
  -29.4158  -20.6827   20.9443 C   0  0  0  0  0  0
  -29.5730  -22.5713   18.8134 C   0  0  0  0  0  0
  -28.2405  -21.2781   20.4037 C   0  0  0  0  0  0
  -28.5739  -17.5606   21.3069 C   0  0  0  0  0  0
  -30.5179  -17.6373   22.7728 C   0  0  0  0  0  0
  -28.9193  -16.1337   20.8453 C   0  0  0  0  0  0
  -31.0417  -16.2703   22.2653 C   0  0  0  0  0  0
  -29.7874  -18.4082   21.6713 C   0  0  0  0  0  0
  -28.3346  -21.4345   23.6625 C   0  0  0  0  0  0
  -29.2968  -25.9551   17.9560 C   0  0  0  0  0  0
  -28.4262  -19.9970   23.1140 C   0  0  0  0  0  0
  -29.3021  -27.0769   19.0099 C   0  0  0  0  0  0
  -30.2098  -24.7679   18.3155 C   0  0  0  0  0  0
  -30.1494  -15.4845   21.3674 N   0  0  0  0  0  0
  -29.4123  -19.7859   22.0419 N   0  0  0  0  0  0
  -29.6427  -23.5438   17.8472 O   0  0  0  0  0  0
  -27.0099  -20.9531   20.8662 F   0  0  0  0  0  0
  -31.4593  -12.4434   19.1174 H   0  0  0  0  0  0
  -30.3330  -11.3258   19.8203 H   0  0  0  0  0  0
  -29.7504  -11.8105   17.4149 H   0  0  0  0  0  0
  -29.6231  -13.5118   17.7860 H   0  0  0  0  0  0
  -27.8364  -11.2797   18.8080 H   0  0  0  0  0  0
  -27.3580  -12.6010   17.7813 H   0  0  0  0  0  0
  -27.6766  -14.2063   19.5158 H   0  0  0  0  0  0
  -28.7040  -11.9323   21.3144 H   0  0  0  0  0  0
  -28.4634  -13.5472   21.8905 H   0  0  0  0  0  0
  -25.2785   -9.5624   22.4821 H   0  0  0  0  0  0
  -24.0017   -7.4572   22.7495 H   0  0  0  0  0  0
  -21.0812   -8.8739   19.9013 H   0  0  0  0  0  0
  -22.3684  -10.9649   19.6220 H   0  0  0  0  0  0
  -21.1896   -7.6116   23.9637 H   0  0  0  0  0  0
  -21.1585   -6.0526   25.9068 H   0  0  0  0  0  0
  -22.0588   -2.7553   23.2822 H   0  0  0  0  0  0
  -22.4115  -11.9901   22.4818 H   0  0  0  0  0  0
  -21.1121  -13.1264   22.2669 H   0  0  0  0  0  0
  -24.6485  -15.8218   20.5039 H   0  0  0  0  0  0
  -26.2676  -15.6204   20.0668 H   0  0  0  0  0  0
  -26.7134  -32.5548   23.1179 H   0  0  0  0  0  0
  -25.0008  -33.9780   25.0486 H   0  0  0  0  0  0
  -22.6901  -31.3138   21.4012 H   0  0  0  0  0  0
  -23.3719  -35.9710   23.3291 H   0  0  0  0  0  0
  -24.3573  -36.8945   22.2043 H   0  0  0  0  0  0
  -23.7259  -37.6566   23.6632 H   0  0  0  0  0  0
  -26.0269  -31.6120   20.5911 H   0  0  0  0  0  0
  -26.8162  -30.9053   21.9720 H   0  0  0  0  0  0
  -28.0995  -29.1585   21.1683 H   0  0  0  0  0  0
  -26.1147  -25.9764   19.0411 H   0  0  0  0  0  0
  -24.0007  -27.2744   19.0482 H   0  0  0  0  0  0
  -23.7076  -30.5819   19.3937 H   0  0  0  0  0  0
  -22.7375  -29.2202   19.8830 H   0  0  0  0  0  0
  -25.1272  -36.2003   25.0835 H   0  0  0  0  0  0
  -20.9987  -28.3326   24.1373 H   0  0  0  0  0  0
  -20.5676  -26.2339   23.3616 H   0  0  0  0  0  0
  -21.6699  -26.7509   22.1248 H   0  0  0  0  0  0
  -19.7013  -25.6289   21.1245 H   0  0  0  0  0  0
  -19.6764  -27.3198   20.6713 H   0  0  0  0  0  0
  -17.4260  -26.6650   21.3952 H   0  0  0  0  0  0
  -18.0385  -26.0020   22.8920 H   0  0  0  0  0  0
  -19.7937  -30.7210   24.2368 H   0  0  0  0  0  0
  -17.5046  -31.6293   24.5177 H   0  0  0  0  0  0
  -15.5378  -30.3101   23.7590 H   0  0  0  0  0  0
  -15.8616  -28.0858   22.7129 H   0  0  0  0  0  0
  -24.5930  -30.7024   25.7831 H   0  0  0  0  0  0
  -24.8940  -32.2876   26.4891 H   0  0  0  0  0  0
  -25.8115  -30.8904   27.0240 H   0  0  0  0  0  0
  -26.2833  -29.6711   24.1215 H   0  0  0  0  0  0
  -27.4055  -29.7269   25.4592 H   0  0  0  0  0  0
  -27.8655  -30.4257   23.9253 H   0  0  0  0  0  0
  -27.2828  -33.3522   26.2069 H   0  0  0  0  0  0
  -28.3882  -32.6743   25.0212 H   0  0  0  0  0  0
  -28.0798  -31.8278   26.5258 H   0  0  0  0  0  0
  -28.2647  -38.0096   24.7484 H   0  0  0  0  0  0
  -28.1037  -36.2635   24.6290 H   0  0  0  0  0  0
  -27.2306  -37.1518   25.8858 H   0  0  0  0  0  0
  -20.9195  -29.8682   21.6822 H   0  0  0  0  0  0
  -26.0162  -38.2884   24.1435 H   0  0  0  0  0  0
  -31.5656  -20.5542   20.7123 H   0  0  0  0  0  0
  -31.6953  -22.1602   18.8468 H   0  0  0  0  0  0
  -27.4273  -22.6846   18.9823 H   0  0  0  0  0  0
  -27.9252  -17.4823   22.1797 H   0  0  0  0  0  0
  -27.9732  -18.0545   20.5421 H   0  0  0  0  0  0
  -31.3616  -18.2215   23.1447 H   0  0  0  0  0  0
  -29.8566  -17.4768   23.6270 H   0  0  0  0  0  0
  -28.9443  -16.1218   19.7537 H   0  0  0  0  0  0
  -28.0651  -15.5397   21.1545 H   0  0  0  0  0  0
  -31.2970  -15.6497   23.1267 H   0  0  0  0  0  0
  -31.9916  -16.4654   21.7644 H   0  0  0  0  0  0
  -30.4504  -18.4406   20.8064 H   0  0  0  0  0  0
  -27.6613  -21.4550   24.5231 H   0  0  0  0  0  0
  -27.9250  -22.1426   22.9427 H   0  0  0  0  0  0
  -29.3000  -21.8149   23.9954 H   0  0  0  0  0  0
  -29.6197  -26.3674   16.9995 H   0  0  0  0  0  0
  -28.2723  -25.6157   17.8008 H   0  0  0  0  0  0
  -27.4399  -19.6754   22.7782 H   0  0  0  0  0  0
  -28.6749  -19.3414   23.9476 H   0  0  0  0  0  0
  -29.0343  -28.0286   18.5450 H   0  0  0  0  0  0
  -30.3056  -27.2038   19.4172 H   0  0  0  0  0  0
  -30.3836  -24.7487   19.3923 H   0  0  0  0  0  0
  -31.1902  -24.8945   17.8588 H   0  0  0  0  0  0
  1 25  1  0  0  0
  1 30  2  0  0  0
  1 87  1  0  0  0
  2  3  1  0  0  0
  2 25  1  0  0  0
  2 91  1  0  0  0
  2 92  1  0  0  0
  3  4  1  0  0  0
  3 93  1  0  0  0
  3 94  1  0  0  0
  4  5  1  0  0  0
  4 95  1  0  0  0
  4 96  1  0  0  0
  5  6  1  0  0  0
  5 26  1  0  0  0
  5 97  1  0  0  0
  6 25  1  0  0  0
  6 98  1  0  0  0
  6 99  1  0  0  0
  7  8  2  0  0  0
  7 26  1  0  0  0
  7 29  1  0  0  0
  8  9  1  0  0  0
  8 22  1  0  0  0
  9 10  1  0  0  0
  9 27  2  0  0  0
 10 11  2  0  0  0
 10 15  1  0  0  0
 11 12  1  0  0  0
 11100  1  0  0  0
 12 13  2  0  0  0
 12101  1  0  0  0
 13 14  1  0  0  0
 13 31  1  0  0  0
 14 15  2  0  0  0
 14102  1  0  0  0
 15103  1  0  0  0
 16 17  2  0  0  0
 16 21  1  0  0  0
 16 31  1  0  0  0
 17 18  1  0  0  0
 17104  1  0  0  0
 18 19  2  0  0  0
 18105  1  0  0  0
 19 20  1  0  0  0
 19 24  1  0  0  0
 20 21  2  0  0  0
 20106  1  0  0  0
 21 23  1  0  0  0
 22 28  1  0  0  0
 22 32  2  0  0  0
 26 27  1  0  0  0
 28107  1  0  0  0
 28108  1  0  0  0
 29109  1  0  0  0
 29110  1  0  0  0
 33 34  1  0  0  0
 33 66  1  0  0  0
 33 70  2  0  0  0
 34 36  1  0  0  0
 34 59  1  0  0  0
 34111  1  0  0  0
 35 44  2  0  0  0
 35 45  1  0  0  0
 35 68  1  0  0  0
 36 56  1  0  0  0
 36112  1  0  0  0
 37 39  1  0  0  0
 37 47  1  0  0  0
 37 66  1  0  0  0
 37113  1  0  0  0
 38 43  2  0  0  0
 38 46  1  0  0  0
 38 47  1  0  0  0
 39 64  1  0  0  0
 39 67  2  0  0  0
 40 52  1  0  0  0
 40 53  2  0  0  0
 40 58  1  0  0  0
 41114  1  0  0  0
 41115  1  0  0  0
 41116  1  0  0  0
 41 48  1  0  0  0
 42 43  1  0  0  0
 42 66  1  0  0  0
 42117  1  0  0  0
 42118  1  0  0  0
 43 44  1  0  0  0
 44119  1  0  0  0
 45 46  2  0  0  0
 45120  1  0  0  0
 46121  1  0  0  0
 47122  1  0  0  0
 47123  1  0  0  0
 48 56  1  0  0  0
 48 65  1  0  0  0
 48124  1  0  0  0
 49 50  1  0  0  0
 49 53  1  0  0  0
 49 64  1  0  0  0
 49125  1  0  0  0
 50 51  1  0  0  0
 50126  1  0  0  0
 50127  1  0  0  0
 51 52  1  0  0  0
 51128  1  0  0  0
 51129  1  0  0  0
 52130  1  0  0  0
 52131  1  0  0  0
 53 54  1  0  0  0
 54 55  2  0  0  0
 54132  1  0  0  0
 55 57  1  0  0  0
 55133  1  0  0  0
 56 69  2  0  0  0
 57 58  2  0  0  0
 57134  1  0  0  0
 58135  1  0  0  0
 59 60  1  0  0  0
 59 61  1  0  0  0
 59 62  1  0  0  0
 60136  1  0  0  0
 60137  1  0  0  0
 60138  1  0  0  0
 61139  1  0  0  0
 61140  1  0  0  0
 61141  1  0  0  0
 62142  1  0  0  0
 62143  1  0  0  0
 62144  1  0  0  0
 63 65  1  0  0  0
 63145  1  0  0  0
 63146  1  0  0  0
 63147  1  0  0  0
 64148  1  0  0  0
 65149  1  0  0  0
 68 85  1  0  0  0
 71 72  2  0  0  0
 71 74  1  0  0  0
 71150  1  0  0  0
 72 75  1  0  0  0
 72151  1  0  0  0
 73 75  2  0  0  0
 73 76  1  0  0  0
 73152  1  0  0  0
 74 76  2  0  0  0
 74 88  1  0  0  0
 75 89  1  0  0  0
 76 90  1  0  0  0
 77 79  1  0  0  0
 77 81  1  0  0  0
 77153  1  0  0  0
 77154  1  0  0  0
 78 80  1  0  0  0
 78 81  1  0  0  0
 78155  1  0  0  0
 78156  1  0  0  0
 79 87  1  0  0  0
 79157  1  0  0  0
 79158  1  0  0  0
 80 87  1  0  0  0
 80159  1  0  0  0
 80160  1  0  0  0
 81 88  1  0  0  0
 81161  1  0  0  0
 82 84  1  0  0  0
 82162  1  0  0  0
 82163  1  0  0  0
 82164  1  0  0  0
 83 85  1  0  0  0
 83 86  1  0  0  0
 83165  1  0  0  0
 83166  1  0  0  0
 84 88  1  0  0  0
 84167  1  0  0  0
 84168  1  0  0  0
 85169  1  0  0  0
 85170  1  0  0  0
 86 89  1  0  0  0
 86171  1  0  0  0
 86172  1  0  0  0
M  ISO  4   1 100  68 101  85 101  87 100
M  END
> <chiral flag>
0

> <version>
0

> <s_m_source_file>
/data/baiqing/PycharmProjects/Reinvent-master-3.2/result/LINK_invent/BTK/process_docking_weight1_custom_product_contain_oxygen_bond_distance_aromatic_linkinvent_7_9_3/rearranged_h_0012.sdf

> <i_m_source_file_index>
31

> <r_mmod_Potential_Energy-OPLS-2005>
248.917388916016

> <r_mmod_Stretch_Energy-OPLS-2005>
43.6134834289551

> <r_mmod_Bend_Energy-OPLS-2005>
122.701164245605

> <r_mmod_Torsional_Energy-OPLS-2005>
400.625915527344

> <r_mmod_Improper_Torsional_Energy-OPLS-2005>
5.96765422821045

> <r_mmod_Van_der_Waal_Energy-OPLS-2005>
169.658294677734

> <r_mmod_Electrostatic_Energy-OPLS-2005>
-304.687347412109

> <r_mmod_Solvation_Energy-OPLS-2005>
-201.398391723633

> <b_mmod_Minimization_Converged-OPLS-2005>
0

> <r_mmod_RMS_Derivative-OPLS-2005>
5.35634660720825

$$$$
31
                    3D
 Structure written by MMmdl.
163172  0  0  1  0            999 V2000
  -30.6334  -14.6154   20.5332 C   0  0  0  0  0  0
  -30.4395  -12.3739   19.4668 C   0  0  0  0  0  0
  -29.5171  -12.5009   18.2339 C   0  0  0  0  0  0
  -28.0378  -12.3423   18.6391 C   0  0  0  0  0  0
  -27.6589  -13.2121   19.8688 C   0  0  2  0  0  0
  -28.6972  -13.0488   21.0021 C   0  0  0  0  0  0
  -25.2576  -13.8161   20.5693 C   0  0  0  0  0  0
  -24.1823  -13.0422   20.9170 C   0  0  0  0  0  0
  -24.6392  -11.6901   20.8714 C   0  0  0  0  0  0
  -23.9061  -10.4288   21.0388 C   0  0  0  0  0  0
  -24.3610   -9.4212   21.9174 C   0  0  0  0  0  0
  -23.6285   -8.2254   22.0755 C   0  0  0  0  0  0
  -22.4270   -8.0286   21.3544 C   0  0  0  0  0  0
  -21.9908   -9.0252   20.4638 C   0  0  0  0  0  0
  -22.7236  -10.2130   20.3043 C   0  0  0  0  0  0
  -21.6852   -6.0739   22.5280 C   0  0  0  0  0  0
  -21.4016   -6.5638   23.8217 C   0  0  0  0  0  0
  -21.3662   -5.6787   24.9176 C   0  0  0  0  0  0
  -21.6047   -4.3049   24.7224 C   0  0  0  0  0  0
  -21.8817   -3.8147   23.4341 C   0  0  0  0  0  0
  -21.9190   -4.6967   22.3400 C   0  0  0  0  0  0
  -22.7854  -13.5231   21.1849 C   0  0  0  0  0  0
  -22.1657   -4.2156   21.0973 F   0  0  0  0  0  0
  -21.5633   -3.4531   25.7738 F   0  0  0  0  0  0
  -30.0208  -13.3910   20.4539 N   0  0  0  0  0  0
  -26.3002  -12.9339   20.3314 N   0  0  0  0  0  0
  -25.9316  -11.6491   20.5722 N   0  0  0  0  0  0
  -22.0491  -12.8218   22.0403 N   0  0  0  0  0  0
  -25.4283  -15.1886   20.4192 N   0  0  0  0  0  0
  -31.7606  -14.8029   20.0647 O   0  0  0  0  0  0
  -21.6631   -6.8885   21.4243 O   0  0  0  0  0  0
  -22.3554  -14.5551   20.6729 O   0  0  0  0  0  0
  -24.6241  -31.8613   23.2027 C   0  0  0  0  0  0
  -25.9088  -32.4798   23.8350 C   0  0  1  0  0  0
  -27.2264  -27.3392   20.1199 C   0  0  0  0  0  0
  -25.5921  -33.8595   24.2280 N   0  0  0  0  0  0
  -23.4174  -30.4829   21.5460 C   0  0  2  0  0  0
  -24.8692  -28.9509   20.1006 C   0  0  0  0  0  0
  -22.7465  -29.4617   22.4951 C   0  0  0  0  0  0
  -18.0273  -28.1372   22.8493 C   0  0  0  0  0  0
  -24.1497  -36.7302   23.2636 C   0  0  0  0  0  0
  -25.9576  -30.7984   21.3732 C   0  0  0  0  0  0
  -26.0353  -29.4307   20.7106 C   0  0  0  0  0  0
  -27.2189  -28.6376   20.7105 C   0  0  0  0  0  0
  -26.0475  -26.9199   19.4586 C   0  0  0  0  0  0
  -24.8793  -27.7032   19.4594 C   0  0  0  0  0  0
  -23.6299  -29.8202   20.1604 C   0  0  0  0  0  0
  -25.4124  -36.3093   24.0333 C   0  0  1  0  0  0
  -20.5875  -28.3675   23.1319 C   0  0  2  0  0  0
  -20.6780  -26.9401   22.5445 C   0  0  0  0  0  0
  -19.5761  -26.6367   21.5240 C   0  0  0  0  0  0
  -18.1917  -26.7927   22.1606 C   0  0  0  0  0  0
  -19.1530  -28.8842   23.2890 C   0  0  0  0  0  0
  -18.9446  -30.1446   23.8897 C   0  0  0  0  0  0
  -17.6448  -30.6578   24.0566 C   0  0  0  0  0  0
  -25.9060  -34.9464   23.5105 C   0  0  0  0  0  0
  -16.5341  -29.9079   23.6339 C   0  0  0  0  0  0
  -16.7264  -28.6503   23.0353 C   0  0  0  0  0  0
  -26.4493  -31.6605   25.0706 C   0  0  0  0  0  0
  -25.3724  -31.3732   26.1430 C   0  0  0  0  0  0
  -27.0369  -30.3041   24.6153 C   0  0  0  0  0  0
  -27.6044  -32.4381   25.7464 C   0  0  0  0  0  0
  -27.5599  -37.1777   24.8446 C   0  0  0  0  0  0
  -21.4180  -29.3026   22.3709 N   0  0  0  0  0  0
  -26.4300  -37.3784   23.9412 N   0  0  0  0  0  0
  -24.6838  -31.0640   22.0973 N   0  0  0  0  0  0
  -23.4207  -28.8155   23.3014 O   0  0  0  0  0  0
  -28.3114  -26.4561   20.2498 O   0  0  0  0  0  0
  -26.5622  -34.8927   22.4670 O   0  0  0  0  0  0
  -23.5412  -32.1414   23.7361 O   0  0  0  0  0  0
  -29.6980  -19.3096   22.0723 C   0  0  0  0  0  0
  -29.7190  -17.8834   22.1165 C   0  0  0  0  0  0
  -30.2497  -17.7806   19.7592 C   0  0  0  0  0  0
  -29.8914  -19.9983   20.8466 C   0  0  0  0  0  0
  -30.1793  -19.2065   19.7257 C   0  0  0  0  0  0
  -30.0023  -17.0810   20.9755 C   0  0  0  0  0  0
  -30.4326  -20.0759   18.5222 C   0  0  0  0  0  0
  -30.0102  -21.5030   18.9674 C   0  0  0  0  0  0
  -29.9796  -21.5373   20.5237 C   0  0  1  0  0  0
  -27.2045  -25.1281   21.9767 C   0  0  0  0  0  0
  -28.8484  -22.3548   22.5576 C   0  0  0  0  0  0
  -29.2465  -24.0404   20.7567 C   0  0  0  0  0  0
  -28.0024  -25.0531   20.6504 C   0  0  2  0  0  0
  -29.8982  -15.6294   21.0810 N   0  0  0  0  0  0
  -28.9842  -22.5588   21.0911 N   0  3  1  0  0  0
  -31.4852  -12.4855   19.1762 H   0  0  0  0  0  0
  -30.3593  -11.3756   19.9008 H   0  0  0  0  0  0
  -29.7834  -11.7495   17.4890 H   0  0  0  0  0  0
  -29.6691  -13.4713   17.7591 H   0  0  0  0  0  0
  -27.8749  -11.2890   18.8708 H   0  0  0  0  0  0
  -27.3879  -12.5696   17.7940 H   0  0  0  0  0  0
  -27.6871  -14.2504   19.5378 H   0  0  0  0  0  0
  -28.6988  -12.0201   21.3671 H   0  0  0  0  0  0
  -28.4353  -13.6636   21.8636 H   0  0  0  0  0  0
  -25.2759   -9.5696   22.4741 H   0  0  0  0  0  0
  -23.9997   -7.4652   22.7480 H   0  0  0  0  0  0
  -21.0850   -8.8760   19.8937 H   0  0  0  0  0  0
  -22.3693  -10.9663   19.6144 H   0  0  0  0  0  0
  -21.2008   -7.6148   23.9727 H   0  0  0  0  0  0
  -21.1489   -6.0513   25.9082 H   0  0  0  0  0  0
  -22.0594   -2.7607   23.2833 H   0  0  0  0  0  0
  -22.4077  -11.9853   22.4755 H   0  0  0  0  0  0
  -21.1116  -13.1260   22.2624 H   0  0  0  0  0  0
  -24.6640  -15.8423   20.5525 H   0  0  0  0  0  0
  -26.2916  -15.6392   20.1396 H   0  0  0  0  0  0
  -26.7146  -32.5474   23.1093 H   0  0  0  0  0  0
  -25.0094  -33.9770   25.0441 H   0  0  0  0  0  0
  -22.7101  -31.3021   21.4040 H   0  0  0  0  0  0
  -23.3778  -35.9606   23.3273 H   0  0  0  0  0  0
  -24.3568  -36.8974   22.2052 H   0  0  0  0  0  0
  -23.7249  -37.6488   23.6694 H   0  0  0  0  0  0
  -26.0878  -31.5643   20.6070 H   0  0  0  0  0  0
  -26.8372  -30.8452   22.0035 H   0  0  0  0  0  0
  -28.1075  -28.9911   21.2147 H   0  0  0  0  0  0
  -25.9990  -25.9661   18.9553 H   0  0  0  0  0  0
  -23.9888  -27.3403   18.9657 H   0  0  0  0  0  0
  -23.7314  -30.5975   19.4021 H   0  0  0  0  0  0
  -22.7538  -29.2387   19.8682 H   0  0  0  0  0  0
  -25.1301  -36.1937   25.0830 H   0  0  0  0  0  0
  -20.9953  -28.3255   24.1446 H   0  0  0  0  0  0
  -20.5708  -26.2278   23.3634 H   0  0  0  0  0  0
  -21.6647  -26.7452   22.1214 H   0  0  0  0  0  0
  -19.6934  -25.6271   21.1277 H   0  0  0  0  0  0
  -19.6732  -27.3178   20.6770 H   0  0  0  0  0  0
  -17.4225  -26.6727   21.3964 H   0  0  0  0  0  0
  -18.0241  -26.0038   22.8961 H   0  0  0  0  0  0
  -19.7916  -30.7254   24.2277 H   0  0  0  0  0  0
  -17.5002  -31.6262   24.5160 H   0  0  0  0  0  0
  -15.5340  -30.2978   23.7672 H   0  0  0  0  0  0
  -15.8658  -28.0832   22.7066 H   0  0  0  0  0  0
  -24.5948  -30.7026   25.7760 H   0  0  0  0  0  0
  -24.8835  -32.2881   26.4783 H   0  0  0  0  0  0
  -25.8037  -30.8979   27.0249 H   0  0  0  0  0  0
  -26.2945  -29.6751   24.1220 H   0  0  0  0  0  0
  -27.4153  -29.7337   25.4644 H   0  0  0  0  0  0
  -27.8767  -30.4359   23.9327 H   0  0  0  0  0  0
  -27.2641  -33.3706   26.1989 H   0  0  0  0  0  0
  -28.3840  -32.6933   25.0272 H   0  0  0  0  0  0
  -28.0723  -31.8556   26.5414 H   0  0  0  0  0  0
  -28.2575  -38.0114   24.7566 H   0  0  0  0  0  0
  -28.1152  -36.2656   24.6190 H   0  0  0  0  0  0
  -27.2318  -37.1333   25.8844 H   0  0  0  0  0  0
  -20.9351  -29.8768   21.6942 H   0  0  0  0  0  0
  -26.0197  -38.2857   24.1436 H   0  0  0  0  0  0
  -29.5362  -19.8372   22.9983 H   0  0  0  0  0  0
  -29.5176  -17.4032   23.0634 H   0  0  0  0  0  0
  -30.4604  -17.2325   18.8518 H   0  0  0  0  0  0
  -29.8777  -19.7221   17.6516 H   0  0  0  0  0  0
  -31.4955  -20.0444   18.2793 H   0  0  0  0  0  0
  -29.0005  -21.6731   18.5913 H   0  0  0  0  0  0
  -30.6412  -22.2770   18.5305 H   0  0  0  0  0  0
  -30.9698  -21.8437   20.8654 H   0  0  0  0  0  0
  -26.7472  -24.1739   22.2263 H   0  0  0  0  0  0
  -26.3688  -25.8267   21.9464 H   0  0  0  0  0  0
  -27.8419  -25.4429   22.8016 H   0  0  0  0  0  0
  -29.8194  -22.1852   23.0267 H   0  0  0  0  0  0
  -28.2095  -21.4956   22.7543 H   0  0  0  0  0  0
  -28.4117  -23.1861   23.1000 H   0  0  0  0  0  0
  -29.9592  -24.4352   21.4831 H   0  0  0  0  0  0
  -29.7648  -24.0888   19.8008 H   0  0  0  0  0  0
  -27.3531  -24.6226   19.8899 H   0  0  0  0  0  0
  -29.0884  -15.3037   21.5880 H   0  0  0  0  0  0
  -28.0882  -22.3213   20.6923 H   0  0  0  0  0  0
  1 25  1  0  0  0
  1 30  2  0  0  0
  1 84  1  0  0  0
  2  3  1  0  0  0
  2 25  1  0  0  0
  2 86  1  0  0  0
  2 87  1  0  0  0
  3  4  1  0  0  0
  3 88  1  0  0  0
  3 89  1  0  0  0
  4  5  1  0  0  0
  4 90  1  0  0  0
  4 91  1  0  0  0
  5  6  1  0  0  0
  5 26  1  0  0  0
  5 92  1  0  0  0
  6 25  1  0  0  0
  6 93  1  0  0  0
  6 94  1  0  0  0
  7  8  2  0  0  0
  7 26  1  0  0  0
  7 29  1  0  0  0
  8  9  1  0  0  0
  8 22  1  0  0  0
  9 10  1  0  0  0
  9 27  2  0  0  0
 10 11  2  0  0  0
 10 15  1  0  0  0
 11 12  1  0  0  0
 11 95  1  0  0  0
 12 13  2  0  0  0
 12 96  1  0  0  0
 13 14  1  0  0  0
 13 31  1  0  0  0
 14 15  2  0  0  0
 14 97  1  0  0  0
 15 98  1  0  0  0
 16 17  2  0  0  0
 16 21  1  0  0  0
 16 31  1  0  0  0
 17 18  1  0  0  0
 17 99  1  0  0  0
 18 19  2  0  0  0
 18100  1  0  0  0
 19 20  1  0  0  0
 19 24  1  0  0  0
 20 21  2  0  0  0
 20101  1  0  0  0
 21 23  1  0  0  0
 22 28  1  0  0  0
 22 32  2  0  0  0
 26 27  1  0  0  0
 28102  1  0  0  0
 28103  1  0  0  0
 29104  1  0  0  0
 29105  1  0  0  0
 33 34  1  0  0  0
 33 66  1  0  0  0
 33 70  2  0  0  0
 34 36  1  0  0  0
 34 59  1  0  0  0
 34106  1  0  0  0
 35 44  2  0  0  0
 35 45  1  0  0  0
 35 68  1  0  0  0
 36 56  1  0  0  0
 36107  1  0  0  0
 37 39  1  0  0  0
 37 47  1  0  0  0
 37 66  1  0  0  0
 37108  1  0  0  0
 38 43  2  0  0  0
 38 46  1  0  0  0
 38 47  1  0  0  0
 39 64  1  0  0  0
 39 67  2  0  0  0
 40 52  1  0  0  0
 40 53  2  0  0  0
 40 58  1  0  0  0
 41109  1  0  0  0
 41110  1  0  0  0
 41111  1  0  0  0
 41 48  1  0  0  0
 42 43  1  0  0  0
 42 66  1  0  0  0
 42112  1  0  0  0
 42113  1  0  0  0
 43 44  1  0  0  0
 44114  1  0  0  0
 45 46  2  0  0  0
 45115  1  0  0  0
 46116  1  0  0  0
 47117  1  0  0  0
 47118  1  0  0  0
 48 56  1  0  0  0
 48 65  1  0  0  0
 48119  1  0  0  0
 49 50  1  0  0  0
 49 53  1  0  0  0
 49 64  1  0  0  0
 49120  1  0  0  0
 50 51  1  0  0  0
 50121  1  0  0  0
 50122  1  0  0  0
 51 52  1  0  0  0
 51123  1  0  0  0
 51124  1  0  0  0
 52125  1  0  0  0
 52126  1  0  0  0
 53 54  1  0  0  0
 54 55  2  0  0  0
 54127  1  0  0  0
 55 57  1  0  0  0
 55128  1  0  0  0
 56 69  2  0  0  0
 57 58  2  0  0  0
 57129  1  0  0  0
 58130  1  0  0  0
 59 60  1  0  0  0
 59 61  1  0  0  0
 59 62  1  0  0  0
 60131  1  0  0  0
 60132  1  0  0  0
 60133  1  0  0  0
 61134  1  0  0  0
 61135  1  0  0  0
 61136  1  0  0  0
 62137  1  0  0  0
 62138  1  0  0  0
 62139  1  0  0  0
 63 65  1  0  0  0
 63140  1  0  0  0
 63141  1  0  0  0
 63142  1  0  0  0
 64143  1  0  0  0
 65144  1  0  0  0
 68 83  1  0  0  0
 71 72  2  0  0  0
 71 74  1  0  0  0
 71145  1  0  0  0
 72 76  1  0  0  0
 72146  1  0  0  0
 73 75  1  0  0  0
 73 76  2  0  0  0
 73147  1  0  0  0
 74 75  2  0  0  0
 74 79  1  0  0  0
 75 77  1  0  0  0
 76 84  1  0  0  0
 77 78  1  0  0  0
 77148  1  0  0  0
 77149  1  0  0  0
 78150  1  0  0  0
 78151  1  0  0  0
 78 79  1  0  0  0
 79 85  1  0  0  0
 79152  1  0  0  0
 80153  1  0  0  0
 80154  1  0  0  0
 80155  1  0  0  0
 80 83  1  0  0  0
 81156  1  0  0  0
 81157  1  0  0  0
 81158  1  0  0  0
 81 85  1  0  0  0
 82 83  1  0  0  0
 82 85  1  0  0  0
 82159  1  0  0  0
 82160  1  0  0  0
 83161  1  0  0  0
 84162  1  0  0  0
 85163  1  0  0  0
M  CHG  1  85   1
M  ISO  4   1 100  68 101  83 101  84 100
M  END
> <chiral flag>
0

> <version>
0

> <s_m_source_file>
/data/baiqing/PycharmProjects/Reinvent-master-3.2/result/LINK_invent/BTK/process_docking_weight1_custom_product_contain_oxygen_bond_distance_aromatic_linkinvent_7_9_3/rearranged_h_0012.sdf

> <i_m_source_file_index>
32

> <r_mmod_Potential_Energy-OPLS-2005>
30.2011661529541

> <r_mmod_Stretch_Energy-OPLS-2005>
87.5981826782227

> <r_mmod_Bend_Energy-OPLS-2005>
186.275039672852

> <r_mmod_Torsional_Energy-OPLS-2005>
260.499908447266

> <r_mmod_Improper_Torsional_Energy-OPLS-2005>
3.51981282234192

> <r_mmod_Van_der_Waal_Energy-OPLS-2005>
152.68669128418

> <r_mmod_Electrostatic_Energy-OPLS-2005>
-277.651275634766

> <r_mmod_Solvation_Energy-OPLS-2005>
-429.726257324219

> <b_mmod_Minimization_Converged-OPLS-2005>
0

> <r_mmod_RMS_Derivative-OPLS-2005>
2.6642005443573

$$$$
32
                    3D
 Structure written by MMmdl.
152160  0  0  1  0            999 V2000
  -30.4897  -15.0546   20.4254 C   0  0  0  0  0  0
  -30.4485  -12.6716   19.4828 C   0  0  0  0  0  0
  -29.5216  -12.5330   18.2518 C   0  0  0  0  0  0
  -28.0641  -12.2891   18.6896 C   0  0  0  0  0  0
  -27.6213  -13.2478   19.8249 C   0  0  2  0  0  0
  -28.6661  -13.3305   20.9543 C   0  0  0  0  0  0
  -25.2452  -13.8205   20.5734 C   0  0  0  0  0  0
  -24.1769  -13.0429   20.9243 C   0  0  0  0  0  0
  -24.6389  -11.6915   20.8767 C   0  0  0  0  0  0
  -23.9077  -10.4289   21.0424 C   0  0  0  0  0  0
  -24.3626   -9.4205   21.9203 C   0  0  0  0  0  0
  -23.6298   -8.2242   22.0764 C   0  0  0  0  0  0
  -22.4283   -8.0281   21.3547 C   0  0  0  0  0  0
  -21.9925   -9.0258   20.4647 C   0  0  0  0  0  0
  -22.7256  -10.2134   20.3063 C   0  0  0  0  0  0
  -21.6847   -6.0742   22.5280 C   0  0  0  0  0  0
  -21.4010   -6.5642   23.8212 C   0  0  0  0  0  0
  -21.3661   -5.6797   24.9172 C   0  0  0  0  0  0
  -21.6043   -4.3060   24.7224 C   0  0  0  0  0  0
  -21.8819   -3.8151   23.4346 C   0  0  0  0  0  0
  -21.9192   -4.6971   22.3403 C   0  0  0  0  0  0
  -22.7790  -13.5208   21.1897 C   0  0  0  0  0  0
  -22.1661   -4.2157   21.0979 F   0  0  0  0  0  0
  -21.5634   -3.4542   25.7737 F   0  0  0  0  0  0
  -29.9158  -13.7808   20.3288 N   0  0  0  0  0  0
  -26.2858  -12.9428   20.3225 N   0  0  0  0  0  0
  -25.9311  -11.6563   20.5731 N   0  0  0  0  0  0
  -22.0433  -12.8186   22.0436 N   0  0  0  0  0  0
  -25.4121  -15.1938   20.4189 N   0  0  0  0  0  0
  -31.7185  -15.1059   20.2919 O   0  0  0  0  0  0
  -21.6636   -6.8884   21.4242 O   0  0  0  0  0  0
  -22.3488  -14.5521   20.6743 O   0  0  0  0  0  0
  -24.6492  -31.8369   23.1807 C   0  0  0  0  0  0
  -25.9236  -32.4656   23.8214 C   0  0  1  0  0  0
  -27.2176  -27.0623   20.1950 C   0  0  0  0  0  0
  -25.5964  -33.8461   24.2139 N   0  0  0  0  0  0
  -23.4549  -30.4525   21.5279 C   0  0  2  0  0  0
  -24.9039  -28.8509   20.1263 C   0  0  0  0  0  0
  -22.7585  -29.4527   22.4849 C   0  0  0  0  0  0
  -18.0305  -28.1408   22.8463 C   0  0  0  0  0  0
  -24.1497  -36.7241   23.2642 C   0  0  0  0  0  0
  -26.0136  -30.6916   21.3824 C   0  0  0  0  0  0
  -26.0836  -29.2882   20.7423 C   0  0  0  0  0  0
  -27.2436  -28.4149   20.7460 C   0  0  0  0  0  0
  -26.0096  -26.7302   19.5494 C   0  0  0  0  0  0
  -24.8823  -27.5874   19.5127 C   0  0  0  0  0  0
  -23.6848  -29.7651   20.1545 C   0  0  0  0  0  0
  -25.4126  -36.3004   24.0308 C   0  0  1  0  0  0
  -20.5925  -28.3732   23.1224 C   0  0  2  0  0  0
  -20.6793  -26.9425   22.5406 C   0  0  0  0  0  0
  -19.5769  -26.6391   21.5211 C   0  0  0  0  0  0
  -18.1943  -26.7945   22.1616 C   0  0  0  0  0  0
  -19.1566  -28.8882   23.2835 C   0  0  0  0  0  0
  -18.9481  -30.1474   23.8865 C   0  0  0  0  0  0
  -17.6474  -30.6589   24.0559 C   0  0  0  0  0  0
  -25.9084  -34.9382   23.5037 C   0  0  0  0  0  0
  -16.5365  -29.9084   23.6337 C   0  0  0  0  0  0
  -16.7290  -28.6515   23.0343 C   0  0  0  0  0  0
  -26.4539  -31.6542   25.0679 C   0  0  0  0  0  0
  -25.3700  -31.3747   26.1359 C   0  0  0  0  0  0
  -27.0392  -30.2932   24.6274 C   0  0  0  0  0  0
  -27.6076  -32.4302   25.7470 C   0  0  0  0  0  0
  -27.5570  -37.1766   24.8464 C   0  0  0  0  0  0
  -21.4273  -29.3051   22.3594 N   0  0  0  0  0  0
  -26.4280  -37.3725   23.9409 N   0  0  0  0  0  0
  -24.7266  -31.0172   22.0863 N   0  0  0  0  0  0
  -23.4199  -28.8078   23.3026 O   0  0  0  0  0  0
  -28.3069  -26.1036   20.1216 O   0  0  0  0  0  0
  -26.5676  -34.8899   22.4620 O   0  0  0  0  0  0
  -23.5603  -32.1271   23.6998 O   0  0  0  0  0  0
  -29.7103  -17.8699   22.2074 C   0  0  0  0  0  0
  -29.4671  -19.1152   22.8359 C   0  0  0  0  0  0
  -29.6663  -17.7145   20.8069 C   0  0  0  0  0  0
  -29.1844  -20.3840   20.7212 C   0  0  0  0  0  0
  -29.1963  -20.3169   22.1355 C   0  0  0  0  0  0
  -29.4017  -19.0180   20.0898 C   0  0  0  0  0  0
  -30.1582  -21.9854   19.1261 C   0  0  0  0  0  0
  -28.1194  -23.0236   20.2427 C   0  0  0  0  0  0
  -28.4471  -24.6457   20.7378 C   0  0  0  0  0  0
  -29.6769  -16.2393   20.2967 N   0  0  0  0  0  0
  -29.1127  -21.7807   20.1219 N   0  0  0  0  0  0
  -29.0004  -21.4478   22.8599 F   0  0  0  0  0  0
  -29.3228  -18.9105   18.3660 Cl  0  0  0  0  0  0
  -31.4689  -12.8747   19.1544 H   0  0  0  0  0  0
  -30.4915  -11.7388   20.0467 H   0  0  0  0  0  0
  -29.8621  -11.7184   17.6110 H   0  0  0  0  0  0
  -29.5756  -13.4404   17.6482 H   0  0  0  0  0  0
  -28.0002  -11.2582   19.0405 H   0  0  0  0  0  0
  -27.3891  -12.3637   17.8366 H   0  0  0  0  0  0
  -27.5632  -14.2336   19.3634 H   0  0  0  0  0  0
  -28.7906  -12.3700   21.4568 H   0  0  0  0  0  0
  -28.3473  -14.0445   21.7165 H   0  0  0  0  0  0
  -25.2769   -9.5679   22.4782 H   0  0  0  0  0  0
  -23.9999   -7.4637   22.7481 H   0  0  0  0  0  0
  -21.0864   -8.8782   19.8948 H   0  0  0  0  0  0
  -22.3728  -10.9676   19.6174 H   0  0  0  0  0  0
  -21.1991   -7.6153   23.9717 H   0  0  0  0  0  0
  -21.1487   -6.0527   25.9078 H   0  0  0  0  0  0
  -22.0595   -2.7616   23.2840 H   0  0  0  0  0  0
  -22.4043  -11.9834   22.4806 H   0  0  0  0  0  0
  -21.1049  -13.1204   22.2633 H   0  0  0  0  0  0
  -24.6453  -15.8451   20.5425 H   0  0  0  0  0  0
  -26.2600  -15.6414   20.0983 H   0  0  0  0  0  0
  -26.7294  -32.5247   23.0928 H   0  0  0  0  0  0
  -25.0062  -33.9551   25.0262 H   0  0  0  0  0  0
  -22.7631  -31.2812   21.3634 H   0  0  0  0  0  0
  -23.3754  -35.9580   23.3298 H   0  0  0  0  0  0
  -24.3576  -36.8891   22.2056 H   0  0  0  0  0  0
  -23.7268  -37.6441   23.6691 H   0  0  0  0  0  0
  -26.1616  -31.4312   20.5941 H   0  0  0  0  0  0
  -26.8881  -30.7607   22.0176 H   0  0  0  0  0  0
  -28.1548  -28.7596   21.2145 H   0  0  0  0  0  0
  -25.9308  -25.7648   19.0686 H   0  0  0  0  0  0
  -23.9824  -27.2473   19.0180 H   0  0  0  0  0  0
  -23.8271  -30.5306   19.3913 H   0  0  0  0  0  0
  -22.7978  -29.2091   19.8456 H   0  0  0  0  0  0
  -25.1316  -36.1811   25.0800 H   0  0  0  0  0  0
  -21.0010  -28.3327   24.1351 H   0  0  0  0  0  0
  -20.5700  -26.2329   23.3622 H   0  0  0  0  0  0
  -21.6648  -26.7434   22.1189 H   0  0  0  0  0  0
  -19.6937  -25.6307   21.1234 H   0  0  0  0  0  0
  -19.6723  -27.3203   20.6747 H   0  0  0  0  0  0
  -17.4217  -26.6688   21.4018 H   0  0  0  0  0  0
  -18.0335  -26.0110   22.9033 H   0  0  0  0  0  0
  -19.7958  -30.7291   24.2234 H   0  0  0  0  0  0
  -17.5029  -31.6271   24.5157 H   0  0  0  0  0  0
  -15.5365  -30.2964   23.7692 H   0  0  0  0  0  0
  -15.8697  -28.0822   22.7068 H   0  0  0  0  0  0
  -24.5934  -30.7043   25.7669 H   0  0  0  0  0  0
  -24.8820  -32.2922   26.4651 H   0  0  0  0  0  0
  -25.7955  -30.9018   27.0214 H   0  0  0  0  0  0
  -26.2995  -29.6656   24.1292 H   0  0  0  0  0  0
  -27.4012  -29.7246   25.4848 H   0  0  0  0  0  0
  -27.8905  -30.4173   23.9580 H   0  0  0  0  0  0
  -27.2713  -33.3678   26.1900 H   0  0  0  0  0  0
  -28.3954  -32.6713   25.0327 H   0  0  0  0  0  0
  -28.0646  -31.8496   26.5491 H   0  0  0  0  0  0
  -28.2552  -38.0090   24.7493 H   0  0  0  0  0  0
  -28.1089  -36.2604   24.6294 H   0  0  0  0  0  0
  -27.2275  -37.1419   25.8864 H   0  0  0  0  0  0
  -20.9498  -29.8742   21.6741 H   0  0  0  0  0  0
  -26.0138  -38.2790   24.1421 H   0  0  0  0  0  0
  -29.8712  -17.0043   22.8357 H   0  0  0  0  0  0
  -29.4891  -19.1523   23.9150 H   0  0  0  0  0  0
  -30.9800  -21.2766   19.2366 H   0  0  0  0  0  0
  -30.5839  -22.9864   19.2163 H   0  0  0  0  0  0
  -29.7517  -21.8801   18.1192 H   0  0  0  0  0  0
  -27.6474  -23.1075   19.2635 H   0  0  0  0  0  0
  -27.3063  -22.6761   20.8818 H   0  0  0  0  0  0
  -29.5049  -24.6190   21.0015 H   0  0  0  0  0  0
  -27.9625  -24.7381   21.7097 H   0  0  0  0  0  0
  -28.7742  -15.9823   19.9290 H   0  0  0  0  0  0
  1 25  1  0  0  0
  1 30  2  0  0  0
  1 80  1  0  0  0
  2  3  1  0  0  0
  2 25  1  0  0  0
  2 84  1  0  0  0
  2 85  1  0  0  0
  3  4  1  0  0  0
  3 86  1  0  0  0
  3 87  1  0  0  0
  4  5  1  0  0  0
  4 88  1  0  0  0
  4 89  1  0  0  0
  5  6  1  0  0  0
  5 26  1  0  0  0
  5 90  1  0  0  0
  6 25  1  0  0  0
  6 91  1  0  0  0
  6 92  1  0  0  0
  7  8  2  0  0  0
  7 26  1  0  0  0
  7 29  1  0  0  0
  8  9  1  0  0  0
  8 22  1  0  0  0
  9 10  1  0  0  0
  9 27  2  0  0  0
 10 11  2  0  0  0
 10 15  1  0  0  0
 11 12  1  0  0  0
 11 93  1  0  0  0
 12 13  2  0  0  0
 12 94  1  0  0  0
 13 14  1  0  0  0
 13 31  1  0  0  0
 14 15  2  0  0  0
 14 95  1  0  0  0
 15 96  1  0  0  0
 16 17  2  0  0  0
 16 21  1  0  0  0
 16 31  1  0  0  0
 17 18  1  0  0  0
 17 97  1  0  0  0
 18 19  2  0  0  0
 18 98  1  0  0  0
 19 20  1  0  0  0
 19 24  1  0  0  0
 20 21  2  0  0  0
 20 99  1  0  0  0
 21 23  1  0  0  0
 22 28  1  0  0  0
 22 32  2  0  0  0
 26 27  1  0  0  0
 28100  1  0  0  0
 28101  1  0  0  0
 29102  1  0  0  0
 29103  1  0  0  0
 33 34  1  0  0  0
 33 66  1  0  0  0
 33 70  2  0  0  0
 34 36  1  0  0  0
 34 59  1  0  0  0
 34104  1  0  0  0
 35 44  2  0  0  0
 35 45  1  0  0  0
 35 68  1  0  0  0
 36 56  1  0  0  0
 36105  1  0  0  0
 37 39  1  0  0  0
 37 47  1  0  0  0
 37 66  1  0  0  0
 37106  1  0  0  0
 38 43  2  0  0  0
 38 46  1  0  0  0
 38 47  1  0  0  0
 39 64  1  0  0  0
 39 67  2  0  0  0
 40 52  1  0  0  0
 40 53  2  0  0  0
 40 58  1  0  0  0
 41107  1  0  0  0
 41108  1  0  0  0
 41109  1  0  0  0
 41 48  1  0  0  0
 42 43  1  0  0  0
 42 66  1  0  0  0
 42110  1  0  0  0
 42111  1  0  0  0
 43 44  1  0  0  0
 44112  1  0  0  0
 45 46  2  0  0  0
 45113  1  0  0  0
 46114  1  0  0  0
 47115  1  0  0  0
 47116  1  0  0  0
 48 56  1  0  0  0
 48 65  1  0  0  0
 48117  1  0  0  0
 49 50  1  0  0  0
 49 53  1  0  0  0
 49 64  1  0  0  0
 49118  1  0  0  0
 50 51  1  0  0  0
 50119  1  0  0  0
 50120  1  0  0  0
 51 52  1  0  0  0
 51121  1  0  0  0
 51122  1  0  0  0
 52123  1  0  0  0
 52124  1  0  0  0
 53 54  1  0  0  0
 54 55  2  0  0  0
 54125  1  0  0  0
 55 57  1  0  0  0
 55126  1  0  0  0
 56 69  2  0  0  0
 57 58  2  0  0  0
 57127  1  0  0  0
 58128  1  0  0  0
 59 60  1  0  0  0
 59 61  1  0  0  0
 59 62  1  0  0  0
 60129  1  0  0  0
 60130  1  0  0  0
 60131  1  0  0  0
 61132  1  0  0  0
 61133  1  0  0  0
 61134  1  0  0  0
 62135  1  0  0  0
 62136  1  0  0  0
 62137  1  0  0  0
 63 65  1  0  0  0
 63138  1  0  0  0
 63139  1  0  0  0
 63140  1  0  0  0
 64141  1  0  0  0
 65142  1  0  0  0
 68 79  1  0  0  0
 71 72  2  0  0  0
 71 73  1  0  0  0
 71143  1  0  0  0
 72 75  1  0  0  0
 72144  1  0  0  0
 73 76  2  0  0  0
 73 80  1  0  0  0
 74 75  2  0  0  0
 74 76  1  0  0  0
 74 81  1  0  0  0
 75 82  1  0  0  0
 76 83  1  0  0  0
 77 81  1  0  0  0
 77145  1  0  0  0
 77146  1  0  0  0
 77147  1  0  0  0
 78 79  1  0  0  0
 78 81  1  0  0  0
 78148  1  0  0  0
 78149  1  0  0  0
 79150  1  0  0  0
 79151  1  0  0  0
 80152  1  0  0  0
M  ISO  4   1 100  68 101  79 101  80 100
M  END
> <chiral flag>
0

> <version>
0

> <s_m_source_file>
/data/baiqing/PycharmProjects/Reinvent-master-3.2/result/LINK_invent/BTK/process_docking_weight1_custom_product_contain_oxygen_bond_distance_aromatic_linkinvent_7_9_3/rearranged_h_0012.sdf

> <i_m_source_file_index>
33

> <r_mmod_Potential_Energy-OPLS-2005>
895.278259277344

> <r_mmod_Stretch_Energy-OPLS-2005>
341.570526123047

> <r_mmod_Bend_Energy-OPLS-2005>
364.101318359375

> <r_mmod_Torsional_Energy-OPLS-2005>
295.853515625

> <r_mmod_Improper_Torsional_Energy-OPLS-2005>
12.8510665893555

> <r_mmod_Van_der_Waal_Energy-OPLS-2005>
118.994079589844

> <r_mmod_Electrostatic_Energy-OPLS-2005>
-278.687408447266

> <r_mmod_Solvation_Energy-OPLS-2005>
-223.211837768555

> <b_mmod_Minimization_Converged-OPLS-2005>
0

> <r_mmod_RMS_Derivative-OPLS-2005>
1.68382883071899

$$$$
33
                    3D
 Structure written by MMmdl.
159168  0  0  1  0            999 V2000
  -30.6530  -14.7190   20.5302 C   0  0  0  0  0  0
  -30.4313  -12.4396   19.4692 C   0  0  0  0  0  0
  -29.5248  -12.5194   18.2212 C   0  0  0  0  0  0
  -28.0450  -12.3428   18.6221 C   0  0  0  0  0  0
  -27.6447  -13.2318   19.8317 C   0  0  2  0  0  0
  -28.6936  -13.1651   20.9662 C   0  0  0  0  0  0
  -25.2542  -13.8162   20.5679 C   0  0  0  0  0  0
  -24.1846  -13.0427   20.9161 C   0  0  0  0  0  0
  -24.6421  -11.6893   20.8696 C   0  0  0  0  0  0
  -23.9089  -10.4282   21.0371 C   0  0  0  0  0  0
  -24.3621   -9.4200   21.9157 C   0  0  0  0  0  0
  -23.6281   -8.2246   22.0738 C   0  0  0  0  0  0
  -22.4280   -8.0279   21.3520 C   0  0  0  0  0  0
  -21.9921   -9.0241   20.4615 C   0  0  0  0  0  0
  -22.7259  -10.2110   20.3022 C   0  0  0  0  0  0
  -21.6874   -6.0736   22.5266 C   0  0  0  0  0  0
  -21.4021   -6.5632   23.8199 C   0  0  0  0  0  0
  -21.3678   -5.6784   24.9169 C   0  0  0  0  0  0
  -21.6043   -4.3041   24.7217 C   0  0  0  0  0  0
  -21.8819   -3.8137   23.4342 C   0  0  0  0  0  0
  -21.9184   -4.6958   22.3399 C   0  0  0  0  0  0
  -22.7857  -13.5187   21.1830 C   0  0  0  0  0  0
  -22.1648   -4.2147   21.0978 F   0  0  0  0  0  0
  -21.5642   -3.4527   25.7728 F   0  0  0  0  0  0
  -29.9957  -13.5158   20.3842 N   0  0  0  0  0  0
  -26.2955  -12.9369   20.3143 N   0  0  0  0  0  0
  -25.9338  -11.6504   20.5628 N   0  0  0  0  0  0
  -22.0478  -12.8183   22.0358 N   0  0  0  0  0  0
  -25.4192  -15.1908   20.4122 N   0  0  0  0  0  0
  -31.8599  -14.8101   20.2967 O   0  0  0  0  0  0
  -21.6652   -6.8888   21.4229 O   0  0  0  0  0  0
  -22.3538  -14.5511   20.6702 O   0  0  0  0  0  0
  -24.6343  -31.8666   23.2027 C   0  0  0  0  0  0
  -25.9146  -32.4859   23.8412 C   0  0  1  0  0  0
  -27.2260  -27.3155   20.1371 C   0  0  0  0  0  0
  -25.5989  -33.8657   24.2358 N   0  0  0  0  0  0
  -23.4269  -30.4993   21.5436 C   0  0  2  0  0  0
  -24.8663  -28.9661   20.1133 C   0  0  0  0  0  0
  -22.7559  -29.4668   22.4871 C   0  0  0  0  0  0
  -18.0312  -28.1435   22.8520 C   0  0  0  0  0  0
  -24.1400  -36.7317   23.2629 C   0  0  0  0  0  0
  -25.9712  -30.8244   21.3403 C   0  0  0  0  0  0
  -26.0494  -29.4461   20.6893 C   0  0  0  0  0  0
  -27.2316  -28.6489   20.6635 C   0  0  0  0  0  0
  -25.9886  -26.8673   19.6027 C   0  0  0  0  0  0
  -24.8405  -27.6766   19.5655 C   0  0  0  0  0  0
  -23.6483  -29.8653   20.1470 C   0  0  0  0  0  0
  -25.4034  -36.3141   24.0346 C   0  0  1  0  0  0
  -20.5944  -28.3703   23.1296 C   0  0  2  0  0  0
  -20.6808  -26.9430   22.5393 C   0  0  0  0  0  0
  -19.5760  -26.6431   21.5225 C   0  0  0  0  0  0
  -18.1937  -26.7998   22.1625 C   0  0  0  0  0  0
  -19.1579  -28.8883   23.2926 C   0  0  0  0  0  0
  -18.9480  -30.1472   23.8966 C   0  0  0  0  0  0
  -17.6486  -30.6619   24.0590 C   0  0  0  0  0  0
  -25.8999  -34.9511   23.5124 C   0  0  0  0  0  0
  -16.5370  -29.9136   23.6315 C   0  0  0  0  0  0
  -16.7287  -28.6560   23.0336 C   0  0  0  0  0  0
  -26.4469  -31.6617   25.0785 C   0  0  0  0  0  0
  -25.3720  -31.3793   26.1527 C   0  0  0  0  0  0
  -27.0165  -30.3024   24.6128 C   0  0  0  0  0  0
  -27.6038  -32.4240   25.7701 C   0  0  0  0  0  0
  -27.5516  -37.1792   24.8502 C   0  0  0  0  0  0
  -21.4246  -29.3094   22.3706 N   0  0  0  0  0  0
  -26.4189  -37.3857   23.9508 N   0  0  0  0  0  0
  -24.7001  -31.0786   22.0877 N   0  0  0  0  0  0
  -23.4321  -28.8157   23.2867 O   0  0  0  0  0  0
  -28.3596  -26.4757   20.2278 O   0  0  0  0  0  0
  -26.5504  -34.8983   22.4636 O   0  0  0  0  0  0
  -23.5495  -32.1303   23.7400 O   0  0  0  0  0  0
  -28.5522  -22.6003   19.5280 C   0  0  0  0  0  0
  -29.6019  -23.6437   21.3941 C   0  0  0  0  0  0
  -28.9044  -21.3093   20.0202 C   0  0  0  0  0  0
  -29.9638  -22.3463   21.8865 C   0  0  0  0  0  0
  -28.8714  -23.8162   20.1929 C   0  0  0  0  0  0
  -29.6275  -21.1101   21.2314 C   0  0  0  0  0  0
  -32.2451  -19.5916   22.2195 C   0  0  0  0  0  0
  -31.9127  -18.8980   20.8669 C   0  0  0  0  0  0
  -30.8726  -19.7281   22.8819 C   0  0  0  0  0  0
  -30.3819  -18.6169   20.9033 C   0  0  1  0  0  0
  -28.4630  -25.1840   19.4970 C   0  0  0  0  0  0
  -30.0706  -17.1393   21.5160 C   0  0  0  0  0  0
  -29.9306  -19.7793   21.7538 N   0  0  0  0  0  0
  -29.8808  -15.8525   20.7091 N   0  0  0  0  0  0
  -31.4889  -12.5060   19.2095 H   0  0  0  0  0  0
  -30.3041  -11.4695   19.9505 H   0  0  0  0  0  0
  -29.8111  -11.7553   17.4953 H   0  0  0  0  0  0
  -29.6685  -13.4838   17.7259 H   0  0  0  0  0  0
  -27.8978  -11.2910   18.8668 H   0  0  0  0  0  0
  -27.3978  -12.5508   17.7690 H   0  0  0  0  0  0
  -27.6348  -14.2572   19.4516 H   0  0  0  0  0  0
  -28.7258  -12.1671   21.4034 H   0  0  0  0  0  0
  -28.4362  -13.8511   21.7750 H   0  0  0  0  0  0
  -25.2783   -9.5687   22.4703 H   0  0  0  0  0  0
  -23.9998   -7.4665   22.7489 H   0  0  0  0  0  0
  -21.0845   -8.8755   19.8915 H   0  0  0  0  0  0
  -22.3730  -10.9624   19.6103 H   0  0  0  0  0  0
  -21.2023   -7.6148   23.9697 H   0  0  0  0  0  0
  -21.1491   -6.0525   25.9073 H   0  0  0  0  0  0
  -22.0574   -2.7599   23.2837 H   0  0  0  0  0  0
  -22.4117  -11.9877   22.4784 H   0  0  0  0  0  0
  -21.1018  -13.1092   22.2442 H   0  0  0  0  0  0
  -24.6509  -15.8372   20.5573 H   0  0  0  0  0  0
  -26.2550  -15.6335   20.0526 H   0  0  0  0  0  0
  -26.7292  -32.5596   23.1286 H   0  0  0  0  0  0
  -25.0562  -33.9869   25.0786 H   0  0  0  0  0  0
  -22.7171  -31.3207   21.4179 H   0  0  0  0  0  0
  -23.3668  -35.9628   23.3305 H   0  0  0  0  0  0
  -24.3501  -36.8860   22.2039 H   0  0  0  0  0  0
  -23.7076  -37.6498   23.6585 H   0  0  0  0  0  0
  -26.0659  -31.5730   20.5485 H   0  0  0  0  0  0
  -26.8737  -30.9094   21.9358 H   0  0  0  0  0  0
  -28.1545  -29.0538   21.0573 H   0  0  0  0  0  0
  -25.8348  -25.8512   19.2883 H   0  0  0  0  0  0
  -23.9135  -27.2776   19.1758 H   0  0  0  0  0  0
  -23.8227  -30.6731   19.4337 H   0  0  0  0  0  0
  -22.7612  -29.3475   19.7809 H   0  0  0  0  0  0
  -25.1132  -36.1952   25.0808 H   0  0  0  0  0  0
  -21.0089  -28.3225   24.1401 H   0  0  0  0  0  0
  -20.5748  -26.2286   23.3571 H   0  0  0  0  0  0
  -21.6660  -26.7460   22.1152 H   0  0  0  0  0  0
  -19.6865  -25.6363   21.1184 H   0  0  0  0  0  0
  -19.6679  -27.3322   20.6827 H   0  0  0  0  0  0
  -17.4209  -26.6808   21.4005 H   0  0  0  0  0  0
  -18.0267  -26.0129   22.9006 H   0  0  0  0  0  0
  -19.7917  -30.7304   24.2369 H   0  0  0  0  0  0
  -17.4993  -31.6294   24.5199 H   0  0  0  0  0  0
  -15.5369  -30.3070   23.7566 H   0  0  0  0  0  0
  -15.8696  -28.0904   22.7011 H   0  0  0  0  0  0
  -24.5972  -30.7011   25.7974 H   0  0  0  0  0  0
  -24.8891  -32.3024   26.4756 H   0  0  0  0  0  0
  -25.8129  -30.9184   27.0401 H   0  0  0  0  0  0
  -26.2660  -29.7001   24.1016 H   0  0  0  0  0  0
  -27.3701  -29.7041   25.4519 H   0  0  0  0  0  0
  -27.8624  -30.4298   23.9364 H   0  0  0  0  0  0
  -27.2581  -33.3484   26.2351 H   0  0  0  0  0  0
  -28.3974  -32.6819   25.0677 H   0  0  0  0  0  0
  -28.0584  -31.8281   26.5618 H   0  0  0  0  0  0
  -28.2538  -38.0094   24.7639 H   0  0  0  0  0  0
  -28.0956  -36.2657   24.6131 H   0  0  0  0  0  0
  -27.2323  -37.1253   25.8916 H   0  0  0  0  0  0
  -20.9331  -29.8848   21.7027 H   0  0  0  0  0  0
  -26.0022  -38.2876   24.1651 H   0  0  0  0  0  0
  -28.0088  -22.6604   18.5967 H   0  0  0  0  0  0
  -29.8990  -24.5135   21.9635 H   0  0  0  0  0  0
  -28.5808  -20.4539   19.4505 H   0  0  0  0  0  0
  -30.5231  -22.3460   22.8116 H   0  0  0  0  0  0
  -32.6716  -20.5871   22.0673 H   0  0  0  0  0  0
  -32.9564  -19.0570   22.8585 H   0  0  0  0  0  0
  -32.5088  -18.0069   20.6841 H   0  0  0  0  0  0
  -32.1658  -19.5958   20.0680 H   0  0  0  0  0  0
  -30.8027  -20.5243   23.6228 H   0  0  0  0  0  0
  -30.6773  -18.8284   23.4674 H   0  0  0  0  0  0
  -29.9126  -18.6840   19.9203 H   0  0  0  0  0  0
  -27.5593  -24.9429   18.9490 H   0  0  0  0  0  0
  -29.1879  -25.3543   18.6951 H   0  0  0  0  0  0
  -29.0873  -17.2576   21.9770 H   0  0  0  0  0  0
  -30.7330  -16.9248   22.3533 H   0  0  0  0  0  0
  -28.9142  -15.6746   20.4773 H   0  0  0  0  0  0
  1 25  1  0  0  0
  1 30  2  0  0  0
  1 84  1  0  0  0
  2  3  1  0  0  0
  2 25  1  0  0  0
  2 85  1  0  0  0
  2 86  1  0  0  0
  3  4  1  0  0  0
  3 87  1  0  0  0
  3 88  1  0  0  0
  4  5  1  0  0  0
  4 89  1  0  0  0
  4 90  1  0  0  0
  5  6  1  0  0  0
  5 26  1  0  0  0
  5 91  1  0  0  0
  6 25  1  0  0  0
  6 92  1  0  0  0
  6 93  1  0  0  0
  7  8  2  0  0  0
  7 26  1  0  0  0
  7 29  1  0  0  0
  8  9  1  0  0  0
  8 22  1  0  0  0
  9 10  1  0  0  0
  9 27  2  0  0  0
 10 11  2  0  0  0
 10 15  1  0  0  0
 11 12  1  0  0  0
 11 94  1  0  0  0
 12 13  2  0  0  0
 12 95  1  0  0  0
 13 14  1  0  0  0
 13 31  1  0  0  0
 14 15  2  0  0  0
 14 96  1  0  0  0
 15 97  1  0  0  0
 16 17  2  0  0  0
 16 21  1  0  0  0
 16 31  1  0  0  0
 17 18  1  0  0  0
 17 98  1  0  0  0
 18 19  2  0  0  0
 18 99  1  0  0  0
 19 20  1  0  0  0
 19 24  1  0  0  0
 20 21  2  0  0  0
 20100  1  0  0  0
 21 23  1  0  0  0
 22 28  1  0  0  0
 22 32  2  0  0  0
 26 27  1  0  0  0
 28101  1  0  0  0
 28102  1  0  0  0
 29103  1  0  0  0
 29104  1  0  0  0
 33 34  1  0  0  0
 33 66  1  0  0  0
 33 70  2  0  0  0
 34 36  1  0  0  0
 34 59  1  0  0  0
 34105  1  0  0  0
 35 44  2  0  0  0
 35 45  1  0  0  0
 35 68  1  0  0  0
 36 56  1  0  0  0
 36106  1  0  0  0
 37 39  1  0  0  0
 37 47  1  0  0  0
 37 66  1  0  0  0
 37107  1  0  0  0
 38 43  2  0  0  0
 38 46  1  0  0  0
 38 47  1  0  0  0
 39 64  1  0  0  0
 39 67  2  0  0  0
 40 52  1  0  0  0
 40 53  2  0  0  0
 40 58  1  0  0  0
 41108  1  0  0  0
 41109  1  0  0  0
 41110  1  0  0  0
 41 48  1  0  0  0
 42 43  1  0  0  0
 42 66  1  0  0  0
 42111  1  0  0  0
 42112  1  0  0  0
 43 44  1  0  0  0
 44113  1  0  0  0
 45 46  2  0  0  0
 45114  1  0  0  0
 46115  1  0  0  0
 47116  1  0  0  0
 47117  1  0  0  0
 48 56  1  0  0  0
 48 65  1  0  0  0
 48118  1  0  0  0
 49 50  1  0  0  0
 49 53  1  0  0  0
 49 64  1  0  0  0
 49119  1  0  0  0
 50 51  1  0  0  0
 50120  1  0  0  0
 50121  1  0  0  0
 51 52  1  0  0  0
 51122  1  0  0  0
 51123  1  0  0  0
 52124  1  0  0  0
 52125  1  0  0  0
 53 54  1  0  0  0
 54 55  2  0  0  0
 54126  1  0  0  0
 55 57  1  0  0  0
 55127  1  0  0  0
 56 69  2  0  0  0
 57 58  2  0  0  0
 57128  1  0  0  0
 58129  1  0  0  0
 59 60  1  0  0  0
 59 61  1  0  0  0
 59 62  1  0  0  0
 60130  1  0  0  0
 60131  1  0  0  0
 60132  1  0  0  0
 61133  1  0  0  0
 61134  1  0  0  0
 61135  1  0  0  0
 62136  1  0  0  0
 62137  1  0  0  0
 62138  1  0  0  0
 63 65  1  0  0  0
 63139  1  0  0  0
 63140  1  0  0  0
 63141  1  0  0  0
 64142  1  0  0  0
 65143  1  0  0  0
 68 81  1  0  0  0
 71 73  2  0  0  0
 71 75  1  0  0  0
 71144  1  0  0  0
 72 74  1  0  0  0
 72 75  2  0  0  0
 72145  1  0  0  0
 73 76  1  0  0  0
 73146  1  0  0  0
 74 76  2  0  0  0
 74147  1  0  0  0
 75 81  1  0  0  0
 76 83  1  0  0  0
 77 78  1  0  0  0
 77 79  1  0  0  0
 77148  1  0  0  0
 77149  1  0  0  0
 78 80  1  0  0  0
 78150  1  0  0  0
 78151  1  0  0  0
 79 83  1  0  0  0
 79152  1  0  0  0
 79153  1  0  0  0
 80 82  1  0  0  0
 80 83  1  0  0  0
 80154  1  0  0  0
 81155  1  0  0  0
 81156  1  0  0  0
 82 84  1  0  0  0
 82157  1  0  0  0
 82158  1  0  0  0
 84159  1  0  0  0
M  ISO  4   1 100  68 101  81 101  84 100
M  END
> <chiral flag>
0

> <version>
0

> <s_m_source_file>
/data/baiqing/PycharmProjects/Reinvent-master-3.2/result/LINK_invent/BTK/process_docking_weight1_custom_product_contain_oxygen_bond_distance_aromatic_linkinvent_7_9_3/rearranged_h_0012.sdf

> <i_m_source_file_index>
34

> <r_mmod_Potential_Energy-OPLS-2005>
232.723999023438

> <r_mmod_Stretch_Energy-OPLS-2005>
112.697448730469

> <r_mmod_Bend_Energy-OPLS-2005>
246.434844970703

> <r_mmod_Torsional_Energy-OPLS-2005>
294.208557128906

> <r_mmod_Improper_Torsional_Energy-OPLS-2005>
11.4615268707275

> <r_mmod_Van_der_Waal_Energy-OPLS-2005>
145.589309692383

> <r_mmod_Electrostatic_Energy-OPLS-2005>
-422.869049072266

> <r_mmod_Solvation_Energy-OPLS-2005>
-229.36572265625

> <b_mmod_Minimization_Converged-OPLS-2005>
0

> <r_mmod_RMS_Derivative-OPLS-2005>
10.2829542160034

$$$$
34
                    3D
 Structure written by MMmdl.
154162  0  0  1  0            999 V2000
  -30.6896  -14.5241   20.4615 C   0  0  0  0  0  0
  -30.4107  -12.3048   19.4464 C   0  0  0  0  0  0
  -29.4970  -12.4872   18.2177 C   0  0  0  0  0  0
  -28.0192  -12.3515   18.6274 C   0  0  0  0  0  0
  -27.6549  -13.2133   19.8688 C   0  0  2  0  0  0
  -28.7011  -13.0559   20.9987 C   0  0  0  0  0  0
  -25.2557  -13.8159   20.5697 C   0  0  0  0  0  0
  -24.1849  -13.0405   20.9178 C   0  0  0  0  0  0
  -24.6400  -11.6877   20.8709 C   0  0  0  0  0  0
  -23.9110  -10.4263   21.0369 C   0  0  0  0  0  0
  -24.3667   -9.4188   21.9158 C   0  0  0  0  0  0
  -23.6336   -8.2237   22.0748 C   0  0  0  0  0  0
  -22.4298   -8.0290   21.3555 C   0  0  0  0  0  0
  -21.9942   -9.0248   20.4636 C   0  0  0  0  0  0
  -22.7269  -10.2128   20.3026 C   0  0  0  0  0  0
  -21.6854   -6.0765   22.5285 C   0  0  0  0  0  0
  -21.4017   -6.5653   23.8217 C   0  0  0  0  0  0
  -21.3662   -5.6801   24.9175 C   0  0  0  0  0  0
  -21.6040   -4.3061   24.7224 C   0  0  0  0  0  0
  -21.8818   -3.8183   23.4335 C   0  0  0  0  0  0
  -21.9196   -4.7005   22.3400 C   0  0  0  0  0  0
  -22.7862  -13.5187   21.1842 C   0  0  0  0  0  0
  -22.1643   -4.2187   21.0973 F   0  0  0  0  0  0
  -21.5643   -3.4527   25.7734 F   0  0  0  0  0  0
  -30.0268  -13.3344   20.4286 N   0  0  0  0  0  0
  -26.3009  -12.9357   20.3368 N   0  0  0  0  0  0
  -25.9332  -11.6500   20.5772 N   0  0  0  0  0  0
  -22.0576  -12.8163   22.0414 N   0  0  0  0  0  0
  -25.4180  -15.1909   20.4087 N   0  0  0  0  0  0
  -31.8746  -14.6200   20.1361 O   0  0  0  0  0  0
  -21.6644   -6.8905   21.4247 O   0  0  0  0  0  0
  -22.3499  -14.5465   20.6687 O   0  0  0  0  0  0
  -24.6098  -31.8696   23.2106 C   0  0  0  0  0  0
  -25.8981  -32.4847   23.8441 C   0  0  1  0  0  0
  -27.2370  -27.4122   20.1334 C   0  0  0  0  0  0
  -25.5852  -33.8650   24.2362 N   0  0  0  0  0  0
  -23.4009  -30.4895   21.5506 C   0  0  2  0  0  0
  -24.8510  -28.9477   20.1178 C   0  0  0  0  0  0
  -22.7369  -29.4678   22.5015 C   0  0  0  0  0  0
  -18.0263  -28.1366   22.8488 C   0  0  0  0  0  0
  -24.1482  -36.7316   23.2653 C   0  0  0  0  0  0
  -25.9280  -30.8318   21.3624 C   0  0  0  0  0  0
  -26.0088  -29.4633   20.7117 C   0  0  0  0  0  0
  -27.2029  -28.7060   20.7081 C   0  0  0  0  0  0
  -26.0630  -26.9134   19.5246 C   0  0  0  0  0  0
  -24.8754  -27.6752   19.5172 C   0  0  0  0  0  0
  -23.6100  -29.8127   20.1678 C   0  0  0  0  0  0
  -25.4097  -36.3127   24.0364 C   0  0  1  0  0  0
  -20.5842  -28.3653   23.1328 C   0  0  2  0  0  0
  -20.6744  -26.9392   22.5408 C   0  0  0  0  0  0
  -19.5739  -26.6370   21.5190 C   0  0  0  0  0  0
  -18.1916  -26.7926   22.1601 C   0  0  0  0  0  0
  -19.1511  -28.8824   23.2910 C   0  0  0  0  0  0
  -18.9438  -30.1440   23.8911 C   0  0  0  0  0  0
  -17.6441  -30.6583   24.0554 C   0  0  0  0  0  0
  -25.9006  -34.9493   23.5148 C   0  0  0  0  0  0
  -16.5333  -29.9067   23.6324 C   0  0  0  0  0  0
  -16.7251  -28.6479   23.0346 C   0  0  0  0  0  0
  -26.4419  -31.6641   25.0773 C   0  0  0  0  0  0
  -25.3740  -31.3716   26.1569 C   0  0  0  0  0  0
  -27.0235  -30.3102   24.6104 C   0  0  0  0  0  0
  -27.5995  -32.4401   25.7510 C   0  0  0  0  0  0
  -27.5579  -37.1815   24.8474 C   0  0  0  0  0  0
  -21.4106  -29.3036   22.3739 N   0  0  0  0  0  0
  -26.4291  -37.3794   23.9418 N   0  0  0  0  0  0
  -24.6645  -31.0779   22.1003 N   0  0  0  0  0  0
  -23.4142  -28.8244   23.3077 O   0  0  0  0  0  0
  -28.4200  -26.6996   20.1958 O   0  0  0  0  0  0
  -26.5565  -34.8938   22.4710 O   0  0  0  0  0  0
  -23.5283  -32.1471   23.7508 O   0  0  0  0  0  0
  -30.0827  -19.2296   19.0166 C   0  0  0  0  0  0
  -28.9154  -18.5990   21.0427 C   0  0  0  0  0  0
  -29.6399  -20.5614   19.1589 C   0  0  0  0  0  0
  -28.4762  -19.9473   21.1948 C   0  0  0  0  0  0
  -29.7158  -18.2203   19.9364 C   0  0  0  0  0  0
  -28.8168  -20.9420   20.2344 C   0  0  0  0  0  0
  -30.2024  -16.7857   19.6272 C   0  0  0  0  0  0
  -27.8054  -24.4599   21.2358 C   0  0  0  0  0  0
  -28.2876  -22.9833   21.4401 C   0  0  0  0  0  0
  -28.4449  -25.2589   20.0625 C   0  0  0  0  0  0
  -29.9168  -15.6369   20.5198 N   0  0  0  0  0  0
  -28.3452  -22.2467   20.2188 O   0  0  0  0  0  0
  -31.4598  -12.3660   19.1501 H   0  0  0  0  0  0
  -30.2755  -11.3070   19.8691 H   0  0  0  0  0  0
  -29.7366  -11.7474   17.4514 H   0  0  0  0  0  0
  -29.6724  -13.4630   17.7654 H   0  0  0  0  0  0
  -27.8359  -11.2986   18.8415 H   0  0  0  0  0  0
  -27.3737  -12.6028   17.7869 H   0  0  0  0  0  0
  -27.6812  -14.2523   19.5426 H   0  0  0  0  0  0
  -28.6889  -12.0447   21.4057 H   0  0  0  0  0  0
  -28.4770  -13.7219   21.8345 H   0  0  0  0  0  0
  -25.2816   -9.5671   22.4714 H   0  0  0  0  0  0
  -24.0077   -7.4620   22.7423 H   0  0  0  0  0  0
  -21.0903   -8.8747   19.8902 H   0  0  0  0  0  0
  -22.3722  -10.9688   19.6141 H   0  0  0  0  0  0
  -21.1989   -7.6152   23.9730 H   0  0  0  0  0  0
  -21.1474   -6.0526   25.9081 H   0  0  0  0  0  0
  -22.0591   -2.7647   23.2819 H   0  0  0  0  0  0
  -22.4300  -11.9873   22.4819 H   0  0  0  0  0  0
  -21.1142  -13.1092   22.2549 H   0  0  0  0  0  0
  -24.6381  -15.8296   20.5153 H   0  0  0  0  0  0
  -26.2530  -15.6467   20.0669 H   0  0  0  0  0  0
  -26.7041  -32.5560   23.1212 H   0  0  0  0  0  0
  -25.0069  -33.9856   25.0548 H   0  0  0  0  0  0
  -22.6914  -31.3070   21.4055 H   0  0  0  0  0  0
  -23.3751  -35.9636   23.3332 H   0  0  0  0  0  0
  -24.3574  -36.8891   22.2055 H   0  0  0  0  0  0
  -23.7209  -37.6525   23.6639 H   0  0  0  0  0  0
  -26.0373  -31.5957   20.5928 H   0  0  0  0  0  0
  -26.8166  -30.8928   21.9783 H   0  0  0  0  0  0
  -28.0966  -29.1024   21.1706 H   0  0  0  0  0  0
  -26.0464  -25.9361   19.0640 H   0  0  0  0  0  0
  -23.9833  -27.2686   19.0638 H   0  0  0  0  0  0
  -23.7177  -30.5870   19.4059 H   0  0  0  0  0  0
  -22.7337  -29.2305   19.8734 H   0  0  0  0  0  0
  -25.1263  -36.2015   25.0850 H   0  0  0  0  0  0
  -20.9946  -28.3199   24.1447 H   0  0  0  0  0  0
  -20.5591  -26.2258   23.3589 H   0  0  0  0  0  0
  -21.6623  -26.7403   22.1238 H   0  0  0  0  0  0
  -19.6892  -25.6266   21.1244 H   0  0  0  0  0  0
  -19.6704  -27.3155   20.6702 H   0  0  0  0  0  0
  -17.4178  -26.6683   21.4001 H   0  0  0  0  0  0
  -18.0330  -26.0055   22.8986 H   0  0  0  0  0  0
  -19.7907  -30.7248   24.2293 H   0  0  0  0  0  0
  -17.4986  -31.6267   24.5140 H   0  0  0  0  0  0
  -15.5333  -30.2957   23.7649 H   0  0  0  0  0  0
  -15.8662  -28.0795   22.7065 H   0  0  0  0  0  0
  -24.5885  -30.7069   25.7947 H   0  0  0  0  0  0
  -24.8966  -32.2840   26.5141 H   0  0  0  0  0  0
  -25.8172  -30.8832   27.0254 H   0  0  0  0  0  0
  -26.2737  -29.6921   24.1132 H   0  0  0  0  0  0
  -27.3975  -29.7290   25.4538 H   0  0  0  0  0  0
  -27.8596  -30.4458   23.9251 H   0  0  0  0  0  0
  -27.2581  -33.3676   26.2126 H   0  0  0  0  0  0
  -28.3746  -32.7021   25.0301 H   0  0  0  0  0  0
  -28.0720  -31.8531   26.5389 H   0  0  0  0  0  0
  -28.2610  -38.0103   24.7490 H   0  0  0  0  0  0
  -28.1067  -36.2626   24.6329 H   0  0  0  0  0  0
  -27.2315  -37.1499   25.8889 H   0  0  0  0  0  0
  -20.9257  -29.8761   21.6981 H   0  0  0  0  0  0
  -26.0204  -38.2883   24.1395 H   0  0  0  0  0  0
  -30.7007  -18.9838   18.1647 H   0  0  0  0  0  0
  -28.6099  -17.8550   21.7650 H   0  0  0  0  0  0
  -29.9236  -21.3005   18.4228 H   0  0  0  0  0  0
  -27.8384  -20.1965   22.0317 H   0  0  0  0  0  0
  -31.2747  -16.8705   19.4316 H   0  0  0  0  0  0
  -29.7664  -16.5194   18.6622 H   0  0  0  0  0  0
  -27.9987  -24.9990   22.1652 H   0  0  0  0  0  0
  -26.7217  -24.4705   21.1233 H   0  0  0  0  0  0
  -27.6106  -22.4867   22.1328 H   0  0  0  0  0  0
  -29.2721  -22.9660   21.9113 H   0  0  0  0  0  0
  -28.0369  -24.9438   19.1023 H   0  0  0  0  0  0
  -29.5009  -24.9925   20.0213 H   0  0  0  0  0  0
  -28.9616  -15.5095   20.8101 H   0  0  0  0  0  0
  1 25  1  0  0  0
  1 30  2  0  0  0
  1 81  1  0  0  0
  2  3  1  0  0  0
  2 25  1  0  0  0
  2 83  1  0  0  0
  2 84  1  0  0  0
  3  4  1  0  0  0
  3 85  1  0  0  0
  3 86  1  0  0  0
  4  5  1  0  0  0
  4 87  1  0  0  0
  4 88  1  0  0  0
  5  6  1  0  0  0
  5 26  1  0  0  0
  5 89  1  0  0  0
  6 25  1  0  0  0
  6 90  1  0  0  0
  6 91  1  0  0  0
  7  8  2  0  0  0
  7 26  1  0  0  0
  7 29  1  0  0  0
  8  9  1  0  0  0
  8 22  1  0  0  0
  9 10  1  0  0  0
  9 27  2  0  0  0
 10 11  2  0  0  0
 10 15  1  0  0  0
 11 12  1  0  0  0
 11 92  1  0  0  0
 12 13  2  0  0  0
 12 93  1  0  0  0
 13 14  1  0  0  0
 13 31  1  0  0  0
 14 15  2  0  0  0
 14 94  1  0  0  0
 15 95  1  0  0  0
 16 17  2  0  0  0
 16 21  1  0  0  0
 16 31  1  0  0  0
 17 18  1  0  0  0
 17 96  1  0  0  0
 18 19  2  0  0  0
 18 97  1  0  0  0
 19 20  1  0  0  0
 19 24  1  0  0  0
 20 21  2  0  0  0
 20 98  1  0  0  0
 21 23  1  0  0  0
 22 28  1  0  0  0
 22 32  2  0  0  0
 26 27  1  0  0  0
 28 99  1  0  0  0
 28100  1  0  0  0
 29101  1  0  0  0
 29102  1  0  0  0
 33 34  1  0  0  0
 33 66  1  0  0  0
 33 70  2  0  0  0
 34 36  1  0  0  0
 34 59  1  0  0  0
 34103  1  0  0  0
 35 44  2  0  0  0
 35 45  1  0  0  0
 35 68  1  0  0  0
 36 56  1  0  0  0
 36104  1  0  0  0
 37 39  1  0  0  0
 37 47  1  0  0  0
 37 66  1  0  0  0
 37105  1  0  0  0
 38 43  2  0  0  0
 38 46  1  0  0  0
 38 47  1  0  0  0
 39 64  1  0  0  0
 39 67  2  0  0  0
 40 52  1  0  0  0
 40 53  2  0  0  0
 40 58  1  0  0  0
 41106  1  0  0  0
 41107  1  0  0  0
 41108  1  0  0  0
 41 48  1  0  0  0
 42 43  1  0  0  0
 42 66  1  0  0  0
 42109  1  0  0  0
 42110  1  0  0  0
 43 44  1  0  0  0
 44111  1  0  0  0
 45 46  2  0  0  0
 45112  1  0  0  0
 46113  1  0  0  0
 47114  1  0  0  0
 47115  1  0  0  0
 48 56  1  0  0  0
 48 65  1  0  0  0
 48116  1  0  0  0
 49 50  1  0  0  0
 49 53  1  0  0  0
 49 64  1  0  0  0
 49117  1  0  0  0
 50 51  1  0  0  0
 50118  1  0  0  0
 50119  1  0  0  0
 51 52  1  0  0  0
 51120  1  0  0  0
 51121  1  0  0  0
 52122  1  0  0  0
 52123  1  0  0  0
 53 54  1  0  0  0
 54 55  2  0  0  0
 54124  1  0  0  0
 55 57  1  0  0  0
 55125  1  0  0  0
 56 69  2  0  0  0
 57 58  2  0  0  0
 57126  1  0  0  0
 58127  1  0  0  0
 59 60  1  0  0  0
 59 61  1  0  0  0
 59 62  1  0  0  0
 60128  1  0  0  0
 60129  1  0  0  0
 60130  1  0  0  0
 61131  1  0  0  0
 61132  1  0  0  0
 61133  1  0  0  0
 62134  1  0  0  0
 62135  1  0  0  0
 62136  1  0  0  0
 63 65  1  0  0  0
 63137  1  0  0  0
 63138  1  0  0  0
 63139  1  0  0  0
 64140  1  0  0  0
 65141  1  0  0  0
 68 80  1  0  0  0
 71 73  2  0  0  0
 71 75  1  0  0  0
 71142  1  0  0  0
 72 74  1  0  0  0
 72 75  2  0  0  0
 72143  1  0  0  0
 73 76  1  0  0  0
 73144  1  0  0  0
 74 76  2  0  0  0
 74145  1  0  0  0
 75 77  1  0  0  0
 76 82  1  0  0  0
 77 81  1  0  0  0
 77146  1  0  0  0
 77147  1  0  0  0
 78 79  1  0  0  0
 78 80  1  0  0  0
 78148  1  0  0  0
 78149  1  0  0  0
 79 82  1  0  0  0
 79150  1  0  0  0
 79151  1  0  0  0
 80152  1  0  0  0
 80153  1  0  0  0
 81154  1  0  0  0
M  ISO  4   1 100  68 101  80 101  81 100
M  END
> <chiral flag>
0

> <version>
0

> <s_m_source_file>
/data/baiqing/PycharmProjects/Reinvent-master-3.2/result/LINK_invent/BTK/process_docking_weight1_custom_product_contain_oxygen_bond_distance_aromatic_linkinvent_7_9_3/rearranged_h_0012.sdf

> <i_m_source_file_index>
35

> <r_mmod_Potential_Energy-OPLS-2005>
-43.8608894348145

> <r_mmod_Stretch_Energy-OPLS-2005>
44.3968620300293

> <r_mmod_Bend_Energy-OPLS-2005>
128.683959960938

> <r_mmod_Torsional_Energy-OPLS-2005>
231.517532348633

> <r_mmod_Improper_Torsional_Energy-OPLS-2005>
11.4373321533203

> <r_mmod_Van_der_Waal_Energy-OPLS-2005>
144.70849609375

> <r_mmod_Electrostatic_Energy-OPLS-2005>
-417.623291015625

> <r_mmod_Solvation_Energy-OPLS-2005>
-211.263778686523

> <b_mmod_Minimization_Converged-OPLS-2005>
0

> <r_mmod_RMS_Derivative-OPLS-2005>
4.2318434715271

$$$$
35
                    3D
 Structure written by MMmdl.
159167  0  0  1  0            999 V2000
  -30.7077  -14.4834   20.4779 C   0  0  0  0  0  0
  -30.4136  -12.2960   19.4251 C   0  0  0  0  0  0
  -29.5014  -12.4779   18.1969 C   0  0  0  0  0  0
  -28.0208  -12.3441   18.6043 C   0  0  0  0  0  0
  -27.6503  -13.2142   19.8378 C   0  0  2  0  0  0
  -28.6876  -13.0586   20.9697 C   0  0  0  0  0  0
  -25.2625  -13.8216   20.5703 C   0  0  0  0  0  0
  -24.1871  -13.0467   20.9106 C   0  0  0  0  0  0
  -24.6441  -11.6942   20.8629 C   0  0  0  0  0  0
  -23.9100  -10.4338   21.0346 C   0  0  0  0  0  0
  -24.3645   -9.4286   21.9147 C   0  0  0  0  0  0
  -23.6352   -8.2315   22.0751 C   0  0  0  0  0  0
  -22.4326   -8.0337   21.3561 C   0  0  0  0  0  0
  -21.9944   -9.0301   20.4653 C   0  0  0  0  0  0
  -22.7256  -10.2181   20.3041 C   0  0  0  0  0  0
  -21.6877   -6.0790   22.5304 C   0  0  0  0  0  0
  -21.3995   -6.5671   23.8242 C   0  0  0  0  0  0
  -21.3634   -5.6807   24.9184 C   0  0  0  0  0  0
  -21.6045   -4.3079   24.7224 C   0  0  0  0  0  0
  -21.8835   -3.8184   23.4347 C   0  0  0  0  0  0
  -21.9222   -4.7014   22.3405 C   0  0  0  0  0  0
  -22.7915  -13.5283   21.1830 C   0  0  0  0  0  0
  -22.1698   -4.2236   21.0981 F   0  0  0  0  0  0
  -21.5637   -3.4514   25.7702 F   0  0  0  0  0  0
  -30.0160  -13.3174   20.4013 N   0  0  0  0  0  0
  -26.2995  -12.9374   20.3164 N   0  0  0  0  0  0
  -25.9324  -11.6524   20.5557 N   0  0  0  0  0  0
  -22.0602  -12.8236   22.0388 N   0  0  0  0  0  0
  -25.4347  -15.1968   20.4449 N   0  0  0  0  0  0
  -31.8950  -14.5776   20.1638 O   0  0  0  0  0  0
  -21.6697   -6.8923   21.4277 O   0  0  0  0  0  0
  -22.3570  -14.5618   20.6757 O   0  0  0  0  0  0
  -24.6203  -31.8709   23.2106 C   0  0  0  0  0  0
  -25.9094  -32.4862   23.8418 C   0  0  1  0  0  0
  -27.2201  -27.4492   20.0832 C   0  0  0  0  0  0
  -25.6018  -33.8678   24.2363 N   0  0  0  0  0  0
  -23.4067  -30.4968   21.5519 C   0  0  2  0  0  0
  -24.8450  -28.9627   20.1188 C   0  0  0  0  0  0
  -22.7452  -29.4660   22.4965 C   0  0  0  0  0  0
  -18.0273  -28.1384   22.8476 C   0  0  0  0  0  0
  -24.1461  -36.7334   23.2602 C   0  0  0  0  0  0
  -25.9330  -30.8390   21.3580 C   0  0  0  0  0  0
  -26.0062  -29.4707   20.7152 C   0  0  0  0  0  0
  -27.2001  -28.7212   20.6940 C   0  0  0  0  0  0
  -26.0489  -26.9547   19.4729 C   0  0  0  0  0  0
  -24.8570  -27.6994   19.5034 C   0  0  0  0  0  0
  -23.6159  -29.8385   20.1638 C   0  0  0  0  0  0
  -25.4093  -36.3130   24.0285 C   0  0  1  0  0  0
  -20.5880  -28.3671   23.1296 C   0  0  2  0  0  0
  -20.6785  -26.9402   22.5396 C   0  0  0  0  0  0
  -19.5766  -26.6369   21.5202 C   0  0  0  0  0  0
  -18.1921  -26.7933   22.1582 C   0  0  0  0  0  0
  -19.1532  -28.8836   23.2887 C   0  0  0  0  0  0
  -18.9441  -30.1452   23.8868 C   0  0  0  0  0  0
  -17.6451  -30.6572   24.0550 C   0  0  0  0  0  0
  -25.9031  -34.9488   23.5084 C   0  0  0  0  0  0
  -16.5351  -29.9066   23.6332 C   0  0  0  0  0  0
  -16.7262  -28.6503   23.0318 C   0  0  0  0  0  0
  -26.4474  -31.6705   25.0788 C   0  0  0  0  0  0
  -25.3671  -31.3902   26.1493 C   0  0  0  0  0  0
  -27.0304  -30.3159   24.6192 C   0  0  0  0  0  0
  -27.6049  -32.4451   25.7596 C   0  0  0  0  0  0
  -27.5569  -37.1816   24.8458 C   0  0  0  0  0  0
  -21.4165  -29.3060   22.3723 N   0  0  0  0  0  0
  -26.4275  -37.3813   23.9394 N   0  0  0  0  0  0
  -24.6717  -31.0834   22.0997 N   0  0  0  0  0  0
  -23.4238  -28.8163   23.2962 O   0  0  0  0  0  0
  -28.3855  -26.7287   20.0321 O   0  0  0  0  0  0
  -26.5485  -34.8918   22.4587 O   0  0  0  0  0  0
  -23.5388  -32.1476   23.7494 O   0  0  0  0  0  0
  -30.0045  -19.1180   19.3331 C   0  0  0  0  0  0
  -28.3863  -18.2619   20.9398 C   0  0  0  0  0  0
  -29.2526  -20.2954   19.1880 C   0  0  0  0  0  0
  -27.6427  -19.4584   20.8120 C   0  0  0  0  0  0
  -29.5975  -18.1055   20.2271 C   0  0  0  0  0  0
  -28.0982  -20.5014   19.9710 C   0  0  0  0  0  0
  -28.5321  -22.8172   21.9221 C   0  0  0  0  0  0
  -30.5490  -16.9337   20.4630 C   0  0  0  0  0  0
  -27.3884  -21.8546   19.9409 C   0  0  0  0  0  0
  -27.7433  -24.3074   20.0577 C   0  0  0  0  0  0
  -28.4038  -25.5130   20.7792 C   0  0  0  0  0  0
  -29.9720  -15.5966   20.6579 N   0  0  0  0  0  0
  -28.2436  -22.9587   20.4695 N   0  3  1  0  0  0
  -31.4620  -12.3742   19.1298 H   0  0  0  0  0  0
  -30.2961  -11.2991   19.8551 H   0  0  0  0  0  0
  -29.7513  -11.7446   17.4315 H   0  0  0  0  0  0
  -29.6710  -13.4534   17.7422 H   0  0  0  0  0  0
  -27.8359  -11.2905   18.8143 H   0  0  0  0  0  0
  -27.3808  -12.5937   17.7585 H   0  0  0  0  0  0
  -27.6727  -14.2498   19.4929 H   0  0  0  0  0  0
  -28.6571  -12.0560   21.3982 H   0  0  0  0  0  0
  -28.4590  -13.7388   21.7913 H   0  0  0  0  0  0
  -25.2803   -9.5845   22.4664 H   0  0  0  0  0  0
  -24.0120   -7.4747   22.7473 H   0  0  0  0  0  0
  -21.0875   -8.8812   19.8951 H   0  0  0  0  0  0
  -22.3708  -10.9712   19.6134 H   0  0  0  0  0  0
  -21.1936   -7.6163   23.9756 H   0  0  0  0  0  0
  -21.1419   -6.0519   25.9096 H   0  0  0  0  0  0
  -22.0622   -2.7656   23.2807 H   0  0  0  0  0  0
  -22.4283  -11.9816   22.4569 H   0  0  0  0  0  0
  -21.1234  -13.1231   22.2678 H   0  0  0  0  0  0
  -24.6646  -15.8347   20.6182 H   0  0  0  0  0  0
  -26.3018  -15.6713   20.2361 H   0  0  0  0  0  0
  -26.7180  -32.5513   23.1198 H   0  0  0  0  0  0
  -25.0595  -33.9932   25.0796 H   0  0  0  0  0  0
  -22.6933  -31.3104   21.4107 H   0  0  0  0  0  0
  -23.3724  -35.9678   23.3312 H   0  0  0  0  0  0
  -24.3574  -36.8933   22.2022 H   0  0  0  0  0  0
  -23.7172  -37.6536   23.6595 H   0  0  0  0  0  0
  -26.0276  -31.5926   20.5761 H   0  0  0  0  0  0
  -26.8331  -30.9091   21.9596 H   0  0  0  0  0  0
  -28.1092  -29.1125   21.1332 H   0  0  0  0  0  0
  -26.0487  -26.0175   18.9350 H   0  0  0  0  0  0
  -23.9679  -27.3072   19.0284 H   0  0  0  0  0  0
  -23.7449  -30.6158   19.4104 H   0  0  0  0  0  0
  -22.7347  -29.2775   19.8552 H   0  0  0  0  0  0
  -25.1246  -36.2050   25.0771 H   0  0  0  0  0  0
  -20.9963  -28.3207   24.1424 H   0  0  0  0  0  0
  -20.5682  -26.2252   23.3575 H   0  0  0  0  0  0
  -21.6639  -26.7430   22.1178 H   0  0  0  0  0  0
  -19.6904  -25.6254   21.1276 H   0  0  0  0  0  0
  -19.6726  -27.3129   20.6698 H   0  0  0  0  0  0
  -17.4213  -26.6715   21.3960 H   0  0  0  0  0  0
  -18.0263  -26.0067   22.8961 H   0  0  0  0  0  0
  -19.7922  -30.7296   24.2209 H   0  0  0  0  0  0
  -17.4986  -31.6230   24.5153 H   0  0  0  0  0  0
  -15.5336  -30.2936   23.7652 H   0  0  0  0  0  0
  -15.8684  -28.0818   22.6997 H   0  0  0  0  0  0
  -24.5955  -30.7065   25.7943 H   0  0  0  0  0  0
  -24.8650  -32.3063   26.4655 H   0  0  0  0  0  0
  -25.7978  -30.9414   27.0444 H   0  0  0  0  0  0
  -26.2897  -29.7001   24.1077 H   0  0  0  0  0  0
  -27.3921  -29.7347   25.4668 H   0  0  0  0  0  0
  -27.8780  -30.4555   23.9466 H   0  0  0  0  0  0
  -27.2749  -33.3896   26.1974 H   0  0  0  0  0  0
  -28.4022  -32.6813   25.0525 H   0  0  0  0  0  0
  -28.0484  -31.8651   26.5704 H   0  0  0  0  0  0
  -28.2581  -38.0115   24.7526 H   0  0  0  0  0  0
  -28.1026  -36.2641   24.6254 H   0  0  0  0  0  0
  -27.2261  -37.1462   25.8844 H   0  0  0  0  0  0
  -20.9289  -29.8934   21.7104 H   0  0  0  0  0  0
  -26.0171  -38.2892   24.1435 H   0  0  0  0  0  0
  -30.9258  -19.0150   18.7744 H   0  0  0  0  0  0
  -28.0496  -17.5014   21.6270 H   0  0  0  0  0  0
  -29.6032  -21.0584   18.5078 H   0  0  0  0  0  0
  -26.7426  -19.5941   21.4002 H   0  0  0  0  0  0
  -28.8614  -21.8118   22.1870 H   0  0  0  0  0  0
  -27.6560  -23.0530   22.5239 H   0  0  0  0  0  0
  -29.3419  -23.4752   22.2345 H   0  0  0  0  0  0
  -31.1601  -17.1674   21.3363 H   0  0  0  0  0  0
  -31.2375  -16.9090   19.6151 H   0  0  0  0  0  0
  -26.4623  -21.8109   20.5186 H   0  0  0  0  0  0
  -27.0966  -22.0559   18.9072 H   0  0  0  0  0  0
  -27.8936  -24.4134   18.9814 H   0  0  0  0  0  0
  -26.6664  -24.3443   20.2210 H   0  0  0  0  0  0
  -29.4600  -25.3177   20.9555 H   0  0  0  0  0  0
  -27.9512  -25.6632   21.7615 H   0  0  0  0  0  0
  -28.9862  -15.5139   20.8334 H   0  0  0  0  0  0
  -29.1368  -22.8548   20.0110 H   0  0  0  0  0  0
  1 25  1  0  0  0
  1 30  2  0  0  0
  1 82  1  0  0  0
  2  3  1  0  0  0
  2 25  1  0  0  0
  2 84  1  0  0  0
  2 85  1  0  0  0
  3  4  1  0  0  0
  3 86  1  0  0  0
  3 87  1  0  0  0
  4  5  1  0  0  0
  4 88  1  0  0  0
  4 89  1  0  0  0
  5  6  1  0  0  0
  5 26  1  0  0  0
  5 90  1  0  0  0
  6 25  1  0  0  0
  6 91  1  0  0  0
  6 92  1  0  0  0
  7  8  2  0  0  0
  7 26  1  0  0  0
  7 29  1  0  0  0
  8  9  1  0  0  0
  8 22  1  0  0  0
  9 10  1  0  0  0
  9 27  2  0  0  0
 10 11  2  0  0  0
 10 15  1  0  0  0
 11 12  1  0  0  0
 11 93  1  0  0  0
 12 13  2  0  0  0
 12 94  1  0  0  0
 13 14  1  0  0  0
 13 31  1  0  0  0
 14 15  2  0  0  0
 14 95  1  0  0  0
 15 96  1  0  0  0
 16 17  2  0  0  0
 16 21  1  0  0  0
 16 31  1  0  0  0
 17 18  1  0  0  0
 17 97  1  0  0  0
 18 19  2  0  0  0
 18 98  1  0  0  0
 19 20  1  0  0  0
 19 24  1  0  0  0
 20 21  2  0  0  0
 20 99  1  0  0  0
 21 23  1  0  0  0
 22 28  1  0  0  0
 22 32  2  0  0  0
 26 27  1  0  0  0
 28100  1  0  0  0
 28101  1  0  0  0
 29102  1  0  0  0
 29103  1  0  0  0
 33 34  1  0  0  0
 33 66  1  0  0  0
 33 70  2  0  0  0
 34 36  1  0  0  0
 34 59  1  0  0  0
 34104  1  0  0  0
 35 44  2  0  0  0
 35 45  1  0  0  0
 35 68  1  0  0  0
 36 56  1  0  0  0
 36105  1  0  0  0
 37 39  1  0  0  0
 37 47  1  0  0  0
 37 66  1  0  0  0
 37106  1  0  0  0
 38 43  2  0  0  0
 38 46  1  0  0  0
 38 47  1  0  0  0
 39 64  1  0  0  0
 39 67  2  0  0  0
 40 52  1  0  0  0
 40 53  2  0  0  0
 40 58  1  0  0  0
 41107  1  0  0  0
 41108  1  0  0  0
 41109  1  0  0  0
 41 48  1  0  0  0
 42 43  1  0  0  0
 42 66  1  0  0  0
 42110  1  0  0  0
 42111  1  0  0  0
 43 44  1  0  0  0
 44112  1  0  0  0
 45 46  2  0  0  0
 45113  1  0  0  0
 46114  1  0  0  0
 47115  1  0  0  0
 47116  1  0  0  0
 48 56  1  0  0  0
 48 65  1  0  0  0
 48117  1  0  0  0
 49 50  1  0  0  0
 49 53  1  0  0  0
 49 64  1  0  0  0
 49118  1  0  0  0
 50 51  1  0  0  0
 50119  1  0  0  0
 50120  1  0  0  0
 51 52  1  0  0  0
 51121  1  0  0  0
 51122  1  0  0  0
 52123  1  0  0  0
 52124  1  0  0  0
 53 54  1  0  0  0
 54 55  2  0  0  0
 54125  1  0  0  0
 55 57  1  0  0  0
 55126  1  0  0  0
 56 69  2  0  0  0
 57 58  2  0  0  0
 57127  1  0  0  0
 58128  1  0  0  0
 59 60  1  0  0  0
 59 61  1  0  0  0
 59 62  1  0  0  0
 60129  1  0  0  0
 60130  1  0  0  0
 60131  1  0  0  0
 61132  1  0  0  0
 61133  1  0  0  0
 61134  1  0  0  0
 62135  1  0  0  0
 62136  1  0  0  0
 62137  1  0  0  0
 63 65  1  0  0  0
 63138  1  0  0  0
 63139  1  0  0  0
 63140  1  0  0  0
 64141  1  0  0  0
 65142  1  0  0  0
 68 81  1  0  0  0
 71 73  2  0  0  0
 71 75  1  0  0  0
 71143  1  0  0  0
 72 74  1  0  0  0
 72 75  2  0  0  0
 72144  1  0  0  0
 73 76  1  0  0  0
 73145  1  0  0  0
 74 76  2  0  0  0
 74146  1  0  0  0
 75 78  1  0  0  0
 76 79  1  0  0  0
 77147  1  0  0  0
 77148  1  0  0  0
 77149  1  0  0  0
 77 83  1  0  0  0
 78 82  1  0  0  0
 78150  1  0  0  0
 78151  1  0  0  0
 79 83  1  0  0  0
 79152  1  0  0  0
 79153  1  0  0  0
 80 81  1  0  0  0
 80 83  1  0  0  0
 80154  1  0  0  0
 80155  1  0  0  0
 81156  1  0  0  0
 81157  1  0  0  0
 82158  1  0  0  0
 83159  1  0  0  0
M  CHG  1  83   1
M  ISO  4   1 100  68 101  81 101  82 100
M  END
> <chiral flag>
0

> <version>
0

> <s_m_source_file>
/data/baiqing/PycharmProjects/Reinvent-master-3.2/result/LINK_invent/BTK/process_docking_weight1_custom_product_contain_oxygen_bond_distance_aromatic_linkinvent_7_9_3/rearranged_h_0012.sdf

> <i_m_source_file_index>
36

> <r_mmod_Potential_Energy-OPLS-2005>
-181.768569946289

> <r_mmod_Stretch_Energy-OPLS-2005>
34.3283462524414

> <r_mmod_Bend_Energy-OPLS-2005>
96.5250396728516

> <r_mmod_Torsional_Energy-OPLS-2005>
227.790405273438

> <r_mmod_Improper_Torsional_Energy-OPLS-2005>
6.37635946273804

> <r_mmod_Van_der_Waal_Energy-OPLS-2005>
155.317413330078

> <r_mmod_Electrostatic_Energy-OPLS-2005>
-292.562255859375

> <r_mmod_Solvation_Energy-OPLS-2005>
-430.284912109375

> <b_mmod_Minimization_Converged-OPLS-2005>
0

> <r_mmod_RMS_Derivative-OPLS-2005>
5.57199382781982

$$$$
36
                    3D
 Structure written by MMmdl.
154162  0  0  1  0            999 V2000
  -30.6599  -14.6486   20.5828 C   0  0  0  0  0  0
  -30.4308  -12.4218   19.4622 C   0  0  0  0  0  0
  -29.5077  -12.5261   18.2288 C   0  0  0  0  0  0
  -28.0317  -12.3493   18.6336 C   0  0  0  0  0  0
  -27.6488  -13.2212   19.8571 C   0  0  2  0  0  0
  -28.6835  -13.0792   20.9895 C   0  0  0  0  0  0
  -25.2544  -13.8185   20.5675 C   0  0  0  0  0  0
  -24.1817  -13.0440   20.9174 C   0  0  0  0  0  0
  -24.6391  -11.6912   20.8719 C   0  0  0  0  0  0
  -23.9064  -10.4295   21.0399 C   0  0  0  0  0  0
  -24.3617   -9.4211   21.9177 C   0  0  0  0  0  0
  -23.6292   -8.2247   22.0752 C   0  0  0  0  0  0
  -22.4273   -8.0283   21.3545 C   0  0  0  0  0  0
  -21.9907   -9.0255   20.4647 C   0  0  0  0  0  0
  -22.7235  -10.2134   20.3052 C   0  0  0  0  0  0
  -21.6854   -6.0738   22.5280 C   0  0  0  0  0  0
  -21.4016   -6.5643   23.8213 C   0  0  0  0  0  0
  -21.3657   -5.6794   24.9175 C   0  0  0  0  0  0
  -21.6042   -4.3056   24.7226 C   0  0  0  0  0  0
  -21.8817   -3.8148   23.4347 C   0  0  0  0  0  0
  -21.9194   -4.6966   22.3404 C   0  0  0  0  0  0
  -22.7843  -13.5231   21.1854 C   0  0  0  0  0  0
  -22.1660   -4.2151   21.0981 F   0  0  0  0  0  0
  -21.5624   -3.4540   25.7738 F   0  0  0  0  0  0
  -30.0042  -13.4425   20.4476 N   0  0  0  0  0  0
  -26.2957  -12.9369   20.3260 N   0  0  0  0  0  0
  -25.9314  -11.6518   20.5710 N   0  0  0  0  0  0
  -22.0498  -12.8220   22.0418 N   0  0  0  0  0  0
  -25.4282  -15.1910   20.4146 N   0  0  0  0  0  0
  -31.7612  -14.8176   20.0489 O   0  0  0  0  0  0
  -21.6639   -6.8879   21.4241 O   0  0  0  0  0  0
  -22.3525  -14.5540   20.6710 O   0  0  0  0  0  0
  -24.6266  -31.8587   23.2009 C   0  0  0  0  0  0
  -25.9109  -32.4772   23.8346 C   0  0  1  0  0  0
  -27.2231  -27.3123   20.1278 C   0  0  0  0  0  0
  -25.5922  -33.8573   24.2276 N   0  0  0  0  0  0
  -23.4209  -30.4808   21.5436 C   0  0  2  0  0  0
  -24.8684  -28.9308   20.1135 C   0  0  0  0  0  0
  -22.7480  -29.4617   22.4937 C   0  0  0  0  0  0
  -18.0298  -28.1376   22.8485 C   0  0  0  0  0  0
  -24.1490  -36.7292   23.2639 C   0  0  0  0  0  0
  -25.9616  -30.7889   21.3709 C   0  0  0  0  0  0
  -26.0373  -29.4139   20.7168 C   0  0  0  0  0  0
  -27.2209  -28.6172   20.7101 C   0  0  0  0  0  0
  -26.0364  -26.8814   19.4987 C   0  0  0  0  0  0
  -24.8696  -27.6701   19.4945 C   0  0  0  0  0  0
  -23.6366  -29.8120   20.1602 C   0  0  0  0  0  0
  -25.4113  -36.3080   24.0329 C   0  0  1  0  0  0
  -20.5896  -28.3686   23.1289 C   0  0  2  0  0  0
  -20.6795  -26.9411   22.5405 C   0  0  0  0  0  0
  -19.5776  -26.6395   21.5199 C   0  0  0  0  0  0
  -18.1953  -26.7923   22.1614 C   0  0  0  0  0  0
  -19.1546  -28.8846   23.2884 C   0  0  0  0  0  0
  -18.9464  -30.1446   23.8907 C   0  0  0  0  0  0
  -17.6462  -30.6574   24.0567 C   0  0  0  0  0  0
  -25.9049  -34.9449   23.5103 C   0  0  0  0  0  0
  -16.5357  -29.9069   23.6326 C   0  0  0  0  0  0
  -16.7284  -28.6488   23.0348 C   0  0  0  0  0  0
  -26.4497  -31.6579   25.0717 C   0  0  0  0  0  0
  -25.3733  -31.3713   26.1444 C   0  0  0  0  0  0
  -27.0341  -30.3005   24.6165 C   0  0  0  0  0  0
  -27.6055  -32.4312   25.7492 C   0  0  0  0  0  0
  -27.5577  -37.1803   24.8466 C   0  0  0  0  0  0
  -21.4191  -29.3052   22.3690 N   0  0  0  0  0  0
  -26.4292  -37.3774   23.9408 N   0  0  0  0  0  0
  -24.6885  -31.0596   22.0957 N   0  0  0  0  0  0
  -23.4206  -28.8151   23.3011 O   0  0  0  0  0  0
  -28.3350  -26.4585   20.1395 O   0  0  0  0  0  0
  -26.5621  -34.8918   22.4671 O   0  0  0  0  0  0
  -23.5427  -32.1383   23.7338 O   0  0  0  0  0  0
  -29.3297  -18.0700   21.7810 C   0  0  0  0  0  0
  -29.1452  -19.4465   21.4405 C   0  0  0  0  0  0
  -30.1488  -17.5974   19.5842 C   0  0  0  0  0  0
  -29.8542  -17.0866   20.8791 C   0  0  0  0  0  0
  -29.4737  -19.9495   20.1570 C   0  0  0  0  0  0
  -29.9715  -18.9759   19.2418 C   0  0  0  0  0  0
  -30.0015  -15.4271   22.7546 C   0  0  0  0  0  0
  -28.8556  -23.8437   19.8991 C   0  0  0  0  0  0
  -28.1444  -25.0696   20.6364 C   0  0  0  0  0  0
  -28.7725  -22.3772   20.5477 C   0  0  0  0  0  0
  -30.0602  -15.6719   21.3028 N   0  0  0  0  0  0
  -29.3578  -21.2992   19.7382 O   0  0  0  0  0  0
  -30.2946  -19.3743   17.9874 F   0  0  0  0  0  0
  -31.4730  -12.5427   19.1625 H   0  0  0  0  0  0
  -30.3677  -11.4259   19.9034 H   0  0  0  0  0  0
  -29.7847  -11.7767   17.4863 H   0  0  0  0  0  0
  -29.6429  -13.4971   17.7498 H   0  0  0  0  0  0
  -27.8774  -11.2957   18.8691 H   0  0  0  0  0  0
  -27.3772  -12.5714   17.7901 H   0  0  0  0  0  0
  -27.6688  -14.2585   19.5208 H   0  0  0  0  0  0
  -28.7020  -12.0566   21.3686 H   0  0  0  0  0  0
  -28.3770  -13.6951   21.8311 H   0  0  0  0  0  0
  -25.2765   -9.5689   22.4746 H   0  0  0  0  0  0
  -24.0003   -7.4643   22.7474 H   0  0  0  0  0  0
  -21.0834   -8.8773   19.8959 H   0  0  0  0  0  0
  -22.3691  -10.9669   19.6159 H   0  0  0  0  0  0
  -21.2010   -7.6151   23.9718 H   0  0  0  0  0  0
  -21.1480   -6.0525   25.9078 H   0  0  0  0  0  0
  -22.0599   -2.7611   23.2847 H   0  0  0  0  0  0
  -22.4122  -11.9874   22.4787 H   0  0  0  0  0  0
  -21.1124  -13.1252   22.2651 H   0  0  0  0  0  0
  -24.6697  -15.8516   20.5439 H   0  0  0  0  0  0
  -26.2938  -15.6318   20.1298 H   0  0  0  0  0  0
  -26.7177  -32.5449   23.1096 H   0  0  0  0  0  0
  -25.0079  -33.9718   25.0427 H   0  0  0  0  0  0
  -22.7151  -31.3012   21.3986 H   0  0  0  0  0  0
  -23.3749  -35.9628   23.3304 H   0  0  0  0  0  0
  -24.3582  -36.8910   22.2053 H   0  0  0  0  0  0
  -23.7247  -37.6498   23.6658 H   0  0  0  0  0  0
  -26.0901  -31.5500   20.6001 H   0  0  0  0  0  0
  -26.8428  -30.8418   21.9986 H   0  0  0  0  0  0
  -28.1203  -28.9846   21.1842 H   0  0  0  0  0  0
  -26.0053  -25.9163   19.0134 H   0  0  0  0  0  0
  -23.9744  -27.2960   19.0166 H   0  0  0  0  0  0
  -23.7566  -30.5867   19.4022 H   0  0  0  0  0  0
  -22.7565  -29.2417   19.8583 H   0  0  0  0  0  0
  -25.1291  -36.1933   25.0822 H   0  0  0  0  0  0
  -20.9987  -28.3261   24.1411 H   0  0  0  0  0  0
  -20.5696  -26.2293   23.3602 H   0  0  0  0  0  0
  -21.6668  -26.7452   22.1201 H   0  0  0  0  0  0
  -19.6947  -25.6318   21.1205 H   0  0  0  0  0  0
  -19.6715  -27.3227   20.6744 H   0  0  0  0  0  0
  -17.4228  -26.6671   21.4009 H   0  0  0  0  0  0
  -18.0357  -26.0054   22.9001 H   0  0  0  0  0  0
  -19.7935  -30.7259   24.2294 H   0  0  0  0  0  0
  -17.5008  -31.6252   24.5170 H   0  0  0  0  0  0
  -15.5354  -30.2965   23.7643 H   0  0  0  0  0  0
  -15.8690  -28.0801   22.7061 H   0  0  0  0  0  0
  -24.5909  -30.7058   25.7777 H   0  0  0  0  0  0
  -24.8920  -32.2878   26.4869 H   0  0  0  0  0  0
  -25.8061  -30.8896   27.0221 H   0  0  0  0  0  0
  -26.2915  -29.6760   24.1187 H   0  0  0  0  0  0
  -27.4045  -29.7257   25.4664 H   0  0  0  0  0  0
  -27.8780  -30.4300   23.9384 H   0  0  0  0  0  0
  -27.2662  -33.3608   26.2075 H   0  0  0  0  0  0
  -28.3866  -32.6879   25.0323 H   0  0  0  0  0  0
  -28.0724  -31.8434   26.5406 H   0  0  0  0  0  0
  -28.2598  -38.0096   24.7502 H   0  0  0  0  0  0
  -28.1069  -36.2627   24.6301 H   0  0  0  0  0  0
  -27.2297  -37.1463   25.8870 H   0  0  0  0  0  0
  -20.9363  -29.8794   21.6920 H   0  0  0  0  0  0
  -26.0173  -38.2851   24.1400 H   0  0  0  0  0  0
  -29.0539  -17.7933   22.7876 H   0  0  0  0  0  0
  -28.7540  -20.1154   22.1930 H   0  0  0  0  0  0
  -30.5396  -16.9382   18.8233 H   0  0  0  0  0  0
  -28.9843  -15.5525   23.1276 H   0  0  0  0  0  0
  -30.6504  -16.1250   23.2852 H   0  0  0  0  0  0
  -30.3270  -14.4263   23.0477 H   0  0  0  0  0  0
  -29.9097  -24.0914   19.7739 H   0  0  0  0  0  0
  -28.4499  -23.7876   18.8888 H   0  0  0  0  0  0
  -28.5045  -25.0801   21.6655 H   0  0  0  0  0  0
  -27.0847  -24.8310   20.7272 H   0  0  0  0  0  0
  -27.7266  -22.1290   20.7320 H   0  0  0  0  0  0
  -29.2623  -22.3936   21.5216 H   0  0  0  0  0  0
  1 25  1  0  0  0
  1 30  2  0  0  0
  1 81  1  0  0  0
  2  3  1  0  0  0
  2 25  1  0  0  0
  2 84  1  0  0  0
  2 85  1  0  0  0
  3  4  1  0  0  0
  3 86  1  0  0  0
  3 87  1  0  0  0
  4  5  1  0  0  0
  4 88  1  0  0  0
  4 89  1  0  0  0
  5  6  1  0  0  0
  5 26  1  0  0  0
  5 90  1  0  0  0
  6 25  1  0  0  0
  6 91  1  0  0  0
  6 92  1  0  0  0
  7  8  2  0  0  0
  7 26  1  0  0  0
  7 29  1  0  0  0
  8  9  1  0  0  0
  8 22  1  0  0  0
  9 10  1  0  0  0
  9 27  2  0  0  0
 10 11  2  0  0  0
 10 15  1  0  0  0
 11 12  1  0  0  0
 11 93  1  0  0  0
 12 13  2  0  0  0
 12 94  1  0  0  0
 13 14  1  0  0  0
 13 31  1  0  0  0
 14 15  2  0  0  0
 14 95  1  0  0  0
 15 96  1  0  0  0
 16 17  2  0  0  0
 16 21  1  0  0  0
 16 31  1  0  0  0
 17 18  1  0  0  0
 17 97  1  0  0  0
 18 19  2  0  0  0
 18 98  1  0  0  0
 19 20  1  0  0  0
 19 24  1  0  0  0
 20 21  2  0  0  0
 20 99  1  0  0  0
 21 23  1  0  0  0
 22 28  1  0  0  0
 22 32  2  0  0  0
 26 27  1  0  0  0
 28100  1  0  0  0
 28101  1  0  0  0
 29102  1  0  0  0
 29103  1  0  0  0
 33 34  1  0  0  0
 33 66  1  0  0  0
 33 70  2  0  0  0
 34 36  1  0  0  0
 34 59  1  0  0  0
 34104  1  0  0  0
 35 44  2  0  0  0
 35 45  1  0  0  0
 35 68  1  0  0  0
 36 56  1  0  0  0
 36105  1  0  0  0
 37 39  1  0  0  0
 37 47  1  0  0  0
 37 66  1  0  0  0
 37106  1  0  0  0
 38 43  2  0  0  0
 38 46  1  0  0  0
 38 47  1  0  0  0
 39 64  1  0  0  0
 39 67  2  0  0  0
 40 52  1  0  0  0
 40 53  2  0  0  0
 40 58  1  0  0  0
 41107  1  0  0  0
 41108  1  0  0  0
 41109  1  0  0  0
 41 48  1  0  0  0
 42 43  1  0  0  0
 42 66  1  0  0  0
 42110  1  0  0  0
 42111  1  0  0  0
 43 44  1  0  0  0
 44112  1  0  0  0
 45 46  2  0  0  0
 45113  1  0  0  0
 46114  1  0  0  0
 47115  1  0  0  0
 47116  1  0  0  0
 48 56  1  0  0  0
 48 65  1  0  0  0
 48117  1  0  0  0
 49 50  1  0  0  0
 49 53  1  0  0  0
 49 64  1  0  0  0
 49118  1  0  0  0
 50 51  1  0  0  0
 50119  1  0  0  0
 50120  1  0  0  0
 51 52  1  0  0  0
 51121  1  0  0  0
 51122  1  0  0  0
 52123  1  0  0  0
 52124  1  0  0  0
 53 54  1  0  0  0
 54 55  2  0  0  0
 54125  1  0  0  0
 55 57  1  0  0  0
 55126  1  0  0  0
 56 69  2  0  0  0
 57 58  2  0  0  0
 57127  1  0  0  0
 58128  1  0  0  0
 59 60  1  0  0  0
 59 61  1  0  0  0
 59 62  1  0  0  0
 60129  1  0  0  0
 60130  1  0  0  0
 60131  1  0  0  0
 61132  1  0  0  0
 61133  1  0  0  0
 61134  1  0  0  0
 62135  1  0  0  0
 62136  1  0  0  0
 62137  1  0  0  0
 63 65  1  0  0  0
 63138  1  0  0  0
 63139  1  0  0  0
 63140  1  0  0  0
 64141  1  0  0  0
 65142  1  0  0  0
 68 79  1  0  0  0
 71 72  2  0  0  0
 71 74  1  0  0  0
 71143  1  0  0  0
 72 75  1  0  0  0
 72144  1  0  0  0
 73 74  2  0  0  0
 73 76  1  0  0  0
 73145  1  0  0  0
 74 81  1  0  0  0
 75 76  2  0  0  0
 75 82  1  0  0  0
 76 83  1  0  0  0
 77 81  1  0  0  0
 77146  1  0  0  0
 77147  1  0  0  0
 77148  1  0  0  0
 78 79  1  0  0  0
 78 80  1  0  0  0
 78149  1  0  0  0
 78150  1  0  0  0
 79151  1  0  0  0
 79152  1  0  0  0
 80 82  1  0  0  0
 80153  1  0  0  0
 80154  1  0  0  0
M  ISO  4   1 100  68 101  79 101  81 100
M  END
> <chiral flag>
0

> <version>
0

> <s_m_source_file>
/data/baiqing/PycharmProjects/Reinvent-master-3.2/result/LINK_invent/BTK/process_docking_weight1_custom_product_contain_oxygen_bond_distance_aromatic_linkinvent_7_9_3/rearranged_h_0012.sdf

> <i_m_source_file_index>
37

> <r_mmod_Potential_Energy-OPLS-2005>
257.405517578125

> <r_mmod_Stretch_Energy-OPLS-2005>
95.6894149780273

> <r_mmod_Bend_Energy-OPLS-2005>
154.103591918945

> <r_mmod_Torsional_Energy-OPLS-2005>
282.838745117188

> <r_mmod_Improper_Torsional_Energy-OPLS-2005>
2.56682324409485

> <r_mmod_Van_der_Waal_Energy-OPLS-2005>
149.994567871094

> <r_mmod_Electrostatic_Energy-OPLS-2005>
-282.324340820312

> <r_mmod_Solvation_Energy-OPLS-2005>
-194.920669555664

> <b_mmod_Minimization_Converged-OPLS-2005>
0

> <r_mmod_RMS_Derivative-OPLS-2005>
0.661779165267944

$$$$
37
                    3D
 Structure written by MMmdl.
159168  0  0  1  0            999 V2000
  -30.7180  -14.4523   20.6209 C   0  0  0  0  0  0
  -30.4209  -12.3146   19.4134 C   0  0  0  0  0  0
  -29.4894  -12.5129   18.2013 C   0  0  0  0  0  0
  -28.0127  -12.3674   18.6168 C   0  0  0  0  0  0
  -27.6606  -13.2053   19.8748 C   0  0  2  0  0  0
  -28.7003  -12.9784   20.9936 C   0  0  0  0  0  0
  -25.2581  -13.8157   20.5679 C   0  0  0  0  0  0
  -24.1832  -13.0435   20.9170 C   0  0  0  0  0  0
  -24.6381  -11.6905   20.8724 C   0  0  0  0  0  0
  -23.9053  -10.4292   21.0400 C   0  0  0  0  0  0
  -24.3609   -9.4216   21.9181 C   0  0  0  0  0  0
  -23.6291   -8.2247   22.0757 C   0  0  0  0  0  0
  -22.4272   -8.0278   21.3546 C   0  0  0  0  0  0
  -21.9908   -9.0249   20.4639 C   0  0  0  0  0  0
  -22.7233  -10.2131   20.3049 C   0  0  0  0  0  0
  -21.6851   -6.0735   22.5283 C   0  0  0  0  0  0
  -21.4010   -6.5637   23.8214 C   0  0  0  0  0  0
  -21.3656   -5.6793   24.9174 C   0  0  0  0  0  0
  -21.6044   -4.3057   24.7226 C   0  0  0  0  0  0
  -21.8820   -3.8150   23.4347 C   0  0  0  0  0  0
  -21.9190   -4.6964   22.3407 C   0  0  0  0  0  0
  -22.7856  -13.5238   21.1844 C   0  0  0  0  0  0
  -22.1660   -4.2152   21.0985 F   0  0  0  0  0  0
  -21.5632   -3.4540   25.7740 F   0  0  0  0  0  0
  -30.0315  -13.2900   20.4437 N   0  0  0  0  0  0
  -26.3013  -12.9321   20.3365 N   0  0  0  0  0  0
  -25.9308  -11.6480   20.5762 N   0  0  0  0  0  0
  -22.0498  -12.8220   22.0390 N   0  0  0  0  0  0
  -25.4317  -15.1876   20.4094 N   0  0  0  0  0  0
  -31.8164  -14.6660   20.0996 O   0  0  0  0  0  0
  -21.6637   -6.8874   21.4245 O   0  0  0  0  0  0
  -22.3542  -14.5550   20.6710 O   0  0  0  0  0  0
  -24.6156  -31.8662   23.2105 C   0  0  0  0  0  0
  -25.9051  -32.4806   23.8406 C   0  0  1  0  0  0
  -27.2337  -27.4330   20.1041 C   0  0  0  0  0  0
  -25.5911  -33.8608   24.2347 N   0  0  0  0  0  0
  -23.4036  -30.4891   21.5508 C   0  0  2  0  0  0
  -24.8510  -28.9547   20.1147 C   0  0  0  0  0  0
  -22.7408  -29.4650   22.4999 C   0  0  0  0  0  0
  -18.0265  -28.1381   22.8499 C   0  0  0  0  0  0
  -24.1481  -36.7294   23.2644 C   0  0  0  0  0  0
  -25.9315  -30.8343   21.3611 C   0  0  0  0  0  0
  -26.0113  -29.4689   20.7080 C   0  0  0  0  0  0
  -27.2094  -28.7176   20.6938 C   0  0  0  0  0  0
  -26.0592  -26.9309   19.5056 C   0  0  0  0  0  0
  -24.8702  -27.6854   19.5087 C   0  0  0  0  0  0
  -23.6117  -29.8199   20.1657 C   0  0  0  0  0  0
  -25.4107  -36.3103   24.0345 C   0  0  1  0  0  0
  -20.5854  -28.3670   23.1316 C   0  0  2  0  0  0
  -20.6760  -26.9407   22.5415 C   0  0  0  0  0  0
  -19.5737  -26.6391   21.5216 C   0  0  0  0  0  0
  -18.1911  -26.7936   22.1618 C   0  0  0  0  0  0
  -19.1516  -28.8844   23.2901 C   0  0  0  0  0  0
  -18.9446  -30.1453   23.8909 C   0  0  0  0  0  0
  -17.6449  -30.6590   24.0568 C   0  0  0  0  0  0
  -25.9033  -34.9464   23.5140 C   0  0  0  0  0  0
  -16.5340  -29.9086   23.6338 C   0  0  0  0  0  0
  -16.7257  -28.6503   23.0368 C   0  0  0  0  0  0
  -26.4495  -31.6576   25.0724 C   0  0  0  0  0  0
  -25.3768  -31.3621   26.1463 C   0  0  0  0  0  0
  -27.0365  -30.3043   24.6082 C   0  0  0  0  0  0
  -27.6083  -32.4293   25.7480 C   0  0  0  0  0  0
  -27.5576  -37.1799   24.8475 C   0  0  0  0  0  0
  -21.4137  -29.3028   22.3720 N   0  0  0  0  0  0
  -26.4292  -37.3788   23.9418 N   0  0  0  0  0  0
  -24.6686  -31.0767   22.1000 N   0  0  0  0  0  0
  -23.4175  -28.8194   23.3047 O   0  0  0  0  0  0
  -28.3868  -26.6784   20.1088 O   0  0  0  0  0  0
  -26.5578  -34.8910   22.4690 O   0  0  0  0  0  0
  -23.5348  -32.1418   23.7503 O   0  0  0  0  0  0
  -29.2417  -18.7245   21.9329 C   0  0  0  0  0  0
  -30.7775  -18.4374   20.0800 C   0  0  0  0  0  0
  -28.9065  -20.0144   21.4588 C   0  0  0  0  0  0
  -30.4450  -19.7287   19.6098 C   0  0  0  0  0  0
  -30.2045  -17.9347   21.2663 C   0  0  0  0  0  0
  -29.5297  -20.5572   20.3081 C   0  0  0  0  0  0
  -30.0498  -24.1001   19.4238 C   0  0  0  0  0  0
  -30.2527  -22.6154   19.0831 C   0  0  0  0  0  0
  -28.4402  -22.8244   20.6254 C   0  0  0  0  0  0
  -28.6035  -24.1871   19.9175 C   0  0  1  0  0  0
  -30.7047  -16.6220   21.8797 C   0  0  0  0  0  0
  -28.2923  -25.4202   20.8057 C   0  0  0  0  0  0
  -29.2604  -21.8790   19.8647 N   0  0  0  0  0  0
  -30.1031  -15.3843   21.3696 N   0  0  0  0  0  0
  -31.4645  -12.4195   19.1107 H   0  0  0  0  0  0
  -30.3284  -11.3010   19.8073 H   0  0  0  0  0  0
  -29.7298  -11.7911   17.4197 H   0  0  0  0  0  0
  -29.6529  -13.5012   17.7681 H   0  0  0  0  0  0
  -27.8267  -11.3109   18.8135 H   0  0  0  0  0  0
  -27.3601  -12.6419   17.7870 H   0  0  0  0  0  0
  -27.7085  -14.2546   19.5830 H   0  0  0  0  0  0
  -28.6788  -11.9390   21.3245 H   0  0  0  0  0  0
  -28.4516  -13.5647   21.8786 H   0  0  0  0  0  0
  -25.2751   -9.5692   22.4759 H   0  0  0  0  0  0
  -23.9997   -7.4640   22.7481 H   0  0  0  0  0  0
  -21.0842   -8.8761   19.8941 H   0  0  0  0  0  0
  -22.3694  -10.9664   19.6155 H   0  0  0  0  0  0
  -21.2000   -7.6141   23.9717 H   0  0  0  0  0  0
  -21.1478   -6.0522   25.9076 H   0  0  0  0  0  0
  -22.0601   -2.7612   23.2853 H   0  0  0  0  0  0
  -22.4110  -11.9865   22.4753 H   0  0  0  0  0  0
  -21.1116  -13.1244   22.2612 H   0  0  0  0  0  0
  -24.6691  -15.8475   20.5183 H   0  0  0  0  0  0
  -26.2919  -15.6252   20.1025 H   0  0  0  0  0  0
  -26.7127  -32.5528   23.1179 H   0  0  0  0  0  0
  -25.0140  -33.9778   25.0549 H   0  0  0  0  0  0
  -22.6933  -31.3062   21.4100 H   0  0  0  0  0  0
  -23.3754  -35.9614   23.3311 H   0  0  0  0  0  0
  -24.3579  -36.8908   22.2060 H   0  0  0  0  0  0
  -23.7218  -37.6491   23.6659 H   0  0  0  0  0  0
  -26.0411  -31.6009   20.5929 H   0  0  0  0  0  0
  -26.8198  -30.8888   21.9783 H   0  0  0  0  0  0
  -28.1061  -29.1098   21.1537 H   0  0  0  0  0  0
  -26.0642  -25.9548   19.0412 H   0  0  0  0  0  0
  -23.9775  -27.2832   19.0496 H   0  0  0  0  0  0
  -23.7153  -30.5945   19.4045 H   0  0  0  0  0  0
  -22.7364  -29.2367   19.8732 H   0  0  0  0  0  0
  -25.1279  -36.1975   25.0840 H   0  0  0  0  0  0
  -20.9946  -28.3239   24.1437 H   0  0  0  0  0  0
  -20.5692  -26.2274   23.3601 H   0  0  0  0  0  0
  -21.6627  -26.7462   22.1192 H   0  0  0  0  0  0
  -19.6902  -25.6309   21.1236 H   0  0  0  0  0  0
  -19.6681  -27.3211   20.6757 H   0  0  0  0  0  0
  -17.4189  -26.6712   21.4002 H   0  0  0  0  0  0
  -18.0286  -26.0062   22.8994 H   0  0  0  0  0  0
  -19.7919  -30.7269   24.2286 H   0  0  0  0  0  0
  -17.4997  -31.6272   24.5162 H   0  0  0  0  0  0
  -15.5344  -30.2992   23.7657 H   0  0  0  0  0  0
  -15.8654  -28.0821   22.7094 H   0  0  0  0  0  0
  -24.6000  -30.6910   25.7778 H   0  0  0  0  0  0
  -24.8885  -32.2733   26.4923 H   0  0  0  0  0  0
  -25.8141  -30.8793   27.0213 H   0  0  0  0  0  0
  -26.2906  -29.6733   24.1236 H   0  0  0  0  0  0
  -27.4285  -29.7339   25.4515 H   0  0  0  0  0  0
  -27.8658  -30.4407   23.9140 H   0  0  0  0  0  0
  -27.2752  -33.3623   26.2039 H   0  0  0  0  0  0
  -28.3901  -32.6794   25.0295 H   0  0  0  0  0  0
  -28.0737  -31.8414   26.5402 H   0  0  0  0  0  0
  -28.2595  -38.0096   24.7539 H   0  0  0  0  0  0
  -28.1075  -36.2629   24.6295 H   0  0  0  0  0  0
  -27.2284  -37.1444   25.8875 H   0  0  0  0  0  0
  -20.9311  -29.8727   21.6913 H   0  0  0  0  0  0
  -26.0178  -38.2864   24.1428 H   0  0  0  0  0  0
  -28.7812  -18.3629   22.8421 H   0  0  0  0  0  0
  -31.5123  -17.8500   19.5469 H   0  0  0  0  0  0
  -28.1830  -20.5896   22.0181 H   0  0  0  0  0  0
  -30.9272  -20.0789   18.7082 H   0  0  0  0  0  0
  -30.2478  -24.7566   18.5757 H   0  0  0  0  0  0
  -30.7335  -24.3839   20.2260 H   0  0  0  0  0  0
  -31.2756  -22.3078   19.3069 H   0  0  0  0  0  0
  -30.0758  -22.4387   18.0211 H   0  0  0  0  0  0
  -27.3931  -22.5179   20.6541 H   0  0  0  0  0  0
  -28.8035  -22.8812   21.6526 H   0  0  0  0  0  0
  -27.9417  -24.2007   19.0505 H   0  0  0  0  0  0
  -30.5269  -16.6507   22.9556 H   0  0  0  0  0  0
  -31.7911  -16.5906   21.7783 H   0  0  0  0  0  0
  -28.9964  -25.4523   21.6378 H   0  0  0  0  0  0
  -27.3122  -25.2895   21.2694 H   0  0  0  0  0  0
  -29.1928  -15.1407   21.7290 H   0  0  0  0  0  0
  1 25  1  0  0  0
  1 30  2  0  0  0
  1 84  1  0  0  0
  2  3  1  0  0  0
  2 25  1  0  0  0
  2 85  1  0  0  0
  2 86  1  0  0  0
  3  4  1  0  0  0
  3 87  1  0  0  0
  3 88  1  0  0  0
  4  5  1  0  0  0
  4 89  1  0  0  0
  4 90  1  0  0  0
  5  6  1  0  0  0
  5 26  1  0  0  0
  5 91  1  0  0  0
  6 25  1  0  0  0
  6 92  1  0  0  0
  6 93  1  0  0  0
  7  8  2  0  0  0
  7 26  1  0  0  0
  7 29  1  0  0  0
  8  9  1  0  0  0
  8 22  1  0  0  0
  9 10  1  0  0  0
  9 27  2  0  0  0
 10 11  2  0  0  0
 10 15  1  0  0  0
 11 12  1  0  0  0
 11 94  1  0  0  0
 12 13  2  0  0  0
 12 95  1  0  0  0
 13 14  1  0  0  0
 13 31  1  0  0  0
 14 15  2  0  0  0
 14 96  1  0  0  0
 15 97  1  0  0  0
 16 17  2  0  0  0
 16 21  1  0  0  0
 16 31  1  0  0  0
 17 18  1  0  0  0
 17 98  1  0  0  0
 18 19  2  0  0  0
 18 99  1  0  0  0
 19 20  1  0  0  0
 19 24  1  0  0  0
 20 21  2  0  0  0
 20100  1  0  0  0
 21 23  1  0  0  0
 22 28  1  0  0  0
 22 32  2  0  0  0
 26 27  1  0  0  0
 28101  1  0  0  0
 28102  1  0  0  0
 29103  1  0  0  0
 29104  1  0  0  0
 33 34  1  0  0  0
 33 66  1  0  0  0
 33 70  2  0  0  0
 34 36  1  0  0  0
 34 59  1  0  0  0
 34105  1  0  0  0
 35 44  2  0  0  0
 35 45  1  0  0  0
 35 68  1  0  0  0
 36 56  1  0  0  0
 36106  1  0  0  0
 37 39  1  0  0  0
 37 47  1  0  0  0
 37 66  1  0  0  0
 37107  1  0  0  0
 38 43  2  0  0  0
 38 46  1  0  0  0
 38 47  1  0  0  0
 39 64  1  0  0  0
 39 67  2  0  0  0
 40 52  1  0  0  0
 40 53  2  0  0  0
 40 58  1  0  0  0
 41108  1  0  0  0
 41109  1  0  0  0
 41110  1  0  0  0
 41 48  1  0  0  0
 42 43  1  0  0  0
 42 66  1  0  0  0
 42111  1  0  0  0
 42112  1  0  0  0
 43 44  1  0  0  0
 44113  1  0  0  0
 45 46  2  0  0  0
 45114  1  0  0  0
 46115  1  0  0  0
 47116  1  0  0  0
 47117  1  0  0  0
 48 56  1  0  0  0
 48 65  1  0  0  0
 48118  1  0  0  0
 49 50  1  0  0  0
 49 53  1  0  0  0
 49 64  1  0  0  0
 49119  1  0  0  0
 50 51  1  0  0  0
 50120  1  0  0  0
 50121  1  0  0  0
 51 52  1  0  0  0
 51122  1  0  0  0
 51123  1  0  0  0
 52124  1  0  0  0
 52125  1  0  0  0
 53 54  1  0  0  0
 54 55  2  0  0  0
 54126  1  0  0  0
 55 57  1  0  0  0
 55127  1  0  0  0
 56 69  2  0  0  0
 57 58  2  0  0  0
 57128  1  0  0  0
 58129  1  0  0  0
 59 60  1  0  0  0
 59 61  1  0  0  0
 59 62  1  0  0  0
 60130  1  0  0  0
 60131  1  0  0  0
 60132  1  0  0  0
 61133  1  0  0  0
 61134  1  0  0  0
 61135  1  0  0  0
 62136  1  0  0  0
 62137  1  0  0  0
 62138  1  0  0  0
 63 65  1  0  0  0
 63139  1  0  0  0
 63140  1  0  0  0
 63141  1  0  0  0
 64142  1  0  0  0
 65143  1  0  0  0
 68 82  1  0  0  0
 71 73  2  0  0  0
 71 75  1  0  0  0
 71144  1  0  0  0
 72 74  1  0  0  0
 72 75  2  0  0  0
 72145  1  0  0  0
 73 76  1  0  0  0
 73146  1  0  0  0
 74 76  2  0  0  0
 74147  1  0  0  0
 75 81  1  0  0  0
 76 83  1  0  0  0
 77 78  1  0  0  0
 77 80  1  0  0  0
 77148  1  0  0  0
 77149  1  0  0  0
 78 83  1  0  0  0
 78150  1  0  0  0
 78151  1  0  0  0
 79 80  1  0  0  0
 79 83  1  0  0  0
 79152  1  0  0  0
 79153  1  0  0  0
 80 82  1  0  0  0
 80154  1  0  0  0
 81 84  1  0  0  0
 81155  1  0  0  0
 81156  1  0  0  0
 82157  1  0  0  0
 82158  1  0  0  0
 84159  1  0  0  0
M  ISO  4   1 100  68 101  82 101  84 100
M  END
> <chiral flag>
0

> <version>
0

> <s_m_source_file>
/data/baiqing/PycharmProjects/Reinvent-master-3.2/result/LINK_invent/BTK/process_docking_weight1_custom_product_contain_oxygen_bond_distance_aromatic_linkinvent_7_9_3/rearranged_h_0012.sdf

> <i_m_source_file_index>
38

> <r_mmod_Potential_Energy-OPLS-2005>
-35.9385871887207

> <r_mmod_Stretch_Energy-OPLS-2005>
37.9265518188477

> <r_mmod_Bend_Energy-OPLS-2005>
130.022399902344

> <r_mmod_Torsional_Energy-OPLS-2005>
269.314636230469

> <r_mmod_Improper_Torsional_Energy-OPLS-2005>
4.79849147796631

> <r_mmod_Van_der_Waal_Energy-OPLS-2005>
149.704071044922

> <r_mmod_Electrostatic_Energy-OPLS-2005>
-410.724304199219

> <r_mmod_Solvation_Energy-OPLS-2005>
-228.066436767578

> <b_mmod_Minimization_Converged-OPLS-2005>
0

> <r_mmod_RMS_Derivative-OPLS-2005>
1.13591909408569

$$$$
38
                    3D
 Structure written by MMmdl.
148156  0  0  1  0            999 V2000
  -30.5089  -14.9122   20.4351 C   0  0  0  0  0  0
  -30.4555  -12.5616   19.4901 C   0  0  0  0  0  0
  -29.5264  -12.5317   18.2520 C   0  0  0  0  0  0
  -28.0565  -12.3206   18.6662 C   0  0  0  0  0  0
  -27.6389  -13.2354   19.8464 C   0  0  2  0  0  0
  -28.6835  -13.2119   20.9840 C   0  0  0  0  0  0
  -25.2500  -13.8182   20.5681 C   0  0  0  0  0  0
  -24.1806  -13.0431   20.9230 C   0  0  0  0  0  0
  -24.6402  -11.6911   20.8760 C   0  0  0  0  0  0
  -23.9076  -10.4289   21.0416 C   0  0  0  0  0  0
  -24.3624   -9.4201   21.9190 C   0  0  0  0  0  0
  -23.6294   -8.2240   22.0758 C   0  0  0  0  0  0
  -22.4276   -8.0282   21.3547 C   0  0  0  0  0  0
  -21.9915   -9.0259   20.4652 C   0  0  0  0  0  0
  -22.7249  -10.2135   20.3063 C   0  0  0  0  0  0
  -21.6853   -6.0736   22.5279 C   0  0  0  0  0  0
  -21.4015   -6.5640   23.8212 C   0  0  0  0  0  0
  -21.3659   -5.6793   24.9175 C   0  0  0  0  0  0
  -21.6044   -4.3056   24.7225 C   0  0  0  0  0  0
  -21.8818   -3.8147   23.4347 C   0  0  0  0  0  0
  -21.9192   -4.6963   22.3402 C   0  0  0  0  0  0
  -22.7826  -13.5218   21.1880 C   0  0  0  0  0  0
  -22.1661   -4.2149   21.0979 F   0  0  0  0  0  0
  -21.5626   -3.4539   25.7738 F   0  0  0  0  0  0
  -29.9682  -13.6307   20.4025 N   0  0  0  0  0  0
  -26.2925  -12.9392   20.3247 N   0  0  0  0  0  0
  -25.9332  -11.6537   20.5742 N   0  0  0  0  0  0
  -22.0465  -12.8213   22.0434 N   0  0  0  0  0  0
  -25.4162  -15.1901   20.4026 N   0  0  0  0  0  0
  -31.6970  -15.0562   20.1234 O   0  0  0  0  0  0
  -21.6639   -6.8881   21.4242 O   0  0  0  0  0  0
  -22.3518  -14.5520   20.6717 O   0  0  0  0  0  0
  -24.6422  -31.8456   23.1895 C   0  0  0  0  0  0
  -25.9199  -32.4704   23.8282 C   0  0  1  0  0  0
  -27.2214  -27.1519   20.1469 C   0  0  0  0  0  0
  -25.5952  -33.8509   24.2201 N   0  0  0  0  0  0
  -23.4453  -30.4654   21.5351 C   0  0  2  0  0  0
  -24.8953  -28.8959   20.1105 C   0  0  0  0  0  0
  -22.7562  -29.4552   22.4864 C   0  0  0  0  0  0
  -18.0305  -28.1392   22.8480 C   0  0  0  0  0  0
  -24.1492  -36.7261   23.2642 C   0  0  0  0  0  0
  -26.0006  -30.7245   21.3860 C   0  0  0  0  0  0
  -26.0728  -29.3373   20.7273 C   0  0  0  0  0  0
  -27.2369  -28.4820   20.7280 C   0  0  0  0  0  0
  -26.0152  -26.8096   19.4937 C   0  0  0  0  0  0
  -24.8787  -27.6448   19.4786 C   0  0  0  0  0  0
  -23.6712  -29.7962   20.1539 C   0  0  0  0  0  0
  -25.4122  -36.3038   24.0318 C   0  0  1  0  0  0
  -20.5917  -28.3717   23.1239 C   0  0  2  0  0  0
  -20.6789  -26.9422   22.5403 C   0  0  0  0  0  0
  -19.5760  -26.6380   21.5213 C   0  0  0  0  0  0
  -18.1944  -26.7931   22.1628 C   0  0  0  0  0  0
  -19.1562  -28.8873   23.2853 C   0  0  0  0  0  0
  -18.9477  -30.1469   23.8878 C   0  0  0  0  0  0
  -17.6473  -30.6589   24.0558 C   0  0  0  0  0  0
  -25.9071  -34.9412   23.5068 C   0  0  0  0  0  0
  -16.5365  -29.9082   23.6333 C   0  0  0  0  0  0
  -16.7289  -28.6500   23.0357 C   0  0  0  0  0  0
  -26.4522  -31.6564   25.0716 C   0  0  0  0  0  0
  -25.3712  -31.3749   26.1414 C   0  0  0  0  0  0
  -27.0385  -30.2963   24.6283 C   0  0  0  0  0  0
  -27.6053  -32.4328   25.7502 C   0  0  0  0  0  0
  -27.5575  -37.1788   24.8465 C   0  0  0  0  0  0
  -21.4255  -29.3048   22.3615 N   0  0  0  0  0  0
  -26.4286  -37.3749   23.9408 N   0  0  0  0  0  0
  -24.7158  -31.0325   22.0923 N   0  0  0  0  0  0
  -23.4210  -28.8096   23.3008 O   0  0  0  0  0  0
  -28.2796  -26.1752   20.2158 O   0  0  0  0  0  0
  -26.5655  -34.8906   22.4645 O   0  0  0  0  0  0
  -23.5543  -32.1325   23.7122 O   0  0  0  0  0  0
  -30.4979  -18.5502   20.3681 C   0  0  0  0  0  0
  -30.1918  -19.9876   20.3030 C   0  0  0  0  0  0
  -28.2013  -18.0915   20.6159 C   0  0  0  0  0  0
  -29.5058  -17.5125   20.5303 C   0  0  0  0  0  0
  -28.8604  -20.5427   20.3787 C   0  0  0  0  0  0
  -27.8953  -19.4982   20.5370 C   0  0  0  0  0  0
  -27.9814  -24.6559   20.0800 C   0  0  0  0  0  0
  -28.9666  -23.3090   20.3181 C   0  0  0  0  0  0
  -29.6181  -15.9877   20.6567 N   0  0  0  0  0  0
  -28.3436  -21.9122   20.2867 O   0  0  0  0  0  0
  -26.5907  -19.8568   20.6201 F   0  0  0  0  0  0
  -31.4867  -12.7370   19.1791 H   0  0  0  0  0  0
  -30.4561  -11.5962   19.9987 H   0  0  0  0  0  0
  -29.8377  -11.7454   17.5632 H   0  0  0  0  0  0
  -29.6191  -13.4710   17.7045 H   0  0  0  0  0  0
  -27.9424  -11.2750   18.9545 H   0  0  0  0  0  0
  -27.3955  -12.4747   17.8124 H   0  0  0  0  0  0
  -27.6160  -14.2467   19.4405 H   0  0  0  0  0  0
  -28.7608  -12.2155   21.4218 H   0  0  0  0  0  0
  -28.3869  -13.8773   21.7964 H   0  0  0  0  0  0
  -25.2769   -9.5672   22.4767 H   0  0  0  0  0  0
  -24.0000   -7.4629   22.7477 H   0  0  0  0  0  0
  -21.0844   -8.8784   19.8957 H   0  0  0  0  0  0
  -22.3712  -10.9678   19.6174 H   0  0  0  0  0  0
  -21.2010   -7.6149   23.9716 H   0  0  0  0  0  0
  -21.1480   -6.0523   25.9077 H   0  0  0  0  0  0
  -22.0597   -2.7608   23.2848 H   0  0  0  0  0  0
  -22.4083  -11.9878   22.4830 H   0  0  0  0  0  0
  -21.1084  -13.1242   22.2641 H   0  0  0  0  0  0
  -24.6295  -15.8261   20.4770 H   0  0  0  0  0  0
  -26.2182  -15.6066   19.9499 H   0  0  0  0  0  0
  -26.7265  -32.5316   23.1014 H   0  0  0  0  0  0
  -25.0077  -33.9626   25.0333 H   0  0  0  0  0  0
  -22.7472  -31.2910   21.3818 H   0  0  0  0  0  0
  -23.3757  -35.9590   23.3292 H   0  0  0  0  0  0
  -24.3578  -36.8903   22.2059 H   0  0  0  0  0  0
  -23.7245  -37.6454   23.6684 H   0  0  0  0  0  0
  -26.1536  -31.4794   20.6136 H   0  0  0  0  0  0
  -26.8721  -30.7754   22.0269 H   0  0  0  0  0  0
  -28.1335  -28.8156   21.2313 H   0  0  0  0  0  0
  -25.9102  -25.8553   19.0018 H   0  0  0  0  0  0
  -23.9801  -27.3016   18.9846 H   0  0  0  0  0  0
  -23.8070  -30.5716   19.3992 H   0  0  0  0  0  0
  -22.7864  -29.2380   19.8427 H   0  0  0  0  0  0
  -25.1309  -36.1869   25.0810 H   0  0  0  0  0  0
  -21.0010  -28.3306   24.1360 H   0  0  0  0  0  0
  -20.5685  -26.2330   23.3621 H   0  0  0  0  0  0
  -21.6654  -26.7429   22.1199 H   0  0  0  0  0  0
  -19.6921  -25.6286   21.1255 H   0  0  0  0  0  0
  -19.6694  -27.3179   20.6734 H   0  0  0  0  0  0
  -17.4210  -26.6673   21.4035 H   0  0  0  0  0  0
  -18.0346  -26.0078   22.9030 H   0  0  0  0  0  0
  -19.7952  -30.7291   24.2241 H   0  0  0  0  0  0
  -17.5025  -31.6268   24.5163 H   0  0  0  0  0  0
  -15.5364  -30.2977   23.7663 H   0  0  0  0  0  0
  -15.8691  -28.0808   22.7085 H   0  0  0  0  0  0
  -24.5894  -30.7094   25.7734 H   0  0  0  0  0  0
  -24.8898  -32.2930   26.4792 H   0  0  0  0  0  0
  -25.7998  -30.8952   27.0222 H   0  0  0  0  0  0
  -26.2998  -29.6690   24.1281 H   0  0  0  0  0  0
  -27.3997  -29.7256   25.4848 H   0  0  0  0  0  0
  -27.8906  -30.4204   23.9597 H   0  0  0  0  0  0
  -27.2645  -33.3646   26.2028 H   0  0  0  0  0  0
  -28.3892  -32.6860   25.0352 H   0  0  0  0  0  0
  -28.0689  -31.8488   26.5463 H   0  0  0  0  0  0
  -28.2585  -38.0091   24.7510 H   0  0  0  0  0  0
  -28.1079  -36.2622   24.6295 H   0  0  0  0  0  0
  -27.2293  -37.1437   25.8868 H   0  0  0  0  0  0
  -20.9461  -29.8768   21.6802 H   0  0  0  0  0  0
  -26.0155  -38.2818   24.1409 H   0  0  0  0  0  0
  -31.5349  -18.2525   20.2974 H   0  0  0  0  0  0
  -31.0171  -20.6732   20.1773 H   0  0  0  0  0  0
  -27.3590  -17.4297   20.7477 H   0  0  0  0  0  0
  -27.1214  -24.4889   20.7294 H   0  0  0  0  0  0
  -27.6025  -24.5258   19.0670 H   0  0  0  0  0  0
  -29.4518  -23.4117   21.2888 H   0  0  0  0  0  0
  -29.7707  -23.3307   19.5826 H   0  0  0  0  0  0
  -28.7268  -15.5824   20.8973 H   0  0  0  0  0  0
  1 25  1  0  0  0
  1 30  2  0  0  0
  1 79  1  0  0  0
  2  3  1  0  0  0
  2 25  1  0  0  0
  2 82  1  0  0  0
  2 83  1  0  0  0
  3  4  1  0  0  0
  3 84  1  0  0  0
  3 85  1  0  0  0
  4  5  1  0  0  0
  4 86  1  0  0  0
  4 87  1  0  0  0
  5  6  1  0  0  0
  5 26  1  0  0  0
  5 88  1  0  0  0
  6 25  1  0  0  0
  6 89  1  0  0  0
  6 90  1  0  0  0
  7  8  2  0  0  0
  7 26  1  0  0  0
  7 29  1  0  0  0
  8  9  1  0  0  0
  8 22  1  0  0  0
  9 10  1  0  0  0
  9 27  2  0  0  0
 10 11  2  0  0  0
 10 15  1  0  0  0
 11 12  1  0  0  0
 11 91  1  0  0  0
 12 13  2  0  0  0
 12 92  1  0  0  0
 13 14  1  0  0  0
 13 31  1  0  0  0
 14 15  2  0  0  0
 14 93  1  0  0  0
 15 94  1  0  0  0
 16 17  2  0  0  0
 16 21  1  0  0  0
 16 31  1  0  0  0
 17 18  1  0  0  0
 17 95  1  0  0  0
 18 19  2  0  0  0
 18 96  1  0  0  0
 19 20  1  0  0  0
 19 24  1  0  0  0
 20 21  2  0  0  0
 20 97  1  0  0  0
 21 23  1  0  0  0
 22 28  1  0  0  0
 22 32  2  0  0  0
 26 27  1  0  0  0
 28 98  1  0  0  0
 28 99  1  0  0  0
 29100  1  0  0  0
 29101  1  0  0  0
 33 34  1  0  0  0
 33 66  1  0  0  0
 33 70  2  0  0  0
 34 36  1  0  0  0
 34 59  1  0  0  0
 34102  1  0  0  0
 35 44  2  0  0  0
 35 45  1  0  0  0
 35 68  1  0  0  0
 36 56  1  0  0  0
 36103  1  0  0  0
 37 39  1  0  0  0
 37 47  1  0  0  0
 37 66  1  0  0  0
 37104  1  0  0  0
 38 43  2  0  0  0
 38 46  1  0  0  0
 38 47  1  0  0  0
 39 64  1  0  0  0
 39 67  2  0  0  0
 40 52  1  0  0  0
 40 53  2  0  0  0
 40 58  1  0  0  0
 41105  1  0  0  0
 41106  1  0  0  0
 41107  1  0  0  0
 41 48  1  0  0  0
 42 43  1  0  0  0
 42 66  1  0  0  0
 42108  1  0  0  0
 42109  1  0  0  0
 43 44  1  0  0  0
 44110  1  0  0  0
 45 46  2  0  0  0
 45111  1  0  0  0
 46112  1  0  0  0
 47113  1  0  0  0
 47114  1  0  0  0
 48 56  1  0  0  0
 48 65  1  0  0  0
 48115  1  0  0  0
 49 50  1  0  0  0
 49 53  1  0  0  0
 49 64  1  0  0  0
 49116  1  0  0  0
 50 51  1  0  0  0
 50117  1  0  0  0
 50118  1  0  0  0
 51 52  1  0  0  0
 51119  1  0  0  0
 51120  1  0  0  0
 52121  1  0  0  0
 52122  1  0  0  0
 53 54  1  0  0  0
 54 55  2  0  0  0
 54123  1  0  0  0
 55 57  1  0  0  0
 55124  1  0  0  0
 56 69  2  0  0  0
 57 58  2  0  0  0
 57125  1  0  0  0
 58126  1  0  0  0
 59 60  1  0  0  0
 59 61  1  0  0  0
 59 62  1  0  0  0
 60127  1  0  0  0
 60128  1  0  0  0
 60129  1  0  0  0
 61130  1  0  0  0
 61131  1  0  0  0
 61132  1  0  0  0
 62133  1  0  0  0
 62134  1  0  0  0
 62135  1  0  0  0
 63 65  1  0  0  0
 63136  1  0  0  0
 63137  1  0  0  0
 63138  1  0  0  0
 64139  1  0  0  0
 65140  1  0  0  0
 68 77  1  0  0  0
 71 72  2  0  0  0
 71 74  1  0  0  0
 71141  1  0  0  0
 72 75  1  0  0  0
 72142  1  0  0  0
 73 74  2  0  0  0
 73 76  1  0  0  0
 73143  1  0  0  0
 74 79  1  0  0  0
 75 76  2  0  0  0
 75 80  1  0  0  0
 76 81  1  0  0  0
 77 78  1  0  0  0
 77144  1  0  0  0
 77145  1  0  0  0
 78 80  1  0  0  0
 78146  1  0  0  0
 78147  1  0  0  0
 79148  1  0  0  0
M  ISO  4   1 100  68 101  77 101  79 100
M  END
> <chiral flag>
0

> <version>
0

> <s_m_source_file>
/data/baiqing/PycharmProjects/Reinvent-master-3.2/result/LINK_invent/BTK/process_docking_weight1_custom_product_contain_oxygen_bond_distance_aromatic_linkinvent_7_9_3/rearranged_h_0012.sdf

> <i_m_source_file_index>
39

> <r_mmod_Potential_Energy-OPLS-2005>
491.091247558594

> <r_mmod_Stretch_Energy-OPLS-2005>
216.953765869141

> <r_mmod_Bend_Energy-OPLS-2005>
302.484619140625

> <r_mmod_Torsional_Energy-OPLS-2005>
212.021713256836

> <r_mmod_Improper_Torsional_Energy-OPLS-2005>
4.76716709136963

> <r_mmod_Van_der_Waal_Energy-OPLS-2005>
130.573699951172

> <r_mmod_Electrostatic_Energy-OPLS-2005>
-337.487060546875

> <r_mmod_Solvation_Energy-OPLS-2005>
-212.451721191406

> <b_mmod_Minimization_Converged-OPLS-2005>
0

> <r_mmod_RMS_Derivative-OPLS-2005>
0.366873770952225

$$$$
39
                    3D
 Structure written by MMmdl.
158166  0  0  1  0            999 V2000
  -30.6555  -14.6630   20.6061 C   0  0  0  0  0  0
  -30.4400  -12.4375   19.4736 C   0  0  0  0  0  0
  -29.5155  -12.5357   18.2400 C   0  0  0  0  0  0
  -28.0413  -12.3444   18.6439 C   0  0  0  0  0  0
  -27.6511  -13.2236   19.8584 C   0  0  2  0  0  0
  -28.6828  -13.0871   20.9944 C   0  0  0  0  0  0
  -25.2547  -13.8179   20.5679 C   0  0  0  0  0  0
  -24.1822  -13.0431   20.9178 C   0  0  0  0  0  0
  -24.6409  -11.6911   20.8745 C   0  0  0  0  0  0
  -23.9072  -10.4299   21.0421 C   0  0  0  0  0  0
  -24.3619   -9.4213   21.9199 C   0  0  0  0  0  0
  -23.6295   -8.2248   22.0765 C   0  0  0  0  0  0
  -22.4271   -8.0288   21.3556 C   0  0  0  0  0  0
  -21.9908   -9.0264   20.4659 C   0  0  0  0  0  0
  -22.7241  -10.2143   20.3074 C   0  0  0  0  0  0
  -21.6843   -6.0745   22.5278 C   0  0  0  0  0  0
  -21.4004   -6.5657   23.8206 C   0  0  0  0  0  0
  -21.3668   -5.6822   24.9178 C   0  0  0  0  0  0
  -21.6045   -4.3080   24.7239 C   0  0  0  0  0  0
  -21.8808   -3.8161   23.4365 C   0  0  0  0  0  0
  -21.9186   -4.6972   22.3415 C   0  0  0  0  0  0
  -22.7853  -13.5219   21.1853 C   0  0  0  0  0  0
  -22.1653   -4.2168   21.0995 F   0  0  0  0  0  0
  -21.5635   -3.4562   25.7753 F   0  0  0  0  0  0
  -30.0042  -13.4542   20.4607 N   0  0  0  0  0  0
  -26.2971  -12.9376   20.3262 N   0  0  0  0  0  0
  -25.9327  -11.6522   20.5708 N   0  0  0  0  0  0
  -22.0487  -12.8212   22.0409 N   0  0  0  0  0  0
  -25.4296  -15.1897   20.4152 N   0  0  0  0  0  0
  -31.7460  -14.8424   20.0531 O   0  0  0  0  0  0
  -21.6632   -6.8883   21.4238 O   0  0  0  0  0  0
  -22.3556  -14.5542   20.6720 O   0  0  0  0  0  0
  -24.6271  -31.8550   23.1998 C   0  0  0  0  0  0
  -25.9111  -32.4750   23.8331 C   0  0  1  0  0  0
  -27.2311  -27.3153   20.1334 C   0  0  0  0  0  0
  -25.5915  -33.8559   24.2254 N   0  0  0  0  0  0
  -23.4215  -30.4771   21.5411 C   0  0  2  0  0  0
  -24.8709  -28.9275   20.1126 C   0  0  0  0  0  0
  -22.7461  -29.4577   22.4897 C   0  0  0  0  0  0
  -18.0277  -28.1398   22.8460 C   0  0  0  0  0  0
  -24.1492  -36.7302   23.2638 C   0  0  0  0  0  0
  -25.9623  -30.7883   21.3682 C   0  0  0  0  0  0
  -26.0394  -29.4145   20.7151 C   0  0  0  0  0  0
  -27.2269  -28.6246   20.7061 C   0  0  0  0  0  0
  -26.0450  -26.8738   19.5162 C   0  0  0  0  0  0
  -24.8768  -27.6617   19.5014 C   0  0  0  0  0  0
  -23.6377  -29.8068   20.1588 C   0  0  0  0  0  0
  -25.4116  -36.3075   24.0332 C   0  0  1  0  0  0
  -20.5871  -28.3702   23.1310 C   0  0  2  0  0  0
  -20.6719  -26.9350   22.5650 C   0  0  0  0  0  0
  -19.5824  -26.6315   21.5317 C   0  0  0  0  0  0
  -18.1948  -26.7930   22.1611 C   0  0  0  0  0  0
  -19.1526  -28.8881   23.2850 C   0  0  0  0  0  0
  -18.9448  -30.1505   23.8831 C   0  0  0  0  0  0
  -17.6449  -30.6614   24.0534 C   0  0  0  0  0  0
  -25.9053  -34.9446   23.5096 C   0  0  0  0  0  0
  -16.5343  -29.9080   23.6353 C   0  0  0  0  0  0
  -16.7263  -28.6507   23.0350 C   0  0  0  0  0  0
  -26.4508  -31.6557   25.0690 C   0  0  0  0  0  0
  -25.3760  -31.3701   26.1425 C   0  0  0  0  0  0
  -27.0348  -30.2985   24.6124 C   0  0  0  0  0  0
  -27.6063  -32.4286   25.7470 C   0  0  0  0  0  0
  -27.5584  -37.1798   24.8461 C   0  0  0  0  0  0
  -21.4172  -29.2964   22.3611 N   0  0  0  0  0  0
  -26.4302  -37.3776   23.9402 N   0  0  0  0  0  0
  -24.6891  -31.0565   22.0944 N   0  0  0  0  0  0
  -23.4175  -28.8161   23.3010 O   0  0  0  0  0  0
  -28.3498  -26.4715   20.1318 O   0  0  0  0  0  0
  -26.5623  -34.8920   22.4670 O   0  0  0  0  0  0
  -23.5422  -32.1361   23.7299 O   0  0  0  0  0  0
  -29.6101  -17.4938   19.6412 C   0  0  0  0  0  0
  -29.8539  -18.1699   21.9212 C   0  0  0  0  0  0
  -29.3532  -18.8592   19.2917 C   0  0  0  0  0  0
  -29.5851  -19.5319   21.5725 C   0  0  0  0  0  0
  -29.8706  -17.0867   20.9786 C   0  0  0  0  0  0
  -29.3283  -19.9258   20.2352 C   0  0  0  0  0  0
  -28.8061  -16.1647   24.8333 C   0  0  0  0  0  0
  -28.8530  -15.6967   23.5767 C   0  0  0  0  0  0
  -30.1438  -15.3745   22.8361 C   0  0  0  0  0  0
  -28.7173  -23.8248   19.9062 C   0  0  0  0  0  0
  -28.8207  -22.4043   20.6536 C   0  0  0  0  0  0
  -28.2121  -25.1099   20.7120 C   0  0  0  0  0  0
  -30.0837  -15.6643   21.3849 N   0  0  0  0  0  0
  -29.0850  -21.2465   19.7812 O   0  0  0  0  0  0
  -31.4822  -12.5700   19.1780 H   0  0  0  0  0  0
  -30.3876  -11.4412   19.9171 H   0  0  0  0  0  0
  -29.8002  -11.7919   17.4939 H   0  0  0  0  0  0
  -29.6381  -13.5108   17.7669 H   0  0  0  0  0  0
  -27.8985  -11.2915   18.8883 H   0  0  0  0  0  0
  -27.3874  -12.5521   17.7973 H   0  0  0  0  0  0
  -27.6678  -14.2596   19.5149 H   0  0  0  0  0  0
  -28.7022  -12.0673   21.3823 H   0  0  0  0  0  0
  -28.3785  -13.7106   21.8276 H   0  0  0  0  0  0
  -25.2755   -9.5707   22.4781 H   0  0  0  0  0  0
  -24.0010   -7.4647   22.7489 H   0  0  0  0  0  0
  -21.0837   -8.8783   19.8969 H   0  0  0  0  0  0
  -22.3687  -10.9690   19.6197 H   0  0  0  0  0  0
  -21.1979   -7.6163   23.9724 H   0  0  0  0  0  0
  -21.1498   -6.0548   25.9086 H   0  0  0  0  0  0
  -22.0574   -2.7624   23.2853 H   0  0  0  0  0  0
  -22.4055  -11.9868   22.4829 H   0  0  0  0  0  0
  -21.1119  -13.1269   22.2606 H   0  0  0  0  0  0
  -24.6764  -15.8527   20.5575 H   0  0  0  0  0  0
  -26.2982  -15.6290   20.1377 H   0  0  0  0  0  0
  -26.7173  -32.5416   23.1071 H   0  0  0  0  0  0
  -25.0057  -33.9714   25.0385 H   0  0  0  0  0  0
  -22.7153  -31.2977   21.3937 H   0  0  0  0  0  0
  -23.3740  -35.9646   23.3299 H   0  0  0  0  0  0
  -24.3578  -36.8922   22.2052 H   0  0  0  0  0  0
  -23.7273  -37.6517   23.6660 H   0  0  0  0  0  0
  -26.0876  -31.5461   20.5939 H   0  0  0  0  0  0
  -26.8480  -30.8412   21.9904 H   0  0  0  0  0  0
  -28.1265  -29.0004   21.1716 H   0  0  0  0  0  0
  -26.0246  -25.9007   19.0469 H   0  0  0  0  0  0
  -23.9858  -27.2779   19.0233 H   0  0  0  0  0  0
  -23.7517  -30.5806   19.3987 H   0  0  0  0  0  0
  -22.7598  -29.2313   19.8584 H   0  0  0  0  0  0
  -25.1293  -36.1934   25.0827 H   0  0  0  0  0  0
  -20.9963  -28.3415   24.1429 H   0  0  0  0  0  0
  -20.5364  -26.2380   23.3940 H   0  0  0  0  0  0
  -21.6648  -26.7187   22.1690 H   0  0  0  0  0  0
  -19.6997  -25.6185   21.1447 H   0  0  0  0  0  0
  -19.6894  -27.3065   20.6812 H   0  0  0  0  0  0
  -17.4298  -26.6715   21.3924 H   0  0  0  0  0  0
  -18.0256  -26.0086   22.9004 H   0  0  0  0  0  0
  -19.7915  -30.7370   24.2133 H   0  0  0  0  0  0
  -17.4997  -31.6310   24.5090 H   0  0  0  0  0  0
  -15.5346  -30.2974   23.7718 H   0  0  0  0  0  0
  -15.8652  -28.0836   22.7046 H   0  0  0  0  0  0
  -24.5929  -30.7037   25.7770 H   0  0  0  0  0  0
  -24.8959  -32.2871   26.4852 H   0  0  0  0  0  0
  -25.8118  -30.8890   27.0188 H   0  0  0  0  0  0
  -26.2903  -29.6712   24.1198 H   0  0  0  0  0  0
  -27.4104  -29.7256   25.4607 H   0  0  0  0  0  0
  -27.8748  -30.4258   23.9294 H   0  0  0  0  0  0
  -27.2662  -33.3573   26.2058 H   0  0  0  0  0  0
  -28.3891  -32.6858   25.0325 H   0  0  0  0  0  0
  -28.0705  -31.8395   26.5380 H   0  0  0  0  0  0
  -28.2600  -38.0094   24.7491 H   0  0  0  0  0  0
  -28.1085  -36.2624   24.6311 H   0  0  0  0  0  0
  -27.2289  -37.1476   25.8860 H   0  0  0  0  0  0
  -20.9339  -29.8593   21.6744 H   0  0  0  0  0  0
  -26.0177  -38.2852   24.1383 H   0  0  0  0  0  0
  -29.5920  -16.7511   18.8566 H   0  0  0  0  0  0
  -30.0481  -17.9808   22.9656 H   0  0  0  0  0  0
  -29.1634  -19.0933   18.2532 H   0  0  0  0  0  0
  -29.5907  -20.2766   22.3554 H   0  0  0  0  0  0
  -27.8606  -16.3800   25.3126 H   0  0  0  0  0  0
  -29.7070  -16.3377   25.4067 H   0  0  0  0  0  0
  -27.9238  -15.5283   23.0495 H   0  0  0  0  0  0
  -30.9779  -15.9207   23.2809 H   0  0  0  0  0  0
  -30.3604  -14.3235   23.0425 H   0  0  0  0  0  0
  -28.0667  -23.7029   19.0408 H   0  0  0  0  0  0
  -29.7004  -24.0539   19.4941 H   0  0  0  0  0  0
  -27.8837  -22.2155   21.1789 H   0  0  0  0  0  0
  -29.5953  -22.4621   21.4183 H   0  0  0  0  0  0
  -27.1812  -24.9295   21.0235 H   0  0  0  0  0  0
  -28.7754  -25.1397   21.6453 H   0  0  0  0  0  0
  1 25  1  0  0  0
  1 30  2  0  0  0
  1 83  1  0  0  0
  2  3  1  0  0  0
  2 25  1  0  0  0
  2 85  1  0  0  0
  2 86  1  0  0  0
  3  4  1  0  0  0
  3 87  1  0  0  0
  3 88  1  0  0  0
  4  5  1  0  0  0
  4 89  1  0  0  0
  4 90  1  0  0  0
  5  6  1  0  0  0
  5 26  1  0  0  0
  5 91  1  0  0  0
  6 25  1  0  0  0
  6 92  1  0  0  0
  6 93  1  0  0  0
  7  8  2  0  0  0
  7 26  1  0  0  0
  7 29  1  0  0  0
  8  9  1  0  0  0
  8 22  1  0  0  0
  9 10  1  0  0  0
  9 27  2  0  0  0
 10 11  2  0  0  0
 10 15  1  0  0  0
 11 12  1  0  0  0
 11 94  1  0  0  0
 12 13  2  0  0  0
 12 95  1  0  0  0
 13 14  1  0  0  0
 13 31  1  0  0  0
 14 15  2  0  0  0
 14 96  1  0  0  0
 15 97  1  0  0  0
 16 17  2  0  0  0
 16 21  1  0  0  0
 16 31  1  0  0  0
 17 18  1  0  0  0
 17 98  1  0  0  0
 18 19  2  0  0  0
 18 99  1  0  0  0
 19 20  1  0  0  0
 19 24  1  0  0  0
 20 21  2  0  0  0
 20100  1  0  0  0
 21 23  1  0  0  0
 22 28  1  0  0  0
 22 32  2  0  0  0
 26 27  1  0  0  0
 28101  1  0  0  0
 28102  1  0  0  0
 29103  1  0  0  0
 29104  1  0  0  0
 33 34  1  0  0  0
 33 66  1  0  0  0
 33 70  2  0  0  0
 34 36  1  0  0  0
 34 59  1  0  0  0
 34105  1  0  0  0
 35 44  2  0  0  0
 35 45  1  0  0  0
 35 68  1  0  0  0
 36 56  1  0  0  0
 36106  1  0  0  0
 37 39  1  0  0  0
 37 47  1  0  0  0
 37 66  1  0  0  0
 37107  1  0  0  0
 38 43  2  0  0  0
 38 46  1  0  0  0
 38 47  1  0  0  0
 39 64  1  0  0  0
 39 67  2  0  0  0
 40 52  1  0  0  0
 40 53  2  0  0  0
 40 58  1  0  0  0
 41108  1  0  0  0
 41109  1  0  0  0
 41110  1  0  0  0
 41 48  1  0  0  0
 42 43  1  0  0  0
 42 66  1  0  0  0
 42111  1  0  0  0
 42112  1  0  0  0
 43 44  1  0  0  0
 44113  1  0  0  0
 45 46  2  0  0  0
 45114  1  0  0  0
 46115  1  0  0  0
 47116  1  0  0  0
 47117  1  0  0  0
 48 56  1  0  0  0
 48 65  1  0  0  0
 48118  1  0  0  0
 49 50  1  0  0  0
 49 53  1  0  0  0
 49 64  1  0  0  0
 49119  1  0  0  0
 50 51  1  0  0  0
 50120  1  0  0  0
 50121  1  0  0  0
 51 52  1  0  0  0
 51122  1  0  0  0
 51123  1  0  0  0
 52124  1  0  0  0
 52125  1  0  0  0
 53 54  1  0  0  0
 54 55  2  0  0  0
 54126  1  0  0  0
 55 57  1  0  0  0
 55127  1  0  0  0
 56 69  2  0  0  0
 57 58  2  0  0  0
 57128  1  0  0  0
 58129  1  0  0  0
 59 60  1  0  0  0
 59 61  1  0  0  0
 59 62  1  0  0  0
 60130  1  0  0  0
 60131  1  0  0  0
 60132  1  0  0  0
 61133  1  0  0  0
 61134  1  0  0  0
 61135  1  0  0  0
 62136  1  0  0  0
 62137  1  0  0  0
 62138  1  0  0  0
 63 65  1  0  0  0
 63139  1  0  0  0
 63140  1  0  0  0
 63141  1  0  0  0
 64142  1  0  0  0
 65143  1  0  0  0
 68 82  1  0  0  0
 71 73  2  0  0  0
 71 75  1  0  0  0
 71144  1  0  0  0
 72 74  1  0  0  0
 72 75  2  0  0  0
 72145  1  0  0  0
 73 76  1  0  0  0
 73146  1  0  0  0
 74 76  2  0  0  0
 74147  1  0  0  0
 75 83  1  0  0  0
 76 84  1  0  0  0
 77 78  2  0  0  0
 77148  1  0  0  0
 77149  1  0  0  0
 78 79  1  0  0  0
 78150  1  0  0  0
 79 83  1  0  0  0
 79151  1  0  0  0
 79152  1  0  0  0
 80 81  1  0  0  0
 80 82  1  0  0  0
 80153  1  0  0  0
 80154  1  0  0  0
 81 84  1  0  0  0
 81155  1  0  0  0
 81156  1  0  0  0
 82157  1  0  0  0
 82158  1  0  0  0
M  ISO  4   1 100  68 101  82 101  83 100
M  END
> <chiral flag>
0

> <version>
0

> <s_m_source_file>
/data/baiqing/PycharmProjects/Reinvent-master-3.2/result/LINK_invent/BTK/process_docking_weight1_custom_product_contain_oxygen_bond_distance_aromatic_linkinvent_7_9_3/rearranged_h_0012.sdf

> <i_m_source_file_index>
40

> <r_mmod_Potential_Energy-OPLS-2005>
256.288696289062

> <r_mmod_Stretch_Energy-OPLS-2005>
100.052391052246

> <r_mmod_Bend_Energy-OPLS-2005>
157.574676513672

> <r_mmod_Torsional_Energy-OPLS-2005>
291.149444580078

> <r_mmod_Improper_Torsional_Energy-OPLS-2005>
2.85487842559814

> <r_mmod_Van_der_Waal_Energy-OPLS-2005>
143.98193359375

> <r_mmod_Electrostatic_Energy-OPLS-2005>
-297.994903564453

> <r_mmod_Solvation_Energy-OPLS-2005>
-192.997482299805

> <b_mmod_Minimization_Converged-OPLS-2005>
0

> <r_mmod_RMS_Derivative-OPLS-2005>
3.34474968910217

$$$$
40
                    3D
 Structure written by MMmdl.
149157  0  0  1  0            999 V2000
  -30.5244  -14.9772   20.4583 C   0  0  0  0  0  0
  -30.4507  -12.6160   19.5056 C   0  0  0  0  0  0
  -29.5287  -12.5586   18.2607 C   0  0  0  0  0  0
  -28.0582  -12.3334   18.6648 C   0  0  0  0  0  0
  -27.6344  -13.2452   19.8425 C   0  0  2  0  0  0
  -28.6745  -13.2101   20.9748 C   0  0  0  0  0  0
  -25.2492  -13.8204   20.5714 C   0  0  0  0  0  0
  -24.1787  -13.0437   20.9197 C   0  0  0  0  0  0
  -24.6397  -11.6916   20.8724 C   0  0  0  0  0  0
  -23.9077  -10.4291   21.0392 C   0  0  0  0  0  0
  -24.3627   -9.4208   21.9173 C   0  0  0  0  0  0
  -23.6301   -8.2244   22.0749 C   0  0  0  0  0  0
  -22.4278   -8.0285   21.3547 C   0  0  0  0  0  0
  -21.9916   -9.0252   20.4641 C   0  0  0  0  0  0
  -22.7248  -10.2130   20.3045 C   0  0  0  0  0  0
  -21.6853   -6.0740   22.5282 C   0  0  0  0  0  0
  -21.4014   -6.5643   23.8218 C   0  0  0  0  0  0
  -21.3655   -5.6795   24.9178 C   0  0  0  0  0  0
  -21.6040   -4.3058   24.7227 C   0  0  0  0  0  0
  -21.8821   -3.8152   23.4350 C   0  0  0  0  0  0
  -21.9192   -4.6966   22.3407 C   0  0  0  0  0  0
  -22.7814  -13.5213   21.1883 C   0  0  0  0  0  0
  -22.1664   -4.2154   21.0986 F   0  0  0  0  0  0
  -21.5624   -3.4542   25.7739 F   0  0  0  0  0  0
  -29.9506  -13.6937   20.4181 N   0  0  0  0  0  0
  -26.2905  -12.9425   20.3230 N   0  0  0  0  0  0
  -25.9326  -11.6555   20.5699 N   0  0  0  0  0  0
  -22.0471  -12.8180   22.0433 N   0  0  0  0  0  0
  -25.4210  -15.1937   20.4221 N   0  0  0  0  0  0
  -31.6988  -15.0453   20.0741 O   0  0  0  0  0  0
  -21.6640   -6.8884   21.4246 O   0  0  0  0  0  0
  -22.3480  -14.5520   20.6744 O   0  0  0  0  0  0
  -24.6455  -31.8429   23.1872 C   0  0  0  0  0  0
  -25.9222  -32.4693   23.8267 C   0  0  1  0  0  0
  -27.2171  -27.1188   20.1498 C   0  0  0  0  0  0
  -25.5962  -33.8500   24.2184 N   0  0  0  0  0  0
  -23.4498  -30.4628   21.5328 C   0  0  2  0  0  0
  -24.8986  -28.8849   20.1141 C   0  0  0  0  0  0
  -22.7573  -29.4544   22.4846 C   0  0  0  0  0  0
  -18.0306  -28.1401   22.8473 C   0  0  0  0  0  0
  -24.1487  -36.7244   23.2642 C   0  0  0  0  0  0
  -26.0079  -30.7105   21.3892 C   0  0  0  0  0  0
  -26.0783  -29.3192   20.7327 C   0  0  0  0  0  0
  -27.2384  -28.4532   20.7319 C   0  0  0  0  0  0
  -26.0123  -26.7955   19.4871 C   0  0  0  0  0  0
  -24.8793  -27.6367   19.4764 C   0  0  0  0  0  0
  -23.6782  -29.7918   20.1530 C   0  0  0  0  0  0
  -25.4121  -36.3028   24.0313 C   0  0  1  0  0  0
  -20.5918  -28.3727   23.1224 C   0  0  2  0  0  0
  -20.6786  -26.9429   22.5401 C   0  0  0  0  0  0
  -19.5763  -26.6385   21.5207 C   0  0  0  0  0  0
  -18.1944  -26.7939   22.1618 C   0  0  0  0  0  0
  -19.1562  -28.8880   23.2843 C   0  0  0  0  0  0
  -18.9485  -30.1475   23.8875 C   0  0  0  0  0  0
  -17.6483  -30.6597   24.0560 C   0  0  0  0  0  0
  -25.9077  -34.9406   23.5054 C   0  0  0  0  0  0
  -16.5371  -29.9094   23.6341 C   0  0  0  0  0  0
  -16.7289  -28.6511   23.0360 C   0  0  0  0  0  0
  -26.4533  -31.6571   25.0718 C   0  0  0  0  0  0
  -25.3702  -31.3777   26.1401 C   0  0  0  0  0  0
  -27.0396  -30.2962   24.6315 C   0  0  0  0  0  0
  -27.6056  -32.4343   25.7501 C   0  0  0  0  0  0
  -27.5567  -37.1783   24.8469 C   0  0  0  0  0  0
  -21.4261  -29.3053   22.3593 N   0  0  0  0  0  0
  -26.4280  -37.3745   23.9409 N   0  0  0  0  0  0
  -24.7209  -31.0269   22.0915 N   0  0  0  0  0  0
  -23.4205  -28.8090   23.3002 O   0  0  0  0  0  0
  -28.2742  -26.1300   20.1782 O   0  0  0  0  0  0
  -26.5658  -34.8905   22.4632 O   0  0  0  0  0  0
  -23.5568  -32.1315   23.7077 O   0  0  0  0  0  0
  -28.2257  -17.5859   22.3382 C   0  0  0  0  0  0
  -28.9122  -16.4170   21.9416 C   0  0  0  0  0  0
  -28.3984  -18.8317   21.6998 C   0  0  0  0  0  0
  -29.9737  -17.7292   20.2189 C   0  0  0  0  0  0
  -29.7804  -16.3724   20.8260 C   0  0  0  0  0  0
  -29.3041  -19.0052   20.6335 C   0  0  0  0  0  0
  -29.0041  -23.2596   20.0732 C   0  0  0  0  0  0
  -28.7040  -21.6467   20.5222 C   0  0  0  0  0  0
  -27.9959  -24.5952   20.3605 C   0  0  0  0  0  0
  -29.4881  -20.3647   20.0998 O   0  0  0  0  0  0
  -31.4795  -12.7910   19.1881 H   0  0  0  0  0  0
  -30.4699  -11.6516   20.0162 H   0  0  0  0  0  0
  -29.8565  -11.7721   17.5803 H   0  0  0  0  0  0
  -29.6127  -13.4958   17.7080 H   0  0  0  0  0  0
  -27.9524  -11.2872   18.9550 H   0  0  0  0  0  0
  -27.3982  -12.4829   17.8096 H   0  0  0  0  0  0
  -27.6142  -14.2626   19.4511 H   0  0  0  0  0  0
  -28.7796  -12.1955   21.3630 H   0  0  0  0  0  0
  -28.3232  -13.7820   21.8215 H   0  0  0  0  0  0
  -25.2772   -9.5685   22.4744 H   0  0  0  0  0  0
  -24.0011   -7.4638   22.7466 H   0  0  0  0  0  0
  -21.0847   -8.8767   19.8947 H   0  0  0  0  0  0
  -22.3703  -10.9666   19.6151 H   0  0  0  0  0  0
  -21.2008   -7.6152   23.9720 H   0  0  0  0  0  0
  -21.1475   -6.0528   25.9081 H   0  0  0  0  0  0
  -22.0599   -2.7616   23.2848 H   0  0  0  0  0  0
  -22.4106  -11.9837   22.4799 H   0  0  0  0  0  0
  -21.1091  -13.1187   22.2665 H   0  0  0  0  0  0
  -24.6674  -15.8571   20.5659 H   0  0  0  0  0  0
  -26.2923  -15.6368   20.1584 H   0  0  0  0  0  0
  -26.7286  -32.5295   23.0991 H   0  0  0  0  0  0
  -25.0115  -33.9619   25.0335 H   0  0  0  0  0  0
  -22.7544  -31.2900   21.3766 H   0  0  0  0  0  0
  -23.3755  -35.9572   23.3306 H   0  0  0  0  0  0
  -24.3566  -36.8876   22.2055 H   0  0  0  0  0  0
  -23.7239  -37.6441   23.6678 H   0  0  0  0  0  0
  -26.1669  -31.4641   20.6162 H   0  0  0  0  0  0
  -26.8772  -30.7608   22.0333 H   0  0  0  0  0  0
  -28.1379  -28.7833   21.2328 H   0  0  0  0  0  0
  -25.9161  -25.8570   18.9653 H   0  0  0  0  0  0
  -23.9828  -27.3026   18.9725 H   0  0  0  0  0  0
  -23.8219  -30.5671   19.3989 H   0  0  0  0  0  0
  -22.7913  -29.2384   19.8383 H   0  0  0  0  0  0
  -25.1313  -36.1852   25.0805 H   0  0  0  0  0  0
  -21.0019  -28.3323   24.1341 H   0  0  0  0  0  0
  -20.5678  -26.2342   23.3625 H   0  0  0  0  0  0
  -21.6650  -26.7434   22.1199 H   0  0  0  0  0  0
  -19.6927  -25.6292   21.1250 H   0  0  0  0  0  0
  -19.6696  -27.3180   20.6725 H   0  0  0  0  0  0
  -17.4210  -26.6682   21.4023 H   0  0  0  0  0  0
  -18.0345  -26.0091   22.9026 H   0  0  0  0  0  0
  -19.7966  -30.7294   24.2231 H   0  0  0  0  0  0
  -17.5043  -31.6276   24.5167 H   0  0  0  0  0  0
  -15.5374  -30.2994   23.7678 H   0  0  0  0  0  0
  -15.8688  -28.0828   22.7089 H   0  0  0  0  0  0
  -24.5916  -30.7079   25.7738 H   0  0  0  0  0  0
  -24.8844  -32.2958   26.4718 H   0  0  0  0  0  0
  -25.7972  -30.9048   27.0251 H   0  0  0  0  0  0
  -26.3024  -29.6681   24.1302 H   0  0  0  0  0  0
  -27.3977  -29.7272   25.4905 H   0  0  0  0  0  0
  -27.8941  -30.4197   23.9656 H   0  0  0  0  0  0
  -27.2663  -33.3688   26.1979 H   0  0  0  0  0  0
  -28.3913  -32.6827   25.0357 H   0  0  0  0  0  0
  -28.0661  -31.8527   26.5500 H   0  0  0  0  0  0
  -28.2587  -38.0076   24.7502 H   0  0  0  0  0  0
  -28.1058  -36.2603   24.6315 H   0  0  0  0  0  0
  -27.2279  -37.1455   25.8871 H   0  0  0  0  0  0
  -20.9478  -29.8787   21.6788 H   0  0  0  0  0  0
  -26.0141  -38.2810   24.1419 H   0  0  0  0  0  0
  -27.5573  -17.5322   23.1863 H   0  0  0  0  0  0
  -28.7758  -15.5542   22.5676 H   0  0  0  0  0  0
  -27.8353  -19.6694   22.0828 H   0  0  0  0  0  0
  -30.6777  -17.7921   19.4009 H   0  0  0  0  0  0
  -29.1774  -23.2455   18.9971 H   0  0  0  0  0  0
  -29.9741  -23.5151   20.4992 H   0  0  0  0  0  0
  -27.6675  -21.4416   20.2531 H   0  0  0  0  0  0
  -28.7149  -21.6540   21.6119 H   0  0  0  0  0  0
  -27.0930  -24.3558   19.8055 H   0  0  0  0  0  0
  -27.6893  -24.5111   21.4034 H   0  0  0  0  0  0
  1 25  1  0  0  0
  1 30  2  0  0  0
  1 75  1  0  0  0
  2  3  1  0  0  0
  2 25  1  0  0  0
  2 81  1  0  0  0
  2 82  1  0  0  0
  3  4  1  0  0  0
  3 83  1  0  0  0
  3 84  1  0  0  0
  4  5  1  0  0  0
  4 85  1  0  0  0
  4 86  1  0  0  0
  5  6  1  0  0  0
  5 26  1  0  0  0
  5 87  1  0  0  0
  6 25  1  0  0  0
  6 88  1  0  0  0
  6 89  1  0  0  0
  7  8  2  0  0  0
  7 26  1  0  0  0
  7 29  1  0  0  0
  8  9  1  0  0  0
  8 22  1  0  0  0
  9 10  1  0  0  0
  9 27  2  0  0  0
 10 11  2  0  0  0
 10 15  1  0  0  0
 11 12  1  0  0  0
 11 90  1  0  0  0
 12 13  2  0  0  0
 12 91  1  0  0  0
 13 14  1  0  0  0
 13 31  1  0  0  0
 14 15  2  0  0  0
 14 92  1  0  0  0
 15 93  1  0  0  0
 16 17  2  0  0  0
 16 21  1  0  0  0
 16 31  1  0  0  0
 17 18  1  0  0  0
 17 94  1  0  0  0
 18 19  2  0  0  0
 18 95  1  0  0  0
 19 20  1  0  0  0
 19 24  1  0  0  0
 20 21  2  0  0  0
 20 96  1  0  0  0
 21 23  1  0  0  0
 22 28  1  0  0  0
 22 32  2  0  0  0
 26 27  1  0  0  0
 28 97  1  0  0  0
 28 98  1  0  0  0
 29 99  1  0  0  0
 29100  1  0  0  0
 33 34  1  0  0  0
 33 66  1  0  0  0
 33 70  2  0  0  0
 34 36  1  0  0  0
 34 59  1  0  0  0
 34101  1  0  0  0
 35 44  2  0  0  0
 35 45  1  0  0  0
 35 68  1  0  0  0
 36 56  1  0  0  0
 36102  1  0  0  0
 37 39  1  0  0  0
 37 47  1  0  0  0
 37 66  1  0  0  0
 37103  1  0  0  0
 38 43  2  0  0  0
 38 46  1  0  0  0
 38 47  1  0  0  0
 39 64  1  0  0  0
 39 67  2  0  0  0
 40 52  1  0  0  0
 40 53  2  0  0  0
 40 58  1  0  0  0
 41104  1  0  0  0
 41105  1  0  0  0
 41106  1  0  0  0
 41 48  1  0  0  0
 42 43  1  0  0  0
 42 66  1  0  0  0
 42107  1  0  0  0
 42108  1  0  0  0
 43 44  1  0  0  0
 44109  1  0  0  0
 45 46  2  0  0  0
 45110  1  0  0  0
 46111  1  0  0  0
 47112  1  0  0  0
 47113  1  0  0  0
 48 56  1  0  0  0
 48 65  1  0  0  0
 48114  1  0  0  0
 49 50  1  0  0  0
 49 53  1  0  0  0
 49 64  1  0  0  0
 49115  1  0  0  0
 50 51  1  0  0  0
 50116  1  0  0  0
 50117  1  0  0  0
 51 52  1  0  0  0
 51118  1  0  0  0
 51119  1  0  0  0
 52120  1  0  0  0
 52121  1  0  0  0
 53 54  1  0  0  0
 54 55  2  0  0  0
 54122  1  0  0  0
 55 57  1  0  0  0
 55123  1  0  0  0
 56 69  2  0  0  0
 57 58  2  0  0  0
 57124  1  0  0  0
 58125  1  0  0  0
 59 60  1  0  0  0
 59 61  1  0  0  0
 59 62  1  0  0  0
 60126  1  0  0  0
 60127  1  0  0  0
 60128  1  0  0  0
 61129  1  0  0  0
 61130  1  0  0  0
 61131  1  0  0  0
 62132  1  0  0  0
 62133  1  0  0  0
 62134  1  0  0  0
 63 65  1  0  0  0
 63135  1  0  0  0
 63136  1  0  0  0
 63137  1  0  0  0
 64138  1  0  0  0
 65139  1  0  0  0
 68 79  1  0  0  0
 71 72  2  0  0  0
 71 73  1  0  0  0
 71140  1  0  0  0
 72 75  1  0  0  0
 72141  1  0  0  0
 73 76  2  0  0  0
 73142  1  0  0  0
 74 75  2  0  0  0
 74 76  1  0  0  0
 74143  1  0  0  0
 76 80  1  0  0  0
 77 78  1  0  0  0
 77 79  1  0  0  0
 77144  1  0  0  0
 77145  1  0  0  0
 78 80  1  0  0  0
 78146  1  0  0  0
 78147  1  0  0  0
 79148  1  0  0  0
 79149  1  0  0  0
M  ISO  4   1 100  68 101  75 100  79 101
M  END
> <chiral flag>
0

> <version>
0

> <s_m_source_file>
/data/baiqing/PycharmProjects/Reinvent-master-3.2/result/LINK_invent/BTK/process_docking_weight1_custom_product_contain_oxygen_bond_distance_aromatic_linkinvent_7_9_3/rearranged_h_0012.sdf

> <i_m_source_file_index>
41

> <r_mmod_Potential_Energy-OPLS-2005>
588.730407714844

> <r_mmod_Stretch_Energy-OPLS-2005>
290.593170166016

> <r_mmod_Bend_Energy-OPLS-2005>
269.393768310547

> <r_mmod_Torsional_Energy-OPLS-2005>
195.315353393555

> <r_mmod_Improper_Torsional_Energy-OPLS-2005>
2.87976336479187

> <r_mmod_Van_der_Waal_Energy-OPLS-2005>
137.61848449707

> <r_mmod_Electrostatic_Energy-OPLS-2005>
-309.434478759766

> <r_mmod_Solvation_Energy-OPLS-2005>
-197.617294311523

> <b_mmod_Minimization_Converged-OPLS-2005>
0

> <r_mmod_RMS_Derivative-OPLS-2005>
1.03173041343689

$$$$
41
                    3D
 Structure written by MMmdl.
162170  0  0  1  0            999 V2000
  -30.7703  -14.4302   20.6730 C   0  0  0  0  0  0
  -30.4145  -12.3239   19.4179 C   0  0  0  0  0  0
  -29.4884  -12.5320   18.2050 C   0  0  0  0  0  0
  -28.0137  -12.3771   18.6162 C   0  0  0  0  0  0
  -27.6604  -13.2135   19.8716 C   0  0  2  0  0  0
  -28.6951  -13.0019   20.9942 C   0  0  0  0  0  0
  -25.2577  -13.8183   20.5677 C   0  0  0  0  0  0
  -24.1842  -13.0456   20.9168 C   0  0  0  0  0  0
  -24.6404  -11.6918   20.8730 C   0  0  0  0  0  0
  -23.9080  -10.4303   21.0407 C   0  0  0  0  0  0
  -24.3630   -9.4216   21.9187 C   0  0  0  0  0  0
  -23.6300   -8.2255   22.0760 C   0  0  0  0  0  0
  -22.4281   -8.0293   21.3550 C   0  0  0  0  0  0
  -21.9922   -9.0270   20.4652 C   0  0  0  0  0  0
  -22.7253  -10.2145   20.3058 C   0  0  0  0  0  0
  -21.6854   -6.0749   22.5287 C   0  0  0  0  0  0
  -21.4014   -6.5646   23.8224 C   0  0  0  0  0  0
  -21.3660   -5.6792   24.9181 C   0  0  0  0  0  0
  -21.6045   -4.3057   24.7223 C   0  0  0  0  0  0
  -21.8818   -3.8156   23.4340 C   0  0  0  0  0  0
  -21.9194   -4.6979   22.3403 C   0  0  0  0  0  0
  -22.7861  -13.5240   21.1852 C   0  0  0  0  0  0
  -22.1660   -4.2165   21.0979 F   0  0  0  0  0  0
  -21.5632   -3.4538   25.7734 F   0  0  0  0  0  0
  -30.0386  -13.2951   20.4609 N   0  0  0  0  0  0
  -26.3019  -12.9369   20.3341 N   0  0  0  0  0  0
  -25.9330  -11.6518   20.5749 N   0  0  0  0  0  0
  -22.0511  -12.8221   22.0399 N   0  0  0  0  0  0
  -25.4299  -15.1909   20.4095 N   0  0  0  0  0  0
  -31.7991  -14.6709   20.0325 O   0  0  0  0  0  0
  -21.6640   -6.8894   21.4248 O   0  0  0  0  0  0
  -22.3553  -14.5567   20.6729 O   0  0  0  0  0  0
  -24.6155  -31.8689   23.2118 C   0  0  0  0  0  0
  -25.9047  -32.4803   23.8414 C   0  0  1  0  0  0
  -27.2221  -27.4255   20.0927 C   0  0  0  0  0  0
  -25.5895  -33.8605   24.2342 N   0  0  0  0  0  0
  -23.4030  -30.4948   21.5559 C   0  0  2  0  0  0
  -24.8465  -28.9707   20.1091 C   0  0  0  0  0  0
  -22.7433  -29.4649   22.5015 C   0  0  0  0  0  0
  -18.0249  -28.1341   22.8486 C   0  0  0  0  0  0
  -24.1497  -36.7340   23.2639 C   0  0  0  0  0  0
  -25.9347  -30.8318   21.3666 C   0  0  0  0  0  0
  -26.0110  -29.4696   20.7079 C   0  0  0  0  0  0
  -27.2042  -28.7074   20.6946 C   0  0  0  0  0  0
  -26.0421  -26.9600   19.4642 C   0  0  0  0  0  0
  -24.8583  -27.7155   19.4832 C   0  0  0  0  0  0
  -23.6090  -29.8375   20.1670 C   0  0  0  0  0  0
  -25.4103  -36.3113   24.0335 C   0  0  1  0  0  0
  -20.5844  -28.3660   23.1310 C   0  0  2  0  0  0
  -20.6748  -26.9389   22.5440 C   0  0  0  0  0  0
  -19.5731  -26.6361   21.5232 C   0  0  0  0  0  0
  -18.1900  -26.7881   22.1621 C   0  0  0  0  0  0
  -19.1495  -28.8813   23.2885 C   0  0  0  0  0  0
  -18.9429  -30.1417   23.8899 C   0  0  0  0  0  0
  -17.6431  -30.6553   24.0560 C   0  0  0  0  0  0
  -25.9028  -34.9461   23.5140 C   0  0  0  0  0  0
  -16.5324  -29.9053   23.6314 C   0  0  0  0  0  0
  -16.7238  -28.6465   23.0339 C   0  0  0  0  0  0
  -26.4458  -31.6538   25.0729 C   0  0  0  0  0  0
  -25.3739  -31.3623   26.1497 C   0  0  0  0  0  0
  -27.0278  -30.2965   24.6091 C   0  0  0  0  0  0
  -27.6031  -32.4270   25.7471 C   0  0  0  0  0  0
  -27.5579  -37.1813   24.8453 C   0  0  0  0  0  0
  -21.4156  -29.3034   22.3744 N   0  0  0  0  0  0
  -26.4289  -37.3792   23.9405 N   0  0  0  0  0  0
  -24.6694  -31.0783   22.1031 N   0  0  0  0  0  0
  -23.4199  -28.8171   23.3040 O   0  0  0  0  0  0
  -28.3584  -26.6362   20.1485 O   0  0  0  0  0  0
  -26.5601  -34.8887   22.4711 O   0  0  0  0  0  0
  -23.5348  -32.1472   23.7507 O   0  0  0  0  0  0
  -30.3838  -18.7297   19.9872 C   0  0  0  0  0  0
  -30.3649  -17.3255   20.1674 C   0  0  0  0  0  0
  -30.0373  -19.0253   22.3557 C   0  0  0  0  0  0
  -30.2588  -19.6051   21.0895 C   0  0  0  0  0  0
  -30.2414  -16.7264   21.4553 C   0  0  0  0  0  0
  -30.0217  -17.6263   22.5422 C   0  0  0  0  0  0
  -31.5097  -21.5412   19.9567 C   0  0  0  0  0  0
  -30.4509  -14.7337   23.0177 C   0  0  0  0  0  0
  -29.2623  -24.4134   20.8990 C   0  0  0  0  0  0
  -28.8274  -23.0380   21.5010 C   0  0  0  0  0  0
  -28.1081  -25.2160   20.2524 C   0  0  0  0  0  0
  -30.4234  -21.1345   20.9695 C   0  0  1  0  0  0
  -30.3502  -15.2794   21.6506 N   0  0  0  0  0  0
  -29.1336  -21.8202   20.6916 N   0  3  0  0  0  0
  -29.8051  -17.1896   23.8050 F   0  0  0  0  0  0
  -31.4588  -12.4167   19.1139 H   0  0  0  0  0  0
  -30.3130  -11.3097   19.8062 H   0  0  0  0  0  0
  -29.7319  -11.8202   17.4155 H   0  0  0  0  0  0
  -29.6500  -13.5259   17.7842 H   0  0  0  0  0  0
  -27.8286  -11.3203   18.8106 H   0  0  0  0  0  0
  -27.3602  -12.6529   17.7884 H   0  0  0  0  0  0
  -27.7062  -14.2626   19.5788 H   0  0  0  0  0  0
  -28.6662  -11.9743   21.3584 H   0  0  0  0  0  0
  -28.4185  -13.6221   21.8447 H   0  0  0  0  0  0
  -25.2776   -9.5693   22.4757 H   0  0  0  0  0  0
  -24.0013   -7.4649   22.7481 H   0  0  0  0  0  0
  -21.0855   -8.8792   19.8957 H   0  0  0  0  0  0
  -22.3718  -10.9687   19.6168 H   0  0  0  0  0  0
  -21.1998   -7.6153   23.9732 H   0  0  0  0  0  0
  -21.1485   -6.0519   25.9085 H   0  0  0  0  0  0
  -22.0594   -2.7620   23.2834 H   0  0  0  0  0  0
  -22.4113  -11.9840   22.4724 H   0  0  0  0  0  0
  -21.1153  -13.1272   22.2670 H   0  0  0  0  0  0
  -24.6671  -15.8487   20.5256 H   0  0  0  0  0  0
  -26.2913  -15.6304   20.1102 H   0  0  0  0  0  0
  -26.7107  -32.5476   23.1168 H   0  0  0  0  0  0
  -25.0047  -33.9759   25.0487 H   0  0  0  0  0  0
  -22.6897  -31.3110   21.4231 H   0  0  0  0  0  0
  -23.3730  -35.9704   23.3293 H   0  0  0  0  0  0
  -24.3630  -36.8975   22.2068 H   0  0  0  0  0  0
  -23.7267  -37.6543   23.6670 H   0  0  0  0  0  0
  -26.0440  -31.5961   20.5961 H   0  0  0  0  0  0
  -26.8256  -30.8861   21.9810 H   0  0  0  0  0  0
  -28.0976  -29.0875   21.1729 H   0  0  0  0  0  0
  -26.0103  -26.0091   18.9534 H   0  0  0  0  0  0
  -23.9682  -27.3279   19.0070 H   0  0  0  0  0  0
  -23.7106  -30.6212   19.4147 H   0  0  0  0  0  0
  -22.7322  -29.2598   19.8714 H   0  0  0  0  0  0
  -25.1258  -36.2021   25.0827 H   0  0  0  0  0  0
  -20.9887  -28.3244   24.1448 H   0  0  0  0  0  0
  -20.5698  -26.2275   23.3648 H   0  0  0  0  0  0
  -21.6612  -26.7469   22.1213 H   0  0  0  0  0  0
  -19.6927  -25.6296   21.1212 H   0  0  0  0  0  0
  -19.6636  -27.3208   20.6794 H   0  0  0  0  0  0
  -17.4202  -26.6645   21.3994 H   0  0  0  0  0  0
  -18.0270  -26.0007   22.8997 H   0  0  0  0  0  0
  -19.7918  -30.7215   24.2275 H   0  0  0  0  0  0
  -17.4995  -31.6229   24.5172 H   0  0  0  0  0  0
  -15.5322  -30.2962   23.7614 H   0  0  0  0  0  0
  -15.8644  -28.0789   22.7035 H   0  0  0  0  0  0
  -24.5980  -30.6854   25.7897 H   0  0  0  0  0  0
  -24.8824  -32.2743   26.4898 H   0  0  0  0  0  0
  -25.8145  -30.8900   27.0291 H   0  0  0  0  0  0
  -26.2819  -29.6717   24.1168 H   0  0  0  0  0  0
  -27.4067  -29.7174   25.4522 H   0  0  0  0  0  0
  -27.8636  -30.4243   23.9210 H   0  0  0  0  0  0
  -27.2655  -33.3615   26.1961 H   0  0  0  0  0  0
  -28.3854  -32.6765   25.0290 H   0  0  0  0  0  0
  -28.0671  -31.8466   26.5453 H   0  0  0  0  0  0
  -28.2563  -38.0143   24.7520 H   0  0  0  0  0  0
  -28.1094  -36.2661   24.6240 H   0  0  0  0  0  0
  -27.2301  -37.1422   25.8856 H   0  0  0  0  0  0
  -20.9361  -29.8829   21.6999 H   0  0  0  0  0  0
  -26.0180  -38.2869   24.1408 H   0  0  0  0  0  0
  -30.5382  -19.1213   18.9914 H   0  0  0  0  0  0
  -30.4950  -16.7210   19.2817 H   0  0  0  0  0  0
  -29.9091  -19.6545   23.2249 H   0  0  0  0  0  0
  -32.4501  -21.0314   20.1712 H   0  0  0  0  0  0
  -31.7131  -22.6104   19.9999 H   0  0  0  0  0  0
  -31.2284  -21.3015   18.9320 H   0  0  0  0  0  0
  -31.2227  -15.2535   23.5865 H   0  0  0  0  0  0
  -30.7137  -13.6732   23.0505 H   0  0  0  0  0  0
  -29.5010  -14.8338   23.5433 H   0  0  0  0  0  0
  -30.0949  -24.3078   20.2055 H   0  0  0  0  0  0
  -29.6442  -25.0209   21.7208 H   0  0  0  0  0  0
  -27.7517  -23.0457   21.6834 H   0  0  0  0  0  0
  -29.2641  -22.9304   22.4942 H   0  0  0  0  0  0
  -27.2145  -25.0557   20.8607 H   0  0  0  0  0  0
  -27.8973  -24.8066   19.2644 H   0  0  0  0  0  0
  -30.7862  -21.4600   21.9455 H   0  0  0  0  0  0
  -29.0226  -21.9942   19.7068 H   0  0  0  0  0  0
  -28.4309  -21.1416   20.9394 H   0  0  0  0  0  0
  1 25  1  0  0  0
  1 30  2  0  0  0
  1 83  1  0  0  0
  2  3  1  0  0  0
  2 25  1  0  0  0
  2 86  1  0  0  0
  2 87  1  0  0  0
  3  4  1  0  0  0
  3 88  1  0  0  0
  3 89  1  0  0  0
  4  5  1  0  0  0
  4 90  1  0  0  0
  4 91  1  0  0  0
  5  6  1  0  0  0
  5 26  1  0  0  0
  5 92  1  0  0  0
  6 25  1  0  0  0
  6 93  1  0  0  0
  6 94  1  0  0  0
  7  8  2  0  0  0
  7 26  1  0  0  0
  7 29  1  0  0  0
  8  9  1  0  0  0
  8 22  1  0  0  0
  9 10  1  0  0  0
  9 27  2  0  0  0
 10 11  2  0  0  0
 10 15  1  0  0  0
 11 12  1  0  0  0
 11 95  1  0  0  0
 12 13  2  0  0  0
 12 96  1  0  0  0
 13 14  1  0  0  0
 13 31  1  0  0  0
 14 15  2  0  0  0
 14 97  1  0  0  0
 15 98  1  0  0  0
 16 17  2  0  0  0
 16 21  1  0  0  0
 16 31  1  0  0  0
 17 18  1  0  0  0
 17 99  1  0  0  0
 18 19  2  0  0  0
 18100  1  0  0  0
 19 20  1  0  0  0
 19 24  1  0  0  0
 20 21  2  0  0  0
 20101  1  0  0  0
 21 23  1  0  0  0
 22 28  1  0  0  0
 22 32  2  0  0  0
 26 27  1  0  0  0
 28102  1  0  0  0
 28103  1  0  0  0
 29104  1  0  0  0
 29105  1  0  0  0
 33 34  1  0  0  0
 33 66  1  0  0  0
 33 70  2  0  0  0
 34 36  1  0  0  0
 34 59  1  0  0  0
 34106  1  0  0  0
 35 44  2  0  0  0
 35 45  1  0  0  0
 35 68  1  0  0  0
 36 56  1  0  0  0
 36107  1  0  0  0
 37 39  1  0  0  0
 37 47  1  0  0  0
 37 66  1  0  0  0
 37108  1  0  0  0
 38 43  2  0  0  0
 38 46  1  0  0  0
 38 47  1  0  0  0
 39 64  1  0  0  0
 39 67  2  0  0  0
 40 52  1  0  0  0
 40 53  2  0  0  0
 40 58  1  0  0  0
 41109  1  0  0  0
 41110  1  0  0  0
 41111  1  0  0  0
 41 48  1  0  0  0
 42 43  1  0  0  0
 42 66  1  0  0  0
 42112  1  0  0  0
 42113  1  0  0  0
 43 44  1  0  0  0
 44114  1  0  0  0
 45 46  2  0  0  0
 45115  1  0  0  0
 46116  1  0  0  0
 47117  1  0  0  0
 47118  1  0  0  0
 48 56  1  0  0  0
 48 65  1  0  0  0
 48119  1  0  0  0
 49 50  1  0  0  0
 49 53  1  0  0  0
 49 64  1  0  0  0
 49120  1  0  0  0
 50 51  1  0  0  0
 50121  1  0  0  0
 50122  1  0  0  0
 51 52  1  0  0  0
 51123  1  0  0  0
 51124  1  0  0  0
 52125  1  0  0  0
 52126  1  0  0  0
 53 54  1  0  0  0
 54 55  2  0  0  0
 54127  1  0  0  0
 55 57  1  0  0  0
 55128  1  0  0  0
 56 69  2  0  0  0
 57 58  2  0  0  0
 57129  1  0  0  0
 58130  1  0  0  0
 59 60  1  0  0  0
 59 61  1  0  0  0
 59 62  1  0  0  0
 60131  1  0  0  0
 60132  1  0  0  0
 60133  1  0  0  0
 61134  1  0  0  0
 61135  1  0  0  0
 61136  1  0  0  0
 62137  1  0  0  0
 62138  1  0  0  0
 62139  1  0  0  0
 63 65  1  0  0  0
 63140  1  0  0  0
 63141  1  0  0  0
 63142  1  0  0  0
 64143  1  0  0  0
 65144  1  0  0  0
 68 81  1  0  0  0
 71 72  2  0  0  0
 71 74  1  0  0  0
 71145  1  0  0  0
 72 75  1  0  0  0
 72146  1  0  0  0
 73 74  2  0  0  0
 73 76  1  0  0  0
 73147  1  0  0  0
 74 82  1  0  0  0
 75 76  2  0  0  0
 75 83  1  0  0  0
 76 85  1  0  0  0
 77148  1  0  0  0
 77149  1  0  0  0
 77150  1  0  0  0
 77 82  1  0  0  0
 78 83  1  0  0  0
 78151  1  0  0  0
 78152  1  0  0  0
 78153  1  0  0  0
 79 80  1  0  0  0
 79 81  1  0  0  0
 79154  1  0  0  0
 79155  1  0  0  0
 80 84  1  0  0  0
 80156  1  0  0  0
 80157  1  0  0  0
 81158  1  0  0  0
 81159  1  0  0  0
 82 84  1  0  0  0
 82160  1  0  0  0
 84161  1  0  0  0
 84162  1  0  0  0
M  CHG  1  84   1
M  ISO  4   1 100  68 101  81 101  83 100
M  END
> <chiral flag>
0

> <version>
0

> <s_m_source_file>
/data/baiqing/PycharmProjects/Reinvent-master-3.2/result/LINK_invent/BTK/process_docking_weight1_custom_product_contain_oxygen_bond_distance_aromatic_linkinvent_7_9_3/rearranged_h_0012.sdf

> <i_m_source_file_index>
42

> <r_mmod_Potential_Energy-OPLS-2005>
-54.7789154052734

> <r_mmod_Stretch_Energy-OPLS-2005>
49.2280197143555

> <r_mmod_Bend_Energy-OPLS-2005>
108.726196289062

> <r_mmod_Torsional_Energy-OPLS-2005>
296.302917480469

> <r_mmod_Improper_Torsional_Energy-OPLS-2005>
2.80889296531677

> <r_mmod_Van_der_Waal_Energy-OPLS-2005>
176.660797119141

> <r_mmod_Electrostatic_Energy-OPLS-2005>
-241.58854675293

> <r_mmod_Solvation_Energy-OPLS-2005>
-460.091491699219

> <b_mmod_Minimization_Converged-OPLS-2005>
0

> <r_mmod_RMS_Derivative-OPLS-2005>
2.34322237968445

$$$$
42
                    3D
 Structure written by MMmdl.
153162  0  0  1  0            999 V2000
  -30.5011  -14.9501   20.4203 C   0  0  0  0  0  0
  -30.4530  -12.5884   19.4893 C   0  0  0  0  0  0
  -29.5251  -12.5277   18.2517 C   0  0  0  0  0  0
  -28.0575  -12.3110   18.6714 C   0  0  0  0  0  0
  -27.6331  -13.2385   19.8397 C   0  0  2  0  0  0
  -28.6776  -13.2460   20.9761 C   0  0  0  0  0  0
  -25.2477  -13.8187   20.5677 C   0  0  0  0  0  0
  -24.1791  -13.0427   20.9230 C   0  0  0  0  0  0
  -24.6398  -11.6911   20.8769 C   0  0  0  0  0  0
  -23.9076  -10.4287   21.0422 C   0  0  0  0  0  0
  -24.3628   -9.4201   21.9197 C   0  0  0  0  0  0
  -23.6300   -8.2239   22.0761 C   0  0  0  0  0  0
  -22.4281   -8.0283   21.3548 C   0  0  0  0  0  0
  -21.9920   -9.0255   20.4648 C   0  0  0  0  0  0
  -22.7253  -10.2132   20.3065 C   0  0  0  0  0  0
  -21.6850   -6.0743   22.5281 C   0  0  0  0  0  0
  -21.4010   -6.5646   23.8215 C   0  0  0  0  0  0
  -21.3659   -5.6795   24.9173 C   0  0  0  0  0  0
  -21.6042   -4.3058   24.7219 C   0  0  0  0  0  0
  -21.8820   -3.8151   23.4342 C   0  0  0  0  0  0
  -21.9191   -4.6971   22.3401 C   0  0  0  0  0  0
  -22.7810  -13.5208   21.1884 C   0  0  0  0  0  0
  -22.1661   -4.2158   21.0980 F   0  0  0  0  0  0
  -21.5629   -3.4540   25.7732 F   0  0  0  0  0  0
  -29.9521  -13.6702   20.3811 N   0  0  0  0  0  0
  -26.2901  -12.9402   20.3235 N   0  0  0  0  0  0
  -25.9327  -11.6542   20.5746 N   0  0  0  0  0  0
  -22.0455  -12.8198   22.0431 N   0  0  0  0  0  0
  -25.4114  -15.1914   20.4036 N   0  0  0  0  0  0
  -31.7072  -15.0665   20.1732 O   0  0  0  0  0  0
  -21.6642   -6.8885   21.4244 O   0  0  0  0  0  0
  -22.3504  -14.5521   20.6734 O   0  0  0  0  0  0
  -24.6432  -31.8435   23.1855 C   0  0  0  0  0  0
  -25.9197  -32.4696   23.8254 C   0  0  1  0  0  0
  -27.2229  -27.1404   20.1613 C   0  0  0  0  0  0
  -25.5949  -33.8501   24.2183 N   0  0  0  0  0  0
  -23.4469  -30.4603   21.5316 C   0  0  2  0  0  0
  -24.8964  -28.8774   20.1176 C   0  0  0  0  0  0
  -22.7559  -29.4548   22.4862 C   0  0  0  0  0  0
  -18.0299  -28.1400   22.8484 C   0  0  0  0  0  0
  -24.1489  -36.7251   23.2640 C   0  0  0  0  0  0
  -26.0008  -30.7199   21.3795 C   0  0  0  0  0  0
  -26.0737  -29.3282   20.7284 C   0  0  0  0  0  0
  -27.2411  -28.4780   20.7251 C   0  0  0  0  0  0
  -26.0180  -26.7780   19.5255 C   0  0  0  0  0  0
  -24.8797  -27.6154   19.5013 C   0  0  0  0  0  0
  -23.6729  -29.7806   20.1544 C   0  0  0  0  0  0
  -25.4120  -36.3033   24.0317 C   0  0  1  0  0  0
  -20.5916  -28.3722   23.1243 C   0  0  2  0  0  0
  -20.6787  -26.9423   22.5409 C   0  0  0  0  0  0
  -19.5760  -26.6387   21.5218 C   0  0  0  0  0  0
  -18.1940  -26.7944   22.1626 C   0  0  0  0  0  0
  -19.1557  -28.8878   23.2861 C   0  0  0  0  0  0
  -18.9477  -30.1476   23.8884 C   0  0  0  0  0  0
  -17.6474  -30.6600   24.0565 C   0  0  0  0  0  0
  -25.9068  -34.9408   23.5059 C   0  0  0  0  0  0
  -16.5361  -29.9097   23.6339 C   0  0  0  0  0  0
  -16.7283  -28.6512   23.0362 C   0  0  0  0  0  0
  -26.4508  -31.6559   25.0697 C   0  0  0  0  0  0
  -25.3698  -31.3813   26.1415 C   0  0  0  0  0  0
  -27.0303  -30.2927   24.6268 C   0  0  0  0  0  0
  -27.6084  -32.4275   25.7463 C   0  0  0  0  0  0
  -27.5576  -37.1780   24.8465 C   0  0  0  0  0  0
  -21.4251  -29.3050   22.3614 N   0  0  0  0  0  0
  -26.4283  -37.3748   23.9414 N   0  0  0  0  0  0
  -24.7170  -31.0295   22.0881 N   0  0  0  0  0  0
  -23.4200  -28.8098   23.3017 O   0  0  0  0  0  0
  -28.3026  -26.1907   20.1578 O   0  0  0  0  0  0
  -26.5654  -34.8910   22.4638 O   0  0  0  0  0  0
  -23.5549  -32.1295   23.7082 O   0  0  0  0  0  0
  -30.1427  -19.9397   21.3229 C   0  0  0  0  0  0
  -28.5452  -19.7942   19.6124 C   0  0  0  0  0  0
  -30.3499  -18.4954   21.2873 C   0  0  0  0  0  0
  -28.7245  -18.3453   19.5989 C   0  0  0  0  0  0
  -29.2234  -20.6946   20.5007 C   0  0  0  0  0  0
  -29.6367  -17.5955   20.4284 C   0  0  0  0  0  0
  -29.1146  -24.3827   21.7327 C   0  0  0  0  0  0
  -29.1946  -22.8331   21.9267 C   0  0  0  0  0  0
  -28.4721  -23.3054   19.7362 C   0  0  0  0  0  0
  -28.1508  -24.6972   20.5732 C   0  0  2  0  0  0
  -29.0037  -22.1726   20.6318 N   0  0  0  0  0  0
  -29.6152  -16.0593   20.5055 N   0  0  0  0  0  0
  -31.4814  -12.7721   19.1743 H   0  0  0  0  0  0
  -30.4663  -11.6321   20.0142 H   0  0  0  0  0  0
  -29.8446  -11.7305   17.5790 H   0  0  0  0  0  0
  -29.6087  -13.4565   17.6854 H   0  0  0  0  0  0
  -27.9547  -11.2689   18.9764 H   0  0  0  0  0  0
  -27.3923  -12.4445   17.8173 H   0  0  0  0  0  0
  -27.6001  -14.2428   19.4174 H   0  0  0  0  0  0
  -28.7672  -12.2606   21.4366 H   0  0  0  0  0  0
  -28.3766  -13.9301   21.7718 H   0  0  0  0  0  0
  -25.2772   -9.5677   22.4773 H   0  0  0  0  0  0
  -24.0006   -7.4627   22.7478 H   0  0  0  0  0  0
  -21.0852   -8.8776   19.8948 H   0  0  0  0  0  0
  -22.3718  -10.9675   19.6173 H   0  0  0  0  0  0
  -21.2002   -7.6155   23.9720 H   0  0  0  0  0  0
  -21.1479   -6.0525   25.9076 H   0  0  0  0  0  0
  -22.0600   -2.7613   23.2835 H   0  0  0  0  0  0
  -22.4068  -11.9851   22.4808 H   0  0  0  0  0  0
  -21.1071  -13.1225   22.2634 H   0  0  0  0  0  0
  -24.6289  -15.8305   20.4959 H   0  0  0  0  0  0
  -26.2282  -15.6289   19.9990 H   0  0  0  0  0  0
  -26.7269  -32.5304   23.0989 H   0  0  0  0  0  0
  -25.0087  -33.9612   25.0328 H   0  0  0  0  0  0
  -22.7506  -31.2867   21.3731 H   0  0  0  0  0  0
  -23.3773  -35.9559   23.3256 H   0  0  0  0  0  0
  -24.3585  -36.8916   22.2062 H   0  0  0  0  0  0
  -23.7205  -37.6422   23.6692 H   0  0  0  0  0  0
  -26.1490  -31.4697   20.6011 H   0  0  0  0  0  0
  -26.8747  -30.7783   22.0165 H   0  0  0  0  0  0
  -28.1466  -28.8255   21.2021 H   0  0  0  0  0  0
  -25.9483  -25.8090   19.0513 H   0  0  0  0  0  0
  -23.9782  -27.2644   19.0178 H   0  0  0  0  0  0
  -23.8097  -30.5496   19.3934 H   0  0  0  0  0  0
  -22.7882  -29.2198   19.8469 H   0  0  0  0  0  0
  -25.1305  -36.1857   25.0808 H   0  0  0  0  0  0
  -21.0011  -28.3307   24.1363 H   0  0  0  0  0  0
  -20.5673  -26.2333   23.3628 H   0  0  0  0  0  0
  -21.6650  -26.7427   22.1208 H   0  0  0  0  0  0
  -19.6922  -25.6294   21.1251 H   0  0  0  0  0  0
  -19.6703  -27.3199   20.6751 H   0  0  0  0  0  0
  -17.4208  -26.6684   21.4030 H   0  0  0  0  0  0
  -18.0342  -26.0094   22.9031 H   0  0  0  0  0  0
  -19.7951  -30.7300   24.2239 H   0  0  0  0  0  0
  -17.5028  -31.6280   24.5170 H   0  0  0  0  0  0
  -15.5363  -30.3000   23.7677 H   0  0  0  0  0  0
  -15.8678  -28.0830   22.7090 H   0  0  0  0  0  0
  -24.5830  -30.7208   25.7754 H   0  0  0  0  0  0
  -24.8957  -32.3036   26.4786 H   0  0  0  0  0  0
  -25.7969  -30.9002   27.0224 H   0  0  0  0  0  0
  -26.2874  -29.6698   24.1275 H   0  0  0  0  0  0
  -27.3884  -29.7193   25.4828 H   0  0  0  0  0  0
  -27.8816  -30.4116   23.9566 H   0  0  0  0  0  0
  -27.2774  -33.3700   26.1836 H   0  0  0  0  0  0
  -28.4015  -32.6591   25.0342 H   0  0  0  0  0  0
  -28.0583  -31.8481   26.5534 H   0  0  0  0  0  0
  -28.2586  -38.0084   24.7515 H   0  0  0  0  0  0
  -28.1075  -36.2612   24.6280 H   0  0  0  0  0  0
  -27.2300  -37.1416   25.8869 H   0  0  0  0  0  0
  -20.9453  -29.8756   21.6792 H   0  0  0  0  0  0
  -26.0148  -38.2812   24.1433 H   0  0  0  0  0  0
  -30.7354  -20.4797   22.0459 H   0  0  0  0  0  0
  -27.8115  -20.2111   18.9372 H   0  0  0  0  0  0
  -31.0500  -18.0717   21.9936 H   0  0  0  0  0  0
  -28.0961  -17.7890   18.9180 H   0  0  0  0  0  0
  -30.1064  -24.7516   21.4683 H   0  0  0  0  0  0
  -28.8263  -24.8931   22.6526 H   0  0  0  0  0  0
  -28.4038  -22.5049   22.6032 H   0  0  0  0  0  0
  -30.1454  -22.5639   22.3871 H   0  0  0  0  0  0
  -29.2327  -23.5138   18.9827 H   0  0  0  0  0  0
  -27.5843  -22.9767   19.1936 H   0  0  0  0  0  0
  -27.1394  -24.5886   20.9679 H   0  0  0  0  0  0
  -28.6724  -15.7064   20.5518 H   0  0  0  0  0  0
  1 25  1  0  0  0
  1 30  2  0  0  0
  1 82  1  0  0  0
  2  3  1  0  0  0
  2 25  1  0  0  0
  2 83  1  0  0  0
  2 84  1  0  0  0
  3  4  1  0  0  0
  3 85  1  0  0  0
  3 86  1  0  0  0
  4  5  1  0  0  0
  4 87  1  0  0  0
  4 88  1  0  0  0
  5  6  1  0  0  0
  5 26  1  0  0  0
  5 89  1  0  0  0
  6 25  1  0  0  0
  6 90  1  0  0  0
  6 91  1  0  0  0
  7  8  2  0  0  0
  7 26  1  0  0  0
  7 29  1  0  0  0
  8  9  1  0  0  0
  8 22  1  0  0  0
  9 10  1  0  0  0
  9 27  2  0  0  0
 10 11  2  0  0  0
 10 15  1  0  0  0
 11 12  1  0  0  0
 11 92  1  0  0  0
 12 13  2  0  0  0
 12 93  1  0  0  0
 13 14  1  0  0  0
 13 31  1  0  0  0
 14 15  2  0  0  0
 14 94  1  0  0  0
 15 95  1  0  0  0
 16 17  2  0  0  0
 16 21  1  0  0  0
 16 31  1  0  0  0
 17 18  1  0  0  0
 17 96  1  0  0  0
 18 19  2  0  0  0
 18 97  1  0  0  0
 19 20  1  0  0  0
 19 24  1  0  0  0
 20 21  2  0  0  0
 20 98  1  0  0  0
 21 23  1  0  0  0
 22 28  1  0  0  0
 22 32  2  0  0  0
 26 27  1  0  0  0
 28 99  1  0  0  0
 28100  1  0  0  0
 29101  1  0  0  0
 29102  1  0  0  0
 33 34  1  0  0  0
 33 66  1  0  0  0
 33 70  2  0  0  0
 34 36  1  0  0  0
 34 59  1  0  0  0
 34103  1  0  0  0
 35 44  2  0  0  0
 35 45  1  0  0  0
 35 68  1  0  0  0
 36 56  1  0  0  0
 36104  1  0  0  0
 37 39  1  0  0  0
 37 47  1  0  0  0
 37 66  1  0  0  0
 37105  1  0  0  0
 38 43  2  0  0  0
 38 46  1  0  0  0
 38 47  1  0  0  0
 39 64  1  0  0  0
 39 67  2  0  0  0
 40 52  1  0  0  0
 40 53  2  0  0  0
 40 58  1  0  0  0
 41106  1  0  0  0
 41107  1  0  0  0
 41108  1  0  0  0
 41 48  1  0  0  0
 42 43  1  0  0  0
 42 66  1  0  0  0
 42109  1  0  0  0
 42110  1  0  0  0
 43 44  1  0  0  0
 44111  1  0  0  0
 45 46  2  0  0  0
 45112  1  0  0  0
 46113  1  0  0  0
 47114  1  0  0  0
 47115  1  0  0  0
 48 56  1  0  0  0
 48 65  1  0  0  0
 48116  1  0  0  0
 49 50  1  0  0  0
 49 53  1  0  0  0
 49 64  1  0  0  0
 49117  1  0  0  0
 50 51  1  0  0  0
 50118  1  0  0  0
 50119  1  0  0  0
 51 52  1  0  0  0
 51120  1  0  0  0
 51121  1  0  0  0
 52122  1  0  0  0
 52123  1  0  0  0
 53 54  1  0  0  0
 54 55  2  0  0  0
 54124  1  0  0  0
 55 57  1  0  0  0
 55125  1  0  0  0
 56 69  2  0  0  0
 57 58  2  0  0  0
 57126  1  0  0  0
 58127  1  0  0  0
 59 60  1  0  0  0
 59 61  1  0  0  0
 59 62  1  0  0  0
 60128  1  0  0  0
 60129  1  0  0  0
 60130  1  0  0  0
 61131  1  0  0  0
 61132  1  0  0  0
 61133  1  0  0  0
 62134  1  0  0  0
 62135  1  0  0  0
 62136  1  0  0  0
 63 65  1  0  0  0
 63137  1  0  0  0
 63138  1  0  0  0
 63139  1  0  0  0
 64140  1  0  0  0
 65141  1  0  0  0
 68 80  1  0  0  0
 71 73  2  0  0  0
 71 75  1  0  0  0
 71142  1  0  0  0
 72 74  1  0  0  0
 72 75  2  0  0  0
 72143  1  0  0  0
 73 76  1  0  0  0
 73144  1  0  0  0
 74 76  2  0  0  0
 74145  1  0  0  0
 75 81  1  0  0  0
 76 82  1  0  0  0
 77 78  1  0  0  0
 77 80  1  0  0  0
 77146  1  0  0  0
 77147  1  0  0  0
 78 81  1  0  0  0
 78148  1  0  0  0
 78149  1  0  0  0
 79 80  1  0  0  0
 79 81  1  0  0  0
 79150  1  0  0  0
 79151  1  0  0  0
 80152  1  0  0  0
 82153  1  0  0  0
M  ISO  4   1 100  68 101  80 101  82 100
M  END
> <chiral flag>
0

> <version>
0

> <s_m_source_file>
/data/baiqing/PycharmProjects/Reinvent-master-3.2/result/LINK_invent/BTK/process_docking_weight1_custom_product_contain_oxygen_bond_distance_aromatic_linkinvent_7_9_3/rearranged_h_0012.sdf

> <i_m_source_file_index>
43

> <r_mmod_Potential_Energy-OPLS-2005>
525.946105957031

> <r_mmod_Stretch_Energy-OPLS-2005>
213.858779907227

> <r_mmod_Bend_Energy-OPLS-2005>
307.925323486328

> <r_mmod_Torsional_Energy-OPLS-2005>
299.310577392578

> <r_mmod_Improper_Torsional_Energy-OPLS-2005>
7.30253410339355

> <r_mmod_Van_der_Waal_Energy-OPLS-2005>
124.300971984863

> <r_mmod_Electrostatic_Energy-OPLS-2005>
-383.096618652344

> <r_mmod_Solvation_Energy-OPLS-2005>
-232.282287597656

> <b_mmod_Minimization_Converged-OPLS-2005>
0

> <r_mmod_RMS_Derivative-OPLS-2005>
0.949168264865875

$$$$
43
                    3D
 Structure written by MMmdl.
144152  0  0  1  0            999 V2000
  -30.0430  -16.4077   20.2780 C   0  0  0  0  0  0
  -30.3326  -13.6734   19.5334 C   0  0  0  0  0  0
  -29.5640  -12.8888   18.4017 C   0  0  0  0  0  0
  -28.2147  -12.3598   18.8884 C   0  0  0  0  0  0
  -27.5748  -13.4037   19.8169 C   0  0  2  0  0  0
  -28.5288  -14.0594   20.8762 C   0  0  0  0  0  0
  -25.2189  -13.8445   20.5935 C   0  0  0  0  0  0
  -24.1670  -13.0461   20.9340 C   0  0  0  0  0  0
  -24.6505  -11.7015   20.8756 C   0  0  0  0  0  0
  -23.9221  -10.4315   21.0357 C   0  0  0  0  0  0
  -24.3718   -9.4223   21.9157 C   0  0  0  0  0  0
  -23.6353   -8.2274   22.0748 C   0  0  0  0  0  0
  -22.4329   -8.0314   21.3544 C   0  0  0  0  0  0
  -21.9997   -9.0294   20.4636 C   0  0  0  0  0  0
  -22.7368  -10.2153   20.3026 C   0  0  0  0  0  0
  -21.6873   -6.0759   22.5278 C   0  0  0  0  0  0
  -21.4030   -6.5654   23.8214 C   0  0  0  0  0  0
  -21.3664   -5.6801   24.9171 C   0  0  0  0  0  0
  -21.6043   -4.3063   24.7219 C   0  0  0  0  0  0
  -21.8817   -3.8160   23.4337 C   0  0  0  0  0  0
  -21.9198   -4.6982   22.3397 C   0  0  0  0  0  0
  -22.7654  -13.5107   21.1939 C   0  0  0  0  0  0
  -22.1663   -4.2166   21.0974 F   0  0  0  0  0  0
  -21.5625   -3.4543   25.7729 F   0  0  0  0  0  0
  -29.5642  -14.9203   20.1691 N   0  0  0  0  0  0
  -26.2776  -12.9976   20.3440 N   0  0  0  0  0  0
  -25.9498  -11.6930   20.5692 N   0  0  0  0  0  0
  -22.0347  -12.8059   22.0489 N   0  0  0  0  0  0
  -25.3623  -15.2204   20.4372 N   0  0  0  0  0  0
  -31.2825  -16.1545   20.1838 O   0  0  0  0  0  0
  -21.6671   -6.8919   21.4247 O   0  0  0  0  0  0
  -22.3297  -14.5392   20.6771 O   0  0  0  0  0  0
  -24.7336  -31.7356   23.1069 C   0  0  0  0  0  0
  -25.9659  -32.4153   23.7814 C   0  0  1  0  0  0
  -27.2541  -26.1708   20.2569 C   0  0  0  0  0  0
  -25.6016  -33.8010   24.1641 N   0  0  0  0  0  0
  -23.5838  -30.3117   21.4732 C   0  0  2  0  0  0
  -25.0467  -28.5386   20.1308 C   0  0  0  0  0  0
  -22.7988  -29.3968   22.4569 C   0  0  0  0  0  0
  -18.0370  -28.1449   22.8427 C   0  0  0  0  0  0
  -24.1496  -36.7019   23.2668 C   0  0  0  0  0  0
  -26.1810  -30.2907   21.4527 C   0  0  0  0  0  0
  -26.2405  -28.7958   20.8121 C   0  0  0  0  0  0
  -27.2975  -27.6579   20.8305 C   0  0  0  0  0  0
  -26.0264  -26.2606   19.5034 C   0  0  0  0  0  0
  -25.0107  -27.3015   19.4508 C   0  0  0  0  0  0
  -23.8662  -29.5569   20.1321 C   0  0  0  0  0  0
  -25.4166  -36.2713   24.0243 C   0  0  1  0  0  0
  -20.6028  -28.3827   23.1048 C   0  0  2  0  0  0
  -20.6806  -26.9437   22.5416 C   0  0  0  0  0  0
  -19.5793  -26.6351   21.5223 C   0  0  0  0  0  0
  -18.1975  -26.7965   22.1609 C   0  0  0  0  0  0
  -19.1648  -28.8974   23.2702 C   0  0  0  0  0  0
  -18.9546  -30.1545   23.8770 C   0  0  0  0  0  0
  -17.6530  -30.6616   24.0539 C   0  0  0  0  0  0
  -25.9178  -34.9117   23.4822 C   0  0  0  0  0  0
  -16.5416  -29.9089   23.6364 C   0  0  0  0  0  0
  -16.7346  -28.6516   23.0375 C   0  0  0  0  0  0
  -26.4675  -31.6423   25.0657 C   0  0  0  0  0  0
  -25.3605  -31.3887   26.1174 C   0  0  0  0  0  0
  -27.0695  -30.2711   24.6939 C   0  0  0  0  0  0
  -27.6019  -32.4416   25.7501 C   0  0  0  0  0  0
  -27.5547  -37.1661   24.8466 C   0  0  0  0  0  0
  -21.4589  -29.2964   22.3308 N   0  0  0  0  0  0
  -26.4247  -37.3534   23.9409 N   0  0  0  0  0  0
  -24.8631  -30.8261   22.0624 N   0  0  0  0  0  0
  -23.4182  -28.7665   23.3163 O   0  0  0  0  0  0
  -28.1643  -24.7239   20.3572 O   0  0  0  0  0  0
  -26.5899  -34.8802   22.4496 O   0  0  0  0  0  0
  -23.6246  -32.0680   23.5685 O   0  0  0  0  0  0
  -29.7096  -21.4658   20.0686 C   0  0  0  0  0  0
  -30.0604  -19.5999   19.8141 C   0  0  0  0  0  0
  -28.1704  -19.1594   20.4871 C   0  0  0  0  0  0
  -28.3369  -22.6998   20.0899 C   0  0  1  0  0  0
  -27.8741  -21.0408   20.7851 C   0  0  1  0  0  0
  -29.4633  -18.0645   20.2573 N   0  0  0  0  0  0
  -26.5421  -21.1001   20.7670 F   0  0  0  0  0  0
  -31.2558  -14.0262   19.0730 H   0  0  0  0  0  0
  -30.6806  -12.9849   20.3060 H   0  0  0  0  0  0
  -30.1746  -12.0706   18.0176 H   0  0  0  0  0  0
  -29.3980  -13.5655   17.5622 H   0  0  0  0  0  0
  -28.3824  -11.4363   19.4441 H   0  0  0  0  0  0
  -27.5616  -12.1123   18.0504 H   0  0  0  0  0  0
  -27.3374  -14.2147   19.1262 H   0  0  0  0  0  0
  -28.9556  -13.3206   21.5567 H   0  0  0  0  0  0
  -27.9526  -14.7295   21.5150 H   0  0  0  0  0  0
  -25.2851   -9.5689   22.4754 H   0  0  0  0  0  0
  -24.0040   -7.4672   22.7487 H   0  0  0  0  0  0
  -21.0922   -8.8836   19.8946 H   0  0  0  0  0  0
  -22.3826  -10.9693   19.6138 H   0  0  0  0  0  0
  -21.2030   -7.6162   23.9723 H   0  0  0  0  0  0
  -21.1485   -6.0528   25.9075 H   0  0  0  0  0  0
  -22.0589   -2.7622   23.2833 H   0  0  0  0  0  0
  -22.4027  -11.9756   22.4892 H   0  0  0  0  0  0
  -21.0937  -13.1009   22.2676 H   0  0  0  0  0  0
  -24.5844  -15.8611   20.5513 H   0  0  0  0  0  0
  -26.2096  -15.6761   20.1240 H   0  0  0  0  0  0
  -26.7804  -32.4515   23.0570 H   0  0  0  0  0  0
  -24.9978  -33.8955   24.9674 H   0  0  0  0  0  0
  -22.9403  -31.1616   21.2367 H   0  0  0  0  0  0
  -23.3791  -35.9311   23.3226 H   0  0  0  0  0  0
  -24.3546  -36.8820   22.2103 H   0  0  0  0  0  0
  -23.7228  -37.6135   23.6859 H   0  0  0  0  0  0
  -26.4378  -30.9784   20.6460 H   0  0  0  0  0  0
  -27.0138  -30.3755   22.1370 H   0  0  0  0  0  0
  -28.1810  -27.8833   21.4108 H   0  0  0  0  0  0
  -25.7762  -25.3659   18.9508 H   0  0  0  0  0  0
  -24.1276  -27.0843   18.8656 H   0  0  0  0  0  0
  -24.0822  -30.2935   19.3575 H   0  0  0  0  0  0
  -22.9610  -29.0479   19.7970 H   0  0  0  0  0  0
  -25.1402  -36.1396   25.0730 H   0  0  0  0  0  0
  -21.0089  -28.3492   24.1184 H   0  0  0  0  0  0
  -20.5616  -26.2466   23.3725 H   0  0  0  0  0  0
  -21.6663  -26.7294   22.1270 H   0  0  0  0  0  0
  -19.6939  -25.6228   21.1334 H   0  0  0  0  0  0
  -19.6756  -27.3093   20.6701 H   0  0  0  0  0  0
  -17.4249  -26.6713   21.4006 H   0  0  0  0  0  0
  -18.0341  -26.0137   22.9030 H   0  0  0  0  0  0
  -19.8023  -30.7389   24.2086 H   0  0  0  0  0  0
  -17.5081  -31.6283   24.5168 H   0  0  0  0  0  0
  -15.5412  -30.2953   23.7762 H   0  0  0  0  0  0
  -15.8746  -28.0794   22.7162 H   0  0  0  0  0  0
  -24.5847  -30.7184   25.7454 H   0  0  0  0  0  0
  -24.8740  -32.3152   26.4232 H   0  0  0  0  0  0
  -25.7660  -30.9284   27.0193 H   0  0  0  0  0  0
  -26.3502  -29.6150   24.2032 H   0  0  0  0  0  0
  -27.4014  -29.7385   25.5862 H   0  0  0  0  0  0
  -27.9519  -30.3727   24.0621 H   0  0  0  0  0  0
  -27.2491  -33.3853   26.1673 H   0  0  0  0  0  0
  -28.4027  -32.6761   25.0475 H   0  0  0  0  0  0
  -28.0470  -31.8830   26.5745 H   0  0  0  0  0  0
  -28.2496  -38.0016   24.7518 H   0  0  0  0  0  0
  -28.1107  -36.2530   24.6287 H   0  0  0  0  0  0
  -27.2260  -37.1275   25.8866 H   0  0  0  0  0  0
  -21.0021  -29.8532   21.6219 H   0  0  0  0  0  0
  -26.0025  -38.2555   24.1437 H   0  0  0  0  0  0
  -30.3869  -21.9144   19.3416 H   0  0  0  0  0  0
  -30.2304  -21.6708   21.0076 H   0  0  0  0  0  0
  -31.1156  -19.5057   20.0734 H   0  0  0  0  0  0
  -30.0731  -19.5067   18.7265 H   0  0  0  0  0  0
  -27.5476  -18.9447   19.6169 H   0  0  0  0  0  0
  -27.6226  -18.6853   21.3019 H   0  0  0  0  0  0
  -27.9285  -22.6634   19.0799 H   0  0  0  0  0  0
  -28.0918  -21.1489   21.8515 H   0  0  0  0  0  0
  1 25  1  0  0  0
  1 30  2  0  0  0
  1 76  1  0  0  0
  2  3  1  0  0  0
  2 25  1  0  0  0
  2 78  1  0  0  0
  2 79  1  0  0  0
  3  4  1  0  0  0
  3 80  1  0  0  0
  3 81  1  0  0  0
  4  5  1  0  0  0
  4 82  1  0  0  0
  4 83  1  0  0  0
  5  6  1  0  0  0
  5 26  1  0  0  0
  5 84  1  0  0  0
  6 25  1  0  0  0
  6 85  1  0  0  0
  6 86  1  0  0  0
  7  8  2  0  0  0
  7 26  1  0  0  0
  7 29  1  0  0  0
  8  9  1  0  0  0
  8 22  1  0  0  0
  9 10  1  0  0  0
  9 27  2  0  0  0
 10 11  2  0  0  0
 10 15  1  0  0  0
 11 12  1  0  0  0
 11 87  1  0  0  0
 12 13  2  0  0  0
 12 88  1  0  0  0
 13 14  1  0  0  0
 13 31  1  0  0  0
 14 15  2  0  0  0
 14 89  1  0  0  0
 15 90  1  0  0  0
 16 17  2  0  0  0
 16 21  1  0  0  0
 16 31  1  0  0  0
 17 18  1  0  0  0
 17 91  1  0  0  0
 18 19  2  0  0  0
 18 92  1  0  0  0
 19 20  1  0  0  0
 19 24  1  0  0  0
 20 21  2  0  0  0
 20 93  1  0  0  0
 21 23  1  0  0  0
 22 28  1  0  0  0
 22 32  2  0  0  0
 26 27  1  0  0  0
 28 94  1  0  0  0
 28 95  1  0  0  0
 29 96  1  0  0  0
 29 97  1  0  0  0
 33 34  1  0  0  0
 33 66  1  0  0  0
 33 70  2  0  0  0
 34 36  1  0  0  0
 34 59  1  0  0  0
 34 98  1  0  0  0
 35 44  2  0  0  0
 35 45  1  0  0  0
 35 68  1  0  0  0
 36 56  1  0  0  0
 36 99  1  0  0  0
 37 39  1  0  0  0
 37 47  1  0  0  0
 37 66  1  0  0  0
 37100  1  0  0  0
 38 43  2  0  0  0
 38 46  1  0  0  0
 38 47  1  0  0  0
 39 64  1  0  0  0
 39 67  2  0  0  0
 40 52  1  0  0  0
 40 53  2  0  0  0
 40 58  1  0  0  0
 41101  1  0  0  0
 41102  1  0  0  0
 41103  1  0  0  0
 41 48  1  0  0  0
 42 43  1  0  0  0
 42 66  1  0  0  0
 42104  1  0  0  0
 42105  1  0  0  0
 43 44  1  0  0  0
 44106  1  0  0  0
 45 46  2  0  0  0
 45107  1  0  0  0
 46108  1  0  0  0
 47109  1  0  0  0
 47110  1  0  0  0
 48 56  1  0  0  0
 48 65  1  0  0  0
 48111  1  0  0  0
 49 50  1  0  0  0
 49 53  1  0  0  0
 49 64  1  0  0  0
 49112  1  0  0  0
 50 51  1  0  0  0
 50113  1  0  0  0
 50114  1  0  0  0
 51 52  1  0  0  0
 51115  1  0  0  0
 51116  1  0  0  0
 52117  1  0  0  0
 52118  1  0  0  0
 53 54  1  0  0  0
 54 55  2  0  0  0
 54119  1  0  0  0
 55 57  1  0  0  0
 55120  1  0  0  0
 56 69  2  0  0  0
 57 58  2  0  0  0
 57121  1  0  0  0
 58122  1  0  0  0
 59 60  1  0  0  0
 59 61  1  0  0  0
 59 62  1  0  0  0
 60123  1  0  0  0
 60124  1  0  0  0
 60125  1  0  0  0
 61126  1  0  0  0
 61127  1  0  0  0
 61128  1  0  0  0
 62129  1  0  0  0
 62130  1  0  0  0
 62131  1  0  0  0
 63 65  1  0  0  0
 63132  1  0  0  0
 63133  1  0  0  0
 63134  1  0  0  0
 64135  1  0  0  0
 65136  1  0  0  0
 68 74  1  0  0  0
 71 72  1  0  0  0
 71 74  1  0  0  0
 71137  1  0  0  0
 71138  1  0  0  0
 72 76  1  0  0  0
 72139  1  0  0  0
 72140  1  0  0  0
 73 75  1  0  0  0
 73 76  1  0  0  0
 73141  1  0  0  0
 73142  1  0  0  0
 74 75  1  0  0  0
 74143  1  0  0  0
 75 77  1  0  0  0
 75144  1  0  0  0
M  ISO  4   1 100  68 101  74 101  76 100
M  END
> <chiral flag>
0

> <version>
0

> <s_m_source_file>
/data/baiqing/PycharmProjects/Reinvent-master-3.2/result/LINK_invent/BTK/process_docking_weight1_custom_product_contain_oxygen_bond_distance_aromatic_linkinvent_7_9_3/rearranged_h_0012.sdf

> <i_m_source_file_index>
44

> <r_mmod_Potential_Energy-OPLS-2005>
6031.2529296875

> <r_mmod_Stretch_Energy-OPLS-2005>
2259.95971679688

> <r_mmod_Bend_Energy-OPLS-2005>
1427.4970703125

> <r_mmod_Torsional_Energy-OPLS-2005>
308.337677001953

> <r_mmod_Improper_Torsional_Energy-OPLS-2005>
6.99210834503174

> <r_mmod_Van_der_Waal_Energy-OPLS-2005>
132.819900512695

> <r_mmod_Electrostatic_Energy-OPLS-2005>
-282.801483154297

> <r_mmod_Solvation_Energy-OPLS-2005>
-221.575790405273

> <b_mmod_Minimization_Converged-OPLS-2005>
1

> <r_mmod_RMS_Derivative-OPLS-2005>
0.0458787195384502

$$$$
44
                    3D
 Structure written by MMmdl.
151159  0  0  1  0            999 V2000
  -30.5221  -14.9123   20.4514 C   0  0  0  0  0  0
  -30.4527  -12.5641   19.4938 C   0  0  0  0  0  0
  -29.5253  -12.5394   18.2544 C   0  0  0  0  0  0
  -28.0550  -12.3287   18.6662 C   0  0  0  0  0  0
  -27.6397  -13.2402   19.8499 C   0  0  2  0  0  0
  -28.6833  -13.2150   20.9885 C   0  0  0  0  0  0
  -25.2467  -13.8172   20.5609 C   0  0  0  0  0  0
  -24.1798  -13.0417   20.9206 C   0  0  0  0  0  0
  -24.6413  -11.6906   20.8769 C   0  0  0  0  0  0
  -23.9088  -10.4283   21.0423 C   0  0  0  0  0  0
  -24.3631   -9.4198   21.9201 C   0  0  0  0  0  0
  -23.6295   -8.2237   22.0760 C   0  0  0  0  0  0
  -22.4279   -8.0278   21.3542 C   0  0  0  0  0  0
  -21.9923   -9.0262   20.4650 C   0  0  0  0  0  0
  -22.7259  -10.2138   20.3068 C   0  0  0  0  0  0
  -21.6852   -6.0738   22.5277 C   0  0  0  0  0  0
  -21.4017   -6.5645   23.8210 C   0  0  0  0  0  0
  -21.3655   -5.6799   24.9174 C   0  0  0  0  0  0
  -21.6040   -4.3060   24.7227 C   0  0  0  0  0  0
  -21.8818   -3.8148   23.4350 C   0  0  0  0  0  0
  -21.9193   -4.6965   22.3404 C   0  0  0  0  0  0
  -22.7819  -13.5206   21.1868 C   0  0  0  0  0  0
  -22.1662   -4.2148   21.0984 F   0  0  0  0  0  0
  -21.5620   -3.4547   25.7741 F   0  0  0  0  0  0
  -29.9705  -13.6338   20.4104 N   0  0  0  0  0  0
  -26.2930  -12.9408   20.3260 N   0  0  0  0  0  0
  -25.9355  -11.6550   20.5785 N   0  0  0  0  0  0
  -22.0470  -12.8199   22.0427 N   0  0  0  0  0  0
  -25.4065  -15.1873   20.3828 N   0  0  0  0  0  0
  -31.7017  -15.0463   20.1083 O   0  0  0  0  0  0
  -21.6636   -6.8881   21.4237 O   0  0  0  0  0  0
  -22.3508  -14.5510   20.6712 O   0  0  0  0  0  0
  -24.6424  -31.8459   23.1896 C   0  0  0  0  0  0
  -25.9198  -32.4703   23.8287 C   0  0  1  0  0  0
  -27.2206  -27.1465   20.1569 C   0  0  0  0  0  0
  -25.5951  -33.8508   24.2206 N   0  0  0  0  0  0
  -23.4461  -30.4653   21.5347 C   0  0  2  0  0  0
  -24.8970  -28.8938   20.1134 C   0  0  0  0  0  0
  -22.7570  -29.4554   22.4860 C   0  0  0  0  0  0
  -18.0310  -28.1388   22.8485 C   0  0  0  0  0  0
  -24.1488  -36.7259   23.2640 C   0  0  0  0  0  0
  -26.0020  -30.7221   21.3885 C   0  0  0  0  0  0
  -26.0735  -29.3338   20.7329 C   0  0  0  0  0  0
  -27.2372  -28.4773   20.7375 C   0  0  0  0  0  0
  -26.0211  -26.8129   19.4880 C   0  0  0  0  0  0
  -24.8832  -27.6461   19.4745 C   0  0  0  0  0  0
  -23.6735  -29.7956   20.1543 C   0  0  0  0  0  0
  -25.4117  -36.3038   24.0322 C   0  0  1  0  0  0
  -20.5924  -28.3718   23.1239 C   0  0  2  0  0  0
  -20.6792  -26.9420   22.5404 C   0  0  0  0  0  0
  -19.5762  -26.6378   21.5216 C   0  0  0  0  0  0
  -18.1947  -26.7931   22.1635 C   0  0  0  0  0  0
  -19.1568  -28.8872   23.2857 C   0  0  0  0  0  0
  -18.9481  -30.1468   23.8886 C   0  0  0  0  0  0
  -17.6473  -30.6582   24.0562 C   0  0  0  0  0  0
  -25.9068  -34.9410   23.5072 C   0  0  0  0  0  0
  -16.5365  -29.9079   23.6332 C   0  0  0  0  0  0
  -16.7293  -28.6495   23.0359 C   0  0  0  0  0  0
  -26.4525  -31.6559   25.0719 C   0  0  0  0  0  0
  -25.3713  -31.3756   26.1420 C   0  0  0  0  0  0
  -27.0378  -30.2951   24.6289 C   0  0  0  0  0  0
  -27.6050  -32.4326   25.7509 C   0  0  0  0  0  0
  -27.5575  -37.1790   24.8466 C   0  0  0  0  0  0
  -21.4262  -29.3046   22.3610 N   0  0  0  0  0  0
  -26.4287  -37.3745   23.9409 N   0  0  0  0  0  0
  -24.7164  -31.0321   22.0927 N   0  0  0  0  0  0
  -23.4218  -28.8108   23.3011 O   0  0  0  0  0  0
  -28.2810  -26.1701   20.2007 O   0  0  0  0  0  0
  -26.5655  -34.8907   22.4653 O   0  0  0  0  0  0
  -23.5543  -32.1332   23.7118 O   0  0  0  0  0  0
  -28.2809  -19.5875   21.4491 C   0  0  0  0  0  0
  -30.0324  -19.9287   19.9201 C   0  0  0  0  0  0
  -28.5599  -18.1705   21.4944 C   0  0  0  0  0  0
  -29.5835  -17.5220   20.7225 C   0  0  0  0  0  0
  -28.9722  -20.5610   20.6671 C   0  0  0  0  0  0
  -30.3219  -18.4874   19.9385 C   0  0  0  0  0  0
  -27.7014  -17.3297   22.4261 C   0  0  0  0  0  0
  -27.9817  -24.6566   20.4169 C   0  0  0  0  0  0
  -28.9607  -23.2970   20.2209 C   0  0  0  0  0  0
  -29.6653  -15.9901   20.7675 N   0  0  0  0  0  0
  -28.4793  -21.9399   20.7449 O   0  0  0  0  0  0
  -31.3242  -18.0326   19.1492 F   0  0  0  0  0  0
  -31.4849  -12.7335   19.1833 H   0  0  0  0  0  0
  -30.4496  -11.5971   19.9998 H   0  0  0  0  0  0
  -29.8351  -11.7542   17.5634 H   0  0  0  0  0  0
  -29.6191  -13.4804   17.7107 H   0  0  0  0  0  0
  -27.9378  -11.2815   18.9481 H   0  0  0  0  0  0
  -27.3946  -12.4901   17.8133 H   0  0  0  0  0  0
  -27.6182  -14.2545   19.4505 H   0  0  0  0  0  0
  -28.7587  -12.2184   21.4258 H   0  0  0  0  0  0
  -28.3849  -13.8791   21.8010 H   0  0  0  0  0  0
  -25.2780   -9.5663   22.4776 H   0  0  0  0  0  0
  -23.9990   -7.4633   22.7489 H   0  0  0  0  0  0
  -21.0846   -8.8803   19.8968 H   0  0  0  0  0  0
  -22.3728  -10.9686   19.6182 H   0  0  0  0  0  0
  -21.2017   -7.6155   23.9714 H   0  0  0  0  0  0
  -21.1470   -6.0531   25.9073 H   0  0  0  0  0  0
  -22.0601   -2.7610   23.2857 H   0  0  0  0  0  0
  -22.4096  -11.9863   22.4810 H   0  0  0  0  0  0
  -21.1097  -13.1236   22.2650 H   0  0  0  0  0  0
  -24.6174  -15.8214   20.4456 H   0  0  0  0  0  0
  -26.2171  -15.6107   19.9502 H   0  0  0  0  0  0
  -26.7271  -32.5320   23.1021 H   0  0  0  0  0  0
  -25.0061  -33.9625   25.0330 H   0  0  0  0  0  0
  -22.7471  -31.2903   21.3806 H   0  0  0  0  0  0
  -23.3745  -35.9598   23.3309 H   0  0  0  0  0  0
  -24.3558  -36.8875   22.2049 H   0  0  0  0  0  0
  -23.7253  -37.6467   23.6663 H   0  0  0  0  0  0
  -26.1563  -31.4754   20.6150 H   0  0  0  0  0  0
  -26.8735  -30.7725   22.0297 H   0  0  0  0  0  0
  -28.1337  -28.8120   21.2402 H   0  0  0  0  0  0
  -25.9321  -25.8745   18.9635 H   0  0  0  0  0  0
  -23.9894  -27.3080   18.9676 H   0  0  0  0  0  0
  -23.8118  -30.5714   19.4004 H   0  0  0  0  0  0
  -22.7891  -29.2381   19.8410 H   0  0  0  0  0  0
  -25.1299  -36.1869   25.0814 H   0  0  0  0  0  0
  -21.0020  -28.3306   24.1360 H   0  0  0  0  0  0
  -20.5680  -26.2334   23.3623 H   0  0  0  0  0  0
  -21.6656  -26.7416   22.1202 H   0  0  0  0  0  0
  -19.6918  -25.6289   21.1246 H   0  0  0  0  0  0
  -19.6688  -27.3191   20.6748 H   0  0  0  0  0  0
  -17.4211  -26.6679   21.4041 H   0  0  0  0  0  0
  -18.0343  -26.0069   22.9028 H   0  0  0  0  0  0
  -19.7951  -30.7287   24.2254 H   0  0  0  0  0  0
  -17.5021  -31.6258   24.5168 H   0  0  0  0  0  0
  -15.5363  -30.2975   23.7647 H   0  0  0  0  0  0
  -15.8701  -28.0798   22.7087 H   0  0  0  0  0  0
  -24.5886  -30.7107   25.7752 H   0  0  0  0  0  0
  -24.8915  -32.2943   26.4804 H   0  0  0  0  0  0
  -25.8000  -30.8957   27.0227 H   0  0  0  0  0  0
  -26.2989  -29.6685   24.1280 H   0  0  0  0  0  0
  -27.3973  -29.7236   25.4857 H   0  0  0  0  0  0
  -27.8910  -30.4185   23.9614 H   0  0  0  0  0  0
  -27.2626  -33.3630   26.2058 H   0  0  0  0  0  0
  -28.3880  -32.6886   25.0356 H   0  0  0  0  0  0
  -28.0702  -31.8475   26.5454 H   0  0  0  0  0  0
  -28.2595  -38.0084   24.7490 H   0  0  0  0  0  0
  -28.1071  -36.2611   24.6316 H   0  0  0  0  0  0
  -27.2292  -37.1461   25.8871 H   0  0  0  0  0  0
  -20.9471  -29.8756   21.6786 H   0  0  0  0  0  0
  -26.0155  -38.2819   24.1396 H   0  0  0  0  0  0
  -27.4667  -19.9566   22.0577 H   0  0  0  0  0  0
  -30.6419  -20.5512   19.2826 H   0  0  0  0  0  0
  -27.0906  -17.9495   23.0832 H   0  0  0  0  0  0
  -28.3193  -16.6964   23.0635 H   0  0  0  0  0  0
  -27.0274  -16.6954   21.8553 H   0  0  0  0  0  0
  -27.6630  -24.6184   21.4588 H   0  0  0  0  0  0
  -27.0827  -24.4026   19.8620 H   0  0  0  0  0  0
  -29.9165  -23.4970   20.7057 H   0  0  0  0  0  0
  -29.1866  -23.1825   19.1608 H   0  0  0  0  0  0
  -28.8042  -15.6017   21.1155 H   0  0  0  0  0  0
  1 25  1  0  0  0
  1 30  2  0  0  0
  1 80  1  0  0  0
  2  3  1  0  0  0
  2 25  1  0  0  0
  2 83  1  0  0  0
  2 84  1  0  0  0
  3  4  1  0  0  0
  3 85  1  0  0  0
  3 86  1  0  0  0
  4  5  1  0  0  0
  4 87  1  0  0  0
  4 88  1  0  0  0
  5  6  1  0  0  0
  5 26  1  0  0  0
  5 89  1  0  0  0
  6 25  1  0  0  0
  6 90  1  0  0  0
  6 91  1  0  0  0
  7  8  2  0  0  0
  7 26  1  0  0  0
  7 29  1  0  0  0
  8  9  1  0  0  0
  8 22  1  0  0  0
  9 10  1  0  0  0
  9 27  2  0  0  0
 10 11  2  0  0  0
 10 15  1  0  0  0
 11 12  1  0  0  0
 11 92  1  0  0  0
 12 13  2  0  0  0
 12 93  1  0  0  0
 13 14  1  0  0  0
 13 31  1  0  0  0
 14 15  2  0  0  0
 14 94  1  0  0  0
 15 95  1  0  0  0
 16 17  2  0  0  0
 16 21  1  0  0  0
 16 31  1  0  0  0
 17 18  1  0  0  0
 17 96  1  0  0  0
 18 19  2  0  0  0
 18 97  1  0  0  0
 19 20  1  0  0  0
 19 24  1  0  0  0
 20 21  2  0  0  0
 20 98  1  0  0  0
 21 23  1  0  0  0
 22 28  1  0  0  0
 22 32  2  0  0  0
 26 27  1  0  0  0
 28 99  1  0  0  0
 28100  1  0  0  0
 29101  1  0  0  0
 29102  1  0  0  0
 33 34  1  0  0  0
 33 66  1  0  0  0
 33 70  2  0  0  0
 34 36  1  0  0  0
 34 59  1  0  0  0
 34103  1  0  0  0
 35 44  2  0  0  0
 35 45  1  0  0  0
 35 68  1  0  0  0
 36 56  1  0  0  0
 36104  1  0  0  0
 37 39  1  0  0  0
 37 47  1  0  0  0
 37 66  1  0  0  0
 37105  1  0  0  0
 38 43  2  0  0  0
 38 46  1  0  0  0
 38 47  1  0  0  0
 39 64  1  0  0  0
 39 67  2  0  0  0
 40 52  1  0  0  0
 40 53  2  0  0  0
 40 58  1  0  0  0
 41106  1  0  0  0
 41107  1  0  0  0
 41108  1  0  0  0
 41 48  1  0  0  0
 42 43  1  0  0  0
 42 66  1  0  0  0
 42109  1  0  0  0
 42110  1  0  0  0
 43 44  1  0  0  0
 44111  1  0  0  0
 45 46  2  0  0  0
 45112  1  0  0  0
 46113  1  0  0  0
 47114  1  0  0  0
 47115  1  0  0  0
 48 56  1  0  0  0
 48 65  1  0  0  0
 48116  1  0  0  0
 49 50  1  0  0  0
 49 53  1  0  0  0
 49 64  1  0  0  0
 49117  1  0  0  0
 50 51  1  0  0  0
 50118  1  0  0  0
 50119  1  0  0  0
 51 52  1  0  0  0
 51120  1  0  0  0
 51121  1  0  0  0
 52122  1  0  0  0
 52123  1  0  0  0
 53 54  1  0  0  0
 54 55  2  0  0  0
 54124  1  0  0  0
 55 57  1  0  0  0
 55125  1  0  0  0
 56 69  2  0  0  0
 57 58  2  0  0  0
 57126  1  0  0  0
 58127  1  0  0  0
 59 60  1  0  0  0
 59 61  1  0  0  0
 59 62  1  0  0  0
 60128  1  0  0  0
 60129  1  0  0  0
 60130  1  0  0  0
 61131  1  0  0  0
 61132  1  0  0  0
 61133  1  0  0  0
 62134  1  0  0  0
 62135  1  0  0  0
 62136  1  0  0  0
 63 65  1  0  0  0
 63137  1  0  0  0
 63138  1  0  0  0
 63139  1  0  0  0
 64140  1  0  0  0
 65141  1  0  0  0
 68 78  1  0  0  0
 71 73  2  0  0  0
 71 75  1  0  0  0
 71142  1  0  0  0
 72 75  2  0  0  0
 72 76  1  0  0  0
 72143  1  0  0  0
 73 74  1  0  0  0
 73 77  1  0  0  0
 74 76  2  0  0  0
 74 80  1  0  0  0
 75 81  1  0  0  0
 76 82  1  0  0  0
 77144  1  0  0  0
 77145  1  0  0  0
 77146  1  0  0  0
 78 79  1  0  0  0
 78147  1  0  0  0
 78148  1  0  0  0
 79 81  1  0  0  0
 79149  1  0  0  0
 79150  1  0  0  0
 80151  1  0  0  0
M  ISO  4   1 100  68 101  78 101  80 100
M  END
> <chiral flag>
0

> <version>
0

> <s_m_source_file>
/data/baiqing/PycharmProjects/Reinvent-master-3.2/result/LINK_invent/BTK/process_docking_weight1_custom_product_contain_oxygen_bond_distance_aromatic_linkinvent_7_9_3/rearranged_h_0012.sdf

> <i_m_source_file_index>
45

> <r_mmod_Potential_Energy-OPLS-2005>
444.024200439453

> <r_mmod_Stretch_Energy-OPLS-2005>
221.309555053711

> <r_mmod_Bend_Energy-OPLS-2005>
302.979949951172

> <r_mmod_Torsional_Energy-OPLS-2005>
221.665588378906

> <r_mmod_Improper_Torsional_Energy-OPLS-2005>
3.69729495048523

> <r_mmod_Van_der_Waal_Energy-OPLS-2005>
131.617477416992

> <r_mmod_Electrostatic_Energy-OPLS-2005>
-395.75390625

> <r_mmod_Solvation_Energy-OPLS-2005>
-214.704223632812

> <b_mmod_Minimization_Converged-OPLS-2005>
0

> <r_mmod_RMS_Derivative-OPLS-2005>
1.16125392913818

$$$$
45
                    3D
 Structure written by MMmdl.
153162  0  0  1  0            999 V2000
  -30.5011  -14.9501   20.4203 C   0  0  0  0  0  0
  -30.4530  -12.5884   19.4893 C   0  0  0  0  0  0
  -29.5251  -12.5277   18.2517 C   0  0  0  0  0  0
  -28.0575  -12.3110   18.6714 C   0  0  0  0  0  0
  -27.6331  -13.2385   19.8397 C   0  0  2  0  0  0
  -28.6776  -13.2460   20.9761 C   0  0  0  0  0  0
  -25.2477  -13.8187   20.5677 C   0  0  0  0  0  0
  -24.1791  -13.0427   20.9230 C   0  0  0  0  0  0
  -24.6398  -11.6911   20.8769 C   0  0  0  0  0  0
  -23.9076  -10.4287   21.0422 C   0  0  0  0  0  0
  -24.3628   -9.4201   21.9197 C   0  0  0  0  0  0
  -23.6300   -8.2239   22.0761 C   0  0  0  0  0  0
  -22.4281   -8.0283   21.3548 C   0  0  0  0  0  0
  -21.9920   -9.0255   20.4648 C   0  0  0  0  0  0
  -22.7253  -10.2132   20.3065 C   0  0  0  0  0  0
  -21.6850   -6.0743   22.5281 C   0  0  0  0  0  0
  -21.4010   -6.5646   23.8215 C   0  0  0  0  0  0
  -21.3659   -5.6795   24.9173 C   0  0  0  0  0  0
  -21.6042   -4.3058   24.7219 C   0  0  0  0  0  0
  -21.8820   -3.8151   23.4342 C   0  0  0  0  0  0
  -21.9191   -4.6971   22.3401 C   0  0  0  0  0  0
  -22.7810  -13.5208   21.1884 C   0  0  0  0  0  0
  -22.1661   -4.2158   21.0980 F   0  0  0  0  0  0
  -21.5629   -3.4540   25.7732 F   0  0  0  0  0  0
  -29.9521  -13.6702   20.3811 N   0  0  0  0  0  0
  -26.2901  -12.9402   20.3235 N   0  0  0  0  0  0
  -25.9327  -11.6542   20.5746 N   0  0  0  0  0  0
  -22.0455  -12.8198   22.0431 N   0  0  0  0  0  0
  -25.4114  -15.1914   20.4036 N   0  0  0  0  0  0
  -31.7072  -15.0665   20.1732 O   0  0  0  0  0  0
  -21.6642   -6.8885   21.4244 O   0  0  0  0  0  0
  -22.3504  -14.5521   20.6734 O   0  0  0  0  0  0
  -24.6432  -31.8435   23.1855 C   0  0  0  0  0  0
  -25.9197  -32.4696   23.8254 C   0  0  1  0  0  0
  -27.2229  -27.1404   20.1613 C   0  0  0  0  0  0
  -25.5949  -33.8501   24.2183 N   0  0  0  0  0  0
  -23.4469  -30.4603   21.5316 C   0  0  2  0  0  0
  -24.8964  -28.8774   20.1176 C   0  0  0  0  0  0
  -22.7559  -29.4548   22.4862 C   0  0  0  0  0  0
  -18.0299  -28.1400   22.8484 C   0  0  0  0  0  0
  -24.1489  -36.7251   23.2640 C   0  0  0  0  0  0
  -26.0008  -30.7199   21.3795 C   0  0  0  0  0  0
  -26.0737  -29.3282   20.7284 C   0  0  0  0  0  0
  -27.2411  -28.4780   20.7251 C   0  0  0  0  0  0
  -26.0180  -26.7780   19.5255 C   0  0  0  0  0  0
  -24.8797  -27.6154   19.5013 C   0  0  0  0  0  0
  -23.6729  -29.7806   20.1544 C   0  0  0  0  0  0
  -25.4120  -36.3033   24.0317 C   0  0  1  0  0  0
  -20.5916  -28.3722   23.1243 C   0  0  2  0  0  0
  -20.6787  -26.9423   22.5409 C   0  0  0  0  0  0
  -19.5760  -26.6387   21.5218 C   0  0  0  0  0  0
  -18.1940  -26.7944   22.1626 C   0  0  0  0  0  0
  -19.1557  -28.8878   23.2861 C   0  0  0  0  0  0
  -18.9477  -30.1476   23.8884 C   0  0  0  0  0  0
  -17.6474  -30.6600   24.0565 C   0  0  0  0  0  0
  -25.9068  -34.9408   23.5059 C   0  0  0  0  0  0
  -16.5361  -29.9097   23.6339 C   0  0  0  0  0  0
  -16.7283  -28.6512   23.0362 C   0  0  0  0  0  0
  -26.4508  -31.6559   25.0697 C   0  0  0  0  0  0
  -25.3698  -31.3813   26.1415 C   0  0  0  0  0  0
  -27.0303  -30.2927   24.6268 C   0  0  0  0  0  0
  -27.6084  -32.4275   25.7463 C   0  0  0  0  0  0
  -27.5576  -37.1780   24.8465 C   0  0  0  0  0  0
  -21.4251  -29.3050   22.3614 N   0  0  0  0  0  0
  -26.4283  -37.3748   23.9414 N   0  0  0  0  0  0
  -24.7170  -31.0295   22.0881 N   0  0  0  0  0  0
  -23.4200  -28.8098   23.3017 O   0  0  0  0  0  0
  -28.3026  -26.1907   20.1578 O   0  0  0  0  0  0
  -26.5654  -34.8910   22.4638 O   0  0  0  0  0  0
  -23.5549  -32.1295   23.7082 O   0  0  0  0  0  0
  -30.1427  -19.9397   21.3229 C   0  0  0  0  0  0
  -28.5452  -19.7942   19.6124 C   0  0  0  0  0  0
  -30.3499  -18.4954   21.2873 C   0  0  0  0  0  0
  -28.7245  -18.3453   19.5989 C   0  0  0  0  0  0
  -29.2234  -20.6946   20.5007 C   0  0  0  0  0  0
  -29.6367  -17.5955   20.4284 C   0  0  0  0  0  0
  -29.1146  -24.3827   21.7327 C   0  0  0  0  0  0
  -29.1946  -22.8331   21.9267 C   0  0  0  0  0  0
  -28.4721  -23.3054   19.7362 C   0  0  0  0  0  0
  -28.1508  -24.6972   20.5732 C   0  0  2  0  0  0
  -29.0037  -22.1726   20.6318 N   0  0  0  0  0  0
  -29.6152  -16.0593   20.5055 N   0  0  0  0  0  0
  -31.4814  -12.7721   19.1743 H   0  0  0  0  0  0
  -30.4663  -11.6321   20.0142 H   0  0  0  0  0  0
  -29.8446  -11.7305   17.5790 H   0  0  0  0  0  0
  -29.6087  -13.4565   17.6854 H   0  0  0  0  0  0
  -27.9547  -11.2689   18.9764 H   0  0  0  0  0  0
  -27.3923  -12.4445   17.8173 H   0  0  0  0  0  0
  -27.6001  -14.2428   19.4174 H   0  0  0  0  0  0
  -28.7672  -12.2606   21.4366 H   0  0  0  0  0  0
  -28.3766  -13.9301   21.7718 H   0  0  0  0  0  0
  -25.2772   -9.5677   22.4773 H   0  0  0  0  0  0
  -24.0006   -7.4627   22.7478 H   0  0  0  0  0  0
  -21.0852   -8.8776   19.8948 H   0  0  0  0  0  0
  -22.3718  -10.9675   19.6173 H   0  0  0  0  0  0
  -21.2002   -7.6155   23.9720 H   0  0  0  0  0  0
  -21.1479   -6.0525   25.9076 H   0  0  0  0  0  0
  -22.0600   -2.7613   23.2835 H   0  0  0  0  0  0
  -22.4068  -11.9851   22.4808 H   0  0  0  0  0  0
  -21.1071  -13.1225   22.2634 H   0  0  0  0  0  0
  -24.6289  -15.8305   20.4959 H   0  0  0  0  0  0
  -26.2282  -15.6289   19.9990 H   0  0  0  0  0  0
  -26.7269  -32.5304   23.0989 H   0  0  0  0  0  0
  -25.0087  -33.9612   25.0328 H   0  0  0  0  0  0
  -22.7506  -31.2867   21.3731 H   0  0  0  0  0  0
  -23.3773  -35.9559   23.3256 H   0  0  0  0  0  0
  -24.3585  -36.8916   22.2062 H   0  0  0  0  0  0
  -23.7205  -37.6422   23.6692 H   0  0  0  0  0  0
  -26.1490  -31.4697   20.6011 H   0  0  0  0  0  0
  -26.8747  -30.7783   22.0165 H   0  0  0  0  0  0
  -28.1466  -28.8255   21.2021 H   0  0  0  0  0  0
  -25.9483  -25.8090   19.0513 H   0  0  0  0  0  0
  -23.9782  -27.2644   19.0178 H   0  0  0  0  0  0
  -23.8097  -30.5496   19.3934 H   0  0  0  0  0  0
  -22.7882  -29.2198   19.8469 H   0  0  0  0  0  0
  -25.1305  -36.1857   25.0808 H   0  0  0  0  0  0
  -21.0011  -28.3307   24.1363 H   0  0  0  0  0  0
  -20.5673  -26.2333   23.3628 H   0  0  0  0  0  0
  -21.6650  -26.7427   22.1208 H   0  0  0  0  0  0
  -19.6922  -25.6294   21.1251 H   0  0  0  0  0  0
  -19.6703  -27.3199   20.6751 H   0  0  0  0  0  0
  -17.4208  -26.6684   21.4030 H   0  0  0  0  0  0
  -18.0342  -26.0094   22.9031 H   0  0  0  0  0  0
  -19.7951  -30.7300   24.2239 H   0  0  0  0  0  0
  -17.5028  -31.6280   24.5170 H   0  0  0  0  0  0
  -15.5363  -30.3000   23.7677 H   0  0  0  0  0  0
  -15.8678  -28.0830   22.7090 H   0  0  0  0  0  0
  -24.5830  -30.7208   25.7754 H   0  0  0  0  0  0
  -24.8957  -32.3036   26.4786 H   0  0  0  0  0  0
  -25.7969  -30.9002   27.0224 H   0  0  0  0  0  0
  -26.2874  -29.6698   24.1275 H   0  0  0  0  0  0
  -27.3884  -29.7193   25.4828 H   0  0  0  0  0  0
  -27.8816  -30.4116   23.9566 H   0  0  0  0  0  0
  -27.2774  -33.3700   26.1836 H   0  0  0  0  0  0
  -28.4015  -32.6591   25.0342 H   0  0  0  0  0  0
  -28.0583  -31.8481   26.5534 H   0  0  0  0  0  0
  -28.2586  -38.0084   24.7515 H   0  0  0  0  0  0
  -28.1075  -36.2612   24.6280 H   0  0  0  0  0  0
  -27.2300  -37.1416   25.8869 H   0  0  0  0  0  0
  -20.9453  -29.8756   21.6792 H   0  0  0  0  0  0
  -26.0148  -38.2812   24.1433 H   0  0  0  0  0  0
  -30.7354  -20.4797   22.0459 H   0  0  0  0  0  0
  -27.8115  -20.2111   18.9372 H   0  0  0  0  0  0
  -31.0500  -18.0717   21.9936 H   0  0  0  0  0  0
  -28.0961  -17.7890   18.9180 H   0  0  0  0  0  0
  -30.1064  -24.7516   21.4683 H   0  0  0  0  0  0
  -28.8263  -24.8931   22.6526 H   0  0  0  0  0  0
  -28.4038  -22.5049   22.6032 H   0  0  0  0  0  0
  -30.1454  -22.5639   22.3871 H   0  0  0  0  0  0
  -29.2327  -23.5138   18.9827 H   0  0  0  0  0  0
  -27.5843  -22.9767   19.1936 H   0  0  0  0  0  0
  -27.1394  -24.5886   20.9679 H   0  0  0  0  0  0
  -28.6724  -15.7064   20.5518 H   0  0  0  0  0  0
  1 25  1  0  0  0
  1 30  2  0  0  0
  1 82  1  0  0  0
  2  3  1  0  0  0
  2 25  1  0  0  0
  2 83  1  0  0  0
  2 84  1  0  0  0
  3  4  1  0  0  0
  3 85  1  0  0  0
  3 86  1  0  0  0
  4  5  1  0  0  0
  4 87  1  0  0  0
  4 88  1  0  0  0
  5  6  1  0  0  0
  5 26  1  0  0  0
  5 89  1  0  0  0
  6 25  1  0  0  0
  6 90  1  0  0  0
  6 91  1  0  0  0
  7  8  2  0  0  0
  7 26  1  0  0  0
  7 29  1  0  0  0
  8  9  1  0  0  0
  8 22  1  0  0  0
  9 10  1  0  0  0
  9 27  2  0  0  0
 10 11  2  0  0  0
 10 15  1  0  0  0
 11 12  1  0  0  0
 11 92  1  0  0  0
 12 13  2  0  0  0
 12 93  1  0  0  0
 13 14  1  0  0  0
 13 31  1  0  0  0
 14 15  2  0  0  0
 14 94  1  0  0  0
 15 95  1  0  0  0
 16 17  2  0  0  0
 16 21  1  0  0  0
 16 31  1  0  0  0
 17 18  1  0  0  0
 17 96  1  0  0  0
 18 19  2  0  0  0
 18 97  1  0  0  0
 19 20  1  0  0  0
 19 24  1  0  0  0
 20 21  2  0  0  0
 20 98  1  0  0  0
 21 23  1  0  0  0
 22 28  1  0  0  0
 22 32  2  0  0  0
 26 27  1  0  0  0
 28 99  1  0  0  0
 28100  1  0  0  0
 29101  1  0  0  0
 29102  1  0  0  0
 33 34  1  0  0  0
 33 66  1  0  0  0
 33 70  2  0  0  0
 34 36  1  0  0  0
 34 59  1  0  0  0
 34103  1  0  0  0
 35 44  2  0  0  0
 35 45  1  0  0  0
 35 68  1  0  0  0
 36 56  1  0  0  0
 36104  1  0  0  0
 37 39  1  0  0  0
 37 47  1  0  0  0
 37 66  1  0  0  0
 37105  1  0  0  0
 38 43  2  0  0  0
 38 46  1  0  0  0
 38 47  1  0  0  0
 39 64  1  0  0  0
 39 67  2  0  0  0
 40 52  1  0  0  0
 40 53  2  0  0  0
 40 58  1  0  0  0
 41106  1  0  0  0
 41107  1  0  0  0
 41108  1  0  0  0
 41 48  1  0  0  0
 42 43  1  0  0  0
 42 66  1  0  0  0
 42109  1  0  0  0
 42110  1  0  0  0
 43 44  1  0  0  0
 44111  1  0  0  0
 45 46  2  0  0  0
 45112  1  0  0  0
 46113  1  0  0  0
 47114  1  0  0  0
 47115  1  0  0  0
 48 56  1  0  0  0
 48 65  1  0  0  0
 48116  1  0  0  0
 49 50  1  0  0  0
 49 53  1  0  0  0
 49 64  1  0  0  0
 49117  1  0  0  0
 50 51  1  0  0  0
 50118  1  0  0  0
 50119  1  0  0  0
 51 52  1  0  0  0
 51120  1  0  0  0
 51121  1  0  0  0
 52122  1  0  0  0
 52123  1  0  0  0
 53 54  1  0  0  0
 54 55  2  0  0  0
 54124  1  0  0  0
 55 57  1  0  0  0
 55125  1  0  0  0
 56 69  2  0  0  0
 57 58  2  0  0  0
 57126  1  0  0  0
 58127  1  0  0  0
 59 60  1  0  0  0
 59 61  1  0  0  0
 59 62  1  0  0  0
 60128  1  0  0  0
 60129  1  0  0  0
 60130  1  0  0  0
 61131  1  0  0  0
 61132  1  0  0  0
 61133  1  0  0  0
 62134  1  0  0  0
 62135  1  0  0  0
 62136  1  0  0  0
 63 65  1  0  0  0
 63137  1  0  0  0
 63138  1  0  0  0
 63139  1  0  0  0
 64140  1  0  0  0
 65141  1  0  0  0
 68 80  1  0  0  0
 71 73  2  0  0  0
 71 75  1  0  0  0
 71142  1  0  0  0
 72 74  1  0  0  0
 72 75  2  0  0  0
 72143  1  0  0  0
 73 76  1  0  0  0
 73144  1  0  0  0
 74 76  2  0  0  0
 74145  1  0  0  0
 75 81  1  0  0  0
 76 82  1  0  0  0
 77 78  1  0  0  0
 77 80  1  0  0  0
 77146  1  0  0  0
 77147  1  0  0  0
 78 81  1  0  0  0
 78148  1  0  0  0
 78149  1  0  0  0
 79 80  1  0  0  0
 79 81  1  0  0  0
 79150  1  0  0  0
 79151  1  0  0  0
 80152  1  0  0  0
 82153  1  0  0  0
M  ISO  4   1 100  68 101  80 101  82 100
M  END
> <chiral flag>
0

> <version>
0

> <s_m_source_file>
/data/baiqing/PycharmProjects/Reinvent-master-3.2/result/LINK_invent/BTK/process_docking_weight1_custom_product_contain_oxygen_bond_distance_aromatic_linkinvent_7_9_3/rearranged_h_0012.sdf

> <i_m_source_file_index>
46

> <r_mmod_Potential_Energy-OPLS-2005>
525.946105957031

> <r_mmod_Stretch_Energy-OPLS-2005>
213.858779907227

> <r_mmod_Bend_Energy-OPLS-2005>
307.925323486328

> <r_mmod_Torsional_Energy-OPLS-2005>
299.310577392578

> <r_mmod_Improper_Torsional_Energy-OPLS-2005>
7.30253410339355

> <r_mmod_Van_der_Waal_Energy-OPLS-2005>
124.300971984863

> <r_mmod_Electrostatic_Energy-OPLS-2005>
-383.096618652344

> <r_mmod_Solvation_Energy-OPLS-2005>
-232.282287597656

> <b_mmod_Minimization_Converged-OPLS-2005>
0

> <r_mmod_RMS_Derivative-OPLS-2005>
0.949168264865875

$$$$
46
                    3D
 Structure written by MMmdl.
164172  0  0  1  0            999 V2000
  -30.7617  -14.3643   20.7010 C   0  0  0  0  0  0
  -30.4162  -12.2968   19.3879 C   0  0  0  0  0  0
  -29.4803  -12.5243   18.1858 C   0  0  0  0  0  0
  -28.0054  -12.3741   18.6057 C   0  0  0  0  0  0
  -27.6640  -13.1964   19.8755 C   0  0  2  0  0  0
  -28.7026  -12.9422   20.9886 C   0  0  0  0  0  0
  -25.2607  -13.8151   20.5689 C   0  0  0  0  0  0
  -24.1871  -13.0450   20.9257 C   0  0  0  0  0  0
  -24.6379  -11.6906   20.8753 C   0  0  0  0  0  0
  -23.9038  -10.4295   21.0390 C   0  0  0  0  0  0
  -24.3597   -9.4221   21.9164 C   0  0  0  0  0  0
  -23.6280   -8.2253   22.0752 C   0  0  0  0  0  0
  -22.4264   -8.0277   21.3539 C   0  0  0  0  0  0
  -21.9883   -9.0253   20.4651 C   0  0  0  0  0  0
  -22.7202  -10.2136   20.3049 C   0  0  0  0  0  0
  -21.6848   -6.0750   22.5276 C   0  0  0  0  0  0
  -21.4013   -6.5652   23.8213 C   0  0  0  0  0  0
  -21.3646   -5.6791   24.9161 C   0  0  0  0  0  0
  -21.6040   -4.3059   24.7208 C   0  0  0  0  0  0
  -21.8820   -3.8169   23.4328 C   0  0  0  0  0  0
  -21.9185   -4.6987   22.3389 C   0  0  0  0  0  0
  -22.7899  -13.5279   21.1868 C   0  0  0  0  0  0
  -22.1624   -4.2170   21.0960 F   0  0  0  0  0  0
  -21.5626   -3.4545   25.7721 F   0  0  0  0  0  0
  -30.0415  -13.2387   20.4525 N   0  0  0  0  0  0
  -26.3022  -12.9303   20.3342 N   0  0  0  0  0  0
  -25.9288  -11.6481   20.5732 N   0  0  0  0  0  0
  -22.0486  -12.8298   22.0398 N   0  0  0  0  0  0
  -25.4323  -15.1862   20.3973 N   0  0  0  0  0  0
  -31.7763  -14.6511   20.0589 O   0  0  0  0  0  0
  -21.6621   -6.8887   21.4241 O   0  0  0  0  0  0
  -22.3656  -14.5599   20.6678 O   0  0  0  0  0  0
  -24.6108  -31.8704   23.2093 C   0  0  0  0  0  0
  -25.9015  -32.4848   23.8391 C   0  0  1  0  0  0
  -27.2437  -27.4681   20.1027 C   0  0  0  0  0  0
  -25.5886  -33.8648   24.2329 N   0  0  0  0  0  0
  -23.3987  -30.4909   21.5503 C   0  0  2  0  0  0
  -24.8473  -28.9521   20.1200 C   0  0  0  0  0  0
  -22.7387  -29.4666   22.4992 C   0  0  0  0  0  0
  -18.0279  -28.1374   22.8471 C   0  0  0  0  0  0
  -24.1481  -36.7323   23.2633 C   0  0  0  0  0  0
  -25.9217  -30.8466   21.3575 C   0  0  0  0  0  0
  -26.0030  -29.4810   20.7108 C   0  0  0  0  0  0
  -27.2062  -28.7466   20.6958 C   0  0  0  0  0  0
  -26.0756  -26.9371   19.5174 C   0  0  0  0  0  0
  -24.8776  -27.6790   19.5212 C   0  0  0  0  0  0
  -23.6060  -29.8154   20.1663 C   0  0  0  0  0  0
  -25.4107  -36.3130   24.0338 C   0  0  1  0  0  0
  -20.5861  -28.3659   23.1330 C   0  0  2  0  0  0
  -20.6788  -26.9403   22.5422 C   0  0  0  0  0  0
  -19.5772  -26.6350   21.5220 C   0  0  0  0  0  0
  -18.1918  -26.7941   22.1567 C   0  0  0  0  0  0
  -19.1519  -28.8819   23.2923 C   0  0  0  0  0  0
  -18.9438  -30.1413   23.8958 C   0  0  0  0  0  0
  -17.6435  -30.6551   24.0618 C   0  0  0  0  0  0
  -25.9028  -34.9495   23.5131 C   0  0  0  0  0  0
  -16.5336  -29.9072   23.6327 C   0  0  0  0  0  0
  -16.7268  -28.6507   23.0318 C   0  0  0  0  0  0
  -26.4441  -31.6618   25.0715 C   0  0  0  0  0  0
  -25.3694  -31.3761   26.1457 C   0  0  0  0  0  0
  -27.0242  -30.3052   24.6081 C   0  0  0  0  0  0
  -27.6021  -32.4327   25.7469 C   0  0  0  0  0  0
  -27.5590  -37.1818   24.8457 C   0  0  0  0  0  0
  -21.4118  -29.3046   22.3748 N   0  0  0  0  0  0
  -26.4293  -37.3815   23.9403 N   0  0  0  0  0  0
  -24.6620  -31.0825   22.0976 N   0  0  0  0  0  0
  -23.4178  -28.8218   23.3033 O   0  0  0  0  0  0
  -28.4256  -26.7769   20.0632 O   0  0  0  0  0  0
  -26.5583  -34.8943   22.4688 O   0  0  0  0  0  0
  -23.5309  -32.1433   23.7488 O   0  0  0  0  0  0
  -26.5915  -20.2154   21.2485 C   0  0  0  0  0  0
  -26.7486  -21.3617   20.4452 C   0  0  0  0  0  0
  -28.1243  -21.1618   22.8790 C   0  0  0  0  0  0
  -27.2991  -20.0955   22.4629 C   0  0  0  0  0  0
  -27.5939  -22.4214   20.8361 C   0  0  0  0  0  0
  -28.2636  -22.3215   22.0881 C   0  0  0  0  0  0
  -26.9087  -16.4058   23.2387 C   0  0  0  0  0  0
  -27.1415  -18.8493   23.3299 C   0  0  0  0  0  0
  -30.3492  -15.3197   21.8335 C   0  0  0  0  0  0
  -29.3878  -16.4271   21.3494 C   0  0  0  0  0  0
  -29.0081  -17.4455   22.4529 C   0  0  0  0  0  0
  -28.4806  -25.6079   20.8798 C   0  0  0  0  0  0
  -28.7981  -24.3677   20.0263 C   0  0  0  0  0  0
  -27.5362  -17.6012   22.6240 N   0  3  1  0  0  0
  -27.6845  -23.4793   19.9484 O   0  0  0  0  0  0
  -29.0328  -23.3268   22.5689 F   0  0  0  0  0  0
  -31.4579  -12.4042   19.0812 H   0  0  0  0  0  0
  -30.3239  -11.2742   19.7572 H   0  0  0  0  0  0
  -29.7148  -11.8184   17.3862 H   0  0  0  0  0  0
  -29.6475  -13.5207   17.7750 H   0  0  0  0  0  0
  -27.8127  -11.3163   18.7874 H   0  0  0  0  0  0
  -27.3453  -12.6623   17.7858 H   0  0  0  0  0  0
  -27.7212  -14.2475   19.5957 H   0  0  0  0  0  0
  -28.6701  -11.8989   21.3069 H   0  0  0  0  0  0
  -28.4385  -13.5202   21.8696 H   0  0  0  0  0  0
  -25.2733   -9.5729   22.4746 H   0  0  0  0  0  0
  -24.0016   -7.4663   22.7481 H   0  0  0  0  0  0
  -21.0815   -8.8766   19.8970 H   0  0  0  0  0  0
  -22.3634  -10.9679   19.6174 H   0  0  0  0  0  0
  -21.2011   -7.6163   23.9733 H   0  0  0  0  0  0
  -21.1443   -6.0498   25.9057 H   0  0  0  0  0  0
  -22.0615   -2.7639   23.2813 H   0  0  0  0  0  0
  -22.4028  -11.9904   22.4732 H   0  0  0  0  0  0
  -21.1138  -13.1395   22.2642 H   0  0  0  0  0  0
  -24.5873  -15.7439   20.3412 H   0  0  0  0  0  0
  -26.1412  -15.5102   19.7529 H   0  0  0  0  0  0
  -26.7110  -32.5566   23.1180 H   0  0  0  0  0  0
  -25.0046  -33.9820   25.0484 H   0  0  0  0  0  0
  -22.6860  -31.3064   21.4104 H   0  0  0  0  0  0
  -23.3743  -35.9655   23.3302 H   0  0  0  0  0  0
  -24.3569  -36.8912   22.2041 H   0  0  0  0  0  0
  -23.7232  -37.6542   23.6624 H   0  0  0  0  0  0
  -26.0276  -31.6121   20.5871 H   0  0  0  0  0  0
  -26.8113  -30.9015   21.9720 H   0  0  0  0  0  0
  -28.1036  -29.1567   21.1377 H   0  0  0  0  0  0
  -26.1000  -25.9619   19.0507 H   0  0  0  0  0  0
  -23.9911  -27.2652   19.0624 H   0  0  0  0  0  0
  -23.7105  -30.5864   19.4022 H   0  0  0  0  0  0
  -22.7311  -29.2305   19.8763 H   0  0  0  0  0  0
  -25.1288  -36.1999   25.0838 H   0  0  0  0  0  0
  -20.9964  -28.3224   24.1456 H   0  0  0  0  0  0
  -20.5720  -26.2272   23.3607 H   0  0  0  0  0  0
  -21.6664  -26.7469   22.1220 H   0  0  0  0  0  0
  -19.6924  -25.6233   21.1313 H   0  0  0  0  0  0
  -19.6745  -27.3102   20.6716 H   0  0  0  0  0  0
  -17.4250  -26.6767   21.3896 H   0  0  0  0  0  0
  -18.0222  -26.0043   22.8894 H   0  0  0  0  0  0
  -19.7907  -30.7221   24.2365 H   0  0  0  0  0  0
  -17.4982  -31.6217   24.5253 H   0  0  0  0  0  0
  -15.5334  -30.2972   23.7637 H   0  0  0  0  0  0
  -15.8680  -28.0854   22.6954 H   0  0  0  0  0  0
  -24.5860  -30.7113   25.7806 H   0  0  0  0  0  0
  -24.8891  -32.2933   26.4872 H   0  0  0  0  0  0
  -25.8018  -30.8960   27.0235 H   0  0  0  0  0  0
  -26.2792  -29.6874   24.1053 H   0  0  0  0  0  0
  -27.3907  -29.7243   25.4551 H   0  0  0  0  0  0
  -27.8671  -30.4362   23.9289 H   0  0  0  0  0  0
  -27.2649  -33.3608   26.2087 H   0  0  0  0  0  0
  -28.3803  -32.6910   25.0281 H   0  0  0  0  0  0
  -28.0714  -31.8428   26.5344 H   0  0  0  0  0  0
  -28.2625  -38.0104   24.7524 H   0  0  0  0  0  0
  -28.1074  -36.2645   24.6262 H   0  0  0  0  0  0
  -27.2309  -37.1447   25.8860 H   0  0  0  0  0  0
  -20.9247  -29.8813   21.7025 H   0  0  0  0  0  0
  -26.0186  -38.2895   24.1410 H   0  0  0  0  0  0
  -25.9259  -19.4288   20.9179 H   0  0  0  0  0  0
  -26.2154  -21.4276   19.5076 H   0  0  0  0  0  0
  -28.6514  -21.1094   23.8217 H   0  0  0  0  0  0
  -25.8251  -16.5120   23.2924 H   0  0  0  0  0  0
  -27.2850  -16.2339   24.2488 H   0  0  0  0  0  0
  -27.1045  -15.5063   22.6590 H   0  0  0  0  0  0
  -26.0927  -18.7966   23.6275 H   0  0  0  0  0  0
  -27.7118  -18.9465   24.2561 H   0  0  0  0  0  0
  -31.2607  -15.7824   22.2147 H   0  0  0  0  0  0
  -29.9420  -14.7707   22.6814 H   0  0  0  0  0  0
  -28.4975  -15.9736   20.9162 H   0  0  0  0  0  0
  -29.8588  -16.9689   20.5267 H   0  0  0  0  0  0
  -29.4502  -18.4066   22.1862 H   0  0  0  0  0  0
  -29.4589  -17.1779   23.4093 H   0  0  0  0  0  0
  -29.2888  -25.7627   21.5958 H   0  0  0  0  0  0
  -27.5769  -25.4554   21.4739 H   0  0  0  0  0  0
  -29.6982  -23.8622   20.3776 H   0  0  0  0  0  0
  -29.0407  -24.6832   19.0101 H   0  0  0  0  0  0
  -27.1394  -17.6816   21.7003 H   0  0  0  0  0  0
  1 25  1  0  0  0
  1 30  2  0  0  0
  1 79  1  0  0  0
  2  3  1  0  0  0
  2 25  1  0  0  0
  2 87  1  0  0  0
  2 88  1  0  0  0
  3  4  1  0  0  0
  3 89  1  0  0  0
  3 90  1  0  0  0
  4  5  1  0  0  0
  4 91  1  0  0  0
  4 92  1  0  0  0
  5  6  1  0  0  0
  5 26  1  0  0  0
  5 93  1  0  0  0
  6 25  1  0  0  0
  6 94  1  0  0  0
  6 95  1  0  0  0
  7  8  2  0  0  0
  7 26  1  0  0  0
  7 29  1  0  0  0
  8  9  1  0  0  0
  8 22  1  0  0  0
  9 10  1  0  0  0
  9 27  2  0  0  0
 10 11  2  0  0  0
 10 15  1  0  0  0
 11 12  1  0  0  0
 11 96  1  0  0  0
 12 13  2  0  0  0
 12 97  1  0  0  0
 13 14  1  0  0  0
 13 31  1  0  0  0
 14 15  2  0  0  0
 14 98  1  0  0  0
 15 99  1  0  0  0
 16 17  2  0  0  0
 16 21  1  0  0  0
 16 31  1  0  0  0
 17 18  1  0  0  0
 17100  1  0  0  0
 18 19  2  0  0  0
 18101  1  0  0  0
 19 20  1  0  0  0
 19 24  1  0  0  0
 20 21  2  0  0  0
 20102  1  0  0  0
 21 23  1  0  0  0
 22 28  1  0  0  0
 22 32  2  0  0  0
 26 27  1  0  0  0
 28103  1  0  0  0
 28104  1  0  0  0
 29105  1  0  0  0
 29106  1  0  0  0
 33 34  1  0  0  0
 33 66  1  0  0  0
 33 70  2  0  0  0
 34 36  1  0  0  0
 34 59  1  0  0  0
 34107  1  0  0  0
 35 44  2  0  0  0
 35 45  1  0  0  0
 35 68  1  0  0  0
 36 56  1  0  0  0
 36108  1  0  0  0
 37 39  1  0  0  0
 37 47  1  0  0  0
 37 66  1  0  0  0
 37109  1  0  0  0
 38 43  2  0  0  0
 38 46  1  0  0  0
 38 47  1  0  0  0
 39 64  1  0  0  0
 39 67  2  0  0  0
 40 52  1  0  0  0
 40 53  2  0  0  0
 40 58  1  0  0  0
 41110  1  0  0  0
 41111  1  0  0  0
 41112  1  0  0  0
 41 48  1  0  0  0
 42 43  1  0  0  0
 42 66  1  0  0  0
 42113  1  0  0  0
 42114  1  0  0  0
 43 44  1  0  0  0
 44115  1  0  0  0
 45 46  2  0  0  0
 45116  1  0  0  0
 46117  1  0  0  0
 47118  1  0  0  0
 47119  1  0  0  0
 48 56  1  0  0  0
 48 65  1  0  0  0
 48120  1  0  0  0
 49 50  1  0  0  0
 49 53  1  0  0  0
 49 64  1  0  0  0
 49121  1  0  0  0
 50 51  1  0  0  0
 50122  1  0  0  0
 50123  1  0  0  0
 51 52  1  0  0  0
 51124  1  0  0  0
 51125  1  0  0  0
 52126  1  0  0  0
 52127  1  0  0  0
 53 54  1  0  0  0
 54 55  2  0  0  0
 54128  1  0  0  0
 55 57  1  0  0  0
 55129  1  0  0  0
 56 69  2  0  0  0
 57 58  2  0  0  0
 57130  1  0  0  0
 58131  1  0  0  0
 59 60  1  0  0  0
 59 61  1  0  0  0
 59 62  1  0  0  0
 60132  1  0  0  0
 60133  1  0  0  0
 60134  1  0  0  0
 61135  1  0  0  0
 61136  1  0  0  0
 61137  1  0  0  0
 62138  1  0  0  0
 62139  1  0  0  0
 62140  1  0  0  0
 63 65  1  0  0  0
 63141  1  0  0  0
 63142  1  0  0  0
 63143  1  0  0  0
 64144  1  0  0  0
 65145  1  0  0  0
 68 82  1  0  0  0
 71 72  2  0  0  0
 71 74  1  0  0  0
 71146  1  0  0  0
 72 75  1  0  0  0
 72147  1  0  0  0
 73 74  2  0  0  0
 73 76  1  0  0  0
 73148  1  0  0  0
 74 78  1  0  0  0
 75 76  2  0  0  0
 75 85  1  0  0  0
 76 86  1  0  0  0
 77149  1  0  0  0
 77150  1  0  0  0
 77151  1  0  0  0
 77 84  1  0  0  0
 78 84  1  0  0  0
 78152  1  0  0  0
 78153  1  0  0  0
 79 80  1  0  0  0
 79154  1  0  0  0
 79155  1  0  0  0
 80 81  1  0  0  0
 80156  1  0  0  0
 80157  1  0  0  0
 81 84  1  0  0  0
 81158  1  0  0  0
 81159  1  0  0  0
 82 83  1  0  0  0
 82160  1  0  0  0
 82161  1  0  0  0
 83 85  1  0  0  0
 83162  1  0  0  0
 83163  1  0  0  0
 84164  1  0  0  0
M  CHG  1  84   1
M  ISO  4   1 100  68 101  79 100  82 101
M  END
> <chiral flag>
0

> <version>
0

> <s_m_source_file>
/data/baiqing/PycharmProjects/Reinvent-master-3.2/result/LINK_invent/BTK/process_docking_weight1_custom_product_contain_oxygen_bond_distance_aromatic_linkinvent_7_9_3/rearranged_h_0012.sdf

> <i_m_source_file_index>
47

> <r_mmod_Potential_Energy-OPLS-2005>
-158.023422241211

> <r_mmod_Stretch_Energy-OPLS-2005>
34.2869606018066

> <r_mmod_Bend_Energy-OPLS-2005>
95.8274307250977

> <r_mmod_Torsional_Energy-OPLS-2005>
220.979690551758

> <r_mmod_Improper_Torsional_Energy-OPLS-2005>
5.44542694091797

> <r_mmod_Van_der_Waal_Energy-OPLS-2005>
144.727432250977

> <r_mmod_Electrostatic_Energy-OPLS-2005>
-222.937683105469

> <r_mmod_Solvation_Energy-OPLS-2005>
-443.345520019531

> <b_mmod_Minimization_Converged-OPLS-2005>
0

> <r_mmod_RMS_Derivative-OPLS-2005>
2.97844004631042

$$$$
47
                    3D
 Structure written by MMmdl.
157165  0  0  1  0            999 V2000
  -30.7482  -14.4782   20.6139 C   0  0  0  0  0  0
  -30.4141  -12.3322   19.4232 C   0  0  0  0  0  0
  -29.4848  -12.5048   18.2064 C   0  0  0  0  0  0
  -28.0141  -12.3362   18.6253 C   0  0  0  0  0  0
  -27.6524  -13.1954   19.8619 C   0  0  2  0  0  0
  -28.6976  -13.0247   20.9907 C   0  0  0  0  0  0
  -25.2573  -13.8133   20.5672 C   0  0  0  0  0  0
  -24.1831  -13.0425   20.9200 C   0  0  0  0  0  0
  -24.6380  -11.6891   20.8774 C   0  0  0  0  0  0
  -23.9053  -10.4287   21.0446 C   0  0  0  0  0  0
  -24.3623   -9.4198   21.9209 C   0  0  0  0  0  0
  -23.6298   -8.2234   22.0763 C   0  0  0  0  0  0
  -22.4289   -8.0282   21.3545 C   0  0  0  0  0  0
  -21.9924   -9.0257   20.4648 C   0  0  0  0  0  0
  -22.7244  -10.2137   20.3071 C   0  0  0  0  0  0
  -21.6847   -6.0757   22.5287 C   0  0  0  0  0  0
  -21.4011   -6.5658   23.8219 C   0  0  0  0  0  0
  -21.3656   -5.6805   24.9180 C   0  0  0  0  0  0
  -21.6042   -4.3062   24.7226 C   0  0  0  0  0  0
  -21.8823   -3.8165   23.4344 C   0  0  0  0  0  0
  -21.9191   -4.6985   22.3405 C   0  0  0  0  0  0
  -22.7856  -13.5236   21.1859 C   0  0  0  0  0  0
  -22.1660   -4.2173   21.0987 F   0  0  0  0  0  0
  -21.5630   -3.4545   25.7743 F   0  0  0  0  0  0
  -30.0290  -13.3291   20.4401 N   0  0  0  0  0  0
  -26.2980  -12.9268   20.3310 N   0  0  0  0  0  0
  -25.9292  -11.6453   20.5776 N   0  0  0  0  0  0
  -22.0485  -12.8230   22.0405 N   0  0  0  0  0  0
  -25.4302  -15.1852   20.4071 N   0  0  0  0  0  0
  -31.8425  -14.6474   20.0667 O   0  0  0  0  0  0
  -21.6637   -6.8893   21.4249 O   0  0  0  0  0  0
  -22.3554  -14.5545   20.6702 O   0  0  0  0  0  0
  -24.6169  -31.8662   23.2113 C   0  0  0  0  0  0
  -25.9069  -32.4807   23.8407 C   0  0  1  0  0  0
  -27.2304  -27.4278   20.0976 C   0  0  0  0  0  0
  -25.5914  -33.8603   24.2320 N   0  0  0  0  0  0
  -23.4037  -30.4922   21.5516 C   0  0  2  0  0  0
  -24.8484  -28.9556   20.1174 C   0  0  0  0  0  0
  -22.7408  -29.4669   22.5000 C   0  0  0  0  0  0
  -18.0259  -28.1385   22.8512 C   0  0  0  0  0  0
  -24.1475  -36.7316   23.2647 C   0  0  0  0  0  0
  -25.9333  -30.8301   21.3632 C   0  0  0  0  0  0
  -26.0119  -29.4661   20.7081 C   0  0  0  0  0  0
  -27.2090  -28.7108   20.6917 C   0  0  0  0  0  0
  -26.0522  -26.9365   19.4944 C   0  0  0  0  0  0
  -24.8635  -27.6888   19.5089 C   0  0  0  0  0  0
  -23.6104  -29.8231   20.1675 C   0  0  0  0  0  0
  -25.4095  -36.3093   24.0329 C   0  0  1  0  0  0
  -20.5854  -28.3687   23.1312 C   0  0  2  0  0  0
  -20.6750  -26.9425   22.5415 C   0  0  0  0  0  0
  -19.5726  -26.6396   21.5220 C   0  0  0  0  0  0
  -18.1900  -26.7940   22.1626 C   0  0  0  0  0  0
  -19.1512  -28.8851   23.2903 C   0  0  0  0  0  0
  -18.9447  -30.1459   23.8911 C   0  0  0  0  0  0
  -17.6454  -30.6602   24.0574 C   0  0  0  0  0  0
  -25.9027  -34.9460   23.5112 C   0  0  0  0  0  0
  -16.5341  -29.9102   23.6350 C   0  0  0  0  0  0
  -16.7245  -28.6509   23.0383 C   0  0  0  0  0  0
  -26.4502  -31.6605   25.0752 C   0  0  0  0  0  0
  -25.3762  -31.3678   26.1493 C   0  0  0  0  0  0
  -27.0396  -30.3058   24.6158 C   0  0  0  0  0  0
  -27.6040  -32.4368   25.7523 C   0  0  0  0  0  0
  -27.5567  -37.1801   24.8464 C   0  0  0  0  0  0
  -21.4133  -29.3042   22.3716 N   0  0  0  0  0  0
  -26.4276  -37.3788   23.9412 N   0  0  0  0  0  0
  -24.6697  -31.0755   22.1010 N   0  0  0  0  0  0
  -23.4164  -28.8214   23.3052 O   0  0  0  0  0  0
  -28.3813  -26.6658   20.0948 O   0  0  0  0  0  0
  -26.5603  -34.8918   22.4681 O   0  0  0  0  0  0
  -23.5359  -32.1416   23.7514 O   0  0  0  0  0  0
  -30.2208  -18.2142   19.9859 C   0  0  0  0  0  0
  -30.3515  -19.5952   19.7128 C   0  0  0  0  0  0
  -28.7976  -20.1064   21.5003 C   0  0  0  0  0  0
  -29.3610  -17.7616   21.0114 C   0  0  0  0  0  0
  -29.6286  -20.5626   20.4463 C   0  0  0  0  0  0
  -28.6625  -18.7267   21.7754 C   0  0  0  0  0  0
  -31.2390  -15.9910   22.4540 C   0  0  0  0  0  0
  -29.1170  -16.2564   21.2327 C   0  0  0  0  0  0
  -29.1429  -24.2805   20.0595 C   0  0  0  0  0  0
  -28.2521  -25.3670   20.7086 C   0  0  0  0  0  0
  -28.9365  -22.8794   20.6915 C   0  0  0  0  0  0
  -30.2913  -15.3973   21.5058 N   0  0  0  0  0  0
  -29.7761  -21.8931   20.0792 O   0  0  0  0  0  0
  -27.8343  -18.3337   22.7730 F   0  0  0  0  0  0
  -31.4565  -12.4260   19.1139 H   0  0  0  0  0  0
  -30.3211  -11.3272   19.8374 H   0  0  0  0  0  0
  -29.7370  -11.7788   17.4328 H   0  0  0  0  0  0
  -29.6326  -13.4901   17.7627 H   0  0  0  0  0  0
  -27.8478  -11.2809   18.8434 H   0  0  0  0  0  0
  -27.3548  -12.5797   17.7917 H   0  0  0  0  0  0
  -27.6706  -14.2223   19.5109 H   0  0  0  0  0  0
  -28.6851  -12.0006   21.3664 H   0  0  0  0  0  0
  -28.4435  -13.6483   21.8475 H   0  0  0  0  0  0
  -25.2767   -9.5684   22.4791 H   0  0  0  0  0  0
  -24.0016   -7.4633   22.7484 H   0  0  0  0  0  0
  -21.0864   -8.8786   19.8950 H   0  0  0  0  0  0
  -22.3713  -10.9698   19.6199 H   0  0  0  0  0  0
  -21.2002   -7.6166   23.9735 H   0  0  0  0  0  0
  -21.1472   -6.0532   25.9086 H   0  0  0  0  0  0
  -22.0607   -2.7628   23.2842 H   0  0  0  0  0  0
  -22.4091  -11.9882   22.4789 H   0  0  0  0  0  0
  -21.1111  -13.1264   22.2608 H   0  0  0  0  0  0
  -24.6644  -15.8395   20.5247 H   0  0  0  0  0  0
  -26.2767  -15.6276   20.0746 H   0  0  0  0  0  0
  -26.7137  -32.5516   23.1170 H   0  0  0  0  0  0
  -25.0064  -33.9755   25.0461 H   0  0  0  0  0  0
  -22.6930  -31.3093   21.4129 H   0  0  0  0  0  0
  -23.3731  -35.9663   23.3308 H   0  0  0  0  0  0
  -24.3558  -36.8959   22.2071 H   0  0  0  0  0  0
  -23.7249  -37.6508   23.6694 H   0  0  0  0  0  0
  -26.0435  -31.5940   20.5931 H   0  0  0  0  0  0
  -26.8216  -30.8828   21.9820 H   0  0  0  0  0  0
  -28.1078  -29.0982   21.1509 H   0  0  0  0  0  0
  -26.0495  -25.9683   19.0138 H   0  0  0  0  0  0
  -23.9678  -27.2890   19.0524 H   0  0  0  0  0  0
  -23.7213  -30.5973   19.4075 H   0  0  0  0  0  0
  -22.7326  -29.2445   19.8756 H   0  0  0  0  0  0
  -25.1268  -36.1943   25.0823 H   0  0  0  0  0  0
  -20.9930  -28.3278   24.1441 H   0  0  0  0  0  0
  -20.5681  -26.2299   23.3603 H   0  0  0  0  0  0
  -21.6618  -26.7481   22.1201 H   0  0  0  0  0  0
  -19.6888  -25.6313   21.1244 H   0  0  0  0  0  0
  -19.6658  -27.3208   20.6753 H   0  0  0  0  0  0
  -17.4168  -26.6725   21.4017 H   0  0  0  0  0  0
  -18.0264  -26.0064   22.8998 H   0  0  0  0  0  0
  -19.7917  -30.7276   24.2285 H   0  0  0  0  0  0
  -17.5007  -31.6281   24.5186 H   0  0  0  0  0  0
  -15.5340  -30.3014   23.7670 H   0  0  0  0  0  0
  -15.8638  -28.0834   22.7109 H   0  0  0  0  0  0
  -24.5971  -30.6980   25.7839 H   0  0  0  0  0  0
  -24.8901  -32.2813   26.4932 H   0  0  0  0  0  0
  -25.8127  -30.8883   27.0265 H   0  0  0  0  0  0
  -26.2966  -29.6731   24.1297 H   0  0  0  0  0  0
  -27.4268  -29.7387   25.4633 H   0  0  0  0  0  0
  -27.8731  -30.4399   23.9264 H   0  0  0  0  0  0
  -27.2635  -33.3686   26.2057 H   0  0  0  0  0  0
  -28.3869  -32.6913   25.0369 H   0  0  0  0  0  0
  -28.0689  -31.8540   26.5485 H   0  0  0  0  0  0
  -28.2559  -38.0127   24.7539 H   0  0  0  0  0  0
  -28.1085  -36.2648   24.6247 H   0  0  0  0  0  0
  -27.2287  -37.1404   25.8871 H   0  0  0  0  0  0
  -20.9298  -29.8744   21.6922 H   0  0  0  0  0  0
  -26.0151  -38.2851   24.1456 H   0  0  0  0  0  0
  -30.7640  -17.5023   19.3811 H   0  0  0  0  0  0
  -31.0019  -19.9132   18.9094 H   0  0  0  0  0  0
  -28.2356  -20.7969   22.1091 H   0  0  0  0  0  0
  -30.7183  -16.4891   23.2729 H   0  0  0  0  0  0
  -31.8752  -16.7272   21.9604 H   0  0  0  0  0  0
  -31.8854  -15.2288   22.8916 H   0  0  0  0  0  0
  -28.6123  -15.9234   20.3307 H   0  0  0  0  0  0
  -28.4022  -16.1084   22.0427 H   0  0  0  0  0  0
  -30.1900  -24.5715   20.1455 H   0  0  0  0  0  0
  -28.9239  -24.2253   18.9939 H   0  0  0  0  0  0
  -28.5259  -25.4721   21.7588 H   0  0  0  0  0  0
  -27.2225  -25.0081   20.7119 H   0  0  0  0  0  0
  -27.8911  -22.5868   20.5770 H   0  0  0  0  0  0
  -29.1503  -22.9261   21.7600 H   0  0  0  0  0  0
  1 25  1  0  0  0
  1 30  2  0  0  0
  1 82  1  0  0  0
  2  3  1  0  0  0
  2 25  1  0  0  0
  2 85  1  0  0  0
  2 86  1  0  0  0
  3  4  1  0  0  0
  3 87  1  0  0  0
  3 88  1  0  0  0
  4  5  1  0  0  0
  4 89  1  0  0  0
  4 90  1  0  0  0
  5  6  1  0  0  0
  5 26  1  0  0  0
  5 91  1  0  0  0
  6 25  1  0  0  0
  6 92  1  0  0  0
  6 93  1  0  0  0
  7  8  2  0  0  0
  7 26  1  0  0  0
  7 29  1  0  0  0
  8  9  1  0  0  0
  8 22  1  0  0  0
  9 10  1  0  0  0
  9 27  2  0  0  0
 10 11  2  0  0  0
 10 15  1  0  0  0
 11 12  1  0  0  0
 11 94  1  0  0  0
 12 13  2  0  0  0
 12 95  1  0  0  0
 13 14  1  0  0  0
 13 31  1  0  0  0
 14 15  2  0  0  0
 14 96  1  0  0  0
 15 97  1  0  0  0
 16 17  2  0  0  0
 16 21  1  0  0  0
 16 31  1  0  0  0
 17 18  1  0  0  0
 17 98  1  0  0  0
 18 19  2  0  0  0
 18 99  1  0  0  0
 19 20  1  0  0  0
 19 24  1  0  0  0
 20 21  2  0  0  0
 20100  1  0  0  0
 21 23  1  0  0  0
 22 28  1  0  0  0
 22 32  2  0  0  0
 26 27  1  0  0  0
 28101  1  0  0  0
 28102  1  0  0  0
 29103  1  0  0  0
 29104  1  0  0  0
 33 34  1  0  0  0
 33 66  1  0  0  0
 33 70  2  0  0  0
 34 36  1  0  0  0
 34 59  1  0  0  0
 34105  1  0  0  0
 35 44  2  0  0  0
 35 45  1  0  0  0
 35 68  1  0  0  0
 36 56  1  0  0  0
 36106  1  0  0  0
 37 39  1  0  0  0
 37 47  1  0  0  0
 37 66  1  0  0  0
 37107  1  0  0  0
 38 43  2  0  0  0
 38 46  1  0  0  0
 38 47  1  0  0  0
 39 64  1  0  0  0
 39 67  2  0  0  0
 40 52  1  0  0  0
 40 53  2  0  0  0
 40 58  1  0  0  0
 41108  1  0  0  0
 41109  1  0  0  0
 41110  1  0  0  0
 41 48  1  0  0  0
 42 43  1  0  0  0
 42 66  1  0  0  0
 42111  1  0  0  0
 42112  1  0  0  0
 43 44  1  0  0  0
 44113  1  0  0  0
 45 46  2  0  0  0
 45114  1  0  0  0
 46115  1  0  0  0
 47116  1  0  0  0
 47117  1  0  0  0
 48 56  1  0  0  0
 48 65  1  0  0  0
 48118  1  0  0  0
 49 50  1  0  0  0
 49 53  1  0  0  0
 49 64  1  0  0  0
 49119  1  0  0  0
 50 51  1  0  0  0
 50120  1  0  0  0
 50121  1  0  0  0
 51 52  1  0  0  0
 51122  1  0  0  0
 51123  1  0  0  0
 52124  1  0  0  0
 52125  1  0  0  0
 53 54  1  0  0  0
 54 55  2  0  0  0
 54126  1  0  0  0
 55 57  1  0  0  0
 55127  1  0  0  0
 56 69  2  0  0  0
 57 58  2  0  0  0
 57128  1  0  0  0
 58129  1  0  0  0
 59 60  1  0  0  0
 59 61  1  0  0  0
 59 62  1  0  0  0
 60130  1  0  0  0
 60131  1  0  0  0
 60132  1  0  0  0
 61133  1  0  0  0
 61134  1  0  0  0
 61135  1  0  0  0
 62136  1  0  0  0
 62137  1  0  0  0
 62138  1  0  0  0
 63 65  1  0  0  0
 63139  1  0  0  0
 63140  1  0  0  0
 63141  1  0  0  0
 64142  1  0  0  0
 65143  1  0  0  0
 68 80  1  0  0  0
 71 72  2  0  0  0
 71 74  1  0  0  0
 71144  1  0  0  0
 72 75  1  0  0  0
 72145  1  0  0  0
 73 75  2  0  0  0
 73 76  1  0  0  0
 73146  1  0  0  0
 74 76  2  0  0  0
 74 78  1  0  0  0
 75 83  1  0  0  0
 76 84  1  0  0  0
 77 82  1  0  0  0
 77147  1  0  0  0
 77148  1  0  0  0
 77149  1  0  0  0
 78 82  1  0  0  0
 78150  1  0  0  0
 78151  1  0  0  0
 79 80  1  0  0  0
 79 81  1  0  0  0
 79152  1  0  0  0
 79153  1  0  0  0
 80154  1  0  0  0
 80155  1  0  0  0
 81 83  1  0  0  0
 81156  1  0  0  0
 81157  1  0  0  0
M  ISO  4   1 100  68 101  80 101  82 100
M  END
> <chiral flag>
0

> <version>
0

> <s_m_source_file>
/data/baiqing/PycharmProjects/Reinvent-master-3.2/result/LINK_invent/BTK/process_docking_weight1_custom_product_contain_oxygen_bond_distance_aromatic_linkinvent_7_9_3/rearranged_h_0012.sdf

> <i_m_source_file_index>
48

> <r_mmod_Potential_Energy-OPLS-2005>
85.9945068359375

> <r_mmod_Stretch_Energy-OPLS-2005>
41.2845649719238

> <r_mmod_Bend_Energy-OPLS-2005>
103.547470092773

> <r_mmod_Torsional_Energy-OPLS-2005>
276.213134765625

> <r_mmod_Improper_Torsional_Energy-OPLS-2005>
4.48051118850708

> <r_mmod_Van_der_Waal_Energy-OPLS-2005>
154.168899536133

> <r_mmod_Electrostatic_Energy-OPLS-2005>
-313.578460693359

> <r_mmod_Solvation_Energy-OPLS-2005>
-194.207885742188

> <b_mmod_Minimization_Converged-OPLS-2005>
0

> <r_mmod_RMS_Derivative-OPLS-2005>
2.03925967216492

$$$$
48
                    3D
 Structure written by MMmdl.
151159  0  0  1  0            999 V2000
  -30.6835  -14.6372   20.4794 C   0  0  0  0  0  0
  -30.4155  -12.3912   19.4637 C   0  0  0  0  0  0
  -29.4998  -12.4935   18.2268 C   0  0  0  0  0  0
  -28.0254  -12.3355   18.6422 C   0  0  0  0  0  0
  -27.6439  -13.2296   19.8531 C   0  0  2  0  0  0
  -28.6888  -13.1444   20.9879 C   0  0  0  0  0  0
  -25.2514  -13.8203   20.5698 C   0  0  0  0  0  0
  -24.1801  -13.0448   20.9207 C   0  0  0  0  0  0
  -24.6388  -11.6925   20.8752 C   0  0  0  0  0  0
  -23.9067  -10.4299   21.0411 C   0  0  0  0  0  0
  -24.3619   -9.4211   21.9186 C   0  0  0  0  0  0
  -23.6295   -8.2245   22.0754 C   0  0  0  0  0  0
  -22.4276   -8.0284   21.3546 C   0  0  0  0  0  0
  -21.9911   -9.0258   20.4649 C   0  0  0  0  0  0
  -22.7239  -10.2139   20.3059 C   0  0  0  0  0  0
  -21.6855   -6.0735   22.5279 C   0  0  0  0  0  0
  -21.4015   -6.5639   23.8214 C   0  0  0  0  0  0
  -21.3660   -5.6791   24.9174 C   0  0  0  0  0  0
  -21.6043   -4.3053   24.7226 C   0  0  0  0  0  0
  -21.8817   -3.8146   23.4347 C   0  0  0  0  0  0
  -21.9193   -4.6963   22.3403 C   0  0  0  0  0  0
  -22.7821  -13.5230   21.1863 C   0  0  0  0  0  0
  -22.1661   -4.2149   21.0980 F   0  0  0  0  0  0
  -21.5630   -3.4538   25.7738 F   0  0  0  0  0  0
  -29.9994  -13.4525   20.4051 N   0  0  0  0  0  0
  -26.2945  -12.9410   20.3299 N   0  0  0  0  0  0
  -25.9319  -11.6551   20.5763 N   0  0  0  0  0  0
  -22.0467  -12.8224   22.0424 N   0  0  0  0  0  0
  -25.4205  -15.1926   20.4109 N   0  0  0  0  0  0
  -31.8703  -14.6907   20.1500 O   0  0  0  0  0  0
  -21.6641   -6.8879   21.4240 O   0  0  0  0  0  0
  -22.3501  -14.5534   20.6711 O   0  0  0  0  0  0
  -24.6254  -31.8608   23.2038 C   0  0  0  0  0  0
  -25.9104  -32.4784   23.8365 C   0  0  1  0  0  0
  -27.2149  -27.3214   20.1254 C   0  0  0  0  0  0
  -25.5922  -33.8585   24.2287 N   0  0  0  0  0  0
  -23.4193  -30.4854   21.5459 C   0  0  2  0  0  0
  -24.8660  -28.9436   20.1093 C   0  0  0  0  0  0
  -22.7474  -29.4630   22.4934 C   0  0  0  0  0  0
  -18.0288  -28.1383   22.8489 C   0  0  0  0  0  0
  -24.1489  -36.7298   23.2638 C   0  0  0  0  0  0
  -25.9605  -30.7922   21.3764 C   0  0  0  0  0  0
  -26.0343  -29.4204   20.7187 C   0  0  0  0  0  0
  -27.2153  -28.6204   20.7180 C   0  0  0  0  0  0
  -26.0341  -26.9068   19.4722 C   0  0  0  0  0  0
  -24.8677  -27.6923   19.4749 C   0  0  0  0  0  0
  -23.6343  -29.8233   20.1599 C   0  0  0  0  0  0
  -25.4111  -36.3087   24.0332 C   0  0  1  0  0  0
  -20.5888  -28.3688   23.1282 C   0  0  2  0  0  0
  -20.6776  -26.9412   22.5409 C   0  0  0  0  0  0
  -19.5750  -26.6383   21.5213 C   0  0  0  0  0  0
  -18.1931  -26.7926   22.1627 C   0  0  0  0  0  0
  -19.1540  -28.8851   23.2882 C   0  0  0  0  0  0
  -18.9462  -30.1454   23.8898 C   0  0  0  0  0  0
  -17.6462  -30.6585   24.0563 C   0  0  0  0  0  0
  -25.9048  -34.9456   23.5109 C   0  0  0  0  0  0
  -16.5354  -29.9084   23.6328 C   0  0  0  0  0  0
  -16.7276  -28.6501   23.0350 C   0  0  0  0  0  0
  -26.4487  -31.6594   25.0736 C   0  0  0  0  0  0
  -25.3721  -31.3739   26.1466 C   0  0  0  0  0  0
  -27.0325  -30.3015   24.6194 C   0  0  0  0  0  0
  -27.6047  -32.4330   25.7504 C   0  0  0  0  0  0
  -27.5579  -37.1803   24.8463 C   0  0  0  0  0  0
  -21.4188  -29.3045   22.3677 N   0  0  0  0  0  0
  -26.4290  -37.3779   23.9409 N   0  0  0  0  0  0
  -24.6871  -31.0625   22.0989 N   0  0  0  0  0  0
  -23.4200  -28.8166   23.3009 O   0  0  0  0  0  0
  -28.3057  -26.4437   20.1689 O   0  0  0  0  0  0
  -26.5616  -34.8920   22.4675 O   0  0  0  0  0  0
  -23.5418  -32.1406   23.7366 O   0  0  0  0  0  0
  -30.6455  -19.6796   20.0605 C   0  0  0  0  0  0
  -30.1222  -21.0056   20.0942 C   0  0  0  0  0  0
  -28.6510  -18.8152   21.0840 C   0  0  0  0  0  0
  -29.9377  -18.5477   20.5568 C   0  0  0  0  0  0
  -28.8451  -21.2789   20.6423 C   0  0  0  0  0  0
  -28.1255  -20.1442   21.1249 C   0  0  0  0  0  0
  -30.6645  -17.1524   20.5597 C   0  0  0  0  0  0
  -28.0238  -25.0854   20.7005 C   0  0  0  0  0  0
  -28.8701  -23.8042   20.2722 C   0  0  0  0  0  0
  -29.9992  -15.8078   20.7025 N   0  0  0  0  0  0
  -28.2608  -22.5594   20.7551 O   0  0  0  0  0  0
  -26.8948  -20.3338   21.6593 F   0  0  0  0  0  0
  -31.4614  -12.4779   19.1643 H   0  0  0  0  0  0
  -30.3220  -11.4110   19.9336 H   0  0  0  0  0  0
  -29.7662  -11.7299   17.4948 H   0  0  0  0  0  0
  -29.6449  -13.4561   17.7335 H   0  0  0  0  0  0
  -27.8699  -11.2865   18.8962 H   0  0  0  0  0  0
  -27.3689  -12.5435   17.7966 H   0  0  0  0  0  0
  -27.6474  -14.2554   19.4839 H   0  0  0  0  0  0
  -28.6977  -12.1495   21.4354 H   0  0  0  0  0  0
  -28.4431  -13.8399   21.7918 H   0  0  0  0  0  0
  -25.2764   -9.5689   22.4759 H   0  0  0  0  0  0
  -24.0009   -7.4634   22.7470 H   0  0  0  0  0  0
  -21.0844   -8.8779   19.8954 H   0  0  0  0  0  0
  -22.3699  -10.9680   19.6171 H   0  0  0  0  0  0
  -21.2009   -7.6147   23.9715 H   0  0  0  0  0  0
  -21.1484   -6.0522   25.9077 H   0  0  0  0  0  0
  -22.0597   -2.7609   23.2844 H   0  0  0  0  0  0
  -22.4088  -11.9894   22.4824 H   0  0  0  0  0  0
  -21.1082  -13.1247   22.2625 H   0  0  0  0  0  0
  -24.6512  -15.8450   20.5169 H   0  0  0  0  0  0
  -26.2654  -15.6313   20.0684 H   0  0  0  0  0  0
  -26.7175  -32.5455   23.1117 H   0  0  0  0  0  0
  -25.0064  -33.9734   25.0427 H   0  0  0  0  0  0
  -22.7129  -31.3061   21.4045 H   0  0  0  0  0  0
  -23.3749  -35.9633   23.3300 H   0  0  0  0  0  0
  -24.3582  -36.8919   22.2053 H   0  0  0  0  0  0
  -23.7246  -37.6504   23.6657 H   0  0  0  0  0  0
  -26.0932  -31.5556   20.6087 H   0  0  0  0  0  0
  -26.8403  -30.8394   22.0065 H   0  0  0  0  0  0
  -28.1098  -28.9773   21.2090 H   0  0  0  0  0  0
  -25.9996  -25.9537   18.9639 H   0  0  0  0  0  0
  -23.9761  -27.3261   18.9845 H   0  0  0  0  0  0
  -23.7541  -30.6016   19.4053 H   0  0  0  0  0  0
  -22.7541  -29.2538   19.8562 H   0  0  0  0  0  0
  -25.1289  -36.1942   25.0824 H   0  0  0  0  0  0
  -20.9984  -28.3262   24.1400 H   0  0  0  0  0  0
  -20.5677  -26.2299   23.3609 H   0  0  0  0  0  0
  -21.6645  -26.7439   22.1202 H   0  0  0  0  0  0
  -19.6910  -25.6293   21.1243 H   0  0  0  0  0  0
  -19.6682  -27.3194   20.6742 H   0  0  0  0  0  0
  -17.4199  -26.6673   21.4031 H   0  0  0  0  0  0
  -18.0332  -26.0068   22.9025 H   0  0  0  0  0  0
  -19.7938  -30.7269   24.2268 H   0  0  0  0  0  0
  -17.5017  -31.6266   24.5165 H   0  0  0  0  0  0
  -15.5353  -30.2985   23.7649 H   0  0  0  0  0  0
  -15.8679  -28.0821   22.7061 H   0  0  0  0  0  0
  -24.5890  -30.7092   25.7800 H   0  0  0  0  0  0
  -24.8919  -32.2910   26.4891 H   0  0  0  0  0  0
  -25.8045  -30.8918   27.0242 H   0  0  0  0  0  0
  -26.2902  -29.6776   24.1203 H   0  0  0  0  0  0
  -27.4001  -29.7263   25.4702 H   0  0  0  0  0  0
  -27.8783  -30.4297   23.9434 H   0  0  0  0  0  0
  -27.2654  -33.3626   26.2087 H   0  0  0  0  0  0
  -28.3852  -32.6899   25.0329 H   0  0  0  0  0  0
  -28.0723  -31.8456   26.5417 H   0  0  0  0  0  0
  -28.2595  -38.0101   24.7510 H   0  0  0  0  0  0
  -28.1076  -36.2633   24.6283 H   0  0  0  0  0  0
  -27.2301  -37.1453   25.8868 H   0  0  0  0  0  0
  -20.9361  -29.8777   21.6898 H   0  0  0  0  0  0
  -26.0173  -38.2855   24.1407 H   0  0  0  0  0  0
  -31.6381  -19.5369   19.6551 H   0  0  0  0  0  0
  -30.7272  -21.8124   19.7071 H   0  0  0  0  0  0
  -28.0605  -18.0069   21.4893 H   0  0  0  0  0  0
  -31.4195  -17.2096   21.3459 H   0  0  0  0  0  0
  -31.2322  -17.1252   19.6273 H   0  0  0  0  0  0
  -28.0944  -25.1698   21.7853 H   0  0  0  0  0  0
  -26.9843  -24.8121   20.5287 H   0  0  0  0  0  0
  -29.8886  -23.8937   20.6514 H   0  0  0  0  0  0
  -28.9348  -23.7563   19.1847 H   0  0  0  0  0  0
  -29.0140  -15.7678   20.9118 H   0  0  0  0  0  0
  1 25  1  0  0  0
  1 30  2  0  0  0
  1 80  1  0  0  0
  2  3  1  0  0  0
  2 25  1  0  0  0
  2 83  1  0  0  0
  2 84  1  0  0  0
  3  4  1  0  0  0
  3 85  1  0  0  0
  3 86  1  0  0  0
  4  5  1  0  0  0
  4 87  1  0  0  0
  4 88  1  0  0  0
  5  6  1  0  0  0
  5 26  1  0  0  0
  5 89  1  0  0  0
  6 25  1  0  0  0
  6 90  1  0  0  0
  6 91  1  0  0  0
  7  8  2  0  0  0
  7 26  1  0  0  0
  7 29  1  0  0  0
  8  9  1  0  0  0
  8 22  1  0  0  0
  9 10  1  0  0  0
  9 27  2  0  0  0
 10 11  2  0  0  0
 10 15  1  0  0  0
 11 12  1  0  0  0
 11 92  1  0  0  0
 12 13  2  0  0  0
 12 93  1  0  0  0
 13 14  1  0  0  0
 13 31  1  0  0  0
 14 15  2  0  0  0
 14 94  1  0  0  0
 15 95  1  0  0  0
 16 17  2  0  0  0
 16 21  1  0  0  0
 16 31  1  0  0  0
 17 18  1  0  0  0
 17 96  1  0  0  0
 18 19  2  0  0  0
 18 97  1  0  0  0
 19 20  1  0  0  0
 19 24  1  0  0  0
 20 21  2  0  0  0
 20 98  1  0  0  0
 21 23  1  0  0  0
 22 28  1  0  0  0
 22 32  2  0  0  0
 26 27  1  0  0  0
 28 99  1  0  0  0
 28100  1  0  0  0
 29101  1  0  0  0
 29102  1  0  0  0
 33 34  1  0  0  0
 33 66  1  0  0  0
 33 70  2  0  0  0
 34 36  1  0  0  0
 34 59  1  0  0  0
 34103  1  0  0  0
 35 44  2  0  0  0
 35 45  1  0  0  0
 35 68  1  0  0  0
 36 56  1  0  0  0
 36104  1  0  0  0
 37 39  1  0  0  0
 37 47  1  0  0  0
 37 66  1  0  0  0
 37105  1  0  0  0
 38 43  2  0  0  0
 38 46  1  0  0  0
 38 47  1  0  0  0
 39 64  1  0  0  0
 39 67  2  0  0  0
 40 52  1  0  0  0
 40 53  2  0  0  0
 40 58  1  0  0  0
 41106  1  0  0  0
 41107  1  0  0  0
 41108  1  0  0  0
 41 48  1  0  0  0
 42 43  1  0  0  0
 42 66  1  0  0  0
 42109  1  0  0  0
 42110  1  0  0  0
 43 44  1  0  0  0
 44111  1  0  0  0
 45 46  2  0  0  0
 45112  1  0  0  0
 46113  1  0  0  0
 47114  1  0  0  0
 47115  1  0  0  0
 48 56  1  0  0  0
 48 65  1  0  0  0
 48116  1  0  0  0
 49 50  1  0  0  0
 49 53  1  0  0  0
 49 64  1  0  0  0
 49117  1  0  0  0
 50 51  1  0  0  0
 50118  1  0  0  0
 50119  1  0  0  0
 51 52  1  0  0  0
 51120  1  0  0  0
 51121  1  0  0  0
 52122  1  0  0  0
 52123  1  0  0  0
 53 54  1  0  0  0
 54 55  2  0  0  0
 54124  1  0  0  0
 55 57  1  0  0  0
 55125  1  0  0  0
 56 69  2  0  0  0
 57 58  2  0  0  0
 57126  1  0  0  0
 58127  1  0  0  0
 59 60  1  0  0  0
 59 61  1  0  0  0
 59 62  1  0  0  0
 60128  1  0  0  0
 60129  1  0  0  0
 60130  1  0  0  0
 61131  1  0  0  0
 61132  1  0  0  0
 61133  1  0  0  0
 62134  1  0  0  0
 62135  1  0  0  0
 62136  1  0  0  0
 63 65  1  0  0  0
 63137  1  0  0  0
 63138  1  0  0  0
 63139  1  0  0  0
 64140  1  0  0  0
 65141  1  0  0  0
 68 78  1  0  0  0
 71 72  2  0  0  0
 71 74  1  0  0  0
 71142  1  0  0  0
 72 75  1  0  0  0
 72143  1  0  0  0
 73 74  2  0  0  0
 73 76  1  0  0  0
 73144  1  0  0  0
 74 77  1  0  0  0
 75 76  2  0  0  0
 75 81  1  0  0  0
 76 82  1  0  0  0
 77 80  1  0  0  0
 77145  1  0  0  0
 77146  1  0  0  0
 78 79  1  0  0  0
 78147  1  0  0  0
 78148  1  0  0  0
 79 81  1  0  0  0
 79149  1  0  0  0
 79150  1  0  0  0
 80151  1  0  0  0
M  ISO  4   1 100  68 101  78 101  80 100
M  END
> <chiral flag>
0

> <version>
0

> <s_m_source_file>
/data/baiqing/PycharmProjects/Reinvent-master-3.2/result/LINK_invent/BTK/process_docking_weight1_custom_product_contain_oxygen_bond_distance_aromatic_linkinvent_7_9_3/rearranged_h_0012.sdf

> <i_m_source_file_index>
49

> <r_mmod_Potential_Energy-OPLS-2005>
57.1438636779785

> <r_mmod_Stretch_Energy-OPLS-2005>
77.1801834106445

> <r_mmod_Bend_Energy-OPLS-2005>
156.112350463867

> <r_mmod_Torsional_Energy-OPLS-2005>
214.515319824219

> <r_mmod_Improper_Torsional_Energy-OPLS-2005>
5.03410863876343

> <r_mmod_Van_der_Waal_Energy-OPLS-2005>
145.950302124023

> <r_mmod_Electrostatic_Energy-OPLS-2005>
-386.678894042969

> <r_mmod_Solvation_Energy-OPLS-2005>
-209.099853515625

> <b_mmod_Minimization_Converged-OPLS-2005>
0

> <r_mmod_RMS_Derivative-OPLS-2005>
0.420190036296844

$$$$
49
                    3D
 Structure written by MMmdl.
153162  0  0  1  0            999 V2000
  -30.5041  -14.9487   20.4277 C   0  0  0  0  0  0
  -30.4546  -12.5902   19.4880 C   0  0  0  0  0  0
  -29.5250  -12.5287   18.2517 C   0  0  0  0  0  0
  -28.0582  -12.3085   18.6739 C   0  0  0  0  0  0
  -27.6339  -13.2393   19.8399 C   0  0  2  0  0  0
  -28.6783  -13.2464   20.9767 C   0  0  0  0  0  0
  -25.2496  -13.8204   20.5718 C   0  0  0  0  0  0
  -24.1801  -13.0435   20.9234 C   0  0  0  0  0  0
  -24.6400  -11.6915   20.8762 C   0  0  0  0  0  0
  -23.9078  -10.4289   21.0417 C   0  0  0  0  0  0
  -24.3627   -9.4204   21.9189 C   0  0  0  0  0  0
  -23.6299   -8.2241   22.0758 C   0  0  0  0  0  0
  -22.4280   -8.0284   21.3547 C   0  0  0  0  0  0
  -21.9918   -9.0258   20.4646 C   0  0  0  0  0  0
  -22.7253  -10.2133   20.3058 C   0  0  0  0  0  0
  -21.6852   -6.0742   22.5281 C   0  0  0  0  0  0
  -21.4013   -6.5643   23.8215 C   0  0  0  0  0  0
  -21.3659   -5.6793   24.9174 C   0  0  0  0  0  0
  -21.6043   -4.3057   24.7221 C   0  0  0  0  0  0
  -21.8819   -3.8149   23.4342 C   0  0  0  0  0  0
  -21.9192   -4.6969   22.3402 C   0  0  0  0  0  0
  -22.7816  -13.5211   21.1889 C   0  0  0  0  0  0
  -22.1658   -4.2157   21.0981 F   0  0  0  0  0  0
  -21.5629   -3.4539   25.7733 F   0  0  0  0  0  0
  -29.9540  -13.6702   20.3818 N   0  0  0  0  0  0
  -26.2908  -12.9410   20.3238 N   0  0  0  0  0  0
  -25.9330  -11.6549   20.5738 N   0  0  0  0  0  0
  -22.0458  -12.8197   22.0434 N   0  0  0  0  0  0
  -25.4149  -15.1943   20.4162 N   0  0  0  0  0  0
  -31.7096  -15.0666   20.1789 O   0  0  0  0  0  0
  -21.6640   -6.8886   21.4242 O   0  0  0  0  0  0
  -22.3499  -14.5522   20.6739 O   0  0  0  0  0  0
  -24.6432  -31.8427   23.1850 C   0  0  0  0  0  0
  -25.9197  -32.4697   23.8249 C   0  0  1  0  0  0
  -27.2259  -27.1367   20.1660 C   0  0  0  0  0  0
  -25.5945  -33.8500   24.2180 N   0  0  0  0  0  0
  -23.4479  -30.4591   21.5304 C   0  0  2  0  0  0
  -24.8984  -28.8748   20.1182 C   0  0  0  0  0  0
  -22.7566  -29.4542   22.4858 C   0  0  0  0  0  0
  -18.0300  -28.1404   22.8483 C   0  0  0  0  0  0
  -24.1480  -36.7244   23.2642 C   0  0  0  0  0  0
  -26.0014  -30.7197   21.3784 C   0  0  0  0  0  0
  -26.0754  -29.3263   20.7290 C   0  0  0  0  0  0
  -27.2427  -28.4757   20.7276 C   0  0  0  0  0  0
  -26.0215  -26.7733   19.5305 C   0  0  0  0  0  0
  -24.8829  -27.6117   19.5033 C   0  0  0  0  0  0
  -23.6752  -29.7783   20.1534 C   0  0  0  0  0  0
  -25.4111  -36.3028   24.0319 C   0  0  1  0  0  0
  -20.5915  -28.3722   23.1240 C   0  0  2  0  0  0
  -20.6783  -26.9425   22.5405 C   0  0  0  0  0  0
  -19.5754  -26.6387   21.5216 C   0  0  0  0  0  0
  -18.1935  -26.7946   22.1625 C   0  0  0  0  0  0
  -19.1558  -28.8879   23.2857 C   0  0  0  0  0  0
  -18.9481  -30.1477   23.8882 C   0  0  0  0  0  0
  -17.6479  -30.6603   24.0566 C   0  0  0  0  0  0
  -25.9068  -34.9410   23.5059 C   0  0  0  0  0  0
  -16.5367  -29.9101   23.6342 C   0  0  0  0  0  0
  -16.7285  -28.6518   23.0363 C   0  0  0  0  0  0
  -26.4524  -31.6563   25.0689 C   0  0  0  0  0  0
  -25.3722  -31.3760   26.1398 C   0  0  0  0  0  0
  -27.0376  -30.2964   24.6237 C   0  0  0  0  0  0
  -27.6060  -32.4319   25.7476 C   0  0  0  0  0  0
  -27.5572  -37.1764   24.8460 C   0  0  0  0  0  0
  -21.4258  -29.3055   22.3613 N   0  0  0  0  0  0
  -26.4267  -37.3751   23.9432 N   0  0  0  0  0  0
  -24.7178  -31.0284   22.0876 N   0  0  0  0  0  0
  -23.4207  -28.8095   23.3016 O   0  0  0  0  0  0
  -28.3080  -26.1877   20.1615 O   0  0  0  0  0  0
  -26.5656  -34.8913   22.4638 O   0  0  0  0  0  0
  -23.5550  -32.1284   23.7075 O   0  0  0  0  0  0
  -30.2724  -19.9540   21.1842 C   0  0  0  0  0  0
  -30.4759  -18.5089   21.1566 C   0  0  0  0  0  0
  -28.4171  -19.7578   19.7614 C   0  0  0  0  0  0
  -29.2301  -20.6841   20.4977 C   0  0  0  0  0  0
  -29.6301  -17.5898   20.4517 C   0  0  0  0  0  0
  -28.5875  -18.3078   19.7625 C   0  0  0  0  0  0
  -29.2036  -24.3813   21.6978 C   0  0  0  0  0  0
  -29.2786  -22.8317   21.9033 C   0  0  0  0  0  0
  -28.4313  -23.2906   19.7547 C   0  0  0  0  0  0
  -28.1731  -24.6957   20.5955 C   0  0  2  0  0  0
  -29.0260  -22.1660   20.6225 N   0  0  0  0  0  0
  -29.6201  -16.0545   20.5264 N   0  0  0  0  0  0
  -27.6779  -17.5666   19.0837 F   0  0  0  0  0  0
  -31.4824  -12.7750   19.1718 H   0  0  0  0  0  0
  -30.4699  -11.6337   20.0126 H   0  0  0  0  0  0
  -29.8448  -11.7327   17.5778 H   0  0  0  0  0  0
  -29.6054  -13.4584   17.6865 H   0  0  0  0  0  0
  -27.9592  -11.2672   18.9830 H   0  0  0  0  0  0
  -27.3916  -12.4364   17.8201 H   0  0  0  0  0  0
  -27.6001  -14.2432   19.4162 H   0  0  0  0  0  0
  -28.7685  -12.2610   21.4366 H   0  0  0  0  0  0
  -28.3779  -13.9302   21.7728 H   0  0  0  0  0  0
  -25.2775   -9.5681   22.4761 H   0  0  0  0  0  0
  -24.0007   -7.4633   22.7479 H   0  0  0  0  0  0
  -21.0850   -8.8780   19.8949 H   0  0  0  0  0  0
  -22.3720  -10.9673   19.6164 H   0  0  0  0  0  0
  -21.2003   -7.6151   23.9722 H   0  0  0  0  0  0
  -21.1480   -6.0521   25.9079 H   0  0  0  0  0  0
  -22.0599   -2.7611   23.2838 H   0  0  0  0  0  0
  -22.4066  -11.9845   22.4809 H   0  0  0  0  0  0
  -21.1074  -13.1221   22.2641 H   0  0  0  0  0  0
  -24.6406  -15.8370   20.5432 H   0  0  0  0  0  0
  -26.2372  -15.6466   20.0374 H   0  0  0  0  0  0
  -26.7264  -32.5309   23.0978 H   0  0  0  0  0  0
  -25.0088  -33.9609   25.0330 H   0  0  0  0  0  0
  -22.7514  -31.2845   21.3702 H   0  0  0  0  0  0
  -23.3760  -35.9558   23.3274 H   0  0  0  0  0  0
  -24.3570  -36.8896   22.2061 H   0  0  0  0  0  0
  -23.7203  -37.6424   23.6686 H   0  0  0  0  0  0
  -26.1457  -31.4684   20.5980 H   0  0  0  0  0  0
  -26.8771  -30.7813   22.0130 H   0  0  0  0  0  0
  -28.1477  -28.8247   21.2046 H   0  0  0  0  0  0
  -25.9524  -25.8025   19.0594 H   0  0  0  0  0  0
  -23.9827  -27.2592   19.0189 H   0  0  0  0  0  0
  -23.8138  -30.5472   19.3925 H   0  0  0  0  0  0
  -22.7910  -29.2178   19.8442 H   0  0  0  0  0  0
  -25.1292  -36.1846   25.0810 H   0  0  0  0  0  0
  -21.0006  -28.3305   24.1361 H   0  0  0  0  0  0
  -20.5671  -26.2338   23.3626 H   0  0  0  0  0  0
  -21.6647  -26.7426   22.1200 H   0  0  0  0  0  0
  -19.6915  -25.6295   21.1250 H   0  0  0  0  0  0
  -19.6694  -27.3197   20.6747 H   0  0  0  0  0  0
  -17.4205  -26.6696   21.4028 H   0  0  0  0  0  0
  -18.0329  -26.0097   22.9026 H   0  0  0  0  0  0
  -19.7960  -30.7299   24.2240 H   0  0  0  0  0  0
  -17.5038  -31.6284   24.5167 H   0  0  0  0  0  0
  -15.5369  -30.3004   23.7684 H   0  0  0  0  0  0
  -15.8680  -28.0836   22.7093 H   0  0  0  0  0  0
  -24.5904  -30.7097   25.7730 H   0  0  0  0  0  0
  -24.8917  -32.2953   26.4757 H   0  0  0  0  0  0
  -25.8021  -30.8982   27.0210 H   0  0  0  0  0  0
  -26.2974  -29.6698   24.1247 H   0  0  0  0  0  0
  -27.4017  -29.7241   25.4780 H   0  0  0  0  0  0
  -27.8868  -30.4213   23.9515 H   0  0  0  0  0  0
  -27.2669  -33.3665   26.1953 H   0  0  0  0  0  0
  -28.3934  -32.6790   25.0344 H   0  0  0  0  0  0
  -28.0651  -31.8498   26.5475 H   0  0  0  0  0  0
  -28.2545  -38.0106   24.7564 H   0  0  0  0  0  0
  -28.1109  -36.2635   24.6205 H   0  0  0  0  0  0
  -27.2306  -37.1310   25.8866 H   0  0  0  0  0  0
  -20.9464  -29.8775   21.6799 H   0  0  0  0  0  0
  -26.0126  -38.2803   24.1496 H   0  0  0  0  0  0
  -30.9723  -20.5185   21.7831 H   0  0  0  0  0  0
  -31.2846  -18.1031   21.7470 H   0  0  0  0  0  0
  -27.5822  -20.1552   19.2042 H   0  0  0  0  0  0
  -30.1810  -24.7370   21.3703 H   0  0  0  0  0  0
  -28.9774  -24.9026   22.6282 H   0  0  0  0  0  0
  -28.5104  -22.5178   22.6114 H   0  0  0  0  0  0
  -30.2415  -22.5510   22.3301 H   0  0  0  0  0  0
  -29.1354  -23.4884   18.9457 H   0  0  0  0  0  0
  -27.5066  -22.9572   19.2810 H   0  0  0  0  0  0
  -27.1868  -24.6017   21.0531 H   0  0  0  0  0  0
  -28.6743  -15.7065   20.5422 H   0  0  0  0  0  0
  1 25  1  0  0  0
  1 30  2  0  0  0
  1 82  1  0  0  0
  2  3  1  0  0  0
  2 25  1  0  0  0
  2 84  1  0  0  0
  2 85  1  0  0  0
  3  4  1  0  0  0
  3 86  1  0  0  0
  3 87  1  0  0  0
  4  5  1  0  0  0
  4 88  1  0  0  0
  4 89  1  0  0  0
  5  6  1  0  0  0
  5 26  1  0  0  0
  5 90  1  0  0  0
  6 25  1  0  0  0
  6 91  1  0  0  0
  6 92  1  0  0  0
  7  8  2  0  0  0
  7 26  1  0  0  0
  7 29  1  0  0  0
  8  9  1  0  0  0
  8 22  1  0  0  0
  9 10  1  0  0  0
  9 27  2  0  0  0
 10 11  2  0  0  0
 10 15  1  0  0  0
 11 12  1  0  0  0
 11 93  1  0  0  0
 12 13  2  0  0  0
 12 94  1  0  0  0
 13 14  1  0  0  0
 13 31  1  0  0  0
 14 15  2  0  0  0
 14 95  1  0  0  0
 15 96  1  0  0  0
 16 17  2  0  0  0
 16 21  1  0  0  0
 16 31  1  0  0  0
 17 18  1  0  0  0
 17 97  1  0  0  0
 18 19  2  0  0  0
 18 98  1  0  0  0
 19 20  1  0  0  0
 19 24  1  0  0  0
 20 21  2  0  0  0
 20 99  1  0  0  0
 21 23  1  0  0  0
 22 28  1  0  0  0
 22 32  2  0  0  0
 26 27  1  0  0  0
 28100  1  0  0  0
 28101  1  0  0  0
 29102  1  0  0  0
 29103  1  0  0  0
 33 34  1  0  0  0
 33 66  1  0  0  0
 33 70  2  0  0  0
 34 36  1  0  0  0
 34 59  1  0  0  0
 34104  1  0  0  0
 35 44  2  0  0  0
 35 45  1  0  0  0
 35 68  1  0  0  0
 36 56  1  0  0  0
 36105  1  0  0  0
 37 39  1  0  0  0
 37 47  1  0  0  0
 37 66  1  0  0  0
 37106  1  0  0  0
 38 43  2  0  0  0
 38 46  1  0  0  0
 38 47  1  0  0  0
 39 64  1  0  0  0
 39 67  2  0  0  0
 40 52  1  0  0  0
 40 53  2  0  0  0
 40 58  1  0  0  0
 41107  1  0  0  0
 41108  1  0  0  0
 41109  1  0  0  0
 41 48  1  0  0  0
 42 43  1  0  0  0
 42 66  1  0  0  0
 42110  1  0  0  0
 42111  1  0  0  0
 43 44  1  0  0  0
 44112  1  0  0  0
 45 46  2  0  0  0
 45113  1  0  0  0
 46114  1  0  0  0
 47115  1  0  0  0
 47116  1  0  0  0
 48 56  1  0  0  0
 48 65  1  0  0  0
 48117  1  0  0  0
 49 50  1  0  0  0
 49 53  1  0  0  0
 49 64  1  0  0  0
 49118  1  0  0  0
 50 51  1  0  0  0
 50119  1  0  0  0
 50120  1  0  0  0
 51 52  1  0  0  0
 51121  1  0  0  0
 51122  1  0  0  0
 52123  1  0  0  0
 52124  1  0  0  0
 53 54  1  0  0  0
 54 55  2  0  0  0
 54125  1  0  0  0
 55 57  1  0  0  0
 55126  1  0  0  0
 56 69  2  0  0  0
 57 58  2  0  0  0
 57127  1  0  0  0
 58128  1  0  0  0
 59 60  1  0  0  0
 59 61  1  0  0  0
 59 62  1  0  0  0
 60129  1  0  0  0
 60130  1  0  0  0
 60131  1  0  0  0
 61132  1  0  0  0
 61133  1  0  0  0
 61134  1  0  0  0
 62135  1  0  0  0
 62136  1  0  0  0
 62137  1  0  0  0
 63 65  1  0  0  0
 63138  1  0  0  0
 63139  1  0  0  0
 63140  1  0  0  0
 64141  1  0  0  0
 65142  1  0  0  0
 68 80  1  0  0  0
 71 72  2  0  0  0
 71 74  1  0  0  0
 71143  1  0  0  0
 72 75  1  0  0  0
 72144  1  0  0  0
 73 74  2  0  0  0
 73 76  1  0  0  0
 73145  1  0  0  0
 74 81  1  0  0  0
 75 76  2  0  0  0
 75 82  1  0  0  0
 76 83  1  0  0  0
 77 78  1  0  0  0
 77 80  1  0  0  0
 77146  1  0  0  0
 77147  1  0  0  0
 78 81  1  0  0  0
 78148  1  0  0  0
 78149  1  0  0  0
 79 80  1  0  0  0
 79 81  1  0  0  0
 79150  1  0  0  0
 79151  1  0  0  0
 80152  1  0  0  0
 82153  1  0  0  0
M  ISO  4   1 100  68 101  80 101  82 100
M  END
> <chiral flag>
0

> <version>
0

> <s_m_source_file>
/data/baiqing/PycharmProjects/Reinvent-master-3.2/result/LINK_invent/BTK/process_docking_weight1_custom_product_contain_oxygen_bond_distance_aromatic_linkinvent_7_9_3/rearranged_h_0012.sdf

> <i_m_source_file_index>
50

> <r_mmod_Potential_Energy-OPLS-2005>
511.134216308594

> <r_mmod_Stretch_Energy-OPLS-2005>
215.138229370117

> <r_mmod_Bend_Energy-OPLS-2005>
311.854766845703

> <r_mmod_Torsional_Energy-OPLS-2005>
297.146484375

> <r_mmod_Improper_Torsional_Energy-OPLS-2005>
6.74517917633057

> <r_mmod_Van_der_Waal_Energy-OPLS-2005>
122.15104675293

> <r_mmod_Electrostatic_Energy-OPLS-2005>
-410.138092041016

> <r_mmod_Solvation_Energy-OPLS-2005>
-221.11376953125

> <b_mmod_Minimization_Converged-OPLS-2005>
0

> <r_mmod_RMS_Derivative-OPLS-2005>
0.983909428119659

$$$$
50
                    3D
 Structure written by MMmdl.
157166  0  0  1  0            999 V2000
  -30.6102  -14.7612   20.4871 C   0  0  0  0  0  0
  -30.4444  -12.4745   19.4597 C   0  0  0  0  0  0
  -29.5100  -12.5106   18.2254 C   0  0  0  0  0  0
  -28.0377  -12.3185   18.6474 C   0  0  0  0  0  0
  -27.6420  -13.2254   19.8430 C   0  0  2  0  0  0
  -28.6896  -13.1654   20.9770 C   0  0  0  0  0  0
  -25.2515  -13.8178   20.5658 C   0  0  0  0  0  0
  -24.1813  -13.0438   20.9200 C   0  0  0  0  0  0
  -24.6370  -11.6911   20.8737 C   0  0  0  0  0  0
  -23.9032  -10.4287   21.0414 C   0  0  0  0  0  0
  -24.3591   -9.4203   21.9194 C   0  0  0  0  0  0
  -23.6261   -8.2237   22.0777 C   0  0  0  0  0  0
  -22.4242   -8.0266   21.3560 C   0  0  0  0  0  0
  -21.9873   -9.0237   20.4662 C   0  0  0  0  0  0
  -22.7200  -10.2119   20.3064 C   0  0  0  0  0  0
  -21.6839   -6.0694   22.5267 C   0  0  0  0  0  0
  -21.4015   -6.5608   23.8200 C   0  0  0  0  0  0
  -21.3685   -5.6783   24.9179 C   0  0  0  0  0  0
  -21.6045   -4.3032   24.7237 C   0  0  0  0  0  0
  -21.8825   -3.8113   23.4353 C   0  0  0  0  0  0
  -21.9196   -4.6925   22.3410 C   0  0  0  0  0  0
  -22.7842  -13.5247   21.1865 C   0  0  0  0  0  0
  -22.1675   -4.2116   21.0976 F   0  0  0  0  0  0
  -21.5647   -3.4519   25.7750 F   0  0  0  0  0  0
  -29.9914  -13.5318   20.3955 N   0  0  0  0  0  0
  -26.2926  -12.9368   20.3228 N   0  0  0  0  0  0
  -25.9301  -11.6512   20.5739 N   0  0  0  0  0  0
  -22.0460  -12.8269   22.0406 N   0  0  0  0  0  0
  -25.4188  -15.1897   20.4017 N   0  0  0  0  0  0
  -31.8024  -14.8772   20.1869 O   0  0  0  0  0  0
  -21.6621   -6.8841   21.4236 O   0  0  0  0  0  0
  -22.3526  -14.5532   20.6679 O   0  0  0  0  0  0
  -24.6346  -31.8526   23.1928 C   0  0  0  0  0  0
  -25.9172  -32.4726   23.8309 C   0  0  1  0  0  0
  -27.2272  -27.2476   20.1558 C   0  0  0  0  0  0
  -25.5955  -33.8518   24.2253 N   0  0  0  0  0  0
  -23.4326  -30.4728   21.5309 C   0  0  2  0  0  0
  -24.8852  -28.9070   20.1145 C   0  0  0  0  0  0
  -22.7540  -29.4576   22.4844 C   0  0  0  0  0  0
  -18.0318  -28.1382   22.8450 C   0  0  0  0  0  0
  -24.1484  -36.7293   23.2638 C   0  0  0  0  0  0
  -25.9777  -30.7615   21.3741 C   0  0  0  0  0  0
  -26.0524  -29.3755   20.7313 C   0  0  0  0  0  0
  -27.2269  -28.5560   20.7446 C   0  0  0  0  0  0
  -26.0408  -26.8391   19.5145 C   0  0  0  0  0  0
  -24.8819  -27.6441   19.4970 C   0  0  0  0  0  0
  -23.6600  -29.8019   20.1495 C   0  0  0  0  0  0
  -25.4092  -36.3053   24.0341 C   0  0  1  0  0  0
  -20.5922  -28.3699   23.1234 C   0  0  2  0  0  0
  -20.6793  -26.9393   22.5404 C   0  0  0  0  0  0
  -19.5785  -26.6382   21.5174 C   0  0  0  0  0  0
  -18.1941  -26.7982   22.1501 C   0  0  0  0  0  0
  -19.1563  -28.8841   23.2870 C   0  0  0  0  0  0
  -18.9470  -30.1417   23.8952 C   0  0  0  0  0  0
  -17.6465  -30.6547   24.0572 C   0  0  0  0  0  0
  -25.9043  -34.9423   23.5106 C   0  0  0  0  0  0
  -16.5364  -29.9063   23.6292 C   0  0  0  0  0  0
  -16.7307  -28.6472   23.0329 C   0  0  0  0  0  0
  -26.4536  -31.6537   25.0700 C   0  0  0  0  0  0
  -25.3770  -31.3711   26.1431 C   0  0  0  0  0  0
  -27.0371  -30.2951   24.6193 C   0  0  0  0  0  0
  -27.6089  -32.4272   25.7495 C   0  0  0  0  0  0
  -27.5568  -37.1779   24.8462 C   0  0  0  0  0  0
  -21.4230  -29.3053   22.3621 N   0  0  0  0  0  0
  -26.4269  -37.3753   23.9427 N   0  0  0  0  0  0
  -24.7003  -31.0485   22.0911 N   0  0  0  0  0  0
  -23.4221  -28.8101   23.2938 O   0  0  0  0  0  0
  -28.3236  -26.3551   20.1431 O   0  0  0  0  0  0
  -26.5617  -34.8913   22.4682 O   0  0  0  0  0  0
  -23.5486  -32.1358   23.7212 O   0  0  0  0  0  0
  -27.7464  -23.6433   22.6809 C   0  0  0  0  0  0
  -28.2022  -22.4663   22.0483 C   0  0  0  0  0  0
  -27.7654  -24.8976   22.0250 C   0  0  0  0  0  0
  -28.7229  -23.8032   20.0839 C   0  0  0  0  0  0
  -28.7001  -22.4881   20.7260 C   0  0  0  0  0  0
  -28.2575  -25.0391   20.7085 C   0  0  0  0  0  0
  -31.3446  -18.0676   20.5370 C   0  0  0  0  0  0
  -31.0813  -19.6119   20.6992 C   0  0  0  0  0  0
  -29.0229  -18.4757   20.5142 C   0  0  0  0  0  0
  -30.0584  -17.3702   21.0204 C   0  0  1  0  0  0
  -29.0589  -21.0931   20.0127 C   0  0  0  0  0  0
  -29.8123  -15.8699   20.7356 N   0  0  0  0  0  0
  -29.6062  -19.8589   20.7807 N   0  3  2  0  0  0
  -31.4847  -12.6101   19.1534 H   0  0  0  0  0  0
  -30.4043  -11.4964   19.9433 H   0  0  0  0  0  0
  -29.7946  -11.7397   17.5044 H   0  0  0  0  0  0
  -29.6195  -13.4647   17.7053 H   0  0  0  0  0  0
  -27.9015  -11.2682   18.9136 H   0  0  0  0  0  0
  -27.3772  -12.5067   17.8003 H   0  0  0  0  0  0
  -27.6350  -14.2448   19.4547 H   0  0  0  0  0  0
  -28.7312  -12.1692   21.4161 H   0  0  0  0  0  0
  -28.4151  -13.8405   21.7918 H   0  0  0  0  0  0
  -25.2742   -9.5639   22.4776 H   0  0  0  0  0  0
  -23.9954   -7.4621   22.7496 H   0  0  0  0  0  0
  -21.0797   -8.8741   19.8974 H   0  0  0  0  0  0
  -22.3645  -10.9655   19.6171 H   0  0  0  0  0  0
  -21.2002   -7.6123   23.9689 H   0  0  0  0  0  0
  -21.1507   -6.0515   25.9078 H   0  0  0  0  0  0
  -22.0571   -2.7567   23.2870 H   0  0  0  0  0  0
  -22.4054  -11.9933   22.4797 H   0  0  0  0  0  0
  -21.1107  -13.1357   22.2631 H   0  0  0  0  0  0
  -24.6308  -15.8265   20.4613 H   0  0  0  0  0  0
  -26.2300  -15.6092   19.9664 H   0  0  0  0  0  0
  -26.7229  -32.5405   23.1034 H   0  0  0  0  0  0
  -25.0083  -33.9608   25.0392 H   0  0  0  0  0  0
  -22.7317  -31.2957   21.3768 H   0  0  0  0  0  0
  -23.3723  -35.9645   23.3273 H   0  0  0  0  0  0
  -24.3602  -36.8948   22.2061 H   0  0  0  0  0  0
  -23.7254  -37.6500   23.6677 H   0  0  0  0  0  0
  -26.1128  -31.5065   20.5881 H   0  0  0  0  0  0
  -26.8575  -30.8236   22.0045 H   0  0  0  0  0  0
  -28.1263  -28.9107   21.2288 H   0  0  0  0  0  0
  -26.0107  -25.8685   19.0407 H   0  0  0  0  0  0
  -23.9911  -27.2768   19.0077 H   0  0  0  0  0  0
  -23.8065  -30.5773   19.3970 H   0  0  0  0  0  0
  -22.7772  -29.2447   19.8289 H   0  0  0  0  0  0
  -25.1239  -36.1882   25.0822 H   0  0  0  0  0  0
  -21.0008  -28.3285   24.1345 H   0  0  0  0  0  0
  -20.5634  -26.2288   23.3603 H   0  0  0  0  0  0
  -21.6680  -26.7399   22.1241 H   0  0  0  0  0  0
  -19.6931  -25.6280   21.1227 H   0  0  0  0  0  0
  -19.6814  -27.3171   20.6697 H   0  0  0  0  0  0
  -17.4270  -26.6875   21.3822 H   0  0  0  0  0  0
  -18.0198  -26.0060   22.8793 H   0  0  0  0  0  0
  -19.7943  -30.7210   24.2373 H   0  0  0  0  0  0
  -17.5024  -31.6215   24.5211 H   0  0  0  0  0  0
  -15.5369  -30.2966   23.7574 H   0  0  0  0  0  0
  -15.8719  -28.0795   22.7005 H   0  0  0  0  0  0
  -24.5957  -30.7024   25.7794 H   0  0  0  0  0  0
  -24.8943  -32.2878   26.4831 H   0  0  0  0  0  0
  -25.8101  -30.8940   27.0228 H   0  0  0  0  0  0
  -26.2940  -29.6691   24.1237 H   0  0  0  0  0  0
  -27.4060  -29.7224   25.4712 H   0  0  0  0  0  0
  -27.8828  -30.4203   23.9428 H   0  0  0  0  0  0
  -27.2691  -33.3571   26.2072 H   0  0  0  0  0  0
  -28.3918  -32.6825   25.0338 H   0  0  0  0  0  0
  -28.0737  -31.8395   26.5420 H   0  0  0  0  0  0
  -28.2534  -38.0120   24.7488 H   0  0  0  0  0  0
  -28.1095  -36.2629   24.6245 H   0  0  0  0  0  0
  -27.2313  -37.1395   25.8879 H   0  0  0  0  0  0
  -20.9395  -29.8905   21.6957 H   0  0  0  0  0  0
  -26.0141  -38.2832   24.1419 H   0  0  0  0  0  0
  -27.3596  -23.5811   23.6884 H   0  0  0  0  0  0
  -28.1352  -21.5330   22.5894 H   0  0  0  0  0  0
  -27.4000  -25.7660   22.5551 H   0  0  0  0  0  0
  -29.0885  -23.8683   19.0688 H   0  0  0  0  0  0
  -32.2293  -17.7554   21.0958 H   0  0  0  0  0  0
  -31.5264  -17.8377   19.4871 H   0  0  0  0  0  0
  -31.5488  -20.1658   19.8844 H   0  0  0  0  0  0
  -31.5393  -19.9731   21.6220 H   0  0  0  0  0  0
  -28.0430  -18.3707   20.9859 H   0  0  0  0  0  0
  -28.8691  -18.3545   19.4409 H   0  0  0  0  0  0
  -30.0728  -17.4356   22.1105 H   0  0  0  0  0  0
  -29.7113  -21.2997   19.1634 H   0  0  0  0  0  0
  -28.1197  -20.7693   19.5621 H   0  0  0  0  0  0
  -28.8494  -15.5994   20.8717 H   0  0  0  0  0  0
  -29.4094  -20.0328   21.7555 H   0  0  0  0  0  0
  1 25  1  0  0  0
  1 30  2  0  0  0
  1 82  1  0  0  0
  2  3  1  0  0  0
  2 25  1  0  0  0
  2 84  1  0  0  0
  2 85  1  0  0  0
  3  4  1  0  0  0
  3 86  1  0  0  0
  3 87  1  0  0  0
  4  5  1  0  0  0
  4 88  1  0  0  0
  4 89  1  0  0  0
  5  6  1  0  0  0
  5 26  1  0  0  0
  5 90  1  0  0  0
  6 25  1  0  0  0
  6 91  1  0  0  0
  6 92  1  0  0  0
  7  8  2  0  0  0
  7 26  1  0  0  0
  7 29  1  0  0  0
  8  9  1  0  0  0
  8 22  1  0  0  0
  9 10  1  0  0  0
  9 27  2  0  0  0
 10 11  2  0  0  0
 10 15  1  0  0  0
 11 12  1  0  0  0
 11 93  1  0  0  0
 12 13  2  0  0  0
 12 94  1  0  0  0
 13 14  1  0  0  0
 13 31  1  0  0  0
 14 15  2  0  0  0
 14 95  1  0  0  0
 15 96  1  0  0  0
 16 17  2  0  0  0
 16 21  1  0  0  0
 16 31  1  0  0  0
 17 18  1  0  0  0
 17 97  1  0  0  0
 18 19  2  0  0  0
 18 98  1  0  0  0
 19 20  1  0  0  0
 19 24  1  0  0  0
 20 21  2  0  0  0
 20 99  1  0  0  0
 21 23  1  0  0  0
 22 28  1  0  0  0
 22 32  2  0  0  0
 26 27  1  0  0  0
 28100  1  0  0  0
 28101  1  0  0  0
 29102  1  0  0  0
 29103  1  0  0  0
 33 34  1  0  0  0
 33 66  1  0  0  0
 33 70  2  0  0  0
 34 36  1  0  0  0
 34 59  1  0  0  0
 34104  1  0  0  0
 35 44  2  0  0  0
 35 45  1  0  0  0
 35 68  1  0  0  0
 36 56  1  0  0  0
 36105  1  0  0  0
 37 39  1  0  0  0
 37 47  1  0  0  0
 37 66  1  0  0  0
 37106  1  0  0  0
 38 43  2  0  0  0
 38 46  1  0  0  0
 38 47  1  0  0  0
 39 64  1  0  0  0
 39 67  2  0  0  0
 40 52  1  0  0  0
 40 53  2  0  0  0
 40 58  1  0  0  0
 41107  1  0  0  0
 41108  1  0  0  0
 41109  1  0  0  0
 41 48  1  0  0  0
 42 43  1  0  0  0
 42 66  1  0  0  0
 42110  1  0  0  0
 42111  1  0  0  0
 43 44  1  0  0  0
 44112  1  0  0  0
 45 46  2  0  0  0
 45113  1  0  0  0
 46114  1  0  0  0
 47115  1  0  0  0
 47116  1  0  0  0
 48 56  1  0  0  0
 48 65  1  0  0  0
 48117  1  0  0  0
 49 50  1  0  0  0
 49 53  1  0  0  0
 49 64  1  0  0  0
 49118  1  0  0  0
 50 51  1  0  0  0
 50119  1  0  0  0
 50120  1  0  0  0
 51 52  1  0  0  0
 51121  1  0  0  0
 51122  1  0  0  0
 52123  1  0  0  0
 52124  1  0  0  0
 53 54  1  0  0  0
 54 55  2  0  0  0
 54125  1  0  0  0
 55 57  1  0  0  0
 55126  1  0  0  0
 56 69  2  0  0  0
 57 58  2  0  0  0
 57127  1  0  0  0
 58128  1  0  0  0
 59 60  1  0  0  0
 59 61  1  0  0  0
 59 62  1  0  0  0
 60129  1  0  0  0
 60130  1  0  0  0
 60131  1  0  0  0
 61132  1  0  0  0
 61133  1  0  0  0
 61134  1  0  0  0
 62135  1  0  0  0
 62136  1  0  0  0
 62137  1  0  0  0
 63 65  1  0  0  0
 63138  1  0  0  0
 63139  1  0  0  0
 63140  1  0  0  0
 64141  1  0  0  0
 65142  1  0  0  0
 68 76  1  0  0  0
 71 72  2  0  0  0
 71 73  1  0  0  0
 71143  1  0  0  0
 72 75  1  0  0  0
 72144  1  0  0  0
 73 76  2  0  0  0
 73145  1  0  0  0
 74 75  2  0  0  0
 74 76  1  0  0  0
 74146  1  0  0  0
 75 81  1  0  0  0
 77 78  1  0  0  0
 77 80  1  0  0  0
 77147  1  0  0  0
 77148  1  0  0  0
 78 83  1  0  0  0
 78149  1  0  0  0
 78150  1  0  0  0
 79 80  1  0  0  0
 79 83  1  0  0  0
 79151  1  0  0  0
 79152  1  0  0  0
 80 82  1  0  0  0
 80153  1  0  0  0
 81154  1  0  0  0
 81155  1  0  0  0
 81 83  1  0  0  0
 82156  1  0  0  0
 83157  1  0  0  0
M  CHG  1  83   1
M  ISO  4   1 100  68 101  76 101  82 100
M  END
> <chiral flag>
0

> <version>
0

> <s_m_source_file>
/data/baiqing/PycharmProjects/Reinvent-master-3.2/result/LINK_invent/BTK/process_docking_weight1_custom_product_contain_oxygen_bond_distance_aromatic_linkinvent_7_9_3/rearranged_h_0012.sdf

> <i_m_source_file_index>
51

> <r_mmod_Potential_Energy-OPLS-2005>
75.1715469360352

> <r_mmod_Stretch_Energy-OPLS-2005>
125.835273742676

> <r_mmod_Bend_Energy-OPLS-2005>
202.817001342773

> <r_mmod_Torsional_Energy-OPLS-2005>
262.529449462891

> <r_mmod_Improper_Torsional_Energy-OPLS-2005>
5.25443315505981

> <r_mmod_Van_der_Waal_Energy-OPLS-2005>
122.814468383789

> <r_mmod_Electrostatic_Energy-OPLS-2005>
-269.863311767578

> <r_mmod_Solvation_Energy-OPLS-2005>
-466.777648925781

> <b_mmod_Minimization_Converged-OPLS-2005>
0

> <r_mmod_RMS_Derivative-OPLS-2005>
4.29007434844971

$$$$
51
                    3D
 Structure written by MMmdl.
169178  0  0  1  0            999 V2000
  -30.6391  -14.7410   20.4063 C   0  0  0  0  0  0
  -30.4444  -12.4448   19.4444 C   0  0  0  0  0  0
  -29.4915  -12.4333   18.2303 C   0  0  0  0  0  0
  -28.0410  -12.1860   18.6910 C   0  0  0  0  0  0
  -27.6464  -13.1000   19.8676 C   0  0  2  0  0  0
  -28.7257  -13.1071   20.9858 C   0  0  0  0  0  0
  -25.2582  -13.7844   20.5691 C   0  0  0  0  0  0
  -24.1772  -13.0303   20.9288 C   0  0  0  0  0  0
  -24.6237  -11.6747   20.8889 C   0  0  0  0  0  0
  -23.8885  -10.4220   21.0459 C   0  0  0  0  0  0
  -24.3486   -9.4163   21.9214 C   0  0  0  0  0  0
  -23.6220   -8.2196   22.0758 C   0  0  0  0  0  0
  -22.4218   -8.0226   21.3539 C   0  0  0  0  0  0
  -21.9815   -9.0191   20.4644 C   0  0  0  0  0  0
  -22.7098  -10.2080   20.3070 C   0  0  0  0  0  0
  -21.6849   -6.0731   22.5288 C   0  0  0  0  0  0
  -21.4053   -6.5653   23.8217 C   0  0  0  0  0  0
  -21.3655   -5.6783   24.9169 C   0  0  0  0  0  0
  -21.6011   -4.3051   24.7196 C   0  0  0  0  0  0
  -21.8823   -3.8157   23.4329 C   0  0  0  0  0  0
  -21.9199   -4.6978   22.3393 C   0  0  0  0  0  0
  -22.7815  -13.5232   21.1850 C   0  0  0  0  0  0
  -22.1645   -4.2178   21.0969 F   0  0  0  0  0  0
  -21.5577   -3.4530   25.7712 F   0  0  0  0  0  0
  -29.9854  -13.5225   20.3512 N   0  0  0  0  0  0
  -26.2940  -12.8810   20.3504 N   0  0  0  0  0  0
  -25.9145  -11.6106   20.6035 N   0  0  0  0  0  0
  -22.0361  -12.8311   22.0378 N   0  0  0  0  0  0
  -25.4173  -15.1527   20.3833 N   0  0  0  0  0  0
  -31.8595  -14.7620   20.2196 O   0  0  0  0  0  0
  -21.6622   -6.8841   21.4226 O   0  0  0  0  0  0
  -22.3586  -14.5553   20.6641 O   0  0  0  0  0  0
  -24.6156  -31.8619   23.2044 C   0  0  0  0  0  0
  -25.9020  -32.4801   23.8367 C   0  0  1  0  0  0
  -27.2618  -27.3879   20.1011 C   0  0  0  0  0  0
  -25.5859  -33.8604   24.2311 N   0  0  0  0  0  0
  -23.4092  -30.4789   21.5465 C   0  0  2  0  0  0
  -24.8616  -28.9309   20.1177 C   0  0  0  0  0  0
  -22.7424  -29.4620   22.5002 C   0  0  0  0  0  0
  -18.0262  -28.1384   22.8506 C   0  0  0  0  0  0
  -24.1478  -36.7311   23.2649 C   0  0  0  0  0  0
  -25.9401  -30.8106   21.3655 C   0  0  0  0  0  0
  -26.0198  -29.4380   20.7174 C   0  0  0  0  0  0
  -27.2112  -28.6722   20.7065 C   0  0  0  0  0  0
  -26.0764  -26.9000   19.4979 C   0  0  0  0  0  0
  -24.8880  -27.6637   19.5074 C   0  0  0  0  0  0
  -23.6205  -29.7980   20.1652 C   0  0  0  0  0  0
  -25.4099  -36.3113   24.0351 C   0  0  1  0  0  0
  -20.5854  -28.3673   23.1329 C   0  0  2  0  0  0
  -20.6752  -26.9410   22.5436 C   0  0  0  0  0  0
  -19.5730  -26.6385   21.5233 C   0  0  0  0  0  0
  -18.1907  -26.7924   22.1635 C   0  0  0  0  0  0
  -19.1512  -28.8843   23.2905 C   0  0  0  0  0  0
  -18.9441  -30.1459   23.8913 C   0  0  0  0  0  0
  -17.6446  -30.6594   24.0567 C   0  0  0  0  0  0
  -25.9019  -34.9474   23.5139 C   0  0  0  0  0  0
  -16.5337  -29.9100   23.6335 C   0  0  0  0  0  0
  -16.7255  -28.6511   23.0358 C   0  0  0  0  0  0
  -26.4444  -31.6597   25.0721 C   0  0  0  0  0  0
  -25.3689  -31.3720   26.1459 C   0  0  0  0  0  0
  -27.0297  -30.3038   24.6132 C   0  0  0  0  0  0
  -27.6025  -32.4327   25.7465 C   0  0  0  0  0  0
  -27.5579  -37.1809   24.8465 C   0  0  0  0  0  0
  -21.4137  -29.3031   22.3732 N   0  0  0  0  0  0
  -26.4293  -37.3794   23.9410 N   0  0  0  0  0  0
  -24.6741  -31.0651   22.0984 N   0  0  0  0  0  0
  -23.4171  -28.8184   23.3070 O   0  0  0  0  0  0
  -28.4713  -26.6972   20.1367 O   0  0  0  0  0  0
  -26.5598  -34.8930   22.4717 O   0  0  0  0  0  0
  -23.5330  -32.1418   23.7396 O   0  0  0  0  0  0
  -30.5107  -18.7940   18.0226 C   0  0  0  0  0  0
  -30.8076  -19.8662   18.8714 C   0  0  0  0  0  0
  -30.7688  -18.3417   20.7923 C   0  0  0  0  0  0
  -30.2462  -17.5294   18.5744 C   0  0  0  0  0  0
  -30.8323  -19.6797   20.2665 C   0  0  0  0  0  0
  -30.5061  -17.2244   19.9349 C   0  0  0  0  0  0
  -29.2894  -16.6251   17.8390 C   0  0  0  0  0  0
  -28.0767  -16.4357   18.7778 C   0  0  0  0  0  0
  -28.4896  -16.1598   20.2752 C   0  0  0  0  0  0
  -30.1192  -24.8462   21.6647 C   0  0  0  0  0  0
  -28.4944  -21.1836   21.6788 C   0  0  0  0  0  0
  -30.9434  -20.9511   21.1429 C   0  0  0  0  0  0
  -29.5067  -22.8823   20.1743 C   0  0  0  0  0  0
  -28.6866  -25.3519   19.6217 C   0  0  0  0  0  0
  -29.0339  -24.2867   20.7243 C   0  0  2  0  0  0
  -29.9425  -15.9627   20.4066 N   0  0  0  0  0  0
  -29.7410  -21.8619   21.2555 N   0  3  1  0  0  0
  -31.4706  -12.5945   19.1047 H   0  0  0  0  0  0
  -30.4425  -11.4748   19.9459 H   0  0  0  0  0  0
  -29.7949  -11.6568   17.5275 H   0  0  0  0  0  0
  -29.5613  -13.3784   17.6928 H   0  0  0  0  0  0
  -27.9688  -11.1460   19.0136 H   0  0  0  0  0  0
  -27.3417  -12.3042   17.8621 H   0  0  0  0  0  0
  -27.6111  -14.0365   19.3663 H   0  0  0  0  0  0
  -28.8365  -12.1123   21.4190 H   0  0  0  0  0  0
  -28.4763  -13.7516   21.8313 H   0  0  0  0  0  0
  -25.2601   -9.5689   22.4809 H   0  0  0  0  0  0
  -23.9951   -7.4602   22.7472 H   0  0  0  0  0  0
  -21.0763   -8.8660   19.8960 H   0  0  0  0  0  0
  -22.3517  -10.9613   19.6194 H   0  0  0  0  0  0
  -21.2098   -7.6167   23.9759 H   0  0  0  0  0  0
  -21.1441   -6.0489   25.9074 H   0  0  0  0  0  0
  -22.0610   -2.7631   23.2786 H   0  0  0  0  0  0
  -22.3945  -12.0029   22.4890 H   0  0  0  0  0  0
  -21.0947  -13.1324   22.2470 H   0  0  0  0  0  0
  -24.6424  -15.7998   20.4750 H   0  0  0  0  0  0
  -26.2624  -15.5877   20.0390 H   0  0  0  0  0  0
  -26.7085  -32.5497   23.1122 H   0  0  0  0  0  0
  -24.9981  -33.9755   25.0435 H   0  0  0  0  0  0
  -22.7026  -31.2977   21.3978 H   0  0  0  0  0  0
  -23.3737  -35.9645   23.3322 H   0  0  0  0  0  0
  -24.3575  -36.8909   22.2060 H   0  0  0  0  0  0
  -23.7219  -37.6524   23.6643 H   0  0  0  0  0  0
  -26.0462  -31.5719   20.5913 H   0  0  0  0  0  0
  -26.8289  -30.8742   21.9821 H   0  0  0  0  0  0
  -28.1036  -29.0634   21.1764 H   0  0  0  0  0  0
  -26.0379  -25.9354   19.0160 H   0  0  0  0  0  0
  -23.9952  -27.2679   19.0422 H   0  0  0  0  0  0
  -23.7202  -30.5647   19.3956 H   0  0  0  0  0  0
  -22.7480  -29.2074   19.8788 H   0  0  0  0  0  0
  -25.1271  -36.1998   25.0844 H   0  0  0  0  0  0
  -20.9931  -28.3235   24.1452 H   0  0  0  0  0  0
  -20.5659  -26.2287   23.3626 H   0  0  0  0  0  0
  -21.6618  -26.7457   22.1219 H   0  0  0  0  0  0
  -19.6887  -25.6294   21.1260 H   0  0  0  0  0  0
  -19.6658  -27.3199   20.6765 H   0  0  0  0  0  0
  -17.4183  -26.6701   21.4027 H   0  0  0  0  0  0
  -18.0285  -26.0062   22.9022 H   0  0  0  0  0  0
  -19.7925  -30.7267   24.2279 H   0  0  0  0  0  0
  -17.5008  -31.6276   24.5161 H   0  0  0  0  0  0
  -15.5342  -30.3008   23.7639 H   0  0  0  0  0  0
  -15.8654  -28.0834   22.7068 H   0  0  0  0  0  0
  -24.5847  -30.7094   25.7780 H   0  0  0  0  0  0
  -24.8886  -32.2881   26.4906 H   0  0  0  0  0  0
  -25.8004  -30.8874   27.0222 H   0  0  0  0  0  0
  -26.2877  -29.6795   24.1146 H   0  0  0  0  0  0
  -27.4019  -29.7284   25.4615 H   0  0  0  0  0  0
  -27.8716  -30.4366   23.9336 H   0  0  0  0  0  0
  -27.2654  -33.3626   26.2055 H   0  0  0  0  0  0
  -28.3800  -32.6888   25.0257 H   0  0  0  0  0  0
  -28.0723  -31.8444   26.5356 H   0  0  0  0  0  0
  -28.2607  -38.0101   24.7515 H   0  0  0  0  0  0
  -28.1069  -36.2633   24.6283 H   0  0  0  0  0  0
  -27.2305  -37.1450   25.8875 H   0  0  0  0  0  0
  -20.9322  -29.8745   21.6929 H   0  0  0  0  0  0
  -26.0191  -38.2884   24.1396 H   0  0  0  0  0  0
  -30.3211  -18.9890   16.9754 H   0  0  0  0  0  0
  -30.9104  -20.8577   18.4523 H   0  0  0  0  0  0
  -30.7955  -18.1879   21.8618 H   0  0  0  0  0  0
  -29.7766  -15.6807   17.5991 H   0  0  0  0  0  0
  -28.9676  -17.0783   16.9007 H   0  0  0  0  0  0
  -27.3795  -15.7265   18.3383 H   0  0  0  0  0  0
  -27.5145  -17.3691   18.7763 H   0  0  0  0  0  0
  -27.8819  -15.4656   20.8231 H   0  0  0  0  0  0
  -28.2493  -17.0700   20.8304 H   0  0  0  0  0  0
  -30.3611  -24.1616   22.4766 H   0  0  0  0  0  0
  -29.8053  -25.7821   22.1273 H   0  0  0  0  0  0
  -31.0382  -25.0469   21.1138 H   0  0  0  0  0  0
  -28.6541  -20.5746   22.5688 H   0  0  0  0  0  0
  -28.0958  -20.5481   20.8873 H   0  0  0  0  0  0
  -27.7310  -21.9225   21.9257 H   0  0  0  0  0  0
  -31.7955  -21.5352   20.7923 H   0  0  0  0  0  0
  -31.2154  -20.6457   22.1523 H   0  0  0  0  0  0
  -30.4248  -23.0175   19.6028 H   0  0  0  0  0  0
  -28.7802  -22.4895   19.4610 H   0  0  0  0  0  0
  -27.8932  -24.9929   18.9706 H   0  0  0  0  0  0
  -29.5599  -25.4276   18.9729 H   0  0  0  0  0  0
  -28.1220  -24.1402   21.3055 H   0  0  0  0  0  0
  -29.9940  -22.4414   22.0426 H   0  0  0  0  0  0
  1 25  1  0  0  0
  1 30  2  0  0  0
  1 86  1  0  0  0
  2  3  1  0  0  0
  2 25  1  0  0  0
  2 88  1  0  0  0
  2 89  1  0  0  0
  3  4  1  0  0  0
  3 90  1  0  0  0
  3 91  1  0  0  0
  4  5  1  0  0  0
  4 92  1  0  0  0
  4 93  1  0  0  0
  5  6  1  0  0  0
  5 26  1  0  0  0
  5 94  1  0  0  0
  6 25  1  0  0  0
  6 95  1  0  0  0
  6 96  1  0  0  0
  7  8  2  0  0  0
  7 26  1  0  0  0
  7 29  1  0  0  0
  8  9  1  0  0  0
  8 22  1  0  0  0
  9 10  1  0  0  0
  9 27  2  0  0  0
 10 11  2  0  0  0
 10 15  1  0  0  0
 11 12  1  0  0  0
 11 97  1  0  0  0
 12 13  2  0  0  0
 12 98  1  0  0  0
 13 14  1  0  0  0
 13 31  1  0  0  0
 14 15  2  0  0  0
 14 99  1  0  0  0
 15100  1  0  0  0
 16 17  2  0  0  0
 16 21  1  0  0  0
 16 31  1  0  0  0
 17 18  1  0  0  0
 17101  1  0  0  0
 18 19  2  0  0  0
 18102  1  0  0  0
 19 20  1  0  0  0
 19 24  1  0  0  0
 20 21  2  0  0  0
 20103  1  0  0  0
 21 23  1  0  0  0
 22 28  1  0  0  0
 22 32  2  0  0  0
 26 27  1  0  0  0
 28104  1  0  0  0
 28105  1  0  0  0
 29106  1  0  0  0
 29107  1  0  0  0
 33 34  1  0  0  0
 33 66  1  0  0  0
 33 70  2  0  0  0
 34 36  1  0  0  0
 34 59  1  0  0  0
 34108  1  0  0  0
 35 44  2  0  0  0
 35 45  1  0  0  0
 35 68  1  0  0  0
 36 56  1  0  0  0
 36109  1  0  0  0
 37 39  1  0  0  0
 37 47  1  0  0  0
 37 66  1  0  0  0
 37110  1  0  0  0
 38 43  2  0  0  0
 38 46  1  0  0  0
 38 47  1  0  0  0
 39 64  1  0  0  0
 39 67  2  0  0  0
 40 52  1  0  0  0
 40 53  2  0  0  0
 40 58  1  0  0  0
 41111  1  0  0  0
 41112  1  0  0  0
 41113  1  0  0  0
 41 48  1  0  0  0
 42 43  1  0  0  0
 42 66  1  0  0  0
 42114  1  0  0  0
 42115  1  0  0  0
 43 44  1  0  0  0
 44116  1  0  0  0
 45 46  2  0  0  0
 45117  1  0  0  0
 46118  1  0  0  0
 47119  1  0  0  0
 47120  1  0  0  0
 48 56  1  0  0  0
 48 65  1  0  0  0
 48121  1  0  0  0
 49 50  1  0  0  0
 49 53  1  0  0  0
 49 64  1  0  0  0
 49122  1  0  0  0
 50 51  1  0  0  0
 50123  1  0  0  0
 50124  1  0  0  0
 51 52  1  0  0  0
 51125  1  0  0  0
 51126  1  0  0  0
 52127  1  0  0  0
 52128  1  0  0  0
 53 54  1  0  0  0
 54 55  2  0  0  0
 54129  1  0  0  0
 55 57  1  0  0  0
 55130  1  0  0  0
 56 69  2  0  0  0
 57 58  2  0  0  0
 57131  1  0  0  0
 58132  1  0  0  0
 59 60  1  0  0  0
 59 61  1  0  0  0
 59 62  1  0  0  0
 60133  1  0  0  0
 60134  1  0  0  0
 60135  1  0  0  0
 61136  1  0  0  0
 61137  1  0  0  0
 61138  1  0  0  0
 62139  1  0  0  0
 62140  1  0  0  0
 62141  1  0  0  0
 63 65  1  0  0  0
 63142  1  0  0  0
 63143  1  0  0  0
 63144  1  0  0  0
 64145  1  0  0  0
 65146  1  0  0  0
 68 84  1  0  0  0
 71 72  2  0  0  0
 71 74  1  0  0  0
 71147  1  0  0  0
 72 75  1  0  0  0
 72148  1  0  0  0
 73 75  2  0  0  0
 73 76  1  0  0  0
 73149  1  0  0  0
 74 76  2  0  0  0
 74 77  1  0  0  0
 75 82  1  0  0  0
 76 86  1  0  0  0
 77 78  1  0  0  0
 77150  1  0  0  0
 77151  1  0  0  0
 78 79  1  0  0  0
 78152  1  0  0  0
 78153  1  0  0  0
 79 86  1  0  0  0
 79154  1  0  0  0
 79155  1  0  0  0
 80156  1  0  0  0
 80157  1  0  0  0
 80158  1  0  0  0
 80 85  1  0  0  0
 81159  1  0  0  0
 81160  1  0  0  0
 81161  1  0  0  0
 81 87  1  0  0  0
 82 87  1  0  0  0
 82162  1  0  0  0
 82163  1  0  0  0
 83 85  1  0  0  0
 83 87  1  0  0  0
 83164  1  0  0  0
 83165  1  0  0  0
 84 85  1  0  0  0
 84166  1  0  0  0
 84167  1  0  0  0
 85168  1  0  0  0
 87169  1  0  0  0
M  CHG  1  87   1
M  ISO  4   1 100  68 101  84 101  86 100
M  END
> <chiral flag>
0

> <version>
0

> <s_m_source_file>
/data/baiqing/PycharmProjects/Reinvent-master-3.2/result/LINK_invent/BTK/process_docking_weight1_custom_product_contain_oxygen_bond_distance_aromatic_linkinvent_7_9_3/rearranged_h_0012.sdf

> <i_m_source_file_index>
52

> <r_mmod_Potential_Energy-OPLS-2005>
283.849151611328

> <r_mmod_Stretch_Energy-OPLS-2005>
76.6994476318359

> <r_mmod_Bend_Energy-OPLS-2005>
205.419448852539

> <r_mmod_Torsional_Energy-OPLS-2005>
362.55322265625

> <r_mmod_Improper_Torsional_Energy-OPLS-2005>
18.28053855896

> <r_mmod_Van_der_Waal_Energy-OPLS-2005>
178.622894287109

> <r_mmod_Electrostatic_Energy-OPLS-2005>
-188.588912963867

> <r_mmod_Solvation_Energy-OPLS-2005>
-435.22509765625

> <b_mmod_Minimization_Converged-OPLS-2005>
0

> <r_mmod_RMS_Derivative-OPLS-2005>
4.29092979431152

$$$$
52
                    3D
 Structure written by MMmdl.
159167  0  0  1  0            999 V2000
  -30.6630  -14.4738   20.5996 C   0  0  0  0  0  0
  -30.4355  -12.3140   19.4136 C   0  0  0  0  0  0
  -29.4986  -12.5085   18.2018 C   0  0  0  0  0  0
  -28.0175  -12.3685   18.6113 C   0  0  0  0  0  0
  -27.6649  -13.1945   19.8765 C   0  0  2  0  0  0
  -28.7032  -12.9387   20.9915 C   0  0  0  0  0  0
  -25.2618  -13.8126   20.5646 C   0  0  0  0  0  0
  -24.1855  -13.0433   20.9168 C   0  0  0  0  0  0
  -24.6384  -11.6890   20.8729 C   0  0  0  0  0  0
  -23.9041  -10.4287   21.0401 C   0  0  0  0  0  0
  -24.3601   -9.4212   21.9185 C   0  0  0  0  0  0
  -23.6284   -8.2243   22.0757 C   0  0  0  0  0  0
  -22.4268   -8.0276   21.3539 C   0  0  0  0  0  0
  -21.9897   -9.0247   20.4645 C   0  0  0  0  0  0
  -22.7214  -10.2130   20.3053 C   0  0  0  0  0  0
  -21.6854   -6.0733   22.5279 C   0  0  0  0  0  0
  -21.4013   -6.5640   23.8212 C   0  0  0  0  0  0
  -21.3659   -5.6793   24.9174 C   0  0  0  0  0  0
  -21.6039   -4.3054   24.7228 C   0  0  0  0  0  0
  -21.8822   -3.8146   23.4350 C   0  0  0  0  0  0
  -21.9193   -4.6960   22.3401 C   0  0  0  0  0  0
  -22.7881  -13.5245   21.1833 C   0  0  0  0  0  0
  -22.1663   -4.2143   21.0978 F   0  0  0  0  0  0
  -21.5629   -3.4536   25.7744 F   0  0  0  0  0  0
  -30.0345  -13.2749   20.4521 N   0  0  0  0  0  0
  -26.3035  -12.9269   20.3338 N   0  0  0  0  0  0
  -25.9303  -11.6444   20.5737 N   0  0  0  0  0  0
  -22.0512  -12.8244   22.0389 N   0  0  0  0  0  0
  -25.4383  -15.1844   20.4027 N   0  0  0  0  0  0
  -31.7797  -14.7061   20.1238 O   0  0  0  0  0  0
  -21.6637   -6.8872   21.4237 O   0  0  0  0  0  0
  -22.3577  -14.5557   20.6685 O   0  0  0  0  0  0
  -24.6132  -31.8671   23.2078 C   0  0  0  0  0  0
  -25.9020  -32.4823   23.8375 C   0  0  1  0  0  0
  -27.2381  -27.4349   20.0977 C   0  0  0  0  0  0
  -25.5865  -33.8618   24.2302 N   0  0  0  0  0  0
  -23.4013  -30.4891   21.5498 C   0  0  2  0  0  0
  -24.8486  -28.9521   20.1190 C   0  0  0  0  0  0
  -22.7403  -29.4641   22.4993 C   0  0  0  0  0  0
  -18.0266  -28.1369   22.8495 C   0  0  0  0  0  0
  -24.1484  -36.7323   23.2636 C   0  0  0  0  0  0
  -25.9290  -30.8363   21.3582 C   0  0  0  0  0  0
  -26.0092  -29.4698   20.7069 C   0  0  0  0  0  0
  -27.2079  -28.7202   20.6877 C   0  0  0  0  0  0
  -26.0573  -26.9271   19.5111 C   0  0  0  0  0  0
  -24.8667  -27.6794   19.5202 C   0  0  0  0  0  0
  -23.6106  -29.8187   20.1662 C   0  0  0  0  0  0
  -25.4105  -36.3115   24.0332 C   0  0  1  0  0  0
  -20.5856  -28.3648   23.1325 C   0  0  2  0  0  0
  -20.6763  -26.9385   22.5426 C   0  0  0  0  0  0
  -19.5741  -26.6377   21.5217 C   0  0  0  0  0  0
  -18.1917  -26.7916   22.1625 C   0  0  0  0  0  0
  -19.1518  -28.8827   23.2907 C   0  0  0  0  0  0
  -18.9451  -30.1435   23.8915 C   0  0  0  0  0  0
  -17.6459  -30.6587   24.0556 C   0  0  0  0  0  0
  -25.9030  -34.9477   23.5122 C   0  0  0  0  0  0
  -16.5347  -29.9091   23.6316 C   0  0  0  0  0  0
  -16.7259  -28.6502   23.0345 C   0  0  0  0  0  0
  -26.4455  -31.6601   25.0697 C   0  0  0  0  0  0
  -25.3717  -31.3712   26.1444 C   0  0  0  0  0  0
  -27.0255  -30.3039   24.6041 C   0  0  0  0  0  0
  -27.6023  -32.4317   25.7475 C   0  0  0  0  0  0
  -27.5584  -37.1816   24.8457 C   0  0  0  0  0  0
  -21.4131  -29.3018   22.3739 N   0  0  0  0  0  0
  -26.4296  -37.3797   23.9406 N   0  0  0  0  0  0
  -24.6664  -31.0772   22.0982 N   0  0  0  0  0  0
  -23.4180  -28.8184   23.3033 O   0  0  0  0  0  0
  -28.4201  -26.7232   20.0836 O   0  0  0  0  0  0
  -26.5614  -34.8941   22.4700 O   0  0  0  0  0  0
  -23.5331  -32.1418   23.7487 O   0  0  0  0  0  0
  -28.8695  -18.9699   21.6864 C   0  0  0  0  0  0
  -31.2790  -18.9331   21.3798 C   0  0  0  0  0  0
  -28.8336  -17.5690   21.5127 C   0  0  0  0  0  0
  -31.2438  -17.5312   21.2002 C   0  0  0  0  0  0
  -30.0966  -19.6655   21.6428 C   0  0  0  0  0  0
  -30.0172  -16.8298   21.2797 C   0  0  0  0  0  0
  -30.6160  -21.9426   19.7027 C   0  0  0  0  0  0
  -30.1658  -21.1563   22.0104 C   0  0  0  0  0  0
  -29.7812  -24.7728   20.5643 C   0  0  0  0  0  0
  -29.9523  -23.5426   21.5097 C   0  0  0  0  0  0
  -28.3491  -25.3122   20.3457 C   0  0  0  0  0  0
  -29.8989  -15.4079   21.2059 N   0  0  0  0  0  0
  -29.8359  -22.1554   20.9470 N   0  3  1  0  0  0
  -31.4766  -12.4421   19.1116 H   0  0  0  0  0  0
  -30.3597  -11.2955   19.7965 H   0  0  0  0  0  0
  -29.7377  -11.7843   17.4223 H   0  0  0  0  0  0
  -29.6657  -13.4937   17.7635 H   0  0  0  0  0  0
  -27.8228  -11.3109   18.7943 H   0  0  0  0  0  0
  -27.3701  -12.6558   17.7818 H   0  0  0  0  0  0
  -27.7182  -14.2456   19.5951 H   0  0  0  0  0  0
  -28.6873  -11.8882   21.2871 H   0  0  0  0  0  0
  -28.4519  -13.4895   21.8986 H   0  0  0  0  0  0
  -25.2748   -9.5692   22.4756 H   0  0  0  0  0  0
  -23.9997   -7.4636   22.7480 H   0  0  0  0  0  0
  -21.0831   -8.8756   19.8952 H   0  0  0  0  0  0
  -22.3671  -10.9666   19.6162 H   0  0  0  0  0  0
  -21.2008   -7.6151   23.9710 H   0  0  0  0  0  0
  -21.1476   -6.0526   25.9075 H   0  0  0  0  0  0
  -22.0602   -2.7607   23.2852 H   0  0  0  0  0  0
  -22.4119  -11.9901   22.4771 H   0  0  0  0  0  0
  -21.1131  -13.1279   22.2578 H   0  0  0  0  0  0
  -24.6705  -15.8409   20.4939 H   0  0  0  0  0  0
  -26.2806  -15.6100   20.0376 H   0  0  0  0  0  0
  -26.7091  -32.5549   23.1139 H   0  0  0  0  0  0
  -24.9971  -33.9772   25.0418 H   0  0  0  0  0  0
  -22.6892  -31.3051   21.4092 H   0  0  0  0  0  0
  -23.3746  -35.9655   23.3299 H   0  0  0  0  0  0
  -24.3582  -36.8938   22.2050 H   0  0  0  0  0  0
  -23.7239  -37.6527   23.6659 H   0  0  0  0  0  0
  -26.0314  -31.6029   20.5891 H   0  0  0  0  0  0
  -26.8194  -30.8950   21.9722 H   0  0  0  0  0  0
  -28.1076  -29.1192   21.1375 H   0  0  0  0  0  0
  -26.0476  -25.9590   19.0316 H   0  0  0  0  0  0
  -23.9725  -27.2730   19.0671 H   0  0  0  0  0  0
  -23.7184  -30.5912   19.4035 H   0  0  0  0  0  0
  -22.7348  -29.2371   19.8740 H   0  0  0  0  0  0
  -25.1285  -36.1980   25.0824 H   0  0  0  0  0  0
  -20.9948  -28.3235   24.1439 H   0  0  0  0  0  0
  -20.5671  -26.2259   23.3617 H   0  0  0  0  0  0
  -21.6639  -26.7437   22.1211 H   0  0  0  0  0  0
  -19.6902  -25.6290   21.1235 H   0  0  0  0  0  0
  -19.6687  -27.3203   20.6759 H   0  0  0  0  0  0
  -17.4186  -26.6659   21.4025 H   0  0  0  0  0  0
  -18.0305  -26.0060   22.9024 H   0  0  0  0  0  0
  -19.7939  -30.7223   24.2315 H   0  0  0  0  0  0
  -17.5025  -31.6276   24.5143 H   0  0  0  0  0  0
  -15.5350  -30.3004   23.7633 H   0  0  0  0  0  0
  -15.8654  -28.0834   22.7050 H   0  0  0  0  0  0
  -24.5897  -30.7044   25.7784 H   0  0  0  0  0  0
  -24.8906  -32.2875   26.4878 H   0  0  0  0  0  0
  -25.8070  -30.8899   27.0208 H   0  0  0  0  0  0
  -26.2768  -29.6845   24.1084 H   0  0  0  0  0  0
  -27.4000  -29.7229   25.4476 H   0  0  0  0  0  0
  -27.8622  -30.4335   23.9173 H   0  0  0  0  0  0
  -27.2612  -33.3600   26.2072 H   0  0  0  0  0  0
  -28.3835  -32.6904   25.0313 H   0  0  0  0  0  0
  -28.0679  -31.8421   26.5383 H   0  0  0  0  0  0
  -28.2598  -38.0124   24.7528 H   0  0  0  0  0  0
  -28.1094  -36.2659   24.6259 H   0  0  0  0  0  0
  -27.2306  -37.1421   25.8862 H   0  0  0  0  0  0
  -20.9288  -29.8751   21.6970 H   0  0  0  0  0  0
  -26.0192  -38.2871   24.1437 H   0  0  0  0  0  0
  -27.9512  -19.4993   21.9020 H   0  0  0  0  0  0
  -32.2353  -19.4382   21.3593 H   0  0  0  0  0  0
  -27.8798  -17.0642   21.5855 H   0  0  0  0  0  0
  -32.1759  -17.0057   21.0456 H   0  0  0  0  0  0
  -30.5278  -20.9177   19.3427 H   0  0  0  0  0  0
  -31.6749  -22.1535   19.8552 H   0  0  0  0  0  0
  -30.2494  -22.5730   18.8943 H   0  0  0  0  0  0
  -31.1698  -21.3595   22.3869 H   0  0  0  0  0  0
  -29.5000  -21.3154   22.8607 H   0  0  0  0  0  0
  -30.3000  -24.6564   19.6150 H   0  0  0  0  0  0
  -30.3245  -25.5806   21.0566 H   0  0  0  0  0  0
  -29.2749  -23.6457   22.3586 H   0  0  0  0  0  0
  -30.9524  -23.6238   21.9385 H   0  0  0  0  0  0
  -27.7410  -25.1472   21.2376 H   0  0  0  0  0  0
  -27.8804  -24.7767   19.5196 H   0  0  0  0  0  0
  -29.0125  -15.0397   21.5148 H   0  0  0  0  0  0
  -28.8678  -22.0032   20.7073 H   0  0  0  0  0  0
  1 25  1  0  0  0
  1 30  2  0  0  0
  1 82  1  0  0  0
  2  3  1  0  0  0
  2 25  1  0  0  0
  2 84  1  0  0  0
  2 85  1  0  0  0
  3  4  1  0  0  0
  3 86  1  0  0  0
  3 87  1  0  0  0
  4  5  1  0  0  0
  4 88  1  0  0  0
  4 89  1  0  0  0
  5  6  1  0  0  0
  5 26  1  0  0  0
  5 90  1  0  0  0
  6 25  1  0  0  0
  6 91  1  0  0  0
  6 92  1  0  0  0
  7  8  2  0  0  0
  7 26  1  0  0  0
  7 29  1  0  0  0
  8  9  1  0  0  0
  8 22  1  0  0  0
  9 10  1  0  0  0
  9 27  2  0  0  0
 10 11  2  0  0  0
 10 15  1  0  0  0
 11 12  1  0  0  0
 11 93  1  0  0  0
 12 13  2  0  0  0
 12 94  1  0  0  0
 13 14  1  0  0  0
 13 31  1  0  0  0
 14 15  2  0  0  0
 14 95  1  0  0  0
 15 96  1  0  0  0
 16 17  2  0  0  0
 16 21  1  0  0  0
 16 31  1  0  0  0
 17 18  1  0  0  0
 17 97  1  0  0  0
 18 19  2  0  0  0
 18 98  1  0  0  0
 19 20  1  0  0  0
 19 24  1  0  0  0
 20 21  2  0  0  0
 20 99  1  0  0  0
 21 23  1  0  0  0
 22 28  1  0  0  0
 22 32  2  0  0  0
 26 27  1  0  0  0
 28100  1  0  0  0
 28101  1  0  0  0
 29102  1  0  0  0
 29103  1  0  0  0
 33 34  1  0  0  0
 33 66  1  0  0  0
 33 70  2  0  0  0
 34 36  1  0  0  0
 34 59  1  0  0  0
 34104  1  0  0  0
 35 44  2  0  0  0
 35 45  1  0  0  0
 35 68  1  0  0  0
 36 56  1  0  0  0
 36105  1  0  0  0
 37 39  1  0  0  0
 37 47  1  0  0  0
 37 66  1  0  0  0
 37106  1  0  0  0
 38 43  2  0  0  0
 38 46  1  0  0  0
 38 47  1  0  0  0
 39 64  1  0  0  0
 39 67  2  0  0  0
 40 52  1  0  0  0
 40 53  2  0  0  0
 40 58  1  0  0  0
 41107  1  0  0  0
 41108  1  0  0  0
 41109  1  0  0  0
 41 48  1  0  0  0
 42 43  1  0  0  0
 42 66  1  0  0  0
 42110  1  0  0  0
 42111  1  0  0  0
 43 44  1  0  0  0
 44112  1  0  0  0
 45 46  2  0  0  0
 45113  1  0  0  0
 46114  1  0  0  0
 47115  1  0  0  0
 47116  1  0  0  0
 48 56  1  0  0  0
 48 65  1  0  0  0
 48117  1  0  0  0
 49 50  1  0  0  0
 49 53  1  0  0  0
 49 64  1  0  0  0
 49118  1  0  0  0
 50 51  1  0  0  0
 50119  1  0  0  0
 50120  1  0  0  0
 51 52  1  0  0  0
 51121  1  0  0  0
 51122  1  0  0  0
 52123  1  0  0  0
 52124  1  0  0  0
 53 54  1  0  0  0
 54 55  2  0  0  0
 54125  1  0  0  0
 55 57  1  0  0  0
 55126  1  0  0  0
 56 69  2  0  0  0
 57 58  2  0  0  0
 57127  1  0  0  0
 58128  1  0  0  0
 59 60  1  0  0  0
 59 61  1  0  0  0
 59 62  1  0  0  0
 60129  1  0  0  0
 60130  1  0  0  0
 60131  1  0  0  0
 61132  1  0  0  0
 61133  1  0  0  0
 61134  1  0  0  0
 62135  1  0  0  0
 62136  1  0  0  0
 62137  1  0  0  0
 63 65  1  0  0  0
 63138  1  0  0  0
 63139  1  0  0  0
 63140  1  0  0  0
 64141  1  0  0  0
 65142  1  0  0  0
 68 81  1  0  0  0
 71 73  2  0  0  0
 71 75  1  0  0  0
 71143  1  0  0  0
 72 74  1  0  0  0
 72 75  2  0  0  0
 72144  1  0  0  0
 73 76  1  0  0  0
 73145  1  0  0  0
 74 76  2  0  0  0
 74146  1  0  0  0
 75 78  1  0  0  0
 76 82  1  0  0  0
 77147  1  0  0  0
 77148  1  0  0  0
 77149  1  0  0  0
 77 83  1  0  0  0
 78 83  1  0  0  0
 78150  1  0  0  0
 78151  1  0  0  0
 79 80  1  0  0  0
 79 81  1  0  0  0
 79152  1  0  0  0
 79153  1  0  0  0
 80 83  1  0  0  0
 80154  1  0  0  0
 80155  1  0  0  0
 81156  1  0  0  0
 81157  1  0  0  0
 82158  1  0  0  0
 83159  1  0  0  0
M  CHG  1  83   1
M  ISO  4   1 100  68 101  81 101  82 100
M  END
> <chiral flag>
0

> <version>
0

> <s_m_source_file>
/data/baiqing/PycharmProjects/Reinvent-master-3.2/result/LINK_invent/BTK/process_docking_weight1_custom_product_contain_oxygen_bond_distance_aromatic_linkinvent_7_9_3/rearranged_h_0012.sdf

> <i_m_source_file_index>
53

> <r_mmod_Potential_Energy-OPLS-2005>
-169.5888671875

> <r_mmod_Stretch_Energy-OPLS-2005>
39.6837730407715

> <r_mmod_Bend_Energy-OPLS-2005>
116.625686645508

> <r_mmod_Torsional_Energy-OPLS-2005>
224.905197143555

> <r_mmod_Improper_Torsional_Energy-OPLS-2005>
4.02819395065308

> <r_mmod_Van_der_Waal_Energy-OPLS-2005>
155.463958740234

> <r_mmod_Electrostatic_Energy-OPLS-2005>
-270.951782226562

> <r_mmod_Solvation_Energy-OPLS-2005>
-451.460754394531

> <b_mmod_Minimization_Converged-OPLS-2005>
0

> <r_mmod_RMS_Derivative-OPLS-2005>
1.51259875297546

$$$$
53
                    3D
 Structure written by MMmdl.
154162  0  0  1  0            999 V2000
  -30.6497  -14.6663   20.5048 C   0  0  0  0  0  0
  -30.4217  -12.4128   19.4606 C   0  0  0  0  0  0
  -29.5017  -12.5044   18.2253 C   0  0  0  0  0  0
  -28.0269  -12.3406   18.6409 C   0  0  0  0  0  0
  -27.6448  -13.2245   19.8592 C   0  0  2  0  0  0
  -28.6894  -13.1241   20.9912 C   0  0  0  0  0  0
  -25.2519  -13.8176   20.5711 C   0  0  0  0  0  0
  -24.1800  -13.0426   20.9206 C   0  0  0  0  0  0
  -24.6387  -11.6901   20.8748 C   0  0  0  0  0  0
  -23.9070  -10.4283   21.0406 C   0  0  0  0  0  0
  -24.3620   -9.4200   21.9184 C   0  0  0  0  0  0
  -23.6294   -8.2236   22.0755 C   0  0  0  0  0  0
  -22.4277   -8.0276   21.3552 C   0  0  0  0  0  0
  -21.9915   -9.0248   20.4655 C   0  0  0  0  0  0
  -22.7239  -10.2125   20.3064 C   0  0  0  0  0  0
  -21.6853   -6.0734   22.5285 C   0  0  0  0  0  0
  -21.4008   -6.5641   23.8217 C   0  0  0  0  0  0
  -21.3659   -5.6794   24.9181 C   0  0  0  0  0  0
  -21.6052   -4.3055   24.7229 C   0  0  0  0  0  0
  -21.8818   -3.8152   23.4350 C   0  0  0  0  0  0
  -21.9188   -4.6966   22.3406 C   0  0  0  0  0  0
  -22.7826  -13.5222   21.1856 C   0  0  0  0  0  0
  -22.1655   -4.2155   21.0980 F   0  0  0  0  0  0
  -21.5637   -3.4536   25.7738 F   0  0  0  0  0  0
  -29.9950  -13.4614   20.4129 N   0  0  0  0  0  0
  -26.2950  -12.9374   20.3331 N   0  0  0  0  0  0
  -25.9320  -11.6525   20.5782 N   0  0  0  0  0  0
  -22.0466  -12.8225   22.0417 N   0  0  0  0  0  0
  -25.4206  -15.1894   20.4130 N   0  0  0  0  0  0
  -31.8143  -14.7717   20.1056 O   0  0  0  0  0  0
  -21.6643   -6.8871   21.4245 O   0  0  0  0  0  0
  -22.3520  -14.5527   20.6693 O   0  0  0  0  0  0
  -24.6262  -31.8581   23.1990 C   0  0  0  0  0  0
  -25.9099  -32.4768   23.8336 C   0  0  1  0  0  0
  -27.2217  -27.2971   20.1194 C   0  0  0  0  0  0
  -25.5904  -33.8569   24.2265 N   0  0  0  0  0  0
  -23.4206  -30.4795   21.5429 C   0  0  2  0  0  0
  -24.8649  -28.9258   20.1102 C   0  0  0  0  0  0
  -22.7463  -29.4623   22.4936 C   0  0  0  0  0  0
  -18.0280  -28.1379   22.8497 C   0  0  0  0  0  0
  -24.1488  -36.7295   23.2646 C   0  0  0  0  0  0
  -25.9623  -30.7793   21.3722 C   0  0  0  0  0  0
  -26.0322  -29.4036   20.7166 C   0  0  0  0  0  0
  -27.2093  -28.5990   20.7141 C   0  0  0  0  0  0
  -26.0287  -26.8668   19.4973 C   0  0  0  0  0  0
  -24.8658  -27.6632   19.4943 C   0  0  0  0  0  0
  -23.6337  -29.8084   20.1594 C   0  0  0  0  0  0
  -25.4116  -36.3093   24.0335 C   0  0  1  0  0  0
  -20.5878  -28.3691   23.1278 C   0  0  2  0  0  0
  -20.6765  -26.9411   22.5408 C   0  0  0  0  0  0
  -19.5741  -26.6378   21.5211 C   0  0  0  0  0  0
  -18.1924  -26.7919   22.1627 C   0  0  0  0  0  0
  -19.1532  -28.8849   23.2886 C   0  0  0  0  0  0
  -18.9457  -30.1449   23.8909 C   0  0  0  0  0  0
  -17.6458  -30.6591   24.0557 C   0  0  0  0  0  0
  -25.9052  -34.9454   23.5114 C   0  0  0  0  0  0
  -16.5350  -29.9087   23.6325 C   0  0  0  0  0  0
  -16.7268  -28.6495   23.0368 C   0  0  0  0  0  0
  -26.4468  -31.6590   25.0721 C   0  0  0  0  0  0
  -25.3692  -31.3719   26.1445 C   0  0  0  0  0  0
  -27.0300  -30.3016   24.6185 C   0  0  0  0  0  0
  -27.6050  -32.4317   25.7467 C   0  0  0  0  0  0
  -27.5586  -37.1804   24.8469 C   0  0  0  0  0  0
  -21.4177  -29.3048   22.3676 N   0  0  0  0  0  0
  -26.4298  -37.3787   23.9410 N   0  0  0  0  0  0
  -24.6890  -31.0569   22.0947 N   0  0  0  0  0  0
  -23.4176  -28.8172   23.3034 O   0  0  0  0  0  0
  -28.3554  -26.4706   20.1952 O   0  0  0  0  0  0
  -26.5643  -34.8922   22.4695 O   0  0  0  0  0  0
  -23.5425  -32.1388   23.7306 O   0  0  0  0  0  0
  -30.1878  -19.0881   19.3800 C   0  0  0  0  0  0
  -30.1087  -20.5072   19.2844 C   0  0  0  0  0  0
  -29.3139  -18.3381   20.2039 C   0  0  0  0  0  0
  -29.1658  -21.2905   20.0002 C   0  0  0  0  0  0
  -28.3890  -19.1158   20.9681 C   0  0  0  0  0  0
  -28.3164  -20.5517   20.8779 C   0  0  0  0  0  0
  -30.5096  -16.4168   22.1783 C   0  0  0  0  0  0
  -29.2435  -16.7553   20.0763 C   0  0  0  0  0  0
  -28.4520  -25.1334   19.5526 C   0  0  0  0  0  0
  -28.3367  -23.7318   20.3366 C   0  0  0  0  0  0
  -29.9736  -15.7804   20.9754 N   0  0  0  0  0  0
  -29.1768  -22.6843   19.7321 O   0  0  0  0  0  0
  -27.5113  -18.4717   21.7748 F   0  0  0  0  0  0
  -27.3929  -21.2078   21.6211 F   0  0  0  0  0  0
  -31.4662  -12.5149   19.1617 H   0  0  0  0  0  0
  -30.3429  -11.4275   19.9230 H   0  0  0  0  0  0
  -29.7710  -11.7390   17.4958 H   0  0  0  0  0  0
  -29.6431  -13.4648   17.7268 H   0  0  0  0  0  0
  -27.8722  -11.2899   18.8855 H   0  0  0  0  0  0
  -27.3695  -12.5528   17.7972 H   0  0  0  0  0  0
  -27.6502  -14.2525   19.5002 H   0  0  0  0  0  0
  -28.7094  -12.1163   21.4092 H   0  0  0  0  0  0
  -28.4332  -13.7903   21.8166 H   0  0  0  0  0  0
  -25.2753   -9.5682   22.4775 H   0  0  0  0  0  0
  -24.0007   -7.4630   22.7475 H   0  0  0  0  0  0
  -21.0851   -8.8767   19.8959 H   0  0  0  0  0  0
  -22.3691  -10.9672   19.6190 H   0  0  0  0  0  0
  -21.1994   -7.6146   23.9727 H   0  0  0  0  0  0
  -21.1488   -6.0519   25.9085 H   0  0  0  0  0  0
  -22.0597   -2.7614   23.2851 H   0  0  0  0  0  0
  -22.4062  -11.9882   22.4820 H   0  0  0  0  0  0
  -21.1090  -13.1279   22.2614 H   0  0  0  0  0  0
  -24.6569  -15.8434   20.5452 H   0  0  0  0  0  0
  -26.2771  -15.6353   20.1147 H   0  0  0  0  0  0
  -26.7167  -32.5415   23.1083 H   0  0  0  0  0  0
  -25.0002  -33.9713   25.0376 H   0  0  0  0  0  0
  -22.7166  -31.3018   21.3972 H   0  0  0  0  0  0
  -23.3760  -35.9617   23.3301 H   0  0  0  0  0  0
  -24.3584  -36.8925   22.2064 H   0  0  0  0  0  0
  -23.7220  -37.6487   23.6667 H   0  0  0  0  0  0
  -26.0973  -31.5379   20.6005 H   0  0  0  0  0  0
  -26.8417  -30.8294   22.0027 H   0  0  0  0  0  0
  -28.1047  -28.9602   21.2002 H   0  0  0  0  0  0
  -25.9551  -25.8948   19.0350 H   0  0  0  0  0  0
  -23.9680  -27.2865   19.0247 H   0  0  0  0  0  0
  -23.7493  -30.5821   19.3997 H   0  0  0  0  0  0
  -22.7523  -29.2372   19.8628 H   0  0  0  0  0  0
  -25.1294  -36.1960   25.0829 H   0  0  0  0  0  0
  -20.9977  -28.3265   24.1395 H   0  0  0  0  0  0
  -20.5651  -26.2307   23.3613 H   0  0  0  0  0  0
  -21.6633  -26.7427   22.1209 H   0  0  0  0  0  0
  -19.6903  -25.6284   21.1253 H   0  0  0  0  0  0
  -19.6674  -27.3180   20.6732 H   0  0  0  0  0  0
  -17.4186  -26.6664   21.4037 H   0  0  0  0  0  0
  -18.0336  -26.0055   22.9023 H   0  0  0  0  0  0
  -19.7933  -30.7259   24.2286 H   0  0  0  0  0  0
  -17.5015  -31.6275   24.5153 H   0  0  0  0  0  0
  -15.5354  -30.3001   23.7634 H   0  0  0  0  0  0
  -15.8662  -28.0809   22.7100 H   0  0  0  0  0  0
  -24.5855  -30.7096   25.7746 H   0  0  0  0  0  0
  -24.8890  -32.2872   26.4916 H   0  0  0  0  0  0
  -25.7997  -30.8839   27.0200 H   0  0  0  0  0  0
  -26.2866  -29.6774   24.1212 H   0  0  0  0  0  0
  -27.3997  -29.7274   25.4694 H   0  0  0  0  0  0
  -27.8741  -30.4308   23.9404 H   0  0  0  0  0  0
  -27.2703  -33.3632   26.2040 H   0  0  0  0  0  0
  -28.3838  -32.6850   25.0260 H   0  0  0  0  0  0
  -28.0739  -31.8436   26.5368 H   0  0  0  0  0  0
  -28.2612  -38.0095   24.7523 H   0  0  0  0  0  0
  -28.1074  -36.2633   24.6283 H   0  0  0  0  0  0
  -27.2307  -37.1444   25.8872 H   0  0  0  0  0  0
  -20.9357  -29.8778   21.6890 H   0  0  0  0  0  0
  -26.0188  -38.2867   24.1398 H   0  0  0  0  0  0
  -30.8993  -18.5676   18.7540 H   0  0  0  0  0  0
  -30.7807  -21.0118   18.6044 H   0  0  0  0  0  0
  -29.7753  -17.0812   22.6343 H   0  0  0  0  0  0
  -31.4001  -17.0012   21.9409 H   0  0  0  0  0  0
  -30.7806  -15.6757   22.9317 H   0  0  0  0  0  0
  -29.5087  -16.5157   19.0443 H   0  0  0  0  0  0
  -28.1885  -16.4941   20.1486 H   0  0  0  0  0  0
  -27.8701  -25.0863   18.6333 H   0  0  0  0  0  0
  -29.4762  -25.1466   19.1809 H   0  0  0  0  0  0
  -27.2937  -23.4151   20.3650 H   0  0  0  0  0  0
  -28.6611  -23.8599   21.3693 H   0  0  0  0  0  0
  1 25  1  0  0  0
  1 30  2  0  0  0
  1 81  1  0  0  0
  2  3  1  0  0  0
  2 25  1  0  0  0
  2 85  1  0  0  0
  2 86  1  0  0  0
  3  4  1  0  0  0
  3 87  1  0  0  0
  3 88  1  0  0  0
  4  5  1  0  0  0
  4 89  1  0  0  0
  4 90  1  0  0  0
  5  6  1  0  0  0
  5 26  1  0  0  0
  5 91  1  0  0  0
  6 25  1  0  0  0
  6 92  1  0  0  0
  6 93  1  0  0  0
  7  8  2  0  0  0
  7 26  1  0  0  0
  7 29  1  0  0  0
  8  9  1  0  0  0
  8 22  1  0  0  0
  9 10  1  0  0  0
  9 27  2  0  0  0
 10 11  2  0  0  0
 10 15  1  0  0  0
 11 12  1  0  0  0
 11 94  1  0  0  0
 12 13  2  0  0  0
 12 95  1  0  0  0
 13 14  1  0  0  0
 13 31  1  0  0  0
 14 15  2  0  0  0
 14 96  1  0  0  0
 15 97  1  0  0  0
 16 17  2  0  0  0
 16 21  1  0  0  0
 16 31  1  0  0  0
 17 18  1  0  0  0
 17 98  1  0  0  0
 18 19  2  0  0  0
 18 99  1  0  0  0
 19 20  1  0  0  0
 19 24  1  0  0  0
 20 21  2  0  0  0
 20100  1  0  0  0
 21 23  1  0  0  0
 22 28  1  0  0  0
 22 32  2  0  0  0
 26 27  1  0  0  0
 28101  1  0  0  0
 28102  1  0  0  0
 29103  1  0  0  0
 29104  1  0  0  0
 33 34  1  0  0  0
 33 66  1  0  0  0
 33 70  2  0  0  0
 34 36  1  0  0  0
 34 59  1  0  0  0
 34105  1  0  0  0
 35 44  2  0  0  0
 35 45  1  0  0  0
 35 68  1  0  0  0
 36 56  1  0  0  0
 36106  1  0  0  0
 37 39  1  0  0  0
 37 47  1  0  0  0
 37 66  1  0  0  0
 37107  1  0  0  0
 38 43  2  0  0  0
 38 46  1  0  0  0
 38 47  1  0  0  0
 39 64  1  0  0  0
 39 67  2  0  0  0
 40 52  1  0  0  0
 40 53  2  0  0  0
 40 58  1  0  0  0
 41108  1  0  0  0
 41109  1  0  0  0
 41110  1  0  0  0
 41 48  1  0  0  0
 42 43  1  0  0  0
 42 66  1  0  0  0
 42111  1  0  0  0
 42112  1  0  0  0
 43 44  1  0  0  0
 44113  1  0  0  0
 45 46  2  0  0  0
 45114  1  0  0  0
 46115  1  0  0  0
 47116  1  0  0  0
 47117  1  0  0  0
 48 56  1  0  0  0
 48 65  1  0  0  0
 48118  1  0  0  0
 49 50  1  0  0  0
 49 53  1  0  0  0
 49 64  1  0  0  0
 49119  1  0  0  0
 50 51  1  0  0  0
 50120  1  0  0  0
 50121  1  0  0  0
 51 52  1  0  0  0
 51122  1  0  0  0
 51123  1  0  0  0
 52124  1  0  0  0
 52125  1  0  0  0
 53 54  1  0  0  0
 54 55  2  0  0  0
 54126  1  0  0  0
 55 57  1  0  0  0
 55127  1  0  0  0
 56 69  2  0  0  0
 57 58  2  0  0  0
 57128  1  0  0  0
 58129  1  0  0  0
 59 60  1  0  0  0
 59 61  1  0  0  0
 59 62  1  0  0  0
 60130  1  0  0  0
 60131  1  0  0  0
 60132  1  0  0  0
 61133  1  0  0  0
 61134  1  0  0  0
 61135  1  0  0  0
 62136  1  0  0  0
 62137  1  0  0  0
 62138  1  0  0  0
 63 65  1  0  0  0
 63139  1  0  0  0
 63140  1  0  0  0
 63141  1  0  0  0
 64142  1  0  0  0
 65143  1  0  0  0
 68 79  1  0  0  0
 71 72  2  0  0  0
 71 73  1  0  0  0
 71144  1  0  0  0
 72 74  1  0  0  0
 72145  1  0  0  0
 73 75  2  0  0  0
 73 78  1  0  0  0
 74 76  2  0  0  0
 74 82  1  0  0  0
 75 76  1  0  0  0
 75 83  1  0  0  0
 76 84  1  0  0  0
 77 81  1  0  0  0
 77146  1  0  0  0
 77147  1  0  0  0
 77148  1  0  0  0
 78 81  1  0  0  0
 78149  1  0  0  0
 78150  1  0  0  0
 79 80  1  0  0  0
 79151  1  0  0  0
 79152  1  0  0  0
 80 82  1  0  0  0
 80153  1  0  0  0
 80154  1  0  0  0
M  ISO  4   1 100  68 101  79 101  81 100
M  END
> <chiral flag>
0

> <version>
0

> <s_m_source_file>
/data/baiqing/PycharmProjects/Reinvent-master-3.2/result/LINK_invent/BTK/process_docking_weight1_custom_product_contain_oxygen_bond_distance_aromatic_linkinvent_7_9_3/rearranged_h_0012.sdf

> <i_m_source_file_index>
54

> <r_mmod_Potential_Energy-OPLS-2005>
295.032409667969

> <r_mmod_Stretch_Energy-OPLS-2005>
93.3132095336914

> <r_mmod_Bend_Energy-OPLS-2005>
191.923004150391

> <r_mmod_Torsional_Energy-OPLS-2005>
275.241760253906

> <r_mmod_Improper_Torsional_Energy-OPLS-2005>
5.51766538619995

> <r_mmod_Van_der_Waal_Energy-OPLS-2005>
134.828994750977

> <r_mmod_Electrostatic_Energy-OPLS-2005>
-272.505065917969

> <r_mmod_Solvation_Energy-OPLS-2005>
-190.156524658203

> <b_mmod_Minimization_Converged-OPLS-2005>
0

> <r_mmod_RMS_Derivative-OPLS-2005>
1.48050284385681

$$$$
54
                    3D
 Structure written by MMmdl.
153161  0  0  1  0            999 V2000
  -30.6421  -14.7157   20.4571 C   0  0  0  0  0  0
  -30.4214  -12.4323   19.4862 C   0  0  0  0  0  0
  -29.5110  -12.5007   18.2415 C   0  0  0  0  0  0
  -28.0343  -12.3367   18.6448 C   0  0  0  0  0  0
  -27.6404  -13.2341   19.8484 C   0  0  2  0  0  0
  -28.6803  -13.1748   20.9880 C   0  0  0  0  0  0
  -25.2504  -13.8218   20.5683 C   0  0  0  0  0  0
  -24.1803  -13.0459   20.9203 C   0  0  0  0  0  0
  -24.6397  -11.6934   20.8742 C   0  0  0  0  0  0
  -23.9070  -10.4309   21.0398 C   0  0  0  0  0  0
  -24.3624   -9.4227   21.9179 C   0  0  0  0  0  0
  -23.6309   -8.2253   22.0744 C   0  0  0  0  0  0
  -22.4291   -8.0283   21.3537 C   0  0  0  0  0  0
  -21.9927   -9.0252   20.4636 C   0  0  0  0  0  0
  -22.7239  -10.2139   20.3046 C   0  0  0  0  0  0
  -21.6863   -6.0743   22.5284 C   0  0  0  0  0  0
  -21.4020   -6.5640   23.8215 C   0  0  0  0  0  0
  -21.3675   -5.6792   24.9175 C   0  0  0  0  0  0
  -21.6048   -4.3052   24.7226 C   0  0  0  0  0  0
  -21.8814   -3.8150   23.4341 C   0  0  0  0  0  0
  -21.9198   -4.6973   22.3399 C   0  0  0  0  0  0
  -22.7826  -13.5232   21.1868 C   0  0  0  0  0  0
  -22.1666   -4.2158   21.0976 F   0  0  0  0  0  0
  -21.5632   -3.4531   25.7732 F   0  0  0  0  0  0
  -29.9888  -13.5050   20.4117 N   0  0  0  0  0  0
  -26.2930  -12.9427   20.3263 N   0  0  0  0  0  0
  -25.9330  -11.6569   20.5748 N   0  0  0  0  0  0
  -22.0471  -12.8217   22.0424 N   0  0  0  0  0  0
  -25.4216  -15.1952   20.4096 N   0  0  0  0  0  0
  -31.8366  -14.7613   20.1524 O   0  0  0  0  0  0
  -21.6645   -6.8883   21.4240 O   0  0  0  0  0  0
  -22.3506  -14.5530   20.6708 O   0  0  0  0  0  0
  -24.6302  -31.8558   23.1990 C   0  0  0  0  0  0
  -25.9140  -32.4752   23.8328 C   0  0  1  0  0  0
  -27.2208  -27.2679   20.1179 C   0  0  0  0  0  0
  -25.5923  -33.8548   24.2258 N   0  0  0  0  0  0
  -23.4251  -30.4799   21.5414 C   0  0  2  0  0  0
  -24.8706  -28.9293   20.1064 C   0  0  0  0  0  0
  -22.7511  -29.4599   22.4904 C   0  0  0  0  0  0
  -18.0288  -28.1414   22.8471 C   0  0  0  0  0  0
  -24.1485  -36.7290   23.2644 C   0  0  0  0  0  0
  -25.9704  -30.7683   21.3778 C   0  0  0  0  0  0
  -26.0387  -29.3904   20.7228 C   0  0  0  0  0  0
  -27.2100  -28.5694   20.7242 C   0  0  0  0  0  0
  -26.0271  -26.8779   19.4646 C   0  0  0  0  0  0
  -24.8697  -27.6818   19.4669 C   0  0  0  0  0  0
  -23.6431  -29.8180   20.1554 C   0  0  0  0  0  0
  -25.4110  -36.3075   24.0342 C   0  0  1  0  0  0
  -20.5892  -28.3713   23.1270 C   0  0  2  0  0  0
  -20.6780  -26.9432   22.5412 C   0  0  0  0  0  0
  -19.5749  -26.6397   21.5223 C   0  0  0  0  0  0
  -18.1928  -26.7945   22.1634 C   0  0  0  0  0  0
  -19.1548  -28.8884   23.2856 C   0  0  0  0  0  0
  -18.9470  -30.1471   23.8895 C   0  0  0  0  0  0
  -17.6473  -30.6602   24.0569 C   0  0  0  0  0  0
  -25.9054  -34.9441   23.5113 C   0  0  0  0  0  0
  -16.5362  -29.9112   23.6323 C   0  0  0  0  0  0
  -16.7279  -28.6533   23.0340 C   0  0  0  0  0  0
  -26.4511  -31.6543   25.0696 C   0  0  0  0  0  0
  -25.3740  -31.3670   26.1417 C   0  0  0  0  0  0
  -27.0339  -30.2960   24.6140 C   0  0  0  0  0  0
  -27.6075  -32.4269   25.7469 C   0  0  0  0  0  0
  -27.5580  -37.1795   24.8475 C   0  0  0  0  0  0
  -21.4220  -29.3045   22.3661 N   0  0  0  0  0  0
  -26.4288  -37.3772   23.9426 N   0  0  0  0  0  0
  -24.6944  -31.0531   22.0965 N   0  0  0  0  0  0
  -23.4228  -28.8146   23.2997 O   0  0  0  0  0  0
  -28.3492  -26.4168   20.2003 O   0  0  0  0  0  0
  -26.5640  -34.8926   22.4692 O   0  0  0  0  0  0
  -23.5454  -32.1384   23.7291 O   0  0  0  0  0  0
  -31.2286  -17.5543   19.3273 C   0  0  0  0  0  0
  -31.5593  -18.8656   18.9392 C   0  0  0  0  0  0
  -29.8448  -19.8225   20.4056 C   0  0  0  0  0  0
  -30.2248  -17.2864   20.2916 C   0  0  0  0  0  0
  -30.8909  -19.9792   19.4750 C   0  0  0  0  0  0
  -29.5258  -18.4565   20.8073 C   0  0  0  0  0  0
  -29.2076  -21.1505   21.0056 C   0  0  0  0  0  0
  -28.7846  -23.7766   20.7170 C   0  0  0  0  0  0
  -28.3812  -24.9883   19.7280 C   0  0  0  0  0  0
  -29.9131  -15.8789   20.6689 N   0  0  0  0  0  0
  -28.9903  -22.3755   20.1024 N   0  3  0  0  0  0
  -31.2663  -21.2236   19.0886 F   0  0  0  0  0  0
  -28.5446  -18.2590   21.7214 F   0  0  0  0  0  0
  -31.4670  -12.5320   19.1906 H   0  0  0  0  0  0
  -30.3445  -11.4571   19.9700 H   0  0  0  0  0  0
  -29.7912  -11.7266   17.5247 H   0  0  0  0  0  0
  -29.6519  -13.4574   17.7361 H   0  0  0  0  0  0
  -27.8826  -11.2885   18.9022 H   0  0  0  0  0  0
  -27.3846  -12.5404   17.7922 H   0  0  0  0  0  0
  -27.6344  -14.2539   19.4650 H   0  0  0  0  0  0
  -28.7008  -12.1817   21.4409 H   0  0  0  0  0  0
  -28.4185  -13.8691   21.7875 H   0  0  0  0  0  0
  -25.2772   -9.5716   22.4750 H   0  0  0  0  0  0
  -24.0038   -7.4640   22.7455 H   0  0  0  0  0  0
  -21.0866   -8.8750   19.8928 H   0  0  0  0  0  0
  -22.3695  -10.9669   19.6146 H   0  0  0  0  0  0
  -21.2005   -7.6143   23.9724 H   0  0  0  0  0  0
  -21.1511   -6.0513   25.9078 H   0  0  0  0  0  0
  -22.0586   -2.7616   23.2831 H   0  0  0  0  0  0
  -22.4103  -11.9900   22.4857 H   0  0  0  0  0  0
  -21.1064  -13.1216   22.2567 H   0  0  0  0  0  0
  -24.6576  -15.8524   20.5203 H   0  0  0  0  0  0
  -26.2752  -15.6377   20.0951 H   0  0  0  0  0  0
  -26.7193  -32.5402   23.1055 H   0  0  0  0  0  0
  -24.9996  -33.9659   25.0352 H   0  0  0  0  0  0
  -22.7190  -31.3007   21.3978 H   0  0  0  0  0  0
  -23.3742  -35.9622   23.3306 H   0  0  0  0  0  0
  -24.3575  -36.8920   22.2059 H   0  0  0  0  0  0
  -23.7233  -37.6495   23.6658 H   0  0  0  0  0  0
  -26.1041  -31.5237   20.6030 H   0  0  0  0  0  0
  -26.8519  -30.8218   22.0048 H   0  0  0  0  0  0
  -28.1027  -28.9149   21.2256 H   0  0  0  0  0  0
  -25.9337  -25.9406   18.9434 H   0  0  0  0  0  0
  -23.9773  -27.3317   18.9669 H   0  0  0  0  0  0
  -23.7705  -30.5971   19.4027 H   0  0  0  0  0  0
  -22.7603  -29.2554   19.8459 H   0  0  0  0  0  0
  -25.1276  -36.1928   25.0830 H   0  0  0  0  0  0
  -20.9955  -28.3299   24.1406 H   0  0  0  0  0  0
  -20.5692  -26.2337   23.3624 H   0  0  0  0  0  0
  -21.6646  -26.7459   22.1202 H   0  0  0  0  0  0
  -19.6918  -25.6307   21.1257 H   0  0  0  0  0  0
  -19.6697  -27.3205   20.6753 H   0  0  0  0  0  0
  -17.4198  -26.6679   21.4044 H   0  0  0  0  0  0
  -18.0332  -26.0108   22.9056 H   0  0  0  0  0  0
  -19.7946  -30.7273   24.2283 H   0  0  0  0  0  0
  -17.5031  -31.6274   24.5179 H   0  0  0  0  0  0
  -15.5362  -30.3025   23.7636 H   0  0  0  0  0  0
  -15.8676  -28.0852   22.7060 H   0  0  0  0  0  0
  -24.5918  -30.7031   25.7721 H   0  0  0  0  0  0
  -24.8926  -32.2830   26.4843 H   0  0  0  0  0  0
  -25.8058  -30.8826   27.0183 H   0  0  0  0  0  0
  -26.2891  -29.6717   24.1192 H   0  0  0  0  0  0
  -27.4073  -29.7206   25.4618 H   0  0  0  0  0  0
  -27.8756  -30.4247   23.9337 H   0  0  0  0  0  0
  -27.2688  -33.3570   26.2038 H   0  0  0  0  0  0
  -28.3879  -32.6823   25.0291 H   0  0  0  0  0  0
  -28.0743  -31.8396   26.5382 H   0  0  0  0  0  0
  -28.2587  -38.0098   24.7504 H   0  0  0  0  0  0
  -28.1082  -36.2626   24.6300 H   0  0  0  0  0  0
  -27.2305  -37.1450   25.8881 H   0  0  0  0  0  0
  -20.9430  -29.8793   21.6868 H   0  0  0  0  0  0
  -26.0177  -38.2854   24.1415 H   0  0  0  0  0  0
  -31.7744  -16.7583   18.8458 H   0  0  0  0  0  0
  -32.3474  -19.0244   18.2165 H   0  0  0  0  0  0
  -29.8803  -21.4646   21.8054 H   0  0  0  0  0  0
  -28.2641  -20.8981   21.4891 H   0  0  0  0  0  0
  -28.0185  -23.7050   21.4888 H   0  0  0  0  0  0
  -29.7061  -24.0484   21.2317 H   0  0  0  0  0  0
  -27.4588  -24.6838   19.2484 H   0  0  0  0  0  0
  -29.1079  -24.9875   18.9150 H   0  0  0  0  0  0
  -28.9895  -15.7372   21.0481 H   0  0  0  0  0  0
  -28.2004  -22.1588   19.5164 H   0  0  0  0  0  0
  -29.8007  -22.4166   19.4993 H   0  0  0  0  0  0
  1 25  1  0  0  0
  1 30  2  0  0  0
  1 80  1  0  0  0
  2  3  1  0  0  0
  2 25  1  0  0  0
  2 84  1  0  0  0
  2 85  1  0  0  0
  3  4  1  0  0  0
  3 86  1  0  0  0
  3 87  1  0  0  0
  4  5  1  0  0  0
  4 88  1  0  0  0
  4 89  1  0  0  0
  5  6  1  0  0  0
  5 26  1  0  0  0
  5 90  1  0  0  0
  6 25  1  0  0  0
  6 91  1  0  0  0
  6 92  1  0  0  0
  7  8  2  0  0  0
  7 26  1  0  0  0
  7 29  1  0  0  0
  8  9  1  0  0  0
  8 22  1  0  0  0
  9 10  1  0  0  0
  9 27  2  0  0  0
 10 11  2  0  0  0
 10 15  1  0  0  0
 11 12  1  0  0  0
 11 93  1  0  0  0
 12 13  2  0  0  0
 12 94  1  0  0  0
 13 14  1  0  0  0
 13 31  1  0  0  0
 14 15  2  0  0  0
 14 95  1  0  0  0
 15 96  1  0  0  0
 16 17  2  0  0  0
 16 21  1  0  0  0
 16 31  1  0  0  0
 17 18  1  0  0  0
 17 97  1  0  0  0
 18 19  2  0  0  0
 18 98  1  0  0  0
 19 20  1  0  0  0
 19 24  1  0  0  0
 20 21  2  0  0  0
 20 99  1  0  0  0
 21 23  1  0  0  0
 22 28  1  0  0  0
 22 32  2  0  0  0
 26 27  1  0  0  0
 28100  1  0  0  0
 28101  1  0  0  0
 29102  1  0  0  0
 29103  1  0  0  0
 33 34  1  0  0  0
 33 66  1  0  0  0
 33 70  2  0  0  0
 34 36  1  0  0  0
 34 59  1  0  0  0
 34104  1  0  0  0
 35 44  2  0  0  0
 35 45  1  0  0  0
 35 68  1  0  0  0
 36 56  1  0  0  0
 36105  1  0  0  0
 37 39  1  0  0  0
 37 47  1  0  0  0
 37 66  1  0  0  0
 37106  1  0  0  0
 38 43  2  0  0  0
 38 46  1  0  0  0
 38 47  1  0  0  0
 39 64  1  0  0  0
 39 67  2  0  0  0
 40 52  1  0  0  0
 40 53  2  0  0  0
 40 58  1  0  0  0
 41107  1  0  0  0
 41108  1  0  0  0
 41109  1  0  0  0
 41 48  1  0  0  0
 42 43  1  0  0  0
 42 66  1  0  0  0
 42110  1  0  0  0
 42111  1  0  0  0
 43 44  1  0  0  0
 44112  1  0  0  0
 45 46  2  0  0  0
 45113  1  0  0  0
 46114  1  0  0  0
 47115  1  0  0  0
 47116  1  0  0  0
 48 56  1  0  0  0
 48 65  1  0  0  0
 48117  1  0  0  0
 49 50  1  0  0  0
 49 53  1  0  0  0
 49 64  1  0  0  0
 49118  1  0  0  0
 50 51  1  0  0  0
 50119  1  0  0  0
 50120  1  0  0  0
 51 52  1  0  0  0
 51121  1  0  0  0
 51122  1  0  0  0
 52123  1  0  0  0
 52124  1  0  0  0
 53 54  1  0  0  0
 54 55  2  0  0  0
 54125  1  0  0  0
 55 57  1  0  0  0
 55126  1  0  0  0
 56 69  2  0  0  0
 57 58  2  0  0  0
 57127  1  0  0  0
 58128  1  0  0  0
 59 60  1  0  0  0
 59 61  1  0  0  0
 59 62  1  0  0  0
 60129  1  0  0  0
 60130  1  0  0  0
 60131  1  0  0  0
 61132  1  0  0  0
 61133  1  0  0  0
 61134  1  0  0  0
 62135  1  0  0  0
 62136  1  0  0  0
 62137  1  0  0  0
 63 65  1  0  0  0
 63138  1  0  0  0
 63139  1  0  0  0
 63140  1  0  0  0
 64141  1  0  0  0
 65142  1  0  0  0
 68 79  1  0  0  0
 71 72  2  0  0  0
 71 74  1  0  0  0
 71143  1  0  0  0
 72 75  1  0  0  0
 72144  1  0  0  0
 73 75  2  0  0  0
 73 76  1  0  0  0
 73 77  1  0  0  0
 74 76  2  0  0  0
 74 80  1  0  0  0
 75 82  1  0  0  0
 76 83  1  0  0  0
 77 81  1  0  0  0
 77145  1  0  0  0
 77146  1  0  0  0
 78 79  1  0  0  0
 78 81  1  0  0  0
 78147  1  0  0  0
 78148  1  0  0  0
 79149  1  0  0  0
 79150  1  0  0  0
 80151  1  0  0  0
 81152  1  0  0  0
 81153  1  0  0  0
M  CHG  1  81   1
M  ISO  4   1 100  68 101  79 101  80 100
M  END
> <chiral flag>
0

> <version>
0

> <s_m_source_file>
/data/baiqing/PycharmProjects/Reinvent-master-3.2/result/LINK_invent/BTK/process_docking_weight1_custom_product_contain_oxygen_bond_distance_aromatic_linkinvent_7_9_3/rearranged_h_0012.sdf

> <i_m_source_file_index>
55

> <r_mmod_Potential_Energy-OPLS-2005>
-100.440795898438

> <r_mmod_Stretch_Energy-OPLS-2005>
117.780090332031

> <r_mmod_Bend_Energy-OPLS-2005>
162.994506835938

> <r_mmod_Torsional_Energy-OPLS-2005>
211.190933227539

> <r_mmod_Improper_Torsional_Energy-OPLS-2005>
4.2021632194519

> <r_mmod_Van_der_Waal_Energy-OPLS-2005>
147.919174194336

> <r_mmod_Electrostatic_Energy-OPLS-2005>
-368.051483154297

> <r_mmod_Solvation_Energy-OPLS-2005>
-452.277038574219

> <b_mmod_Minimization_Converged-OPLS-2005>
0

> <r_mmod_RMS_Derivative-OPLS-2005>
2.29812932014465

$$$$
55
                    3D
 Structure written by MMmdl.
157165  0  0  1  0            999 V2000
  -30.7482  -14.4782   20.6139 C   0  0  0  0  0  0
  -30.4141  -12.3322   19.4232 C   0  0  0  0  0  0
  -29.4848  -12.5048   18.2064 C   0  0  0  0  0  0
  -28.0141  -12.3362   18.6253 C   0  0  0  0  0  0
  -27.6524  -13.1954   19.8619 C   0  0  2  0  0  0
  -28.6976  -13.0247   20.9907 C   0  0  0  0  0  0
  -25.2573  -13.8133   20.5672 C   0  0  0  0  0  0
  -24.1831  -13.0425   20.9200 C   0  0  0  0  0  0
  -24.6380  -11.6891   20.8774 C   0  0  0  0  0  0
  -23.9053  -10.4287   21.0446 C   0  0  0  0  0  0
  -24.3623   -9.4198   21.9209 C   0  0  0  0  0  0
  -23.6298   -8.2234   22.0763 C   0  0  0  0  0  0
  -22.4289   -8.0282   21.3545 C   0  0  0  0  0  0
  -21.9924   -9.0257   20.4648 C   0  0  0  0  0  0
  -22.7244  -10.2137   20.3071 C   0  0  0  0  0  0
  -21.6847   -6.0757   22.5287 C   0  0  0  0  0  0
  -21.4011   -6.5658   23.8219 C   0  0  0  0  0  0
  -21.3656   -5.6805   24.9180 C   0  0  0  0  0  0
  -21.6042   -4.3062   24.7226 C   0  0  0  0  0  0
  -21.8823   -3.8165   23.4344 C   0  0  0  0  0  0
  -21.9191   -4.6985   22.3405 C   0  0  0  0  0  0
  -22.7856  -13.5236   21.1859 C   0  0  0  0  0  0
  -22.1660   -4.2173   21.0987 F   0  0  0  0  0  0
  -21.5630   -3.4545   25.7743 F   0  0  0  0  0  0
  -30.0290  -13.3291   20.4401 N   0  0  0  0  0  0
  -26.2980  -12.9268   20.3310 N   0  0  0  0  0  0
  -25.9292  -11.6453   20.5776 N   0  0  0  0  0  0
  -22.0485  -12.8230   22.0405 N   0  0  0  0  0  0
  -25.4302  -15.1852   20.4071 N   0  0  0  0  0  0
  -31.8425  -14.6474   20.0667 O   0  0  0  0  0  0
  -21.6637   -6.8893   21.4249 O   0  0  0  0  0  0
  -22.3554  -14.5545   20.6702 O   0  0  0  0  0  0
  -24.6169  -31.8662   23.2113 C   0  0  0  0  0  0
  -25.9069  -32.4807   23.8407 C   0  0  1  0  0  0
  -27.2304  -27.4278   20.0976 C   0  0  0  0  0  0
  -25.5914  -33.8603   24.2320 N   0  0  0  0  0  0
  -23.4037  -30.4922   21.5516 C   0  0  2  0  0  0
  -24.8484  -28.9556   20.1174 C   0  0  0  0  0  0
  -22.7408  -29.4669   22.5000 C   0  0  0  0  0  0
  -18.0259  -28.1385   22.8512 C   0  0  0  0  0  0
  -24.1475  -36.7316   23.2647 C   0  0  0  0  0  0
  -25.9333  -30.8301   21.3632 C   0  0  0  0  0  0
  -26.0119  -29.4661   20.7081 C   0  0  0  0  0  0
  -27.2090  -28.7108   20.6917 C   0  0  0  0  0  0
  -26.0522  -26.9365   19.4944 C   0  0  0  0  0  0
  -24.8635  -27.6888   19.5089 C   0  0  0  0  0  0
  -23.6104  -29.8231   20.1675 C   0  0  0  0  0  0
  -25.4095  -36.3093   24.0329 C   0  0  1  0  0  0
  -20.5854  -28.3687   23.1312 C   0  0  2  0  0  0
  -20.6750  -26.9425   22.5415 C   0  0  0  0  0  0
  -19.5726  -26.6396   21.5220 C   0  0  0  0  0  0
  -18.1900  -26.7940   22.1626 C   0  0  0  0  0  0
  -19.1512  -28.8851   23.2903 C   0  0  0  0  0  0
  -18.9447  -30.1459   23.8911 C   0  0  0  0  0  0
  -17.6454  -30.6602   24.0574 C   0  0  0  0  0  0
  -25.9027  -34.9460   23.5112 C   0  0  0  0  0  0
  -16.5341  -29.9102   23.6350 C   0  0  0  0  0  0
  -16.7245  -28.6509   23.0383 C   0  0  0  0  0  0
  -26.4502  -31.6605   25.0752 C   0  0  0  0  0  0
  -25.3762  -31.3678   26.1493 C   0  0  0  0  0  0
  -27.0396  -30.3058   24.6158 C   0  0  0  0  0  0
  -27.6040  -32.4368   25.7523 C   0  0  0  0  0  0
  -27.5567  -37.1801   24.8464 C   0  0  0  0  0  0
  -21.4133  -29.3042   22.3716 N   0  0  0  0  0  0
  -26.4276  -37.3788   23.9412 N   0  0  0  0  0  0
  -24.6697  -31.0755   22.1010 N   0  0  0  0  0  0
  -23.4164  -28.8214   23.3052 O   0  0  0  0  0  0
  -28.3813  -26.6658   20.0948 O   0  0  0  0  0  0
  -26.5603  -34.8918   22.4681 O   0  0  0  0  0  0
  -23.5359  -32.1416   23.7514 O   0  0  0  0  0  0
  -30.2208  -18.2142   19.9859 C   0  0  0  0  0  0
  -30.3515  -19.5952   19.7128 C   0  0  0  0  0  0
  -28.7976  -20.1064   21.5003 C   0  0  0  0  0  0
  -29.3610  -17.7616   21.0114 C   0  0  0  0  0  0
  -29.6286  -20.5626   20.4463 C   0  0  0  0  0  0
  -28.6625  -18.7267   21.7754 C   0  0  0  0  0  0
  -31.2390  -15.9910   22.4540 C   0  0  0  0  0  0
  -29.1170  -16.2564   21.2327 C   0  0  0  0  0  0
  -29.1429  -24.2805   20.0595 C   0  0  0  0  0  0
  -28.2521  -25.3670   20.7086 C   0  0  0  0  0  0
  -28.9365  -22.8794   20.6915 C   0  0  0  0  0  0
  -30.2913  -15.3973   21.5058 N   0  0  0  0  0  0
  -29.7761  -21.8931   20.0792 O   0  0  0  0  0  0
  -27.8343  -18.3337   22.7730 F   0  0  0  0  0  0
  -31.4565  -12.4260   19.1139 H   0  0  0  0  0  0
  -30.3211  -11.3272   19.8374 H   0  0  0  0  0  0
  -29.7370  -11.7788   17.4328 H   0  0  0  0  0  0
  -29.6326  -13.4901   17.7627 H   0  0  0  0  0  0
  -27.8478  -11.2809   18.8434 H   0  0  0  0  0  0
  -27.3548  -12.5797   17.7917 H   0  0  0  0  0  0
  -27.6706  -14.2223   19.5109 H   0  0  0  0  0  0
  -28.6851  -12.0006   21.3664 H   0  0  0  0  0  0
  -28.4435  -13.6483   21.8475 H   0  0  0  0  0  0
  -25.2767   -9.5684   22.4791 H   0  0  0  0  0  0
  -24.0016   -7.4633   22.7484 H   0  0  0  0  0  0
  -21.0864   -8.8786   19.8950 H   0  0  0  0  0  0
  -22.3713  -10.9698   19.6199 H   0  0  0  0  0  0
  -21.2002   -7.6166   23.9735 H   0  0  0  0  0  0
  -21.1472   -6.0532   25.9086 H   0  0  0  0  0  0
  -22.0607   -2.7628   23.2842 H   0  0  0  0  0  0
  -22.4091  -11.9882   22.4789 H   0  0  0  0  0  0
  -21.1111  -13.1264   22.2608 H   0  0  0  0  0  0
  -24.6644  -15.8395   20.5247 H   0  0  0  0  0  0
  -26.2767  -15.6276   20.0746 H   0  0  0  0  0  0
  -26.7137  -32.5516   23.1170 H   0  0  0  0  0  0
  -25.0064  -33.9755   25.0461 H   0  0  0  0  0  0
  -22.6930  -31.3093   21.4129 H   0  0  0  0  0  0
  -23.3731  -35.9663   23.3308 H   0  0  0  0  0  0
  -24.3558  -36.8959   22.2071 H   0  0  0  0  0  0
  -23.7249  -37.6508   23.6694 H   0  0  0  0  0  0
  -26.0435  -31.5940   20.5931 H   0  0  0  0  0  0
  -26.8216  -30.8828   21.9820 H   0  0  0  0  0  0
  -28.1078  -29.0982   21.1509 H   0  0  0  0  0  0
  -26.0495  -25.9683   19.0138 H   0  0  0  0  0  0
  -23.9678  -27.2890   19.0524 H   0  0  0  0  0  0
  -23.7213  -30.5973   19.4075 H   0  0  0  0  0  0
  -22.7326  -29.2445   19.8756 H   0  0  0  0  0  0
  -25.1268  -36.1943   25.0823 H   0  0  0  0  0  0
  -20.9930  -28.3278   24.1441 H   0  0  0  0  0  0
  -20.5681  -26.2299   23.3603 H   0  0  0  0  0  0
  -21.6618  -26.7481   22.1201 H   0  0  0  0  0  0
  -19.6888  -25.6313   21.1244 H   0  0  0  0  0  0
  -19.6658  -27.3208   20.6753 H   0  0  0  0  0  0
  -17.4168  -26.6725   21.4017 H   0  0  0  0  0  0
  -18.0264  -26.0064   22.8998 H   0  0  0  0  0  0
  -19.7917  -30.7276   24.2285 H   0  0  0  0  0  0
  -17.5007  -31.6281   24.5186 H   0  0  0  0  0  0
  -15.5340  -30.3014   23.7670 H   0  0  0  0  0  0
  -15.8638  -28.0834   22.7109 H   0  0  0  0  0  0
  -24.5971  -30.6980   25.7839 H   0  0  0  0  0  0
  -24.8901  -32.2813   26.4932 H   0  0  0  0  0  0
  -25.8127  -30.8883   27.0265 H   0  0  0  0  0  0
  -26.2966  -29.6731   24.1297 H   0  0  0  0  0  0
  -27.4268  -29.7387   25.4633 H   0  0  0  0  0  0
  -27.8731  -30.4399   23.9264 H   0  0  0  0  0  0
  -27.2635  -33.3686   26.2057 H   0  0  0  0  0  0
  -28.3869  -32.6913   25.0369 H   0  0  0  0  0  0
  -28.0689  -31.8540   26.5485 H   0  0  0  0  0  0
  -28.2559  -38.0127   24.7539 H   0  0  0  0  0  0
  -28.1085  -36.2648   24.6247 H   0  0  0  0  0  0
  -27.2287  -37.1404   25.8871 H   0  0  0  0  0  0
  -20.9298  -29.8744   21.6922 H   0  0  0  0  0  0
  -26.0151  -38.2851   24.1456 H   0  0  0  0  0  0
  -30.7640  -17.5023   19.3811 H   0  0  0  0  0  0
  -31.0019  -19.9132   18.9094 H   0  0  0  0  0  0
  -28.2356  -20.7969   22.1091 H   0  0  0  0  0  0
  -30.7183  -16.4891   23.2729 H   0  0  0  0  0  0
  -31.8752  -16.7272   21.9604 H   0  0  0  0  0  0
  -31.8854  -15.2288   22.8916 H   0  0  0  0  0  0
  -28.6123  -15.9234   20.3307 H   0  0  0  0  0  0
  -28.4022  -16.1084   22.0427 H   0  0  0  0  0  0
  -30.1900  -24.5715   20.1455 H   0  0  0  0  0  0
  -28.9239  -24.2253   18.9939 H   0  0  0  0  0  0
  -28.5259  -25.4721   21.7588 H   0  0  0  0  0  0
  -27.2225  -25.0081   20.7119 H   0  0  0  0  0  0
  -27.8911  -22.5868   20.5770 H   0  0  0  0  0  0
  -29.1503  -22.9261   21.7600 H   0  0  0  0  0  0
  1 25  1  0  0  0
  1 30  2  0  0  0
  1 82  1  0  0  0
  2  3  1  0  0  0
  2 25  1  0  0  0
  2 85  1  0  0  0
  2 86  1  0  0  0
  3  4  1  0  0  0
  3 87  1  0  0  0
  3 88  1  0  0  0
  4  5  1  0  0  0
  4 89  1  0  0  0
  4 90  1  0  0  0
  5  6  1  0  0  0
  5 26  1  0  0  0
  5 91  1  0  0  0
  6 25  1  0  0  0
  6 92  1  0  0  0
  6 93  1  0  0  0
  7  8  2  0  0  0
  7 26  1  0  0  0
  7 29  1  0  0  0
  8  9  1  0  0  0
  8 22  1  0  0  0
  9 10  1  0  0  0
  9 27  2  0  0  0
 10 11  2  0  0  0
 10 15  1  0  0  0
 11 12  1  0  0  0
 11 94  1  0  0  0
 12 13  2  0  0  0
 12 95  1  0  0  0
 13 14  1  0  0  0
 13 31  1  0  0  0
 14 15  2  0  0  0
 14 96  1  0  0  0
 15 97  1  0  0  0
 16 17  2  0  0  0
 16 21  1  0  0  0
 16 31  1  0  0  0
 17 18  1  0  0  0
 17 98  1  0  0  0
 18 19  2  0  0  0
 18 99  1  0  0  0
 19 20  1  0  0  0
 19 24  1  0  0  0
 20 21  2  0  0  0
 20100  1  0  0  0
 21 23  1  0  0  0
 22 28  1  0  0  0
 22 32  2  0  0  0
 26 27  1  0  0  0
 28101  1  0  0  0
 28102  1  0  0  0
 29103  1  0  0  0
 29104  1  0  0  0
 33 34  1  0  0  0
 33 66  1  0  0  0
 33 70  2  0  0  0
 34 36  1  0  0  0
 34 59  1  0  0  0
 34105  1  0  0  0
 35 44  2  0  0  0
 35 45  1  0  0  0
 35 68  1  0  0  0
 36 56  1  0  0  0
 36106  1  0  0  0
 37 39  1  0  0  0
 37 47  1  0  0  0
 37 66  1  0  0  0
 37107  1  0  0  0
 38 43  2  0  0  0
 38 46  1  0  0  0
 38 47  1  0  0  0
 39 64  1  0  0  0
 39 67  2  0  0  0
 40 52  1  0  0  0
 40 53  2  0  0  0
 40 58  1  0  0  0
 41108  1  0  0  0
 41109  1  0  0  0
 41110  1  0  0  0
 41 48  1  0  0  0
 42 43  1  0  0  0
 42 66  1  0  0  0
 42111  1  0  0  0
 42112  1  0  0  0
 43 44  1  0  0  0
 44113  1  0  0  0
 45 46  2  0  0  0
 45114  1  0  0  0
 46115  1  0  0  0
 47116  1  0  0  0
 47117  1  0  0  0
 48 56  1  0  0  0
 48 65  1  0  0  0
 48118  1  0  0  0
 49 50  1  0  0  0
 49 53  1  0  0  0
 49 64  1  0  0  0
 49119  1  0  0  0
 50 51  1  0  0  0
 50120  1  0  0  0
 50121  1  0  0  0
 51 52  1  0  0  0
 51122  1  0  0  0
 51123  1  0  0  0
 52124  1  0  0  0
 52125  1  0  0  0
 53 54  1  0  0  0
 54 55  2  0  0  0
 54126  1  0  0  0
 55 57  1  0  0  0
 55127  1  0  0  0
 56 69  2  0  0  0
 57 58  2  0  0  0
 57128  1  0  0  0
 58129  1  0  0  0
 59 60  1  0  0  0
 59 61  1  0  0  0
 59 62  1  0  0  0
 60130  1  0  0  0
 60131  1  0  0  0
 60132  1  0  0  0
 61133  1  0  0  0
 61134  1  0  0  0
 61135  1  0  0  0
 62136  1  0  0  0
 62137  1  0  0  0
 62138  1  0  0  0
 63 65  1  0  0  0
 63139  1  0  0  0
 63140  1  0  0  0
 63141  1  0  0  0
 64142  1  0  0  0
 65143  1  0  0  0
 68 80  1  0  0  0
 71 72  2  0  0  0
 71 74  1  0  0  0
 71144  1  0  0  0
 72 75  1  0  0  0
 72145  1  0  0  0
 73 75  2  0  0  0
 73 76  1  0  0  0
 73146  1  0  0  0
 74 76  2  0  0  0
 74 78  1  0  0  0
 75 83  1  0  0  0
 76 84  1  0  0  0
 77 82  1  0  0  0
 77147  1  0  0  0
 77148  1  0  0  0
 77149  1  0  0  0
 78 82  1  0  0  0
 78150  1  0  0  0
 78151  1  0  0  0
 79 80  1  0  0  0
 79 81  1  0  0  0
 79152  1  0  0  0
 79153  1  0  0  0
 80154  1  0  0  0
 80155  1  0  0  0
 81 83  1  0  0  0
 81156  1  0  0  0
 81157  1  0  0  0
M  ISO  4   1 100  68 101  80 101  82 100
M  END
> <chiral flag>
0

> <version>
0

> <s_m_source_file>
/data/baiqing/PycharmProjects/Reinvent-master-3.2/result/LINK_invent/BTK/process_docking_weight1_custom_product_contain_oxygen_bond_distance_aromatic_linkinvent_7_9_3/rearranged_h_0012.sdf

> <i_m_source_file_index>
56

> <r_mmod_Potential_Energy-OPLS-2005>
85.9945068359375

> <r_mmod_Stretch_Energy-OPLS-2005>
41.2845649719238

> <r_mmod_Bend_Energy-OPLS-2005>
103.547470092773

> <r_mmod_Torsional_Energy-OPLS-2005>
276.213134765625

> <r_mmod_Improper_Torsional_Energy-OPLS-2005>
4.48051118850708

> <r_mmod_Van_der_Waal_Energy-OPLS-2005>
154.168899536133

> <r_mmod_Electrostatic_Energy-OPLS-2005>
-313.578460693359

> <r_mmod_Solvation_Energy-OPLS-2005>
-194.207885742188

> <b_mmod_Minimization_Converged-OPLS-2005>
0

> <r_mmod_RMS_Derivative-OPLS-2005>
2.03925967216492

$$$$
56
                    3D
 Structure written by MMmdl.
158167  0  0  1  0            999 V2000
  -30.4379  -15.1894   20.3539 C   0  0  0  0  0  0
  -30.4480  -12.7476   19.5037 C   0  0  0  0  0  0
  -29.5278  -12.5448   18.2731 C   0  0  0  0  0  0
  -28.0744  -12.2841   18.7076 C   0  0  0  0  0  0
  -27.6149  -13.2644   19.8171 C   0  0  2  0  0  0
  -28.6541  -13.4042   20.9486 C   0  0  0  0  0  0
  -25.2416  -13.8242   20.5691 C   0  0  0  0  0  0
  -24.1765  -13.0446   20.9263 C   0  0  0  0  0  0
  -24.6421  -11.6938   20.8797 C   0  0  0  0  0  0
  -23.9131  -10.4299   21.0456 C   0  0  0  0  0  0
  -24.3667   -9.4198   21.9215 C   0  0  0  0  0  0
  -23.6308   -8.2240   22.0748 C   0  0  0  0  0  0
  -22.4282   -8.0293   21.3536 C   0  0  0  0  0  0
  -21.9959   -9.0306   20.4659 C   0  0  0  0  0  0
  -22.7308  -10.2179   20.3099 C   0  0  0  0  0  0
  -21.6851   -6.0768   22.5274 C   0  0  0  0  0  0
  -21.4010   -6.5669   23.8211 C   0  0  0  0  0  0
  -21.3654   -5.6816   24.9169 C   0  0  0  0  0  0
  -21.6036   -4.3083   24.7206 C   0  0  0  0  0  0
  -21.8818   -3.8176   23.4335 C   0  0  0  0  0  0
  -21.9182   -4.6995   22.3402 C   0  0  0  0  0  0
  -22.7784  -13.5211   21.1908 C   0  0  0  0  0  0
  -22.1645   -4.2177   21.0988 F   0  0  0  0  0  0
  -21.5622   -3.4559   25.7711 F   0  0  0  0  0  0
  -29.9001  -13.8791   20.3280 N   0  0  0  0  0  0
  -26.2837  -12.9507   20.3190 N   0  0  0  0  0  0
  -25.9352  -11.6631   20.5763 N   0  0  0  0  0  0
  -22.0442  -12.8182   22.0457 N   0  0  0  0  0  0
  -25.4040  -15.1969   20.4003 N   0  0  0  0  0  0
  -31.6555  -15.2449   20.1445 O   0  0  0  0  0  0
  -21.6627   -6.8901   21.4226 O   0  0  0  0  0  0
  -22.3485  -14.5517   20.6749 O   0  0  0  0  0  0
  -24.6574  -31.8285   23.1729 C   0  0  0  0  0  0
  -25.9269  -32.4618   23.8197 C   0  0  1  0  0  0
  -27.2187  -26.9728   20.1837 C   0  0  0  0  0  0
  -25.5960  -33.8428   24.2123 N   0  0  0  0  0  0
  -23.4707  -30.4358   21.5231 C   0  0  2  0  0  0
  -24.9240  -28.8319   20.1151 C   0  0  0  0  0  0
  -22.7655  -29.4420   22.4809 C   0  0  0  0  0  0
  -18.0324  -28.1385   22.8473 C   0  0  0  0  0  0
  -24.1509  -36.7244   23.2617 C   0  0  0  0  0  0
  -26.0337  -30.6504   21.3926 C   0  0  0  0  0  0
  -26.1054  -29.2413   20.7460 C   0  0  0  0  0  0
  -27.2511  -28.3321   20.7546 C   0  0  0  0  0  0
  -26.0066  -26.7019   19.5102 C   0  0  0  0  0  0
  -24.8973  -27.5800   19.4785 C   0  0  0  0  0  0
  -23.7087  -29.7540   20.1480 C   0  0  0  0  0  0
  -25.4123  -36.2984   24.0302 C   0  0  1  0  0  0
  -20.5946  -28.3728   23.1222 C   0  0  2  0  0  0
  -20.6790  -26.9403   22.5422 C   0  0  0  0  0  0
  -19.5782  -26.6380   21.5204 C   0  0  0  0  0  0
  -18.1969  -26.7924   22.1626 C   0  0  0  0  0  0
  -19.1579  -28.8881   23.2843 C   0  0  0  0  0  0
  -18.9471  -30.1480   23.8877 C   0  0  0  0  0  0
  -17.6457  -30.6581   24.0551 C   0  0  0  0  0  0
  -25.9083  -34.9367   23.5034 C   0  0  0  0  0  0
  -16.5366  -29.9065   23.6309 C   0  0  0  0  0  0
  -16.7306  -28.6483   23.0335 C   0  0  0  0  0  0
  -26.4539  -31.6502   25.0683 C   0  0  0  0  0  0
  -25.3716  -31.3787   26.1387 C   0  0  0  0  0  0
  -27.0340  -30.2854   24.6336 C   0  0  0  0  0  0
  -27.6087  -32.4243   25.7459 C   0  0  0  0  0  0
  -27.5599  -37.1746   24.8422 C   0  0  0  0  0  0
  -21.4320  -29.3033   22.3582 N   0  0  0  0  0  0
  -26.4276  -37.3716   23.9412 N   0  0  0  0  0  0
  -24.7421  -30.9968   22.0859 N   0  0  0  0  0  0
  -23.4222  -28.7966   23.3017 O   0  0  0  0  0  0
  -28.2449  -25.9078   20.2070 O   0  0  0  0  0  0
  -26.5705  -34.8896   22.4641 O   0  0  0  0  0  0
  -23.5659  -32.1248   23.6845 O   0  0  0  0  0  0
  -28.0902  -20.1750   20.0731 C   0  0  0  0  0  0
  -30.5591  -19.0021   20.4233 C   0  0  0  0  0  0
  -29.1059  -21.2080   20.1716 C   0  0  0  0  0  0
  -29.5343  -17.9769   20.3232 C   0  0  0  0  0  0
  -28.2848  -18.7046   20.1503 C   0  0  0  0  0  0
  -30.3625  -20.4735   20.3508 C   0  0  0  0  0  0
  -29.8901  -23.8641   17.6815 C   0  0  0  0  0  0
  -29.6107  -23.7646   16.1896 C   0  0  0  0  0  0
  -28.2732  -23.0176   16.1329 C   0  0  0  0  0  0
  -28.1200  -22.3647   17.5154 C   0  0  0  0  0  0
  -28.0188  -24.2957   20.3564 C   0  0  0  0  0  0
  -29.0117  -22.9201   19.8424 C   0  0  2  0  0  0
  -29.0615  -23.0736   18.3799 N   0  0  0  0  0  0
  -29.5747  -16.3737   20.4039 N   0  0  0  0  0  0
  -30.7723  -24.5936   18.1430 O   0  0  0  0  0  0
  -27.1757  -17.9395   20.0166 F   0  0  0  0  0  0
  -31.4852  -21.2258   20.4288 F   0  0  0  0  0  0
  -31.4636  -12.9569   19.1636 H   0  0  0  0  0  0
  -30.5203  -11.8336   20.0961 H   0  0  0  0  0  0
  -29.8834  -11.7151   17.6592 H   0  0  0  0  0  0
  -29.5676  -13.4339   17.6433 H   0  0  0  0  0  0
  -28.0258  -11.2607   19.0805 H   0  0  0  0  0  0
  -27.4005  -12.3229   17.8503 H   0  0  0  0  0  0
  -27.5391  -14.2367   19.3256 H   0  0  0  0  0  0
  -28.7990  -12.4614   21.4764 H   0  0  0  0  0  0
  -28.3149  -14.1297   21.6924 H   0  0  0  0  0  0
  -25.2831   -9.5648   22.4788 H   0  0  0  0  0  0
  -23.9993   -7.4646   22.7494 H   0  0  0  0  0  0
  -21.0870   -8.8920   19.8987 H   0  0  0  0  0  0
  -22.3811  -10.9760   19.6227 H   0  0  0  0  0  0
  -21.2009   -7.6174   23.9745 H   0  0  0  0  0  0
  -21.1459   -6.0526   25.9078 H   0  0  0  0  0  0
  -22.0590   -2.7635   23.2839 H   0  0  0  0  0  0
  -22.4014  -11.9820   22.4835 H   0  0  0  0  0  0
  -21.1079  -13.1249   22.2699 H   0  0  0  0  0  0
  -24.6349  -15.8457   20.5192 H   0  0  0  0  0  0
  -26.2283  -15.6481   20.0248 H   0  0  0  0  0  0
  -26.7317  -32.5180   23.0899 H   0  0  0  0  0  0
  -24.9988  -33.9490   25.0197 H   0  0  0  0  0  0
  -22.7801  -31.2630   21.3502 H   0  0  0  0  0  0
  -23.3782  -35.9560   23.3213 H   0  0  0  0  0  0
  -24.3600  -36.8946   22.2038 H   0  0  0  0  0  0
  -23.7244  -37.6415   23.6710 H   0  0  0  0  0  0
  -26.1886  -31.3912   20.6058 H   0  0  0  0  0  0
  -26.9055  -30.7190   22.0322 H   0  0  0  0  0  0
  -28.1500  -28.6444   21.2692 H   0  0  0  0  0  0
  -25.8915  -25.7513   19.0119 H   0  0  0  0  0  0
  -23.9979  -27.2624   18.9690 H   0  0  0  0  0  0
  -23.8640  -30.5244   19.3912 H   0  0  0  0  0  0
  -22.8229  -29.2026   19.8287 H   0  0  0  0  0  0
  -25.1294  -36.1785   25.0788 H   0  0  0  0  0  0
  -21.0019  -28.3322   24.1355 H   0  0  0  0  0  0
  -20.5653  -26.2325   23.3651 H   0  0  0  0  0  0
  -21.6651  -26.7373   22.1226 H   0  0  0  0  0  0
  -19.6944  -25.6295   21.1216 H   0  0  0  0  0  0
  -19.6710  -27.3218   20.6754 H   0  0  0  0  0  0
  -17.4212  -26.6673   21.4051 H   0  0  0  0  0  0
  -18.0377  -26.0074   22.9037 H   0  0  0  0  0  0
  -19.7944  -30.7301   24.2259 H   0  0  0  0  0  0
  -17.4985  -31.6245   24.5175 H   0  0  0  0  0  0
  -15.5354  -30.2938   23.7618 H   0  0  0  0  0  0
  -15.8726  -28.0781   22.7040 H   0  0  0  0  0  0
  -24.5865  -30.7160   25.7740 H   0  0  0  0  0  0
  -24.8956  -32.3009   26.4734 H   0  0  0  0  0  0
  -25.7985  -30.9006   27.0216 H   0  0  0  0  0  0
  -26.2946  -29.6590   24.1342 H   0  0  0  0  0  0
  -27.3845  -29.7148   25.4942 H   0  0  0  0  0  0
  -27.8915  -30.3994   23.9709 H   0  0  0  0  0  0
  -27.2712  -33.3559   26.2016 H   0  0  0  0  0  0
  -28.3924  -32.6758   25.0304 H   0  0  0  0  0  0
  -28.0738  -31.8361   26.5379 H   0  0  0  0  0  0
  -28.2517  -38.0140   24.7549 H   0  0  0  0  0  0
  -28.1198  -36.2664   24.6128 H   0  0  0  0  0  0
  -27.2351  -37.1223   25.8830 H   0  0  0  0  0  0
  -20.9563  -29.8738   21.6732 H   0  0  0  0  0  0
  -26.0143  -38.2769   24.1490 H   0  0  0  0  0  0
  -27.0789  -20.5031   19.8809 H   0  0  0  0  0  0
  -31.5755  -18.6599   20.5580 H   0  0  0  0  0  0
  -30.4089  -23.1887   15.7179 H   0  0  0  0  0  0
  -29.5660  -24.7451   15.7162 H   0  0  0  0  0  0
  -28.2447  -22.2762   15.3332 H   0  0  0  0  0  0
  -27.4615  -23.7250   15.9494 H   0  0  0  0  0  0
  -28.3936  -21.3089   17.4595 H   0  0  0  0  0  0
  -27.0943  -22.4303   17.8863 H   0  0  0  0  0  0
  -27.8917  -24.1662   21.4315 H   0  0  0  0  0  0
  -27.0240  -24.0922   19.9591 H   0  0  0  0  0  0
  -29.9889  -23.2230   20.2207 H   0  0  0  0  0  0
  -28.6253  -16.0388   20.4612 H   0  0  0  0  0  0
  1 25  1  0  0  0
  1 30  2  0  0  0
  1 84  1  0  0  0
  2  3  1  0  0  0
  2 25  1  0  0  0
  2 88  1  0  0  0
  2 89  1  0  0  0
  3  4  1  0  0  0
  3 90  1  0  0  0
  3 91  1  0  0  0
  4  5  1  0  0  0
  4 92  1  0  0  0
  4 93  1  0  0  0
  5  6  1  0  0  0
  5 26  1  0  0  0
  5 94  1  0  0  0
  6 25  1  0  0  0
  6 95  1  0  0  0
  6 96  1  0  0  0
  7  8  2  0  0  0
  7 26  1  0  0  0
  7 29  1  0  0  0
  8  9  1  0  0  0
  8 22  1  0  0  0
  9 10  1  0  0  0
  9 27  2  0  0  0
 10 11  2  0  0  0
 10 15  1  0  0  0
 11 12  1  0  0  0
 11 97  1  0  0  0
 12 13  2  0  0  0
 12 98  1  0  0  0
 13 14  1  0  0  0
 13 31  1  0  0  0
 14 15  2  0  0  0
 14 99  1  0  0  0
 15100  1  0  0  0
 16 17  2  0  0  0
 16 21  1  0  0  0
 16 31  1  0  0  0
 17 18  1  0  0  0
 17101  1  0  0  0
 18 19  2  0  0  0
 18102  1  0  0  0
 19 20  1  0  0  0
 19 24  1  0  0  0
 20 21  2  0  0  0
 20103  1  0  0  0
 21 23  1  0  0  0
 22 28  1  0  0  0
 22 32  2  0  0  0
 26 27  1  0  0  0
 28104  1  0  0  0
 28105  1  0  0  0
 29106  1  0  0  0
 29107  1  0  0  0
 33 34  1  0  0  0
 33 66  1  0  0  0
 33 70  2  0  0  0
 34 36  1  0  0  0
 34 59  1  0  0  0
 34108  1  0  0  0
 35 44  2  0  0  0
 35 45  1  0  0  0
 35 68  1  0  0  0
 36 56  1  0  0  0
 36109  1  0  0  0
 37 39  1  0  0  0
 37 47  1  0  0  0
 37 66  1  0  0  0
 37110  1  0  0  0
 38 43  2  0  0  0
 38 46  1  0  0  0
 38 47  1  0  0  0
 39 64  1  0  0  0
 39 67  2  0  0  0
 40 52  1  0  0  0
 40 53  2  0  0  0
 40 58  1  0  0  0
 41111  1  0  0  0
 41112  1  0  0  0
 41113  1  0  0  0
 41 48  1  0  0  0
 42 43  1  0  0  0
 42 66  1  0  0  0
 42114  1  0  0  0
 42115  1  0  0  0
 43 44  1  0  0  0
 44116  1  0  0  0
 45 46  2  0  0  0
 45117  1  0  0  0
 46118  1  0  0  0
 47119  1  0  0  0
 47120  1  0  0  0
 48 56  1  0  0  0
 48 65  1  0  0  0
 48121  1  0  0  0
 49 50  1  0  0  0
 49 53  1  0  0  0
 49 64  1  0  0  0
 49122  1  0  0  0
 50 51  1  0  0  0
 50123  1  0  0  0
 50124  1  0  0  0
 51 52  1  0  0  0
 51125  1  0  0  0
 51126  1  0  0  0
 52127  1  0  0  0
 52128  1  0  0  0
 53 54  1  0  0  0
 54 55  2  0  0  0
 54129  1  0  0  0
 55 57  1  0  0  0
 55130  1  0  0  0
 56 69  2  0  0  0
 57 58  2  0  0  0
 57131  1  0  0  0
 58132  1  0  0  0
 59 60  1  0  0  0
 59 61  1  0  0  0
 59 62  1  0  0  0
 60133  1  0  0  0
 60134  1  0  0  0
 60135  1  0  0  0
 61136  1  0  0  0
 61137  1  0  0  0
 61138  1  0  0  0
 62139  1  0  0  0
 62140  1  0  0  0
 62141  1  0  0  0
 63 65  1  0  0  0
 63142  1  0  0  0
 63143  1  0  0  0
 63144  1  0  0  0
 64145  1  0  0  0
 65146  1  0  0  0
 68 81  1  0  0  0
 71 73  2  0  0  0
 71 75  1  0  0  0
 71147  1  0  0  0
 72 74  1  0  0  0
 72 76  2  0  0  0
 72148  1  0  0  0
 73 76  1  0  0  0
 73 82  1  0  0  0
 74 75  2  0  0  0
 74 84  1  0  0  0
 75 86  1  0  0  0
 76 87  1  0  0  0
 77 78  1  0  0  0
 77 83  1  0  0  0
 77 85  2  0  0  0
 78 79  1  0  0  0
 78149  1  0  0  0
 78150  1  0  0  0
 79 80  1  0  0  0
 79151  1  0  0  0
 79152  1  0  0  0
 80 83  1  0  0  0
 80153  1  0  0  0
 80154  1  0  0  0
 81155  1  0  0  0
 81156  1  0  0  0
 81 82  1  0  0  0
 82 83  1  0  0  0
 82157  1  0  0  0
 84158  1  0  0  0
M  ISO  4   1 100  68 101  81 101  84 100
M  END
> <chiral flag>
0

> <version>
0

> <s_m_source_file>
/data/baiqing/PycharmProjects/Reinvent-master-3.2/result/LINK_invent/BTK/process_docking_weight1_custom_product_contain_oxygen_bond_distance_aromatic_linkinvent_7_9_3/rearranged_h_0012.sdf

> <i_m_source_file_index>
57

> <r_mmod_Potential_Energy-OPLS-2005>
1034.21472167969

> <r_mmod_Stretch_Energy-OPLS-2005>
456.523956298828

> <r_mmod_Bend_Energy-OPLS-2005>
439.708038330078

> <r_mmod_Torsional_Energy-OPLS-2005>
272.498870849609

> <r_mmod_Improper_Torsional_Energy-OPLS-2005>
6.48327684402466

> <r_mmod_Van_der_Waal_Energy-OPLS-2005>
116.334129333496

> <r_mmod_Electrostatic_Energy-OPLS-2005>
-418.714538574219

> <r_mmod_Solvation_Energy-OPLS-2005>
-226.045989990234

> <b_mmod_Minimization_Converged-OPLS-2005>
0

> <r_mmod_RMS_Derivative-OPLS-2005>
4.52513551712036

$$$$
57
                    3D
 Structure written by MMmdl.
154162  0  0  1  0            999 V2000
  -30.6599  -14.6486   20.5828 C   0  0  0  0  0  0
  -30.4308  -12.4218   19.4622 C   0  0  0  0  0  0
  -29.5077  -12.5261   18.2288 C   0  0  0  0  0  0
  -28.0317  -12.3493   18.6336 C   0  0  0  0  0  0
  -27.6488  -13.2212   19.8571 C   0  0  2  0  0  0
  -28.6835  -13.0792   20.9895 C   0  0  0  0  0  0
  -25.2544  -13.8185   20.5675 C   0  0  0  0  0  0
  -24.1817  -13.0440   20.9174 C   0  0  0  0  0  0
  -24.6391  -11.6912   20.8719 C   0  0  0  0  0  0
  -23.9064  -10.4295   21.0399 C   0  0  0  0  0  0
  -24.3617   -9.4211   21.9177 C   0  0  0  0  0  0
  -23.6292   -8.2247   22.0752 C   0  0  0  0  0  0
  -22.4273   -8.0283   21.3545 C   0  0  0  0  0  0
  -21.9907   -9.0255   20.4647 C   0  0  0  0  0  0
  -22.7235  -10.2134   20.3052 C   0  0  0  0  0  0
  -21.6854   -6.0738   22.5280 C   0  0  0  0  0  0
  -21.4016   -6.5643   23.8213 C   0  0  0  0  0  0
  -21.3657   -5.6794   24.9175 C   0  0  0  0  0  0
  -21.6042   -4.3056   24.7226 C   0  0  0  0  0  0
  -21.8817   -3.8148   23.4347 C   0  0  0  0  0  0
  -21.9194   -4.6966   22.3404 C   0  0  0  0  0  0
  -22.7843  -13.5231   21.1854 C   0  0  0  0  0  0
  -22.1660   -4.2151   21.0981 F   0  0  0  0  0  0
  -21.5624   -3.4540   25.7738 F   0  0  0  0  0  0
  -30.0042  -13.4425   20.4476 N   0  0  0  0  0  0
  -26.2957  -12.9369   20.3260 N   0  0  0  0  0  0
  -25.9314  -11.6518   20.5710 N   0  0  0  0  0  0
  -22.0498  -12.8220   22.0418 N   0  0  0  0  0  0
  -25.4282  -15.1910   20.4146 N   0  0  0  0  0  0
  -31.7612  -14.8176   20.0489 O   0  0  0  0  0  0
  -21.6639   -6.8879   21.4241 O   0  0  0  0  0  0
  -22.3525  -14.5540   20.6710 O   0  0  0  0  0  0
  -24.6266  -31.8587   23.2009 C   0  0  0  0  0  0
  -25.9109  -32.4772   23.8346 C   0  0  1  0  0  0
  -27.2231  -27.3123   20.1278 C   0  0  0  0  0  0
  -25.5922  -33.8573   24.2276 N   0  0  0  0  0  0
  -23.4209  -30.4808   21.5436 C   0  0  2  0  0  0
  -24.8684  -28.9308   20.1135 C   0  0  0  0  0  0
  -22.7480  -29.4617   22.4937 C   0  0  0  0  0  0
  -18.0298  -28.1376   22.8485 C   0  0  0  0  0  0
  -24.1490  -36.7292   23.2639 C   0  0  0  0  0  0
  -25.9616  -30.7889   21.3709 C   0  0  0  0  0  0
  -26.0373  -29.4139   20.7168 C   0  0  0  0  0  0
  -27.2209  -28.6172   20.7101 C   0  0  0  0  0  0
  -26.0364  -26.8814   19.4987 C   0  0  0  0  0  0
  -24.8696  -27.6701   19.4945 C   0  0  0  0  0  0
  -23.6366  -29.8120   20.1602 C   0  0  0  0  0  0
  -25.4113  -36.3080   24.0329 C   0  0  1  0  0  0
  -20.5896  -28.3686   23.1289 C   0  0  2  0  0  0
  -20.6795  -26.9411   22.5405 C   0  0  0  0  0  0
  -19.5776  -26.6395   21.5199 C   0  0  0  0  0  0
  -18.1953  -26.7923   22.1614 C   0  0  0  0  0  0
  -19.1546  -28.8846   23.2884 C   0  0  0  0  0  0
  -18.9464  -30.1446   23.8907 C   0  0  0  0  0  0
  -17.6462  -30.6574   24.0567 C   0  0  0  0  0  0
  -25.9049  -34.9449   23.5103 C   0  0  0  0  0  0
  -16.5357  -29.9069   23.6326 C   0  0  0  0  0  0
  -16.7284  -28.6488   23.0348 C   0  0  0  0  0  0
  -26.4497  -31.6579   25.0717 C   0  0  0  0  0  0
  -25.3733  -31.3713   26.1444 C   0  0  0  0  0  0
  -27.0341  -30.3005   24.6165 C   0  0  0  0  0  0
  -27.6055  -32.4312   25.7492 C   0  0  0  0  0  0
  -27.5577  -37.1803   24.8466 C   0  0  0  0  0  0
  -21.4191  -29.3052   22.3690 N   0  0  0  0  0  0
  -26.4292  -37.3774   23.9408 N   0  0  0  0  0  0
  -24.6885  -31.0596   22.0957 N   0  0  0  0  0  0
  -23.4206  -28.8151   23.3011 O   0  0  0  0  0  0
  -28.3350  -26.4585   20.1395 O   0  0  0  0  0  0
  -26.5621  -34.8918   22.4671 O   0  0  0  0  0  0
  -23.5427  -32.1383   23.7338 O   0  0  0  0  0  0
  -29.3297  -18.0700   21.7810 C   0  0  0  0  0  0
  -29.1452  -19.4465   21.4405 C   0  0  0  0  0  0
  -30.1488  -17.5974   19.5842 C   0  0  0  0  0  0
  -29.8542  -17.0866   20.8791 C   0  0  0  0  0  0
  -29.4737  -19.9495   20.1570 C   0  0  0  0  0  0
  -29.9715  -18.9759   19.2418 C   0  0  0  0  0  0
  -30.0015  -15.4271   22.7546 C   0  0  0  0  0  0
  -28.8556  -23.8437   19.8991 C   0  0  0  0  0  0
  -28.1444  -25.0696   20.6364 C   0  0  0  0  0  0
  -28.7725  -22.3772   20.5477 C   0  0  0  0  0  0
  -30.0602  -15.6719   21.3028 N   0  0  0  0  0  0
  -29.3578  -21.2992   19.7382 O   0  0  0  0  0  0
  -30.2946  -19.3743   17.9874 F   0  0  0  0  0  0
  -31.4730  -12.5427   19.1625 H   0  0  0  0  0  0
  -30.3677  -11.4259   19.9034 H   0  0  0  0  0  0
  -29.7847  -11.7767   17.4863 H   0  0  0  0  0  0
  -29.6429  -13.4971   17.7498 H   0  0  0  0  0  0
  -27.8774  -11.2957   18.8691 H   0  0  0  0  0  0
  -27.3772  -12.5714   17.7901 H   0  0  0  0  0  0
  -27.6688  -14.2585   19.5208 H   0  0  0  0  0  0
  -28.7020  -12.0566   21.3686 H   0  0  0  0  0  0
  -28.3770  -13.6951   21.8311 H   0  0  0  0  0  0
  -25.2765   -9.5689   22.4746 H   0  0  0  0  0  0
  -24.0003   -7.4643   22.7474 H   0  0  0  0  0  0
  -21.0834   -8.8773   19.8959 H   0  0  0  0  0  0
  -22.3691  -10.9669   19.6159 H   0  0  0  0  0  0
  -21.2010   -7.6151   23.9718 H   0  0  0  0  0  0
  -21.1480   -6.0525   25.9078 H   0  0  0  0  0  0
  -22.0599   -2.7611   23.2847 H   0  0  0  0  0  0
  -22.4122  -11.9874   22.4787 H   0  0  0  0  0  0
  -21.1124  -13.1252   22.2651 H   0  0  0  0  0  0
  -24.6697  -15.8516   20.5439 H   0  0  0  0  0  0
  -26.2938  -15.6318   20.1298 H   0  0  0  0  0  0
  -26.7177  -32.5449   23.1096 H   0  0  0  0  0  0
  -25.0079  -33.9718   25.0427 H   0  0  0  0  0  0
  -22.7151  -31.3012   21.3986 H   0  0  0  0  0  0
  -23.3749  -35.9628   23.3304 H   0  0  0  0  0  0
  -24.3582  -36.8910   22.2053 H   0  0  0  0  0  0
  -23.7247  -37.6498   23.6658 H   0  0  0  0  0  0
  -26.0901  -31.5500   20.6001 H   0  0  0  0  0  0
  -26.8428  -30.8418   21.9986 H   0  0  0  0  0  0
  -28.1203  -28.9846   21.1842 H   0  0  0  0  0  0
  -26.0053  -25.9163   19.0134 H   0  0  0  0  0  0
  -23.9744  -27.2960   19.0166 H   0  0  0  0  0  0
  -23.7566  -30.5867   19.4022 H   0  0  0  0  0  0
  -22.7565  -29.2417   19.8583 H   0  0  0  0  0  0
  -25.1291  -36.1933   25.0822 H   0  0  0  0  0  0
  -20.9987  -28.3261   24.1411 H   0  0  0  0  0  0
  -20.5696  -26.2293   23.3602 H   0  0  0  0  0  0
  -21.6668  -26.7452   22.1201 H   0  0  0  0  0  0
  -19.6947  -25.6318   21.1205 H   0  0  0  0  0  0
  -19.6715  -27.3227   20.6744 H   0  0  0  0  0  0
  -17.4228  -26.6671   21.4009 H   0  0  0  0  0  0
  -18.0357  -26.0054   22.9001 H   0  0  0  0  0  0
  -19.7935  -30.7259   24.2294 H   0  0  0  0  0  0
  -17.5008  -31.6252   24.5170 H   0  0  0  0  0  0
  -15.5354  -30.2965   23.7643 H   0  0  0  0  0  0
  -15.8690  -28.0801   22.7061 H   0  0  0  0  0  0
  -24.5909  -30.7058   25.7777 H   0  0  0  0  0  0
  -24.8920  -32.2878   26.4869 H   0  0  0  0  0  0
  -25.8061  -30.8896   27.0221 H   0  0  0  0  0  0
  -26.2915  -29.6760   24.1187 H   0  0  0  0  0  0
  -27.4045  -29.7257   25.4664 H   0  0  0  0  0  0
  -27.8780  -30.4300   23.9384 H   0  0  0  0  0  0
  -27.2662  -33.3608   26.2075 H   0  0  0  0  0  0
  -28.3866  -32.6879   25.0323 H   0  0  0  0  0  0
  -28.0724  -31.8434   26.5406 H   0  0  0  0  0  0
  -28.2598  -38.0096   24.7502 H   0  0  0  0  0  0
  -28.1069  -36.2627   24.6301 H   0  0  0  0  0  0
  -27.2297  -37.1463   25.8870 H   0  0  0  0  0  0
  -20.9363  -29.8794   21.6920 H   0  0  0  0  0  0
  -26.0173  -38.2851   24.1400 H   0  0  0  0  0  0
  -29.0539  -17.7933   22.7876 H   0  0  0  0  0  0
  -28.7540  -20.1154   22.1930 H   0  0  0  0  0  0
  -30.5396  -16.9382   18.8233 H   0  0  0  0  0  0
  -28.9843  -15.5525   23.1276 H   0  0  0  0  0  0
  -30.6504  -16.1250   23.2852 H   0  0  0  0  0  0
  -30.3270  -14.4263   23.0477 H   0  0  0  0  0  0
  -29.9097  -24.0914   19.7739 H   0  0  0  0  0  0
  -28.4499  -23.7876   18.8888 H   0  0  0  0  0  0
  -28.5045  -25.0801   21.6655 H   0  0  0  0  0  0
  -27.0847  -24.8310   20.7272 H   0  0  0  0  0  0
  -27.7266  -22.1290   20.7320 H   0  0  0  0  0  0
  -29.2623  -22.3936   21.5216 H   0  0  0  0  0  0
  1 25  1  0  0  0
  1 30  2  0  0  0
  1 81  1  0  0  0
  2  3  1  0  0  0
  2 25  1  0  0  0
  2 84  1  0  0  0
  2 85  1  0  0  0
  3  4  1  0  0  0
  3 86  1  0  0  0
  3 87  1  0  0  0
  4  5  1  0  0  0
  4 88  1  0  0  0
  4 89  1  0  0  0
  5  6  1  0  0  0
  5 26  1  0  0  0
  5 90  1  0  0  0
  6 25  1  0  0  0
  6 91  1  0  0  0
  6 92  1  0  0  0
  7  8  2  0  0  0
  7 26  1  0  0  0
  7 29  1  0  0  0
  8  9  1  0  0  0
  8 22  1  0  0  0
  9 10  1  0  0  0
  9 27  2  0  0  0
 10 11  2  0  0  0
 10 15  1  0  0  0
 11 12  1  0  0  0
 11 93  1  0  0  0
 12 13  2  0  0  0
 12 94  1  0  0  0
 13 14  1  0  0  0
 13 31  1  0  0  0
 14 15  2  0  0  0
 14 95  1  0  0  0
 15 96  1  0  0  0
 16 17  2  0  0  0
 16 21  1  0  0  0
 16 31  1  0  0  0
 17 18  1  0  0  0
 17 97  1  0  0  0
 18 19  2  0  0  0
 18 98  1  0  0  0
 19 20  1  0  0  0
 19 24  1  0  0  0
 20 21  2  0  0  0
 20 99  1  0  0  0
 21 23  1  0  0  0
 22 28  1  0  0  0
 22 32  2  0  0  0
 26 27  1  0  0  0
 28100  1  0  0  0
 28101  1  0  0  0
 29102  1  0  0  0
 29103  1  0  0  0
 33 34  1  0  0  0
 33 66  1  0  0  0
 33 70  2  0  0  0
 34 36  1  0  0  0
 34 59  1  0  0  0
 34104  1  0  0  0
 35 44  2  0  0  0
 35 45  1  0  0  0
 35 68  1  0  0  0
 36 56  1  0  0  0
 36105  1  0  0  0
 37 39  1  0  0  0
 37 47  1  0  0  0
 37 66  1  0  0  0
 37106  1  0  0  0
 38 43  2  0  0  0
 38 46  1  0  0  0
 38 47  1  0  0  0
 39 64  1  0  0  0
 39 67  2  0  0  0
 40 52  1  0  0  0
 40 53  2  0  0  0
 40 58  1  0  0  0
 41107  1  0  0  0
 41108  1  0  0  0
 41109  1  0  0  0
 41 48  1  0  0  0
 42 43  1  0  0  0
 42 66  1  0  0  0
 42110  1  0  0  0
 42111  1  0  0  0
 43 44  1  0  0  0
 44112  1  0  0  0
 45 46  2  0  0  0
 45113  1  0  0  0
 46114  1  0  0  0
 47115  1  0  0  0
 47116  1  0  0  0
 48 56  1  0  0  0
 48 65  1  0  0  0
 48117  1  0  0  0
 49 50  1  0  0  0
 49 53  1  0  0  0
 49 64  1  0  0  0
 49118  1  0  0  0
 50 51  1  0  0  0
 50119  1  0  0  0
 50120  1  0  0  0
 51 52  1  0  0  0
 51121  1  0  0  0
 51122  1  0  0  0
 52123  1  0  0  0
 52124  1  0  0  0
 53 54  1  0  0  0
 54 55  2  0  0  0
 54125  1  0  0  0
 55 57  1  0  0  0
 55126  1  0  0  0
 56 69  2  0  0  0
 57 58  2  0  0  0
 57127  1  0  0  0
 58128  1  0  0  0
 59 60  1  0  0  0
 59 61  1  0  0  0
 59 62  1  0  0  0
 60129  1  0  0  0
 60130  1  0  0  0
 60131  1  0  0  0
 61132  1  0  0  0
 61133  1  0  0  0
 61134  1  0  0  0
 62135  1  0  0  0
 62136  1  0  0  0
 62137  1  0  0  0
 63 65  1  0  0  0
 63138  1  0  0  0
 63139  1  0  0  0
 63140  1  0  0  0
 64141  1  0  0  0
 65142  1  0  0  0
 68 79  1  0  0  0
 71 72  2  0  0  0
 71 74  1  0  0  0
 71143  1  0  0  0
 72 75  1  0  0  0
 72144  1  0  0  0
 73 74  2  0  0  0
 73 76  1  0  0  0
 73145  1  0  0  0
 74 81  1  0  0  0
 75 76  2  0  0  0
 75 82  1  0  0  0
 76 83  1  0  0  0
 77 81  1  0  0  0
 77146  1  0  0  0
 77147  1  0  0  0
 77148  1  0  0  0
 78 79  1  0  0  0
 78 80  1  0  0  0
 78149  1  0  0  0
 78150  1  0  0  0
 79151  1  0  0  0
 79152  1  0  0  0
 80 82  1  0  0  0
 80153  1  0  0  0
 80154  1  0  0  0
M  ISO  4   1 100  68 101  79 101  81 100
M  END
> <chiral flag>
0

> <version>
0

> <s_m_source_file>
/data/baiqing/PycharmProjects/Reinvent-master-3.2/result/LINK_invent/BTK/process_docking_weight1_custom_product_contain_oxygen_bond_distance_aromatic_linkinvent_7_9_3/rearranged_h_0012.sdf

> <i_m_source_file_index>
58

> <r_mmod_Potential_Energy-OPLS-2005>
257.405517578125

> <r_mmod_Stretch_Energy-OPLS-2005>
95.6894149780273

> <r_mmod_Bend_Energy-OPLS-2005>
154.103591918945

> <r_mmod_Torsional_Energy-OPLS-2005>
282.838745117188

> <r_mmod_Improper_Torsional_Energy-OPLS-2005>
2.56682324409485

> <r_mmod_Van_der_Waal_Energy-OPLS-2005>
149.994567871094

> <r_mmod_Electrostatic_Energy-OPLS-2005>
-282.324340820312

> <r_mmod_Solvation_Energy-OPLS-2005>
-194.920669555664

> <b_mmod_Minimization_Converged-OPLS-2005>
0

> <r_mmod_RMS_Derivative-OPLS-2005>
0.661779165267944

$$$$
58
                    3D
 Structure written by MMmdl.
156164  0  0  1  0            999 V2000
  -30.6714  -14.5216   20.5691 C   0  0  0  0  0  0
  -30.4312  -12.3370   19.4277 C   0  0  0  0  0  0
  -29.4989  -12.5127   18.2097 C   0  0  0  0  0  0
  -28.0209  -12.3637   18.6219 C   0  0  0  0  0  0
  -27.6617  -13.2081   19.8736 C   0  0  2  0  0  0
  -28.7028  -12.9989   20.9959 C   0  0  0  0  0  0
  -25.2596  -13.8159   20.5682 C   0  0  0  0  0  0
  -24.1842  -13.0440   20.9172 C   0  0  0  0  0  0
  -24.6396  -11.6903   20.8730 C   0  0  0  0  0  0
  -23.9058  -10.4291   21.0405 C   0  0  0  0  0  0
  -24.3613   -9.4211   21.9180 C   0  0  0  0  0  0
  -23.6290   -8.2245   22.0750 C   0  0  0  0  0  0
  -22.4272   -8.0282   21.3545 C   0  0  0  0  0  0
  -21.9907   -9.0255   20.4647 C   0  0  0  0  0  0
  -22.7233  -10.2133   20.3057 C   0  0  0  0  0  0
  -21.6855   -6.0738   22.5276 C   0  0  0  0  0  0
  -21.4011   -6.5640   23.8210 C   0  0  0  0  0  0
  -21.3655   -5.6793   24.9169 C   0  0  0  0  0  0
  -21.6050   -4.3058   24.7223 C   0  0  0  0  0  0
  -21.8820   -3.8146   23.4346 C   0  0  0  0  0  0
  -21.9188   -4.6960   22.3400 C   0  0  0  0  0  0
  -22.7867  -13.5242   21.1843 C   0  0  0  0  0  0
  -22.1665   -4.2151   21.0979 F   0  0  0  0  0  0
  -21.5624   -3.4538   25.7735 F   0  0  0  0  0  0
  -30.0314  -13.3222   20.4474 N   0  0  0  0  0  0
  -26.3028  -12.9328   20.3359 N   0  0  0  0  0  0
  -25.9320  -11.6487   20.5754 N   0  0  0  0  0  0
  -22.0506  -12.8238   22.0394 N   0  0  0  0  0  0
  -25.4344  -15.1878   20.4099 N   0  0  0  0  0  0
  -31.7902  -14.7273   20.0868 O   0  0  0  0  0  0
  -21.6642   -6.8883   21.4242 O   0  0  0  0  0  0
  -22.3553  -14.5552   20.6690 O   0  0  0  0  0  0
  -24.6181  -31.8654   23.2083 C   0  0  0  0  0  0
  -25.9059  -32.4815   23.8382 C   0  0  1  0  0  0
  -27.2288  -27.3900   20.1040 C   0  0  0  0  0  0
  -25.5903  -33.8613   24.2314 N   0  0  0  0  0  0
  -23.4081  -30.4889   21.5496 C   0  0  2  0  0  0
  -24.8537  -28.9520   20.1147 C   0  0  0  0  0  0
  -22.7422  -29.4647   22.4973 C   0  0  0  0  0  0
  -18.0274  -28.1408   22.8502 C   0  0  0  0  0  0
  -24.1474  -36.7284   23.2638 C   0  0  0  0  0  0
  -25.9413  -30.8180   21.3677 C   0  0  0  0  0  0
  -26.0173  -29.4500   20.7127 C   0  0  0  0  0  0
  -27.2075  -28.6784   20.7006 C   0  0  0  0  0  0
  -26.0424  -26.9221   19.4918 C   0  0  0  0  0  0
  -24.8635  -27.6905   19.4989 C   0  0  0  0  0  0
  -23.6182  -29.8239   20.1638 C   0  0  0  0  0  0
  -25.4102  -36.3099   24.0339 C   0  0  1  0  0  0
  -20.5866  -28.3687   23.1322 C   0  0  2  0  0  0
  -20.6762  -26.9423   22.5422 C   0  0  0  0  0  0
  -19.5737  -26.6407   21.5222 C   0  0  0  0  0  0
  -18.1917  -26.7953   22.1637 C   0  0  0  0  0  0
  -19.1526  -28.8863   23.2909 C   0  0  0  0  0  0
  -18.9457  -30.1468   23.8921 C   0  0  0  0  0  0
  -17.6462  -30.6612   24.0573 C   0  0  0  0  0  0
  -25.9032  -34.9472   23.5117 C   0  0  0  0  0  0
  -16.5347  -29.9118   23.6344 C   0  0  0  0  0  0
  -16.7262  -28.6535   23.0362 C   0  0  0  0  0  0
  -26.4482  -31.6611   25.0723 C   0  0  0  0  0  0
  -25.3737  -31.3730   26.1463 C   0  0  0  0  0  0
  -27.0314  -30.3049   24.6124 C   0  0  0  0  0  0
  -27.6056  -32.4335   25.7488 C   0  0  0  0  0  0
  -27.5572  -37.1799   24.8478 C   0  0  0  0  0  0
  -21.4145  -29.3041   22.3710 N   0  0  0  0  0  0
  -26.4287  -37.3790   23.9413 N   0  0  0  0  0  0
  -24.6742  -31.0722   22.0998 N   0  0  0  0  0  0
  -23.4180  -28.8191   23.3027 O   0  0  0  0  0  0
  -28.3822  -26.6149   20.1402 O   0  0  0  0  0  0
  -26.5603  -34.8931   22.4684 O   0  0  0  0  0  0
  -23.5362  -32.1422   23.7456 O   0  0  0  0  0  0
  -30.8236  -18.9235   22.4643 C   0  0  0  0  0  0
  -30.3091  -19.1389   20.1032 C   0  0  0  0  0  0
  -30.5631  -17.5345   22.4072 C   0  0  0  0  0  0
  -30.0663  -17.7367   20.0418 C   0  0  0  0  0  0
  -30.7292  -19.7438   21.3118 C   0  0  0  0  0  0
  -30.2241  -16.9115   21.1867 C   0  0  0  0  0  0
  -31.2974  -21.1162   21.3769 C   0  0  0  0  0  0
  -29.4926  -24.4006   20.5448 C   0  0  0  0  0  0
  -29.4585  -22.8283   20.5521 C   0  0  0  0  0  0
  -28.2381  -25.1707   20.0383 C   0  0  0  0  0  0
  -32.5345  -21.1916   21.8619 N   0  0  0  0  0  0
  -29.9562  -15.5033   21.1644 N   0  0  0  0  0  0
  -30.7718  -22.3144   21.0208 N   0  3  0  0  0  0
  -31.4732  -12.4522   19.1235 H   0  0  0  0  0  0
  -30.3479  -11.3263   19.8310 H   0  0  0  0  0  0
  -29.7474  -11.7836   17.4376 H   0  0  0  0  0  0
  -29.6574  -13.4955   17.7621 H   0  0  0  0  0  0
  -27.8404  -11.3072   18.8242 H   0  0  0  0  0  0
  -27.3687  -12.6278   17.7890 H   0  0  0  0  0  0
  -27.7033  -14.2550   19.5704 H   0  0  0  0  0  0
  -28.6884  -11.9632   21.3375 H   0  0  0  0  0  0
  -28.4518  -13.5950   21.8739 H   0  0  0  0  0  0
  -25.2760   -9.5682   22.4752 H   0  0  0  0  0  0
  -23.9999   -7.4637   22.7465 H   0  0  0  0  0  0
  -21.0842   -8.8771   19.8958 H   0  0  0  0  0  0
  -22.3691  -10.9670   19.6163 H   0  0  0  0  0  0
  -21.2011   -7.6147   23.9711 H   0  0  0  0  0  0
  -21.1478   -6.0526   25.9076 H   0  0  0  0  0  0
  -22.0604   -2.7608   23.2843 H   0  0  0  0  0  0
  -22.4111  -11.9896   22.4792 H   0  0  0  0  0  0
  -21.1117  -13.1261   22.2600 H   0  0  0  0  0  0
  -24.6732  -15.8486   20.5231 H   0  0  0  0  0  0
  -26.2924  -15.6225   20.0924 H   0  0  0  0  0  0
  -26.7122  -32.5515   23.1135 H   0  0  0  0  0  0
  -25.0051  -33.9780   25.0459 H   0  0  0  0  0  0
  -22.6994  -31.3074   21.4106 H   0  0  0  0  0  0
  -23.3748  -35.9603   23.3322 H   0  0  0  0  0  0
  -24.3546  -36.8872   22.2043 H   0  0  0  0  0  0
  -23.7220  -37.6491   23.6639 H   0  0  0  0  0  0
  -26.0603  -31.5837   20.5995 H   0  0  0  0  0  0
  -26.8265  -30.8698   21.9899 H   0  0  0  0  0  0
  -28.1037  -29.0548   21.1749 H   0  0  0  0  0  0
  -26.0039  -25.9586   19.0056 H   0  0  0  0  0  0
  -23.9695  -27.3046   19.0290 H   0  0  0  0  0  0
  -23.7316  -30.6004   19.4060 H   0  0  0  0  0  0
  -22.7407  -29.2476   19.8648 H   0  0  0  0  0  0
  -25.1282  -36.1949   25.0835 H   0  0  0  0  0  0
  -20.9967  -28.3254   24.1437 H   0  0  0  0  0  0
  -20.5675  -26.2288   23.3605 H   0  0  0  0  0  0
  -21.6632  -26.7468   22.1204 H   0  0  0  0  0  0
  -19.6890  -25.6321   21.1247 H   0  0  0  0  0  0
  -19.6685  -27.3222   20.6757 H   0  0  0  0  0  0
  -17.4181  -26.6704   21.4043 H   0  0  0  0  0  0
  -18.0320  -26.0105   22.9044 H   0  0  0  0  0  0
  -19.7927  -30.7282   24.2301 H   0  0  0  0  0  0
  -17.5018  -31.6300   24.5165 H   0  0  0  0  0  0
  -15.5352  -30.3032   23.7669 H   0  0  0  0  0  0
  -15.8654  -28.0864   22.7083 H   0  0  0  0  0  0
  -24.5911  -30.7080   25.7794 H   0  0  0  0  0  0
  -24.8930  -32.2893   26.4900 H   0  0  0  0  0  0
  -25.8077  -30.8905   27.0227 H   0  0  0  0  0  0
  -26.2866  -29.6819   24.1156 H   0  0  0  0  0  0
  -27.4046  -29.7285   25.4598 H   0  0  0  0  0  0
  -27.8723  -30.4357   23.9306 H   0  0  0  0  0  0
  -27.2675  -33.3627   26.2088 H   0  0  0  0  0  0
  -28.3861  -32.6909   25.0315 H   0  0  0  0  0  0
  -28.0733  -31.8447   26.5388 H   0  0  0  0  0  0
  -28.2619  -38.0070   24.7510 H   0  0  0  0  0  0
  -28.1041  -36.2605   24.6328 H   0  0  0  0  0  0
  -27.2287  -37.1483   25.8883 H   0  0  0  0  0  0
  -20.9307  -29.8730   21.6903 H   0  0  0  0  0  0
  -26.0169  -38.2860   24.1438 H   0  0  0  0  0  0
  -31.1495  -19.3531   23.4022 H   0  0  0  0  0  0
  -30.2450  -19.7318   19.2020 H   0  0  0  0  0  0
  -30.6629  -16.9447   23.3079 H   0  0  0  0  0  0
  -29.7741  -17.2940   19.1001 H   0  0  0  0  0  0
  -30.3430  -24.7306   19.9484 H   0  0  0  0  0  0
  -29.6918  -24.7395   21.5620 H   0  0  0  0  0  0
  -29.2456  -22.4439   19.5538 H   0  0  0  0  0  0
  -28.6668  -22.4698   21.2121 H   0  0  0  0  0  0
  -27.3760  -24.8404   20.6202 H   0  0  0  0  0  0
  -28.0504  -24.9000   18.9986 H   0  0  0  0  0  0
  -33.0016  -20.3266   22.0921 H   0  0  0  0  0  0
  -33.0416  -22.0496   22.0075 H   0  0  0  0  0  0
  -29.1065  -15.2054   21.6174 H   0  0  0  0  0  0
  -31.4387  -23.0692   21.0618 H   0  0  0  0  0  0
  1 25  1  0  0  0
  1 30  2  0  0  0
  1 82  1  0  0  0
  2  3  1  0  0  0
  2 25  1  0  0  0
  2 84  1  0  0  0
  2 85  1  0  0  0
  3  4  1  0  0  0
  3 86  1  0  0  0
  3 87  1  0  0  0
  4  5  1  0  0  0
  4 88  1  0  0  0
  4 89  1  0  0  0
  5  6  1  0  0  0
  5 26  1  0  0  0
  5 90  1  0  0  0
  6 25  1  0  0  0
  6 91  1  0  0  0
  6 92  1  0  0  0
  7  8  2  0  0  0
  7 26  1  0  0  0
  7 29  1  0  0  0
  8  9  1  0  0  0
  8 22  1  0  0  0
  9 10  1  0  0  0
  9 27  2  0  0  0
 10 11  2  0  0  0
 10 15  1  0  0  0
 11 12  1  0  0  0
 11 93  1  0  0  0
 12 13  2  0  0  0
 12 94  1  0  0  0
 13 14  1  0  0  0
 13 31  1  0  0  0
 14 15  2  0  0  0
 14 95  1  0  0  0
 15 96  1  0  0  0
 16 17  2  0  0  0
 16 21  1  0  0  0
 16 31  1  0  0  0
 17 18  1  0  0  0
 17 97  1  0  0  0
 18 19  2  0  0  0
 18 98  1  0  0  0
 19 20  1  0  0  0
 19 24  1  0  0  0
 20 21  2  0  0  0
 20 99  1  0  0  0
 21 23  1  0  0  0
 22 28  1  0  0  0
 22 32  2  0  0  0
 26 27  1  0  0  0
 28100  1  0  0  0
 28101  1  0  0  0
 29102  1  0  0  0
 29103  1  0  0  0
 33 34  1  0  0  0
 33 66  1  0  0  0
 33 70  2  0  0  0
 34 36  1  0  0  0
 34 59  1  0  0  0
 34104  1  0  0  0
 35 44  2  0  0  0
 35 45  1  0  0  0
 35 68  1  0  0  0
 36 56  1  0  0  0
 36105  1  0  0  0
 37 39  1  0  0  0
 37 47  1  0  0  0
 37 66  1  0  0  0
 37106  1  0  0  0
 38 43  2  0  0  0
 38 46  1  0  0  0
 38 47  1  0  0  0
 39 64  1  0  0  0
 39 67  2  0  0  0
 40 52  1  0  0  0
 40 53  2  0  0  0
 40 58  1  0  0  0
 41107  1  0  0  0
 41108  1  0  0  0
 41109  1  0  0  0
 41 48  1  0  0  0
 42 43  1  0  0  0
 42 66  1  0  0  0
 42110  1  0  0  0
 42111  1  0  0  0
 43 44  1  0  0  0
 44112  1  0  0  0
 45 46  2  0  0  0
 45113  1  0  0  0
 46114  1  0  0  0
 47115  1  0  0  0
 47116  1  0  0  0
 48 56  1  0  0  0
 48 65  1  0  0  0
 48117  1  0  0  0
 49 50  1  0  0  0
 49 53  1  0  0  0
 49 64  1  0  0  0
 49118  1  0  0  0
 50 51  1  0  0  0
 50119  1  0  0  0
 50120  1  0  0  0
 51 52  1  0  0  0
 51121  1  0  0  0
 51122  1  0  0  0
 52123  1  0  0  0
 52124  1  0  0  0
 53 54  1  0  0  0
 54 55  2  0  0  0
 54125  1  0  0  0
 55 57  1  0  0  0
 55126  1  0  0  0
 56 69  2  0  0  0
 57 58  2  0  0  0
 57127  1  0  0  0
 58128  1  0  0  0
 59 60  1  0  0  0
 59 61  1  0  0  0
 59 62  1  0  0  0
 60129  1  0  0  0
 60130  1  0  0  0
 60131  1  0  0  0
 61132  1  0  0  0
 61133  1  0  0  0
 61134  1  0  0  0
 62135  1  0  0  0
 62136  1  0  0  0
 62137  1  0  0  0
 63 65  1  0  0  0
 63138  1  0  0  0
 63139  1  0  0  0
 63140  1  0  0  0
 64141  1  0  0  0
 65142  1  0  0  0
 68 80  1  0  0  0
 71 73  2  0  0  0
 71 75  1  0  0  0
 71143  1  0  0  0
 72 74  1  0  0  0
 72 75  2  0  0  0
 72144  1  0  0  0
 73 76  1  0  0  0
 73145  1  0  0  0
 74 76  2  0  0  0
 74146  1  0  0  0
 75 77  1  0  0  0
 76 82  1  0  0  0
 77 81  1  0  0  0
 77 83  2  0  0  0
 78 79  1  0  0  0
 78 80  1  0  0  0
 78147  1  0  0  0
 78148  1  0  0  0
 79 83  1  0  0  0
 79149  1  0  0  0
 79150  1  0  0  0
 80151  1  0  0  0
 80152  1  0  0  0
 81153  1  0  0  0
 81154  1  0  0  0
 82155  1  0  0  0
 83156  1  0  0  0
M  CHG  1  83   1
M  ISO  4   1 100  68 101  80 101  82 100
M  END
> <chiral flag>
0

> <version>
0

> <s_m_source_file>
/data/baiqing/PycharmProjects/Reinvent-master-3.2/result/LINK_invent/BTK/process_docking_weight1_custom_product_contain_oxygen_bond_distance_aromatic_linkinvent_7_9_3/rearranged_h_0012.sdf

> <i_m_source_file_index>
59

> <r_mmod_Potential_Energy-OPLS-2005>
-193.813293457031

> <r_mmod_Stretch_Energy-OPLS-2005>
46.7777099609375

> <r_mmod_Bend_Energy-OPLS-2005>
128.99494934082

> <r_mmod_Torsional_Energy-OPLS-2005>
242.09700012207

> <r_mmod_Improper_Torsional_Energy-OPLS-2005>
4.18126678466797

> <r_mmod_Van_der_Waal_Energy-OPLS-2005>
146.856536865234

> <r_mmod_Electrostatic_Energy-OPLS-2005>
-362.208129882812

> <r_mmod_Solvation_Energy-OPLS-2005>
-420.542572021484

> <b_mmod_Minimization_Converged-OPLS-2005>
0

> <r_mmod_RMS_Derivative-OPLS-2005>
1.3218582868576

$$$$
59
                    3D
 Structure written by MMmdl.
157165  0  0  1  0            999 V2000
  -30.7129  -14.5598   20.5521 C   0  0  0  0  0  0
  -30.4274  -12.3733   19.4156 C   0  0  0  0  0  0
  -29.4865  -12.5065   18.2004 C   0  0  0  0  0  0
  -28.0120  -12.3384   18.6195 C   0  0  0  0  0  0
  -27.6541  -13.1806   19.8706 C   0  0  2  0  0  0
  -28.7183  -12.9764   20.9793 C   0  0  0  0  0  0
  -25.2587  -13.8069   20.5668 C   0  0  0  0  0  0
  -24.1828  -13.0391   20.9198 C   0  0  0  0  0  0
  -24.6348  -11.6852   20.8770 C   0  0  0  0  0  0
  -23.9007  -10.4256   21.0424 C   0  0  0  0  0  0
  -24.3564   -9.4170   21.9180 C   0  0  0  0  0  0
  -23.6256   -8.2204   22.0742 C   0  0  0  0  0  0
  -22.4237   -8.0248   21.3533 C   0  0  0  0  0  0
  -21.9864   -9.0221   20.4643 C   0  0  0  0  0  0
  -22.7184  -10.2107   20.3061 C   0  0  0  0  0  0
  -21.6844   -6.0700   22.5260 C   0  0  0  0  0  0
  -21.4006   -6.5617   23.8187 C   0  0  0  0  0  0
  -21.3659   -5.6777   24.9155 C   0  0  0  0  0  0
  -21.6057   -4.3046   24.7219 C   0  0  0  0  0  0
  -21.8835   -3.8123   23.4343 C   0  0  0  0  0  0
  -21.9188   -4.6930   22.3389 C   0  0  0  0  0  0
  -22.7859  -13.5221   21.1855 C   0  0  0  0  0  0
  -22.1660   -4.2113   21.0972 F   0  0  0  0  0  0
  -21.5632   -3.4542   25.7740 F   0  0  0  0  0  0
  -30.0137  -13.3829   20.4163 N   0  0  0  0  0  0
  -26.2997  -12.9176   20.3402 N   0  0  0  0  0  0
  -25.9273  -11.6376   20.5828 N   0  0  0  0  0  0
  -22.0497  -12.8233   22.0429 N   0  0  0  0  0  0
  -25.4312  -15.1773   20.3971 N   0  0  0  0  0  0
  -31.8714  -14.6174   20.1261 O   0  0  0  0  0  0
  -21.6615   -6.8840   21.4225 O   0  0  0  0  0  0
  -22.3561  -14.5531   20.6702 O   0  0  0  0  0  0
  -24.6168  -31.8668   23.2094 C   0  0  0  0  0  0
  -25.9056  -32.4813   23.8388 C   0  0  1  0  0  0
  -27.2257  -27.3935   20.1038 C   0  0  0  0  0  0
  -25.5910  -33.8612   24.2311 N   0  0  0  0  0  0
  -23.4064  -30.4907   21.5522 C   0  0  2  0  0  0
  -24.8511  -28.9574   20.1139 C   0  0  0  0  0  0
  -22.7429  -29.4641   22.5001 C   0  0  0  0  0  0
  -18.0265  -28.1396   22.8494 C   0  0  0  0  0  0
  -24.1487  -36.7310   23.2633 C   0  0  0  0  0  0
  -25.9398  -30.8158   21.3735 C   0  0  0  0  0  0
  -26.0128  -29.4484   20.7209 C   0  0  0  0  0  0
  -27.1993  -28.6721   20.7186 C   0  0  0  0  0  0
  -26.0448  -26.9451   19.4617 C   0  0  0  0  0  0
  -24.8639  -27.7062   19.4810 C   0  0  0  0  0  0
  -23.6161  -29.8278   20.1654 C   0  0  0  0  0  0
  -25.4111  -36.3103   24.0325 C   0  0  1  0  0  0
  -20.5857  -28.3675   23.1335 C   0  0  2  0  0  0
  -20.6766  -26.9417   22.5431 C   0  0  0  0  0  0
  -19.5745  -26.6393   21.5233 C   0  0  0  0  0  0
  -18.1919  -26.7937   22.1637 C   0  0  0  0  0  0
  -19.1514  -28.8855   23.2904 C   0  0  0  0  0  0
  -18.9443  -30.1463   23.8907 C   0  0  0  0  0  0
  -17.6447  -30.6599   24.0571 C   0  0  0  0  0  0
  -25.9040  -34.9471   23.5111 C   0  0  0  0  0  0
  -16.5338  -29.9104   23.6333 C   0  0  0  0  0  0
  -16.7256  -28.6526   23.0346 C   0  0  0  0  0  0
  -26.4472  -31.6603   25.0729 C   0  0  0  0  0  0
  -25.3728  -31.3749   26.1481 C   0  0  0  0  0  0
  -27.0284  -30.3024   24.6139 C   0  0  0  0  0  0
  -27.6046  -32.4337   25.7482 C   0  0  0  0  0  0
  -27.5582  -37.1807   24.8463 C   0  0  0  0  0  0
  -21.4154  -29.3029   22.3741 N   0  0  0  0  0  0
  -26.4292  -37.3796   23.9408 N   0  0  0  0  0  0
  -24.6726  -31.0732   22.1022 N   0  0  0  0  0  0
  -23.4190  -28.8181   23.3050 O   0  0  0  0  0  0
  -28.3777  -26.6160   20.1629 O   0  0  0  0  0  0
  -26.5610  -34.8927   22.4676 O   0  0  0  0  0  0
  -23.5352  -32.1446   23.7470 O   0  0  0  0  0  0
  -30.4839  -19.4690   20.7913 C   0  0  0  0  0  0
  -30.3677  -17.9149   18.9186 C   0  0  0  0  0  0
  -29.9127  -20.2921   18.5779 C   0  0  0  0  0  0
  -30.5889  -18.1400   20.2934 C   0  0  0  0  0  0
  -30.1323  -20.5615   19.9529 C   0  0  0  0  0  0
  -30.0347  -18.9847   18.0677 C   0  0  0  0  0  0
  -28.7136  -16.0438   21.2264 C   0  0  0  0  0  0
  -30.9448  -16.9620   21.2244 C   0  0  0  0  0  0
  -29.3208  -24.2619   20.4589 C   0  0  0  0  0  0
  -28.2743  -25.2129   19.8104 C   0  0  0  0  0  0
  -29.3937  -22.8771   19.7462 C   0  0  0  0  0  0
  -30.1397  -15.7167   21.0464 N   0  0  0  0  0  0
  -30.0293  -21.8339   20.5128 O   0  0  0  0  0  0
  -29.8288  -18.7531   16.7494 F   0  0  0  0  0  0
  -31.4638  -12.4842   19.0931 H   0  0  0  0  0  0
  -30.3696  -11.3685   19.8360 H   0  0  0  0  0  0
  -29.7484  -11.7684   17.4400 H   0  0  0  0  0  0
  -29.6274  -13.4834   17.7343 H   0  0  0  0  0  0
  -27.8396  -11.2806   18.8255 H   0  0  0  0  0  0
  -27.3518  -12.5951   17.7889 H   0  0  0  0  0  0
  -27.6760  -14.2072   19.5255 H   0  0  0  0  0  0
  -28.7539  -11.9201   21.2479 H   0  0  0  0  0  0
  -28.4912  -13.4466   21.9296 H   0  0  0  0  0  0
  -25.2703   -9.5661   22.4755 H   0  0  0  0  0  0
  -23.9979   -7.4595   22.7450 H   0  0  0  0  0  0
  -21.0789   -8.8729   19.8946 H   0  0  0  0  0  0
  -22.3622  -10.9646   19.6184 H   0  0  0  0  0  0
  -21.1989   -7.6119   23.9689 H   0  0  0  0  0  0
  -21.1478   -6.0496   25.9062 H   0  0  0  0  0  0
  -22.0618   -2.7586   23.2844 H   0  0  0  0  0  0
  -22.4104  -11.9886   22.4805 H   0  0  0  0  0  0
  -21.1125  -13.1290   22.2653 H   0  0  0  0  0  0
  -24.6672  -15.8372   20.4961 H   0  0  0  0  0  0
  -26.2841  -15.6058   20.0650 H   0  0  0  0  0  0
  -26.7119  -32.5508   23.1142 H   0  0  0  0  0  0
  -25.0069  -33.9780   25.0462 H   0  0  0  0  0  0
  -22.6940  -31.3064   21.4149 H   0  0  0  0  0  0
  -23.3742  -35.9651   23.3310 H   0  0  0  0  0  0
  -24.3580  -36.8913   22.2045 H   0  0  0  0  0  0
  -23.7244  -37.6519   23.6644 H   0  0  0  0  0  0
  -26.0593  -31.5765   20.6010 H   0  0  0  0  0  0
  -26.8258  -30.8678   21.9942 H   0  0  0  0  0  0
  -28.0885  -29.0388   21.2128 H   0  0  0  0  0  0
  -26.0018  -26.0031   18.9351 H   0  0  0  0  0  0
  -23.9740  -27.3275   18.9967 H   0  0  0  0  0  0
  -23.7294  -30.6051   19.4086 H   0  0  0  0  0  0
  -22.7388  -29.2510   19.8673 H   0  0  0  0  0  0
  -25.1287  -36.1961   25.0817 H   0  0  0  0  0  0
  -20.9929  -28.3236   24.1466 H   0  0  0  0  0  0
  -20.5716  -26.2269   23.3612 H   0  0  0  0  0  0
  -21.6630  -26.7509   22.1190 H   0  0  0  0  0  0
  -19.6914  -25.6309   21.1250 H   0  0  0  0  0  0
  -19.6688  -27.3209   20.6771 H   0  0  0  0  0  0
  -17.4198  -26.6686   21.4034 H   0  0  0  0  0  0
  -18.0324  -26.0089   22.9044 H   0  0  0  0  0  0
  -19.7920  -30.7280   24.2276 H   0  0  0  0  0  0
  -17.5006  -31.6281   24.5180 H   0  0  0  0  0  0
  -15.5338  -30.3012   23.7668 H   0  0  0  0  0  0
  -15.8650  -28.0860   22.7048 H   0  0  0  0  0  0
  -24.5870  -30.7127   25.7830 H   0  0  0  0  0  0
  -24.8956  -32.2923   26.4936 H   0  0  0  0  0  0
  -25.8061  -30.8906   27.0238 H   0  0  0  0  0  0
  -26.2829  -29.6814   24.1153 H   0  0  0  0  0  0
  -27.3976  -29.7245   25.4622 H   0  0  0  0  0  0
  -27.8713  -30.4316   23.9343 H   0  0  0  0  0  0
  -27.2649  -33.3618   26.2102 H   0  0  0  0  0  0
  -28.3822  -32.6940   25.0286 H   0  0  0  0  0  0
  -28.0759  -31.8446   26.5363 H   0  0  0  0  0  0
  -28.2605  -38.0102   24.7508 H   0  0  0  0  0  0
  -28.1068  -36.2628   24.6282 H   0  0  0  0  0  0
  -27.2304  -37.1460   25.8869 H   0  0  0  0  0  0
  -20.9326  -29.8732   21.6939 H   0  0  0  0  0  0
  -26.0172  -38.2867   24.1427 H   0  0  0  0  0  0
  -30.6657  -19.6555   21.8409 H   0  0  0  0  0  0
  -30.4560  -16.9215   18.5033 H   0  0  0  0  0  0
  -29.6577  -21.0725   17.8781 H   0  0  0  0  0  0
  -28.1749  -15.4115   21.9209 H   0  0  0  0  0  0
  -28.2073  -16.0772   20.2656 H   0  0  0  0  0  0
  -28.5745  -17.0396   21.6468 H   0  0  0  0  0  0
  -30.8203  -17.2835   22.2602 H   0  0  0  0  0  0
  -32.0180  -16.7908   21.1270 H   0  0  0  0  0  0
  -29.0580  -24.1198   21.5083 H   0  0  0  0  0  0
  -30.3065  -24.7266   20.4508 H   0  0  0  0  0  0
  -27.3070  -24.8051   20.1113 H   0  0  0  0  0  0
  -28.3299  -25.1368   18.7244 H   0  0  0  0  0  0
  -29.9283  -23.0245   18.8077 H   0  0  0  0  0  0
  -28.3842  -22.5473   19.4951 H   0  0  0  0  0  0
  1 25  1  0  0  0
  1 30  2  0  0  0
  1 82  1  0  0  0
  2  3  1  0  0  0
  2 25  1  0  0  0
  2 85  1  0  0  0
  2 86  1  0  0  0
  3  4  1  0  0  0
  3 87  1  0  0  0
  3 88  1  0  0  0
  4  5  1  0  0  0
  4 89  1  0  0  0
  4 90  1  0  0  0
  5  6  1  0  0  0
  5 26  1  0  0  0
  5 91  1  0  0  0
  6 25  1  0  0  0
  6 92  1  0  0  0
  6 93  1  0  0  0
  7  8  2  0  0  0
  7 26  1  0  0  0
  7 29  1  0  0  0
  8  9  1  0  0  0
  8 22  1  0  0  0
  9 10  1  0  0  0
  9 27  2  0  0  0
 10 11  2  0  0  0
 10 15  1  0  0  0
 11 12  1  0  0  0
 11 94  1  0  0  0
 12 13  2  0  0  0
 12 95  1  0  0  0
 13 14  1  0  0  0
 13 31  1  0  0  0
 14 15  2  0  0  0
 14 96  1  0  0  0
 15 97  1  0  0  0
 16 17  2  0  0  0
 16 21  1  0  0  0
 16 31  1  0  0  0
 17 18  1  0  0  0
 17 98  1  0  0  0
 18 19  2  0  0  0
 18 99  1  0  0  0
 19 20  1  0  0  0
 19 24  1  0  0  0
 20 21  2  0  0  0
 20100  1  0  0  0
 21 23  1  0  0  0
 22 28  1  0  0  0
 22 32  2  0  0  0
 26 27  1  0  0  0
 28101  1  0  0  0
 28102  1  0  0  0
 29103  1  0  0  0
 29104  1  0  0  0
 33 34  1  0  0  0
 33 66  1  0  0  0
 33 70  2  0  0  0
 34 36  1  0  0  0
 34 59  1  0  0  0
 34105  1  0  0  0
 35 44  2  0  0  0
 35 45  1  0  0  0
 35 68  1  0  0  0
 36 56  1  0  0  0
 36106  1  0  0  0
 37 39  1  0  0  0
 37 47  1  0  0  0
 37 66  1  0  0  0
 37107  1  0  0  0
 38 43  2  0  0  0
 38 46  1  0  0  0
 38 47  1  0  0  0
 39 64  1  0  0  0
 39 67  2  0  0  0
 40 52  1  0  0  0
 40 53  2  0  0  0
 40 58  1  0  0  0
 41108  1  0  0  0
 41109  1  0  0  0
 41110  1  0  0  0
 41 48  1  0  0  0
 42 43  1  0  0  0
 42 66  1  0  0  0
 42111  1  0  0  0
 42112  1  0  0  0
 43 44  1  0  0  0
 44113  1  0  0  0
 45 46  2  0  0  0
 45114  1  0  0  0
 46115  1  0  0  0
 47116  1  0  0  0
 47117  1  0  0  0
 48 56  1  0  0  0
 48 65  1  0  0  0
 48118  1  0  0  0
 49 50  1  0  0  0
 49 53  1  0  0  0
 49 64  1  0  0  0
 49119  1  0  0  0
 50 51  1  0  0  0
 50120  1  0  0  0
 50121  1  0  0  0
 51 52  1  0  0  0
 51122  1  0  0  0
 51123  1  0  0  0
 52124  1  0  0  0
 52125  1  0  0  0
 53 54  1  0  0  0
 54 55  2  0  0  0
 54126  1  0  0  0
 55 57  1  0  0  0
 55127  1  0  0  0
 56 69  2  0  0  0
 57 58  2  0  0  0
 57128  1  0  0  0
 58129  1  0  0  0
 59 60  1  0  0  0
 59 61  1  0  0  0
 59 62  1  0  0  0
 60130  1  0  0  0
 60131  1  0  0  0
 60132  1  0  0  0
 61133  1  0  0  0
 61134  1  0  0  0
 61135  1  0  0  0
 62136  1  0  0  0
 62137  1  0  0  0
 62138  1  0  0  0
 63 65  1  0  0  0
 63139  1  0  0  0
 63140  1  0  0  0
 63141  1  0  0  0
 64142  1  0  0  0
 65143  1  0  0  0
 68 80  1  0  0  0
 71 74  2  0  0  0
 71 75  1  0  0  0
 71144  1  0  0  0
 72 74  1  0  0  0
 72 76  2  0  0  0
 72145  1  0  0  0
 73 75  2  0  0  0
 73 76  1  0  0  0
 73146  1  0  0  0
 74 78  1  0  0  0
 75 83  1  0  0  0
 76 84  1  0  0  0
 77 82  1  0  0  0
 77147  1  0  0  0
 77148  1  0  0  0
 77149  1  0  0  0
 78 82  1  0  0  0
 78150  1  0  0  0
 78151  1  0  0  0
 79 80  1  0  0  0
 79 81  1  0  0  0
 79152  1  0  0  0
 79153  1  0  0  0
 80154  1  0  0  0
 80155  1  0  0  0
 81 83  1  0  0  0
 81156  1  0  0  0
 81157  1  0  0  0
M  ISO  4   1 100  68 101  80 101  82 100
M  END
> <chiral flag>
0

> <version>
0

> <s_m_source_file>
/data/baiqing/PycharmProjects/Reinvent-master-3.2/result/LINK_invent/BTK/process_docking_weight1_custom_product_contain_oxygen_bond_distance_aromatic_linkinvent_7_9_3/rearranged_h_0012.sdf

> <i_m_source_file_index>
60

> <r_mmod_Potential_Energy-OPLS-2005>
120.367134094238

> <r_mmod_Stretch_Energy-OPLS-2005>
53.713005065918

> <r_mmod_Bend_Energy-OPLS-2005>
140.464630126953

> <r_mmod_Torsional_Energy-OPLS-2005>
236.734085083008

> <r_mmod_Improper_Torsional_Energy-OPLS-2005>
2.76632332801819

> <r_mmod_Van_der_Waal_Energy-OPLS-2005>
177.309936523438

> <r_mmod_Electrostatic_Energy-OPLS-2005>
-316.007080078125

> <r_mmod_Solvation_Energy-OPLS-2005>
-200.992401123047

> <b_mmod_Minimization_Converged-OPLS-2005>
0

> <r_mmod_RMS_Derivative-OPLS-2005>
2.0257842540741

$$$$
60
                    3D
 Structure written by MMmdl.
163171  0  0  1  0            999 V2000
  -30.6967  -14.7107   20.5505 C   0  0  0  0  0  0
  -30.4188  -12.4501   19.5005 C   0  0  0  0  0  0
  -29.4957  -12.4503   18.2609 C   0  0  0  0  0  0
  -28.0400  -12.2160   18.6978 C   0  0  0  0  0  0
  -27.6266  -13.1736   19.8360 C   0  0  2  0  0  0
  -28.6657  -13.2123   20.9886 C   0  0  0  0  0  0
  -25.2299  -13.7945   20.5574 C   0  0  0  0  0  0
  -24.1600  -13.0269   20.9192 C   0  0  0  0  0  0
  -24.6205  -11.6788   20.8808 C   0  0  0  0  0  0
  -23.8910  -10.4204   21.0467 C   0  0  0  0  0  0
  -24.3524   -9.4140   21.9219 C   0  0  0  0  0  0
  -23.6252   -8.2156   22.0759 C   0  0  0  0  0  0
  -22.4240   -8.0193   21.3530 C   0  0  0  0  0  0
  -21.9808   -9.0161   20.4651 C   0  0  0  0  0  0
  -22.7102  -10.2064   20.3099 C   0  0  0  0  0  0
  -21.6848   -6.0660   22.5258 C   0  0  0  0  0  0
  -21.4008   -6.5599   23.8179 C   0  0  0  0  0  0
  -21.3644   -5.6758   24.9134 C   0  0  0  0  0  0
  -21.6051   -4.3031   24.7199 C   0  0  0  0  0  0
  -21.8852   -3.8105   23.4333 C   0  0  0  0  0  0
  -21.9231   -4.6901   22.3388 C   0  0  0  0  0  0
  -22.7677  -13.5139   21.1889 C   0  0  0  0  0  0
  -22.1701   -4.2071   21.0975 F   0  0  0  0  0  0
  -21.5584   -3.4536   25.7721 F   0  0  0  0  0  0
  -29.9892  -13.5283   20.4327 N   0  0  0  0  0  0
  -26.2769  -12.9129   20.3249 N   0  0  0  0  0  0
  -25.9147  -11.6347   20.5947 N   0  0  0  0  0  0
  -22.0304  -12.8214   22.0542 N   0  0  0  0  0  0
  -25.3606  -15.1584   20.3784 N   0  0  0  0  0  0
  -31.8195  -14.7790   20.0380 O   0  0  0  0  0  0
  -21.6636   -6.8778   21.4208 O   0  0  0  0  0  0
  -22.3465  -14.5485   20.6727 O   0  0  0  0  0  0
  -24.6272  -31.8572   23.1966 C   0  0  0  0  0  0
  -25.9101  -32.4771   23.8328 C   0  0  1  0  0  0
  -27.2566  -27.3157   20.1482 C   0  0  0  0  0  0
  -25.5906  -33.8566   24.2277 N   0  0  0  0  0  0
  -23.4249  -30.4710   21.5388 C   0  0  2  0  0  0
  -24.8828  -28.9167   20.1213 C   0  0  0  0  0  0
  -22.7465  -29.4605   22.4938 C   0  0  0  0  0  0
  -18.0289  -28.1371   22.8455 C   0  0  0  0  0  0
  -24.1495  -36.7282   23.2641 C   0  0  0  0  0  0
  -25.9615  -30.7926   21.3602 C   0  0  0  0  0  0
  -26.0481  -29.4126   20.7180 C   0  0  0  0  0  0
  -27.2405  -28.6249   20.7142 C   0  0  0  0  0  0
  -26.0675  -26.8663   19.5324 C   0  0  0  0  0  0
  -24.8912  -27.6471   19.5221 C   0  0  0  0  0  0
  -23.6463  -29.7927   20.1598 C   0  0  0  0  0  0
  -25.4111  -36.3077   24.0333 C   0  0  1  0  0  0
  -20.5885  -28.3682   23.1280 C   0  0  2  0  0  0
  -20.6775  -26.9395   22.5414 C   0  0  0  0  0  0
  -19.5779  -26.6378   21.5187 C   0  0  0  0  0  0
  -18.1951  -26.7908   22.1600 C   0  0  0  0  0  0
  -19.1532  -28.8837   23.2859 C   0  0  0  0  0  0
  -18.9460  -30.1436   23.8871 C   0  0  0  0  0  0
  -17.6466  -30.6576   24.0531 C   0  0  0  0  0  0
  -25.9029  -34.9436   23.5106 C   0  0  0  0  0  0
  -16.5355  -29.9074   23.6327 C   0  0  0  0  0  0
  -16.7269  -28.6490   23.0330 C   0  0  0  0  0  0
  -26.4521  -31.6549   25.0644 C   0  0  0  0  0  0
  -25.3796  -31.3607   26.1381 C   0  0  0  0  0  0
  -27.0358  -30.3002   24.6015 C   0  0  0  0  0  0
  -27.6109  -32.4244   25.7394 C   0  0  0  0  0  0
  -27.5583  -37.1788   24.8477 C   0  0  0  0  0  0
  -21.4176  -29.3002   22.3641 N   0  0  0  0  0  0
  -26.4305  -37.3770   23.9414 N   0  0  0  0  0  0
  -24.6893  -31.0579   22.0909 N   0  0  0  0  0  0
  -23.4171  -28.8166   23.3057 O   0  0  0  0  0  0
  -28.3844  -26.4772   20.1672 O   0  0  0  0  0  0
  -26.5620  -34.8923   22.4667 O   0  0  0  0  0  0
  -23.5417  -32.1340   23.7296 O   0  0  0  0  0  0
  -29.0817  -19.1823   22.3860 C   0  0  0  0  0  0
  -28.9687  -20.6013   22.4177 C   0  0  0  0  0  0
  -30.0717  -19.3275   20.2087 C   0  0  0  0  0  0
  -29.5785  -18.4853   21.2519 C   0  0  0  0  0  0
  -29.3455  -21.4392   21.3389 C   0  0  0  0  0  0
  -29.9598  -20.7621   20.2408 C   0  0  0  0  0  0
  -27.0871  -17.7740   19.9582 C   0  0  0  0  0  0
  -28.7137  -16.4968   18.5233 C   0  0  0  0  0  0
  -31.2039  -16.1767   22.3831 C   0  0  0  0  0  0
  -28.2351  -25.1494   20.8183 C   0  0  0  0  0  0
  -29.1634  -23.8811   20.4796 C   0  0  0  0  0  0
  -29.2723  -16.9316   21.0707 C   0  0  1  0  0  0
  -28.2132  -16.7157   19.9662 C   0  0  0  0  0  0
  -30.2575  -15.7793   21.3346 N   0  0  0  0  0  0
  -29.0567  -22.8177   21.4913 O   0  0  0  0  0  0
  -30.4302  -21.4736   19.1902 F   0  0  0  0  0  0
  -31.4600  -12.5428   19.1888 H   0  0  0  0  0  0
  -30.3578  -11.4850   20.0076 H   0  0  0  0  0  0
  -29.7988  -11.6601   17.5698 H   0  0  0  0  0  0
  -29.5854  -13.3915   17.7171 H   0  0  0  0  0  0
  -27.9696  -11.1834   19.0525 H   0  0  0  0  0  0
  -27.3565  -12.2900   17.8493 H   0  0  0  0  0  0
  -27.5896  -14.1172   19.3123 H   0  0  0  0  0  0
  -28.6954  -12.2604   21.5166 H   0  0  0  0  0  0
  -28.3755  -13.9568   21.7303 H   0  0  0  0  0  0
  -25.2680   -9.5644   22.4755 H   0  0  0  0  0  0
  -23.9998   -7.4540   22.7440 H   0  0  0  0  0  0
  -21.0741   -8.8672   19.8951 H   0  0  0  0  0  0
  -22.3564  -10.9606   19.6215 H   0  0  0  0  0  0
  -21.1989   -7.6120   23.9681 H   0  0  0  0  0  0
  -21.1448   -6.0459   25.9041 H   0  0  0  0  0  0
  -22.0662   -2.7580   23.2842 H   0  0  0  0  0  0
  -22.3972  -11.9982   22.5060 H   0  0  0  0  0  0
  -21.0927  -13.1238   22.2844 H   0  0  0  0  0  0
  -24.5433  -15.7598   20.3702 H   0  0  0  0  0  0
  -26.1925  -15.6244   20.0434 H   0  0  0  0  0  0
  -26.7156  -32.5490   23.1077 H   0  0  0  0  0  0
  -25.0075  -33.9706   25.0441 H   0  0  0  0  0  0
  -22.7196  -31.2888   21.3831 H   0  0  0  0  0  0
  -23.3763  -35.9615   23.3307 H   0  0  0  0  0  0
  -24.3611  -36.8882   22.2064 H   0  0  0  0  0  0
  -23.7241  -37.6481   23.6650 H   0  0  0  0  0  0
  -26.0718  -31.5469   20.5799 H   0  0  0  0  0  0
  -26.8495  -30.8687   21.9743 H   0  0  0  0  0  0
  -28.1397  -29.0039   21.1784 H   0  0  0  0  0  0
  -26.0380  -25.8901   19.0712 H   0  0  0  0  0  0
  -23.9954  -27.2533   19.0615 H   0  0  0  0  0  0
  -23.7653  -30.5592   19.3945 H   0  0  0  0  0  0
  -22.7713  -29.2107   19.8640 H   0  0  0  0  0  0
  -25.1293  -36.1934   25.0835 H   0  0  0  0  0  0
  -20.9955  -28.3240   24.1407 H   0  0  0  0  0  0
  -20.5658  -26.2284   23.3602 H   0  0  0  0  0  0
  -21.6642  -26.7409   22.1234 H   0  0  0  0  0  0
  -19.6950  -25.6294   21.1212 H   0  0  0  0  0  0
  -19.6734  -27.3193   20.6726 H   0  0  0  0  0  0
  -17.4228  -26.6625   21.3998 H   0  0  0  0  0  0
  -18.0394  -26.0054   22.8994 H   0  0  0  0  0  0
  -19.7938  -30.7238   24.2255 H   0  0  0  0  0  0
  -17.5021  -31.6258   24.5121 H   0  0  0  0  0  0
  -15.5349  -30.2954   23.7679 H   0  0  0  0  0  0
  -15.8675  -28.0803   22.7066 H   0  0  0  0  0  0
  -24.6004  -30.6921   25.7707 H   0  0  0  0  0  0
  -24.8938  -32.2722   26.4878 H   0  0  0  0  0  0
  -25.8177  -30.8752   27.0111 H   0  0  0  0  0  0
  -26.2877  -29.6696   24.1198 H   0  0  0  0  0  0
  -27.4294  -29.7300   25.4444 H   0  0  0  0  0  0
  -27.8645  -30.4334   23.9050 H   0  0  0  0  0  0
  -27.2786  -33.3559   26.1997 H   0  0  0  0  0  0
  -28.3918  -32.6766   25.0198 H   0  0  0  0  0  0
  -28.0790  -31.8325   26.5279 H   0  0  0  0  0  0
  -28.2611  -38.0082   24.7526 H   0  0  0  0  0  0
  -28.1072  -36.2605   24.6304 H   0  0  0  0  0  0
  -27.2296  -37.1425   25.8885 H   0  0  0  0  0  0
  -20.9341  -29.8663   21.6798 H   0  0  0  0  0  0
  -26.0183  -38.2842   24.1437 H   0  0  0  0  0  0
  -28.6829  -18.6357   23.2298 H   0  0  0  0  0  0
  -28.5313  -21.0639   23.2916 H   0  0  0  0  0  0
  -30.4656  -18.8723   19.3132 H   0  0  0  0  0  0
  -26.2808  -17.4763   19.2868 H   0  0  0  0  0  0
  -27.4332  -18.7533   19.6261 H   0  0  0  0  0  0
  -26.6393  -17.8950   20.9454 H   0  0  0  0  0  0
  -27.8868  -16.1610   17.8944 H   0  0  0  0  0  0
  -29.4927  -15.7443   18.4269 H   0  0  0  0  0  0
  -29.0902  -17.4193   18.0834 H   0  0  0  0  0  0
  -30.6964  -16.6389   23.2294 H   0  0  0  0  0  0
  -31.9214  -16.8943   21.9849 H   0  0  0  0  0  0
  -31.7674  -15.3255   22.7748 H   0  0  0  0  0  0
  -28.3840  -25.3552   21.8776 H   0  0  0  0  0  0
  -27.2035  -24.8098   20.7520 H   0  0  0  0  0  0
  -30.2080  -24.1963   20.4460 H   0  0  0  0  0  0
  -28.9098  -23.4869   19.4954 H   0  0  0  0  0  0
  -28.6512  -16.7669   21.9573 H   0  0  0  0  0  0
  -27.7523  -15.8127   20.3140 H   0  0  0  0  0  0
  1 25  1  0  0  0
  1 30  2  0  0  0
  1 84  1  0  0  0
  2  3  1  0  0  0
  2 25  1  0  0  0
  2 87  1  0  0  0
  2 88  1  0  0  0
  3  4  1  0  0  0
  3 89  1  0  0  0
  3 90  1  0  0  0
  4  5  1  0  0  0
  4 91  1  0  0  0
  4 92  1  0  0  0
  5  6  1  0  0  0
  5 26  1  0  0  0
  5 93  1  0  0  0
  6 25  1  0  0  0
  6 94  1  0  0  0
  6 95  1  0  0  0
  7  8  2  0  0  0
  7 26  1  0  0  0
  7 29  1  0  0  0
  8  9  1  0  0  0
  8 22  1  0  0  0
  9 10  1  0  0  0
  9 27  2  0  0  0
 10 11  2  0  0  0
 10 15  1  0  0  0
 11 12  1  0  0  0
 11 96  1  0  0  0
 12 13  2  0  0  0
 12 97  1  0  0  0
 13 14  1  0  0  0
 13 31  1  0  0  0
 14 15  2  0  0  0
 14 98  1  0  0  0
 15 99  1  0  0  0
 16 17  2  0  0  0
 16 21  1  0  0  0
 16 31  1  0  0  0
 17 18  1  0  0  0
 17100  1  0  0  0
 18 19  2  0  0  0
 18101  1  0  0  0
 19 20  1  0  0  0
 19 24  1  0  0  0
 20 21  2  0  0  0
 20102  1  0  0  0
 21 23  1  0  0  0
 22 28  1  0  0  0
 22 32  2  0  0  0
 26 27  1  0  0  0
 28103  1  0  0  0
 28104  1  0  0  0
 29105  1  0  0  0
 29106  1  0  0  0
 33 34  1  0  0  0
 33 66  1  0  0  0
 33 70  2  0  0  0
 34 36  1  0  0  0
 34 59  1  0  0  0
 34107  1  0  0  0
 35 44  2  0  0  0
 35 45  1  0  0  0
 35 68  1  0  0  0
 36 56  1  0  0  0
 36108  1  0  0  0
 37 39  1  0  0  0
 37 47  1  0  0  0
 37 66  1  0  0  0
 37109  1  0  0  0
 38 43  2  0  0  0
 38 46  1  0  0  0
 38 47  1  0  0  0
 39 64  1  0  0  0
 39 67  2  0  0  0
 40 52  1  0  0  0
 40 53  2  0  0  0
 40 58  1  0  0  0
 41110  1  0  0  0
 41111  1  0  0  0
 41112  1  0  0  0
 41 48  1  0  0  0
 42 43  1  0  0  0
 42 66  1  0  0  0
 42113  1  0  0  0
 42114  1  0  0  0
 43 44  1  0  0  0
 44115  1  0  0  0
 45 46  2  0  0  0
 45116  1  0  0  0
 46117  1  0  0  0
 47118  1  0  0  0
 47119  1  0  0  0
 48 56  1  0  0  0
 48 65  1  0  0  0
 48120  1  0  0  0
 49 50  1  0  0  0
 49 53  1  0  0  0
 49 64  1  0  0  0
 49121  1  0  0  0
 50 51  1  0  0  0
 50122  1  0  0  0
 50123  1  0  0  0
 51 52  1  0  0  0
 51124  1  0  0  0
 51125  1  0  0  0
 52126  1  0  0  0
 52127  1  0  0  0
 53 54  1  0  0  0
 54 55  2  0  0  0
 54128  1  0  0  0
 55 57  1  0  0  0
 55129  1  0  0  0
 56 69  2  0  0  0
 57 58  2  0  0  0
 57130  1  0  0  0
 58131  1  0  0  0
 59 60  1  0  0  0
 59 61  1  0  0  0
 59 62  1  0  0  0
 60132  1  0  0  0
 60133  1  0  0  0
 60134  1  0  0  0
 61135  1  0  0  0
 61136  1  0  0  0
 61137  1  0  0  0
 62138  1  0  0  0
 62139  1  0  0  0
 62140  1  0  0  0
 63 65  1  0  0  0
 63141  1  0  0  0
 63142  1  0  0  0
 63143  1  0  0  0
 64144  1  0  0  0
 65145  1  0  0  0
 68 80  1  0  0  0
 71 72  2  0  0  0
 71 74  1  0  0  0
 71146  1  0  0  0
 72 75  1  0  0  0
 72147  1  0  0  0
 73 74  2  0  0  0
 73 76  1  0  0  0
 73148  1  0  0  0
 74 82  1  0  0  0
 75 76  2  0  0  0
 75 85  1  0  0  0
 76 86  1  0  0  0
 77149  1  0  0  0
 77150  1  0  0  0
 77151  1  0  0  0
 77 83  1  0  0  0
 78 83  1  0  0  0
 78152  1  0  0  0
 78153  1  0  0  0
 78154  1  0  0  0
 79 84  1  0  0  0
 79155  1  0  0  0
 79156  1  0  0  0
 79157  1  0  0  0
 80 81  1  0  0  0
 80158  1  0  0  0
 80159  1  0  0  0
 81 85  1  0  0  0
 81160  1  0  0  0
 81161  1  0  0  0
 82 83  1  0  0  0
 82 84  1  0  0  0
 82162  1  0  0  0
 83163  1  0  0  0
M  ISO  4   1 100  68 101  80 101  84 100
M  END
> <chiral flag>
0

> <version>
0

> <s_m_source_file>
/data/baiqing/PycharmProjects/Reinvent-master-3.2/result/LINK_invent/BTK/process_docking_weight1_custom_product_contain_oxygen_bond_distance_aromatic_linkinvent_7_9_3/rearranged_h_0012.sdf

> <i_m_source_file_index>
61

> <r_mmod_Potential_Energy-OPLS-2005>
391.545227050781

> <r_mmod_Stretch_Energy-OPLS-2005>
104.776802062988

> <r_mmod_Bend_Energy-OPLS-2005>
234.645065307617

> <r_mmod_Torsional_Energy-OPLS-2005>
310.056610107422

> <r_mmod_Improper_Torsional_Energy-OPLS-2005>
7.05730867385864

> <r_mmod_Van_der_Waal_Energy-OPLS-2005>
148.20588684082

> <r_mmod_Electrostatic_Energy-OPLS-2005>
-298.842742919922

> <r_mmod_Solvation_Energy-OPLS-2005>
-184.99885559082

> <b_mmod_Minimization_Converged-OPLS-2005>
0

> <r_mmod_RMS_Derivative-OPLS-2005>
5.14962339401245

$$$$
61
                    3D
 Structure written by MMmdl.
156164  0  0  1  0            999 V2000
  -30.6531  -14.6383   20.6117 C   0  0  0  0  0  0
  -30.4284  -12.4256   19.4524 C   0  0  0  0  0  0
  -29.5013  -12.5376   18.2219 C   0  0  0  0  0  0
  -28.0270  -12.3529   18.6291 C   0  0  0  0  0  0
  -27.6460  -13.2188   19.8576 C   0  0  2  0  0  0
  -28.6808  -13.0617   20.9862 C   0  0  0  0  0  0
  -25.2514  -13.8177   20.5657 C   0  0  0  0  0  0
  -24.1785  -13.0431   20.9149 C   0  0  0  0  0  0
  -24.6361  -11.6906   20.8700 C   0  0  0  0  0  0
  -23.9028  -10.4298   21.0374 C   0  0  0  0  0  0
  -24.3587   -9.4232   21.9169 C   0  0  0  0  0  0
  -23.6271   -8.2267   22.0751 C   0  0  0  0  0  0
  -22.4256   -8.0282   21.3536 C   0  0  0  0  0  0
  -21.9874   -9.0248   20.4642 C   0  0  0  0  0  0
  -22.7194  -10.2135   20.3038 C   0  0  0  0  0  0
  -21.6872   -6.0715   22.5266 C   0  0  0  0  0  0
  -21.4035   -6.5624   23.8202 C   0  0  0  0  0  0
  -21.3657   -5.6777   24.9160 C   0  0  0  0  0  0
  -21.6043   -4.3040   24.7213 C   0  0  0  0  0  0
  -21.8830   -3.8127   23.4343 C   0  0  0  0  0  0
  -21.9207   -4.6940   22.3394 C   0  0  0  0  0  0
  -22.7823  -13.5236   21.1860 C   0  0  0  0  0  0
  -22.1675   -4.2110   21.0974 F   0  0  0  0  0  0
  -21.5615   -3.4535   25.7735 F   0  0  0  0  0  0
  -30.0014  -13.4340   20.4528 N   0  0  0  0  0  0
  -26.2932  -12.9357   20.3258 N   0  0  0  0  0  0
  -25.9290  -11.6511   20.5711 N   0  0  0  0  0  0
  -22.0483  -12.8219   22.0421 N   0  0  0  0  0  0
  -25.4236  -15.1912   20.4115 N   0  0  0  0  0  0
  -31.7437  -14.8278   20.0583 O   0  0  0  0  0  0
  -21.6660   -6.8852   21.4221 O   0  0  0  0  0  0
  -22.3520  -14.5565   20.6748 O   0  0  0  0  0  0
  -24.6255  -31.8585   23.2007 C   0  0  0  0  0  0
  -25.9088  -32.4789   23.8347 C   0  0  1  0  0  0
  -27.2278  -27.3095   20.1405 C   0  0  0  0  0  0
  -25.5899  -33.8596   24.2288 N   0  0  0  0  0  0
  -23.4202  -30.4799   21.5431 C   0  0  2  0  0  0
  -24.8714  -28.9255   20.1166 C   0  0  0  0  0  0
  -22.7481  -29.4613   22.4934 C   0  0  0  0  0  0
  -18.0322  -28.1407   22.8452 C   0  0  0  0  0  0
  -24.1483  -36.7296   23.2648 C   0  0  0  0  0  0
  -25.9623  -30.7892   21.3703 C   0  0  0  0  0  0
  -26.0398  -29.4139   20.7167 C   0  0  0  0  0  0
  -27.2265  -28.6204   20.7111 C   0  0  0  0  0  0
  -26.0415  -26.8674   19.5210 C   0  0  0  0  0  0
  -24.8746  -27.6591   19.5077 C   0  0  0  0  0  0
  -23.6376  -29.8086   20.1612 C   0  0  0  0  0  0
  -25.4109  -36.3096   24.0348 C   0  0  1  0  0  0
  -20.5910  -28.3679   23.1359 C   0  0  2  0  0  0
  -20.6766  -26.9397   22.5540 C   0  0  0  0  0  0
  -19.5862  -26.6479   21.5185 C   0  0  0  0  0  0
  -18.1958  -26.8057   22.1391 C   0  0  0  0  0  0
  -19.1564  -28.8835   23.2941 C   0  0  0  0  0  0
  -18.9483  -30.1405   23.9014 C   0  0  0  0  0  0
  -17.6480  -30.6539   24.0650 C   0  0  0  0  0  0
  -25.9046  -34.9463   23.5126 C   0  0  0  0  0  0
  -16.5380  -29.9077   23.6326 C   0  0  0  0  0  0
  -16.7313  -28.6525   23.0314 C   0  0  0  0  0  0
  -26.4468  -31.6600   25.0716 C   0  0  0  0  0  0
  -25.3704  -31.3716   26.1440 C   0  0  0  0  0  0
  -27.0320  -30.3035   24.6163 C   0  0  0  0  0  0
  -27.6031  -32.4332   25.7480 C   0  0  0  0  0  0
  -27.5580  -37.1812   24.8475 C   0  0  0  0  0  0
  -21.4194  -29.2985   22.3683 N   0  0  0  0  0  0
  -26.4298  -37.3777   23.9410 N   0  0  0  0  0  0
  -24.6880  -31.0593   22.0954 N   0  0  0  0  0  0
  -23.4234  -28.8195   23.3030 O   0  0  0  0  0  0
  -28.3416  -26.4606   20.1521 O   0  0  0  0  0  0
  -26.5617  -34.8924   22.4697 O   0  0  0  0  0  0
  -23.5422  -32.1382   23.7338 O   0  0  0  0  0  0
  -27.9040  -15.7293   24.2466 C   0  0  0  0  0  0
  -28.9394  -15.5500   23.6219 C   0  0  0  0  0  0
  -29.5021  -17.4557   19.7128 C   0  0  0  0  0  0
  -29.2450  -18.8272   19.3869 C   0  0  0  0  0  0
  -29.9446  -18.1262   21.9623 C   0  0  0  0  0  0
  -29.8656  -17.0453   21.0239 C   0  0  0  0  0  0
  -29.3124  -19.8965   20.3283 C   0  0  0  0  0  0
  -29.6733  -19.4941   21.6440 C   0  0  0  0  0  0
  -30.1835  -15.3147   22.8604 C   0  0  0  0  0  0
  -28.6788  -23.8046   19.9574 C   0  0  0  0  0  0
  -28.2000  -25.1092   20.7552 C   0  0  0  0  0  0
  -28.7914  -22.3932   20.7225 C   0  0  0  0  0  0
  -30.0881  -15.6203   21.4118 N   0  0  0  0  0  0
  -29.0627  -21.2201   19.8692 O   0  0  0  0  0  0
  -29.7826  -20.4153   22.6310 F   0  0  0  0  0  0
  -31.4698  -12.5533   19.1524 H   0  0  0  0  0  0
  -30.3711  -11.4224   19.8783 H   0  0  0  0  0  0
  -29.7765  -11.7950   17.4714 H   0  0  0  0  0  0
  -29.6264  -13.5126   17.7481 H   0  0  0  0  0  0
  -27.8786  -11.2979   18.8625 H   0  0  0  0  0  0
  -27.3683  -12.5786   17.7893 H   0  0  0  0  0  0
  -27.6665  -14.2576   19.5299 H   0  0  0  0  0  0
  -28.6974  -12.0351   21.3531 H   0  0  0  0  0  0
  -28.3735  -13.6652   21.8328 H   0  0  0  0  0  0
  -25.2739   -9.5735   22.4721 H   0  0  0  0  0  0
  -24.0003   -7.4664   22.7461 H   0  0  0  0  0  0
  -21.0819   -8.8745   19.8941 H   0  0  0  0  0  0
  -22.3640  -10.9656   19.6134 H   0  0  0  0  0  0
  -21.2052   -7.6138   23.9694 H   0  0  0  0  0  0
  -21.1461   -6.0508   25.9059 H   0  0  0  0  0  0
  -22.0618   -2.7587   23.2857 H   0  0  0  0  0  0
  -22.4119  -11.9875   22.4776 H   0  0  0  0  0  0
  -21.1095  -13.1208   22.2648 H   0  0  0  0  0  0
  -24.6648  -15.8518   20.5364 H   0  0  0  0  0  0
  -26.2932  -15.6362   20.1450 H   0  0  0  0  0  0
  -26.7168  -32.5418   23.1109 H   0  0  0  0  0  0
  -25.0007  -33.9749   25.0406 H   0  0  0  0  0  0
  -22.7151  -31.3001   21.3982 H   0  0  0  0  0  0
  -23.3750  -35.9623   23.3333 H   0  0  0  0  0  0
  -24.3567  -36.8889   22.2055 H   0  0  0  0  0  0
  -23.7231  -37.6511   23.6646 H   0  0  0  0  0  0
  -26.0912  -31.5514   20.6009 H   0  0  0  0  0  0
  -26.8467  -30.8425   21.9949 H   0  0  0  0  0  0
  -28.1278  -28.9968   21.1767 H   0  0  0  0  0  0
  -26.0112  -25.8922   19.0541 H   0  0  0  0  0  0
  -23.9773  -27.2776   19.0390 H   0  0  0  0  0  0
  -23.7557  -30.5831   19.4041 H   0  0  0  0  0  0
  -22.7577  -29.2402   19.8554 H   0  0  0  0  0  0
  -25.1289  -36.1972   25.0843 H   0  0  0  0  0  0
  -21.0010  -28.3304   24.1479 H   0  0  0  0  0  0
  -20.5447  -26.2335   23.3762 H   0  0  0  0  0  0
  -21.6694  -26.7326   22.1526 H   0  0  0  0  0  0
  -19.7066  -25.6439   21.1105 H   0  0  0  0  0  0
  -19.6947  -27.3373   20.6794 H   0  0  0  0  0  0
  -17.4397  -26.7138   21.3576 H   0  0  0  0  0  0
  -18.0051  -26.0064   22.8550 H   0  0  0  0  0  0
  -19.7953  -30.7166   24.2497 H   0  0  0  0  0  0
  -17.5033  -31.6175   24.5318 H   0  0  0  0  0  0
  -15.5379  -30.2989   23.7620 H   0  0  0  0  0  0
  -15.8718  -28.0874   22.6950 H   0  0  0  0  0  0
  -24.5884  -30.7074   25.7751 H   0  0  0  0  0  0
  -24.8880  -32.2864   26.4884 H   0  0  0  0  0  0
  -25.8017  -30.8866   27.0204 H   0  0  0  0  0  0
  -26.2894  -29.6793   24.1184 H   0  0  0  0  0  0
  -27.4033  -29.7280   25.4651 H   0  0  0  0  0  0
  -27.8745  -30.4361   23.9377 H   0  0  0  0  0  0
  -27.2670  -33.3646   26.2049 H   0  0  0  0  0  0
  -28.3831  -32.6886   25.0297 H   0  0  0  0  0  0
  -28.0713  -31.8459   26.5392 H   0  0  0  0  0  0
  -28.2629  -38.0078   24.7491 H   0  0  0  0  0  0
  -28.1049  -36.2616   24.6348 H   0  0  0  0  0  0
  -27.2291  -37.1509   25.8876 H   0  0  0  0  0  0
  -20.9358  -29.8605   21.6820 H   0  0  0  0  0  0
  -26.0198  -38.2872   24.1357 H   0  0  0  0  0  0
  -27.0024  -15.8804   24.7998 H   0  0  0  0  0  0
  -29.4002  -16.7150   18.9323 H   0  0  0  0  0  0
  -28.9763  -19.0653   18.3682 H   0  0  0  0  0  0
  -30.2198  -17.9339   22.9870 H   0  0  0  0  0  0
  -30.9911  -15.8870   23.3197 H   0  0  0  0  0  0
  -30.4403  -14.2676   23.0457 H   0  0  0  0  0  0
  -29.6572  -24.0177   19.5291 H   0  0  0  0  0  0
  -28.0094  -23.6778   19.1049 H   0  0  0  0  0  0
  -28.7902  -25.1566   21.6696 H   0  0  0  0  0  0
  -27.1777  -24.9495   21.1021 H   0  0  0  0  0  0
  -27.8568  -22.2000   21.2492 H   0  0  0  0  0  0
  -29.5629  -22.4862   21.4845 H   0  0  0  0  0  0
  1 25  1  0  0  0
  1 30  2  0  0  0
  1 83  1  0  0  0
  2  3  1  0  0  0
  2 25  1  0  0  0
  2 86  1  0  0  0
  2 87  1  0  0  0
  3  4  1  0  0  0
  3 88  1  0  0  0
  3 89  1  0  0  0
  4  5  1  0  0  0
  4 90  1  0  0  0
  4 91  1  0  0  0
  5  6  1  0  0  0
  5 26  1  0  0  0
  5 92  1  0  0  0
  6 25  1  0  0  0
  6 93  1  0  0  0
  6 94  1  0  0  0
  7  8  2  0  0  0
  7 26  1  0  0  0
  7 29  1  0  0  0
  8  9  1  0  0  0
  8 22  1  0  0  0
  9 10  1  0  0  0
  9 27  2  0  0  0
 10 11  2  0  0  0
 10 15  1  0  0  0
 11 12  1  0  0  0
 11 95  1  0  0  0
 12 13  2  0  0  0
 12 96  1  0  0  0
 13 14  1  0  0  0
 13 31  1  0  0  0
 14 15  2  0  0  0
 14 97  1  0  0  0
 15 98  1  0  0  0
 16 17  2  0  0  0
 16 21  1  0  0  0
 16 31  1  0  0  0
 17 18  1  0  0  0
 17 99  1  0  0  0
 18 19  2  0  0  0
 18100  1  0  0  0
 19 20  1  0  0  0
 19 24  1  0  0  0
 20 21  2  0  0  0
 20101  1  0  0  0
 21 23  1  0  0  0
 22 28  1  0  0  0
 22 32  2  0  0  0
 26 27  1  0  0  0
 28102  1  0  0  0
 28103  1  0  0  0
 29104  1  0  0  0
 29105  1  0  0  0
 33 34  1  0  0  0
 33 66  1  0  0  0
 33 70  2  0  0  0
 34 36  1  0  0  0
 34 59  1  0  0  0
 34106  1  0  0  0
 35 44  2  0  0  0
 35 45  1  0  0  0
 35 68  1  0  0  0
 36 56  1  0  0  0
 36107  1  0  0  0
 37 39  1  0  0  0
 37 47  1  0  0  0
 37 66  1  0  0  0
 37108  1  0  0  0
 38 43  2  0  0  0
 38 46  1  0  0  0
 38 47  1  0  0  0
 39 64  1  0  0  0
 39 67  2  0  0  0
 40 52  1  0  0  0
 40 53  2  0  0  0
 40 58  1  0  0  0
 41109  1  0  0  0
 41110  1  0  0  0
 41111  1  0  0  0
 41 48  1  0  0  0
 42 43  1  0  0  0
 42 66  1  0  0  0
 42112  1  0  0  0
 42113  1  0  0  0
 43 44  1  0  0  0
 44114  1  0  0  0
 45 46  2  0  0  0
 45115  1  0  0  0
 46116  1  0  0  0
 47117  1  0  0  0
 47118  1  0  0  0
 48 56  1  0  0  0
 48 65  1  0  0  0
 48119  1  0  0  0
 49 50  1  0  0  0
 49 53  1  0  0  0
 49 64  1  0  0  0
 49120  1  0  0  0
 50 51  1  0  0  0
 50121  1  0  0  0
 50122  1  0  0  0
 51 52  1  0  0  0
 51123  1  0  0  0
 51124  1  0  0  0
 52125  1  0  0  0
 52126  1  0  0  0
 53 54  1  0  0  0
 54 55  2  0  0  0
 54127  1  0  0  0
 55 57  1  0  0  0
 55128  1  0  0  0
 56 69  2  0  0  0
 57 58  2  0  0  0
 57129  1  0  0  0
 58130  1  0  0  0
 59 60  1  0  0  0
 59 61  1  0  0  0
 59 62  1  0  0  0
 60131  1  0  0  0
 60132  1  0  0  0
 60133  1  0  0  0
 61134  1  0  0  0
 61135  1  0  0  0
 61136  1  0  0  0
 62137  1  0  0  0
 62138  1  0  0  0
 62139  1  0  0  0
 63 65  1  0  0  0
 63140  1  0  0  0
 63141  1  0  0  0
 63142  1  0  0  0
 64143  1  0  0  0
 65144  1  0  0  0
 68 81  1  0  0  0
 71 72  3  0  0  0
 71145  1  0  0  0
 72 79  1  0  0  0
 73 74  2  0  0  0
 73 76  1  0  0  0
 73146  1  0  0  0
 74 77  1  0  0  0
 74147  1  0  0  0
 75 76  2  0  0  0
 75 78  1  0  0  0
 75148  1  0  0  0
 76 83  1  0  0  0
 77 78  2  0  0  0
 77 84  1  0  0  0
 78 85  1  0  0  0
 79 83  1  0  0  0
 79149  1  0  0  0
 79150  1  0  0  0
 80 81  1  0  0  0
 80 82  1  0  0  0
 80151  1  0  0  0
 80152  1  0  0  0
 81153  1  0  0  0
 81154  1  0  0  0
 82 84  1  0  0  0
 82155  1  0  0  0
 82156  1  0  0  0
M  ISO  4   1 100  68 101  81 101  83 100
M  END
> <chiral flag>
0

> <version>
0

> <s_m_source_file>
/data/baiqing/PycharmProjects/Reinvent-master-3.2/result/LINK_invent/BTK/process_docking_weight1_custom_product_contain_oxygen_bond_distance_aromatic_linkinvent_7_9_3/rearranged_h_0012.sdf

> <i_m_source_file_index>
62

> <r_mmod_Potential_Energy-OPLS-2005>
251.568222045898

> <r_mmod_Stretch_Energy-OPLS-2005>
101.120620727539

> <r_mmod_Bend_Energy-OPLS-2005>
161.898559570312

> <r_mmod_Torsional_Energy-OPLS-2005>
292.8564453125

> <r_mmod_Improper_Torsional_Energy-OPLS-2005>
2.95969462394714

> <r_mmod_Van_der_Waal_Energy-OPLS-2005>
143.381317138672

> <r_mmod_Electrostatic_Energy-OPLS-2005>
-305.551086425781

> <r_mmod_Solvation_Energy-OPLS-2005>
-194.092651367188

> <b_mmod_Minimization_Converged-OPLS-2005>
0

> <r_mmod_RMS_Derivative-OPLS-2005>
3.27077579498291

$$$$
62
                    3D
 Structure written by MMmdl.
148156  0  0  1  0            999 V2000
  -30.5089  -14.9122   20.4351 C   0  0  0  0  0  0
  -30.4555  -12.5616   19.4901 C   0  0  0  0  0  0
  -29.5264  -12.5317   18.2520 C   0  0  0  0  0  0
  -28.0565  -12.3206   18.6662 C   0  0  0  0  0  0
  -27.6389  -13.2354   19.8464 C   0  0  2  0  0  0
  -28.6835  -13.2119   20.9840 C   0  0  0  0  0  0
  -25.2500  -13.8182   20.5681 C   0  0  0  0  0  0
  -24.1806  -13.0431   20.9230 C   0  0  0  0  0  0
  -24.6402  -11.6911   20.8760 C   0  0  0  0  0  0
  -23.9076  -10.4289   21.0416 C   0  0  0  0  0  0
  -24.3624   -9.4201   21.9190 C   0  0  0  0  0  0
  -23.6294   -8.2240   22.0758 C   0  0  0  0  0  0
  -22.4276   -8.0282   21.3547 C   0  0  0  0  0  0
  -21.9915   -9.0259   20.4652 C   0  0  0  0  0  0
  -22.7249  -10.2135   20.3063 C   0  0  0  0  0  0
  -21.6853   -6.0736   22.5279 C   0  0  0  0  0  0
  -21.4015   -6.5640   23.8212 C   0  0  0  0  0  0
  -21.3659   -5.6793   24.9175 C   0  0  0  0  0  0
  -21.6044   -4.3056   24.7225 C   0  0  0  0  0  0
  -21.8818   -3.8147   23.4347 C   0  0  0  0  0  0
  -21.9192   -4.6963   22.3402 C   0  0  0  0  0  0
  -22.7826  -13.5218   21.1880 C   0  0  0  0  0  0
  -22.1661   -4.2149   21.0979 F   0  0  0  0  0  0
  -21.5626   -3.4539   25.7738 F   0  0  0  0  0  0
  -29.9682  -13.6307   20.4025 N   0  0  0  0  0  0
  -26.2925  -12.9392   20.3247 N   0  0  0  0  0  0
  -25.9332  -11.6537   20.5742 N   0  0  0  0  0  0
  -22.0465  -12.8213   22.0434 N   0  0  0  0  0  0
  -25.4162  -15.1901   20.4026 N   0  0  0  0  0  0
  -31.6970  -15.0562   20.1234 O   0  0  0  0  0  0
  -21.6639   -6.8881   21.4242 O   0  0  0  0  0  0
  -22.3518  -14.5520   20.6717 O   0  0  0  0  0  0
  -24.6422  -31.8456   23.1895 C   0  0  0  0  0  0
  -25.9199  -32.4704   23.8282 C   0  0  1  0  0  0
  -27.2214  -27.1519   20.1469 C   0  0  0  0  0  0
  -25.5952  -33.8509   24.2201 N   0  0  0  0  0  0
  -23.4453  -30.4654   21.5351 C   0  0  2  0  0  0
  -24.8953  -28.8959   20.1105 C   0  0  0  0  0  0
  -22.7562  -29.4552   22.4864 C   0  0  0  0  0  0
  -18.0305  -28.1392   22.8480 C   0  0  0  0  0  0
  -24.1492  -36.7261   23.2642 C   0  0  0  0  0  0
  -26.0006  -30.7245   21.3860 C   0  0  0  0  0  0
  -26.0728  -29.3373   20.7273 C   0  0  0  0  0  0
  -27.2369  -28.4820   20.7280 C   0  0  0  0  0  0
  -26.0152  -26.8096   19.4937 C   0  0  0  0  0  0
  -24.8787  -27.6448   19.4786 C   0  0  0  0  0  0
  -23.6712  -29.7962   20.1539 C   0  0  0  0  0  0
  -25.4122  -36.3038   24.0318 C   0  0  1  0  0  0
  -20.5917  -28.3717   23.1239 C   0  0  2  0  0  0
  -20.6789  -26.9422   22.5403 C   0  0  0  0  0  0
  -19.5760  -26.6380   21.5213 C   0  0  0  0  0  0
  -18.1944  -26.7931   22.1628 C   0  0  0  0  0  0
  -19.1562  -28.8873   23.2853 C   0  0  0  0  0  0
  -18.9477  -30.1469   23.8878 C   0  0  0  0  0  0
  -17.6473  -30.6589   24.0558 C   0  0  0  0  0  0
  -25.9071  -34.9412   23.5068 C   0  0  0  0  0  0
  -16.5365  -29.9082   23.6333 C   0  0  0  0  0  0
  -16.7289  -28.6500   23.0357 C   0  0  0  0  0  0
  -26.4522  -31.6564   25.0716 C   0  0  0  0  0  0
  -25.3712  -31.3749   26.1414 C   0  0  0  0  0  0
  -27.0385  -30.2963   24.6283 C   0  0  0  0  0  0
  -27.6053  -32.4328   25.7502 C   0  0  0  0  0  0
  -27.5575  -37.1788   24.8465 C   0  0  0  0  0  0
  -21.4255  -29.3048   22.3615 N   0  0  0  0  0  0
  -26.4286  -37.3749   23.9408 N   0  0  0  0  0  0
  -24.7158  -31.0325   22.0923 N   0  0  0  0  0  0
  -23.4210  -28.8096   23.3008 O   0  0  0  0  0  0
  -28.2796  -26.1752   20.2158 O   0  0  0  0  0  0
  -26.5655  -34.8906   22.4645 O   0  0  0  0  0  0
  -23.5543  -32.1325   23.7122 O   0  0  0  0  0  0
  -30.4979  -18.5502   20.3681 C   0  0  0  0  0  0
  -30.1918  -19.9876   20.3030 C   0  0  0  0  0  0
  -28.2013  -18.0915   20.6159 C   0  0  0  0  0  0
  -29.5058  -17.5125   20.5303 C   0  0  0  0  0  0
  -28.8604  -20.5427   20.3787 C   0  0  0  0  0  0
  -27.8953  -19.4982   20.5370 C   0  0  0  0  0  0
  -27.9814  -24.6559   20.0800 C   0  0  0  0  0  0
  -28.9666  -23.3090   20.3181 C   0  0  0  0  0  0
  -29.6181  -15.9877   20.6567 N   0  0  0  0  0  0
  -28.3436  -21.9122   20.2867 O   0  0  0  0  0  0
  -26.5907  -19.8568   20.6201 F   0  0  0  0  0  0
  -31.4867  -12.7370   19.1791 H   0  0  0  0  0  0
  -30.4561  -11.5962   19.9987 H   0  0  0  0  0  0
  -29.8377  -11.7454   17.5632 H   0  0  0  0  0  0
  -29.6191  -13.4710   17.7045 H   0  0  0  0  0  0
  -27.9424  -11.2750   18.9545 H   0  0  0  0  0  0
  -27.3955  -12.4747   17.8124 H   0  0  0  0  0  0
  -27.6160  -14.2467   19.4405 H   0  0  0  0  0  0
  -28.7608  -12.2155   21.4218 H   0  0  0  0  0  0
  -28.3869  -13.8773   21.7964 H   0  0  0  0  0  0
  -25.2769   -9.5672   22.4767 H   0  0  0  0  0  0
  -24.0000   -7.4629   22.7477 H   0  0  0  0  0  0
  -21.0844   -8.8784   19.8957 H   0  0  0  0  0  0
  -22.3712  -10.9678   19.6174 H   0  0  0  0  0  0
  -21.2010   -7.6149   23.9716 H   0  0  0  0  0  0
  -21.1480   -6.0523   25.9077 H   0  0  0  0  0  0
  -22.0597   -2.7608   23.2848 H   0  0  0  0  0  0
  -22.4083  -11.9878   22.4830 H   0  0  0  0  0  0
  -21.1084  -13.1242   22.2641 H   0  0  0  0  0  0
  -24.6295  -15.8261   20.4770 H   0  0  0  0  0  0
  -26.2182  -15.6066   19.9499 H   0  0  0  0  0  0
  -26.7265  -32.5316   23.1014 H   0  0  0  0  0  0
  -25.0077  -33.9626   25.0333 H   0  0  0  0  0  0
  -22.7472  -31.2910   21.3818 H   0  0  0  0  0  0
  -23.3757  -35.9590   23.3292 H   0  0  0  0  0  0
  -24.3578  -36.8903   22.2059 H   0  0  0  0  0  0
  -23.7245  -37.6454   23.6684 H   0  0  0  0  0  0
  -26.1536  -31.4794   20.6136 H   0  0  0  0  0  0
  -26.8721  -30.7754   22.0269 H   0  0  0  0  0  0
  -28.1335  -28.8156   21.2313 H   0  0  0  0  0  0
  -25.9102  -25.8553   19.0018 H   0  0  0  0  0  0
  -23.9801  -27.3016   18.9846 H   0  0  0  0  0  0
  -23.8070  -30.5716   19.3992 H   0  0  0  0  0  0
  -22.7864  -29.2380   19.8427 H   0  0  0  0  0  0
  -25.1309  -36.1869   25.0810 H   0  0  0  0  0  0
  -21.0010  -28.3306   24.1360 H   0  0  0  0  0  0
  -20.5685  -26.2330   23.3621 H   0  0  0  0  0  0
  -21.6654  -26.7429   22.1199 H   0  0  0  0  0  0
  -19.6921  -25.6286   21.1255 H   0  0  0  0  0  0
  -19.6694  -27.3179   20.6734 H   0  0  0  0  0  0
  -17.4210  -26.6673   21.4035 H   0  0  0  0  0  0
  -18.0346  -26.0078   22.9030 H   0  0  0  0  0  0
  -19.7952  -30.7291   24.2241 H   0  0  0  0  0  0
  -17.5025  -31.6268   24.5163 H   0  0  0  0  0  0
  -15.5364  -30.2977   23.7663 H   0  0  0  0  0  0
  -15.8691  -28.0808   22.7085 H   0  0  0  0  0  0
  -24.5894  -30.7094   25.7734 H   0  0  0  0  0  0
  -24.8898  -32.2930   26.4792 H   0  0  0  0  0  0
  -25.7998  -30.8952   27.0222 H   0  0  0  0  0  0
  -26.2998  -29.6690   24.1281 H   0  0  0  0  0  0
  -27.3997  -29.7256   25.4848 H   0  0  0  0  0  0
  -27.8906  -30.4204   23.9597 H   0  0  0  0  0  0
  -27.2645  -33.3646   26.2028 H   0  0  0  0  0  0
  -28.3892  -32.6860   25.0352 H   0  0  0  0  0  0
  -28.0689  -31.8488   26.5463 H   0  0  0  0  0  0
  -28.2585  -38.0091   24.7510 H   0  0  0  0  0  0
  -28.1079  -36.2622   24.6295 H   0  0  0  0  0  0
  -27.2293  -37.1437   25.8868 H   0  0  0  0  0  0
  -20.9461  -29.8768   21.6802 H   0  0  0  0  0  0
  -26.0155  -38.2818   24.1409 H   0  0  0  0  0  0
  -31.5349  -18.2525   20.2974 H   0  0  0  0  0  0
  -31.0171  -20.6732   20.1773 H   0  0  0  0  0  0
  -27.3590  -17.4297   20.7477 H   0  0  0  0  0  0
  -27.1214  -24.4889   20.7294 H   0  0  0  0  0  0
  -27.6025  -24.5258   19.0670 H   0  0  0  0  0  0
  -29.4518  -23.4117   21.2888 H   0  0  0  0  0  0
  -29.7707  -23.3307   19.5826 H   0  0  0  0  0  0
  -28.7268  -15.5824   20.8973 H   0  0  0  0  0  0
  1 25  1  0  0  0
  1 30  2  0  0  0
  1 79  1  0  0  0
  2  3  1  0  0  0
  2 25  1  0  0  0
  2 82  1  0  0  0
  2 83  1  0  0  0
  3  4  1  0  0  0
  3 84  1  0  0  0
  3 85  1  0  0  0
  4  5  1  0  0  0
  4 86  1  0  0  0
  4 87  1  0  0  0
  5  6  1  0  0  0
  5 26  1  0  0  0
  5 88  1  0  0  0
  6 25  1  0  0  0
  6 89  1  0  0  0
  6 90  1  0  0  0
  7  8  2  0  0  0
  7 26  1  0  0  0
  7 29  1  0  0  0
  8  9  1  0  0  0
  8 22  1  0  0  0
  9 10  1  0  0  0
  9 27  2  0  0  0
 10 11  2  0  0  0
 10 15  1  0  0  0
 11 12  1  0  0  0
 11 91  1  0  0  0
 12 13  2  0  0  0
 12 92  1  0  0  0
 13 14  1  0  0  0
 13 31  1  0  0  0
 14 15  2  0  0  0
 14 93  1  0  0  0
 15 94  1  0  0  0
 16 17  2  0  0  0
 16 21  1  0  0  0
 16 31  1  0  0  0
 17 18  1  0  0  0
 17 95  1  0  0  0
 18 19  2  0  0  0
 18 96  1  0  0  0
 19 20  1  0  0  0
 19 24  1  0  0  0
 20 21  2  0  0  0
 20 97  1  0  0  0
 21 23  1  0  0  0
 22 28  1  0  0  0
 22 32  2  0  0  0
 26 27  1  0  0  0
 28 98  1  0  0  0
 28 99  1  0  0  0
 29100  1  0  0  0
 29101  1  0  0  0
 33 34  1  0  0  0
 33 66  1  0  0  0
 33 70  2  0  0  0
 34 36  1  0  0  0
 34 59  1  0  0  0
 34102  1  0  0  0
 35 44  2  0  0  0
 35 45  1  0  0  0
 35 68  1  0  0  0
 36 56  1  0  0  0
 36103  1  0  0  0
 37 39  1  0  0  0
 37 47  1  0  0  0
 37 66  1  0  0  0
 37104  1  0  0  0
 38 43  2  0  0  0
 38 46  1  0  0  0
 38 47  1  0  0  0
 39 64  1  0  0  0
 39 67  2  0  0  0
 40 52  1  0  0  0
 40 53  2  0  0  0
 40 58  1  0  0  0
 41105  1  0  0  0
 41106  1  0  0  0
 41107  1  0  0  0
 41 48  1  0  0  0
 42 43  1  0  0  0
 42 66  1  0  0  0
 42108  1  0  0  0
 42109  1  0  0  0
 43 44  1  0  0  0
 44110  1  0  0  0
 45 46  2  0  0  0
 45111  1  0  0  0
 46112  1  0  0  0
 47113  1  0  0  0
 47114  1  0  0  0
 48 56  1  0  0  0
 48 65  1  0  0  0
 48115  1  0  0  0
 49 50  1  0  0  0
 49 53  1  0  0  0
 49 64  1  0  0  0
 49116  1  0  0  0
 50 51  1  0  0  0
 50117  1  0  0  0
 50118  1  0  0  0
 51 52  1  0  0  0
 51119  1  0  0  0
 51120  1  0  0  0
 52121  1  0  0  0
 52122  1  0  0  0
 53 54  1  0  0  0
 54 55  2  0  0  0
 54123  1  0  0  0
 55 57  1  0  0  0
 55124  1  0  0  0
 56 69  2  0  0  0
 57 58  2  0  0  0
 57125  1  0  0  0
 58126  1  0  0  0
 59 60  1  0  0  0
 59 61  1  0  0  0
 59 62  1  0  0  0
 60127  1  0  0  0
 60128  1  0  0  0
 60129  1  0  0  0
 61130  1  0  0  0
 61131  1  0  0  0
 61132  1  0  0  0
 62133  1  0  0  0
 62134  1  0  0  0
 62135  1  0  0  0
 63 65  1  0  0  0
 63136  1  0  0  0
 63137  1  0  0  0
 63138  1  0  0  0
 64139  1  0  0  0
 65140  1  0  0  0
 68 77  1  0  0  0
 71 72  2  0  0  0
 71 74  1  0  0  0
 71141  1  0  0  0
 72 75  1  0  0  0
 72142  1  0  0  0
 73 74  2  0  0  0
 73 76  1  0  0  0
 73143  1  0  0  0
 74 79  1  0  0  0
 75 76  2  0  0  0
 75 80  1  0  0  0
 76 81  1  0  0  0
 77 78  1  0  0  0
 77144  1  0  0  0
 77145  1  0  0  0
 78 80  1  0  0  0
 78146  1  0  0  0
 78147  1  0  0  0
 79148  1  0  0  0
M  ISO  4   1 100  68 101  77 101  79 100
M  END
> <chiral flag>
0

> <version>
0

> <s_m_source_file>
/data/baiqing/PycharmProjects/Reinvent-master-3.2/result/LINK_invent/BTK/process_docking_weight1_custom_product_contain_oxygen_bond_distance_aromatic_linkinvent_7_9_3/rearranged_h_0012.sdf

> <i_m_source_file_index>
63

> <r_mmod_Potential_Energy-OPLS-2005>
491.091247558594

> <r_mmod_Stretch_Energy-OPLS-2005>
216.953765869141

> <r_mmod_Bend_Energy-OPLS-2005>
302.484619140625

> <r_mmod_Torsional_Energy-OPLS-2005>
212.021713256836

> <r_mmod_Improper_Torsional_Energy-OPLS-2005>
4.76716709136963

> <r_mmod_Van_der_Waal_Energy-OPLS-2005>
130.573699951172

> <r_mmod_Electrostatic_Energy-OPLS-2005>
-337.487060546875

> <r_mmod_Solvation_Energy-OPLS-2005>
-212.451721191406

> <b_mmod_Minimization_Converged-OPLS-2005>
0

> <r_mmod_RMS_Derivative-OPLS-2005>
0.366873770952225

$$$$
63
                    3D
 Structure written by MMmdl.
158166  0  0  1  0            999 V2000
  -30.5144  -14.9544   20.2882 C   0  0  0  0  0  0
  -30.4494  -12.5394   19.4994 C   0  0  0  0  0  0
  -29.5187  -12.3253   18.2812 C   0  0  0  0  0  0
  -28.0281  -12.2693   18.6766 C   0  0  0  0  0  0
  -27.6258  -13.1990   19.8487 C   0  0  2  0  0  0
  -28.6891  -13.2763   20.9519 C   0  0  0  0  0  0
  -25.2489  -13.8101   20.5818 C   0  0  0  0  0  0
  -24.1752  -13.0424   20.9304 C   0  0  0  0  0  0
  -24.6292  -11.6871   20.8895 C   0  0  0  0  0  0
  -23.8961  -10.4296   21.0510 C   0  0  0  0  0  0
  -24.3550   -9.4205   21.9263 C   0  0  0  0  0  0
  -23.6258   -8.2228   22.0792 C   0  0  0  0  0  0
  -22.4243   -8.0281   21.3570 C   0  0  0  0  0  0
  -21.9872   -9.0252   20.4672 C   0  0  0  0  0  0
  -22.7165  -10.2140   20.3127 C   0  0  0  0  0  0
  -21.6853   -6.0750   22.5286 C   0  0  0  0  0  0
  -21.4009   -6.5641   23.8218 C   0  0  0  0  0  0
  -21.3668   -5.6791   24.9178 C   0  0  0  0  0  0
  -21.6038   -4.3056   24.7233 C   0  0  0  0  0  0
  -21.8814   -3.8161   23.4347 C   0  0  0  0  0  0
  -21.9197   -4.6977   22.3405 C   0  0  0  0  0  0
  -22.7765  -13.5205   21.1944 C   0  0  0  0  0  0
  -22.1669   -4.2156   21.0985 F   0  0  0  0  0  0
  -21.5631   -3.4548   25.7754 F   0  0  0  0  0  0
  -29.9320  -13.6877   20.2901 N   0  0  0  0  0  0
  -26.2850  -12.9209   20.3454 N   0  0  0  0  0  0
  -25.9212  -11.6394   20.5993 N   0  0  0  0  0  0
  -22.0389  -12.8202   22.0474 N   0  0  0  0  0  0
  -25.4234  -15.1831   20.4157 N   0  0  0  0  0  0
  -31.7496  -14.9957   20.2327 O   0  0  0  0  0  0
  -21.6628   -6.8874   21.4244 O   0  0  0  0  0  0
  -22.3443  -14.5531   20.6796 O   0  0  0  0  0  0
  -24.6398  -31.8452   23.1881 C   0  0  0  0  0  0
  -25.9158  -32.4711   23.8298 C   0  0  1  0  0  0
  -27.2539  -27.1628   20.1736 C   0  0  0  0  0  0
  -25.5933  -33.8519   24.2229 N   0  0  0  0  0  0
  -23.4475  -30.4581   21.5312 C   0  0  2  0  0  0
  -24.9096  -28.8811   20.1224 C   0  0  0  0  0  0
  -22.7535  -29.4566   22.4863 C   0  0  0  0  0  0
  -18.0295  -28.1399   22.8463 C   0  0  0  0  0  0
  -24.1484  -36.7267   23.2640 C   0  0  0  0  0  0
  -26.0001  -30.7290   21.3828 C   0  0  0  0  0  0
  -26.0826  -29.3344   20.7384 C   0  0  0  0  0  0
  -27.2539  -28.4945   20.7436 C   0  0  0  0  0  0
  -26.0577  -26.7975   19.5239 C   0  0  0  0  0  0
  -24.9076  -27.6214   19.4984 C   0  0  0  0  0  0
  -23.6778  -29.7746   20.1576 C   0  0  0  0  0  0
  -25.4123  -36.3039   24.0323 C   0  0  1  0  0  0
  -20.5899  -28.3715   23.1215 C   0  0  2  0  0  0
  -20.6800  -26.9413   22.5404 C   0  0  0  0  0  0
  -19.5775  -26.6378   21.5202 C   0  0  0  0  0  0
  -18.1943  -26.7940   22.1610 C   0  0  0  0  0  0
  -19.1548  -28.8876   23.2841 C   0  0  0  0  0  0
  -18.9461  -30.1468   23.8863 C   0  0  0  0  0  0
  -17.6474  -30.6587   24.0535 C   0  0  0  0  0  0
  -25.9058  -34.9413   23.5089 C   0  0  0  0  0  0
  -16.5370  -29.9069   23.6336 C   0  0  0  0  0  0
  -16.7289  -28.6502   23.0346 C   0  0  0  0  0  0
  -26.4517  -31.6559   25.0722 C   0  0  0  0  0  0
  -25.3696  -31.3706   26.1422 C   0  0  0  0  0  0
  -27.0401  -30.2963   24.6279 C   0  0  0  0  0  0
  -27.6085  -32.4279   25.7468 C   0  0  0  0  0  0
  -27.5584  -37.1767   24.8453 C   0  0  0  0  0  0
  -21.4239  -29.3036   22.3556 N   0  0  0  0  0  0
  -26.4295  -37.3740   23.9398 N   0  0  0  0  0  0
  -24.7149  -31.0338   22.0900 N   0  0  0  0  0  0
  -23.4179  -28.8093   23.2987 O   0  0  0  0  0  0
  -28.3410  -26.2217   20.1898 O   0  0  0  0  0  0
  -26.5617  -34.8868   22.4641 O   0  0  0  0  0  0
  -23.5505  -32.1326   23.7096 O   0  0  0  0  0  0
  -30.3662  -20.0068   20.0725 C   0  0  0  0  0  0
  -28.4451  -18.1228   20.7479 C   0  0  0  0  0  0
  -29.1487  -20.5859   20.5757 C   0  0  0  0  0  0
  -29.6621  -17.5440   20.2630 C   0  0  0  0  0  0
  -30.6068  -18.5788   19.9117 C   0  0  0  0  0  0
  -28.2023  -19.5423   20.8956 C   0  0  0  0  0  0
  -28.0604  -16.3521   17.9227 C   0  0  0  0  0  0
  -29.1060  -22.1303   22.3826 C   0  0  0  0  0  0
  -29.5010  -16.0215   18.3676 C   0  0  0  0  0  0
  -29.0718  -23.3848   20.2061 C   0  0  0  0  0  0
  -28.1459  -24.7405   20.6058 C   0  0  0  0  0  0
  -29.7483  -16.0776   19.8317 N   0  0  0  0  0  0
  -28.9001  -22.0167   20.9378 N   0  0  0  0  0  0
  -31.7859  -18.1998   19.3612 F   0  0  0  0  0  0
  -26.6409  -20.0002   21.4830 Cl  0  0  0  0  0  0
  -31.4652  -12.7234   19.1449 H   0  0  0  0  0  0
  -30.5156  -11.6353   20.1116 H   0  0  0  0  0  0
  -29.7723  -11.3710   17.8106 H   0  0  0  0  0  0
  -29.6958  -13.0627   17.5041 H   0  0  0  0  0  0
  -27.8222  -11.2395   18.9603 H   0  0  0  0  0  0
  -27.4005  -12.4711   17.8045 H   0  0  0  0  0  0
  -27.5785  -14.1854   19.4348 H   0  0  0  0  0  0
  -28.7994  -12.3219   21.4630 H   0  0  0  0  0  0
  -28.4049  -14.0172   21.6990 H   0  0  0  0  0  0
  -25.2700   -9.5663   22.4820 H   0  0  0  0  0  0
  -24.0032   -7.4563   22.7398 H   0  0  0  0  0  0
  -21.0877   -8.8693   19.8891 H   0  0  0  0  0  0
  -22.3647  -10.9675   19.6238 H   0  0  0  0  0  0
  -21.1991   -7.6145   23.9711 H   0  0  0  0  0  0
  -21.1500   -6.0542   25.9070 H   0  0  0  0  0  0
  -22.0601   -2.7632   23.2846 H   0  0  0  0  0  0
  -22.3999  -11.9846   22.4845 H   0  0  0  0  0  0
  -21.1003  -13.1178   22.2699 H   0  0  0  0  0  0
  -24.6605  -15.8443   20.5223 H   0  0  0  0  0  0
  -26.2669  -15.6076   20.0587 H   0  0  0  0  0  0
  -26.7239  -32.5301   23.1052 H   0  0  0  0  0  0
  -25.0077  -33.9669   25.0372 H   0  0  0  0  0  0
  -22.7553  -31.2863   21.3706 H   0  0  0  0  0  0
  -23.3759  -35.9583   23.3282 H   0  0  0  0  0  0
  -24.3586  -36.8937   22.2072 H   0  0  0  0  0  0
  -23.7232  -37.6449   23.6696 H   0  0  0  0  0  0
  -26.1420  -31.4706   20.5957 H   0  0  0  0  0  0
  -26.8753  -30.7956   22.0183 H   0  0  0  0  0  0
  -28.1515  -28.8463   21.2299 H   0  0  0  0  0  0
  -26.0023  -25.8324   19.0402 H   0  0  0  0  0  0
  -24.0152  -27.2638   19.0033 H   0  0  0  0  0  0
  -23.8012  -30.5414   19.3926 H   0  0  0  0  0  0
  -22.8002  -29.2023   19.8517 H   0  0  0  0  0  0
  -25.1293  -36.1918   25.0808 H   0  0  0  0  0  0
  -20.9992  -28.3344   24.1343 H   0  0  0  0  0  0
  -20.5671  -26.2328   23.3628 H   0  0  0  0  0  0
  -21.6663  -26.7406   22.1202 H   0  0  0  0  0  0
  -19.6914  -25.6270   21.1264 H   0  0  0  0  0  0
  -19.6728  -27.3156   20.6696 H   0  0  0  0  0  0
  -17.4200  -26.6640   21.4008 H   0  0  0  0  0  0
  -18.0349  -26.0117   22.9009 H   0  0  0  0  0  0
  -19.7941  -30.7269   24.2250 H   0  0  0  0  0  0
  -17.5023  -31.6269   24.5112 H   0  0  0  0  0  0
  -15.5348  -30.2942   23.7725 H   0  0  0  0  0  0
  -15.8699  -28.0814   22.7085 H   0  0  0  0  0  0
  -24.5885  -30.7073   25.7710 H   0  0  0  0  0  0
  -24.8879  -32.2868   26.4827 H   0  0  0  0  0  0
  -25.7984  -30.8874   27.0222 H   0  0  0  0  0  0
  -26.3045  -29.6646   24.1298 H   0  0  0  0  0  0
  -27.4076  -29.7290   25.4854 H   0  0  0  0  0  0
  -27.8909  -30.4259   23.9580 H   0  0  0  0  0  0
  -27.2791  -33.3633   26.2007 H   0  0  0  0  0  0
  -28.3911  -32.6750   25.0266 H   0  0  0  0  0  0
  -28.0740  -31.8408   26.5409 H   0  0  0  0  0  0
  -28.2542  -38.0104   24.7535 H   0  0  0  0  0  0
  -28.1145  -36.2644   24.6257 H   0  0  0  0  0  0
  -27.2302  -37.1386   25.8844 H   0  0  0  0  0  0
  -20.9433  -29.8763   21.6752 H   0  0  0  0  0  0
  -26.0185  -38.2799   24.1436 H   0  0  0  0  0  0
  -31.1750  -20.6710   19.8027 H   0  0  0  0  0  0
  -27.6280  -17.4576   20.9860 H   0  0  0  0  0  0
  -27.9686  -16.0671   16.8738 H   0  0  0  0  0  0
  -27.8626  -17.4172   18.0060 H   0  0  0  0  0  0
  -27.2420  -15.8657   18.4437 H   0  0  0  0  0  0
  -28.8116  -21.2285   22.9248 H   0  0  0  0  0  0
  -28.5146  -22.9420   22.8052 H   0  0  0  0  0  0
  -30.1558  -22.3122   22.6188 H   0  0  0  0  0  0
  -30.1549  -16.7429   17.8708 H   0  0  0  0  0  0
  -29.8005  -15.0839   17.9072 H   0  0  0  0  0  0
  -30.1120  -23.6801   20.3627 H   0  0  0  0  0  0
  -28.9720  -23.1921   19.1375 H   0  0  0  0  0  0
  -28.2039  -24.8337   21.6898 H   0  0  0  0  0  0
  -27.1098  -24.4623   20.4129 H   0  0  0  0  0  0
  1 25  1  0  0  0
  1 30  2  0  0  0
  1 82  1  0  0  0
  2  3  1  0  0  0
  2 25  1  0  0  0
  2 86  1  0  0  0
  2 87  1  0  0  0
  3  4  1  0  0  0
  3 88  1  0  0  0
  3 89  1  0  0  0
  4  5  1  0  0  0
  4 90  1  0  0  0
  4 91  1  0  0  0
  5  6  1  0  0  0
  5 26  1  0  0  0
  5 92  1  0  0  0
  6 25  1  0  0  0
  6 93  1  0  0  0
  6 94  1  0  0  0
  7  8  2  0  0  0
  7 26  1  0  0  0
  7 29  1  0  0  0
  8  9  1  0  0  0
  8 22  1  0  0  0
  9 10  1  0  0  0
  9 27  2  0  0  0
 10 11  2  0  0  0
 10 15  1  0  0  0
 11 12  1  0  0  0
 11 95  1  0  0  0
 12 13  2  0  0  0
 12 96  1  0  0  0
 13 14  1  0  0  0
 13 31  1  0  0  0
 14 15  2  0  0  0
 14 97  1  0  0  0
 15 98  1  0  0  0
 16 17  2  0  0  0
 16 21  1  0  0  0
 16 31  1  0  0  0
 17 18  1  0  0  0
 17 99  1  0  0  0
 18 19  2  0  0  0
 18100  1  0  0  0
 19 20  1  0  0  0
 19 24  1  0  0  0
 20 21  2  0  0  0
 20101  1  0  0  0
 21 23  1  0  0  0
 22 28  1  0  0  0
 22 32  2  0  0  0
 26 27  1  0  0  0
 28102  1  0  0  0
 28103  1  0  0  0
 29104  1  0  0  0
 29105  1  0  0  0
 33 34  1  0  0  0
 33 66  1  0  0  0
 33 70  2  0  0  0
 34 36  1  0  0  0
 34 59  1  0  0  0
 34106  1  0  0  0
 35 44  2  0  0  0
 35 45  1  0  0  0
 35 68  1  0  0  0
 36 56  1  0  0  0
 36107  1  0  0  0
 37 39  1  0  0  0
 37 47  1  0  0  0
 37 66  1  0  0  0
 37108  1  0  0  0
 38 43  2  0  0  0
 38 46  1  0  0  0
 38 47  1  0  0  0
 39 64  1  0  0  0
 39 67  2  0  0  0
 40 52  1  0  0  0
 40 53  2  0  0  0
 40 58  1  0  0  0
 41109  1  0  0  0
 41110  1  0  0  0
 41111  1  0  0  0
 41 48  1  0  0  0
 42 43  1  0  0  0
 42 66  1  0  0  0
 42112  1  0  0  0
 42113  1  0  0  0
 43 44  1  0  0  0
 44114  1  0  0  0
 45 46  2  0  0  0
 45115  1  0  0  0
 46116  1  0  0  0
 47117  1  0  0  0
 47118  1  0  0  0
 48 56  1  0  0  0
 48 65  1  0  0  0
 48119  1  0  0  0
 49 50  1  0  0  0
 49 53  1  0  0  0
 49 64  1  0  0  0
 49120  1  0  0  0
 50 51  1  0  0  0
 50121  1  0  0  0
 50122  1  0  0  0
 51 52  1  0  0  0
 51123  1  0  0  0
 51124  1  0  0  0
 52125  1  0  0  0
 52126  1  0  0  0
 53 54  1  0  0  0
 54 55  2  0  0  0
 54127  1  0  0  0
 55 57  1  0  0  0
 55128  1  0  0  0
 56 69  2  0  0  0
 57 58  2  0  0  0
 57129  1  0  0  0
 58130  1  0  0  0
 59 60  1  0  0  0
 59 61  1  0  0  0
 59 62  1  0  0  0
 60131  1  0  0  0
 60132  1  0  0  0
 60133  1  0  0  0
 61134  1  0  0  0
 61135  1  0  0  0
 61136  1  0  0  0
 62137  1  0  0  0
 62138  1  0  0  0
 62139  1  0  0  0
 63 65  1  0  0  0
 63140  1  0  0  0
 63141  1  0  0  0
 63142  1  0  0  0
 64143  1  0  0  0
 65144  1  0  0  0
 68 81  1  0  0  0
 71 73  2  0  0  0
 71 75  1  0  0  0
 71145  1  0  0  0
 72 74  1  0  0  0
 72 76  2  0  0  0
 72146  1  0  0  0
 73 76  1  0  0  0
 73 83  1  0  0  0
 74 75  2  0  0  0
 74 82  1  0  0  0
 75 84  1  0  0  0
 76 85  1  0  0  0
 77 79  1  0  0  0
 77147  1  0  0  0
 77148  1  0  0  0
 77149  1  0  0  0
 78 83  1  0  0  0
 78150  1  0  0  0
 78151  1  0  0  0
 78152  1  0  0  0
 79 82  1  0  0  0
 79153  1  0  0  0
 79154  1  0  0  0
 80 81  1  0  0  0
 80 83  1  0  0  0
 80155  1  0  0  0
 80156  1  0  0  0
 81157  1  0  0  0
 81158  1  0  0  0
M  ISO  4   1 100  68 101  81 101  82 100
M  END
> <chiral flag>
0

> <version>
0

> <s_m_source_file>
/data/baiqing/PycharmProjects/Reinvent-master-3.2/result/LINK_invent/BTK/process_docking_weight1_custom_product_contain_oxygen_bond_distance_aromatic_linkinvent_7_9_3/rearranged_h_0012.sdf

> <i_m_source_file_index>
64

> <r_mmod_Potential_Energy-OPLS-2005>
780.968872070312

> <r_mmod_Stretch_Energy-OPLS-2005>
226.457443237305

> <r_mmod_Bend_Energy-OPLS-2005>
282.238922119141

> <r_mmod_Torsional_Energy-OPLS-2005>
373.358337402344

> <r_mmod_Improper_Torsional_Energy-OPLS-2005>
25.9276847839355

> <r_mmod_Van_der_Waal_Energy-OPLS-2005>
135.589889526367

> <r_mmod_Electrostatic_Energy-OPLS-2005>
-255.022674560547

> <r_mmod_Solvation_Energy-OPLS-2005>
-202.64421081543

> <b_mmod_Minimization_Converged-OPLS-2005>
0

> <r_mmod_RMS_Derivative-OPLS-2005>
7.41482877731323

$$$$
64
                    3D
 Structure written by MMmdl.
153162  0  0  1  0            999 V2000
  -30.5047  -14.9500   20.4241 C   0  0  0  0  0  0
  -30.4542  -12.5904   19.4879 C   0  0  0  0  0  0
  -29.5249  -12.5279   18.2513 C   0  0  0  0  0  0
  -28.0581  -12.3099   18.6732 C   0  0  0  0  0  0
  -27.6337  -13.2397   19.8398 C   0  0  2  0  0  0
  -28.6791  -13.2472   20.9760 C   0  0  0  0  0  0
  -25.2495  -13.8203   20.5723 C   0  0  0  0  0  0
  -24.1799  -13.0436   20.9236 C   0  0  0  0  0  0
  -24.6400  -11.6919   20.8763 C   0  0  0  0  0  0
  -23.9078  -10.4293   21.0415 C   0  0  0  0  0  0
  -24.3629   -9.4208   21.9191 C   0  0  0  0  0  0
  -23.6301   -8.2246   22.0760 C   0  0  0  0  0  0
  -22.4282   -8.0287   21.3550 C   0  0  0  0  0  0
  -21.9919   -9.0261   20.4647 C   0  0  0  0  0  0
  -22.7254  -10.2136   20.3059 C   0  0  0  0  0  0
  -21.6851   -6.0744   22.5281 C   0  0  0  0  0  0
  -21.4011   -6.5647   23.8215 C   0  0  0  0  0  0
  -21.3659   -5.6795   24.9176 C   0  0  0  0  0  0
  -21.6042   -4.3057   24.7221 C   0  0  0  0  0  0
  -21.8821   -3.8152   23.4341 C   0  0  0  0  0  0
  -21.9192   -4.6972   22.3403 C   0  0  0  0  0  0
  -22.7816  -13.5214   21.1888 C   0  0  0  0  0  0
  -22.1661   -4.2159   21.0979 F   0  0  0  0  0  0
  -21.5629   -3.4539   25.7731 F   0  0  0  0  0  0
  -29.9542  -13.6710   20.3809 N   0  0  0  0  0  0
  -26.2908  -12.9414   20.3244 N   0  0  0  0  0  0
  -25.9329  -11.6552   20.5737 N   0  0  0  0  0  0
  -22.0455  -12.8197   22.0432 N   0  0  0  0  0  0
  -25.4154  -15.1941   20.4183 N   0  0  0  0  0  0
  -31.7098  -15.0671   20.1737 O   0  0  0  0  0  0
  -21.6644   -6.8888   21.4244 O   0  0  0  0  0  0
  -22.3505  -14.5523   20.6738 O   0  0  0  0  0  0
  -24.6429  -31.8432   23.1852 C   0  0  0  0  0  0
  -25.9195  -32.4697   23.8251 C   0  0  1  0  0  0
  -27.2266  -27.1392   20.1639 C   0  0  0  0  0  0
  -25.5945  -33.8499   24.2185 N   0  0  0  0  0  0
  -23.4473  -30.4592   21.5310 C   0  0  2  0  0  0
  -24.8980  -28.8756   20.1179 C   0  0  0  0  0  0
  -22.7562  -29.4546   22.4865 C   0  0  0  0  0  0
  -18.0299  -28.1403   22.8487 C   0  0  0  0  0  0
  -24.1481  -36.7246   23.2639 C   0  0  0  0  0  0
  -26.0008  -30.7205   21.3783 C   0  0  0  0  0  0
  -26.0751  -29.3275   20.7285 C   0  0  0  0  0  0
  -27.2431  -28.4782   20.7259 C   0  0  0  0  0  0
  -26.0217  -26.7753   19.5290 C   0  0  0  0  0  0
  -24.8824  -27.6123   19.5033 C   0  0  0  0  0  0
  -23.6743  -29.7786   20.1539 C   0  0  0  0  0  0
  -25.4114  -36.3030   24.0319 C   0  0  1  0  0  0
  -20.5915  -28.3723   23.1243 C   0  0  2  0  0  0
  -20.6783  -26.9425   22.5408 C   0  0  0  0  0  0
  -19.5756  -26.6387   21.5218 C   0  0  0  0  0  0
  -18.1936  -26.7945   22.1625 C   0  0  0  0  0  0
  -19.1558  -28.8878   23.2860 C   0  0  0  0  0  0
  -18.9479  -30.1477   23.8884 C   0  0  0  0  0  0
  -17.6476  -30.6603   24.0566 C   0  0  0  0  0  0
  -25.9071  -34.9410   23.5056 C   0  0  0  0  0  0
  -16.5364  -29.9101   23.6340 C   0  0  0  0  0  0
  -16.7283  -28.6515   23.0363 C   0  0  0  0  0  0
  -26.4517  -31.6560   25.0689 C   0  0  0  0  0  0
  -25.3714  -31.3779   26.1404 C   0  0  0  0  0  0
  -27.0346  -30.2948   24.6244 C   0  0  0  0  0  0
  -27.6067  -32.4302   25.7472 C   0  0  0  0  0  0
  -27.5574  -37.1766   24.8461 C   0  0  0  0  0  0
  -21.4253  -29.3051   22.3618 N   0  0  0  0  0  0
  -26.4270  -37.3751   23.9427 N   0  0  0  0  0  0
  -24.7174  -31.0290   22.0875 N   0  0  0  0  0  0
  -23.4199  -28.8094   23.3020 O   0  0  0  0  0  0
  -28.3091  -26.1916   20.1584 O   0  0  0  0  0  0
  -26.5656  -34.8912   22.4639 O   0  0  0  0  0  0
  -23.5548  -32.1290   23.7081 O   0  0  0  0  0  0
  -30.2167  -19.9487   21.2494 C   0  0  0  0  0  0
  -30.4214  -18.5046   21.2210 C   0  0  0  0  0  0
  -29.2301  -20.6892   20.4951 C   0  0  0  0  0  0
  -29.6349  -17.5943   20.4418 C   0  0  0  0  0  0
  -28.4728  -19.7748   19.6809 C   0  0  0  0  0  0
  -28.6509  -18.3232   19.6789 C   0  0  0  0  0  0
  -29.1779  -24.3849   21.7079 C   0  0  0  0  0  0
  -29.2482  -22.8360   21.9115 C   0  0  0  0  0  0
  -28.4530  -23.2997   19.7451 C   0  0  0  0  0  0
  -28.1699  -24.6994   20.5849 C   0  0  2  0  0  0
  -29.0280  -22.1732   20.6230 N   0  0  0  0  0  0
  -29.6206  -16.0571   20.5224 N   0  0  0  0  0  0
  -27.4926  -20.2895   18.8985 F   0  0  0  0  0  0
  -27.8035  -17.5923   18.9138 F   0  0  0  0  0  0
  -31.4823  -12.7748   19.1711 H   0  0  0  0  0  0
  -30.4698  -11.6344   20.0130 H   0  0  0  0  0  0
  -29.8445  -11.7308   17.5783 H   0  0  0  0  0  0
  -29.6067  -13.4568   17.6841 H   0  0  0  0  0  0
  -27.9570  -11.2684   18.9811 H   0  0  0  0  0  0
  -27.3919  -12.4393   17.8193 H   0  0  0  0  0  0
  -27.5998  -14.2436   19.4159 H   0  0  0  0  0  0
  -28.7696  -12.2619   21.4359 H   0  0  0  0  0  0
  -28.3786  -13.9310   21.7722 H   0  0  0  0  0  0
  -25.2776   -9.5686   22.4764 H   0  0  0  0  0  0
  -24.0009   -7.4635   22.7479 H   0  0  0  0  0  0
  -21.0850   -8.8781   19.8949 H   0  0  0  0  0  0
  -22.3719  -10.9676   19.6164 H   0  0  0  0  0  0
  -21.2002   -7.6155   23.9721 H   0  0  0  0  0  0
  -21.1476   -6.0524   25.9078 H   0  0  0  0  0  0
  -22.0600   -2.7612   23.2836 H   0  0  0  0  0  0
  -22.4064  -11.9846   22.4802 H   0  0  0  0  0  0
  -21.1071  -13.1221   22.2631 H   0  0  0  0  0  0
  -24.6423  -15.8384   20.5453 H   0  0  0  0  0  0
  -26.2408  -15.6428   20.0455 H   0  0  0  0  0  0
  -26.7262  -32.5307   23.0985 H   0  0  0  0  0  0
  -25.0087  -33.9610   25.0329 H   0  0  0  0  0  0
  -22.7510  -31.2850   21.3714 H   0  0  0  0  0  0
  -23.3763  -35.9556   23.3268 H   0  0  0  0  0  0
  -24.3576  -36.8900   22.2060 H   0  0  0  0  0  0
  -23.7200  -37.6421   23.6687 H   0  0  0  0  0  0
  -26.1460  -31.4697   20.5987 H   0  0  0  0  0  0
  -26.8757  -30.7816   22.0136 H   0  0  0  0  0  0
  -28.1484  -28.8277   21.2022 H   0  0  0  0  0  0
  -25.9530  -25.8051   19.0578 H   0  0  0  0  0  0
  -23.9813  -27.2599   19.0198 H   0  0  0  0  0  0
  -23.8118  -30.5472   19.3927 H   0  0  0  0  0  0
  -22.7900  -29.2176   19.8458 H   0  0  0  0  0  0
  -25.1296  -36.1846   25.0808 H   0  0  0  0  0  0
  -21.0010  -28.3302   24.1363 H   0  0  0  0  0  0
  -20.5668  -26.2335   23.3627 H   0  0  0  0  0  0
  -21.6646  -26.7424   22.1204 H   0  0  0  0  0  0
  -19.6914  -25.6295   21.1248 H   0  0  0  0  0  0
  -19.6693  -27.3202   20.6752 H   0  0  0  0  0  0
  -17.4204  -26.6694   21.4029 H   0  0  0  0  0  0
  -18.0333  -26.0098   22.9030 H   0  0  0  0  0  0
  -19.7955  -30.7300   24.2239 H   0  0  0  0  0  0
  -17.5033  -31.6283   24.5170 H   0  0  0  0  0  0
  -15.5366  -30.3002   23.7683 H   0  0  0  0  0  0
  -15.8679  -28.0833   22.7092 H   0  0  0  0  0  0
  -24.5881  -30.7133   25.7744 H   0  0  0  0  0  0
  -24.8929  -32.2983   26.4763 H   0  0  0  0  0  0
  -25.8009  -30.8993   27.0217 H   0  0  0  0  0  0
  -26.2933  -29.6699   24.1253 H   0  0  0  0  0  0
  -27.3967  -29.7219   25.4790 H   0  0  0  0  0  0
  -27.8846  -30.4177   23.9530 H   0  0  0  0  0  0
  -27.2702  -33.3675   26.1916 H   0  0  0  0  0  0
  -28.3963  -32.6721   25.0344 H   0  0  0  0  0  0
  -28.0627  -31.8486   26.5494 H   0  0  0  0  0  0
  -28.2553  -38.0100   24.7555 H   0  0  0  0  0  0
  -28.1101  -36.2631   24.6218 H   0  0  0  0  0  0
  -27.2307  -37.1329   25.8865 H   0  0  0  0  0  0
  -20.9462  -29.8764   21.6798 H   0  0  0  0  0  0
  -26.0129  -38.2803   24.1484 H   0  0  0  0  0  0
  -30.8687  -20.5032   21.9077 H   0  0  0  0  0  0
  -31.1817  -18.0922   21.8689 H   0  0  0  0  0  0
  -30.1617  -24.7410   21.3998 H   0  0  0  0  0  0
  -28.9325  -24.9059   22.6338 H   0  0  0  0  0  0
  -28.4634  -22.5203   22.6009 H   0  0  0  0  0  0
  -30.2010  -22.5569   22.3619 H   0  0  0  0  0  0
  -29.1765  -23.5020   18.9541 H   0  0  0  0  0  0
  -27.5415  -22.9670   19.2464 H   0  0  0  0  0  0
  -27.1749  -24.5987   21.0204 H   0  0  0  0  0  0
  -28.6768  -15.7059   20.5531 H   0  0  0  0  0  0
  1 25  1  0  0  0
  1 30  2  0  0  0
  1 82  1  0  0  0
  2  3  1  0  0  0
  2 25  1  0  0  0
  2 85  1  0  0  0
  2 86  1  0  0  0
  3  4  1  0  0  0
  3 87  1  0  0  0
  3 88  1  0  0  0
  4  5  1  0  0  0
  4 89  1  0  0  0
  4 90  1  0  0  0
  5  6  1  0  0  0
  5 26  1  0  0  0
  5 91  1  0  0  0
  6 25  1  0  0  0
  6 92  1  0  0  0
  6 93  1  0  0  0
  7  8  2  0  0  0
  7 26  1  0  0  0
  7 29  1  0  0  0
  8  9  1  0  0  0
  8 22  1  0  0  0
  9 10  1  0  0  0
  9 27  2  0  0  0
 10 11  2  0  0  0
 10 15  1  0  0  0
 11 12  1  0  0  0
 11 94  1  0  0  0
 12 13  2  0  0  0
 12 95  1  0  0  0
 13 14  1  0  0  0
 13 31  1  0  0  0
 14 15  2  0  0  0
 14 96  1  0  0  0
 15 97  1  0  0  0
 16 17  2  0  0  0
 16 21  1  0  0  0
 16 31  1  0  0  0
 17 18  1  0  0  0
 17 98  1  0  0  0
 18 19  2  0  0  0
 18 99  1  0  0  0
 19 20  1  0  0  0
 19 24  1  0  0  0
 20 21  2  0  0  0
 20100  1  0  0  0
 21 23  1  0  0  0
 22 28  1  0  0  0
 22 32  2  0  0  0
 26 27  1  0  0  0
 28101  1  0  0  0
 28102  1  0  0  0
 29103  1  0  0  0
 29104  1  0  0  0
 33 34  1  0  0  0
 33 66  1  0  0  0
 33 70  2  0  0  0
 34 36  1  0  0  0
 34 59  1  0  0  0
 34105  1  0  0  0
 35 44  2  0  0  0
 35 45  1  0  0  0
 35 68  1  0  0  0
 36 56  1  0  0  0
 36106  1  0  0  0
 37 39  1  0  0  0
 37 47  1  0  0  0
 37 66  1  0  0  0
 37107  1  0  0  0
 38 43  2  0  0  0
 38 46  1  0  0  0
 38 47  1  0  0  0
 39 64  1  0  0  0
 39 67  2  0  0  0
 40 52  1  0  0  0
 40 53  2  0  0  0
 40 58  1  0  0  0
 41108  1  0  0  0
 41109  1  0  0  0
 41110  1  0  0  0
 41 48  1  0  0  0
 42 43  1  0  0  0
 42 66  1  0  0  0
 42111  1  0  0  0
 42112  1  0  0  0
 43 44  1  0  0  0
 44113  1  0  0  0
 45 46  2  0  0  0
 45114  1  0  0  0
 46115  1  0  0  0
 47116  1  0  0  0
 47117  1  0  0  0
 48 56  1  0  0  0
 48 65  1  0  0  0
 48118  1  0  0  0
 49 50  1  0  0  0
 49 53  1  0  0  0
 49 64  1  0  0  0
 49119  1  0  0  0
 50 51  1  0  0  0
 50120  1  0  0  0
 50121  1  0  0  0
 51 52  1  0  0  0
 51122  1  0  0  0
 51123  1  0  0  0
 52124  1  0  0  0
 52125  1  0  0  0
 53 54  1  0  0  0
 54 55  2  0  0  0
 54126  1  0  0  0
 55 57  1  0  0  0
 55127  1  0  0  0
 56 69  2  0  0  0
 57 58  2  0  0  0
 57128  1  0  0  0
 58129  1  0  0  0
 59 60  1  0  0  0
 59 61  1  0  0  0
 59 62  1  0  0  0
 60130  1  0  0  0
 60131  1  0  0  0
 60132  1  0  0  0
 61133  1  0  0  0
 61134  1  0  0  0
 61135  1  0  0  0
 62136  1  0  0  0
 62137  1  0  0  0
 62138  1  0  0  0
 63 65  1  0  0  0
 63139  1  0  0  0
 63140  1  0  0  0
 63141  1  0  0  0
 64142  1  0  0  0
 65143  1  0  0  0
 68 80  1  0  0  0
 71 72  2  0  0  0
 71 73  1  0  0  0
 71144  1  0  0  0
 72 74  1  0  0  0
 72145  1  0  0  0
 73 75  2  0  0  0
 73 81  1  0  0  0
 74 76  2  0  0  0
 74 82  1  0  0  0
 75 76  1  0  0  0
 75 83  1  0  0  0
 76 84  1  0  0  0
 77 78  1  0  0  0
 77 80  1  0  0  0
 77146  1  0  0  0
 77147  1  0  0  0
 78 81  1  0  0  0
 78148  1  0  0  0
 78149  1  0  0  0
 79 80  1  0  0  0
 79 81  1  0  0  0
 79150  1  0  0  0
 79151  1  0  0  0
 80152  1  0  0  0
 82153  1  0  0  0
M  ISO  4   1 100  68 101  80 101  82 100
M  END
> <chiral flag>
0

> <version>
0

> <s_m_source_file>
/data/baiqing/PycharmProjects/Reinvent-master-3.2/result/LINK_invent/BTK/process_docking_weight1_custom_product_contain_oxygen_bond_distance_aromatic_linkinvent_7_9_3/rearranged_h_0012.sdf

> <i_m_source_file_index>
65

> <r_mmod_Potential_Energy-OPLS-2005>
578.805603027344

> <r_mmod_Stretch_Energy-OPLS-2005>
217.230834960938

> <r_mmod_Bend_Energy-OPLS-2005>
309.993438720703

> <r_mmod_Torsional_Energy-OPLS-2005>
297.515014648438

> <r_mmod_Improper_Torsional_Energy-OPLS-2005>
6.87327718734741

> <r_mmod_Van_der_Waal_Energy-OPLS-2005>
122.404647827148

> <r_mmod_Electrostatic_Energy-OPLS-2005>
-344.515563964844

> <r_mmod_Solvation_Energy-OPLS-2005>
-219.258255004883

> <b_mmod_Minimization_Converged-OPLS-2005>
0

> <r_mmod_RMS_Derivative-OPLS-2005>
1.06584227085114

$$$$
65
                    3D
 Structure written by MMmdl.
151159  0  0  1  0            999 V2000
  -30.6833  -14.6336   20.4809 C   0  0  0  0  0  0
  -30.4161  -12.3891   19.4627 C   0  0  0  0  0  0
  -29.4994  -12.4944   18.2266 C   0  0  0  0  0  0
  -28.0253  -12.3366   18.6430 C   0  0  0  0  0  0
  -27.6445  -13.2298   19.8547 C   0  0  2  0  0  0
  -28.6898  -13.1411   20.9889 C   0  0  0  0  0  0
  -25.2510  -13.8196   20.5693 C   0  0  0  0  0  0
  -24.1795  -13.0442   20.9195 C   0  0  0  0  0  0
  -24.6388  -11.6921   20.8748 C   0  0  0  0  0  0
  -23.9066  -10.4297   21.0409 C   0  0  0  0  0  0
  -24.3618   -9.4210   21.9185 C   0  0  0  0  0  0
  -23.6294   -8.2244   22.0755 C   0  0  0  0  0  0
  -22.4274   -8.0283   21.3547 C   0  0  0  0  0  0
  -21.9908   -9.0257   20.4651 C   0  0  0  0  0  0
  -22.7237  -10.2138   20.3059 C   0  0  0  0  0  0
  -21.6855   -6.0734   22.5279 C   0  0  0  0  0  0
  -21.4016   -6.5638   23.8212 C   0  0  0  0  0  0
  -21.3661   -5.6790   24.9174 C   0  0  0  0  0  0
  -21.6043   -4.3052   24.7227 C   0  0  0  0  0  0
  -21.8818   -3.8145   23.4346 C   0  0  0  0  0  0
  -21.9193   -4.6961   22.3403 C   0  0  0  0  0  0
  -22.7817  -13.5227   21.1858 C   0  0  0  0  0  0
  -22.1660   -4.2149   21.0980 F   0  0  0  0  0  0
  -21.5631   -3.4538   25.7739 F   0  0  0  0  0  0
  -30.0016  -13.4476   20.4070 N   0  0  0  0  0  0
  -26.2949  -12.9409   20.3314 N   0  0  0  0  0  0
  -25.9323  -11.6550   20.5771 N   0  0  0  0  0  0
  -22.0469  -12.8223   22.0423 N   0  0  0  0  0  0
  -25.4183  -15.1914   20.4111 N   0  0  0  0  0  0
  -31.8677  -14.6946   20.1440 O   0  0  0  0  0  0
  -21.6640   -6.8877   21.4240 O   0  0  0  0  0  0
  -22.3490  -14.5530   20.6708 O   0  0  0  0  0  0
  -24.6251  -31.8610   23.2038 C   0  0  0  0  0  0
  -25.9103  -32.4786   23.8365 C   0  0  1  0  0  0
  -27.2160  -27.3246   20.1255 C   0  0  0  0  0  0
  -25.5921  -33.8587   24.2288 N   0  0  0  0  0  0
  -23.4189  -30.4853   21.5458 C   0  0  2  0  0  0
  -24.8658  -28.9433   20.1096 C   0  0  0  0  0  0
  -22.7473  -29.4630   22.4936 C   0  0  0  0  0  0
  -18.0288  -28.1383   22.8489 C   0  0  0  0  0  0
  -24.1488  -36.7299   23.2638 C   0  0  0  0  0  0
  -25.9597  -30.7934   21.3758 C   0  0  0  0  0  0
  -26.0340  -29.4218   20.7182 C   0  0  0  0  0  0
  -27.2156  -28.6237   20.7169 C   0  0  0  0  0  0
  -26.0350  -26.9055   19.4758 C   0  0  0  0  0  0
  -24.8680  -27.6904   19.4774 C   0  0  0  0  0  0
  -23.6338  -29.8226   20.1600 C   0  0  0  0  0  0
  -25.4110  -36.3087   24.0332 C   0  0  1  0  0  0
  -20.5887  -28.3687   23.1284 C   0  0  2  0  0  0
  -20.6776  -26.9411   22.5409 C   0  0  0  0  0  0
  -19.5750  -26.6382   21.5213 C   0  0  0  0  0  0
  -18.1931  -26.7926   22.1628 C   0  0  0  0  0  0
  -19.1539  -28.8852   23.2883 C   0  0  0  0  0  0
  -18.9462  -30.1454   23.8898 C   0  0  0  0  0  0
  -17.6462  -30.6586   24.0563 C   0  0  0  0  0  0
  -25.9047  -34.9456   23.5109 C   0  0  0  0  0  0
  -16.5354  -29.9084   23.6328 C   0  0  0  0  0  0
  -16.7276  -28.6502   23.0350 C   0  0  0  0  0  0
  -26.4483  -31.6595   25.0736 C   0  0  0  0  0  0
  -25.3718  -31.3745   26.1467 C   0  0  0  0  0  0
  -27.0319  -30.3016   24.6194 C   0  0  0  0  0  0
  -27.6046  -32.4329   25.7502 C   0  0  0  0  0  0
  -27.5579  -37.1803   24.8462 C   0  0  0  0  0  0
  -21.4187  -29.3044   22.3679 N   0  0  0  0  0  0
  -26.4289  -37.3780   23.9409 N   0  0  0  0  0  0
  -24.6865  -31.0630   22.0987 N   0  0  0  0  0  0
  -23.4202  -28.8168   23.3010 O   0  0  0  0  0  0
  -28.3089  -26.4507   20.1668 O   0  0  0  0  0  0
  -26.5616  -34.8920   22.4676 O   0  0  0  0  0  0
  -23.5415  -32.1406   23.7368 O   0  0  0  0  0  0
  -30.5640  -19.6556   20.0146 C   0  0  0  0  0  0
  -30.0565  -20.9876   20.0435 C   0  0  0  0  0  0
  -29.8909  -18.5453   20.6023 C   0  0  0  0  0  0
  -28.8280  -21.2915   20.6779 C   0  0  0  0  0  0
  -28.1362  -20.1819   21.2479 C   0  0  0  0  0  0
  -28.6456  -18.8438   21.2187 C   0  0  0  0  0  0
  -30.6389  -17.1559   20.6227 C   0  0  0  0  0  0
  -28.0363  -25.1004   20.7189 C   0  0  0  0  0  0
  -28.8524  -23.8103   20.2619 C   0  0  0  0  0  0
  -29.9950  -15.7961   20.7204 N   0  0  0  0  0  0
  -28.2621  -22.5796   20.7979 O   0  0  0  0  0  0
  -26.9494  -20.4137   21.8626 F   0  0  0  0  0  0
  -27.7352  -17.5897   21.9877 Cl  0  0  0  0  0  0
  -31.4619  -12.4763   19.1631 H   0  0  0  0  0  0
  -30.3223  -11.4077   19.9304 H   0  0  0  0  0  0
  -29.7649  -11.7322   17.4928 H   0  0  0  0  0  0
  -29.6447  -13.4580   17.7355 H   0  0  0  0  0  0
  -27.8701  -11.2876   18.8972 H   0  0  0  0  0  0
  -27.3680  -12.5447   17.7980 H   0  0  0  0  0  0
  -27.6487  -14.2563   19.4875 H   0  0  0  0  0  0
  -28.6974  -12.1451   21.4345 H   0  0  0  0  0  0
  -28.4450  -13.8351   21.7944 H   0  0  0  0  0  0
  -25.2764   -9.5689   22.4756 H   0  0  0  0  0  0
  -24.0009   -7.4633   22.7470 H   0  0  0  0  0  0
  -21.0841   -8.8779   19.8953 H   0  0  0  0  0  0
  -22.3699  -10.9678   19.6170 H   0  0  0  0  0  0
  -21.2009   -7.6146   23.9714 H   0  0  0  0  0  0
  -21.1484   -6.0522   25.9076 H   0  0  0  0  0  0
  -22.0596   -2.7607   23.2846 H   0  0  0  0  0  0
  -22.4094  -11.9895   22.4823 H   0  0  0  0  0  0
  -21.1087  -13.1245   22.2632 H   0  0  0  0  0  0
  -24.6574  -15.8467   20.5488 H   0  0  0  0  0  0
  -26.2813  -15.6413   20.1366 H   0  0  0  0  0  0
  -26.7174  -32.5457   23.1118 H   0  0  0  0  0  0
  -25.0062  -33.9737   25.0428 H   0  0  0  0  0  0
  -22.7122  -31.3056   21.4041 H   0  0  0  0  0  0
  -23.3749  -35.9632   23.3299 H   0  0  0  0  0  0
  -24.3583  -36.8920   22.2053 H   0  0  0  0  0  0
  -23.7244  -37.6503   23.6657 H   0  0  0  0  0  0
  -26.0922  -31.5570   20.6082 H   0  0  0  0  0  0
  -26.8396  -30.8407   22.0058 H   0  0  0  0  0  0
  -28.1105  -28.9823   21.2060 H   0  0  0  0  0  0
  -26.0025  -25.9491   18.9734 H   0  0  0  0  0  0
  -23.9759  -27.3224   18.9892 H   0  0  0  0  0  0
  -23.7535  -30.6005   19.4049 H   0  0  0  0  0  0
  -22.7538  -29.2526   19.8564 H   0  0  0  0  0  0
  -25.1288  -36.1942   25.0825 H   0  0  0  0  0  0
  -20.9984  -28.3261   24.1403 H   0  0  0  0  0  0
  -20.5676  -26.2299   23.3610 H   0  0  0  0  0  0
  -21.6644  -26.7439   22.1203 H   0  0  0  0  0  0
  -19.6909  -25.6292   21.1243 H   0  0  0  0  0  0
  -19.6682  -27.3192   20.6743 H   0  0  0  0  0  0
  -17.4199  -26.6673   21.4032 H   0  0  0  0  0  0
  -18.0332  -26.0068   22.9025 H   0  0  0  0  0  0
  -19.7939  -30.7268   24.2267 H   0  0  0  0  0  0
  -17.5017  -31.6266   24.5165 H   0  0  0  0  0  0
  -15.5353  -30.2985   23.7649 H   0  0  0  0  0  0
  -15.8679  -28.0820   22.7061 H   0  0  0  0  0  0
  -24.5883  -30.7102   25.7803 H   0  0  0  0  0  0
  -24.8923  -32.2918   26.4894 H   0  0  0  0  0  0
  -25.8041  -30.8921   27.0244 H   0  0  0  0  0  0
  -26.2895  -29.6781   24.1196 H   0  0  0  0  0  0
  -27.3986  -29.7259   25.4702 H   0  0  0  0  0  0
  -27.8780  -30.4295   23.9439 H   0  0  0  0  0  0
  -27.2654  -33.3623   26.2090 H   0  0  0  0  0  0
  -28.3848  -32.6902   25.0327 H   0  0  0  0  0  0
  -28.0724  -31.8454   26.5412 H   0  0  0  0  0  0
  -28.2594  -38.0101   24.7513 H   0  0  0  0  0  0
  -28.1078  -36.2636   24.6277 H   0  0  0  0  0  0
  -27.2304  -37.1446   25.8867 H   0  0  0  0  0  0
  -20.9360  -29.8776   21.6899 H   0  0  0  0  0  0
  -26.0173  -38.2856   24.1411 H   0  0  0  0  0  0
  -31.5245  -19.4934   19.5448 H   0  0  0  0  0  0
  -30.6374  -21.7760   19.5867 H   0  0  0  0  0  0
  -31.3538  -17.2166   21.4449 H   0  0  0  0  0  0
  -31.2517  -17.1458   19.7194 H   0  0  0  0  0  0
  -28.1574  -25.1915   21.7987 H   0  0  0  0  0  0
  -26.9868  -24.8389   20.5963 H   0  0  0  0  0  0
  -29.8904  -23.8982   20.5844 H   0  0  0  0  0  0
  -28.8569  -23.7463   19.1734 H   0  0  0  0  0  0
  -29.0148  -15.7477   20.9556 H   0  0  0  0  0  0
  1 25  1  0  0  0
  1 30  2  0  0  0
  1 80  1  0  0  0
  2  3  1  0  0  0
  2 25  1  0  0  0
  2 84  1  0  0  0
  2 85  1  0  0  0
  3  4  1  0  0  0
  3 86  1  0  0  0
  3 87  1  0  0  0
  4  5  1  0  0  0
  4 88  1  0  0  0
  4 89  1  0  0  0
  5  6  1  0  0  0
  5 26  1  0  0  0
  5 90  1  0  0  0
  6 25  1  0  0  0
  6 91  1  0  0  0
  6 92  1  0  0  0
  7  8  2  0  0  0
  7 26  1  0  0  0
  7 29  1  0  0  0
  8  9  1  0  0  0
  8 22  1  0  0  0
  9 10  1  0  0  0
  9 27  2  0  0  0
 10 11  2  0  0  0
 10 15  1  0  0  0
 11 12  1  0  0  0
 11 93  1  0  0  0
 12 13  2  0  0  0
 12 94  1  0  0  0
 13 14  1  0  0  0
 13 31  1  0  0  0
 14 15  2  0  0  0
 14 95  1  0  0  0
 15 96  1  0  0  0
 16 17  2  0  0  0
 16 21  1  0  0  0
 16 31  1  0  0  0
 17 18  1  0  0  0
 17 97  1  0  0  0
 18 19  2  0  0  0
 18 98  1  0  0  0
 19 20  1  0  0  0
 19 24  1  0  0  0
 20 21  2  0  0  0
 20 99  1  0  0  0
 21 23  1  0  0  0
 22 28  1  0  0  0
 22 32  2  0  0  0
 26 27  1  0  0  0
 28100  1  0  0  0
 28101  1  0  0  0
 29102  1  0  0  0
 29103  1  0  0  0
 33 34  1  0  0  0
 33 66  1  0  0  0
 33 70  2  0  0  0
 34 36  1  0  0  0
 34 59  1  0  0  0
 34104  1  0  0  0
 35 44  2  0  0  0
 35 45  1  0  0  0
 35 68  1  0  0  0
 36 56  1  0  0  0
 36105  1  0  0  0
 37 39  1  0  0  0
 37 47  1  0  0  0
 37 66  1  0  0  0
 37106  1  0  0  0
 38 43  2  0  0  0
 38 46  1  0  0  0
 38 47  1  0  0  0
 39 64  1  0  0  0
 39 67  2  0  0  0
 40 52  1  0  0  0
 40 53  2  0  0  0
 40 58  1  0  0  0
 41107  1  0  0  0
 41108  1  0  0  0
 41109  1  0  0  0
 41 48  1  0  0  0
 42 43  1  0  0  0
 42 66  1  0  0  0
 42110  1  0  0  0
 42111  1  0  0  0
 43 44  1  0  0  0
 44112  1  0  0  0
 45 46  2  0  0  0
 45113  1  0  0  0
 46114  1  0  0  0
 47115  1  0  0  0
 47116  1  0  0  0
 48 56  1  0  0  0
 48 65  1  0  0  0
 48117  1  0  0  0
 49 50  1  0  0  0
 49 53  1  0  0  0
 49 64  1  0  0  0
 49118  1  0  0  0
 50 51  1  0  0  0
 50119  1  0  0  0
 50120  1  0  0  0
 51 52  1  0  0  0
 51121  1  0  0  0
 51122  1  0  0  0
 52123  1  0  0  0
 52124  1  0  0  0
 53 54  1  0  0  0
 54 55  2  0  0  0
 54125  1  0  0  0
 55 57  1  0  0  0
 55126  1  0  0  0
 56 69  2  0  0  0
 57 58  2  0  0  0
 57127  1  0  0  0
 58128  1  0  0  0
 59 60  1  0  0  0
 59 61  1  0  0  0
 59 62  1  0  0  0
 60129  1  0  0  0
 60130  1  0  0  0
 60131  1  0  0  0
 61132  1  0  0  0
 61133  1  0  0  0
 61134  1  0  0  0
 62135  1  0  0  0
 62136  1  0  0  0
 62137  1  0  0  0
 63 65  1  0  0  0
 63138  1  0  0  0
 63139  1  0  0  0
 63140  1  0  0  0
 64141  1  0  0  0
 65142  1  0  0  0
 68 78  1  0  0  0
 71 72  2  0  0  0
 71 73  1  0  0  0
 71143  1  0  0  0
 72 74  1  0  0  0
 72144  1  0  0  0
 73 76  2  0  0  0
 73 77  1  0  0  0
 74 75  2  0  0  0
 74 81  1  0  0  0
 75 76  1  0  0  0
 75 82  1  0  0  0
 76 83  1  0  0  0
 77 80  1  0  0  0
 77145  1  0  0  0
 77146  1  0  0  0
 78 79  1  0  0  0
 78147  1  0  0  0
 78148  1  0  0  0
 79 81  1  0  0  0
 79149  1  0  0  0
 79150  1  0  0  0
 80151  1  0  0  0
M  ISO  4   1 100  68 101  78 101  80 100
M  END
> <chiral flag>
0

> <version>
0

> <s_m_source_file>
/data/baiqing/PycharmProjects/Reinvent-master-3.2/result/LINK_invent/BTK/process_docking_weight1_custom_product_contain_oxygen_bond_distance_aromatic_linkinvent_7_9_3/rearranged_h_0012.sdf

> <i_m_source_file_index>
66

> <r_mmod_Potential_Energy-OPLS-2005>
101.507675170898

> <r_mmod_Stretch_Energy-OPLS-2005>
77.5079879760742

> <r_mmod_Bend_Energy-OPLS-2005>
157.824951171875

> <r_mmod_Torsional_Energy-OPLS-2005>
215.620468139648

> <r_mmod_Improper_Torsional_Energy-OPLS-2005>
4.85225248336792

> <r_mmod_Van_der_Waal_Energy-OPLS-2005>
143.823760986328

> <r_mmod_Electrostatic_Energy-OPLS-2005>
-346.208618164062

> <r_mmod_Solvation_Energy-OPLS-2005>
-204.285842895508

> <b_mmod_Minimization_Converged-OPLS-2005>
0

> <r_mmod_RMS_Derivative-OPLS-2005>
0.492313534021378

$$$$
66
                    3D
 Structure written by MMmdl.
157166  0  0  1  0            999 V2000
  -30.6251  -14.8603   20.4383 C   0  0  0  0  0  0
  -30.4223  -12.5397   19.4791 C   0  0  0  0  0  0
  -29.5037  -12.5111   18.2400 C   0  0  0  0  0  0
  -28.0391  -12.3054   18.6667 C   0  0  0  0  0  0
  -27.6242  -13.2385   19.8341 C   0  0  2  0  0  0
  -28.6729  -13.2749   20.9659 C   0  0  0  0  0  0
  -25.2446  -13.8190   20.5722 C   0  0  0  0  0  0
  -24.1759  -13.0425   20.9237 C   0  0  0  0  0  0
  -24.6372  -11.6909   20.8775 C   0  0  0  0  0  0
  -23.9061  -10.4285   21.0424 C   0  0  0  0  0  0
  -24.3614   -9.4197   21.9195 C   0  0  0  0  0  0
  -23.6290   -8.2233   22.0756 C   0  0  0  0  0  0
  -22.4273   -8.0276   21.3544 C   0  0  0  0  0  0
  -21.9912   -9.0249   20.4647 C   0  0  0  0  0  0
  -22.7239  -10.2128   20.3064 C   0  0  0  0  0  0
  -21.6850   -6.0734   22.5278 C   0  0  0  0  0  0
  -21.4011   -6.5637   23.8211 C   0  0  0  0  0  0
  -21.3657   -5.6792   24.9174 C   0  0  0  0  0  0
  -21.6045   -4.3054   24.7225 C   0  0  0  0  0  0
  -21.8819   -3.8145   23.4346 C   0  0  0  0  0  0
  -21.9190   -4.6963   22.3402 C   0  0  0  0  0  0
  -22.7783  -13.5205   21.1887 C   0  0  0  0  0  0
  -22.1660   -4.2149   21.0980 F   0  0  0  0  0  0
  -21.5629   -3.4539   25.7737 F   0  0  0  0  0  0
  -29.9538  -13.6478   20.3545 N   0  0  0  0  0  0
  -26.2862  -12.9405   20.3270 N   0  0  0  0  0  0
  -25.9302  -11.6545   20.5777 N   0  0  0  0  0  0
  -22.0431  -12.8194   22.0443 N   0  0  0  0  0  0
  -25.4106  -15.1912   20.4126 N   0  0  0  0  0  0
  -31.8394  -14.8489   20.2108 O   0  0  0  0  0  0
  -21.6635   -6.8875   21.4240 O   0  0  0  0  0  0
  -22.3472  -14.5510   20.6729 O   0  0  0  0  0  0
  -24.6387  -31.8489   23.1937 C   0  0  0  0  0  0
  -25.9182  -32.4720   23.8305 C   0  0  1  0  0  0
  -27.2105  -27.1862   20.1474 C   0  0  0  0  0  0
  -25.5952  -33.8525   24.2226 N   0  0  0  0  0  0
  -23.4394  -30.4708   21.5380 C   0  0  2  0  0  0
  -24.8874  -28.9072   20.1119 C   0  0  0  0  0  0
  -22.7540  -29.4569   22.4877 C   0  0  0  0  0  0
  -18.0301  -28.1390   22.8478 C   0  0  0  0  0  0
  -24.1489  -36.7259   23.2642 C   0  0  0  0  0  0
  -25.9923  -30.7382   21.3864 C   0  0  0  0  0  0
  -26.0634  -29.3541   20.7293 C   0  0  0  0  0  0
  -27.2301  -28.5088   20.7309 C   0  0  0  0  0  0
  -26.0164  -26.8354   19.4822 C   0  0  0  0  0  0
  -24.8736  -27.6591   19.4736 C   0  0  0  0  0  0
  -23.6632  -29.8049   20.1554 C   0  0  0  0  0  0
  -25.4118  -36.3046   24.0323 C   0  0  1  0  0  0
  -20.5910  -28.3709   23.1246 C   0  0  2  0  0  0
  -20.6788  -26.9418   22.5401 C   0  0  0  0  0  0
  -19.5762  -26.6381   21.5207 C   0  0  0  0  0  0
  -18.1942  -26.7931   22.1619 C   0  0  0  0  0  0
  -19.1557  -28.8865   23.2858 C   0  0  0  0  0  0
  -18.9477  -30.1465   23.8877 C   0  0  0  0  0  0
  -17.6475  -30.6590   24.0558 C   0  0  0  0  0  0
  -25.9066  -34.9421   23.5078 C   0  0  0  0  0  0
  -16.5366  -29.9084   23.6338 C   0  0  0  0  0  0
  -16.7287  -28.6504   23.0355 C   0  0  0  0  0  0
  -26.4527  -31.6569   25.0723 C   0  0  0  0  0  0
  -25.3728  -31.3735   26.1426 C   0  0  0  0  0  0
  -27.0395  -30.2977   24.6265 C   0  0  0  0  0  0
  -27.6066  -32.4331   25.7502 C   0  0  0  0  0  0
  -27.5574  -37.1785   24.8469 C   0  0  0  0  0  0
  -21.4237  -29.3050   22.3625 N   0  0  0  0  0  0
  -26.4285  -37.3754   23.9413 N   0  0  0  0  0  0
  -24.7094  -31.0393   22.0948 N   0  0  0  0  0  0
  -23.4206  -28.8104   23.2999 O   0  0  0  0  0  0
  -28.2662  -26.2224   20.1767 O   0  0  0  0  0  0
  -26.5639  -34.8909   22.4648 O   0  0  0  0  0  0
  -23.5519  -32.1339   23.7188 O   0  0  0  0  0  0
  -30.5497  -22.5299   18.6505 C   0  0  0  0  0  0
  -30.3513  -21.2150   19.1323 C   0  0  0  0  0  0
  -29.8008  -23.6313   19.1240 C   0  0  0  0  0  0
  -28.6304  -22.0849   20.5933 C   0  0  0  0  0  0
  -29.3931  -20.9132   20.1248 C   0  0  0  0  0  0
  -28.8097  -23.4703   20.1106 C   0  0  0  0  0  0
  -28.8665  -18.2697   19.5459 C   0  0  0  0  0  0
  -30.6082  -18.6866   21.1277 C   0  0  0  0  0  0
  -28.8242  -16.7125   19.9659 C   0  0  0  0  0  0
  -30.5655  -17.1565   21.5967 C   0  0  0  0  0  0
  -29.2833  -19.3565   20.6119 C   0  0  0  0  0  0
  -27.9452  -24.7679   20.5596 C   0  0  0  0  0  0
  -29.9833  -16.1011   20.6981 N   0  0  0  0  0  0
  -31.4594  -12.6657   19.1642 H   0  0  0  0  0  0
  -30.3871  -11.5883   20.0121 H   0  0  0  0  0  0
  -29.8104  -11.7169   17.5578 H   0  0  0  0  0  0
  -29.5990  -13.4468   17.6865 H   0  0  0  0  0  0
  -27.9315  -11.2642   18.9730 H   0  0  0  0  0  0
  -27.3716  -12.4421   17.8146 H   0  0  0  0  0  0
  -27.5774  -14.2330   19.3979 H   0  0  0  0  0  0
  -28.7460  -12.3099   21.4691 H   0  0  0  0  0  0
  -28.3874  -14.0038   21.7264 H   0  0  0  0  0  0
  -25.2758   -9.5672   22.4775 H   0  0  0  0  0  0
  -23.9996   -7.4623   22.7475 H   0  0  0  0  0  0
  -21.0844   -8.8771   19.8951 H   0  0  0  0  0  0
  -22.3702  -10.9671   19.6176 H   0  0  0  0  0  0
  -21.2003   -7.6146   23.9715 H   0  0  0  0  0  0
  -21.1480   -6.0522   25.9076 H   0  0  0  0  0  0
  -22.0600   -2.7609   23.2846 H   0  0  0  0  0  0
  -22.4049  -11.9856   22.4829 H   0  0  0  0  0  0
  -21.1049  -13.1221   22.2653 H   0  0  0  0  0  0
  -24.6427  -15.8437   20.5271 H   0  0  0  0  0  0
  -26.2608  -15.6322   20.0886 H   0  0  0  0  0  0
  -26.7242  -32.5344   23.1033 H   0  0  0  0  0  0
  -25.0114  -33.9652   25.0383 H   0  0  0  0  0  0
  -22.7399  -31.2955   21.3877 H   0  0  0  0  0  0
  -23.3759  -35.9583   23.3301 H   0  0  0  0  0  0
  -24.3577  -36.8885   22.2057 H   0  0  0  0  0  0
  -23.7234  -37.6452   23.6676 H   0  0  0  0  0  0
  -26.1434  -31.4952   20.6154 H   0  0  0  0  0  0
  -26.8651  -30.7867   22.0259 H   0  0  0  0  0  0
  -28.1289  -28.8451   21.2287 H   0  0  0  0  0  0
  -25.9451  -25.8903   18.9639 H   0  0  0  0  0  0
  -23.9793  -27.3173   18.9711 H   0  0  0  0  0  0
  -23.7984  -30.5816   19.4017 H   0  0  0  0  0  0
  -22.7789  -29.2461   19.8438 H   0  0  0  0  0  0
  -25.1305  -36.1880   25.0815 H   0  0  0  0  0  0
  -21.0009  -28.3294   24.1365 H   0  0  0  0  0  0
  -20.5683  -26.2319   23.3613 H   0  0  0  0  0  0
  -21.6655  -26.7425   22.1196 H   0  0  0  0  0  0
  -19.6925  -25.6286   21.1249 H   0  0  0  0  0  0
  -19.6704  -27.3182   20.6729 H   0  0  0  0  0  0
  -17.4211  -26.6673   21.4025 H   0  0  0  0  0  0
  -18.0345  -26.0075   22.9017 H   0  0  0  0  0  0
  -19.7951  -30.7286   24.2238 H   0  0  0  0  0  0
  -17.5030  -31.6268   24.5163 H   0  0  0  0  0  0
  -15.5367  -30.2981   23.7674 H   0  0  0  0  0  0
  -15.8686  -28.0820   22.7081 H   0  0  0  0  0  0
  -24.5926  -30.7059   25.7754 H   0  0  0  0  0  0
  -24.8897  -32.2907   26.4808 H   0  0  0  0  0  0
  -25.8031  -30.8947   27.0232 H   0  0  0  0  0  0
  -26.3003  -29.6696   24.1280 H   0  0  0  0  0  0
  -27.4044  -29.7274   25.4819 H   0  0  0  0  0  0
  -27.8895  -30.4240   23.9555 H   0  0  0  0  0  0
  -27.2671  -33.3659   26.2021 H   0  0  0  0  0  0
  -28.3908  -32.6841   25.0346 H   0  0  0  0  0  0
  -28.0698  -31.8489   26.5463 H   0  0  0  0  0  0
  -28.2586  -38.0088   24.7520 H   0  0  0  0  0  0
  -28.1077  -36.2618   24.6295 H   0  0  0  0  0  0
  -27.2293  -37.1430   25.8872 H   0  0  0  0  0  0
  -20.9436  -29.8775   21.6821 H   0  0  0  0  0  0
  -26.0155  -38.2821   24.1425 H   0  0  0  0  0  0
  -31.2986  -22.6985   17.8887 H   0  0  0  0  0  0
  -30.9600  -20.4206   18.7229 H   0  0  0  0  0  0
  -29.9849  -24.6144   18.7128 H   0  0  0  0  0  0
  -27.8746  -21.9177   21.3481 H   0  0  0  0  0  0
  -27.8881  -18.5417   19.1482 H   0  0  0  0  0  0
  -29.5464  -18.3558   18.6971 H   0  0  0  0  0  0
  -31.3669  -18.7662   20.3484 H   0  0  0  0  0  0
  -30.9909  -19.2856   21.9549 H   0  0  0  0  0  0
  -28.6529  -16.1357   19.0569 H   0  0  0  0  0  0
  -27.9491  -16.5540   20.5958 H   0  0  0  0  0  0
  -29.9905  -17.1103   22.5222 H   0  0  0  0  0  0
  -31.5769  -16.8637   21.8836 H   0  0  0  0  0  0
  -28.5533  -19.3360   21.4223 H   0  0  0  0  0  0
  -27.9390  -24.7527   21.6496 H   0  0  0  0  0  0
  -26.9207  -24.5235   20.2877 H   0  0  0  0  0  0
  1 25  1  0  0  0
  1 30  2  0  0  0
  1 83  1  0  0  0
  2  3  1  0  0  0
  2 25  1  0  0  0
  2 84  1  0  0  0
  2 85  1  0  0  0
  3  4  1  0  0  0
  3 86  1  0  0  0
  3 87  1  0  0  0
  4  5  1  0  0  0
  4 88  1  0  0  0
  4 89  1  0  0  0
  5  6  1  0  0  0
  5 26  1  0  0  0
  5 90  1  0  0  0
  6 25  1  0  0  0
  6 91  1  0  0  0
  6 92  1  0  0  0
  7  8  2  0  0  0
  7 26  1  0  0  0
  7 29  1  0  0  0
  8  9  1  0  0  0
  8 22  1  0  0  0
  9 10  1  0  0  0
  9 27  2  0  0  0
 10 11  2  0  0  0
 10 15  1  0  0  0
 11 12  1  0  0  0
 11 93  1  0  0  0
 12 13  2  0  0  0
 12 94  1  0  0  0
 13 14  1  0  0  0
 13 31  1  0  0  0
 14 15  2  0  0  0
 14 95  1  0  0  0
 15 96  1  0  0  0
 16 17  2  0  0  0
 16 21  1  0  0  0
 16 31  1  0  0  0
 17 18  1  0  0  0
 17 97  1  0  0  0
 18 19  2  0  0  0
 18 98  1  0  0  0
 19 20  1  0  0  0
 19 24  1  0  0  0
 20 21  2  0  0  0
 20 99  1  0  0  0
 21 23  1  0  0  0
 22 28  1  0  0  0
 22 32  2  0  0  0
 26 27  1  0  0  0
 28100  1  0  0  0
 28101  1  0  0  0
 29102  1  0  0  0
 29103  1  0  0  0
 33 34  1  0  0  0
 33 66  1  0  0  0
 33 70  2  0  0  0
 34 36  1  0  0  0
 34 59  1  0  0  0
 34104  1  0  0  0
 35 44  2  0  0  0
 35 45  1  0  0  0
 35 68  1  0  0  0
 36 56  1  0  0  0
 36105  1  0  0  0
 37 39  1  0  0  0
 37 47  1  0  0  0
 37 66  1  0  0  0
 37106  1  0  0  0
 38 43  2  0  0  0
 38 46  1  0  0  0
 38 47  1  0  0  0
 39 64  1  0  0  0
 39 67  2  0  0  0
 40 52  1  0  0  0
 40 53  2  0  0  0
 40 58  1  0  0  0
 41107  1  0  0  0
 41108  1  0  0  0
 41109  1  0  0  0
 41 48  1  0  0  0
 42 43  1  0  0  0
 42 66  1  0  0  0
 42110  1  0  0  0
 42111  1  0  0  0
 43 44  1  0  0  0
 44112  1  0  0  0
 45 46  2  0  0  0
 45113  1  0  0  0
 46114  1  0  0  0
 47115  1  0  0  0
 47116  1  0  0  0
 48 56  1  0  0  0
 48 65  1  0  0  0
 48117  1  0  0  0
 49 50  1  0  0  0
 49 53  1  0  0  0
 49 64  1  0  0  0
 49118  1  0  0  0
 50 51  1  0  0  0
 50119  1  0  0  0
 50120  1  0  0  0
 51 52  1  0  0  0
 51121  1  0  0  0
 51122  1  0  0  0
 52123  1  0  0  0
 52124  1  0  0  0
 53 54  1  0  0  0
 54 55  2  0  0  0
 54125  1  0  0  0
 55 57  1  0  0  0
 55126  1  0  0  0
 56 69  2  0  0  0
 57 58  2  0  0  0
 57127  1  0  0  0
 58128  1  0  0  0
 59 60  1  0  0  0
 59 61  1  0  0  0
 59 62  1  0  0  0
 60129  1  0  0  0
 60130  1  0  0  0
 60131  1  0  0  0
 61132  1  0  0  0
 61133  1  0  0  0
 61134  1  0  0  0
 62135  1  0  0  0
 62136  1  0  0  0
 62137  1  0  0  0
 63 65  1  0  0  0
 63138  1  0  0  0
 63139  1  0  0  0
 63140  1  0  0  0
 64141  1  0  0  0
 65142  1  0  0  0
 68 82  1  0  0  0
 71 72  2  0  0  0
 71 73  1  0  0  0
 71143  1  0  0  0
 72 75  1  0  0  0
 72144  1  0  0  0
 73 76  2  0  0  0
 73145  1  0  0  0
 74 75  2  0  0  0
 74 76  1  0  0  0
 74146  1  0  0  0
 75 81  1  0  0  0
 76 82  1  0  0  0
 77 79  1  0  0  0
 77 81  1  0  0  0
 77147  1  0  0  0
 77148  1  0  0  0
 78 80  1  0  0  0
 78 81  1  0  0  0
 78149  1  0  0  0
 78150  1  0  0  0
 79 83  1  0  0  0
 79151  1  0  0  0
 79152  1  0  0  0
 80 83  1  0  0  0
 80153  1  0  0  0
 80154  1  0  0  0
 81155  1  0  0  0
 82156  1  0  0  0
 82157  1  0  0  0
M  ISO  4   1 100  68 101  82 101  83 100
M  END
> <chiral flag>
0

> <version>
0

> <s_m_source_file>
/data/baiqing/PycharmProjects/Reinvent-master-3.2/result/LINK_invent/BTK/process_docking_weight1_custom_product_contain_oxygen_bond_distance_aromatic_linkinvent_7_9_3/rearranged_h_0012.sdf

> <i_m_source_file_index>
67

> <r_mmod_Potential_Energy-OPLS-2005>
554.944641113281

> <r_mmod_Stretch_Energy-OPLS-2005>
177.343124389648

> <r_mmod_Bend_Energy-OPLS-2005>
217.416442871094

> <r_mmod_Torsional_Energy-OPLS-2005>
343.445617675781

> <r_mmod_Improper_Torsional_Energy-OPLS-2005>
2.19480967521667

> <r_mmod_Van_der_Waal_Energy-OPLS-2005>
132.541778564453

> <r_mmod_Electrostatic_Energy-OPLS-2005>
-267.993469238281

> <r_mmod_Solvation_Energy-OPLS-2005>
-195.901062011719

> <b_mmod_Minimization_Converged-OPLS-2005>
0

> <r_mmod_RMS_Derivative-OPLS-2005>
0.53320986032486

$$$$
67
                    3D
 Structure written by MMmdl.
156165  0  0  1  0            999 V2000
  -30.5536  -14.9459   20.5158 C   0  0  0  0  0  0
  -30.4349  -12.5960   19.5279 C   0  0  0  0  0  0
  -29.5378  -12.5716   18.2682 C   0  0  0  0  0  0
  -28.0627  -12.3528   18.6577 C   0  0  0  0  0  0
  -27.6328  -13.2539   19.8443 C   0  0  2  0  0  0
  -28.6595  -13.2393   20.9928 C   0  0  0  0  0  0
  -25.2461  -13.8212   20.5695 C   0  0  0  0  0  0
  -24.1781  -13.0434   20.9207 C   0  0  0  0  0  0
  -24.6398  -11.6918   20.8706 C   0  0  0  0  0  0
  -23.9085  -10.4285   21.0386 C   0  0  0  0  0  0
  -24.3629   -9.4207   21.9176 C   0  0  0  0  0  0
  -23.6302   -8.2243   22.0745 C   0  0  0  0  0  0
  -22.4286   -8.0276   21.3533 C   0  0  0  0  0  0
  -21.9914   -9.0257   20.4646 C   0  0  0  0  0  0
  -22.7249  -10.2132   20.3051 C   0  0  0  0  0  0
  -21.6868   -6.0719   22.5269 C   0  0  0  0  0  0
  -21.4025   -6.5628   23.8198 C   0  0  0  0  0  0
  -21.3671   -5.6786   24.9162 C   0  0  0  0  0  0
  -21.6052   -4.3050   24.7215 C   0  0  0  0  0  0
  -21.8818   -3.8134   23.4339 C   0  0  0  0  0  0
  -21.9201   -4.6947   22.3394 C   0  0  0  0  0  0
  -22.7805  -13.5207   21.1906 C   0  0  0  0  0  0
  -22.1670   -4.2129   21.0971 F   0  0  0  0  0  0
  -21.5629   -3.4539   25.7730 F   0  0  0  0  0  0
  -29.9518  -13.6793   20.4386 N   0  0  0  0  0  0
  -26.2881  -12.9456   20.3177 N   0  0  0  0  0  0
  -25.9329  -11.6573   20.5641 N   0  0  0  0  0  0
  -22.0462  -12.8186   22.0461 N   0  0  0  0  0  0
  -25.4144  -15.1948   20.4199 N   0  0  0  0  0  0
  -31.6866  -15.0477   20.0306 O   0  0  0  0  0  0
  -21.6662   -6.8864   21.4228 O   0  0  0  0  0  0
  -22.3490  -14.5526   20.6778 O   0  0  0  0  0  0
  -24.6455  -31.8409   23.1850 C   0  0  0  0  0  0
  -25.9223  -32.4667   23.8250 C   0  0  1  0  0  0
  -27.2244  -27.1234   20.1548 C   0  0  0  0  0  0
  -25.5970  -33.8475   24.2179 N   0  0  0  0  0  0
  -23.4505  -30.4590   21.5278 C   0  0  2  0  0  0
  -24.9025  -28.8819   20.1067 C   0  0  0  0  0  0
  -22.7579  -29.4532   22.4815 C   0  0  0  0  0  0
  -18.0312  -28.1394   22.8460 C   0  0  0  0  0  0
  -24.1500  -36.7243   23.2643 C   0  0  0  0  0  0
  -26.0066  -30.7080   21.3884 C   0  0  0  0  0  0
  -26.0772  -29.3185   20.7311 C   0  0  0  0  0  0
  -27.2357  -28.4541   20.7414 C   0  0  0  0  0  0
  -26.0290  -26.7953   19.4776 C   0  0  0  0  0  0
  -24.8923  -27.6345   19.4628 C   0  0  0  0  0  0
  -23.6795  -29.7852   20.1475 C   0  0  0  0  0  0
  -25.4127  -36.3008   24.0316 C   0  0  1  0  0  0
  -20.5926  -28.3729   23.1216 C   0  0  2  0  0  0
  -20.6793  -26.9426   22.5395 C   0  0  0  0  0  0
  -19.5771  -26.6373   21.5203 C   0  0  0  0  0  0
  -18.1954  -26.7925   22.1616 C   0  0  0  0  0  0
  -19.1572  -28.8878   23.2829 C   0  0  0  0  0  0
  -18.9485  -30.1469   23.8862 C   0  0  0  0  0  0
  -17.6484  -30.6587   24.0558 C   0  0  0  0  0  0
  -25.9077  -34.9390   23.5058 C   0  0  0  0  0  0
  -16.5373  -29.9077   23.6337 C   0  0  0  0  0  0
  -16.7295  -28.6502   23.0343 C   0  0  0  0  0  0
  -26.4541  -31.6528   25.0694 C   0  0  0  0  0  0
  -25.3736  -31.3710   26.1391 C   0  0  0  0  0  0
  -27.0415  -30.2922   24.6287 C   0  0  0  0  0  0
  -27.6073  -32.4293   25.7476 C   0  0  0  0  0  0
  -27.5570  -37.1781   24.8466 C   0  0  0  0  0  0
  -21.4271  -29.3054   22.3583 N   0  0  0  0  0  0
  -26.4287  -37.3725   23.9403 N   0  0  0  0  0  0
  -24.7203  -31.0242   22.0894 N   0  0  0  0  0  0
  -23.4211  -28.8087   23.2983 O   0  0  0  0  0  0
  -28.2808  -26.1415   20.2520 O   0  0  0  0  0  0
  -26.5653  -34.8898   22.4627 O   0  0  0  0  0  0
  -23.5569  -32.1301   23.7053 O   0  0  0  0  0  0
  -29.2767  -20.0064   21.5800 C   0  0  0  0  0  0
  -29.5292  -18.5924   21.8173 C   0  0  0  0  0  0
  -29.3689  -19.5899   19.2810 C   0  0  0  0  0  0
  -29.1683  -20.6126   20.2894 C   0  0  0  0  0  0
  -29.7351  -17.5634   20.8137 C   0  0  0  0  0  0
  -29.6397  -18.1674   19.5131 C   0  0  0  0  0  0
  -28.5159  -24.1072   18.6415 C   0  0  0  0  0  0
  -28.5753  -22.5354   18.6552 C   0  0  0  0  0  0
  -28.7748  -23.3410   20.8586 C   0  0  0  0  0  0
  -28.0876  -24.6014   20.0370 C   0  0  1  0  0  0
  -29.8651  -15.8102   22.6262 C   0  0  0  0  0  0
  -28.8755  -22.0607   20.0126 N   0  0  0  0  0  0
  -29.9349  -16.0587   21.1726 N   0  0  0  0  0  0
  -29.7806  -17.3612   18.4328 F   0  0  0  0  0  0
  -31.4797  -12.7325   19.2470 H   0  0  0  0  0  0
  -30.3956  -11.6300   20.0346 H   0  0  0  0  0  0
  -29.8677  -11.7878   17.5854 H   0  0  0  0  0  0
  -29.6438  -13.5140   17.7276 H   0  0  0  0  0  0
  -27.9482  -11.3034   18.9298 H   0  0  0  0  0  0
  -27.4150  -12.5201   17.7961 H   0  0  0  0  0  0
  -27.6099  -14.2719   19.4548 H   0  0  0  0  0  0
  -28.7346  -12.2432   21.4322 H   0  0  0  0  0  0
  -28.3098  -13.8916   21.7916 H   0  0  0  0  0  0
  -25.2764   -9.5696   22.4769 H   0  0  0  0  0  0
  -24.0013   -7.4630   22.7456 H   0  0  0  0  0  0
  -21.0840   -8.8784   19.8954 H   0  0  0  0  0  0
  -22.3698  -10.9678   19.6169 H   0  0  0  0  0  0
  -21.2024   -7.6137   23.9692 H   0  0  0  0  0  0
  -21.1505   -6.0520   25.9066 H   0  0  0  0  0  0
  -22.0593   -2.7592   23.2851 H   0  0  0  0  0  0
  -22.4092  -11.9864   22.4876 H   0  0  0  0  0  0
  -21.1066  -13.1188   22.2632 H   0  0  0  0  0  0
  -24.6532  -15.8506   20.5568 H   0  0  0  0  0  0
  -26.2734  -15.6406   20.1241 H   0  0  0  0  0  0
  -26.7284  -32.5276   23.0970 H   0  0  0  0  0  0
  -25.0143  -33.9584   25.0344 H   0  0  0  0  0  0
  -22.7553  -31.2864   21.3696 H   0  0  0  0  0  0
  -23.3762  -35.9575   23.3292 H   0  0  0  0  0  0
  -24.3588  -36.8883   22.2059 H   0  0  0  0  0  0
  -23.7256  -37.6440   23.6685 H   0  0  0  0  0  0
  -26.1691  -31.4595   20.6145 H   0  0  0  0  0  0
  -26.8748  -30.7567   22.0334 H   0  0  0  0  0  0
  -28.1262  -28.7799   21.2607 H   0  0  0  0  0  0
  -25.9399  -25.8484   18.9661 H   0  0  0  0  0  0
  -23.9989  -27.2987   18.9537 H   0  0  0  0  0  0
  -23.8199  -30.5591   19.3918 H   0  0  0  0  0  0
  -22.7962  -29.2257   19.8345 H   0  0  0  0  0  0
  -25.1315  -36.1837   25.0807 H   0  0  0  0  0  0
  -21.0021  -28.3323   24.1335 H   0  0  0  0  0  0
  -20.5675  -26.2348   23.3617 H   0  0  0  0  0  0
  -21.6661  -26.7415   22.1207 H   0  0  0  0  0  0
  -19.6935  -25.6275   21.1254 H   0  0  0  0  0  0
  -19.6711  -27.3167   20.6718 H   0  0  0  0  0  0
  -17.4215  -26.6660   21.4022 H   0  0  0  0  0  0
  -18.0367  -26.0075   22.9027 H   0  0  0  0  0  0
  -19.7962  -30.7295   24.2211 H   0  0  0  0  0  0
  -17.5034  -31.6263   24.5171 H   0  0  0  0  0  0
  -15.5371  -30.2970   23.7668 H   0  0  0  0  0  0
  -15.8697  -28.0811   22.7058 H   0  0  0  0  0  0
  -24.5941  -30.7022   25.7711 H   0  0  0  0  0  0
  -24.8902  -32.2890   26.4750 H   0  0  0  0  0  0
  -25.8039  -30.8934   27.0205 H   0  0  0  0  0  0
  -26.3039  -29.6627   24.1297 H   0  0  0  0  0  0
  -27.4029  -29.7226   25.4857 H   0  0  0  0  0  0
  -27.8946  -30.4141   23.9611 H   0  0  0  0  0  0
  -27.2675  -33.3626   26.1973 H   0  0  0  0  0  0
  -28.3928  -32.6788   25.0329 H   0  0  0  0  0  0
  -28.0694  -31.8467   26.5455 H   0  0  0  0  0  0
  -28.2575  -38.0089   24.7503 H   0  0  0  0  0  0
  -28.1080  -36.2614   24.6307 H   0  0  0  0  0  0
  -27.2289  -37.1439   25.8871 H   0  0  0  0  0  0
  -20.9479  -29.8779   21.6773 H   0  0  0  0  0  0
  -26.0151  -38.2796   24.1392 H   0  0  0  0  0  0
  -29.1417  -20.6413   22.4453 H   0  0  0  0  0  0
  -29.5502  -18.3178   22.8600 H   0  0  0  0  0  0
  -29.3103  -19.8931   18.2471 H   0  0  0  0  0  0
  -27.8609  -24.4791   17.8524 H   0  0  0  0  0  0
  -29.5128  -24.4943   18.4255 H   0  0  0  0  0  0
  -29.3211  -22.1869   17.9390 H   0  0  0  0  0  0
  -27.6121  -22.1251   18.3476 H   0  0  0  0  0  0
  -28.2222  -23.1483   21.7797 H   0  0  0  0  0  0
  -29.7854  -23.6165   21.1615 H   0  0  0  0  0  0
  -27.0211  -24.4081   20.1371 H   0  0  0  0  0  0
  -30.6258  -16.3950   23.1472 H   0  0  0  0  0  0
  -30.0395  -14.7761   22.9321 H   0  0  0  0  0  0
  -28.8858  -16.0906   23.0165 H   0  0  0  0  0  0
  1 25  1  0  0  0
  1 30  2  0  0  0
  1 83  1  0  0  0
  2  3  1  0  0  0
  2 25  1  0  0  0
  2 85  1  0  0  0
  2 86  1  0  0  0
  3  4  1  0  0  0
  3 87  1  0  0  0
  3 88  1  0  0  0
  4  5  1  0  0  0
  4 89  1  0  0  0
  4 90  1  0  0  0
  5  6  1  0  0  0
  5 26  1  0  0  0
  5 91  1  0  0  0
  6 25  1  0  0  0
  6 92  1  0  0  0
  6 93  1  0  0  0
  7  8  2  0  0  0
  7 26  1  0  0  0
  7 29  1  0  0  0
  8  9  1  0  0  0
  8 22  1  0  0  0
  9 10  1  0  0  0
  9 27  2  0  0  0
 10 11  2  0  0  0
 10 15  1  0  0  0
 11 12  1  0  0  0
 11 94  1  0  0  0
 12 13  2  0  0  0
 12 95  1  0  0  0
 13 14  1  0  0  0
 13 31  1  0  0  0
 14 15  2  0  0  0
 14 96  1  0  0  0
 15 97  1  0  0  0
 16 17  2  0  0  0
 16 21  1  0  0  0
 16 31  1  0  0  0
 17 18  1  0  0  0
 17 98  1  0  0  0
 18 19  2  0  0  0
 18 99  1  0  0  0
 19 20  1  0  0  0
 19 24  1  0  0  0
 20 21  2  0  0  0
 20100  1  0  0  0
 21 23  1  0  0  0
 22 28  1  0  0  0
 22 32  2  0  0  0
 26 27  1  0  0  0
 28101  1  0  0  0
 28102  1  0  0  0
 29103  1  0  0  0
 29104  1  0  0  0
 33 34  1  0  0  0
 33 66  1  0  0  0
 33 70  2  0  0  0
 34 36  1  0  0  0
 34 59  1  0  0  0
 34105  1  0  0  0
 35 44  2  0  0  0
 35 45  1  0  0  0
 35 68  1  0  0  0
 36 56  1  0  0  0
 36106  1  0  0  0
 37 39  1  0  0  0
 37 47  1  0  0  0
 37 66  1  0  0  0
 37107  1  0  0  0
 38 43  2  0  0  0
 38 46  1  0  0  0
 38 47  1  0  0  0
 39 64  1  0  0  0
 39 67  2  0  0  0
 40 52  1  0  0  0
 40 53  2  0  0  0
 40 58  1  0  0  0
 41108  1  0  0  0
 41109  1  0  0  0
 41110  1  0  0  0
 41 48  1  0  0  0
 42 43  1  0  0  0
 42 66  1  0  0  0
 42111  1  0  0  0
 42112  1  0  0  0
 43 44  1  0  0  0
 44113  1  0  0  0
 45 46  2  0  0  0
 45114  1  0  0  0
 46115  1  0  0  0
 47116  1  0  0  0
 47117  1  0  0  0
 48 56  1  0  0  0
 48 65  1  0  0  0
 48118  1  0  0  0
 49 50  1  0  0  0
 49 53  1  0  0  0
 49 64  1  0  0  0
 49119  1  0  0  0
 50 51  1  0  0  0
 50120  1  0  0  0
 50121  1  0  0  0
 51 52  1  0  0  0
 51122  1  0  0  0
 51123  1  0  0  0
 52124  1  0  0  0
 52125  1  0  0  0
 53 54  1  0  0  0
 54 55  2  0  0  0
 54126  1  0  0  0
 55 57  1  0  0  0
 55127  1  0  0  0
 56 69  2  0  0  0
 57 58  2  0  0  0
 57128  1  0  0  0
 58129  1  0  0  0
 59 60  1  0  0  0
 59 61  1  0  0  0
 59 62  1  0  0  0
 60130  1  0  0  0
 60131  1  0  0  0
 60132  1  0  0  0
 61133  1  0  0  0
 61134  1  0  0  0
 61135  1  0  0  0
 62136  1  0  0  0
 62137  1  0  0  0
 62138  1  0  0  0
 63 65  1  0  0  0
 63139  1  0  0  0
 63140  1  0  0  0
 63141  1  0  0  0
 64142  1  0  0  0
 65143  1  0  0  0
 68 80  1  0  0  0
 71 72  2  0  0  0
 71 74  1  0  0  0
 71144  1  0  0  0
 72 75  1  0  0  0
 72145  1  0  0  0
 73 74  2  0  0  0
 73 76  1  0  0  0
 73146  1  0  0  0
 74 82  1  0  0  0
 75 76  2  0  0  0
 75 83  1  0  0  0
 76 84  1  0  0  0
 77 78  1  0  0  0
 77 80  1  0  0  0
 77147  1  0  0  0
 77148  1  0  0  0
 78 82  1  0  0  0
 78149  1  0  0  0
 78150  1  0  0  0
 79 80  1  0  0  0
 79 82  1  0  0  0
 79151  1  0  0  0
 79152  1  0  0  0
 80153  1  0  0  0
 81 83  1  0  0  0
 81154  1  0  0  0
 81155  1  0  0  0
 81156  1  0  0  0
M  ISO  4   1 100  68 101  80 101  83 100
M  END
> <chiral flag>
0

> <version>
0

> <s_m_source_file>
/data/baiqing/PycharmProjects/Reinvent-master-3.2/result/LINK_invent/BTK/process_docking_weight1_custom_product_contain_oxygen_bond_distance_aromatic_linkinvent_7_9_3/rearranged_h_0012.sdf

> <i_m_source_file_index>
68

> <r_mmod_Potential_Energy-OPLS-2005>
681.884826660156

> <r_mmod_Stretch_Energy-OPLS-2005>
243.969375610352

> <r_mmod_Bend_Energy-OPLS-2005>
322.621246337891

> <r_mmod_Torsional_Energy-OPLS-2005>
312.763610839844

> <r_mmod_Improper_Torsional_Energy-OPLS-2005>
3.21090960502625

> <r_mmod_Van_der_Waal_Energy-OPLS-2005>
141.194396972656

> <r_mmod_Electrostatic_Energy-OPLS-2005>
-321.284698486328

> <r_mmod_Solvation_Energy-OPLS-2005>
-214.521453857422

> <b_mmod_Minimization_Converged-OPLS-2005>
0

> <r_mmod_RMS_Derivative-OPLS-2005>
1.86074411869049

$$$$
68
                    3D
 Structure written by MMmdl.
160169  0  0  1  0            999 V2000
  -30.5335  -15.0567   20.3808 C   0  0  0  0  0  0
  -30.4455  -12.6574   19.5124 C   0  0  0  0  0  0
  -29.5323  -12.5302   18.2693 C   0  0  0  0  0  0
  -28.0664  -12.3023   18.6840 C   0  0  0  0  0  0
  -27.6182  -13.2519   19.8239 C   0  0  2  0  0  0
  -28.6595  -13.3630   20.9534 C   0  0  0  0  0  0
  -25.2453  -13.8197   20.5711 C   0  0  0  0  0  0
  -24.1772  -13.0423   20.9245 C   0  0  0  0  0  0
  -24.6388  -11.6909   20.8756 C   0  0  0  0  0  0
  -23.9080  -10.4279   21.0407 C   0  0  0  0  0  0
  -24.3612   -9.4190   21.9195 C   0  0  0  0  0  0
  -23.6271   -8.2228   22.0748 C   0  0  0  0  0  0
  -22.4246   -8.0283   21.3541 C   0  0  0  0  0  0
  -21.9908   -9.0263   20.4637 C   0  0  0  0  0  0
  -22.7245  -10.2139   20.3056 C   0  0  0  0  0  0
  -21.6842   -6.0724   22.5266 C   0  0  0  0  0  0
  -21.3997   -6.5621   23.8199 C   0  0  0  0  0  0
  -21.3668   -5.6779   24.9167 C   0  0  0  0  0  0
  -21.6054   -4.3048   24.7213 C   0  0  0  0  0  0
  -21.8814   -3.8134   23.4335 C   0  0  0  0  0  0
  -21.9190   -4.6956   22.3386 C   0  0  0  0  0  0
  -22.7790  -13.5200   21.1905 C   0  0  0  0  0  0
  -22.1656   -4.2147   21.0967 F   0  0  0  0  0  0
  -21.5661   -3.4530   25.7723 F   0  0  0  0  0  0
  -29.9326  -13.7855   20.3498 N   0  0  0  0  0  0
  -26.2855  -12.9424   20.3236 N   0  0  0  0  0  0
  -25.9320  -11.6560   20.5737 N   0  0  0  0  0  0
  -22.0423  -12.8194   22.0456 N   0  0  0  0  0  0
  -25.4162  -15.1919   20.4120 N   0  0  0  0  0  0
  -31.7647  -15.0564   20.2727 O   0  0  0  0  0  0
  -21.6617   -6.8876   21.4225 O   0  0  0  0  0  0
  -22.3487  -14.5514   20.6762 O   0  0  0  0  0  0
  -24.6519  -31.8362   23.1814 C   0  0  0  0  0  0
  -25.9268  -32.4628   23.8232 C   0  0  1  0  0  0
  -27.2108  -27.0543   20.1669 C   0  0  0  0  0  0
  -25.5992  -33.8445   24.2126 N   0  0  0  0  0  0
  -23.4590  -30.4558   21.5304 C   0  0  2  0  0  0
  -24.9083  -28.8685   20.1095 C   0  0  0  0  0  0
  -22.7611  -29.4517   22.4832 C   0  0  0  0  0  0
  -18.0312  -28.1413   22.8507 C   0  0  0  0  0  0
  -24.1479  -36.7230   23.2645 C   0  0  0  0  0  0
  -26.0180  -30.6832   21.3941 C   0  0  0  0  0  0
  -26.0871  -29.2873   20.7381 C   0  0  0  0  0  0
  -27.2372  -28.3968   20.7493 C   0  0  0  0  0  0
  -26.0079  -26.7631   19.4847 C   0  0  0  0  0  0
  -24.8865  -27.6248   19.4639 C   0  0  0  0  0  0
  -23.6886  -29.7817   20.1517 C   0  0  0  0  0  0
  -25.4116  -36.2987   24.0282 C   0  0  1  0  0  0
  -20.5934  -28.3738   23.1234 C   0  0  2  0  0  0
  -20.6806  -26.9432   22.5439 C   0  0  0  0  0  0
  -19.5777  -26.6390   21.5254 C   0  0  0  0  0  0
  -18.1935  -26.7963   22.1629 C   0  0  0  0  0  0
  -19.1580  -28.8894   23.2860 C   0  0  0  0  0  0
  -18.9495  -30.1486   23.8878 C   0  0  0  0  0  0
  -17.6496  -30.6616   24.0557 C   0  0  0  0  0  0
  -25.9079  -34.9370   23.5007 C   0  0  0  0  0  0
  -16.5373  -29.9103   23.6365 C   0  0  0  0  0  0
  -16.7304  -28.6531   23.0374 C   0  0  0  0  0  0
  -26.4550  -31.6545   25.0728 C   0  0  0  0  0  0
  -25.3692  -31.3752   26.1394 C   0  0  0  0  0  0
  -27.0451  -30.2946   24.6360 C   0  0  0  0  0  0
  -27.6067  -32.4330   25.7516 C   0  0  0  0  0  0
  -27.5556  -37.1751   24.8456 C   0  0  0  0  0  0
  -21.4286  -29.3042   22.3583 N   0  0  0  0  0  0
  -26.4268  -37.3720   23.9405 N   0  0  0  0  0  0
  -24.7300  -31.0136   22.0904 N   0  0  0  0  0  0
  -23.4216  -28.8077   23.3021 O   0  0  0  0  0  0
  -28.2294  -26.0111   20.2647 O   0  0  0  0  0  0
  -26.5680  -34.8888   22.4594 O   0  0  0  0  0  0
  -23.5623  -32.1295   23.6980 O   0  0  0  0  0  0
  -28.3626  -17.7117   18.4833 C   0  0  0  0  0  0
  -28.9579  -16.5263   18.9676 C   0  0  0  0  0  0
  -28.5285  -18.9709   19.1011 C   0  0  0  0  0  0
  -29.9395  -17.8512   20.7284 C   0  0  0  0  0  0
  -29.7712  -16.4807   20.1208 C   0  0  0  0  0  0
  -29.3071  -19.1558   20.2607 C   0  0  0  0  0  0
  -28.8446  -23.1394   20.4748 C   0  0  0  0  0  0
  -29.9523  -21.2863   24.4806 C   0  0  0  0  0  0
  -28.6727  -20.4402   24.5115 C   0  0  0  0  0  0
  -30.0731  -21.7352   23.0279 C   0  0  0  0  0  0
  -28.4561  -19.9377   23.0722 C   0  0  0  0  0  0
  -29.6318  -20.4899   22.2434 C   0  0  0  0  0  0
  -27.9119  -24.4705   20.0296 C   0  0  0  0  0  0
  -28.6435  -21.7964   20.2837 N   0  0  0  0  0  0
  -29.3457  -20.5804   20.7904 N   0  0  0  0  0  0
  -31.4743  -12.8272   19.1921 H   0  0  0  0  0  0
  -30.4618  -11.7284   20.0860 H   0  0  0  0  0  0
  -29.8757  -11.7141   17.6329 H   0  0  0  0  0  0
  -29.6072  -13.4377   17.6686 H   0  0  0  0  0  0
  -27.9768  -11.2683   19.0198 H   0  0  0  0  0  0
  -27.4068  -12.4065   17.8209 H   0  0  0  0  0  0
  -27.5395  -14.2305   19.3607 H   0  0  0  0  0  0
  -28.7711  -12.4153   21.4832 H   0  0  0  0  0  0
  -28.3386  -14.1010   21.6916 H   0  0  0  0  0  0
  -25.2762   -9.5668   22.4775 H   0  0  0  0  0  0
  -23.9979   -7.4614   22.7457 H   0  0  0  0  0  0
  -21.0857   -8.8796   19.8920 H   0  0  0  0  0  0
  -22.3719  -10.9691   19.6165 H   0  0  0  0  0  0
  -21.1950   -7.6121   23.9709 H   0  0  0  0  0  0
  -21.1522   -6.0505   25.9086 H   0  0  0  0  0  0
  -22.0587   -2.7596   23.2828 H   0  0  0  0  0  0
  -22.4000  -11.9836   22.4839 H   0  0  0  0  0  0
  -21.1037  -13.1253   22.2638 H   0  0  0  0  0  0
  -24.6498  -15.8504   20.5067 H   0  0  0  0  0  0
  -26.2787  -15.6313   20.1133 H   0  0  0  0  0  0
  -26.7318  -32.5186   23.0938 H   0  0  0  0  0  0
  -25.0076  -33.9533   25.0235 H   0  0  0  0  0  0
  -22.7658  -31.2843   21.3703 H   0  0  0  0  0  0
  -23.3741  -35.9559   23.3289 H   0  0  0  0  0  0
  -24.3535  -36.8933   22.2068 H   0  0  0  0  0  0
  -23.7264  -37.6416   23.6723 H   0  0  0  0  0  0
  -26.1794  -31.4279   20.6135 H   0  0  0  0  0  0
  -26.8862  -30.7365   22.0398 H   0  0  0  0  0  0
  -28.1315  -28.7074   21.2722 H   0  0  0  0  0  0
  -25.8978  -25.8151   18.9802 H   0  0  0  0  0  0
  -23.9873  -27.3039   18.9572 H   0  0  0  0  0  0
  -23.8305  -30.5530   19.3933 H   0  0  0  0  0  0
  -22.7987  -29.2309   19.8420 H   0  0  0  0  0  0
  -25.1313  -36.1775   25.0772 H   0  0  0  0  0  0
  -21.0012  -28.3366   24.1370 H   0  0  0  0  0  0
  -20.5742  -26.2347   23.3668 H   0  0  0  0  0  0
  -21.6657  -26.7456   22.1216 H   0  0  0  0  0  0
  -19.6919  -25.6296   21.1307 H   0  0  0  0  0  0
  -19.6726  -27.3178   20.6763 H   0  0  0  0  0  0
  -17.4239  -26.6776   21.3985 H   0  0  0  0  0  0
  -18.0252  -26.0085   22.8991 H   0  0  0  0  0  0
  -19.7959  -30.7322   24.2230 H   0  0  0  0  0  0
  -17.5040  -31.6302   24.5155 H   0  0  0  0  0  0
  -15.5362  -30.2990   23.7722 H   0  0  0  0  0  0
  -15.8703  -28.0843   22.7090 H   0  0  0  0  0  0
  -24.6072  -30.6819   25.7808 H   0  0  0  0  0  0
  -24.8602  -32.2880   26.4488 H   0  0  0  0  0  0
  -25.8005  -30.9311   27.0377 H   0  0  0  0  0  0
  -26.3117  -29.6614   24.1343 H   0  0  0  0  0  0
  -27.4054  -29.7290   25.4960 H   0  0  0  0  0  0
  -27.9007  -30.4197   23.9718 H   0  0  0  0  0  0
  -27.2726  -33.3752   26.1855 H   0  0  0  0  0  0
  -28.4014  -32.6673   25.0427 H   0  0  0  0  0  0
  -28.0538  -31.8587   26.5629 H   0  0  0  0  0  0
  -28.2546  -38.0079   24.7537 H   0  0  0  0  0  0
  -28.1106  -36.2606   24.6265 H   0  0  0  0  0  0
  -27.2264  -37.1380   25.8864 H   0  0  0  0  0  0
  -20.9505  -29.8741   21.6742 H   0  0  0  0  0  0
  -26.0112  -38.2770   24.1486 H   0  0  0  0  0  0
  -27.7690  -17.6608   17.5820 H   0  0  0  0  0  0
  -28.8383  -15.6327   18.3762 H   0  0  0  0  0  0
  -28.0405  -19.8210   18.6483 H   0  0  0  0  0  0
  -30.6031  -17.8840   21.5805 H   0  0  0  0  0  0
  -29.7534  -23.4308   20.9973 H   0  0  0  0  0  0
  -30.8101  -20.6704   24.7570 H   0  0  0  0  0  0
  -29.9139  -22.1289   25.1730 H   0  0  0  0  0  0
  -27.8196  -21.0510   24.8164 H   0  0  0  0  0  0
  -28.7504  -19.6231   25.2292 H   0  0  0  0  0  0
  -31.0768  -22.0758   22.7661 H   0  0  0  0  0  0
  -29.3775  -22.5648   22.9285 H   0  0  0  0  0  0
  -27.5015  -20.3069   22.6933 H   0  0  0  0  0  0
  -28.4176  -18.8491   23.0350 H   0  0  0  0  0  0
  -30.4716  -19.8081   22.3733 H   0  0  0  0  0  0
  -26.9314  -24.3044   20.4783 H   0  0  0  0  0  0
  -27.7419  -24.3690   18.9575 H   0  0  0  0  0  0
  1 25  1  0  0  0
  1 30  2  0  0  0
  1 75  1  0  0  0
  2  3  1  0  0  0
  2 25  1  0  0  0
  2 86  1  0  0  0
  2 87  1  0  0  0
  3  4  1  0  0  0
  3 88  1  0  0  0
  3 89  1  0  0  0
  4  5  1  0  0  0
  4 90  1  0  0  0
  4 91  1  0  0  0
  5  6  1  0  0  0
  5 26  1  0  0  0
  5 92  1  0  0  0
  6 25  1  0  0  0
  6 93  1  0  0  0
  6 94  1  0  0  0
  7  8  2  0  0  0
  7 26  1  0  0  0
  7 29  1  0  0  0
  8  9  1  0  0  0
  8 22  1  0  0  0
  9 10  1  0  0  0
  9 27  2  0  0  0
 10 11  2  0  0  0
 10 15  1  0  0  0
 11 12  1  0  0  0
 11 95  1  0  0  0
 12 13  2  0  0  0
 12 96  1  0  0  0
 13 14  1  0  0  0
 13 31  1  0  0  0
 14 15  2  0  0  0
 14 97  1  0  0  0
 15 98  1  0  0  0
 16 17  2  0  0  0
 16 21  1  0  0  0
 16 31  1  0  0  0
 17 18  1  0  0  0
 17 99  1  0  0  0
 18 19  2  0  0  0
 18100  1  0  0  0
 19 20  1  0  0  0
 19 24  1  0  0  0
 20 21  2  0  0  0
 20101  1  0  0  0
 21 23  1  0  0  0
 22 28  1  0  0  0
 22 32  2  0  0  0
 26 27  1  0  0  0
 28102  1  0  0  0
 28103  1  0  0  0
 29104  1  0  0  0
 29105  1  0  0  0
 33 34  1  0  0  0
 33 66  1  0  0  0
 33 70  2  0  0  0
 34 36  1  0  0  0
 34 59  1  0  0  0
 34106  1  0  0  0
 35 44  2  0  0  0
 35 45  1  0  0  0
 35 68  1  0  0  0
 36 56  1  0  0  0
 36107  1  0  0  0
 37 39  1  0  0  0
 37 47  1  0  0  0
 37 66  1  0  0  0
 37108  1  0  0  0
 38 43  2  0  0  0
 38 46  1  0  0  0
 38 47  1  0  0  0
 39 64  1  0  0  0
 39 67  2  0  0  0
 40 52  1  0  0  0
 40 53  2  0  0  0
 40 58  1  0  0  0
 41109  1  0  0  0
 41110  1  0  0  0
 41111  1  0  0  0
 41 48  1  0  0  0
 42 43  1  0  0  0
 42 66  1  0  0  0
 42112  1  0  0  0
 42113  1  0  0  0
 43 44  1  0  0  0
 44114  1  0  0  0
 45 46  2  0  0  0
 45115  1  0  0  0
 46116  1  0  0  0
 47117  1  0  0  0
 47118  1  0  0  0
 48 56  1  0  0  0
 48 65  1  0  0  0
 48119  1  0  0  0
 49 50  1  0  0  0
 49 53  1  0  0  0
 49 64  1  0  0  0
 49120  1  0  0  0
 50 51  1  0  0  0
 50121  1  0  0  0
 50122  1  0  0  0
 51 52  1  0  0  0
 51123  1  0  0  0
 51124  1  0  0  0
 52125  1  0  0  0
 52126  1  0  0  0
 53 54  1  0  0  0
 54 55  2  0  0  0
 54127  1  0  0  0
 55 57  1  0  0  0
 55128  1  0  0  0
 56 69  2  0  0  0
 57 58  2  0  0  0
 57129  1  0  0  0
 58130  1  0  0  0
 59 60  1  0  0  0
 59 61  1  0  0  0
 59 62  1  0  0  0
 60131  1  0  0  0
 60132  1  0  0  0
 60133  1  0  0  0
 61134  1  0  0  0
 61135  1  0  0  0
 61136  1  0  0  0
 62137  1  0  0  0
 62138  1  0  0  0
 62139  1  0  0  0
 63 65  1  0  0  0
 63140  1  0  0  0
 63141  1  0  0  0
 63142  1  0  0  0
 64143  1  0  0  0
 65144  1  0  0  0
 68 83  1  0  0  0
 71 72  2  0  0  0
 71 73  1  0  0  0
 71145  1  0  0  0
 72 75  1  0  0  0
 72146  1  0  0  0
 73 76  2  0  0  0
 73147  1  0  0  0
 74 75  2  0  0  0
 74 76  1  0  0  0
 74148  1  0  0  0
 76 85  1  0  0  0
 77 83  1  0  0  0
 77 84  2  0  0  0
 77149  1  0  0  0
 78 79  1  0  0  0
 78 80  1  0  0  0
 78150  1  0  0  0
 78151  1  0  0  0
 79 81  1  0  0  0
 79152  1  0  0  0
 79153  1  0  0  0
 80 82  1  0  0  0
 80154  1  0  0  0
 80155  1  0  0  0
 81 82  1  0  0  0
 81156  1  0  0  0
 81157  1  0  0  0
 82 85  1  0  0  0
 82158  1  0  0  0
 83159  1  0  0  0
 83160  1  0  0  0
 84 85  1  0  0  0
M  ISO  4   1 100  68 101  75 100  83 101
M  END
> <chiral flag>
0

> <version>
0

> <s_m_source_file>
/data/baiqing/PycharmProjects/Reinvent-master-3.2/result/LINK_invent/BTK/process_docking_weight1_custom_product_contain_oxygen_bond_distance_aromatic_linkinvent_7_9_3/rearranged_h_0012.sdf

> <i_m_source_file_index>
69

> <r_mmod_Potential_Energy-OPLS-2005>
873.193603515625

> <r_mmod_Stretch_Energy-OPLS-2005>
357.364318847656

> <r_mmod_Bend_Energy-OPLS-2005>
323.779327392578

> <r_mmod_Torsional_Energy-OPLS-2005>
271.152252197266

> <r_mmod_Improper_Torsional_Energy-OPLS-2005>
13.9190320968628

> <r_mmod_Van_der_Waal_Energy-OPLS-2005>
137.33056640625

> <r_mmod_Electrostatic_Energy-OPLS-2005>
-312.783111572266

> <r_mmod_Solvation_Energy-OPLS-2005>
-198.712448120117

> <b_mmod_Minimization_Converged-OPLS-2005>
0

> <r_mmod_RMS_Derivative-OPLS-2005>
3.76021933555603

$$$$
69
                    3D
 Structure written by MMmdl.
157165  0  0  1  0            999 V2000
  -30.6953  -14.4756   20.5545 C   0  0  0  0  0  0
  -30.4210  -12.3042   19.4230 C   0  0  0  0  0  0
  -29.4932  -12.4997   18.2057 C   0  0  0  0  0  0
  -28.0141  -12.3576   18.6191 C   0  0  0  0  0  0
  -27.6568  -13.2011   19.8722 C   0  0  2  0  0  0
  -28.6997  -12.9943   20.9934 C   0  0  0  0  0  0
  -25.2580  -13.8139   20.5696 C   0  0  0  0  0  0
  -24.1822  -13.0430   20.9184 C   0  0  0  0  0  0
  -24.6365  -11.6894   20.8734 C   0  0  0  0  0  0
  -23.9028  -10.4290   21.0404 C   0  0  0  0  0  0
  -24.3593   -9.4214   21.9182 C   0  0  0  0  0  0
  -23.6288   -8.2239   22.0748 C   0  0  0  0  0  0
  -22.4269   -8.0273   21.3542 C   0  0  0  0  0  0
  -21.9894   -9.0235   20.4644 C   0  0  0  0  0  0
  -22.7203  -10.2124   20.3052 C   0  0  0  0  0  0
  -21.6851   -6.0727   22.5282 C   0  0  0  0  0  0
  -21.4007   -6.5629   23.8216 C   0  0  0  0  0  0
  -21.3658   -5.6779   24.9175 C   0  0  0  0  0  0
  -21.6051   -4.3044   24.7224 C   0  0  0  0  0  0
  -21.8823   -3.8137   23.4344 C   0  0  0  0  0  0
  -21.9194   -4.6954   22.3400 C   0  0  0  0  0  0
  -22.7851  -13.5243   21.1845 C   0  0  0  0  0  0
  -22.1668   -4.2142   21.0980 F   0  0  0  0  0  0
  -21.5633   -3.4531   25.7738 F   0  0  0  0  0  0
  -30.0278  -13.2948   20.4366 N   0  0  0  0  0  0
  -26.2995  -12.9292   20.3362 N   0  0  0  0  0  0
  -25.9291  -11.6460   20.5763 N   0  0  0  0  0  0
  -22.0474  -12.8253   22.0405 N   0  0  0  0  0  0
  -25.4315  -15.1855   20.4108 N   0  0  0  0  0  0
  -31.8456  -14.6323   20.1315 O   0  0  0  0  0  0
  -21.6633   -6.8871   21.4244 O   0  0  0  0  0  0
  -22.3550  -14.5556   20.6698 O   0  0  0  0  0  0
  -24.6127  -31.8676   23.2099 C   0  0  0  0  0  0
  -25.9023  -32.4823   23.8390 C   0  0  1  0  0  0
  -27.2366  -27.4432   20.1048 C   0  0  0  0  0  0
  -25.5885  -33.8619   24.2325 N   0  0  0  0  0  0
  -23.4005  -30.4905   21.5491 C   0  0  2  0  0  0
  -24.8475  -28.9526   20.1165 C   0  0  0  0  0  0
  -22.7401  -29.4659   22.4987 C   0  0  0  0  0  0
  -18.0272  -28.1378   22.8494 C   0  0  0  0  0  0
  -24.1480  -36.7305   23.2641 C   0  0  0  0  0  0
  -25.9270  -30.8378   21.3599 C   0  0  0  0  0  0
  -26.0055  -29.4726   20.7074 C   0  0  0  0  0  0
  -27.2047  -28.7276   20.6906 C   0  0  0  0  0  0
  -26.0629  -26.9300   19.5129 C   0  0  0  0  0  0
  -24.8703  -27.6808   19.5152 C   0  0  0  0  0  0
  -23.6090  -29.8192   20.1644 C   0  0  0  0  0  0
  -25.4103  -36.3110   24.0346 C   0  0  1  0  0  0
  -20.5860  -28.3658   23.1325 C   0  0  2  0  0  0
  -20.6761  -26.9396   22.5420 C   0  0  0  0  0  0
  -19.5740  -26.6387   21.5215 C   0  0  0  0  0  0
  -18.1920  -26.7930   22.1624 C   0  0  0  0  0  0
  -19.1520  -28.8836   23.2910 C   0  0  0  0  0  0
  -18.9452  -30.1443   23.8918 C   0  0  0  0  0  0
  -17.6456  -30.6585   24.0570 C   0  0  0  0  0  0
  -25.9027  -34.9478   23.5137 C   0  0  0  0  0  0
  -16.5344  -29.9093   23.6325 C   0  0  0  0  0  0
  -16.7264  -28.6508   23.0347 C   0  0  0  0  0  0
  -26.4473  -31.6606   25.0711 C   0  0  0  0  0  0
  -25.3763  -31.3701   26.1479 C   0  0  0  0  0  0
  -27.0311  -30.3060   24.6068 C   0  0  0  0  0  0
  -27.6042  -32.4341   25.7468 C   0  0  0  0  0  0
  -27.5584  -37.1801   24.8466 C   0  0  0  0  0  0
  -21.4131  -29.3026   22.3732 N   0  0  0  0  0  0
  -26.4287  -37.3797   23.9423 N   0  0  0  0  0  0
  -24.6652  -31.0791   22.0987 N   0  0  0  0  0  0
  -23.4183  -28.8203   23.3026 O   0  0  0  0  0  0
  -28.4196  -26.7393   20.0971 O   0  0  0  0  0  0
  -26.5584  -34.8933   22.4695 O   0  0  0  0  0  0
  -23.5323  -32.1417   23.7506 O   0  0  0  0  0  0
  -30.4334  -18.9732   19.9283 C   0  0  0  0  0  0
  -30.1316  -20.3482   20.0274 C   0  0  0  0  0  0
  -28.1047  -18.4313   20.3458 C   0  0  0  0  0  0
  -29.4174  -18.0023   20.0504 C   0  0  0  0  0  0
  -28.8011  -20.7890   20.2477 C   0  0  0  0  0  0
  -27.8016  -19.8077   20.4453 C   0  0  0  0  0  0
  -29.7671  -16.0276   22.1912 C   0  0  0  0  0  0
  -29.7150  -16.5349   19.7187 C   0  0  0  0  0  0
  -28.6548  -24.4186   19.3104 C   0  0  0  0  0  0
  -28.3828  -25.3623   20.4984 C   0  0  0  0  0  0
  -29.3227  -23.0716   19.6723 C   0  0  0  0  0  0
  -29.9146  -15.5552   20.8125 N   0  0  0  0  0  0
  -28.4222  -22.1249   20.2560 O   0  0  0  0  0  0
  -26.5238  -20.1897   20.6858 F   0  0  0  0  0  0
  -31.4656  -12.4012   19.1212 H   0  0  0  0  0  0
  -30.3199  -11.2949   19.8259 H   0  0  0  0  0  0
  -29.7357  -11.7741   17.4282 H   0  0  0  0  0  0
  -29.6593  -13.4855   17.7676 H   0  0  0  0  0  0
  -27.8288  -11.3015   18.8207 H   0  0  0  0  0  0
  -27.3616  -12.6262   17.7874 H   0  0  0  0  0  0
  -27.6925  -14.2454   19.5686 H   0  0  0  0  0  0
  -28.6769  -11.9650   21.3541 H   0  0  0  0  0  0
  -28.4635  -13.6148   21.8578 H   0  0  0  0  0  0
  -25.2736   -9.5704   22.4754 H   0  0  0  0  0  0
  -24.0009   -7.4627   22.7461 H   0  0  0  0  0  0
  -21.0821   -8.8731   19.8953 H   0  0  0  0  0  0
  -22.3645  -10.9652   19.6159 H   0  0  0  0  0  0
  -21.1989   -7.6133   23.9723 H   0  0  0  0  0  0
  -21.1483   -6.0502   25.9083 H   0  0  0  0  0  0
  -22.0605   -2.7599   23.2837 H   0  0  0  0  0  0
  -22.4070  -11.9916   22.4812 H   0  0  0  0  0  0
  -21.1092  -13.1297   22.2586 H   0  0  0  0  0  0
  -24.6698  -15.8445   20.5267 H   0  0  0  0  0  0
  -26.2921  -15.6194   20.1054 H   0  0  0  0  0  0
  -26.7089  -32.5539   23.1151 H   0  0  0  0  0  0
  -25.0071  -33.9783   25.0496 H   0  0  0  0  0  0
  -22.6887  -31.3069   21.4087 H   0  0  0  0  0  0
  -23.3751  -35.9627   23.3309 H   0  0  0  0  0  0
  -24.3576  -36.8907   22.2053 H   0  0  0  0  0  0
  -23.7221  -37.6509   23.6649 H   0  0  0  0  0  0
  -26.0373  -31.6053   20.5923 H   0  0  0  0  0  0
  -26.8154  -30.8902   21.9777 H   0  0  0  0  0  0
  -28.1032  -29.1293   21.1388 H   0  0  0  0  0  0
  -26.0673  -25.9576   19.0416 H   0  0  0  0  0  0
  -23.9795  -27.2766   19.0544 H   0  0  0  0  0  0
  -23.7185  -30.5926   19.4030 H   0  0  0  0  0  0
  -22.7337  -29.2379   19.8688 H   0  0  0  0  0  0
  -25.1280  -36.1972   25.0837 H   0  0  0  0  0  0
  -20.9959  -28.3217   24.1445 H   0  0  0  0  0  0
  -20.5659  -26.2264   23.3603 H   0  0  0  0  0  0
  -21.6631  -26.7440   22.1213 H   0  0  0  0  0  0
  -19.6900  -25.6303   21.1229 H   0  0  0  0  0  0
  -19.6688  -27.3211   20.6756 H   0  0  0  0  0  0
  -17.4195  -26.6684   21.4020 H   0  0  0  0  0  0
  -18.0318  -26.0066   22.9011 H   0  0  0  0  0  0
  -19.7929  -30.7252   24.2294 H   0  0  0  0  0  0
  -17.5015  -31.6271   24.5167 H   0  0  0  0  0  0
  -15.5349  -30.3004   23.7641 H   0  0  0  0  0  0
  -15.8661  -28.0840   22.7047 H   0  0  0  0  0  0
  -24.5914  -30.7069   25.7828 H   0  0  0  0  0  0
  -24.8984  -32.2854   26.4978 H   0  0  0  0  0  0
  -25.8139  -30.8837   27.0205 H   0  0  0  0  0  0
  -26.2839  -29.6801   24.1172 H   0  0  0  0  0  0
  -27.4158  -29.7312   25.4502 H   0  0  0  0  0  0
  -27.8640  -30.4400   23.9160 H   0  0  0  0  0  0
  -27.2647  -33.3624   26.2078 H   0  0  0  0  0  0
  -28.3830  -32.6937   25.0284 H   0  0  0  0  0  0
  -28.0743  -31.8458   26.5358 H   0  0  0  0  0  0
  -28.2595  -38.0104   24.7539 H   0  0  0  0  0  0
  -28.1085  -36.2642   24.6260 H   0  0  0  0  0  0
  -27.2307  -37.1410   25.8867 H   0  0  0  0  0  0
  -20.9283  -29.8759   21.6965 H   0  0  0  0  0  0
  -26.0179  -38.2871   24.1446 H   0  0  0  0  0  0
  -31.4473  -18.6699   19.7048 H   0  0  0  0  0  0
  -30.9407  -21.0517   19.8979 H   0  0  0  0  0  0
  -27.3078  -17.7099   20.4472 H   0  0  0  0  0  0
  -28.7732  -16.4472   22.3511 H   0  0  0  0  0  0
  -30.5082  -16.7957   22.4164 H   0  0  0  0  0  0
  -29.8992  -15.2205   22.9147 H   0  0  0  0  0  0
  -30.5738  -16.5304   19.0429 H   0  0  0  0  0  0
  -28.8884  -16.1714   19.1075 H   0  0  0  0  0  0
  -29.3381  -24.9338   18.6348 H   0  0  0  0  0  0
  -27.7442  -24.2511   18.7353 H   0  0  0  0  0  0
  -29.1747  -25.2430   21.2381 H   0  0  0  0  0  0
  -27.4572  -25.0920   21.0102 H   0  0  0  0  0  0
  -30.1714  -23.2382   20.3381 H   0  0  0  0  0  0
  -29.7225  -22.6590   18.7443 H   0  0  0  0  0  0
  1 25  1  0  0  0
  1 30  2  0  0  0
  1 82  1  0  0  0
  2  3  1  0  0  0
  2 25  1  0  0  0
  2 85  1  0  0  0
  2 86  1  0  0  0
  3  4  1  0  0  0
  3 87  1  0  0  0
  3 88  1  0  0  0
  4  5  1  0  0  0
  4 89  1  0  0  0
  4 90  1  0  0  0
  5  6  1  0  0  0
  5 26  1  0  0  0
  5 91  1  0  0  0
  6 25  1  0  0  0
  6 92  1  0  0  0
  6 93  1  0  0  0
  7  8  2  0  0  0
  7 26  1  0  0  0
  7 29  1  0  0  0
  8  9  1  0  0  0
  8 22  1  0  0  0
  9 10  1  0  0  0
  9 27  2  0  0  0
 10 11  2  0  0  0
 10 15  1  0  0  0
 11 12  1  0  0  0
 11 94  1  0  0  0
 12 13  2  0  0  0
 12 95  1  0  0  0
 13 14  1  0  0  0
 13 31  1  0  0  0
 14 15  2  0  0  0
 14 96  1  0  0  0
 15 97  1  0  0  0
 16 17  2  0  0  0
 16 21  1  0  0  0
 16 31  1  0  0  0
 17 18  1  0  0  0
 17 98  1  0  0  0
 18 19  2  0  0  0
 18 99  1  0  0  0
 19 20  1  0  0  0
 19 24  1  0  0  0
 20 21  2  0  0  0
 20100  1  0  0  0
 21 23  1  0  0  0
 22 28  1  0  0  0
 22 32  2  0  0  0
 26 27  1  0  0  0
 28101  1  0  0  0
 28102  1  0  0  0
 29103  1  0  0  0
 29104  1  0  0  0
 33 34  1  0  0  0
 33 66  1  0  0  0
 33 70  2  0  0  0
 34 36  1  0  0  0
 34 59  1  0  0  0
 34105  1  0  0  0
 35 44  2  0  0  0
 35 45  1  0  0  0
 35 68  1  0  0  0
 36 56  1  0  0  0
 36106  1  0  0  0
 37 39  1  0  0  0
 37 47  1  0  0  0
 37 66  1  0  0  0
 37107  1  0  0  0
 38 43  2  0  0  0
 38 46  1  0  0  0
 38 47  1  0  0  0
 39 64  1  0  0  0
 39 67  2  0  0  0
 40 52  1  0  0  0
 40 53  2  0  0  0
 40 58  1  0  0  0
 41108  1  0  0  0
 41109  1  0  0  0
 41110  1  0  0  0
 41 48  1  0  0  0
 42 43  1  0  0  0
 42 66  1  0  0  0
 42111  1  0  0  0
 42112  1  0  0  0
 43 44  1  0  0  0
 44113  1  0  0  0
 45 46  2  0  0  0
 45114  1  0  0  0
 46115  1  0  0  0
 47116  1  0  0  0
 47117  1  0  0  0
 48 56  1  0  0  0
 48 65  1  0  0  0
 48118  1  0  0  0
 49 50  1  0  0  0
 49 53  1  0  0  0
 49 64  1  0  0  0
 49119  1  0  0  0
 50 51  1  0  0  0
 50120  1  0  0  0
 50121  1  0  0  0
 51 52  1  0  0  0
 51122  1  0  0  0
 51123  1  0  0  0
 52124  1  0  0  0
 52125  1  0  0  0
 53 54  1  0  0  0
 54 55  2  0  0  0
 54126  1  0  0  0
 55 57  1  0  0  0
 55127  1  0  0  0
 56 69  2  0  0  0
 57 58  2  0  0  0
 57128  1  0  0  0
 58129  1  0  0  0
 59 60  1  0  0  0
 59 61  1  0  0  0
 59 62  1  0  0  0
 60130  1  0  0  0
 60131  1  0  0  0
 60132  1  0  0  0
 61133  1  0  0  0
 61134  1  0  0  0
 61135  1  0  0  0
 62136  1  0  0  0
 62137  1  0  0  0
 62138  1  0  0  0
 63 65  1  0  0  0
 63139  1  0  0  0
 63140  1  0  0  0
 63141  1  0  0  0
 64142  1  0  0  0
 65143  1  0  0  0
 68 80  1  0  0  0
 71 72  2  0  0  0
 71 74  1  0  0  0
 71144  1  0  0  0
 72 75  1  0  0  0
 72145  1  0  0  0
 73 74  2  0  0  0
 73 76  1  0  0  0
 73146  1  0  0  0
 74 78  1  0  0  0
 75 76  2  0  0  0
 75 83  1  0  0  0
 76 84  1  0  0  0
 77 82  1  0  0  0
 77147  1  0  0  0
 77148  1  0  0  0
 77149  1  0  0  0
 78 82  1  0  0  0
 78150  1  0  0  0
 78151  1  0  0  0
 79 80  1  0  0  0
 79 81  1  0  0  0
 79152  1  0  0  0
 79153  1  0  0  0
 80154  1  0  0  0
 80155  1  0  0  0
 81 83  1  0  0  0
 81156  1  0  0  0
 81157  1  0  0  0
M  ISO  4   1 100  68 101  80 101  82 100
M  END
> <chiral flag>
0

> <version>
0

> <s_m_source_file>
/data/baiqing/PycharmProjects/Reinvent-master-3.2/result/LINK_invent/BTK/process_docking_weight1_custom_product_contain_oxygen_bond_distance_aromatic_linkinvent_7_9_3/rearranged_h_0012.sdf

> <i_m_source_file_index>
70

> <r_mmod_Potential_Energy-OPLS-2005>
127.763984680176

> <r_mmod_Stretch_Energy-OPLS-2005>
37.9584197998047

> <r_mmod_Bend_Energy-OPLS-2005>
103.055686950684

> <r_mmod_Torsional_Energy-OPLS-2005>
302.603088378906

> <r_mmod_Improper_Torsional_Energy-OPLS-2005>
11.7451877593994

> <r_mmod_Van_der_Waal_Energy-OPLS-2005>
151.135299682617

> <r_mmod_Electrostatic_Energy-OPLS-2005>
-297.491760253906

> <r_mmod_Solvation_Energy-OPLS-2005>
-194.516677856445

> <b_mmod_Minimization_Converged-OPLS-2005>
0

> <r_mmod_RMS_Derivative-OPLS-2005>
1.17501842975616

$$$$
71
                    3D
 Structure written by MMmdl.
159167  0  0  1  0            999 V2000
  -30.6439  -14.6983   20.3215 C   0  0  0  0  0  0
  -30.4490  -12.3681   19.4976 C   0  0  0  0  0  0
  -29.5333  -12.3300   18.2560 C   0  0  0  0  0  0
  -28.0318  -12.3293   18.6387 C   0  0  0  0  0  0
  -27.6461  -13.2333   19.8469 C   0  0  2  0  0  0
  -28.7047  -13.1956   20.9684 C   0  0  0  0  0  0
  -25.2481  -13.8108   20.5669 C   0  0  0  0  0  0
  -24.1773  -13.0348   20.9154 C   0  0  0  0  0  0
  -24.6415  -11.6861   20.8753 C   0  0  0  0  0  0
  -23.9129  -10.4231   21.0437 C   0  0  0  0  0  0
  -24.3672   -9.4141   21.9209 C   0  0  0  0  0  0
  -23.6293   -8.2203   22.0766 C   0  0  0  0  0  0
  -22.4270   -8.0287   21.3544 C   0  0  0  0  0  0
  -21.9936   -9.0289   20.4655 C   0  0  0  0  0  0
  -22.7321  -10.2121   20.3067 C   0  0  0  0  0  0
  -21.6846   -6.0728   22.5266 C   0  0  0  0  0  0
  -21.4035   -6.5630   23.8207 C   0  0  0  0  0  0
  -21.3651   -5.6767   24.9150 C   0  0  0  0  0  0
  -21.6043   -4.3030   24.7193 C   0  0  0  0  0  0
  -21.8840   -3.8136   23.4316 C   0  0  0  0  0  0
  -21.9196   -4.6963   22.3382 C   0  0  0  0  0  0
  -22.7814  -13.5169   21.1814 C   0  0  0  0  0  0
  -22.1659   -4.2170   21.0962 F   0  0  0  0  0  0
  -21.5619   -3.4511   25.7708 F   0  0  0  0  0  0
  -30.0024  -13.4858   20.3460 N   0  0  0  0  0  0
  -26.2991  -12.9371   20.3339 N   0  0  0  0  0  0
  -25.9373  -11.6510   20.5832 N   0  0  0  0  0  0
  -22.0472  -12.8201   22.0418 N   0  0  0  0  0  0
  -25.4025  -15.1804   20.4138 N   0  0  0  0  0  0
  -31.8741  -14.7523   20.2765 O   0  0  0  0  0  0
  -21.6608   -6.8899   21.4248 O   0  0  0  0  0  0
  -22.3522  -14.5495   20.6696 O   0  0  0  0  0  0
  -24.6248  -31.8592   23.1999 C   0  0  0  0  0  0
  -25.9083  -32.4796   23.8332 C   0  0  1  0  0  0
  -27.2367  -27.3208   20.1289 C   0  0  0  0  0  0
  -25.5904  -33.8598   24.2280 N   0  0  0  0  0  0
  -23.4203  -30.4793   21.5421 C   0  0  2  0  0  0
  -24.8716  -28.9253   20.1187 C   0  0  0  0  0  0
  -22.7467  -29.4616   22.4930 C   0  0  0  0  0  0
  -18.0289  -28.1380   22.8489 C   0  0  0  0  0  0
  -24.1475  -36.7275   23.2644 C   0  0  0  0  0  0
  -25.9585  -30.7918   21.3669 C   0  0  0  0  0  0
  -26.0378  -29.4159   20.7163 C   0  0  0  0  0  0
  -27.2251  -28.6296   20.7045 C   0  0  0  0  0  0
  -26.0501  -26.8777   19.5064 C   0  0  0  0  0  0
  -24.8785  -27.6609   19.5070 C   0  0  0  0  0  0
  -23.6378  -29.8057   20.1598 C   0  0  0  0  0  0
  -25.4115  -36.3108   24.0343 C   0  0  1  0  0  0
  -20.5878  -28.3674   23.1287 C   0  0  2  0  0  0
  -20.6753  -26.9395   22.5411 C   0  0  0  0  0  0
  -19.5744  -26.6379   21.5198 C   0  0  0  0  0  0
  -18.1927  -26.7933   22.1615 C   0  0  0  0  0  0
  -19.1537  -28.8849   23.2880 C   0  0  0  0  0  0
  -18.9465  -30.1445   23.8901 C   0  0  0  0  0  0
  -17.6463  -30.6586   24.0564 C   0  0  0  0  0  0
  -25.9048  -34.9474   23.5125 C   0  0  0  0  0  0
  -16.5352  -29.9093   23.6335 C   0  0  0  0  0  0
  -16.7274  -28.6496   23.0367 C   0  0  0  0  0  0
  -26.4469  -31.6614   25.0706 C   0  0  0  0  0  0
  -25.3725  -31.3768   26.1456 C   0  0  0  0  0  0
  -27.0320  -30.3071   24.6126 C   0  0  0  0  0  0
  -27.6027  -32.4356   25.7483 C   0  0  0  0  0  0
  -27.5581  -37.1796   24.8479 C   0  0  0  0  0  0
  -21.4166  -29.3046   22.3681 N   0  0  0  0  0  0
  -26.4289  -37.3801   23.9427 N   0  0  0  0  0  0
  -24.6879  -31.0582   22.0954 N   0  0  0  0  0  0
  -23.4196  -28.8175   23.3023 O   0  0  0  0  0  0
  -28.3746  -26.5025   20.1278 O   0  0  0  0  0  0
  -26.5588  -34.8926   22.4678 O   0  0  0  0  0  0
  -23.5406  -32.1390   23.7310 O   0  0  0  0  0  0
  -30.4118  -19.5088   19.7729 C   0  0  0  0  0  0
  -30.7403  -18.1162   19.7850 C   0  0  0  0  0  0
  -28.1849  -18.9729   20.5007 C   0  0  0  0  0  0
  -29.1095  -19.9770   20.0988 C   0  0  0  0  0  0
  -29.7889  -17.1150   20.1290 C   0  0  0  0  0  0
  -28.5136  -17.5871   20.5233 C   0  0  0  0  0  0
  -29.8961  -15.6326   18.2391 C   0  0  0  0  0  0
  -29.7182  -22.5609   21.8471 C   0  0  0  0  0  0
  -28.6235  -21.4661   19.8801 C   0  0  0  0  0  0
  -29.1912  -24.0300   19.8240 C   0  0  0  0  0  0
  -28.2557  -25.0871   20.5646 C   0  0  0  0  0  0
  -29.9383  -15.7222   19.7102 N   0  0  0  0  0  0
  -29.4547  -22.6244   20.3916 N   0  3  1  0  0  0
  -27.5554  -16.6830   20.8201 F   0  0  0  0  0  0
  -31.4973  -12.4633   19.2049 H   0  0  0  0  0  0
  -30.3768  -11.4319   20.0524 H   0  0  0  0  0  0
  -29.7496  -11.4145   17.7018 H   0  0  0  0  0  0
  -29.7800  -13.1288   17.5648 H   0  0  0  0  0  0
  -27.7798  -11.2944   18.8710 H   0  0  0  0  0  0
  -27.4273  -12.5948   17.7706 H   0  0  0  0  0  0
  -27.6206  -14.2569   19.4793 H   0  0  0  0  0  0
  -28.7244  -12.2219   21.4607 H   0  0  0  0  0  0
  -28.4760  -13.9399   21.7344 H   0  0  0  0  0  0
  -25.2833   -9.5570   22.4779 H   0  0  0  0  0  0
  -23.9991   -7.4568   22.7475 H   0  0  0  0  0  0
  -21.0856   -8.8866   19.8953 H   0  0  0  0  0  0
  -22.3850  -10.9692   19.6178 H   0  0  0  0  0  0
  -21.2067   -7.6133   23.9748 H   0  0  0  0  0  0
  -21.1443   -6.0455   25.9064 H   0  0  0  0  0  0
  -22.0641   -2.7609   23.2787 H   0  0  0  0  0  0
  -22.4022  -11.9835   22.4795 H   0  0  0  0  0  0
  -21.1176  -13.1372   22.2741 H   0  0  0  0  0  0
  -24.6558  -15.8368   20.6097 H   0  0  0  0  0  0
  -26.3129  -15.6318   20.3602 H   0  0  0  0  0  0
  -26.7133  -32.5440   23.1044 H   0  0  0  0  0  0
  -25.0120  -33.9752   25.0476 H   0  0  0  0  0  0
  -22.7141  -31.3003   21.3950 H   0  0  0  0  0  0
  -23.3769  -35.9574   23.3344 H   0  0  0  0  0  0
  -24.3548  -36.8850   22.2046 H   0  0  0  0  0  0
  -23.7191  -37.6475   23.6635 H   0  0  0  0  0  0
  -26.0793  -31.5528   20.5952 H   0  0  0  0  0  0
  -26.8405  -30.8493   21.9920 H   0  0  0  0  0  0
  -28.1263  -29.0183   21.1561 H   0  0  0  0  0  0
  -26.0194  -25.9185   19.0099 H   0  0  0  0  0  0
  -23.9835  -27.2844   19.0324 H   0  0  0  0  0  0
  -23.7583  -30.5789   19.4014 H   0  0  0  0  0  0
  -22.7587  -29.2348   19.8567 H   0  0  0  0  0  0
  -25.1299  -36.1967   25.0836 H   0  0  0  0  0  0
  -20.9961  -28.3232   24.1415 H   0  0  0  0  0  0
  -20.5620  -26.2287   23.3606 H   0  0  0  0  0  0
  -21.6630  -26.7401   22.1238 H   0  0  0  0  0  0
  -19.6900  -25.6294   21.1238 H   0  0  0  0  0  0
  -19.6699  -27.3169   20.6716 H   0  0  0  0  0  0
  -17.4197  -26.6668   21.4019 H   0  0  0  0  0  0
  -18.0336  -26.0061   22.9001 H   0  0  0  0  0  0
  -19.7930  -30.7248   24.2264 H   0  0  0  0  0  0
  -17.5031  -31.6281   24.5156 H   0  0  0  0  0  0
  -15.5354  -30.3005   23.7659 H   0  0  0  0  0  0
  -15.8659  -28.0815   22.7100 H   0  0  0  0  0  0
  -24.5864  -30.7142   25.7803 H   0  0  0  0  0  0
  -24.8939  -32.2947   26.4894 H   0  0  0  0  0  0
  -25.8053  -30.8942   27.0231 H   0  0  0  0  0  0
  -26.2881  -29.6840   24.1144 H   0  0  0  0  0  0
  -27.4067  -29.7304   25.4587 H   0  0  0  0  0  0
  -27.8730  -30.4432   23.9325 H   0  0  0  0  0  0
  -27.2636  -33.3662   26.2053 H   0  0  0  0  0  0
  -28.3836  -32.6913   25.0311 H   0  0  0  0  0  0
  -28.0698  -31.8494   26.5400 H   0  0  0  0  0  0
  -28.2636  -38.0065   24.7518 H   0  0  0  0  0  0
  -28.1035  -36.2593   24.6326 H   0  0  0  0  0  0
  -27.2275  -37.1464   25.8875 H   0  0  0  0  0  0
  -20.9322  -29.8798   21.6908 H   0  0  0  0  0  0
  -26.0189  -38.2883   24.1426 H   0  0  0  0  0  0
  -31.1591  -20.2129   19.4340 H   0  0  0  0  0  0
  -31.7113  -17.8075   19.4208 H   0  0  0  0  0  0
  -27.1621  -19.2517   20.7151 H   0  0  0  0  0  0
  -29.7806  -16.6032   17.7509 H   0  0  0  0  0  0
  -29.0261  -15.0600   17.9331 H   0  0  0  0  0  0
  -30.7950  -15.1722   17.8154 H   0  0  0  0  0  0
  -30.3964  -23.3561   22.1610 H   0  0  0  0  0  0
  -30.1952  -21.6163   22.1139 H   0  0  0  0  0  0
  -28.7994  -22.6383   22.4245 H   0  0  0  0  0  0
  -27.6320  -21.5649   20.3266 H   0  0  0  0  0  0
  -28.4749  -21.5952   18.8060 H   0  0  0  0  0  0
  -30.1775  -24.4938   19.7717 H   0  0  0  0  0  0
  -28.8742  -23.9406   18.7856 H   0  0  0  0  0  0
  -28.5050  -25.0906   21.6269 H   0  0  0  0  0  0
  -27.2249  -24.7386   20.5178 H   0  0  0  0  0  0
  -30.3588  -22.4202   19.9925 H   0  0  0  0  0  0
  1 25  1  0  0  0
  1 30  2  0  0  0
  1 82  1  0  0  0
  2  3  1  0  0  0
  2 25  1  0  0  0
  2 85  1  0  0  0
  2 86  1  0  0  0
  3  4  1  0  0  0
  3 87  1  0  0  0
  3 88  1  0  0  0
  4  5  1  0  0  0
  4 89  1  0  0  0
  4 90  1  0  0  0
  5  6  1  0  0  0
  5 26  1  0  0  0
  5 91  1  0  0  0
  6 25  1  0  0  0
  6 92  1  0  0  0
  6 93  1  0  0  0
  7  8  2  0  0  0
  7 26  1  0  0  0
  7 29  1  0  0  0
  8  9  1  0  0  0
  8 22  1  0  0  0
  9 10  1  0  0  0
  9 27  2  0  0  0
 10 11  2  0  0  0
 10 15  1  0  0  0
 11 12  1  0  0  0
 11 94  1  0  0  0
 12 13  2  0  0  0
 12 95  1  0  0  0
 13 14  1  0  0  0
 13 31  1  0  0  0
 14 15  2  0  0  0
 14 96  1  0  0  0
 15 97  1  0  0  0
 16 17  2  0  0  0
 16 21  1  0  0  0
 16 31  1  0  0  0
 17 18  1  0  0  0
 17 98  1  0  0  0
 18 19  2  0  0  0
 18 99  1  0  0  0
 19 20  1  0  0  0
 19 24  1  0  0  0
 20 21  2  0  0  0
 20100  1  0  0  0
 21 23  1  0  0  0
 22 28  1  0  0  0
 22 32  2  0  0  0
 26 27  1  0  0  0
 28101  1  0  0  0
 28102  1  0  0  0
 29103  1  0  0  0
 29104  1  0  0  0
 33 34  1  0  0  0
 33 66  1  0  0  0
 33 70  2  0  0  0
 34 36  1  0  0  0
 34 59  1  0  0  0
 34105  1  0  0  0
 35 44  2  0  0  0
 35 45  1  0  0  0
 35 68  1  0  0  0
 36 56  1  0  0  0
 36106  1  0  0  0
 37 39  1  0  0  0
 37 47  1  0  0  0
 37 66  1  0  0  0
 37107  1  0  0  0
 38 43  2  0  0  0
 38 46  1  0  0  0
 38 47  1  0  0  0
 39 64  1  0  0  0
 39 67  2  0  0  0
 40 52  1  0  0  0
 40 53  2  0  0  0
 40 58  1  0  0  0
 41108  1  0  0  0
 41109  1  0  0  0
 41110  1  0  0  0
 41 48  1  0  0  0
 42 43  1  0  0  0
 42 66  1  0  0  0
 42111  1  0  0  0
 42112  1  0  0  0
 43 44  1  0  0  0
 44113  1  0  0  0
 45 46  2  0  0  0
 45114  1  0  0  0
 46115  1  0  0  0
 47116  1  0  0  0
 47117  1  0  0  0
 48 56  1  0  0  0
 48 65  1  0  0  0
 48118  1  0  0  0
 49 50  1  0  0  0
 49 53  1  0  0  0
 49 64  1  0  0  0
 49119  1  0  0  0
 50 51  1  0  0  0
 50120  1  0  0  0
 50121  1  0  0  0
 51 52  1  0  0  0
 51122  1  0  0  0
 51123  1  0  0  0
 52124  1  0  0  0
 52125  1  0  0  0
 53 54  1  0  0  0
 54 55  2  0  0  0
 54126  1  0  0  0
 55 57  1  0  0  0
 55127  1  0  0  0
 56 69  2  0  0  0
 57 58  2  0  0  0
 57128  1  0  0  0
 58129  1  0  0  0
 59 60  1  0  0  0
 59 61  1  0  0  0
 59 62  1  0  0  0
 60130  1  0  0  0
 60131  1  0  0  0
 60132  1  0  0  0
 61133  1  0  0  0
 61134  1  0  0  0
 61135  1  0  0  0
 62136  1  0  0  0
 62137  1  0  0  0
 62138  1  0  0  0
 63 65  1  0  0  0
 63139  1  0  0  0
 63140  1  0  0  0
 63141  1  0  0  0
 64142  1  0  0  0
 65143  1  0  0  0
 68 81  1  0  0  0
 71 72  2  0  0  0
 71 74  1  0  0  0
 71144  1  0  0  0
 72 75  1  0  0  0
 72145  1  0  0  0
 73 74  2  0  0  0
 73 76  1  0  0  0
 73146  1  0  0  0
 74 79  1  0  0  0
 75 76  2  0  0  0
 75 82  1  0  0  0
 76 84  1  0  0  0
 77 82  1  0  0  0
 77147  1  0  0  0
 77148  1  0  0  0
 77149  1  0  0  0
 78150  1  0  0  0
 78151  1  0  0  0
 78152  1  0  0  0
 78 83  1  0  0  0
 79 83  1  0  0  0
 79153  1  0  0  0
 79154  1  0  0  0
 80 81  1  0  0  0
 80 83  1  0  0  0
 80155  1  0  0  0
 80156  1  0  0  0
 81157  1  0  0  0
 81158  1  0  0  0
 83159  1  0  0  0
M  CHG  1  83   1
M  ISO  4   1 100  68 101  81 101  82 100
M  END
> <chiral flag>
0

> <version>
0

> <s_m_source_file>
/data/baiqing/PycharmProjects/Reinvent-master-3.2/result/LINK_invent/BTK/process_docking_weight1_custom_product_contain_oxygen_bond_distance_aromatic_linkinvent_7_9_3/rearranged_h_0012.sdf

> <i_m_source_file_index>
71

> <r_mmod_Potential_Energy-OPLS-2005>
230.53303527832

> <r_mmod_Stretch_Energy-OPLS-2005>
84.54736328125

> <r_mmod_Bend_Energy-OPLS-2005>
159.581939697266

> <r_mmod_Torsional_Energy-OPLS-2005>
366.066314697266

> <r_mmod_Improper_Torsional_Energy-OPLS-2005>
30.8203220367432

> <r_mmod_Van_der_Waal_Energy-OPLS-2005>
143.410415649414

> <r_mmod_Electrostatic_Energy-OPLS-2005>
-200.468154907227

> <r_mmod_Solvation_Energy-OPLS-2005>
-429.877899169922

> <b_mmod_Minimization_Converged-OPLS-2005>
0

> <r_mmod_RMS_Derivative-OPLS-2005>
5.1576886177063

$$$$
72
                    3D
 Structure written by MMmdl.
156165  0  0  1  0            999 V2000
  -30.5635  -14.9434   20.5131 C   0  0  0  0  0  0
  -30.4405  -12.5950   19.5201 C   0  0  0  0  0  0
  -29.5319  -12.5586   18.2681 C   0  0  0  0  0  0
  -28.0610  -12.3382   18.6673 C   0  0  0  0  0  0
  -27.6361  -13.2502   19.8459 C   0  0  2  0  0  0
  -28.6667  -13.2411   20.9917 C   0  0  0  0  0  0
  -25.2483  -13.8213   20.5700 C   0  0  0  0  0  0
  -24.1793  -13.0433   20.9189 C   0  0  0  0  0  0
  -24.6412  -11.6920   20.8719 C   0  0  0  0  0  0
  -23.9090  -10.4294   21.0402 C   0  0  0  0  0  0
  -24.3634   -9.4205   21.9183 C   0  0  0  0  0  0
  -23.6298   -8.2244   22.0751 C   0  0  0  0  0  0
  -22.4278   -8.0284   21.3543 C   0  0  0  0  0  0
  -21.9920   -9.0262   20.4649 C   0  0  0  0  0  0
  -22.7255  -10.2138   20.3056 C   0  0  0  0  0  0
  -21.6865   -6.0730   22.5269 C   0  0  0  0  0  0
  -21.4031   -6.5634   23.8202 C   0  0  0  0  0  0
  -21.3659   -5.6785   24.9162 C   0  0  0  0  0  0
  -21.6041   -4.3045   24.7219 C   0  0  0  0  0  0
  -21.8822   -3.8138   23.4341 C   0  0  0  0  0  0
  -21.9195   -4.6955   22.3396 C   0  0  0  0  0  0
  -22.7817  -13.5207   21.1860 C   0  0  0  0  0  0
  -22.1665   -4.2138   21.0975 F   0  0  0  0  0  0
  -21.5622   -3.4531   25.7737 F   0  0  0  0  0  0
  -29.9591  -13.6784   20.4339 N   0  0  0  0  0  0
  -26.2909  -12.9449   20.3218 N   0  0  0  0  0  0
  -25.9342  -11.6572   20.5688 N   0  0  0  0  0  0
  -22.0476  -12.8208   22.0434 N   0  0  0  0  0  0
  -25.4163  -15.1947   20.4207 N   0  0  0  0  0  0
  -31.6923  -15.0471   20.0177 O   0  0  0  0  0  0
  -21.6644   -6.8879   21.4234 O   0  0  0  0  0  0
  -22.3486  -14.5500   20.6693 O   0  0  0  0  0  0
  -24.6438  -31.8431   23.1859 C   0  0  0  0  0  0
  -25.9207  -32.4686   23.8256 C   0  0  1  0  0  0
  -27.2241  -27.1267   20.1546 C   0  0  0  0  0  0
  -25.5958  -33.8491   24.2183 N   0  0  0  0  0  0
  -23.4492  -30.4601   21.5304 C   0  0  2  0  0  0
  -24.9015  -28.8835   20.1079 C   0  0  0  0  0  0
  -22.7574  -29.4532   22.4836 C   0  0  0  0  0  0
  -18.0310  -28.1392   22.8480 C   0  0  0  0  0  0
  -24.1492  -36.7247   23.2639 C   0  0  0  0  0  0
  -26.0045  -30.7123   21.3882 C   0  0  0  0  0  0
  -26.0759  -29.3219   20.7317 C   0  0  0  0  0  0
  -27.2349  -28.4579   20.7402 C   0  0  0  0  0  0
  -26.0289  -26.7992   19.4765 C   0  0  0  0  0  0
  -24.8912  -27.6358   19.4653 C   0  0  0  0  0  0
  -23.6785  -29.7862   20.1505 C   0  0  0  0  0  0
  -25.4123  -36.3024   24.0315 C   0  0  1  0  0  0
  -20.5924  -28.3723   23.1227 C   0  0  2  0  0  0
  -20.6791  -26.9422   22.5404 C   0  0  0  0  0  0
  -19.5766  -26.6378   21.5211 C   0  0  0  0  0  0
  -18.1950  -26.7932   22.1623 C   0  0  0  0  0  0
  -19.1568  -28.8872   23.2848 C   0  0  0  0  0  0
  -18.9483  -30.1471   23.8874 C   0  0  0  0  0  0
  -17.6479  -30.6587   24.0557 C   0  0  0  0  0  0
  -25.9079  -34.9403   23.5054 C   0  0  0  0  0  0
  -16.5370  -29.9087   23.6328 C   0  0  0  0  0  0
  -16.7294  -28.6502   23.0352 C   0  0  0  0  0  0
  -26.4532  -31.6546   25.0692 C   0  0  0  0  0  0
  -25.3718  -31.3743   26.1385 C   0  0  0  0  0  0
  -27.0395  -30.2938   24.6268 C   0  0  0  0  0  0
  -27.6060  -32.4312   25.7483 C   0  0  0  0  0  0
  -27.5576  -37.1776   24.8460 C   0  0  0  0  0  0
  -21.4264  -29.3050   22.3595 N   0  0  0  0  0  0
  -26.4281  -37.3745   23.9415 N   0  0  0  0  0  0
  -24.7185  -31.0280   22.0896 N   0  0  0  0  0  0
  -23.4209  -28.8084   23.2998 O   0  0  0  0  0  0
  -28.2822  -26.1465   20.2547 O   0  0  0  0  0  0
  -26.5656  -34.8904   22.4633 O   0  0  0  0  0  0
  -23.5551  -32.1308   23.7071 O   0  0  0  0  0  0
  -29.4843  -19.6261   19.2872 C   0  0  0  0  0  0
  -29.2200  -19.9993   21.5795 C   0  0  0  0  0  0
  -29.7471  -18.2036   19.5178 C   0  0  0  0  0  0
  -29.4664  -18.5826   21.8091 C   0  0  0  0  0  0
  -29.2017  -20.6276   20.2953 C   0  0  0  0  0  0
  -29.7501  -17.5691   20.8083 C   0  0  0  0  0  0
  -28.6017  -24.1301   18.6476 C   0  0  0  0  0  0
  -28.7260  -22.5625   18.6476 C   0  0  0  0  0  0
  -28.7633  -23.3472   20.8676 C   0  0  0  0  0  0
  -28.1030  -24.6063   20.0259 C   0  0  1  0  0  0
  -29.8445  -15.8114   22.6111 C   0  0  0  0  0  0
  -28.9155  -22.0752   20.0190 N   0  0  0  0  0  0
  -29.9435  -16.0624   21.1609 N   0  0  0  0  0  0
  -31.4789  -12.7408   19.2209 H   0  0  0  0  0  0
  -30.4233  -11.6326   20.0339 H   0  0  0  0  0  0
  -29.8599  -11.7745   17.5848 H   0  0  0  0  0  0
  -29.6258  -13.4989   17.7226 H   0  0  0  0  0  0
  -27.9488  -11.2912   18.9507 H   0  0  0  0  0  0
  -27.4055  -12.4930   17.8095 H   0  0  0  0  0  0
  -27.6123  -14.2648   19.4459 H   0  0  0  0  0  0
  -28.7492  -12.2498   21.4407 H   0  0  0  0  0  0
  -28.3178  -13.8978   21.7851 H   0  0  0  0  0  0
  -25.2783   -9.5677   22.4751 H   0  0  0  0  0  0
  -24.0004   -7.4639   22.7472 H   0  0  0  0  0  0
  -21.0840   -8.8788   19.8969 H   0  0  0  0  0  0
  -22.3709  -10.9676   19.6162 H   0  0  0  0  0  0
  -21.2042   -7.6146   23.9706 H   0  0  0  0  0  0
  -21.1475   -6.0515   25.9064 H   0  0  0  0  0  0
  -22.0606   -2.7600   23.2841 H   0  0  0  0  0  0
  -22.4112  -11.9884   22.4834 H   0  0  0  0  0  0
  -21.1093  -13.1231   22.2644 H   0  0  0  0  0  0
  -24.6541  -15.8496   20.5560 H   0  0  0  0  0  0
  -26.2771  -15.6427   20.1323 H   0  0  0  0  0  0
  -26.7263  -32.5289   23.0979 H   0  0  0  0  0  0
  -25.0109  -33.9605   25.0329 H   0  0  0  0  0  0
  -22.7521  -31.2855   21.3720 H   0  0  0  0  0  0
  -23.3763  -35.9568   23.3280 H   0  0  0  0  0  0
  -24.3583  -36.8900   22.2057 H   0  0  0  0  0  0
  -23.7232  -37.6434   23.6684 H   0  0  0  0  0  0
  -26.1607  -31.4640   20.6135 H   0  0  0  0  0  0
  -26.8746  -30.7643   22.0311 H   0  0  0  0  0  0
  -28.1252  -28.7851   21.2582 H   0  0  0  0  0  0
  -25.9409  -25.8542   18.9625 H   0  0  0  0  0  0
  -23.9976  -27.2986   18.9584 H   0  0  0  0  0  0
  -23.8178  -30.5584   19.3934 H   0  0  0  0  0  0
  -22.7938  -29.2283   19.8381 H   0  0  0  0  0  0
  -25.1309  -36.1851   25.0806 H   0  0  0  0  0  0
  -21.0021  -28.3319   24.1347 H   0  0  0  0  0  0
  -20.5676  -26.2341   23.3632 H   0  0  0  0  0  0
  -21.6657  -26.7421   22.1206 H   0  0  0  0  0  0
  -19.6925  -25.6281   21.1261 H   0  0  0  0  0  0
  -19.6697  -27.3171   20.6729 H   0  0  0  0  0  0
  -17.4216  -26.6674   21.4031 H   0  0  0  0  0  0
  -18.0347  -26.0081   22.9026 H   0  0  0  0  0  0
  -19.7960  -30.7292   24.2233 H   0  0  0  0  0  0
  -17.5032  -31.6264   24.5167 H   0  0  0  0  0  0
  -15.5367  -30.2978   23.7661 H   0  0  0  0  0  0
  -15.8700  -28.0812   22.7076 H   0  0  0  0  0  0
  -24.5907  -30.7076   25.7708 H   0  0  0  0  0  0
  -24.8891  -32.2924   26.4739 H   0  0  0  0  0  0
  -25.8000  -30.8966   27.0205 H   0  0  0  0  0  0
  -26.3006  -29.6664   24.1264 H   0  0  0  0  0  0
  -27.4002  -29.7233   25.4838 H   0  0  0  0  0  0
  -27.8921  -30.4180   23.9588 H   0  0  0  0  0  0
  -27.2649  -33.3630   26.2011 H   0  0  0  0  0  0
  -28.3899  -32.6845   25.0332 H   0  0  0  0  0  0
  -28.0693  -31.8466   26.5443 H   0  0  0  0  0  0
  -28.2566  -38.0101   24.7533 H   0  0  0  0  0  0
  -28.1102  -36.2629   24.6251 H   0  0  0  0  0  0
  -27.2298  -37.1376   25.8864 H   0  0  0  0  0  0
  -20.9472  -29.8778   21.6786 H   0  0  0  0  0  0
  -26.0145  -38.2809   24.1437 H   0  0  0  0  0  0
  -29.5058  -19.9468   18.2567 H   0  0  0  0  0  0
  -29.0179  -20.6167   22.4436 H   0  0  0  0  0  0
  -29.9392  -17.5852   18.6532 H   0  0  0  0  0  0
  -29.4157  -18.2933   22.8471 H   0  0  0  0  0  0
  -27.9575  -24.4807   17.8411 H   0  0  0  0  0  0
  -29.5883  -24.5602   18.4709 H   0  0  0  0  0  0
  -29.5552  -22.2543   18.0090 H   0  0  0  0  0  0
  -27.8195  -22.1146   18.2383 H   0  0  0  0  0  0
  -28.1723  -23.1422   21.7611 H   0  0  0  0  0  0
  -29.7575  -23.6338   21.2149 H   0  0  0  0  0  0
  -27.0349  -24.4027   20.0732 H   0  0  0  0  0  0
  -30.5774  -16.4136   23.1499 H   0  0  0  0  0  0
  -30.0391  -14.7831   22.9213 H   0  0  0  0  0  0
  -28.8486  -16.0675   22.9750 H   0  0  0  0  0  0
  1 25  1  0  0  0
  1 30  2  0  0  0
  1 83  1  0  0  0
  2  3  1  0  0  0
  2 25  1  0  0  0
  2 84  1  0  0  0
  2 85  1  0  0  0
  3  4  1  0  0  0
  3 86  1  0  0  0
  3 87  1  0  0  0
  4  5  1  0  0  0
  4 88  1  0  0  0
  4 89  1  0  0  0
  5  6  1  0  0  0
  5 26  1  0  0  0
  5 90  1  0  0  0
  6 25  1  0  0  0
  6 91  1  0  0  0
  6 92  1  0  0  0
  7  8  2  0  0  0
  7 26  1  0  0  0
  7 29  1  0  0  0
  8  9  1  0  0  0
  8 22  1  0  0  0
  9 10  1  0  0  0
  9 27  2  0  0  0
 10 11  2  0  0  0
 10 15  1  0  0  0
 11 12  1  0  0  0
 11 93  1  0  0  0
 12 13  2  0  0  0
 12 94  1  0  0  0
 13 14  1  0  0  0
 13 31  1  0  0  0
 14 15  2  0  0  0
 14 95  1  0  0  0
 15 96  1  0  0  0
 16 17  2  0  0  0
 16 21  1  0  0  0
 16 31  1  0  0  0
 17 18  1  0  0  0
 17 97  1  0  0  0
 18 19  2  0  0  0
 18 98  1  0  0  0
 19 20  1  0  0  0
 19 24  1  0  0  0
 20 21  2  0  0  0
 20 99  1  0  0  0
 21 23  1  0  0  0
 22 28  1  0  0  0
 22 32  2  0  0  0
 26 27  1  0  0  0
 28100  1  0  0  0
 28101  1  0  0  0
 29102  1  0  0  0
 29103  1  0  0  0
 33 34  1  0  0  0
 33 66  1  0  0  0
 33 70  2  0  0  0
 34 36  1  0  0  0
 34 59  1  0  0  0
 34104  1  0  0  0
 35 44  2  0  0  0
 35 45  1  0  0  0
 35 68  1  0  0  0
 36 56  1  0  0  0
 36105  1  0  0  0
 37 39  1  0  0  0
 37 47  1  0  0  0
 37 66  1  0  0  0
 37106  1  0  0  0
 38 43  2  0  0  0
 38 46  1  0  0  0
 38 47  1  0  0  0
 39 64  1  0  0  0
 39 67  2  0  0  0
 40 52  1  0  0  0
 40 53  2  0  0  0
 40 58  1  0  0  0
 41107  1  0  0  0
 41108  1  0  0  0
 41109  1  0  0  0
 41 48  1  0  0  0
 42 43  1  0  0  0
 42 66  1  0  0  0
 42110  1  0  0  0
 42111  1  0  0  0
 43 44  1  0  0  0
 44112  1  0  0  0
 45 46  2  0  0  0
 45113  1  0  0  0
 46114  1  0  0  0
 47115  1  0  0  0
 47116  1  0  0  0
 48 56  1  0  0  0
 48 65  1  0  0  0
 48117  1  0  0  0
 49 50  1  0  0  0
 49 53  1  0  0  0
 49 64  1  0  0  0
 49118  1  0  0  0
 50 51  1  0  0  0
 50119  1  0  0  0
 50120  1  0  0  0
 51 52  1  0  0  0
 51121  1  0  0  0
 51122  1  0  0  0
 52123  1  0  0  0
 52124  1  0  0  0
 53 54  1  0  0  0
 54 55  2  0  0  0
 54125  1  0  0  0
 55 57  1  0  0  0
 55126  1  0  0  0
 56 69  2  0  0  0
 57 58  2  0  0  0
 57127  1  0  0  0
 58128  1  0  0  0
 59 60  1  0  0  0
 59 61  1  0  0  0
 59 62  1  0  0  0
 60129  1  0  0  0
 60130  1  0  0  0
 60131  1  0  0  0
 61132  1  0  0  0
 61133  1  0  0  0
 61134  1  0  0  0
 62135  1  0  0  0
 62136  1  0  0  0
 62137  1  0  0  0
 63 65  1  0  0  0
 63138  1  0  0  0
 63139  1  0  0  0
 63140  1  0  0  0
 64141  1  0  0  0
 65142  1  0  0  0
 68 80  1  0  0  0
 71 73  2  0  0  0
 71 75  1  0  0  0
 71143  1  0  0  0
 72 74  1  0  0  0
 72 75  2  0  0  0
 72144  1  0  0  0
 73 76  1  0  0  0
 73145  1  0  0  0
 74 76  2  0  0  0
 74146  1  0  0  0
 75 82  1  0  0  0
 76 83  1  0  0  0
 77 78  1  0  0  0
 77 80  1  0  0  0
 77147  1  0  0  0
 77148  1  0  0  0
 78 82  1  0  0  0
 78149  1  0  0  0
 78150  1  0  0  0
 79 80  1  0  0  0
 79 82  1  0  0  0
 79151  1  0  0  0
 79152  1  0  0  0
 80153  1  0  0  0
 81 83  1  0  0  0
 81154  1  0  0  0
 81155  1  0  0  0
 81156  1  0  0  0
M  ISO  4   1 100  68 101  80 101  83 100
M  END
> <chiral flag>
0

> <version>
0

> <s_m_source_file>
/data/baiqing/PycharmProjects/Reinvent-master-3.2/result/LINK_invent/BTK/process_docking_weight1_custom_product_contain_oxygen_bond_distance_aromatic_linkinvent_7_9_3/rearranged_h_0012.sdf

> <i_m_source_file_index>
72

> <r_mmod_Potential_Energy-OPLS-2005>
694.363159179688

> <r_mmod_Stretch_Energy-OPLS-2005>
242.295867919922

> <r_mmod_Bend_Energy-OPLS-2005>
324.988952636719

> <r_mmod_Torsional_Energy-OPLS-2005>
313.762268066406

> <r_mmod_Improper_Torsional_Energy-OPLS-2005>
2.89329361915588

> <r_mmod_Van_der_Waal_Energy-OPLS-2005>
143.555725097656

> <r_mmod_Electrostatic_Energy-OPLS-2005>
-309.01806640625

> <r_mmod_Solvation_Energy-OPLS-2005>
-215.142868041992

> <b_mmod_Minimization_Converged-OPLS-2005>
0

> <r_mmod_RMS_Derivative-OPLS-2005>
1.35108029842377

$$$$
73
                    3D
 Structure written by MMmdl.
153161  0  0  1  0            999 V2000
  -30.6218  -14.7098   20.4548 C   0  0  0  0  0  0
  -30.4301  -12.4269   19.4823 C   0  0  0  0  0  0
  -29.5139  -12.5069   18.2408 C   0  0  0  0  0  0
  -28.0371  -12.3400   18.6476 C   0  0  0  0  0  0
  -27.6466  -13.2316   19.8570 C   0  0  2  0  0  0
  -28.6879  -13.1473   20.9960 C   0  0  0  0  0  0
  -25.2525  -13.8200   20.5693 C   0  0  0  0  0  0
  -24.1809  -13.0447   20.9199 C   0  0  0  0  0  0
  -24.6399  -11.6924   20.8745 C   0  0  0  0  0  0
  -23.9075  -10.4298   21.0406 C   0  0  0  0  0  0
  -24.3627   -9.4212   21.9181 C   0  0  0  0  0  0
  -23.6299   -8.2248   22.0754 C   0  0  0  0  0  0
  -22.4280   -8.0287   21.3548 C   0  0  0  0  0  0
  -21.9917   -9.0260   20.4651 C   0  0  0  0  0  0
  -22.7249  -10.2136   20.3057 C   0  0  0  0  0  0
  -21.6852   -6.0741   22.5280 C   0  0  0  0  0  0
  -21.4014   -6.5645   23.8215 C   0  0  0  0  0  0
  -21.3662   -5.6794   24.9177 C   0  0  0  0  0  0
  -21.6042   -4.3055   24.7224 C   0  0  0  0  0  0
  -21.8818   -3.8151   23.4343 C   0  0  0  0  0  0
  -21.9192   -4.6970   22.3401 C   0  0  0  0  0  0
  -22.7830  -13.5229   21.1859 C   0  0  0  0  0  0
  -22.1660   -4.2159   21.0978 F   0  0  0  0  0  0
  -21.5631   -3.4539   25.7737 F   0  0  0  0  0  0
  -29.9981  -13.4839   20.4254 N   0  0  0  0  0  0
  -26.2960  -12.9410   20.3298 N   0  0  0  0  0  0
  -25.9332  -11.6550   20.5752 N   0  0  0  0  0  0
  -22.0471  -12.8224   22.0415 N   0  0  0  0  0  0
  -25.4224  -15.1925   20.4125 N   0  0  0  0  0  0
  -31.7999  -14.8066   20.0970 O   0  0  0  0  0  0
  -21.6642   -6.8885   21.4242 O   0  0  0  0  0  0
  -22.3515  -14.5533   20.6704 O   0  0  0  0  0  0
  -24.6294  -31.8572   23.2005 C   0  0  0  0  0  0
  -25.9127  -32.4764   23.8348 C   0  0  1  0  0  0
  -27.2167  -27.2750   20.1246 C   0  0  0  0  0  0
  -25.5928  -33.8566   24.2268 N   0  0  0  0  0  0
  -23.4251  -30.4815   21.5434 C   0  0  2  0  0  0
  -24.8723  -28.9344   20.1078 C   0  0  0  0  0  0
  -22.7497  -29.4607   22.4909 C   0  0  0  0  0  0
  -18.0292  -28.1383   22.8480 C   0  0  0  0  0  0
  -24.1491  -36.7289   23.2639 C   0  0  0  0  0  0
  -25.9708  -30.7730   21.3808 C   0  0  0  0  0  0
  -26.0421  -29.3971   20.7227 C   0  0  0  0  0  0
  -27.2153  -28.5782   20.7251 C   0  0  0  0  0  0
  -26.0287  -26.8910   19.4588 C   0  0  0  0  0  0
  -24.8703  -27.6889   19.4654 C   0  0  0  0  0  0
  -23.6427  -29.8192   20.1580 C   0  0  0  0  0  0
  -25.4115  -36.3073   24.0326 C   0  0  1  0  0  0
  -20.5895  -28.3693   23.1265 C   0  0  2  0  0  0
  -20.6777  -26.9409   22.5403 C   0  0  0  0  0  0
  -19.5750  -26.6379   21.5207 C   0  0  0  0  0  0
  -18.1933  -26.7924   22.1624 C   0  0  0  0  0  0
  -19.1546  -28.8856   23.2869 C   0  0  0  0  0  0
  -18.9467  -30.1457   23.8886 C   0  0  0  0  0  0
  -17.6465  -30.6582   24.0561 C   0  0  0  0  0  0
  -25.9054  -34.9443   23.5099 C   0  0  0  0  0  0
  -16.5357  -29.9079   23.6327 C   0  0  0  0  0  0
  -16.7279  -28.6499   23.0346 C   0  0  0  0  0  0
  -26.4501  -31.6581   25.0729 C   0  0  0  0  0  0
  -25.3726  -31.3728   26.1451 C   0  0  0  0  0  0
  -27.0350  -30.2998   24.6211 C   0  0  0  0  0  0
  -27.6055  -32.4321   25.7503 C   0  0  0  0  0  0
  -27.5577  -37.1800   24.8463 C   0  0  0  0  0  0
  -21.4205  -29.3044   22.3658 N   0  0  0  0  0  0
  -26.4290  -37.3768   23.9406 N   0  0  0  0  0  0
  -24.6939  -31.0553   22.0975 N   0  0  0  0  0  0
  -23.4208  -28.8135   23.2989 O   0  0  0  0  0  0
  -28.3087  -26.3803   20.2112 O   0  0  0  0  0  0
  -26.5627  -34.8913   22.4670 O   0  0  0  0  0  0
  -23.5447  -32.1387   23.7306 O   0  0  0  0  0  0
  -30.4907  -17.3484   18.8504 C   0  0  0  0  0  0
  -30.5772  -18.6086   18.2254 C   0  0  0  0  0  0
  -29.5580  -18.4340   20.8152 C   0  0  0  0  0  0
  -29.6590  -19.7487   20.1951 C   0  0  0  0  0  0
  -29.9895  -17.2054   20.1653 C   0  0  0  0  0  0
  -30.1785  -19.7869   18.8843 C   0  0  0  0  0  0
  -29.3468  -21.1352   20.9102 C   0  0  0  0  0  0
  -28.9997  -23.7619   20.5988 C   0  0  0  0  0  0
  -28.0950  -24.9183   19.9321 C   0  0  0  0  0  0
  -29.8697  -15.8407   20.7328 N   0  0  0  0  0  0
  -28.8047  -22.3167   20.0969 N   0  3  0  0  0  0
  -30.3043  -20.9758   18.2452 F   0  0  0  0  0  0
  -31.4751  -12.5338   19.1867 H   0  0  0  0  0  0
  -30.3555  -11.4460   19.9544 H   0  0  0  0  0  0
  -29.7921  -11.7409   17.5159 H   0  0  0  0  0  0
  -29.6529  -13.4665   17.7398 H   0  0  0  0  0  0
  -27.8828  -11.2896   18.8982 H   0  0  0  0  0  0
  -27.3855  -12.5476   17.7980 H   0  0  0  0  0  0
  -27.6489  -14.2575   19.4874 H   0  0  0  0  0  0
  -28.7093  -12.1464   21.4299 H   0  0  0  0  0  0
  -28.4271  -13.8250   21.8100 H   0  0  0  0  0  0
  -25.2773   -9.5691   22.4755 H   0  0  0  0  0  0
  -24.0018   -7.4636   22.7467 H   0  0  0  0  0  0
  -21.0851   -8.8775   19.8953 H   0  0  0  0  0  0
  -22.3706  -10.9674   19.6165 H   0  0  0  0  0  0
  -21.2004   -7.6153   23.9723 H   0  0  0  0  0  0
  -21.1486   -6.0524   25.9081 H   0  0  0  0  0  0
  -22.0594   -2.7616   23.2837 H   0  0  0  0  0  0
  -22.4086  -11.9897   22.4825 H   0  0  0  0  0  0
  -21.1081  -13.1244   22.2601 H   0  0  0  0  0  0
  -24.6552  -15.8468   20.5230 H   0  0  0  0  0  0
  -26.2724  -15.6320   20.0826 H   0  0  0  0  0  0
  -26.7191  -32.5419   23.1090 H   0  0  0  0  0  0
  -25.0068  -33.9712   25.0409 H   0  0  0  0  0  0
  -22.7198  -31.3026   21.3996 H   0  0  0  0  0  0
  -23.3749  -35.9626   23.3299 H   0  0  0  0  0  0
  -24.3579  -36.8917   22.2052 H   0  0  0  0  0  0
  -23.7254  -37.6494   23.6667 H   0  0  0  0  0  0
  -26.1111  -31.5327   20.6106 H   0  0  0  0  0  0
  -26.8483  -30.8206   22.0140 H   0  0  0  0  0  0
  -28.1067  -28.9235   21.2301 H   0  0  0  0  0  0
  -25.9564  -25.9528   18.9304 H   0  0  0  0  0  0
  -23.9780  -27.3352   18.9674 H   0  0  0  0  0  0
  -23.7667  -30.5973   19.4039 H   0  0  0  0  0  0
  -22.7615  -29.2524   19.8521 H   0  0  0  0  0  0
  -25.1297  -36.1922   25.0817 H   0  0  0  0  0  0
  -20.9992  -28.3273   24.1385 H   0  0  0  0  0  0
  -20.5667  -26.2306   23.3611 H   0  0  0  0  0  0
  -21.6646  -26.7425   22.1204 H   0  0  0  0  0  0
  -19.6910  -25.6290   21.1240 H   0  0  0  0  0  0
  -19.6684  -27.3188   20.6735 H   0  0  0  0  0  0
  -17.4199  -26.6666   21.4031 H   0  0  0  0  0  0
  -18.0336  -26.0071   22.9026 H   0  0  0  0  0  0
  -19.7943  -30.7276   24.2249 H   0  0  0  0  0  0
  -17.5019  -31.6260   24.5167 H   0  0  0  0  0  0
  -15.5355  -30.2977   23.7655 H   0  0  0  0  0  0
  -15.8681  -28.0817   22.7059 H   0  0  0  0  0  0
  -24.5903  -30.7076   25.7779 H   0  0  0  0  0  0
  -24.8916  -32.2897   26.4865 H   0  0  0  0  0  0
  -25.8042  -30.8913   27.0235 H   0  0  0  0  0  0
  -26.2936  -29.6741   24.1229 H   0  0  0  0  0  0
  -27.4029  -29.7263   25.4729 H   0  0  0  0  0  0
  -27.8815  -30.4274   23.9460 H   0  0  0  0  0  0
  -27.2664  -33.3625   26.2070 H   0  0  0  0  0  0
  -28.3872  -32.6873   25.0335 H   0  0  0  0  0  0
  -28.0718  -31.8454   26.5429 H   0  0  0  0  0  0
  -28.2591  -38.0098   24.7503 H   0  0  0  0  0  0
  -28.1076  -36.2628   24.6297 H   0  0  0  0  0  0
  -27.2293  -37.1459   25.8865 H   0  0  0  0  0  0
  -20.9381  -29.8792   21.6891 H   0  0  0  0  0  0
  -26.0168  -38.2844   24.1399 H   0  0  0  0  0  0
  -30.8053  -16.4837   18.2843 H   0  0  0  0  0  0
  -30.9641  -18.6744   17.2190 H   0  0  0  0  0  0
  -29.1692  -18.3751   21.8222 H   0  0  0  0  0  0
  -30.2854  -21.4579   21.3614 H   0  0  0  0  0  0
  -28.6673  -20.9537   21.7435 H   0  0  0  0  0  0
  -28.8187  -23.7762   21.6735 H   0  0  0  0  0  0
  -30.0517  -24.0184   20.4692 H   0  0  0  0  0  0
  -27.0780  -24.6534   20.2207 H   0  0  0  0  0  0
  -28.1421  -24.8041   18.8485 H   0  0  0  0  0  0
  -29.0134  -15.6596   21.2360 H   0  0  0  0  0  0
  -27.8205  -22.1441   19.9652 H   0  0  0  0  0  0
  -29.2390  -22.2418   19.1867 H   0  0  0  0  0  0
  1 25  1  0  0  0
  1 30  2  0  0  0
  1 80  1  0  0  0
  2  3  1  0  0  0
  2 25  1  0  0  0
  2 83  1  0  0  0
  2 84  1  0  0  0
  3  4  1  0  0  0
  3 85  1  0  0  0
  3 86  1  0  0  0
  4  5  1  0  0  0
  4 87  1  0  0  0
  4 88  1  0  0  0
  5  6  1  0  0  0
  5 26  1  0  0  0
  5 89  1  0  0  0
  6 25  1  0  0  0
  6 90  1  0  0  0
  6 91  1  0  0  0
  7  8  2  0  0  0
  7 26  1  0  0  0
  7 29  1  0  0  0
  8  9  1  0  0  0
  8 22  1  0  0  0
  9 10  1  0  0  0
  9 27  2  0  0  0
 10 11  2  0  0  0
 10 15  1  0  0  0
 11 12  1  0  0  0
 11 92  1  0  0  0
 12 13  2  0  0  0
 12 93  1  0  0  0
 13 14  1  0  0  0
 13 31  1  0  0  0
 14 15  2  0  0  0
 14 94  1  0  0  0
 15 95  1  0  0  0
 16 17  2  0  0  0
 16 21  1  0  0  0
 16 31  1  0  0  0
 17 18  1  0  0  0
 17 96  1  0  0  0
 18 19  2  0  0  0
 18 97  1  0  0  0
 19 20  1  0  0  0
 19 24  1  0  0  0
 20 21  2  0  0  0
 20 98  1  0  0  0
 21 23  1  0  0  0
 22 28  1  0  0  0
 22 32  2  0  0  0
 26 27  1  0  0  0
 28 99  1  0  0  0
 28100  1  0  0  0
 29101  1  0  0  0
 29102  1  0  0  0
 33 34  1  0  0  0
 33 66  1  0  0  0
 33 70  2  0  0  0
 34 36  1  0  0  0
 34 59  1  0  0  0
 34103  1  0  0  0
 35 44  2  0  0  0
 35 45  1  0  0  0
 35 68  1  0  0  0
 36 56  1  0  0  0
 36104  1  0  0  0
 37 39  1  0  0  0
 37 47  1  0  0  0
 37 66  1  0  0  0
 37105  1  0  0  0
 38 43  2  0  0  0
 38 46  1  0  0  0
 38 47  1  0  0  0
 39 64  1  0  0  0
 39 67  2  0  0  0
 40 52  1  0  0  0
 40 53  2  0  0  0
 40 58  1  0  0  0
 41106  1  0  0  0
 41107  1  0  0  0
 41108  1  0  0  0
 41 48  1  0  0  0
 42 43  1  0  0  0
 42 66  1  0  0  0
 42109  1  0  0  0
 42110  1  0  0  0
 43 44  1  0  0  0
 44111  1  0  0  0
 45 46  2  0  0  0
 45112  1  0  0  0
 46113  1  0  0  0
 47114  1  0  0  0
 47115  1  0  0  0
 48 56  1  0  0  0
 48 65  1  0  0  0
 48116  1  0  0  0
 49 50  1  0  0  0
 49 53  1  0  0  0
 49 64  1  0  0  0
 49117  1  0  0  0
 50 51  1  0  0  0
 50118  1  0  0  0
 50119  1  0  0  0
 51 52  1  0  0  0
 51120  1  0  0  0
 51121  1  0  0  0
 52122  1  0  0  0
 52123  1  0  0  0
 53 54  1  0  0  0
 54 55  2  0  0  0
 54124  1  0  0  0
 55 57  1  0  0  0
 55125  1  0  0  0
 56 69  2  0  0  0
 57 58  2  0  0  0
 57126  1  0  0  0
 58127  1  0  0  0
 59 60  1  0  0  0
 59 61  1  0  0  0
 59 62  1  0  0  0
 60128  1  0  0  0
 60129  1  0  0  0
 60130  1  0  0  0
 61131  1  0  0  0
 61132  1  0  0  0
 61133  1  0  0  0
 62134  1  0  0  0
 62135  1  0  0  0
 62136  1  0  0  0
 63 65  1  0  0  0
 63137  1  0  0  0
 63138  1  0  0  0
 63139  1  0  0  0
 64140  1  0  0  0
 65141  1  0  0  0
 68 79  1  0  0  0
 71 72  2  0  0  0
 71 75  1  0  0  0
 71142  1  0  0  0
 72 76  1  0  0  0
 72143  1  0  0  0
 73 74  1  0  0  0
 73 75  2  0  0  0
 73144  1  0  0  0
 74 76  2  0  0  0
 74 77  1  0  0  0
 75 80  1  0  0  0
 76 82  1  0  0  0
 77 81  1  0  0  0
 77145  1  0  0  0
 77146  1  0  0  0
 78 79  1  0  0  0
 78 81  1  0  0  0
 78147  1  0  0  0
 78148  1  0  0  0
 79149  1  0  0  0
 79150  1  0  0  0
 80151  1  0  0  0
 81152  1  0  0  0
 81153  1  0  0  0
M  CHG  1  81   1
M  ISO  4   1 100  68 101  79 101  80 100
M  END
> <chiral flag>
0

> <version>
0

> <s_m_source_file>
/data/baiqing/PycharmProjects/Reinvent-master-3.2/result/LINK_invent/BTK/process_docking_weight1_custom_product_contain_oxygen_bond_distance_aromatic_linkinvent_7_9_3/rearranged_h_0012.sdf

> <i_m_source_file_index>
73

> <r_mmod_Potential_Energy-OPLS-2005>
-63.8012809753418

> <r_mmod_Stretch_Energy-OPLS-2005>
111.924407958984

> <r_mmod_Bend_Energy-OPLS-2005>
147.421615600586

> <r_mmod_Torsional_Energy-OPLS-2005>
228.273986816406

> <r_mmod_Improper_Torsional_Energy-OPLS-2005>
4.54076814651489

> <r_mmod_Van_der_Waal_Energy-OPLS-2005>
145.822540283203

> <r_mmod_Electrostatic_Energy-OPLS-2005>
-319.056457519531

> <r_mmod_Solvation_Energy-OPLS-2005>
-458.113922119141

> <b_mmod_Minimization_Converged-OPLS-2005>
0

> <r_mmod_RMS_Derivative-OPLS-2005>
0.675384640693665

$$$$
74
                    3D
 Structure written by MMmdl.
156165  0  0  1  0            999 V2000
  -30.5082  -14.9473   20.4155 C   0  0  0  0  0  0
  -30.4555  -12.5838   19.4957 C   0  0  0  0  0  0
  -29.5290  -12.5332   18.2570 C   0  0  0  0  0  0
  -28.0600  -12.3184   18.6718 C   0  0  0  0  0  0
  -27.6361  -13.2441   19.8413 C   0  0  2  0  0  0
  -28.6797  -13.2459   20.9802 C   0  0  0  0  0  0
  -25.2481  -13.8223   20.5714 C   0  0  0  0  0  0
  -24.1788  -13.0452   20.9252 C   0  0  0  0  0  0
  -24.6389  -11.6931   20.8752 C   0  0  0  0  0  0
  -23.9064  -10.4301   21.0404 C   0  0  0  0  0  0
  -24.3617   -9.4218   21.9181 C   0  0  0  0  0  0
  -23.6298   -8.2248   22.0748 C   0  0  0  0  0  0
  -22.4278   -8.0283   21.3541 C   0  0  0  0  0  0
  -21.9907   -9.0262   20.4646 C   0  0  0  0  0  0
  -22.7234  -10.2144   20.3054 C   0  0  0  0  0  0
  -21.6854   -6.0726   22.5276 C   0  0  0  0  0  0
  -21.4009   -6.5631   23.8207 C   0  0  0  0  0  0
  -21.3663   -5.6786   24.9173 C   0  0  0  0  0  0
  -21.6054   -4.3049   24.7226 C   0  0  0  0  0  0
  -21.8818   -3.8134   23.4342 C   0  0  0  0  0  0
  -21.9194   -4.6951   22.3399 C   0  0  0  0  0  0
  -22.7801  -13.5222   21.1913 C   0  0  0  0  0  0
  -22.1662   -4.2136   21.0976 F   0  0  0  0  0  0
  -21.5639   -3.4531   25.7735 F   0  0  0  0  0  0
  -29.9619  -13.6646   20.3955 N   0  0  0  0  0  0
  -26.2902  -12.9445   20.3224 N   0  0  0  0  0  0
  -25.9319  -11.6576   20.5714 N   0  0  0  0  0  0
  -22.0431  -12.8213   22.0457 N   0  0  0  0  0  0
  -25.4157  -15.1953   20.4133 N   0  0  0  0  0  0
  -31.6932  -15.0716   20.0874 O   0  0  0  0  0  0
  -21.6644   -6.8872   21.4239 O   0  0  0  0  0  0
  -22.3484  -14.5528   20.6753 O   0  0  0  0  0  0
  -24.6414  -31.8448   23.1879 C   0  0  0  0  0  0
  -25.9193  -32.4694   23.8266 C   0  0  1  0  0  0
  -27.2195  -27.1465   20.1436 C   0  0  0  0  0  0
  -25.5946  -33.8502   24.2183 N   0  0  0  0  0  0
  -23.4435  -30.4627   21.5338 C   0  0  2  0  0  0
  -24.8922  -28.8875   20.1061 C   0  0  0  0  0  0
  -22.7557  -29.4541   22.4869 C   0  0  0  0  0  0
  -18.0304  -28.1382   22.8476 C   0  0  0  0  0  0
  -24.1492  -36.7255   23.2642 C   0  0  0  0  0  0
  -25.9973  -30.7216   21.3829 C   0  0  0  0  0  0
  -26.0671  -29.3332   20.7230 C   0  0  0  0  0  0
  -27.2278  -28.4768   20.7250 C   0  0  0  0  0  0
  -26.0161  -26.7907   19.4977 C   0  0  0  0  0  0
  -24.8784  -27.6301   19.4800 C   0  0  0  0  0  0
  -23.6672  -29.7887   20.1528 C   0  0  0  0  0  0
  -25.4125  -36.3033   24.0316 C   0  0  1  0  0  0
  -20.5916  -28.3702   23.1245 C   0  0  2  0  0  0
  -20.6782  -26.9403   22.5416 C   0  0  0  0  0  0
  -19.5758  -26.6360   21.5224 C   0  0  0  0  0  0
  -18.1939  -26.7917   22.1626 C   0  0  0  0  0  0
  -19.1560  -28.8863   23.2848 C   0  0  0  0  0  0
  -18.9476  -30.1466   23.8856 C   0  0  0  0  0  0
  -17.6473  -30.6576   24.0558 C   0  0  0  0  0  0
  -25.9078  -34.9408   23.5059 C   0  0  0  0  0  0
  -16.5364  -29.9067   23.6335 C   0  0  0  0  0  0
  -16.7291  -28.6492   23.0346 C   0  0  0  0  0  0
  -26.4511  -31.6560   25.0711 C   0  0  0  0  0  0
  -25.3699  -31.3775   26.1416 C   0  0  0  0  0  0
  -27.0374  -30.2950   24.6299 C   0  0  0  0  0  0
  -27.6042  -32.4322   25.7496 C   0  0  0  0  0  0
  -27.5582  -37.1776   24.8455 C   0  0  0  0  0  0
  -21.4254  -29.3027   22.3615 N   0  0  0  0  0  0
  -26.4281  -37.3750   23.9417 N   0  0  0  0  0  0
  -24.7140  -31.0314   22.0900 N   0  0  0  0  0  0
  -23.4214  -28.8098   23.3013 O   0  0  0  0  0  0
  -28.3055  -26.2076   20.2428 O   0  0  0  0  0  0
  -26.5664  -34.8907   22.4639 O   0  0  0  0  0  0
  -23.5539  -32.1322   23.7112 O   0  0  0  0  0  0
  -30.2414  -19.8977   19.6511 C   0  0  0  0  0  0
  -30.4527  -18.4591   19.7744 C   0  0  0  0  0  0
  -28.5697  -18.3598   21.1612 C   0  0  0  0  0  0
  -28.3673  -19.8085   21.0813 C   0  0  0  0  0  0
  -29.1959  -20.6857   20.2757 C   0  0  0  0  0  0
  -29.6081  -17.5860   20.5324 C   0  0  0  0  0  0
  -29.7735  -24.4103   19.2747 C   0  0  0  0  0  0
  -29.9239  -22.8649   19.0893 C   0  0  0  0  0  0
  -28.1982  -23.3209   20.6151 C   0  0  0  0  0  0
  -28.3487  -24.7272   19.7630 C   0  0  1  0  0  0
  -27.2104  -20.3913   21.8973 C   0  0  0  0  0  0
  -29.0662  -22.1742   20.0568 N   0  0  0  0  0  0
  -29.6495  -16.0517   20.6700 N   0  0  0  0  0  0
  -26.6234  -19.4783   22.6730 F   0  0  0  0  0  0
  -27.6424  -21.3594   22.7065 F   0  0  0  0  0  0
  -26.2729  -20.8812   21.0858 F   0  0  0  0  0  0
  -31.4851  -12.7602   19.1796 H   0  0  0  0  0  0
  -30.4655  -11.6265   20.0186 H   0  0  0  0  0  0
  -29.8494  -11.7418   17.5780 H   0  0  0  0  0  0
  -29.6154  -13.4677   17.7004 H   0  0  0  0  0  0
  -27.9514  -11.2755   18.9709 H   0  0  0  0  0  0
  -27.3990  -12.4604   17.8162 H   0  0  0  0  0  0
  -27.6064  -14.2505   19.4222 H   0  0  0  0  0  0
  -28.7633  -12.2588   21.4360 H   0  0  0  0  0  0
  -28.3770  -13.9260   21.7777 H   0  0  0  0  0  0
  -25.2761   -9.5705   22.4746 H   0  0  0  0  0  0
  -24.0016   -7.4636   22.7459 H   0  0  0  0  0  0
  -21.0832   -8.8778   19.8955 H   0  0  0  0  0  0
  -22.3688  -10.9677   19.6156 H   0  0  0  0  0  0
  -21.1990   -7.6138   23.9709 H   0  0  0  0  0  0
  -21.1495   -6.0512   25.9078 H   0  0  0  0  0  0
  -22.0593   -2.7595   23.2843 H   0  0  0  0  0  0
  -22.4032  -11.9892   22.4880 H   0  0  0  0  0  0
  -21.1039  -13.1234   22.2632 H   0  0  0  0  0  0
  -24.6466  -15.8451   20.5314 H   0  0  0  0  0  0
  -26.2406  -15.6292   20.0206 H   0  0  0  0  0  0
  -26.7255  -32.5296   23.0993 H   0  0  0  0  0  0
  -25.0079  -33.9608   25.0321 H   0  0  0  0  0  0
  -22.7449  -31.2877   21.3806 H   0  0  0  0  0  0
  -23.3763  -35.9576   23.3281 H   0  0  0  0  0  0
  -24.3584  -36.8916   22.2062 H   0  0  0  0  0  0
  -23.7229  -37.6436   23.6695 H   0  0  0  0  0  0
  -26.1508  -31.4787   20.6123 H   0  0  0  0  0  0
  -26.8676  -30.7704   22.0260 H   0  0  0  0  0  0
  -28.1245  -28.8117   21.2279 H   0  0  0  0  0  0
  -25.9151  -25.8223   19.0332 H   0  0  0  0  0  0
  -23.9772  -27.2822   18.9942 H   0  0  0  0  0  0
  -23.7958  -30.5622   19.3947 H   0  0  0  0  0  0
  -22.7815  -29.2283   19.8477 H   0  0  0  0  0  0
  -25.1309  -36.1858   25.0805 H   0  0  0  0  0  0
  -21.0015  -28.3290   24.1366 H   0  0  0  0  0  0
  -20.5683  -26.2310   23.3635 H   0  0  0  0  0  0
  -21.6645  -26.7403   22.1214 H   0  0  0  0  0  0
  -19.6916  -25.6267   21.1259 H   0  0  0  0  0  0
  -19.6696  -27.3167   20.6755 H   0  0  0  0  0  0
  -17.4217  -26.6675   21.4022 H   0  0  0  0  0  0
  -18.0322  -26.0061   22.9021 H   0  0  0  0  0  0
  -19.7958  -30.7291   24.2192 H   0  0  0  0  0  0
  -17.5029  -31.6253   24.5170 H   0  0  0  0  0  0
  -15.5361  -30.2951   23.7682 H   0  0  0  0  0  0
  -15.8698  -28.0808   22.7050 H   0  0  0  0  0  0
  -24.5825  -30.7187   25.7737 H   0  0  0  0  0  0
  -24.8955  -32.2980   26.4828 H   0  0  0  0  0  0
  -25.7969  -30.8929   27.0205 H   0  0  0  0  0  0
  -26.2994  -29.6660   24.1307 H   0  0  0  0  0  0
  -27.3978  -29.7263   25.4883 H   0  0  0  0  0  0
  -27.8905  -30.4177   23.9623 H   0  0  0  0  0  0
  -27.2622  -33.3619   26.2056 H   0  0  0  0  0  0
  -28.3862  -32.6886   25.0338 H   0  0  0  0  0  0
  -28.0699  -31.8463   26.5430 H   0  0  0  0  0  0
  -28.2567  -38.0104   24.7535 H   0  0  0  0  0  0
  -28.1098  -36.2628   24.6223 H   0  0  0  0  0  0
  -27.2304  -37.1368   25.8858 H   0  0  0  0  0  0
  -20.9461  -29.8724   21.6782 H   0  0  0  0  0  0
  -26.0142  -38.2812   24.1438 H   0  0  0  0  0  0
  -30.9530  -20.4072   19.0208 H   0  0  0  0  0  0
  -31.2855  -18.0252   19.2384 H   0  0  0  0  0  0
  -27.8665  -17.7991   21.7575 H   0  0  0  0  0  0
  -30.0263  -24.9551   18.3647 H   0  0  0  0  0  0
  -30.4787  -24.7372   20.0401 H   0  0  0  0  0  0
  -30.9700  -22.5835   19.2159 H   0  0  0  0  0  0
  -29.6264  -22.5757   18.0797 H   0  0  0  0  0  0
  -27.1481  -23.0337   20.6507 H   0  0  0  0  0  0
  -28.5024  -23.5028   21.6460 H   0  0  0  0  0  0
  -27.7026  -24.6412   18.8895 H   0  0  0  0  0  0
  -28.7738  -15.6898   21.0138 H   0  0  0  0  0  0
  1 25  1  0  0  0
  1 30  2  0  0  0
  1 83  1  0  0  0
  2  3  1  0  0  0
  2 25  1  0  0  0
  2 87  1  0  0  0
  2 88  1  0  0  0
  3  4  1  0  0  0
  3 89  1  0  0  0
  3 90  1  0  0  0
  4  5  1  0  0  0
  4 91  1  0  0  0
  4 92  1  0  0  0
  5  6  1  0  0  0
  5 26  1  0  0  0
  5 93  1  0  0  0
  6 25  1  0  0  0
  6 94  1  0  0  0
  6 95  1  0  0  0
  7  8  2  0  0  0
  7 26  1  0  0  0
  7 29  1  0  0  0
  8  9  1  0  0  0
  8 22  1  0  0  0
  9 10  1  0  0  0
  9 27  2  0  0  0
 10 11  2  0  0  0
 10 15  1  0  0  0
 11 12  1  0  0  0
 11 96  1  0  0  0
 12 13  2  0  0  0
 12 97  1  0  0  0
 13 14  1  0  0  0
 13 31  1  0  0  0
 14 15  2  0  0  0
 14 98  1  0  0  0
 15 99  1  0  0  0
 16 17  2  0  0  0
 16 21  1  0  0  0
 16 31  1  0  0  0
 17 18  1  0  0  0
 17100  1  0  0  0
 18 19  2  0  0  0
 18101  1  0  0  0
 19 20  1  0  0  0
 19 24  1  0  0  0
 20 21  2  0  0  0
 20102  1  0  0  0
 21 23  1  0  0  0
 22 28  1  0  0  0
 22 32  2  0  0  0
 26 27  1  0  0  0
 28103  1  0  0  0
 28104  1  0  0  0
 29105  1  0  0  0
 29106  1  0  0  0
 33 34  1  0  0  0
 33 66  1  0  0  0
 33 70  2  0  0  0
 34 36  1  0  0  0
 34 59  1  0  0  0
 34107  1  0  0  0
 35 44  2  0  0  0
 35 45  1  0  0  0
 35 68  1  0  0  0
 36 56  1  0  0  0
 36108  1  0  0  0
 37 39  1  0  0  0
 37 47  1  0  0  0
 37 66  1  0  0  0
 37109  1  0  0  0
 38 43  2  0  0  0
 38 46  1  0  0  0
 38 47  1  0  0  0
 39 64  1  0  0  0
 39 67  2  0  0  0
 40 52  1  0  0  0
 40 53  2  0  0  0
 40 58  1  0  0  0
 41110  1  0  0  0
 41111  1  0  0  0
 41112  1  0  0  0
 41 48  1  0  0  0
 42 43  1  0  0  0
 42 66  1  0  0  0
 42113  1  0  0  0
 42114  1  0  0  0
 43 44  1  0  0  0
 44115  1  0  0  0
 45 46  2  0  0  0
 45116  1  0  0  0
 46117  1  0  0  0
 47118  1  0  0  0
 47119  1  0  0  0
 48 56  1  0  0  0
 48 65  1  0  0  0
 48120  1  0  0  0
 49 50  1  0  0  0
 49 53  1  0  0  0
 49 64  1  0  0  0
 49121  1  0  0  0
 50 51  1  0  0  0
 50122  1  0  0  0
 50123  1  0  0  0
 51 52  1  0  0  0
 51124  1  0  0  0
 51125  1  0  0  0
 52126  1  0  0  0
 52127  1  0  0  0
 53 54  1  0  0  0
 54 55  2  0  0  0
 54128  1  0  0  0
 55 57  1  0  0  0
 55129  1  0  0  0
 56 69  2  0  0  0
 57 58  2  0  0  0
 57130  1  0  0  0
 58131  1  0  0  0
 59 60  1  0  0  0
 59 61  1  0  0  0
 59 62  1  0  0  0
 60132  1  0  0  0
 60133  1  0  0  0
 60134  1  0  0  0
 61135  1  0  0  0
 61136  1  0  0  0
 61137  1  0  0  0
 62138  1  0  0  0
 62139  1  0  0  0
 62140  1  0  0  0
 63 65  1  0  0  0
 63141  1  0  0  0
 63142  1  0  0  0
 63143  1  0  0  0
 64144  1  0  0  0
 65145  1  0  0  0
 68 80  1  0  0  0
 71 72  2  0  0  0
 71 75  1  0  0  0
 71146  1  0  0  0
 72 76  1  0  0  0
 72147  1  0  0  0
 73 74  1  0  0  0
 73 76  2  0  0  0
 73148  1  0  0  0
 74 75  2  0  0  0
 74 81  1  0  0  0
 75 82  1  0  0  0
 76 83  1  0  0  0
 77 78  1  0  0  0
 77 80  1  0  0  0
 77149  1  0  0  0
 77150  1  0  0  0
 78 82  1  0  0  0
 78151  1  0  0  0
 78152  1  0  0  0
 79 80  1  0  0  0
 79 82  1  0  0  0
 79153  1  0  0  0
 79154  1  0  0  0
 80155  1  0  0  0
 81 84  1  0  0  0
 81 85  1  0  0  0
 81 86  1  0  0  0
 83156  1  0  0  0
M  ISO  4   1 100  68 101  80 101  83 100
M  END
> <chiral flag>
0

> <version>
0

> <s_m_source_file>
/data/baiqing/PycharmProjects/Reinvent-master-3.2/result/LINK_invent/BTK/process_docking_weight1_custom_product_contain_oxygen_bond_distance_aromatic_linkinvent_7_9_3/rearranged_h_0012.sdf

> <i_m_source_file_index>
74

> <r_mmod_Potential_Energy-OPLS-2005>
615.0234375

> <r_mmod_Stretch_Energy-OPLS-2005>
224.136016845703

> <r_mmod_Bend_Energy-OPLS-2005>
334.533874511719

> <r_mmod_Torsional_Energy-OPLS-2005>
250.492797851562

> <r_mmod_Improper_Torsional_Energy-OPLS-2005>
3.5887279510498

> <r_mmod_Van_der_Waal_Energy-OPLS-2005>
134.448043823242

> <r_mmod_Electrostatic_Energy-OPLS-2005>
-297.319122314453

> <r_mmod_Solvation_Energy-OPLS-2005>
-220.857055664062

> <b_mmod_Minimization_Converged-OPLS-2005>
0

> <r_mmod_RMS_Derivative-OPLS-2005>
1.79841411113739

$$$$
75
                    3D
 Structure written by MMmdl.
153162  0  0  1  0            999 V2000
  -30.5124  -14.9454   20.4268 C   0  0  0  0  0  0
  -30.4539  -12.5881   19.4866 C   0  0  0  0  0  0
  -29.5243  -12.5303   18.2507 C   0  0  0  0  0  0
  -28.0576  -12.3138   18.6724 C   0  0  0  0  0  0
  -27.6349  -13.2403   19.8414 C   0  0  2  0  0  0
  -28.6810  -13.2483   20.9769 C   0  0  0  0  0  0
  -25.2483  -13.8193   20.5694 C   0  0  0  0  0  0
  -24.1794  -13.0428   20.9226 C   0  0  0  0  0  0
  -24.6407  -11.6915   20.8770 C   0  0  0  0  0  0
  -23.9079  -10.4290   21.0423 C   0  0  0  0  0  0
  -24.3632   -9.4206   21.9193 C   0  0  0  0  0  0
  -23.6306   -8.2238   22.0758 C   0  0  0  0  0  0
  -22.4282   -8.0286   21.3551 C   0  0  0  0  0  0
  -21.9922   -9.0257   20.4645 C   0  0  0  0  0  0
  -22.7255  -10.2134   20.3061 C   0  0  0  0  0  0
  -21.6847   -6.0745   22.5281 C   0  0  0  0  0  0
  -21.4007   -6.5649   23.8215 C   0  0  0  0  0  0
  -21.3661   -5.6797   24.9176 C   0  0  0  0  0  0
  -21.6042   -4.3057   24.7221 C   0  0  0  0  0  0
  -21.8821   -3.8153   23.4341 C   0  0  0  0  0  0
  -21.9191   -4.6974   22.3401 C   0  0  0  0  0  0
  -22.7817  -13.5207   21.1887 C   0  0  0  0  0  0
  -22.1661   -4.2164   21.0978 F   0  0  0  0  0  0
  -21.5632   -3.4537   25.7730 F   0  0  0  0  0  0
  -29.9566  -13.6690   20.3806 N   0  0  0  0  0  0
  -26.2915  -12.9414   20.3261 N   0  0  0  0  0  0
  -25.9339  -11.6553   20.5756 N   0  0  0  0  0  0
  -22.0460  -12.8197   22.0440 N   0  0  0  0  0  0
  -25.4122  -15.1925   20.4096 N   0  0  0  0  0  0
  -31.7195  -15.0584   20.1825 O   0  0  0  0  0  0
  -21.6643   -6.8888   21.4245 O   0  0  0  0  0  0
  -22.3510  -14.5521   20.6742 O   0  0  0  0  0  0
  -24.6434  -31.8431   23.1850 C   0  0  0  0  0  0
  -25.9196  -32.4701   23.8256 C   0  0  1  0  0  0
  -27.2326  -27.1409   20.1683 C   0  0  0  0  0  0
  -25.5950  -33.8504   24.2190 N   0  0  0  0  0  0
  -23.4492  -30.4591   21.5291 C   0  0  2  0  0  0
  -24.9021  -28.8758   20.1177 C   0  0  0  0  0  0
  -22.7566  -29.4548   22.4844 C   0  0  0  0  0  0
  -18.0300  -28.1413   22.8495 C   0  0  0  0  0  0
  -24.1474  -36.7244   23.2641 C   0  0  0  0  0  0
  -26.0030  -30.7202   21.3797 C   0  0  0  0  0  0
  -26.0780  -29.3278   20.7307 C   0  0  0  0  0  0
  -27.2469  -28.4787   20.7313 C   0  0  0  0  0  0
  -26.0302  -26.7785   19.5273 C   0  0  0  0  0  0
  -24.8896  -27.6139   19.5006 C   0  0  0  0  0  0
  -23.6786  -29.7790   20.1524 C   0  0  0  0  0  0
  -25.4108  -36.3033   24.0324 C   0  0  1  0  0  0
  -20.5921  -28.3735   23.1235 C   0  0  2  0  0  0
  -20.6786  -26.9434   22.5411 C   0  0  0  0  0  0
  -19.5758  -26.6388   21.5224 C   0  0  0  0  0  0
  -18.1935  -26.7954   22.1628 C   0  0  0  0  0  0
  -19.1566  -28.8888   23.2863 C   0  0  0  0  0  0
  -18.9484  -30.1487   23.8885 C   0  0  0  0  0  0
  -17.6484  -30.6613   24.0569 C   0  0  0  0  0  0
  -25.9064  -34.9412   23.5068 C   0  0  0  0  0  0
  -16.5371  -29.9113   23.6341 C   0  0  0  0  0  0
  -16.7286  -28.6526   23.0367 C   0  0  0  0  0  0
  -26.4521  -31.6570   25.0696 C   0  0  0  0  0  0
  -25.3715  -31.3787   26.1408 C   0  0  0  0  0  0
  -27.0366  -30.2966   24.6255 C   0  0  0  0  0  0
  -27.6058  -32.4325   25.7483 C   0  0  0  0  0  0
  -27.5577  -37.1756   24.8457 C   0  0  0  0  0  0
  -21.4256  -29.3063   22.3603 N   0  0  0  0  0  0
  -26.4260  -37.3759   23.9445 N   0  0  0  0  0  0
  -24.7185  -31.0293   22.0871 N   0  0  0  0  0  0
  -23.4199  -28.8088   23.2997 O   0  0  0  0  0  0
  -28.3151  -26.1911   20.1746 O   0  0  0  0  0  0
  -26.5646  -34.8915   22.4637 O   0  0  0  0  0  0
  -23.5551  -32.1289   23.7081 O   0  0  0  0  0  0
  -28.5106  -19.7951   19.7197 C   0  0  0  0  0  0
  -28.6779  -18.3466   19.6993 C   0  0  0  0  0  0
  -30.4501  -18.4981   21.2309 C   0  0  0  0  0  0
  -29.2680  -20.6976   20.5387 C   0  0  0  0  0  0
  -29.6550  -17.5964   20.4478 C   0  0  0  0  0  0
  -30.2619  -19.9460   21.2854 C   0  0  0  0  0  0
  -28.9879  -24.3619   21.8192 C   0  0  0  0  0  0
  -29.0254  -22.8086   21.9973 C   0  0  0  0  0  0
  -28.5814  -23.3177   19.7462 C   0  0  0  0  0  0
  -28.1522  -24.6911   20.5664 C   0  0  2  0  0  0
  -29.0343  -22.1768   20.6731 N   0  0  0  0  0  0
  -29.6315  -16.0573   20.5080 N   0  0  0  0  0  0
  -31.0940  -20.6281   22.1093 F   0  0  0  0  0  0
  -31.4829  -12.7700   19.1704 H   0  0  0  0  0  0
  -30.4665  -11.6314   20.0106 H   0  0  0  0  0  0
  -29.8423  -11.7344   17.5755 H   0  0  0  0  0  0
  -29.6075  -13.4611   17.6859 H   0  0  0  0  0  0
  -27.9546  -11.2712   18.9768 H   0  0  0  0  0  0
  -27.3911  -12.4470   17.8197 H   0  0  0  0  0  0
  -27.6014  -14.2450   19.4196 H   0  0  0  0  0  0
  -28.7706  -12.2644   21.4403 H   0  0  0  0  0  0
  -28.3823  -13.9356   21.7704 H   0  0  0  0  0  0
  -25.2775   -9.5678   22.4772 H   0  0  0  0  0  0
  -24.0012   -7.4625   22.7471 H   0  0  0  0  0  0
  -21.0855   -8.8778   19.8943 H   0  0  0  0  0  0
  -22.3721  -10.9679   19.6173 H   0  0  0  0  0  0
  -21.1994   -7.6157   23.9724 H   0  0  0  0  0  0
  -21.1480   -6.0524   25.9080 H   0  0  0  0  0  0
  -22.0597   -2.7613   23.2830 H   0  0  0  0  0  0
  -22.4073  -11.9850   22.4814 H   0  0  0  0  0  0
  -21.1081  -13.1233   22.2647 H   0  0  0  0  0  0
  -24.6319  -15.8331   20.5085 H   0  0  0  0  0  0
  -26.2414  -15.6380   20.0421 H   0  0  0  0  0  0
  -26.7265  -32.5314   23.0991 H   0  0  0  0  0  0
  -25.0110  -33.9617   25.0350 H   0  0  0  0  0  0
  -22.7542  -31.2858   21.3686 H   0  0  0  0  0  0
  -23.3763  -35.9545   23.3262 H   0  0  0  0  0  0
  -24.3576  -36.8899   22.2065 H   0  0  0  0  0  0
  -23.7175  -37.6411   23.6686 H   0  0  0  0  0  0
  -26.1505  -31.4682   20.6002 H   0  0  0  0  0  0
  -26.8767  -30.7819   22.0167 H   0  0  0  0  0  0
  -28.1493  -28.8286   21.2127 H   0  0  0  0  0  0
  -25.9643  -25.8093   19.0531 H   0  0  0  0  0  0
  -23.9902  -27.2617   19.0141 H   0  0  0  0  0  0
  -23.8201  -30.5481   19.3926 H   0  0  0  0  0  0
  -22.7949  -29.2195   19.8403 H   0  0  0  0  0  0
  -25.1281  -36.1845   25.0809 H   0  0  0  0  0  0
  -21.0026  -28.3317   24.1354 H   0  0  0  0  0  0
  -20.5683  -26.2346   23.3632 H   0  0  0  0  0  0
  -21.6646  -26.7432   22.1195 H   0  0  0  0  0  0
  -19.6909  -25.6293   21.1265 H   0  0  0  0  0  0
  -19.6694  -27.3196   20.6753 H   0  0  0  0  0  0
  -17.4206  -26.6715   21.4030 H   0  0  0  0  0  0
  -18.0323  -26.0112   22.9034 H   0  0  0  0  0  0
  -19.7963  -30.7314   24.2232 H   0  0  0  0  0  0
  -17.5044  -31.6293   24.5176 H   0  0  0  0  0  0
  -15.5372  -30.3022   23.7688 H   0  0  0  0  0  0
  -15.8679  -28.0850   22.7093 H   0  0  0  0  0  0
  -24.5884  -30.7140   25.7749 H   0  0  0  0  0  0
  -24.8930  -32.2992   26.4763 H   0  0  0  0  0  0
  -25.8012  -30.9008   27.0225 H   0  0  0  0  0  0
  -26.2968  -29.6712   24.1252 H   0  0  0  0  0  0
  -27.3990  -29.7238   25.4800 H   0  0  0  0  0  0
  -27.8871  -30.4214   23.9552 H   0  0  0  0  0  0
  -27.2670  -33.3680   26.1950 H   0  0  0  0  0  0
  -28.3942  -32.6784   25.0357 H   0  0  0  0  0  0
  -28.0639  -31.8508   26.5492 H   0  0  0  0  0  0
  -28.2523  -38.0123   24.7605 H   0  0  0  0  0  0
  -28.1134  -36.2659   24.6136 H   0  0  0  0  0  0
  -27.2325  -37.1222   25.8861 H   0  0  0  0  0  0
  -20.9456  -29.8794   21.6807 H   0  0  0  0  0  0
  -26.0115  -38.2801   24.1538 H   0  0  0  0  0  0
  -27.7218  -20.2134   19.1123 H   0  0  0  0  0  0
  -27.9881  -17.7896   19.0812 H   0  0  0  0  0  0
  -31.2131  -18.0768   21.8688 H   0  0  0  0  0  0
  -30.0074  -24.7186   21.6665 H   0  0  0  0  0  0
  -28.6096  -24.8656   22.7098 H   0  0  0  0  0  0
  -28.1298  -22.4798   22.5275 H   0  0  0  0  0  0
  -29.8805  -22.5229   22.6087 H   0  0  0  0  0  0
  -29.4176  -23.5506   19.0851 H   0  0  0  0  0  0
  -27.7661  -22.9887   19.1010 H   0  0  0  0  0  0
  -27.1078  -24.5597   20.8502 H   0  0  0  0  0  0
  -28.6880  -15.7050   20.5335 H   0  0  0  0  0  0
  1 25  1  0  0  0
  1 30  2  0  0  0
  1 82  1  0  0  0
  2  3  1  0  0  0
  2 25  1  0  0  0
  2 84  1  0  0  0
  2 85  1  0  0  0
  3  4  1  0  0  0
  3 86  1  0  0  0
  3 87  1  0  0  0
  4  5  1  0  0  0
  4 88  1  0  0  0
  4 89  1  0  0  0
  5  6  1  0  0  0
  5 26  1  0  0  0
  5 90  1  0  0  0
  6 25  1  0  0  0
  6 91  1  0  0  0
  6 92  1  0  0  0
  7  8  2  0  0  0
  7 26  1  0  0  0
  7 29  1  0  0  0
  8  9  1  0  0  0
  8 22  1  0  0  0
  9 10  1  0  0  0
  9 27  2  0  0  0
 10 11  2  0  0  0
 10 15  1  0  0  0
 11 12  1  0  0  0
 11 93  1  0  0  0
 12 13  2  0  0  0
 12 94  1  0  0  0
 13 14  1  0  0  0
 13 31  1  0  0  0
 14 15  2  0  0  0
 14 95  1  0  0  0
 15 96  1  0  0  0
 16 17  2  0  0  0
 16 21  1  0  0  0
 16 31  1  0  0  0
 17 18  1  0  0  0
 17 97  1  0  0  0
 18 19  2  0  0  0
 18 98  1  0  0  0
 19 20  1  0  0  0
 19 24  1  0  0  0
 20 21  2  0  0  0
 20 99  1  0  0  0
 21 23  1  0  0  0
 22 28  1  0  0  0
 22 32  2  0  0  0
 26 27  1  0  0  0
 28100  1  0  0  0
 28101  1  0  0  0
 29102  1  0  0  0
 29103  1  0  0  0
 33 34  1  0  0  0
 33 66  1  0  0  0
 33 70  2  0  0  0
 34 36  1  0  0  0
 34 59  1  0  0  0
 34104  1  0  0  0
 35 44  2  0  0  0
 35 45  1  0  0  0
 35 68  1  0  0  0
 36 56  1  0  0  0
 36105  1  0  0  0
 37 39  1  0  0  0
 37 47  1  0  0  0
 37 66  1  0  0  0
 37106  1  0  0  0
 38 43  2  0  0  0
 38 46  1  0  0  0
 38 47  1  0  0  0
 39 64  1  0  0  0
 39 67  2  0  0  0
 40 52  1  0  0  0
 40 53  2  0  0  0
 40 58  1  0  0  0
 41107  1  0  0  0
 41108  1  0  0  0
 41109  1  0  0  0
 41 48  1  0  0  0
 42 43  1  0  0  0
 42 66  1  0  0  0
 42110  1  0  0  0
 42111  1  0  0  0
 43 44  1  0  0  0
 44112  1  0  0  0
 45 46  2  0  0  0
 45113  1  0  0  0
 46114  1  0  0  0
 47115  1  0  0  0
 47116  1  0  0  0
 48 56  1  0  0  0
 48 65  1  0  0  0
 48117  1  0  0  0
 49 50  1  0  0  0
 49 53  1  0  0  0
 49 64  1  0  0  0
 49118  1  0  0  0
 50 51  1  0  0  0
 50119  1  0  0  0
 50120  1  0  0  0
 51 52  1  0  0  0
 51121  1  0  0  0
 51122  1  0  0  0
 52123  1  0  0  0
 52124  1  0  0  0
 53 54  1  0  0  0
 54 55  2  0  0  0
 54125  1  0  0  0
 55 57  1  0  0  0
 55126  1  0  0  0
 56 69  2  0  0  0
 57 58  2  0  0  0
 57127  1  0  0  0
 58128  1  0  0  0
 59 60  1  0  0  0
 59 61  1  0  0  0
 59 62  1  0  0  0
 60129  1  0  0  0
 60130  1  0  0  0
 60131  1  0  0  0
 61132  1  0  0  0
 61133  1  0  0  0
 61134  1  0  0  0
 62135  1  0  0  0
 62136  1  0  0  0
 62137  1  0  0  0
 63 65  1  0  0  0
 63138  1  0  0  0
 63139  1  0  0  0
 63140  1  0  0  0
 64141  1  0  0  0
 65142  1  0  0  0
 68 80  1  0  0  0
 71 72  2  0  0  0
 71 74  1  0  0  0
 71143  1  0  0  0
 72 75  1  0  0  0
 72144  1  0  0  0
 73 75  2  0  0  0
 73 76  1  0  0  0
 73145  1  0  0  0
 74 76  2  0  0  0
 74 81  1  0  0  0
 75 82  1  0  0  0
 76 83  1  0  0  0
 77 78  1  0  0  0
 77 80  1  0  0  0
 77146  1  0  0  0
 77147  1  0  0  0
 78 81  1  0  0  0
 78148  1  0  0  0
 78149  1  0  0  0
 79 80  1  0  0  0
 79 81  1  0  0  0
 79150  1  0  0  0
 79151  1  0  0  0
 80152  1  0  0  0
 82153  1  0  0  0
M  ISO  4   1 100  68 101  80 101  82 100
M  END
> <chiral flag>
0

> <version>
0

> <s_m_source_file>
/data/baiqing/PycharmProjects/Reinvent-master-3.2/result/LINK_invent/BTK/process_docking_weight1_custom_product_contain_oxygen_bond_distance_aromatic_linkinvent_7_9_3/rearranged_h_0012.sdf

> <i_m_source_file_index>
75

> <r_mmod_Potential_Energy-OPLS-2005>
592.114562988281

> <r_mmod_Stretch_Energy-OPLS-2005>
218.330841064453

> <r_mmod_Bend_Energy-OPLS-2005>
308.939666748047

> <r_mmod_Torsional_Energy-OPLS-2005>
300.988464355469

> <r_mmod_Improper_Torsional_Energy-OPLS-2005>
7.21998405456543

> <r_mmod_Van_der_Waal_Energy-OPLS-2005>
124.425346374512

> <r_mmod_Electrostatic_Energy-OPLS-2005>
-326.940246582031

> <r_mmod_Solvation_Energy-OPLS-2005>
-227.665924072266

> <b_mmod_Minimization_Converged-OPLS-2005>
0

> <r_mmod_RMS_Derivative-OPLS-2005>
1.55988013744354

$$$$
76
                    3D
 Structure written by MMmdl.
156164  0  0  1  0            999 V2000
  -30.6227  -14.6204   20.5328 C   0  0  0  0  0  0
  -30.4436  -12.3904   19.4494 C   0  0  0  0  0  0
  -29.5081  -12.5178   18.2242 C   0  0  0  0  0  0
  -28.0300  -12.3569   18.6349 C   0  0  0  0  0  0
  -27.6580  -13.2148   19.8739 C   0  0  2  0  0  0
  -28.7018  -13.0412   21.0008 C   0  0  0  0  0  0
  -25.2569  -13.8166   20.5699 C   0  0  0  0  0  0
  -24.1835  -13.0439   20.9203 C   0  0  0  0  0  0
  -24.6406  -11.6902   20.8767 C   0  0  0  0  0  0
  -23.9091  -10.4288   21.0429 C   0  0  0  0  0  0
  -24.3638   -9.4188   21.9197 C   0  0  0  0  0  0
  -23.6296   -8.2230   22.0755 C   0  0  0  0  0  0
  -22.4271   -8.0286   21.3553 C   0  0  0  0  0  0
  -21.9928   -9.0266   20.4653 C   0  0  0  0  0  0
  -22.7274  -10.2135   20.3062 C   0  0  0  0  0  0
  -21.6850   -6.0743   22.5289 C   0  0  0  0  0  0
  -21.4010   -6.5640   23.8223 C   0  0  0  0  0  0
  -21.3654   -5.6792   24.9179 C   0  0  0  0  0  0
  -21.6045   -4.3056   24.7237 C   0  0  0  0  0  0
  -21.8816   -3.8152   23.4355 C   0  0  0  0  0  0
  -21.9190   -4.6972   22.3410 C   0  0  0  0  0  0
  -22.7855  -13.5231   21.1864 C   0  0  0  0  0  0
  -22.1652   -4.2160   21.0989 F   0  0  0  0  0  0
  -21.5638   -3.4539   25.7745 F   0  0  0  0  0  0
  -30.0204  -13.3933   20.4449 N   0  0  0  0  0  0
  -26.3005  -12.9348   20.3364 N   0  0  0  0  0  0
  -25.9338  -11.6506   20.5792 N   0  0  0  0  0  0
  -22.0499  -12.8212   22.0412 N   0  0  0  0  0  0
  -25.4308  -15.1891   20.4106 N   0  0  0  0  0  0
  -31.7720  -14.8057   20.1195 O   0  0  0  0  0  0
  -21.6629   -6.8885   21.4248 O   0  0  0  0  0  0
  -22.3540  -14.5546   20.6718 O   0  0  0  0  0  0
  -24.6249  -31.8604   23.2040 C   0  0  0  0  0  0
  -25.9107  -32.4780   23.8352 C   0  0  1  0  0  0
  -27.2245  -27.3257   20.1089 C   0  0  0  0  0  0
  -25.5919  -33.8577   24.2271 N   0  0  0  0  0  0
  -23.4184  -30.4827   21.5493 C   0  0  2  0  0  0
  -24.8643  -28.9426   20.1094 C   0  0  0  0  0  0
  -22.7488  -29.4601   22.4969 C   0  0  0  0  0  0
  -18.0285  -28.1401   22.8491 C   0  0  0  0  0  0
  -24.1492  -36.7299   23.2635 C   0  0  0  0  0  0
  -25.9600  -30.7884   21.3767 C   0  0  0  0  0  0
  -26.0321  -29.4176   20.7186 C   0  0  0  0  0  0
  -27.2137  -28.6201   20.7108 C   0  0  0  0  0  0
  -26.0339  -26.9070   19.4664 C   0  0  0  0  0  0
  -24.8683  -27.6936   19.4721 C   0  0  0  0  0  0
  -23.6319  -29.8214   20.1631 C   0  0  0  0  0  0
  -25.4114  -36.3083   24.0323 C   0  0  1  0  0  0
  -20.5885  -28.3687   23.1311 C   0  0  2  0  0  0
  -20.6790  -26.9415   22.5425 C   0  0  0  0  0  0
  -19.5760  -26.6393   21.5239 C   0  0  0  0  0  0
  -18.1931  -26.7939   22.1640 C   0  0  0  0  0  0
  -19.1535  -28.8870   23.2888 C   0  0  0  0  0  0
  -18.9455  -30.1483   23.8884 C   0  0  0  0  0  0
  -17.6449  -30.6593   24.0577 C   0  0  0  0  0  0
  -25.9054  -34.9450   23.5101 C   0  0  0  0  0  0
  -16.5343  -29.9093   23.6338 C   0  0  0  0  0  0
  -16.7269  -28.6526   23.0332 C   0  0  0  0  0  0
  -26.4486  -31.6585   25.0719 C   0  0  0  0  0  0
  -25.3695  -31.3726   26.1433 C   0  0  0  0  0  0
  -27.0321  -30.3002   24.6170 C   0  0  0  0  0  0
  -27.6059  -32.4311   25.7484 C   0  0  0  0  0  0
  -27.5583  -37.1796   24.8456 C   0  0  0  0  0  0
  -21.4205  -29.3018   22.3709 N   0  0  0  0  0  0
  -26.4290  -37.3777   23.9408 N   0  0  0  0  0  0
  -24.6866  -31.0607   22.0999 N   0  0  0  0  0  0
  -23.4221  -28.8124   23.3026 O   0  0  0  0  0  0
  -28.3486  -26.4868   20.1710 O   0  0  0  0  0  0
  -26.5631  -34.8919   22.4671 O   0  0  0  0  0  0
  -23.5416  -32.1401   23.7366 O   0  0  0  0  0  0
  -30.9222  -19.2816   20.3666 C   0  0  0  0  0  0
  -30.9536  -17.8527   20.3791 C   0  0  0  0  0  0
  -28.7484  -17.8413   21.3412 C   0  0  0  0  0  0
  -29.8142  -20.0288   20.8588 C   0  0  0  0  0  0
  -29.8673  -17.0907   20.8857 C   0  0  0  0  0  0
  -28.7170  -19.2669   21.3303 C   0  0  0  0  0  0
  -29.0566  -22.1451   18.7731 C   0  0  0  0  0  0
  -29.8835  -21.5940   21.0345 C   0  0  0  0  0  0
  -29.2668  -24.0150   20.4422 C   0  0  0  0  0  0
  -28.1638  -25.0395   19.9250 C   0  0  0  0  0  0
  -29.8138  -15.6311   20.9741 N   0  0  0  0  0  0
  -29.0135  -22.5218   20.2067 N   0  3  1  0  0  0
  -27.6240  -19.9085   21.8082 F   0  0  0  0  0  0
  -31.4829  -12.5269   19.1443 H   0  0  0  0  0  0
  -30.3879  -11.3892   19.8800 H   0  0  0  0  0  0
  -29.7709  -11.7720   17.4731 H   0  0  0  0  0  0
  -29.6509  -13.4892   17.7476 H   0  0  0  0  0  0
  -27.8645  -11.3021   18.8546 H   0  0  0  0  0  0
  -27.3750  -12.5977   17.7969 H   0  0  0  0  0  0
  -27.6830  -14.2570   19.5533 H   0  0  0  0  0  0
  -28.7095  -12.0081   21.3546 H   0  0  0  0  0  0
  -28.4444  -13.6477   21.8707 H   0  0  0  0  0  0
  -25.2792   -9.5634   22.4769 H   0  0  0  0  0  0
  -24.0006   -7.4610   22.7452 H   0  0  0  0  0  0
  -21.0873   -8.8799   19.8949 H   0  0  0  0  0  0
  -22.3769  -10.9675   19.6157 H   0  0  0  0  0  0
  -21.1990   -7.6150   23.9734 H   0  0  0  0  0  0
  -21.1479   -6.0522   25.9089 H   0  0  0  0  0  0
  -22.0601   -2.7620   23.2859 H   0  0  0  0  0  0
  -22.4129  -11.9861   22.4780 H   0  0  0  0  0  0
  -21.1118  -13.1224   22.2628 H   0  0  0  0  0  0
  -24.6690  -15.8485   20.5245 H   0  0  0  0  0  0
  -26.2789  -15.6217   20.0692 H   0  0  0  0  0  0
  -26.7158  -32.5448   23.1088 H   0  0  0  0  0  0
  -25.0050  -33.9725   25.0408 H   0  0  0  0  0  0
  -22.7091  -31.3014   21.4099 H   0  0  0  0  0  0
  -23.3761  -35.9629   23.3289 H   0  0  0  0  0  0
  -24.3572  -36.8928   22.2048 H   0  0  0  0  0  0
  -23.7242  -37.6493   23.6672 H   0  0  0  0  0  0
  -26.0897  -31.5479   20.6045 H   0  0  0  0  0  0
  -26.8432  -30.8386   22.0030 H   0  0  0  0  0  0
  -28.1090  -28.9774   21.1988 H   0  0  0  0  0  0
  -25.9698  -25.9602   18.9515 H   0  0  0  0  0  0
  -23.9775  -27.3297   18.9776 H   0  0  0  0  0  0
  -23.7455  -30.6008   19.4088 H   0  0  0  0  0  0
  -22.7530  -29.2484   19.8644 H   0  0  0  0  0  0
  -25.1292  -36.1927   25.0813 H   0  0  0  0  0  0
  -20.9964  -28.3255   24.1442 H   0  0  0  0  0  0
  -20.5746  -26.2278   23.3611 H   0  0  0  0  0  0
  -21.6646  -26.7480   22.1171 H   0  0  0  0  0  0
  -19.6921  -25.6313   21.1252 H   0  0  0  0  0  0
  -19.6706  -27.3233   20.6793 H   0  0  0  0  0  0
  -17.4210  -26.6703   21.4033 H   0  0  0  0  0  0
  -18.0312  -26.0087   22.9037 H   0  0  0  0  0  0
  -19.7924  -30.7328   24.2222 H   0  0  0  0  0  0
  -17.4990  -31.6263   24.5204 H   0  0  0  0  0  0
  -15.5344  -30.2984   23.7675 H   0  0  0  0  0  0
  -15.8672  -28.0863   22.7010 H   0  0  0  0  0  0
  -24.5895  -30.7058   25.7739 H   0  0  0  0  0  0
  -24.8866  -32.2899   26.4813 H   0  0  0  0  0  0
  -25.7985  -30.8918   27.0234 H   0  0  0  0  0  0
  -26.2893  -29.6765   24.1187 H   0  0  0  0  0  0
  -27.4010  -29.7236   25.4663 H   0  0  0  0  0  0
  -27.8767  -30.4285   23.9397 H   0  0  0  0  0  0
  -27.2695  -33.3636   26.2029 H   0  0  0  0  0  0
  -28.3885  -32.6819   25.0311 H   0  0  0  0  0  0
  -28.0716  -31.8448   26.5419 H   0  0  0  0  0  0
  -28.2575  -38.0117   24.7527 H   0  0  0  0  0  0
  -28.1104  -36.2646   24.6252 H   0  0  0  0  0  0
  -27.2301  -37.1395   25.8857 H   0  0  0  0  0  0
  -20.9406  -29.8698   21.6872 H   0  0  0  0  0  0
  -26.0172  -38.2848   24.1429 H   0  0  0  0  0  0
  -31.7975  -19.8061   20.0088 H   0  0  0  0  0  0
  -31.8398  -17.3529   20.0135 H   0  0  0  0  0  0
  -27.8840  -17.3223   21.7307 H   0  0  0  0  0  0
  -28.6608  -21.1388   18.6306 H   0  0  0  0  0  0
  -30.0801  -22.1541   18.3970 H   0  0  0  0  0  0
  -28.4596  -22.8099   18.1509 H   0  0  0  0  0  0
  -30.9208  -21.8866   20.8639 H   0  0  0  0  0  0
  -29.6961  -21.8110   22.0879 H   0  0  0  0  0  0
  -29.3654  -24.1693   21.5170 H   0  0  0  0  0  0
  -30.2367  -24.2790   20.0180 H   0  0  0  0  0  0
  -27.2213  -24.7197   20.3725 H   0  0  0  0  0  0
  -28.0538  -24.9266   18.8467 H   0  0  0  0  0  0
  -28.9436  -15.2683   21.3335 H   0  0  0  0  0  0
  -28.0693  -22.3440   20.5176 H   0  0  0  0  0  0
  1 25  1  0  0  0
  1 30  2  0  0  0
  1 81  1  0  0  0
  2  3  1  0  0  0
  2 25  1  0  0  0
  2 84  1  0  0  0
  2 85  1  0  0  0
  3  4  1  0  0  0
  3 86  1  0  0  0
  3 87  1  0  0  0
  4  5  1  0  0  0
  4 88  1  0  0  0
  4 89  1  0  0  0
  5  6  1  0  0  0
  5 26  1  0  0  0
  5 90  1  0  0  0
  6 25  1  0  0  0
  6 91  1  0  0  0
  6 92  1  0  0  0
  7  8  2  0  0  0
  7 26  1  0  0  0
  7 29  1  0  0  0
  8  9  1  0  0  0
  8 22  1  0  0  0
  9 10  1  0  0  0
  9 27  2  0  0  0
 10 11  2  0  0  0
 10 15  1  0  0  0
 11 12  1  0  0  0
 11 93  1  0  0  0
 12 13  2  0  0  0
 12 94  1  0  0  0
 13 14  1  0  0  0
 13 31  1  0  0  0
 14 15  2  0  0  0
 14 95  1  0  0  0
 15 96  1  0  0  0
 16 17  2  0  0  0
 16 21  1  0  0  0
 16 31  1  0  0  0
 17 18  1  0  0  0
 17 97  1  0  0  0
 18 19  2  0  0  0
 18 98  1  0  0  0
 19 20  1  0  0  0
 19 24  1  0  0  0
 20 21  2  0  0  0
 20 99  1  0  0  0
 21 23  1  0  0  0
 22 28  1  0  0  0
 22 32  2  0  0  0
 26 27  1  0  0  0
 28100  1  0  0  0
 28101  1  0  0  0
 29102  1  0  0  0
 29103  1  0  0  0
 33 34  1  0  0  0
 33 66  1  0  0  0
 33 70  2  0  0  0
 34 36  1  0  0  0
 34 59  1  0  0  0
 34104  1  0  0  0
 35 44  2  0  0  0
 35 45  1  0  0  0
 35 68  1  0  0  0
 36 56  1  0  0  0
 36105  1  0  0  0
 37 39  1  0  0  0
 37 47  1  0  0  0
 37 66  1  0  0  0
 37106  1  0  0  0
 38 43  2  0  0  0
 38 46  1  0  0  0
 38 47  1  0  0  0
 39 64  1  0  0  0
 39 67  2  0  0  0
 40 52  1  0  0  0
 40 53  2  0  0  0
 40 58  1  0  0  0
 41107  1  0  0  0
 41108  1  0  0  0
 41109  1  0  0  0
 41 48  1  0  0  0
 42 43  1  0  0  0
 42 66  1  0  0  0
 42110  1  0  0  0
 42111  1  0  0  0
 43 44  1  0  0  0
 44112  1  0  0  0
 45 46  2  0  0  0
 45113  1  0  0  0
 46114  1  0  0  0
 47115  1  0  0  0
 47116  1  0  0  0
 48 56  1  0  0  0
 48 65  1  0  0  0
 48117  1  0  0  0
 49 50  1  0  0  0
 49 53  1  0  0  0
 49 64  1  0  0  0
 49118  1  0  0  0
 50 51  1  0  0  0
 50119  1  0  0  0
 50120  1  0  0  0
 51 52  1  0  0  0
 51121  1  0  0  0
 51122  1  0  0  0
 52123  1  0  0  0
 52124  1  0  0  0
 53 54  1  0  0  0
 54 55  2  0  0  0
 54125  1  0  0  0
 55 57  1  0  0  0
 55126  1  0  0  0
 56 69  2  0  0  0
 57 58  2  0  0  0
 57127  1  0  0  0
 58128  1  0  0  0
 59 60  1  0  0  0
 59 61  1  0  0  0
 59 62  1  0  0  0
 60129  1  0  0  0
 60130  1  0  0  0
 60131  1  0  0  0
 61132  1  0  0  0
 61133  1  0  0  0
 61134  1  0  0  0
 62135  1  0  0  0
 62136  1  0  0  0
 62137  1  0  0  0
 63 65  1  0  0  0
 63138  1  0  0  0
 63139  1  0  0  0
 63140  1  0  0  0
 64141  1  0  0  0
 65142  1  0  0  0
 68 80  1  0  0  0
 71 72  2  0  0  0
 71 74  1  0  0  0
 71143  1  0  0  0
 72 75  1  0  0  0
 72144  1  0  0  0
 73 75  2  0  0  0
 73 76  1  0  0  0
 73145  1  0  0  0
 74 76  2  0  0  0
 74 78  1  0  0  0
 75 81  1  0  0  0
 76 83  1  0  0  0
 77146  1  0  0  0
 77147  1  0  0  0
 77148  1  0  0  0
 77 82  1  0  0  0
 78 82  1  0  0  0
 78149  1  0  0  0
 78150  1  0  0  0
 79 80  1  0  0  0
 79 82  1  0  0  0
 79151  1  0  0  0
 79152  1  0  0  0
 80153  1  0  0  0
 80154  1  0  0  0
 81155  1  0  0  0
 82156  1  0  0  0
M  CHG  1  82   1
M  ISO  4   1 100  68 101  80 101  81 100
M  END
> <chiral flag>
0

> <version>
0

> <s_m_source_file>
/data/baiqing/PycharmProjects/Reinvent-master-3.2/result/LINK_invent/BTK/process_docking_weight1_custom_product_contain_oxygen_bond_distance_aromatic_linkinvent_7_9_3/rearranged_h_0012.sdf

> <i_m_source_file_index>
76

> <r_mmod_Potential_Energy-OPLS-2005>
-72.4477767944336

> <r_mmod_Stretch_Energy-OPLS-2005>
77.2074813842773

> <r_mmod_Bend_Energy-OPLS-2005>
137.644012451172

> <r_mmod_Torsional_Energy-OPLS-2005>
204.07666015625

> <r_mmod_Improper_Torsional_Energy-OPLS-2005>
4.14148139953613

> <r_mmod_Van_der_Waal_Energy-OPLS-2005>
145.579650878906

> <r_mmod_Electrostatic_Energy-OPLS-2005>
-253.568542480469

> <r_mmod_Solvation_Energy-OPLS-2005>
-431.46044921875

> <b_mmod_Minimization_Converged-OPLS-2005>
0

> <r_mmod_RMS_Derivative-OPLS-2005>
1.99835777282715

$$$$
77
                    3D
 Structure written by MMmdl.
160168  0  0  1  0            999 V2000
  -30.6987  -14.6273   20.5419 C   0  0  0  0  0  0
  -30.4200  -12.4035   19.4526 C   0  0  0  0  0  0
  -29.4947  -12.5170   18.2224 C   0  0  0  0  0  0
  -28.0189  -12.3622   18.6359 C   0  0  0  0  0  0
  -27.6491  -13.2301   19.8694 C   0  0  2  0  0  0
  -28.6988  -13.0770   20.9916 C   0  0  0  0  0  0
  -25.2465  -13.8193   20.5621 C   0  0  0  0  0  0
  -24.1781  -13.0433   20.9189 C   0  0  0  0  0  0
  -24.6396  -11.6923   20.8771 C   0  0  0  0  0  0
  -23.9076  -10.4295   21.0423 C   0  0  0  0  0  0
  -24.3622   -9.4207   21.9195 C   0  0  0  0  0  0
  -23.6298   -8.2241   22.0759 C   0  0  0  0  0  0
  -22.4280   -8.0281   21.3547 C   0  0  0  0  0  0
  -21.9920   -9.0257   20.4649 C   0  0  0  0  0  0
  -22.7250  -10.2136   20.3066 C   0  0  0  0  0  0
  -21.6850   -6.0735   22.5280 C   0  0  0  0  0  0
  -21.4011   -6.5639   23.8213 C   0  0  0  0  0  0
  -21.3662   -5.6791   24.9177 C   0  0  0  0  0  0
  -21.6047   -4.3054   24.7227 C   0  0  0  0  0  0
  -21.8818   -3.8144   23.4346 C   0  0  0  0  0  0
  -21.9191   -4.6962   22.3403 C   0  0  0  0  0  0
  -22.7799  -13.5205   21.1852 C   0  0  0  0  0  0
  -22.1659   -4.2147   21.0980 F   0  0  0  0  0  0
  -21.5634   -3.4538   25.7741 F   0  0  0  0  0  0
  -30.0038  -13.4430   20.4239 N   0  0  0  0  0  0
  -26.2963  -12.9428   20.3383 N   0  0  0  0  0  0
  -25.9340  -11.6566   20.5831 N   0  0  0  0  0  0
  -22.0462  -12.8198   22.0428 N   0  0  0  0  0  0
  -25.4022  -15.1899   20.3845 N   0  0  0  0  0  0
  -31.8517  -14.6866   20.1000 O   0  0  0  0  0  0
  -21.6642   -6.8880   21.4244 O   0  0  0  0  0  0
  -22.3472  -14.5504   20.6701 O   0  0  0  0  0  0
  -24.6264  -31.8618   23.2053 C   0  0  0  0  0  0
  -25.9117  -32.4791   23.8374 C   0  0  1  0  0  0
  -27.2152  -27.3190   20.1071 C   0  0  0  0  0  0
  -25.5936  -33.8591   24.2295 N   0  0  0  0  0  0
  -23.4193  -30.4880   21.5486 C   0  0  2  0  0  0
  -24.8637  -28.9518   20.1089 C   0  0  0  0  0  0
  -22.7477  -29.4633   22.4941 C   0  0  0  0  0  0
  -18.0287  -28.1374   22.8487 C   0  0  0  0  0  0
  -24.1490  -36.7295   23.2638 C   0  0  0  0  0  0
  -25.9628  -30.7900   21.3804 C   0  0  0  0  0  0
  -26.0350  -29.4201   20.7180 C   0  0  0  0  0  0
  -27.2137  -28.6143   20.7119 C   0  0  0  0  0  0
  -26.0199  -26.9173   19.4607 C   0  0  0  0  0  0
  -24.8580  -27.7050   19.4724 C   0  0  0  0  0  0
  -23.6330  -29.8310   20.1617 C   0  0  0  0  0  0
  -25.4115  -36.3089   24.0329 C   0  0  1  0  0  0
  -20.5887  -28.3684   23.1277 C   0  0  2  0  0  0
  -20.6776  -26.9407   22.5405 C   0  0  0  0  0  0
  -19.5750  -26.6379   21.5209 C   0  0  0  0  0  0
  -18.1930  -26.7917   22.1622 C   0  0  0  0  0  0
  -19.1539  -28.8844   23.2877 C   0  0  0  0  0  0
  -18.9464  -30.1444   23.8896 C   0  0  0  0  0  0
  -17.6465  -30.6581   24.0558 C   0  0  0  0  0  0
  -25.9052  -34.9457   23.5109 C   0  0  0  0  0  0
  -16.5357  -29.9078   23.6330 C   0  0  0  0  0  0
  -16.7274  -28.6491   23.0358 C   0  0  0  0  0  0
  -26.4499  -31.6598   25.0741 C   0  0  0  0  0  0
  -25.3729  -31.3734   26.1464 C   0  0  0  0  0  0
  -27.0343  -30.3021   24.6201 C   0  0  0  0  0  0
  -27.6058  -32.4338   25.7512 C   0  0  0  0  0  0
  -27.5583  -37.1801   24.8463 C   0  0  0  0  0  0
  -21.4190  -29.3043   22.3679 N   0  0  0  0  0  0
  -26.4294  -37.3782   23.9407 N   0  0  0  0  0  0
  -24.6882  -31.0623   22.1013 N   0  0  0  0  0  0
  -23.4205  -28.8158   23.3005 O   0  0  0  0  0  0
  -28.3159  -26.4432   20.1714 O   0  0  0  0  0  0
  -26.5618  -34.8922   22.4673 O   0  0  0  0  0  0
  -23.5427  -32.1424   23.7373 O   0  0  0  0  0  0
  -30.6294  -19.6171   20.9138 C   0  0  0  0  0  0
  -28.6908  -18.8104   19.7406 C   0  0  0  0  0  0
  -30.1480  -20.9607   20.8243 C   0  0  0  0  0  0
  -28.2073  -20.1480   19.6610 C   0  0  0  0  0  0
  -29.9256  -18.5076   20.3614 C   0  0  0  0  0  0
  -28.9238  -21.2618   20.1748 C   0  0  0  0  0  0
  -27.6714  -16.5736   23.8263 C   0  0  0  0  0  0
  -30.5975  -17.0877   20.2569 C   0  0  0  0  0  0
  -28.1106  -16.3778   22.3727 C   0  0  0  0  0  0
  -29.6039  -16.0224   22.2563 C   0  0  0  0  0  0
  -29.0019  -23.8108   20.3333 C   0  0  0  0  0  0
  -28.0379  -25.0064   19.9235 C   0  0  0  0  0  0
  -30.0480  -15.8125   20.8671 N   0  0  0  0  0  0
  -28.3633  -22.5388   19.9901 O   0  0  0  0  0  0
  -31.4615  -12.4998   19.1414 H   0  0  0  0  0  0
  -30.3446  -11.4112   19.9003 H   0  0  0  0  0  0
  -29.7557  -11.7600   17.4815 H   0  0  0  0  0  0
  -29.6409  -13.4838   17.7382 H   0  0  0  0  0  0
  -27.8511  -11.3090   18.8635 H   0  0  0  0  0  0
  -27.3629  -12.5983   17.7975 H   0  0  0  0  0  0
  -27.6689  -14.2694   19.5405 H   0  0  0  0  0  0
  -28.7209  -12.0460   21.3482 H   0  0  0  0  0  0
  -28.4428  -13.6642   21.8668 H   0  0  0  0  0  0
  -25.2765   -9.5682   22.4777 H   0  0  0  0  0  0
  -24.0005   -7.4630   22.7475 H   0  0  0  0  0  0
  -21.0854   -8.8780   19.8950 H   0  0  0  0  0  0
  -22.3712  -10.9679   19.6179 H   0  0  0  0  0  0
  -21.2000   -7.6145   23.9717 H   0  0  0  0  0  0
  -21.1486   -6.0521   25.9079 H   0  0  0  0  0  0
  -22.0595   -2.7606   23.2847 H   0  0  0  0  0  0
  -22.4086  -11.9862   22.4816 H   0  0  0  0  0  0
  -21.1088  -13.1228   22.2656 H   0  0  0  0  0  0
  -24.6325  -15.8394   20.4999 H   0  0  0  0  0  0
  -26.2575  -15.6376   20.0823 H   0  0  0  0  0  0
  -26.7186  -32.5458   23.1123 H   0  0  0  0  0  0
  -25.0092  -33.9743   25.0445 H   0  0  0  0  0  0
  -22.7130  -31.3093   21.4097 H   0  0  0  0  0  0
  -23.3758  -35.9622   23.3295 H   0  0  0  0  0  0
  -24.3585  -36.8920   22.2054 H   0  0  0  0  0  0
  -23.7234  -37.6489   23.6665 H   0  0  0  0  0  0
  -26.0985  -31.5558   20.6155 H   0  0  0  0  0  0
  -26.8419  -30.8337   22.0116 H   0  0  0  0  0  0
  -28.1085  -28.9644   21.2078 H   0  0  0  0  0  0
  -25.9386  -25.9731   18.9445 H   0  0  0  0  0  0
  -23.9624  -27.3429   18.9859 H   0  0  0  0  0  0
  -23.7525  -30.6114   19.4090 H   0  0  0  0  0  0
  -22.7524  -29.2620   19.8574 H   0  0  0  0  0  0
  -25.1291  -36.1951   25.0822 H   0  0  0  0  0  0
  -20.9975  -28.3262   24.1398 H   0  0  0  0  0  0
  -20.5682  -26.2295   23.3605 H   0  0  0  0  0  0
  -21.6645  -26.7443   22.1195 H   0  0  0  0  0  0
  -19.6916  -25.6289   21.1240 H   0  0  0  0  0  0
  -19.6684  -27.3188   20.6737 H   0  0  0  0  0  0
  -17.4200  -26.6664   21.4025 H   0  0  0  0  0  0
  -18.0326  -26.0053   22.9014 H   0  0  0  0  0  0
  -19.7943  -30.7247   24.2277 H   0  0  0  0  0  0
  -17.5026  -31.6265   24.5151 H   0  0  0  0  0  0
  -15.5356  -30.2981   23.7649 H   0  0  0  0  0  0
  -15.8674  -28.0808   22.7084 H   0  0  0  0  0  0
  -24.5906  -30.7085   25.7787 H   0  0  0  0  0  0
  -24.8919  -32.2899   26.4893 H   0  0  0  0  0  0
  -25.8047  -30.8910   27.0242 H   0  0  0  0  0  0
  -26.2920  -29.6770   24.1224 H   0  0  0  0  0  0
  -27.4033  -29.7281   25.4710 H   0  0  0  0  0  0
  -27.8796  -30.4297   23.9434 H   0  0  0  0  0  0
  -27.2671  -33.3648   26.2070 H   0  0  0  0  0  0
  -28.3875  -32.6884   25.0342 H   0  0  0  0  0  0
  -28.0717  -31.8478   26.5443 H   0  0  0  0  0  0
  -28.2592  -38.0109   24.7529 H   0  0  0  0  0  0
  -28.1090  -36.2638   24.6271 H   0  0  0  0  0  0
  -27.2300  -37.1428   25.8867 H   0  0  0  0  0  0
  -20.9363  -29.8790   21.6913 H   0  0  0  0  0  0
  -26.0179  -38.2857   24.1420 H   0  0  0  0  0  0
  -31.5908  -19.4500   21.3799 H   0  0  0  0  0  0
  -28.1206  -18.0164   19.2784 H   0  0  0  0  0  0
  -30.7448  -21.7585   21.2431 H   0  0  0  0  0  0
  -27.2677  -20.3254   19.1565 H   0  0  0  0  0  0
  -26.6048  -16.7938   23.8819 H   0  0  0  0  0  0
  -28.2061  -17.4022   24.2920 H   0  0  0  0  0  0
  -27.8555  -15.6776   24.4204 H   0  0  0  0  0  0
  -31.6192  -17.2027   20.6237 H   0  0  0  0  0  0
  -30.7079  -16.9063   19.1859 H   0  0  0  0  0  0
  -27.8897  -17.2894   21.8202 H   0  0  0  0  0  0
  -27.4968  -15.6032   21.9240 H   0  0  0  0  0  0
  -29.8195  -15.1442   22.8683 H   0  0  0  0  0  0
  -30.1968  -16.8208   22.7063 H   0  0  0  0  0  0
  -29.2043  -23.8385   21.4042 H   0  0  0  0  0  0
  -29.9570  -23.8976   19.8145 H   0  0  0  0  0  0
  -27.0969  -24.7654   20.4204 H   0  0  0  0  0  0
  -27.8607  -24.9003   18.8524 H   0  0  0  0  0  0
  1 25  1  0  0  0
  1 30  2  0  0  0
  1 83  1  0  0  0
  2  3  1  0  0  0
  2 25  1  0  0  0
  2 85  1  0  0  0
  2 86  1  0  0  0
  3  4  1  0  0  0
  3 87  1  0  0  0
  3 88  1  0  0  0
  4  5  1  0  0  0
  4 89  1  0  0  0
  4 90  1  0  0  0
  5  6  1  0  0  0
  5 26  1  0  0  0
  5 91  1  0  0  0
  6 25  1  0  0  0
  6 92  1  0  0  0
  6 93  1  0  0  0
  7  8  2  0  0  0
  7 26  1  0  0  0
  7 29  1  0  0  0
  8  9  1  0  0  0
  8 22  1  0  0  0
  9 10  1  0  0  0
  9 27  2  0  0  0
 10 11  2  0  0  0
 10 15  1  0  0  0
 11 12  1  0  0  0
 11 94  1  0  0  0
 12 13  2  0  0  0
 12 95  1  0  0  0
 13 14  1  0  0  0
 13 31  1  0  0  0
 14 15  2  0  0  0
 14 96  1  0  0  0
 15 97  1  0  0  0
 16 17  2  0  0  0
 16 21  1  0  0  0
 16 31  1  0  0  0
 17 18  1  0  0  0
 17 98  1  0  0  0
 18 19  2  0  0  0
 18 99  1  0  0  0
 19 20  1  0  0  0
 19 24  1  0  0  0
 20 21  2  0  0  0
 20100  1  0  0  0
 21 23  1  0  0  0
 22 28  1  0  0  0
 22 32  2  0  0  0
 26 27  1  0  0  0
 28101  1  0  0  0
 28102  1  0  0  0
 29103  1  0  0  0
 29104  1  0  0  0
 33 34  1  0  0  0
 33 66  1  0  0  0
 33 70  2  0  0  0
 34 36  1  0  0  0
 34 59  1  0  0  0
 34105  1  0  0  0
 35 44  2  0  0  0
 35 45  1  0  0  0
 35 68  1  0  0  0
 36 56  1  0  0  0
 36106  1  0  0  0
 37 39  1  0  0  0
 37 47  1  0  0  0
 37 66  1  0  0  0
 37107  1  0  0  0
 38 43  2  0  0  0
 38 46  1  0  0  0
 38 47  1  0  0  0
 39 64  1  0  0  0
 39 67  2  0  0  0
 40 52  1  0  0  0
 40 53  2  0  0  0
 40 58  1  0  0  0
 41108  1  0  0  0
 41109  1  0  0  0
 41110  1  0  0  0
 41 48  1  0  0  0
 42 43  1  0  0  0
 42 66  1  0  0  0
 42111  1  0  0  0
 42112  1  0  0  0
 43 44  1  0  0  0
 44113  1  0  0  0
 45 46  2  0  0  0
 45114  1  0  0  0
 46115  1  0  0  0
 47116  1  0  0  0
 47117  1  0  0  0
 48 56  1  0  0  0
 48 65  1  0  0  0
 48118  1  0  0  0
 49 50  1  0  0  0
 49 53  1  0  0  0
 49 64  1  0  0  0
 49119  1  0  0  0
 50 51  1  0  0  0
 50120  1  0  0  0
 50121  1  0  0  0
 51 52  1  0  0  0
 51122  1  0  0  0
 51123  1  0  0  0
 52124  1  0  0  0
 52125  1  0  0  0
 53 54  1  0  0  0
 54 55  2  0  0  0
 54126  1  0  0  0
 55 57  1  0  0  0
 55127  1  0  0  0
 56 69  2  0  0  0
 57 58  2  0  0  0
 57128  1  0  0  0
 58129  1  0  0  0
 59 60  1  0  0  0
 59 61  1  0  0  0
 59 62  1  0  0  0
 60130  1  0  0  0
 60131  1  0  0  0
 60132  1  0  0  0
 61133  1  0  0  0
 61134  1  0  0  0
 61135  1  0  0  0
 62136  1  0  0  0
 62137  1  0  0  0
 62138  1  0  0  0
 63 65  1  0  0  0
 63139  1  0  0  0
 63140  1  0  0  0
 63141  1  0  0  0
 64142  1  0  0  0
 65143  1  0  0  0
 68 82  1  0  0  0
 71 73  2  0  0  0
 71 75  1  0  0  0
 71144  1  0  0  0
 72 74  1  0  0  0
 72 75  2  0  0  0
 72145  1  0  0  0
 73 76  1  0  0  0
 73146  1  0  0  0
 74 76  2  0  0  0
 74147  1  0  0  0
 75 78  1  0  0  0
 76 84  1  0  0  0
 77 79  1  0  0  0
 77148  1  0  0  0
 77149  1  0  0  0
 77150  1  0  0  0
 78 83  1  0  0  0
 78151  1  0  0  0
 78152  1  0  0  0
 79 80  1  0  0  0
 79153  1  0  0  0
 79154  1  0  0  0
 80 83  1  0  0  0
 80155  1  0  0  0
 80156  1  0  0  0
 81 82  1  0  0  0
 81 84  1  0  0  0
 81157  1  0  0  0
 81158  1  0  0  0
 82159  1  0  0  0
 82160  1  0  0  0
M  ISO  4   1 100  68 101  82 101  83 100
M  END
> <chiral flag>
0

> <version>
0

> <s_m_source_file>
/data/baiqing/PycharmProjects/Reinvent-master-3.2/result/LINK_invent/BTK/process_docking_weight1_custom_product_contain_oxygen_bond_distance_aromatic_linkinvent_7_9_3/rearranged_h_0012.sdf

> <i_m_source_file_index>
77

> <r_mmod_Potential_Energy-OPLS-2005>
237.40837097168

> <r_mmod_Stretch_Energy-OPLS-2005>
83.8494873046875

> <r_mmod_Bend_Energy-OPLS-2005>
174.564270019531

> <r_mmod_Torsional_Energy-OPLS-2005>
261.366821289062

> <r_mmod_Improper_Torsional_Energy-OPLS-2005>
11.5570268630981

> <r_mmod_Van_der_Waal_Energy-OPLS-2005>
151.51594543457

> <r_mmod_Electrostatic_Energy-OPLS-2005>
-303.0283203125

> <r_mmod_Solvation_Energy-OPLS-2005>
-190.429473876953

> <b_mmod_Minimization_Converged-OPLS-2005>
0

> <r_mmod_RMS_Derivative-OPLS-2005>
0.717641651630402

$$$$
78
                    3D
 Structure written by MMmdl.
151159  0  0  1  0            999 V2000
  -30.6183  -14.6884   20.5139 C   0  0  0  0  0  0
  -30.4359  -12.4337   19.4638 C   0  0  0  0  0  0
  -29.5135  -12.5566   18.2311 C   0  0  0  0  0  0
  -28.0372  -12.3840   18.6297 C   0  0  0  0  0  0
  -27.6555  -13.2329   19.8715 C   0  0  2  0  0  0
  -28.6981  -13.0967   21.0054 C   0  0  0  0  0  0
  -25.2556  -13.8210   20.5713 C   0  0  0  0  0  0
  -24.1819  -13.0449   20.9188 C   0  0  0  0  0  0
  -24.6435  -11.6934   20.8744 C   0  0  0  0  0  0
  -23.9092  -10.4291   21.0363 C   0  0  0  0  0  0
  -24.3651   -9.4206   21.9131 C   0  0  0  0  0  0
  -23.6309   -8.2257   22.0720 C   0  0  0  0  0  0
  -22.4288   -8.0293   21.3541 C   0  0  0  0  0  0
  -21.9934   -9.0258   20.4628 C   0  0  0  0  0  0
  -22.7273  -10.2129   20.3016 C   0  0  0  0  0  0
  -21.6874   -6.0737   22.5277 C   0  0  0  0  0  0
  -21.4030   -6.5634   23.8203 C   0  0  0  0  0  0
  -21.3679   -5.6772   24.9165 C   0  0  0  0  0  0
  -21.6040   -4.3054   24.7207 C   0  0  0  0  0  0
  -21.8837   -3.8139   23.4323 C   0  0  0  0  0  0
  -21.9204   -4.6962   22.3389 C   0  0  0  0  0  0
  -22.7831  -13.5241   21.1808 C   0  0  0  0  0  0
  -22.1651   -4.2152   21.0969 F   0  0  0  0  0  0
  -21.5636   -3.4527   25.7714 F   0  0  0  0  0  0
  -30.0159  -13.4528   20.4529 N   0  0  0  0  0  0
  -26.3007  -12.9411   20.3353 N   0  0  0  0  0  0
  -25.9377  -11.6563   20.5761 N   0  0  0  0  0  0
  -22.0454  -12.8264   22.0419 N   0  0  0  0  0  0
  -25.4261  -15.1926   20.4188 N   0  0  0  0  0  0
  -31.7466  -14.8581   20.0396 O   0  0  0  0  0  0
  -21.6664   -6.8882   21.4224 O   0  0  0  0  0  0
  -22.3495  -14.5516   20.6631 O   0  0  0  0  0  0
  -24.6263  -31.8598   23.1996 C   0  0  0  0  0  0
  -25.9118  -32.4779   23.8327 C   0  0  1  0  0  0
  -27.2440  -27.3066   20.1323 C   0  0  0  0  0  0
  -25.5949  -33.8587   24.2276 N   0  0  0  0  0  0
  -23.4204  -30.4782   21.5458 C   0  0  2  0  0  0
  -24.8716  -28.9196   20.1219 C   0  0  0  0  0  0
  -22.7472  -29.4642   22.4998 C   0  0  0  0  0  0
  -18.0303  -28.1373   22.8479 C   0  0  0  0  0  0
  -24.1504  -36.7279   23.2632 C   0  0  0  0  0  0
  -25.9629  -30.7810   21.3774 C   0  0  0  0  0  0
  -26.0393  -29.4068   20.7226 C   0  0  0  0  0  0
  -27.2260  -28.6130   20.7158 C   0  0  0  0  0  0
  -26.0486  -26.8692   19.5151 C   0  0  0  0  0  0
  -24.8787  -27.6550   19.5111 C   0  0  0  0  0  0
  -23.6351  -29.7970   20.1681 C   0  0  0  0  0  0
  -25.4137  -36.3092   24.0332 C   0  0  1  0  0  0
  -20.5892  -28.3685   23.1288 C   0  0  2  0  0  0
  -20.6825  -26.9422   22.5401 C   0  0  0  0  0  0
  -19.5800  -26.6366   21.5226 C   0  0  0  0  0  0
  -18.1971  -26.7919   22.1604 C   0  0  0  0  0  0
  -19.1543  -28.8850   23.2867 C   0  0  0  0  0  0
  -18.9471  -30.1464   23.8859 C   0  0  0  0  0  0
  -17.6464  -30.6574   24.0553 C   0  0  0  0  0  0
  -25.9078  -34.9468   23.5103 C   0  0  0  0  0  0
  -16.5364  -29.9063   23.6332 C   0  0  0  0  0  0
  -16.7285  -28.6480   23.0351 C   0  0  0  0  0  0
  -26.4481  -31.6589   25.0709 C   0  0  0  0  0  0
  -25.3699  -31.3732   26.1424 C   0  0  0  0  0  0
  -27.0354  -30.3025   24.6179 C   0  0  0  0  0  0
  -27.6045  -32.4320   25.7470 C   0  0  0  0  0  0
  -27.5609  -37.1794   24.8455 C   0  0  0  0  0  0
  -21.4202  -29.3019   22.3689 N   0  0  0  0  0  0
  -26.4304  -37.3797   23.9413 N   0  0  0  0  0  0
  -24.6886  -31.0584   22.0967 N   0  0  0  0  0  0
  -23.4166  -28.8224   23.3136 O   0  0  0  0  0  0
  -28.3839  -26.4785   20.1614 O   0  0  0  0  0  0
  -26.5641  -34.8918   22.4668 O   0  0  0  0  0  0
  -23.5438  -32.1430   23.7307 O   0  0  0  0  0  0
  -30.3063  -17.7857   19.5591 C   0  0  0  0  0  0
  -29.3834  -18.0960   21.7608 C   0  0  0  0  0  0
  -30.1503  -19.1846   19.3131 C   0  0  0  0  0  0
  -29.2632  -19.5058   21.5264 C   0  0  0  0  0  0
  -29.9033  -17.1873   20.7885 C   0  0  0  0  0  0
  -29.6223  -20.0930   20.2781 C   0  0  0  0  0  0
  -29.4960  -24.0739   20.3620 C   0  0  0  0  0  0
  -29.4037  -22.5508   20.8796 C   0  0  0  0  0  0
  -28.2090  -25.0020   20.2058 C   0  0  0  0  0  0
  -29.8978  -15.7332   21.0433 N   0  0  0  0  0  0
  -29.4531  -21.4503   19.9079 O   0  0  0  0  0  0
  -31.4753  -12.5568   19.1615 H   0  0  0  0  0  0
  -30.3658  -11.4324   19.8887 H   0  0  0  0  0  0
  -29.7913  -11.8247   17.4695 H   0  0  0  0  0  0
  -29.6525  -13.5380   17.7753 H   0  0  0  0  0  0
  -27.8735  -11.3263   18.8296 H   0  0  0  0  0  0
  -27.3910  -12.6356   17.7882 H   0  0  0  0  0  0
  -27.6693  -14.2727   19.5484 H   0  0  0  0  0  0
  -28.7155  -12.0734   21.3863 H   0  0  0  0  0  0
  -28.4291  -13.7289   21.8511 H   0  0  0  0  0  0
  -25.2775   -9.5720   22.4711 H   0  0  0  0  0  0
  -24.0047   -7.4666   22.7467 H   0  0  0  0  0  0
  -21.0850   -8.8770   19.8950 H   0  0  0  0  0  0
  -22.3685  -10.9673   19.6153 H   0  0  0  0  0  0
  -21.2008   -7.6126   23.9721 H   0  0  0  0  0  0
  -21.1483   -6.0488   25.9079 H   0  0  0  0  0  0
  -22.0594   -2.7597   23.2816 H   0  0  0  0  0  0
  -22.4062  -11.9965   22.4895 H   0  0  0  0  0  0
  -21.1051  -13.1241   22.2523 H   0  0  0  0  0  0
  -24.6665  -15.8532   20.5436 H   0  0  0  0  0  0
  -26.2856  -15.6363   20.1247 H   0  0  0  0  0  0
  -26.7180  -32.5417   23.1067 H   0  0  0  0  0  0
  -25.0177  -33.9724   25.0473 H   0  0  0  0  0  0
  -22.7144  -31.2989   21.3978 H   0  0  0  0  0  0
  -23.3803  -35.9568   23.3274 H   0  0  0  0  0  0
  -24.3602  -36.8921   22.2046 H   0  0  0  0  0  0
  -23.7201  -37.6453   23.6661 H   0  0  0  0  0  0
  -26.1067  -31.5404   20.6075 H   0  0  0  0  0  0
  -26.8363  -30.8237   22.0166 H   0  0  0  0  0  0
  -28.1177  -28.9868   21.2001 H   0  0  0  0  0  0
  -25.9934  -25.9038   19.0360 H   0  0  0  0  0  0
  -23.9843  -27.2690   19.0415 H   0  0  0  0  0  0
  -23.7403  -30.5632   19.4004 H   0  0  0  0  0  0
  -22.7556  -29.2188   19.8770 H   0  0  0  0  0  0
  -25.1316  -36.1953   25.0827 H   0  0  0  0  0  0
  -20.9965  -28.3272   24.1415 H   0  0  0  0  0  0
  -20.5799  -26.2308   23.3595 H   0  0  0  0  0  0
  -21.6692  -26.7520   22.1159 H   0  0  0  0  0  0
  -19.6998  -25.6281   21.1261 H   0  0  0  0  0  0
  -19.6737  -27.3157   20.6745 H   0  0  0  0  0  0
  -17.4273  -26.6667   21.3983 H   0  0  0  0  0  0
  -18.0346  -26.0029   22.8950 H   0  0  0  0  0  0
  -19.7957  -30.7303   24.2150 H   0  0  0  0  0  0
  -17.5032  -31.6249   24.5162 H   0  0  0  0  0  0
  -15.5365  -30.2946   23.7697 H   0  0  0  0  0  0
  -15.8687  -28.0785   22.7088 H   0  0  0  0  0  0
  -24.5841  -30.7139   25.7725 H   0  0  0  0  0  0
  -24.8923  -32.2906   26.4872 H   0  0  0  0  0  0
  -25.7975  -30.8855   27.0188 H   0  0  0  0  0  0
  -26.2957  -29.6747   24.1210 H   0  0  0  0  0  0
  -27.4094  -29.7292   25.4666 H   0  0  0  0  0  0
  -27.8785  -30.4337   23.9399 H   0  0  0  0  0  0
  -27.2672  -33.3616   26.2050 H   0  0  0  0  0  0
  -28.3834  -32.6889   25.0286 H   0  0  0  0  0  0
  -28.0734  -31.8453   26.5370 H   0  0  0  0  0  0
  -28.2593  -38.0129   24.7612 H   0  0  0  0  0  0
  -28.1151  -36.2687   24.6170 H   0  0  0  0  0  0
  -27.2338  -37.1292   25.8850 H   0  0  0  0  0  0
  -20.9436  -29.8639   21.6781 H   0  0  0  0  0  0
  -26.0207  -38.2871   24.1430 H   0  0  0  0  0  0
  -30.7036  -17.1789   18.7545 H   0  0  0  0  0  0
  -29.0400  -17.7192   22.7203 H   0  0  0  0  0  0
  -30.4406  -19.5683   18.3432 H   0  0  0  0  0  0
  -28.8440  -20.1135   22.3196 H   0  0  0  0  0  0
  -30.0759  -24.0950   19.4386 H   0  0  0  0  0  0
  -30.1279  -24.5954   21.0820 H   0  0  0  0  0  0
  -28.5720  -22.4378   21.5775 H   0  0  0  0  0  0
  -30.3014  -22.3971   21.4825 H   0  0  0  0  0  0
  -27.5390  -24.7864   21.0384 H   0  0  0  0  0  0
  -27.7049  -24.6696   19.3012 H   0  0  0  0  0  0
  -29.1493  -15.4223   21.6469 H   0  0  0  0  0  0
  1 25  1  0  0  0
  1 30  2  0  0  0
  1 80  1  0  0  0
  2  3  1  0  0  0
  2 25  1  0  0  0
  2 82  1  0  0  0
  2 83  1  0  0  0
  3  4  1  0  0  0
  3 84  1  0  0  0
  3 85  1  0  0  0
  4  5  1  0  0  0
  4 86  1  0  0  0
  4 87  1  0  0  0
  5  6  1  0  0  0
  5 26  1  0  0  0
  5 88  1  0  0  0
  6 25  1  0  0  0
  6 89  1  0  0  0
  6 90  1  0  0  0
  7  8  2  0  0  0
  7 26  1  0  0  0
  7 29  1  0  0  0
  8  9  1  0  0  0
  8 22  1  0  0  0
  9 10  1  0  0  0
  9 27  2  0  0  0
 10 11  2  0  0  0
 10 15  1  0  0  0
 11 12  1  0  0  0
 11 91  1  0  0  0
 12 13  2  0  0  0
 12 92  1  0  0  0
 13 14  1  0  0  0
 13 31  1  0  0  0
 14 15  2  0  0  0
 14 93  1  0  0  0
 15 94  1  0  0  0
 16 17  2  0  0  0
 16 21  1  0  0  0
 16 31  1  0  0  0
 17 18  1  0  0  0
 17 95  1  0  0  0
 18 19  2  0  0  0
 18 96  1  0  0  0
 19 20  1  0  0  0
 19 24  1  0  0  0
 20 21  2  0  0  0
 20 97  1  0  0  0
 21 23  1  0  0  0
 22 28  1  0  0  0
 22 32  2  0  0  0
 26 27  1  0  0  0
 28 98  1  0  0  0
 28 99  1  0  0  0
 29100  1  0  0  0
 29101  1  0  0  0
 33 34  1  0  0  0
 33 66  1  0  0  0
 33 70  2  0  0  0
 34 36  1  0  0  0
 34 59  1  0  0  0
 34102  1  0  0  0
 35 44  2  0  0  0
 35 45  1  0  0  0
 35 68  1  0  0  0
 36 56  1  0  0  0
 36103  1  0  0  0
 37 39  1  0  0  0
 37 47  1  0  0  0
 37 66  1  0  0  0
 37104  1  0  0  0
 38 43  2  0  0  0
 38 46  1  0  0  0
 38 47  1  0  0  0
 39 64  1  0  0  0
 39 67  2  0  0  0
 40 52  1  0  0  0
 40 53  2  0  0  0
 40 58  1  0  0  0
 41105  1  0  0  0
 41106  1  0  0  0
 41107  1  0  0  0
 41 48  1  0  0  0
 42 43  1  0  0  0
 42 66  1  0  0  0
 42108  1  0  0  0
 42109  1  0  0  0
 43 44  1  0  0  0
 44110  1  0  0  0
 45 46  2  0  0  0
 45111  1  0  0  0
 46112  1  0  0  0
 47113  1  0  0  0
 47114  1  0  0  0
 48 56  1  0  0  0
 48 65  1  0  0  0
 48115  1  0  0  0
 49 50  1  0  0  0
 49 53  1  0  0  0
 49 64  1  0  0  0
 49116  1  0  0  0
 50 51  1  0  0  0
 50117  1  0  0  0
 50118  1  0  0  0
 51 52  1  0  0  0
 51119  1  0  0  0
 51120  1  0  0  0
 52121  1  0  0  0
 52122  1  0  0  0
 53 54  1  0  0  0
 54 55  2  0  0  0
 54123  1  0  0  0
 55 57  1  0  0  0
 55124  1  0  0  0
 56 69  2  0  0  0
 57 58  2  0  0  0
 57125  1  0  0  0
 58126  1  0  0  0
 59 60  1  0  0  0
 59 61  1  0  0  0
 59 62  1  0  0  0
 60127  1  0  0  0
 60128  1  0  0  0
 60129  1  0  0  0
 61130  1  0  0  0
 61131  1  0  0  0
 61132  1  0  0  0
 62133  1  0  0  0
 62134  1  0  0  0
 62135  1  0  0  0
 63 65  1  0  0  0
 63136  1  0  0  0
 63137  1  0  0  0
 63138  1  0  0  0
 64139  1  0  0  0
 65140  1  0  0  0
 68 79  1  0  0  0
 71 73  2  0  0  0
 71 75  1  0  0  0
 71141  1  0  0  0
 72 74  1  0  0  0
 72 75  2  0  0  0
 72142  1  0  0  0
 73 76  1  0  0  0
 73143  1  0  0  0
 74 76  2  0  0  0
 74144  1  0  0  0
 75 80  1  0  0  0
 76 81  1  0  0  0
 77 78  1  0  0  0
 77 79  1  0  0  0
 77145  1  0  0  0
 77146  1  0  0  0
 78 81  1  0  0  0
 78147  1  0  0  0
 78148  1  0  0  0
 79149  1  0  0  0
 79150  1  0  0  0
 80151  1  0  0  0
M  ISO  4   1 100  68 101  79 101  80 100
M  END
> <chiral flag>
0

> <version>
0

> <s_m_source_file>
/data/baiqing/PycharmProjects/Reinvent-master-3.2/result/LINK_invent/BTK/process_docking_weight1_custom_product_contain_oxygen_bond_distance_aromatic_linkinvent_7_9_3/rearranged_h_0012.sdf

> <i_m_source_file_index>
78

> <r_mmod_Potential_Energy-OPLS-2005>
87.3086853027344

> <r_mmod_Stretch_Energy-OPLS-2005>
91.08984375

> <r_mmod_Bend_Energy-OPLS-2005>
159.319290161133

> <r_mmod_Torsional_Energy-OPLS-2005>
236.013916015625

> <r_mmod_Improper_Torsional_Energy-OPLS-2005>
3.05807876586914

> <r_mmod_Van_der_Waal_Energy-OPLS-2005>
138.714782714844

> <r_mmod_Electrostatic_Energy-OPLS-2005>
-383.976654052734

> <r_mmod_Solvation_Energy-OPLS-2005>
-214.270523071289

> <b_mmod_Minimization_Converged-OPLS-2005>
0

> <r_mmod_RMS_Derivative-OPLS-2005>
5.72391843795776

$$$$
79
                    3D
 Structure written by MMmdl.
154162  0  0  1  0            999 V2000
  -30.6744  -14.6356   20.5267 C   0  0  0  0  0  0
  -30.4246  -12.4063   19.4453 C   0  0  0  0  0  0
  -29.5015  -12.5114   18.2135 C   0  0  0  0  0  0
  -28.0206  -12.3577   18.6194 C   0  0  0  0  0  0
  -27.6472  -13.2147   19.8590 C   0  0  2  0  0  0
  -28.6928  -13.0448   20.9789 C   0  0  0  0  0  0
  -25.2503  -13.8141   20.5613 C   0  0  0  0  0  0
  -24.1798  -13.0411   20.9208 C   0  0  0  0  0  0
  -24.6370  -11.6888   20.8755 C   0  0  0  0  0  0
  -23.9049  -10.4279   21.0417 C   0  0  0  0  0  0
  -24.3603   -9.4208   21.9197 C   0  0  0  0  0  0
  -23.6285   -8.2240   22.0763 C   0  0  0  0  0  0
  -22.4269   -8.0279   21.3545 C   0  0  0  0  0  0
  -21.9905   -9.0251   20.4653 C   0  0  0  0  0  0
  -22.7224  -10.2136   20.3065 C   0  0  0  0  0  0
  -21.6855   -6.0744   22.5291 C   0  0  0  0  0  0
  -21.4015   -6.5637   23.8229 C   0  0  0  0  0  0
  -21.3651   -5.6784   24.9182 C   0  0  0  0  0  0
  -21.6050   -4.3059   24.7225 C   0  0  0  0  0  0
  -21.8820   -3.8151   23.4348 C   0  0  0  0  0  0
  -21.9186   -4.6971   22.3405 C   0  0  0  0  0  0
  -22.7823  -13.5208   21.1848 C   0  0  0  0  0  0
  -22.1632   -4.2150   21.0985 F   0  0  0  0  0  0
  -21.5628   -3.4546   25.7738 F   0  0  0  0  0  0
  -29.9928  -13.4398   20.4172 N   0  0  0  0  0  0
  -26.2930  -12.9335   20.3261 N   0  0  0  0  0  0
  -25.9282  -11.6492   20.5718 N   0  0  0  0  0  0
  -22.0450  -12.8229   22.0421 N   0  0  0  0  0  0
  -25.4147  -15.1849   20.3928 N   0  0  0  0  0  0
  -31.8473  -14.6858   20.1396 O   0  0  0  0  0  0
  -21.6625   -6.8886   21.4256 O   0  0  0  0  0  0
  -22.3506  -14.5507   20.6671 O   0  0  0  0  0  0
  -24.6286  -31.8603   23.2050 C   0  0  0  0  0  0
  -25.9127  -32.4781   23.8385 C   0  0  1  0  0  0
  -27.2139  -27.3242   20.1012 C   0  0  0  0  0  0
  -25.5935  -33.8584   24.2294 N   0  0  0  0  0  0
  -23.4193  -30.4911   21.5479 C   0  0  2  0  0  0
  -24.8603  -28.9541   20.1108 C   0  0  0  0  0  0
  -22.7482  -29.4642   22.4934 C   0  0  0  0  0  0
  -18.0288  -28.1376   22.8501 C   0  0  0  0  0  0
  -24.1483  -36.7283   23.2646 C   0  0  0  0  0  0
  -25.9627  -30.7935   21.3748 C   0  0  0  0  0  0
  -26.0341  -29.4243   20.7131 C   0  0  0  0  0  0
  -27.2160  -28.6218   20.7017 C   0  0  0  0  0  0
  -26.0101  -26.9163   19.4720 C   0  0  0  0  0  0
  -24.8487  -27.7021   19.4847 C   0  0  0  0  0  0
  -23.6323  -29.8352   20.1604 C   0  0  0  0  0  0
  -25.4108  -36.3081   24.0342 C   0  0  1  0  0  0
  -20.5896  -28.3679   23.1276 C   0  0  2  0  0  0
  -20.6779  -26.9401   22.5390 C   0  0  0  0  0  0
  -19.5742  -26.6378   21.5205 C   0  0  0  0  0  0
  -18.1931  -26.7921   22.1629 C   0  0  0  0  0  0
  -19.1549  -28.8851   23.2886 C   0  0  0  0  0  0
  -18.9474  -30.1467   23.8883 C   0  0  0  0  0  0
  -17.6472  -30.6583   24.0576 C   0  0  0  0  0  0
  -25.9047  -34.9455   23.5110 C   0  0  0  0  0  0
  -16.5362  -29.9079   23.6336 C   0  0  0  0  0  0
  -16.7278  -28.6496   23.0359 C   0  0  0  0  0  0
  -26.4504  -31.6574   25.0737 C   0  0  0  0  0  0
  -25.3768  -31.3735   26.1497 C   0  0  0  0  0  0
  -27.0328  -30.2991   24.6177 C   0  0  0  0  0  0
  -27.6071  -32.4304   25.7513 C   0  0  0  0  0  0
  -27.5569  -37.1796   24.8470 C   0  0  0  0  0  0
  -21.4201  -29.3050   22.3680 N   0  0  0  0  0  0
  -26.4270  -37.3781   23.9427 N   0  0  0  0  0  0
  -24.6893  -31.0641   22.0994 N   0  0  0  0  0  0
  -23.4211  -28.8180   23.3003 O   0  0  0  0  0  0
  -28.3182  -26.4530   20.1501 O   0  0  0  0  0  0
  -26.5602  -34.8919   22.4667 O   0  0  0  0  0  0
  -23.5445  -32.1397   23.7387 O   0  0  0  0  0  0
  -30.7341  -19.6786   20.6735 C   0  0  0  0  0  0
  -28.6380  -18.8154   19.8646 C   0  0  0  0  0  0
  -30.2391  -21.0140   20.5984 C   0  0  0  0  0  0
  -28.1415  -20.1494   19.7938 C   0  0  0  0  0  0
  -29.9569  -18.5447   20.2996 C   0  0  0  0  0  0
  -28.9254  -21.2838   20.1436 C   0  0  0  0  0  0
  -29.0179  -16.0283   21.8068 C   0  0  0  0  0  0
  -30.6262  -17.1198   20.2358 C   0  0  0  0  0  0
  -29.0261  -23.8260   20.2463 C   0  0  0  0  0  0
  -28.0268  -25.0167   19.9290 C   0  0  0  0  0  0
  -29.9980  -15.8355   20.7326 N   0  0  0  0  0  0
  -28.3437  -22.5553   20.0045 O   0  0  0  0  0  0
  -31.4635  -12.5198   19.1343 H   0  0  0  0  0  0
  -30.3641  -11.4097   19.8850 H   0  0  0  0  0  0
  -29.7650  -11.7509   17.4781 H   0  0  0  0  0  0
  -29.6534  -13.4753   17.7249 H   0  0  0  0  0  0
  -27.8487  -11.3040   18.8423 H   0  0  0  0  0  0
  -27.3658  -12.5983   17.7812 H   0  0  0  0  0  0
  -27.6739  -14.2551   19.5359 H   0  0  0  0  0  0
  -28.7234  -11.9995   21.2953 H   0  0  0  0  0  0
  -28.4126  -13.5823   21.8790 H   0  0  0  0  0  0
  -25.2745   -9.5697   22.4781 H   0  0  0  0  0  0
  -24.0013   -7.4628   22.7463 H   0  0  0  0  0  0
  -21.0847   -8.8749   19.8950 H   0  0  0  0  0  0
  -22.3666  -10.9672   19.6166 H   0  0  0  0  0  0
  -21.2009   -7.6139   23.9747 H   0  0  0  0  0  0
  -21.1442   -6.0495   25.9083 H   0  0  0  0  0  0
  -22.0601   -2.7620   23.2839 H   0  0  0  0  0  0
  -22.4033  -11.9881   22.4822 H   0  0  0  0  0  0
  -21.1064  -13.1245   22.2578 H   0  0  0  0  0  0
  -24.6383  -15.8314   20.4881 H   0  0  0  0  0  0
  -26.2462  -15.6174   20.0095 H   0  0  0  0  0  0
  -26.7209  -32.5443   23.1163 H   0  0  0  0  0  0
  -25.0141  -33.9730   25.0484 H   0  0  0  0  0  0
  -22.7121  -31.3113   21.4104 H   0  0  0  0  0  0
  -23.3733  -35.9621   23.3293 H   0  0  0  0  0  0
  -24.3574  -36.8888   22.2053 H   0  0  0  0  0  0
  -23.7214  -37.6485   23.6657 H   0  0  0  0  0  0
  -26.0966  -31.5588   20.6100 H   0  0  0  0  0  0
  -26.8435  -30.8376   22.0035 H   0  0  0  0  0  0
  -28.1131  -28.9801   21.1878 H   0  0  0  0  0  0
  -25.9146  -25.9674   18.9653 H   0  0  0  0  0  0
  -23.9504  -27.3375   19.0031 H   0  0  0  0  0  0
  -23.7563  -30.6141   19.4067 H   0  0  0  0  0  0
  -22.7514  -29.2697   19.8547 H   0  0  0  0  0  0
  -25.1272  -36.1931   25.0827 H   0  0  0  0  0  0
  -21.0006  -28.3246   24.1393 H   0  0  0  0  0  0
  -20.5661  -26.2300   23.3606 H   0  0  0  0  0  0
  -21.6653  -26.7420   22.1198 H   0  0  0  0  0  0
  -19.6883  -25.6290   21.1235 H   0  0  0  0  0  0
  -19.6659  -27.3206   20.6749 H   0  0  0  0  0  0
  -17.4199  -26.6696   21.4032 H   0  0  0  0  0  0
  -18.0323  -26.0056   22.9015 H   0  0  0  0  0  0
  -19.7948  -30.7309   24.2208 H   0  0  0  0  0  0
  -17.5018  -31.6252   24.5197 H   0  0  0  0  0  0
  -15.5357  -30.2982   23.7654 H   0  0  0  0  0  0
  -15.8686  -28.0816   22.7058 H   0  0  0  0  0  0
  -24.5927  -30.7078   25.7870 H   0  0  0  0  0  0
  -24.9005  -32.2921   26.4940 H   0  0  0  0  0  0
  -25.8133  -30.8921   27.0258 H   0  0  0  0  0  0
  -26.2876  -29.6762   24.1212 H   0  0  0  0  0  0
  -27.4029  -29.7229   25.4662 H   0  0  0  0  0  0
  -27.8763  -30.4265   23.9391 H   0  0  0  0  0  0
  -27.2686  -33.3635   26.2051 H   0  0  0  0  0  0
  -28.3931  -32.6793   25.0366 H   0  0  0  0  0  0
  -28.0699  -31.8442   26.5472 H   0  0  0  0  0  0
  -28.2591  -38.0086   24.7519 H   0  0  0  0  0  0
  -28.1041  -36.2614   24.6285 H   0  0  0  0  0  0
  -27.2298  -37.1453   25.8875 H   0  0  0  0  0  0
  -20.9361  -29.8802   21.6936 H   0  0  0  0  0  0
  -26.0132  -38.2843   24.1441 H   0  0  0  0  0  0
  -31.7573  -19.5374   20.9930 H   0  0  0  0  0  0
  -27.9998  -18.0018   19.5453 H   0  0  0  0  0  0
  -30.8896  -21.8297   20.8792 H   0  0  0  0  0  0
  -27.1331  -20.3048   19.4341 H   0  0  0  0  0  0
  -28.9832  -17.0553   22.1685 H   0  0  0  0  0  0
  -29.2573  -15.4139   22.6756 H   0  0  0  0  0  0
  -28.0135  -15.7791   21.4669 H   0  0  0  0  0  0
  -31.5974  -17.2043   20.7264 H   0  0  0  0  0  0
  -30.8524  -16.9670   19.1803 H   0  0  0  0  0  0
  -29.3542  -23.8697   21.2857 H   0  0  0  0  0  0
  -29.9127  -23.8993   19.6128 H   0  0  0  0  0  0
  -27.1305  -24.7838   20.5072 H   0  0  0  0  0  0
  -27.7635  -24.8961   18.8774 H   0  0  0  0  0  0
  1 25  1  0  0  0
  1 30  2  0  0  0
  1 81  1  0  0  0
  2  3  1  0  0  0
  2 25  1  0  0  0
  2 83  1  0  0  0
  2 84  1  0  0  0
  3  4  1  0  0  0
  3 85  1  0  0  0
  3 86  1  0  0  0
  4  5  1  0  0  0
  4 87  1  0  0  0
  4 88  1  0  0  0
  5  6  1  0  0  0
  5 26  1  0  0  0
  5 89  1  0  0  0
  6 25  1  0  0  0
  6 90  1  0  0  0
  6 91  1  0  0  0
  7  8  2  0  0  0
  7 26  1  0  0  0
  7 29  1  0  0  0
  8  9  1  0  0  0
  8 22  1  0  0  0
  9 10  1  0  0  0
  9 27  2  0  0  0
 10 11  2  0  0  0
 10 15  1  0  0  0
 11 12  1  0  0  0
 11 92  1  0  0  0
 12 13  2  0  0  0
 12 93  1  0  0  0
 13 14  1  0  0  0
 13 31  1  0  0  0
 14 15  2  0  0  0
 14 94  1  0  0  0
 15 95  1  0  0  0
 16 17  2  0  0  0
 16 21  1  0  0  0
 16 31  1  0  0  0
 17 18  1  0  0  0
 17 96  1  0  0  0
 18 19  2  0  0  0
 18 97  1  0  0  0
 19 20  1  0  0  0
 19 24  1  0  0  0
 20 21  2  0  0  0
 20 98  1  0  0  0
 21 23  1  0  0  0
 22 28  1  0  0  0
 22 32  2  0  0  0
 26 27  1  0  0  0
 28 99  1  0  0  0
 28100  1  0  0  0
 29101  1  0  0  0
 29102  1  0  0  0
 33 34  1  0  0  0
 33 66  1  0  0  0
 33 70  2  0  0  0
 34 36  1  0  0  0
 34 59  1  0  0  0
 34103  1  0  0  0
 35 44  2  0  0  0
 35 45  1  0  0  0
 35 68  1  0  0  0
 36 56  1  0  0  0
 36104  1  0  0  0
 37 39  1  0  0  0
 37 47  1  0  0  0
 37 66  1  0  0  0
 37105  1  0  0  0
 38 43  2  0  0  0
 38 46  1  0  0  0
 38 47  1  0  0  0
 39 64  1  0  0  0
 39 67  2  0  0  0
 40 52  1  0  0  0
 40 53  2  0  0  0
 40 58  1  0  0  0
 41106  1  0  0  0
 41107  1  0  0  0
 41108  1  0  0  0
 41 48  1  0  0  0
 42 43  1  0  0  0
 42 66  1  0  0  0
 42109  1  0  0  0
 42110  1  0  0  0
 43 44  1  0  0  0
 44111  1  0  0  0
 45 46  2  0  0  0
 45112  1  0  0  0
 46113  1  0  0  0
 47114  1  0  0  0
 47115  1  0  0  0
 48 56  1  0  0  0
 48 65  1  0  0  0
 48116  1  0  0  0
 49 50  1  0  0  0
 49 53  1  0  0  0
 49 64  1  0  0  0
 49117  1  0  0  0
 50 51  1  0  0  0
 50118  1  0  0  0
 50119  1  0  0  0
 51 52  1  0  0  0
 51120  1  0  0  0
 51121  1  0  0  0
 52122  1  0  0  0
 52123  1  0  0  0
 53 54  1  0  0  0
 54 55  2  0  0  0
 54124  1  0  0  0
 55 57  1  0  0  0
 55125  1  0  0  0
 56 69  2  0  0  0
 57 58  2  0  0  0
 57126  1  0  0  0
 58127  1  0  0  0
 59 60  1  0  0  0
 59 61  1  0  0  0
 59 62  1  0  0  0
 60128  1  0  0  0
 60129  1  0  0  0
 60130  1  0  0  0
 61131  1  0  0  0
 61132  1  0  0  0
 61133  1  0  0  0
 62134  1  0  0  0
 62135  1  0  0  0
 62136  1  0  0  0
 63 65  1  0  0  0
 63137  1  0  0  0
 63138  1  0  0  0
 63139  1  0  0  0
 64140  1  0  0  0
 65141  1  0  0  0
 68 80  1  0  0  0
 71 73  2  0  0  0
 71 75  1  0  0  0
 71142  1  0  0  0
 72 74  1  0  0  0
 72 75  2  0  0  0
 72143  1  0  0  0
 73 76  1  0  0  0
 73144  1  0  0  0
 74 76  2  0  0  0
 74145  1  0  0  0
 75 78  1  0  0  0
 76 82  1  0  0  0
 77 81  1  0  0  0
 77146  1  0  0  0
 77147  1  0  0  0
 77148  1  0  0  0
 78 81  1  0  0  0
 78149  1  0  0  0
 78150  1  0  0  0
 79 80  1  0  0  0
 79 82  1  0  0  0
 79151  1  0  0  0
 79152  1  0  0  0
 80153  1  0  0  0
 80154  1  0  0  0
M  ISO  4   1 100  68 101  80 101  81 100
M  END
> <chiral flag>
0

> <version>
0

> <s_m_source_file>
/data/baiqing/PycharmProjects/Reinvent-master-3.2/result/LINK_invent/BTK/process_docking_weight1_custom_product_contain_oxygen_bond_distance_aromatic_linkinvent_7_9_3/rearranged_h_0012.sdf

> <i_m_source_file_index>
79

> <r_mmod_Potential_Energy-OPLS-2005>
201.725250244141

> <r_mmod_Stretch_Energy-OPLS-2005>
82.1855239868164

> <r_mmod_Bend_Energy-OPLS-2005>
172.377166748047

> <r_mmod_Torsional_Energy-OPLS-2005>
242.583190917969

> <r_mmod_Improper_Torsional_Energy-OPLS-2005>
10.8558902740479

> <r_mmod_Van_der_Waal_Energy-OPLS-2005>
161.658981323242

> <r_mmod_Electrostatic_Energy-OPLS-2005>
-314.80859375

> <r_mmod_Solvation_Energy-OPLS-2005>
-200.482284545898

> <b_mmod_Minimization_Converged-OPLS-2005>
0

> <r_mmod_RMS_Derivative-OPLS-2005>
3.26605582237244

$$$$
80
                    3D
 Structure written by MMmdl.
159168  0  0  1  0            999 V2000
  -30.6258  -14.5743   20.4011 C   0  0  0  0  0  0
  -30.4177  -12.3212   19.4179 C   0  0  0  0  0  0
  -29.4875  -12.4455   18.1914 C   0  0  0  0  0  0
  -28.0056  -12.3402   18.6027 C   0  0  0  0  0  0
  -27.6438  -13.2014   19.8415 C   0  0  2  0  0  0
  -28.6953  -13.0672   20.9663 C   0  0  0  0  0  0
  -25.2604  -13.8144   20.5639 C   0  0  0  0  0  0
  -24.1864  -13.0444   20.9141 C   0  0  0  0  0  0
  -24.6368  -11.6881   20.8699 C   0  0  0  0  0  0
  -23.8998  -10.4298   21.0402 C   0  0  0  0  0  0
  -24.3566   -9.4239   21.9202 C   0  0  0  0  0  0
  -23.6261   -8.2267   22.0771 C   0  0  0  0  0  0
  -22.4259   -8.0275   21.3549 C   0  0  0  0  0  0
  -21.9874   -9.0225   20.4640 C   0  0  0  0  0  0
  -22.7166  -10.2121   20.3052 C   0  0  0  0  0  0
  -21.6868   -6.0720   22.5265 C   0  0  0  0  0  0
  -21.4022   -6.5634   23.8191 C   0  0  0  0  0  0
  -21.3648   -5.6794   24.9155 C   0  0  0  0  0  0
  -21.6038   -4.3052   24.7225 C   0  0  0  0  0  0
  -21.8838   -3.8130   23.4352 C   0  0  0  0  0  0
  -21.9216   -4.6943   22.3403 C   0  0  0  0  0  0
  -22.7889  -13.5245   21.1822 C   0  0  0  0  0  0
  -22.1706   -4.2115   21.0990 F   0  0  0  0  0  0
  -21.5607   -3.4557   25.7757 F   0  0  0  0  0  0
  -30.0083  -13.3586   20.3775 N   0  0  0  0  0  0
  -26.2962  -12.9259   20.3227 N   0  0  0  0  0  0
  -25.9291  -11.6429   20.5700 N   0  0  0  0  0  0
  -22.0553  -12.8223   22.0350 N   0  0  0  0  0  0
  -25.4437  -15.1856   20.4035 N   0  0  0  0  0  0
  -31.8417  -14.6934   20.2099 O   0  0  0  0  0  0
  -21.6638   -6.8867   21.4232 O   0  0  0  0  0  0
  -22.3584  -14.5580   20.6699 O   0  0  0  0  0  0
  -24.6292  -31.8612   23.2135 C   0  0  0  0  0  0
  -25.9171  -32.4781   23.8428 C   0  0  1  0  0  0
  -27.1887  -27.3409   20.0837 C   0  0  0  0  0  0
  -25.6026  -33.8583   24.2369 N   0  0  0  0  0  0
  -23.4154  -30.4978   21.5563 C   0  0  2  0  0  0
  -24.8439  -28.9605   20.1130 C   0  0  0  0  0  0
  -22.7475  -29.4663   22.4971 C   0  0  0  0  0  0
  -18.0279  -28.1396   22.8456 C   0  0  0  0  0  0
  -24.1488  -36.7319   23.2639 C   0  0  0  0  0  0
  -25.9584  -30.7954   21.3778 C   0  0  0  0  0  0
  -26.0199  -29.4285   20.7130 C   0  0  0  0  0  0
  -27.1989  -28.6313   20.6890 C   0  0  0  0  0  0
  -25.9833  -26.9175   19.4721 C   0  0  0  0  0  0
  -24.8250  -27.7082   19.4870 C   0  0  0  0  0  0
  -23.6250  -29.8541   20.1651 C   0  0  0  0  0  0
  -25.4109  -36.3103   24.0345 C   0  0  1  0  0  0
  -20.5873  -28.3711   23.1275 C   0  0  2  0  0  0
  -20.6780  -26.9444   22.5398 C   0  0  0  0  0  0
  -19.5765  -26.6386   21.5201 C   0  0  0  0  0  0
  -18.1926  -26.7946   22.1587 C   0  0  0  0  0  0
  -19.1527  -28.8873   23.2850 C   0  0  0  0  0  0
  -18.9463  -30.1464   23.8877 C   0  0  0  0  0  0
  -17.6464  -30.6598   24.0568 C   0  0  0  0  0  0
  -25.9060  -34.9456   23.5144 C   0  0  0  0  0  0
  -16.5349  -29.9106   23.6329 C   0  0  0  0  0  0
  -16.7260  -28.6528   23.0336 C   0  0  0  0  0  0
  -26.4564  -31.6579   25.0795 C   0  0  0  0  0  0
  -25.3839  -31.3656   26.1555 C   0  0  0  0  0  0
  -27.0446  -30.3033   24.6219 C   0  0  0  0  0  0
  -27.6121  -32.4305   25.7576 C   0  0  0  0  0  0
  -27.5592  -37.1812   24.8456 C   0  0  0  0  0  0
  -21.4202  -29.3080   22.3713 N   0  0  0  0  0  0
  -26.4286  -37.3798   23.9428 N   0  0  0  0  0  0
  -24.6872  -31.0670   22.1064 N   0  0  0  0  0  0
  -23.4216  -28.8163   23.3009 O   0  0  0  0  0  0
  -28.3029  -26.4978   20.1043 O   0  0  0  0  0  0
  -26.5565  -34.8906   22.4668 O   0  0  0  0  0  0
  -23.5472  -32.1410   23.7489 O   0  0  0  0  0  0
  -29.1239  -19.3952   20.3195 C   0  0  0  0  0  0
  -29.6318  -18.4815   17.6782 C   0  0  0  0  0  0
  -29.4115  -18.0207   20.0500 C   0  0  0  0  0  0
  -29.6142  -17.5859   18.7561 C   0  0  0  0  0  0
  -29.0626  -20.3284   19.2274 C   0  0  0  0  0  0
  -29.3725  -19.8445   17.9227 C   0  0  0  0  0  0
  -29.5377  -16.8080   20.9783 C   0  0  0  0  0  0
  -29.7876  -16.0942   18.7001 C   0  0  0  0  0  0
  -27.4692  -22.0169   18.5318 C   0  0  0  0  0  0
  -29.2479  -24.0878   20.1835 C   0  0  0  0  0  0
  -28.9759  -22.5568   20.4919 C   0  0  0  0  0  0
  -28.0353  -25.0565   19.9752 C   0  0  0  0  0  0
  -29.7954  -15.6176   20.1036 N   0  0  0  0  0  0
  -28.6503  -21.6945   19.3374 N   0  0  0  0  0  0
  -29.4104  -20.6988   16.8697 F   0  0  0  0  0  0
  -31.4588  -12.4247   19.1079 H   0  0  0  0  0  0
  -30.3226  -11.3306   19.8675 H   0  0  0  0  0  0
  -29.7172  -11.6669   17.4630 H   0  0  0  0  0  0
  -29.6679  -13.3923   17.6827 H   0  0  0  0  0  0
  -27.7964  -11.2904   18.8068 H   0  0  0  0  0  0
  -27.3669  -12.6134   17.7609 H   0  0  0  0  0  0
  -27.6417  -14.2305   19.4880 H   0  0  0  0  0  0
  -28.6886  -12.0606   21.3820 H   0  0  0  0  0  0
  -28.4721  -13.7500   21.7861 H   0  0  0  0  0  0
  -25.2714   -9.5727   22.4745 H   0  0  0  0  0  0
  -23.9986   -7.4664   22.7492 H   0  0  0  0  0  0
  -21.0810   -8.8673   19.8937 H   0  0  0  0  0  0
  -22.3594  -10.9632   19.6123 H   0  0  0  0  0  0
  -21.2006   -7.6136   23.9650 H   0  0  0  0  0  0
  -21.1460   -6.0551   25.9037 H   0  0  0  0  0  0
  -22.0628   -2.7598   23.2859 H   0  0  0  0  0  0
  -22.4180  -11.9865   22.4689 H   0  0  0  0  0  0
  -21.1155  -13.1210   22.2544 H   0  0  0  0  0  0
  -24.6879  -15.8550   20.4958 H   0  0  0  0  0  0
  -26.3055  -15.6065   20.0794 H   0  0  0  0  0  0
  -26.7226  -32.5436   23.1165 H   0  0  0  0  0  0
  -25.0332  -33.9715   25.0629 H   0  0  0  0  0  0
  -22.7086  -31.3197   21.4297 H   0  0  0  0  0  0
  -23.3754  -35.9651   23.3270 H   0  0  0  0  0  0
  -24.3588  -36.8965   22.2062 H   0  0  0  0  0  0
  -23.7224  -37.6511   23.6662 H   0  0  0  0  0  0
  -26.0913  -31.5554   20.6082 H   0  0  0  0  0  0
  -26.8406  -30.8321   22.0072 H   0  0  0  0  0  0
  -28.1048  -28.9902   21.1568 H   0  0  0  0  0  0
  -25.8884  -25.9659   18.9729 H   0  0  0  0  0  0
  -23.9218  -27.3460   19.0141 H   0  0  0  0  0  0
  -23.7704  -30.6455   19.4287 H   0  0  0  0  0  0
  -22.7340  -29.3130   19.8429 H   0  0  0  0  0  0
  -25.1271  -36.1981   25.0833 H   0  0  0  0  0  0
  -20.9904  -28.3285   24.1419 H   0  0  0  0  0  0
  -20.5696  -26.2333   23.3602 H   0  0  0  0  0  0
  -21.6654  -26.7486   22.1209 H   0  0  0  0  0  0
  -19.6948  -25.6284   21.1266 H   0  0  0  0  0  0
  -19.6728  -27.3168   20.6707 H   0  0  0  0  0  0
  -17.4218  -26.6681   21.3967 H   0  0  0  0  0  0
  -18.0321  -26.0080   22.8970 H   0  0  0  0  0  0
  -19.7936  -30.7270   24.2256 H   0  0  0  0  0  0
  -17.5028  -31.6258   24.5193 H   0  0  0  0  0  0
  -15.5358  -30.3015   23.7661 H   0  0  0  0  0  0
  -15.8660  -28.0862   22.7046 H   0  0  0  0  0  0
  -24.6012  -30.6988   25.7923 H   0  0  0  0  0  0
  -24.9043  -32.2781   26.5091 H   0  0  0  0  0  0
  -25.8240  -30.8795   27.0277 H   0  0  0  0  0  0
  -26.3022  -29.6724   24.1324 H   0  0  0  0  0  0
  -27.4273  -29.7335   25.4700 H   0  0  0  0  0  0
  -27.8828  -30.4382   23.9383 H   0  0  0  0  0  0
  -27.2752  -33.3587   26.2204 H   0  0  0  0  0  0
  -28.3947  -32.6878   25.0431 H   0  0  0  0  0  0
  -28.0800  -31.8403   26.5475 H   0  0  0  0  0  0
  -28.2566  -38.0146   24.7558 H   0  0  0  0  0  0
  -28.1124  -36.2675   24.6218 H   0  0  0  0  0  0
  -27.2311  -37.1413   25.8852 H   0  0  0  0  0  0
  -20.9396  -29.8904   21.7008 H   0  0  0  0  0  0
  -26.0177  -38.2876   24.1442 H   0  0  0  0  0  0
  -28.9164  -19.7120   21.3318 H   0  0  0  0  0  0
  -29.8331  -18.1327   16.6763 H   0  0  0  0  0  0
  -28.6152  -16.6590   21.5398 H   0  0  0  0  0  0
  -30.3475  -16.9631   21.6929 H   0  0  0  0  0  0
  -30.6963  -15.8395   18.1507 H   0  0  0  0  0  0
  -28.9413  -15.6609   18.1633 H   0  0  0  0  0  0
  -27.0281  -21.1395   18.0483 H   0  0  0  0  0  0
  -27.7140  -22.7301   17.7429 H   0  0  0  0  0  0
  -26.6824  -22.4496   19.1474 H   0  0  0  0  0  0
  -29.9176  -24.1773   19.3294 H   0  0  0  0  0  0
  -29.8088  -24.4787   21.0321 H   0  0  0  0  0  0
  -28.2130  -22.4417   21.2631 H   0  0  0  0  0  0
  -29.8897  -22.1443   20.9247 H   0  0  0  0  0  0
  -27.2482  -24.7755   20.6766 H   0  0  0  0  0  0
  -27.6548  -24.8512   18.9749 H   0  0  0  0  0  0
  1 25  1  0  0  0
  1 30  2  0  0  0
  1 83  1  0  0  0
  2  3  1  0  0  0
  2 25  1  0  0  0
  2 86  1  0  0  0
  2 87  1  0  0  0
  3  4  1  0  0  0
  3 88  1  0  0  0
  3 89  1  0  0  0
  4  5  1  0  0  0
  4 90  1  0  0  0
  4 91  1  0  0  0
  5  6  1  0  0  0
  5 26  1  0  0  0
  5 92  1  0  0  0
  6 25  1  0  0  0
  6 93  1  0  0  0
  6 94  1  0  0  0
  7  8  2  0  0  0
  7 26  1  0  0  0
  7 29  1  0  0  0
  8  9  1  0  0  0
  8 22  1  0  0  0
  9 10  1  0  0  0
  9 27  2  0  0  0
 10 11  2  0  0  0
 10 15  1  0  0  0
 11 12  1  0  0  0
 11 95  1  0  0  0
 12 13  2  0  0  0
 12 96  1  0  0  0
 13 14  1  0  0  0
 13 31  1  0  0  0
 14 15  2  0  0  0
 14 97  1  0  0  0
 15 98  1  0  0  0
 16 17  2  0  0  0
 16 21  1  0  0  0
 16 31  1  0  0  0
 17 18  1  0  0  0
 17 99  1  0  0  0
 18 19  2  0  0  0
 18100  1  0  0  0
 19 20  1  0  0  0
 19 24  1  0  0  0
 20 21  2  0  0  0
 20101  1  0  0  0
 21 23  1  0  0  0
 22 28  1  0  0  0
 22 32  2  0  0  0
 26 27  1  0  0  0
 28102  1  0  0  0
 28103  1  0  0  0
 29104  1  0  0  0
 29105  1  0  0  0
 33 34  1  0  0  0
 33 66  1  0  0  0
 33 70  2  0  0  0
 34 36  1  0  0  0
 34 59  1  0  0  0
 34106  1  0  0  0
 35 44  2  0  0  0
 35 45  1  0  0  0
 35 68  1  0  0  0
 36 56  1  0  0  0
 36107  1  0  0  0
 37 39  1  0  0  0
 37 47  1  0  0  0
 37 66  1  0  0  0
 37108  1  0  0  0
 38 43  2  0  0  0
 38 46  1  0  0  0
 38 47  1  0  0  0
 39 64  1  0  0  0
 39 67  2  0  0  0
 40 52  1  0  0  0
 40 53  2  0  0  0
 40 58  1  0  0  0
 41109  1  0  0  0
 41110  1  0  0  0
 41111  1  0  0  0
 41 48  1  0  0  0
 42 43  1  0  0  0
 42 66  1  0  0  0
 42112  1  0  0  0
 42113  1  0  0  0
 43 44  1  0  0  0
 44114  1  0  0  0
 45 46  2  0  0  0
 45115  1  0  0  0
 46116  1  0  0  0
 47117  1  0  0  0
 47118  1  0  0  0
 48 56  1  0  0  0
 48 65  1  0  0  0
 48119  1  0  0  0
 49 50  1  0  0  0
 49 53  1  0  0  0
 49 64  1  0  0  0
 49120  1  0  0  0
 50 51  1  0  0  0
 50121  1  0  0  0
 50122  1  0  0  0
 51 52  1  0  0  0
 51123  1  0  0  0
 51124  1  0  0  0
 52125  1  0  0  0
 52126  1  0  0  0
 53 54  1  0  0  0
 54 55  2  0  0  0
 54127  1  0  0  0
 55 57  1  0  0  0
 55128  1  0  0  0
 56 69  2  0  0  0
 57 58  2  0  0  0
 57129  1  0  0  0
 58130  1  0  0  0
 59 60  1  0  0  0
 59 61  1  0  0  0
 59 62  1  0  0  0
 60131  1  0  0  0
 60132  1  0  0  0
 60133  1  0  0  0
 61134  1  0  0  0
 61135  1  0  0  0
 61136  1  0  0  0
 62137  1  0  0  0
 62138  1  0  0  0
 62139  1  0  0  0
 63 65  1  0  0  0
 63140  1  0  0  0
 63141  1  0  0  0
 63142  1  0  0  0
 64143  1  0  0  0
 65144  1  0  0  0
 68 82  1  0  0  0
 71 73  2  0  0  0
 71 75  1  0  0  0
 71145  1  0  0  0
 72 74  2  0  0  0
 72 76  1  0  0  0
 72146  1  0  0  0
 73 74  1  0  0  0
 73 77  1  0  0  0
 74 78  1  0  0  0
 75 76  2  0  0  0
 75 84  1  0  0  0
 76 85  1  0  0  0
 77 83  1  0  0  0
 77147  1  0  0  0
 77148  1  0  0  0
 78 83  1  0  0  0
 78149  1  0  0  0
 78150  1  0  0  0
 79 84  1  0  0  0
 79151  1  0  0  0
 79152  1  0  0  0
 79153  1  0  0  0
 80 81  1  0  0  0
 80 82  1  0  0  0
 80154  1  0  0  0
 80155  1  0  0  0
 81 84  1  0  0  0
 81156  1  0  0  0
 81157  1  0  0  0
 82158  1  0  0  0
 82159  1  0  0  0
M  ISO  4   1 100  68 101  82 101  83 100
M  END
> <chiral flag>
0

> <version>
0

> <s_m_source_file>
/data/baiqing/PycharmProjects/Reinvent-master-3.2/result/LINK_invent/BTK/process_docking_weight1_custom_product_contain_oxygen_bond_distance_aromatic_linkinvent_7_9_3/rearranged_h_0012.sdf

> <i_m_source_file_index>
80

> <r_mmod_Potential_Energy-OPLS-2005>
261.106536865234

> <r_mmod_Stretch_Energy-OPLS-2005>
63.6332473754883

> <r_mmod_Bend_Energy-OPLS-2005>
166.826202392578

> <r_mmod_Torsional_Energy-OPLS-2005>
300.500823974609

> <r_mmod_Improper_Torsional_Energy-OPLS-2005>
22.1048927307129

> <r_mmod_Van_der_Waal_Energy-OPLS-2005>
144.287841796875

> <r_mmod_Electrostatic_Energy-OPLS-2005>
-272.507781982422

> <r_mmod_Solvation_Energy-OPLS-2005>
-209.321929931641

> <b_mmod_Minimization_Converged-OPLS-2005>
0

> <r_mmod_RMS_Derivative-OPLS-2005>
4.82668733596802

$$$$
81
                    3D
 Structure written by MMmdl.
154162  0  0  1  0            999 V2000
  -30.6612  -14.6720   20.5040 C   0  0  0  0  0  0
  -30.4190  -12.4204   19.4612 C   0  0  0  0  0  0
  -29.4990  -12.5078   18.2264 C   0  0  0  0  0  0
  -28.0260  -12.3394   18.6427 C   0  0  0  0  0  0
  -27.6420  -13.2297   19.8547 C   0  0  2  0  0  0
  -28.6859  -13.1428   20.9887 C   0  0  0  0  0  0
  -25.2501  -13.8195   20.5702 C   0  0  0  0  0  0
  -24.1795  -13.0437   20.9214 C   0  0  0  0  0  0
  -24.6389  -11.6917   20.8758 C   0  0  0  0  0  0
  -23.9070  -10.4291   21.0413 C   0  0  0  0  0  0
  -24.3621   -9.4206   21.9190 C   0  0  0  0  0  0
  -23.6293   -8.2241   22.0757 C   0  0  0  0  0  0
  -22.4276   -8.0281   21.3544 C   0  0  0  0  0  0
  -21.9914   -9.0256   20.4647 C   0  0  0  0  0  0
  -22.7244  -10.2134   20.3058 C   0  0  0  0  0  0
  -21.6854   -6.0736   22.5279 C   0  0  0  0  0  0
  -21.4014   -6.5640   23.8213 C   0  0  0  0  0  0
  -21.3658   -5.6792   24.9176 C   0  0  0  0  0  0
  -21.6042   -4.3055   24.7224 C   0  0  0  0  0  0
  -21.8819   -3.8148   23.4347 C   0  0  0  0  0  0
  -21.9193   -4.6964   22.3403 C   0  0  0  0  0  0
  -22.7816  -13.5220   21.1867 C   0  0  0  0  0  0
  -22.1661   -4.2151   21.0981 F   0  0  0  0  0  0
  -21.5629   -3.4539   25.7738 F   0  0  0  0  0  0
  -29.9929  -13.4746   20.4095 N   0  0  0  0  0  0
  -26.2933  -12.9405   20.3308 N   0  0  0  0  0  0
  -25.9320  -11.6547   20.5771 N   0  0  0  0  0  0
  -22.0460  -12.8211   22.0420 N   0  0  0  0  0  0
  -25.4163  -15.1917   20.4097 N   0  0  0  0  0  0
  -31.8294  -14.7546   20.1120 O   0  0  0  0  0  0
  -21.6640   -6.8879   21.4241 O   0  0  0  0  0  0
  -22.3501  -14.5526   20.6713 O   0  0  0  0  0  0
  -24.6278  -31.8566   23.1993 C   0  0  0  0  0  0
  -25.9119  -32.4757   23.8329 C   0  0  1  0  0  0
  -27.2248  -27.2961   20.1158 C   0  0  0  0  0  0
  -25.5932  -33.8564   24.2255 N   0  0  0  0  0  0
  -23.4214  -30.4788   21.5425 C   0  0  2  0  0  0
  -24.8666  -28.9263   20.1089 C   0  0  0  0  0  0
  -22.7472  -29.4612   22.4933 C   0  0  0  0  0  0
  -18.0281  -28.1378   22.8483 C   0  0  0  0  0  0
  -24.1491  -36.7285   23.2640 C   0  0  0  0  0  0
  -25.9624  -30.7798   21.3714 C   0  0  0  0  0  0
  -26.0343  -29.4045   20.7143 C   0  0  0  0  0  0
  -27.2122  -28.5994   20.7090 C   0  0  0  0  0  0
  -26.0289  -26.8657   19.4988 C   0  0  0  0  0  0
  -24.8668  -27.6635   19.4943 C   0  0  0  0  0  0
  -23.6353  -29.8092   20.1586 C   0  0  0  0  0  0
  -25.4116  -36.3070   24.0324 C   0  0  1  0  0  0
  -20.5880  -28.3688   23.1275 C   0  0  2  0  0  0
  -20.6770  -26.9411   22.5402 C   0  0  0  0  0  0
  -19.5751  -26.6380   21.5201 C   0  0  0  0  0  0
  -18.1929  -26.7919   22.1617 C   0  0  0  0  0  0
  -19.1535  -28.8850   23.2875 C   0  0  0  0  0  0
  -18.9463  -30.1452   23.8889 C   0  0  0  0  0  0
  -17.6463  -30.6586   24.0563 C   0  0  0  0  0  0
  -25.9057  -34.9442   23.5091 C   0  0  0  0  0  0
  -16.5352  -29.9081   23.6333 C   0  0  0  0  0  0
  -16.7267  -28.6497   23.0354 C   0  0  0  0  0  0
  -26.4494  -31.6580   25.0714 C   0  0  0  0  0  0
  -25.3722  -31.3719   26.1439 C   0  0  0  0  0  0
  -27.0347  -30.3005   24.6183 C   0  0  0  0  0  0
  -27.6053  -32.4317   25.7482 C   0  0  0  0  0  0
  -27.5576  -37.1799   24.8463 C   0  0  0  0  0  0
  -21.4183  -29.3045   22.3674 N   0  0  0  0  0  0
  -26.4287  -37.3771   23.9408 N   0  0  0  0  0  0
  -24.6896  -31.0560   22.0945 N   0  0  0  0  0  0
  -23.4186  -28.8157   23.3025 O   0  0  0  0  0  0
  -28.3612  -26.4712   20.1878 O   0  0  0  0  0  0
  -26.5630  -34.8916   22.4658 O   0  0  0  0  0  0
  -23.5439  -32.1373   23.7314 O   0  0  0  0  0  0
  -28.3519  -19.1394   21.0192 C   0  0  0  0  0  0
  -30.1070  -20.4522   19.3265 C   0  0  0  0  0  0
  -29.2598  -18.3165   20.2844 C   0  0  0  0  0  0
  -29.1744  -21.2755   20.0162 C   0  0  0  0  0  0
  -28.3041  -20.5705   20.8986 C   0  0  0  0  0  0
  -30.1586  -19.0300   19.4471 C   0  0  0  0  0  0
  -30.7030  -16.4653   22.1383 C   0  0  0  0  0  0
  -29.1352  -16.7283   20.2502 C   0  0  0  0  0  0
  -28.4619  -25.1305   19.5484 C   0  0  0  0  0  0
  -28.3978  -23.7360   20.3518 C   0  0  0  0  0  0
  -30.0293  -15.7873   21.0301 N   0  0  0  0  0  0
  -29.2027  -22.6680   19.7272 O   0  0  0  0  0  0
  -27.3857  -21.2526   21.6230 F   0  0  0  0  0  0
  -31.3136  -18.1657   18.4970 Cl  0  0  0  0  0  0
  -31.4624  -12.5231   19.1583 H   0  0  0  0  0  0
  -30.3432  -11.4377   19.9294 H   0  0  0  0  0  0
  -29.7708  -11.7436   17.4970 H   0  0  0  0  0  0
  -29.6350  -13.4695   17.7288 H   0  0  0  0  0  0
  -27.8746  -11.2891   18.8939 H   0  0  0  0  0  0
  -27.3676  -12.5463   17.7983 H   0  0  0  0  0  0
  -27.6427  -14.2551   19.4868 H   0  0  0  0  0  0
  -28.7070  -12.1424   21.4231 H   0  0  0  0  0  0
  -28.4275  -13.8228   21.8019 H   0  0  0  0  0  0
  -25.2764   -9.5683   22.4768 H   0  0  0  0  0  0
  -24.0002   -7.4632   22.7476 H   0  0  0  0  0  0
  -21.0847   -8.8774   19.8951 H   0  0  0  0  0  0
  -22.3704  -10.9675   19.6168 H   0  0  0  0  0  0
  -21.2006   -7.6146   23.9717 H   0  0  0  0  0  0
  -21.1481   -6.0523   25.9079 H   0  0  0  0  0  0
  -22.0600   -2.7611   23.2847 H   0  0  0  0  0  0
  -22.4075  -11.9872   22.4806 H   0  0  0  0  0  0
  -21.1075  -13.1235   22.2621 H   0  0  0  0  0  0
  -24.6441  -15.8406   20.5171 H   0  0  0  0  0  0
  -26.2570  -15.6315   20.0612 H   0  0  0  0  0  0
  -26.7182  -32.5410   23.1071 H   0  0  0  0  0  0
  -25.0089  -33.9707   25.0406 H   0  0  0  0  0  0
  -22.7167  -31.3003   21.3971 H   0  0  0  0  0  0
  -23.3754  -35.9618   23.3297 H   0  0  0  0  0  0
  -24.3585  -36.8912   22.2057 H   0  0  0  0  0  0
  -23.7245  -37.6485   23.6669 H   0  0  0  0  0  0
  -26.0952  -31.5411   20.6015 H   0  0  0  0  0  0
  -26.8422  -30.8295   22.0012 H   0  0  0  0  0  0
  -28.1090  -28.9625   21.1913 H   0  0  0  0  0  0
  -25.9522  -25.8922   19.0404 H   0  0  0  0  0  0
  -23.9678  -27.2864   19.0261 H   0  0  0  0  0  0
  -23.7525  -30.5833   19.3996 H   0  0  0  0  0  0
  -22.7545  -29.2382   19.8597 H   0  0  0  0  0  0
  -25.1296  -36.1914   25.0815 H   0  0  0  0  0  0
  -20.9971  -28.3257   24.1398 H   0  0  0  0  0  0
  -20.5662  -26.2298   23.3602 H   0  0  0  0  0  0
  -21.6639  -26.7436   22.1204 H   0  0  0  0  0  0
  -19.6919  -25.6288   21.1239 H   0  0  0  0  0  0
  -19.6688  -27.3184   20.6728 H   0  0  0  0  0  0
  -17.4197  -26.6661   21.4023 H   0  0  0  0  0  0
  -18.0343  -26.0053   22.9008 H   0  0  0  0  0  0
  -19.7941  -30.7271   24.2251 H   0  0  0  0  0  0
  -17.5021  -31.6267   24.5163 H   0  0  0  0  0  0
  -15.5355  -30.2987   23.7664 H   0  0  0  0  0  0
  -15.8662  -28.0819   22.7074 H   0  0  0  0  0  0
  -24.5909  -30.7051   25.7769 H   0  0  0  0  0  0
  -24.8900  -32.2884   26.4854 H   0  0  0  0  0  0
  -25.8045  -30.8910   27.0223 H   0  0  0  0  0  0
  -26.2930  -29.6746   24.1209 H   0  0  0  0  0  0
  -27.4044  -29.7271   25.4694 H   0  0  0  0  0  0
  -27.8792  -30.4289   23.9407 H   0  0  0  0  0  0
  -27.2674  -33.3631   26.2035 H   0  0  0  0  0  0
  -28.3878  -32.6851   25.0317 H   0  0  0  0  0  0
  -28.0705  -31.8454   26.5417 H   0  0  0  0  0  0
  -28.2586  -38.0104   24.7517 H   0  0  0  0  0  0
  -28.1075  -36.2633   24.6273 H   0  0  0  0  0  0
  -27.2296  -37.1428   25.8868 H   0  0  0  0  0  0
  -20.9360  -29.8765   21.6882 H   0  0  0  0  0  0
  -26.0159  -38.2841   24.1412 H   0  0  0  0  0  0
  -27.6304  -18.6638   21.6673 H   0  0  0  0  0  0
  -30.8004  -20.9273   18.6483 H   0  0  0  0  0  0
  -29.9939  -17.0487   22.7265 H   0  0  0  0  0  0
  -31.4768  -17.1373   21.7644 H   0  0  0  0  0  0
  -31.1756  -15.7522   22.8164 H   0  0  0  0  0  0
  -29.1652  -16.4292   19.2007 H   0  0  0  0  0  0
  -28.1193  -16.4931   20.5665 H   0  0  0  0  0  0
  -27.8475  -25.0617   18.6528 H   0  0  0  0  0  0
  -29.4714  -25.1582   19.1382 H   0  0  0  0  0  0
  -27.3583  -23.4254   20.4541 H   0  0  0  0  0  0
  -28.7842  -23.8859   21.3604 H   0  0  0  0  0  0
  1 25  1  0  0  0
  1 30  2  0  0  0
  1 81  1  0  0  0
  2  3  1  0  0  0
  2 25  1  0  0  0
  2 85  1  0  0  0
  2 86  1  0  0  0
  3  4  1  0  0  0
  3 87  1  0  0  0
  3 88  1  0  0  0
  4  5  1  0  0  0
  4 89  1  0  0  0
  4 90  1  0  0  0
  5  6  1  0  0  0
  5 26  1  0  0  0
  5 91  1  0  0  0
  6 25  1  0  0  0
  6 92  1  0  0  0
  6 93  1  0  0  0
  7  8  2  0  0  0
  7 26  1  0  0  0
  7 29  1  0  0  0
  8  9  1  0  0  0
  8 22  1  0  0  0
  9 10  1  0  0  0
  9 27  2  0  0  0
 10 11  2  0  0  0
 10 15  1  0  0  0
 11 12  1  0  0  0
 11 94  1  0  0  0
 12 13  2  0  0  0
 12 95  1  0  0  0
 13 14  1  0  0  0
 13 31  1  0  0  0
 14 15  2  0  0  0
 14 96  1  0  0  0
 15 97  1  0  0  0
 16 17  2  0  0  0
 16 21  1  0  0  0
 16 31  1  0  0  0
 17 18  1  0  0  0
 17 98  1  0  0  0
 18 19  2  0  0  0
 18 99  1  0  0  0
 19 20  1  0  0  0
 19 24  1  0  0  0
 20 21  2  0  0  0
 20100  1  0  0  0
 21 23  1  0  0  0
 22 28  1  0  0  0
 22 32  2  0  0  0
 26 27  1  0  0  0
 28101  1  0  0  0
 28102  1  0  0  0
 29103  1  0  0  0
 29104  1  0  0  0
 33 34  1  0  0  0
 33 66  1  0  0  0
 33 70  2  0  0  0
 34 36  1  0  0  0
 34 59  1  0  0  0
 34105  1  0  0  0
 35 44  2  0  0  0
 35 45  1  0  0  0
 35 68  1  0  0  0
 36 56  1  0  0  0
 36106  1  0  0  0
 37 39  1  0  0  0
 37 47  1  0  0  0
 37 66  1  0  0  0
 37107  1  0  0  0
 38 43  2  0  0  0
 38 46  1  0  0  0
 38 47  1  0  0  0
 39 64  1  0  0  0
 39 67  2  0  0  0
 40 52  1  0  0  0
 40 53  2  0  0  0
 40 58  1  0  0  0
 41108  1  0  0  0
 41109  1  0  0  0
 41110  1  0  0  0
 41 48  1  0  0  0
 42 43  1  0  0  0
 42 66  1  0  0  0
 42111  1  0  0  0
 42112  1  0  0  0
 43 44  1  0  0  0
 44113  1  0  0  0
 45 46  2  0  0  0
 45114  1  0  0  0
 46115  1  0  0  0
 47116  1  0  0  0
 47117  1  0  0  0
 48 56  1  0  0  0
 48 65  1  0  0  0
 48118  1  0  0  0
 49 50  1  0  0  0
 49 53  1  0  0  0
 49 64  1  0  0  0
 49119  1  0  0  0
 50 51  1  0  0  0
 50120  1  0  0  0
 50121  1  0  0  0
 51 52  1  0  0  0
 51122  1  0  0  0
 51123  1  0  0  0
 52124  1  0  0  0
 52125  1  0  0  0
 53 54  1  0  0  0
 54 55  2  0  0  0
 54126  1  0  0  0
 55 57  1  0  0  0
 55127  1  0  0  0
 56 69  2  0  0  0
 57 58  2  0  0  0
 57128  1  0  0  0
 58129  1  0  0  0
 59 60  1  0  0  0
 59 61  1  0  0  0
 59 62  1  0  0  0
 60130  1  0  0  0
 60131  1  0  0  0
 60132  1  0  0  0
 61133  1  0  0  0
 61134  1  0  0  0
 61135  1  0  0  0
 62136  1  0  0  0
 62137  1  0  0  0
 62138  1  0  0  0
 63 65  1  0  0  0
 63139  1  0  0  0
 63140  1  0  0  0
 63141  1  0  0  0
 64142  1  0  0  0
 65143  1  0  0  0
 68 79  1  0  0  0
 71 73  2  0  0  0
 71 75  1  0  0  0
 71144  1  0  0  0
 72 74  1  0  0  0
 72 76  2  0  0  0
 72145  1  0  0  0
 73 76  1  0  0  0
 73 78  1  0  0  0
 74 75  2  0  0  0
 74 82  1  0  0  0
 75 83  1  0  0  0
 76 84  1  0  0  0
 77 81  1  0  0  0
 77146  1  0  0  0
 77147  1  0  0  0
 77148  1  0  0  0
 78 81  1  0  0  0
 78149  1  0  0  0
 78150  1  0  0  0
 79 80  1  0  0  0
 79151  1  0  0  0
 79152  1  0  0  0
 80 82  1  0  0  0
 80153  1  0  0  0
 80154  1  0  0  0
M  ISO  4   1 100  68 101  79 101  81 100
M  END
> <chiral flag>
0

> <version>
0

> <s_m_source_file>
/data/baiqing/PycharmProjects/Reinvent-master-3.2/result/LINK_invent/BTK/process_docking_weight1_custom_product_contain_oxygen_bond_distance_aromatic_linkinvent_7_9_3/rearranged_h_0012.sdf

> <i_m_source_file_index>
81

> <r_mmod_Potential_Energy-OPLS-2005>
262.73193359375

> <r_mmod_Stretch_Energy-OPLS-2005>
96.7421875

> <r_mmod_Bend_Energy-OPLS-2005>
191.378402709961

> <r_mmod_Torsional_Energy-OPLS-2005>
271.169677734375

> <r_mmod_Improper_Torsional_Energy-OPLS-2005>
4.77033090591431

> <r_mmod_Van_der_Waal_Energy-OPLS-2005>
132.729873657227

> <r_mmod_Electrostatic_Energy-OPLS-2005>
-292.123260498047

> <r_mmod_Solvation_Energy-OPLS-2005>
-200.332412719727

> <b_mmod_Minimization_Converged-OPLS-2005>
0

> <r_mmod_RMS_Derivative-OPLS-2005>
0.648568749427795

$$$$
82
                    3D
 Structure written by MMmdl.
166174  0  0  1  0            999 V2000
  -30.7183  -14.6220   20.5843 C   0  0  0  0  0  0
  -30.4103  -12.4042   19.4755 C   0  0  0  0  0  0
  -29.5032  -12.5424   18.2359 C   0  0  0  0  0  0
  -28.0292  -12.3763   18.6464 C   0  0  0  0  0  0
  -27.6526  -13.2475   19.8771 C   0  0  2  0  0  0
  -28.6927  -13.1225   21.0148 C   0  0  0  0  0  0
  -25.2491  -13.8259   20.5689 C   0  0  0  0  0  0
  -24.1821  -13.0464   20.9249 C   0  0  0  0  0  0
  -24.6441  -11.6946   20.8755 C   0  0  0  0  0  0
  -23.9119  -10.4296   21.0404 C   0  0  0  0  0  0
  -24.3660   -9.4195   21.9180 C   0  0  0  0  0  0
  -23.6336   -8.2226   22.0713 C   0  0  0  0  0  0
  -22.4302   -8.0281   21.3539 C   0  0  0  0  0  0
  -21.9943   -9.0255   20.4632 C   0  0  0  0  0  0
  -22.7281  -10.2135   20.3044 C   0  0  0  0  0  0
  -21.6850   -6.0740   22.5288 C   0  0  0  0  0  0
  -21.3997   -6.5643   23.8221 C   0  0  0  0  0  0
  -21.3668   -5.6802   24.9185 C   0  0  0  0  0  0
  -21.6037   -4.3060   24.7212 C   0  0  0  0  0  0
  -21.8829   -3.8155   23.4332 C   0  0  0  0  0  0
  -21.9181   -4.6971   22.3393 C   0  0  0  0  0  0
  -22.7819  -13.5146   21.1881 C   0  0  0  0  0  0
  -22.1643   -4.2164   21.0963 F   0  0  0  0  0  0
  -21.5649   -3.4539   25.7721 F   0  0  0  0  0  0
  -30.0166  -13.4391   20.4660 N   0  0  0  0  0  0
  -26.2990  -12.9512   20.3409 N   0  0  0  0  0  0
  -25.9393  -11.6624   20.5851 N   0  0  0  0  0  0
  -22.0483  -12.8177   22.0491 N   0  0  0  0  0  0
  -25.4154  -15.1988   20.3964 N   0  0  0  0  0  0
  -31.7700  -14.7638   19.9531 O   0  0  0  0  0  0
  -21.6640   -6.8893   21.4260 O   0  0  0  0  0  0
  -22.3458  -14.5410   20.6664 O   0  0  0  0  0  0
  -24.6238  -31.8613   23.2008 C   0  0  0  0  0  0
  -25.9088  -32.4797   23.8341 C   0  0  1  0  0  0
  -27.2231  -27.2980   20.1521 C   0  0  0  0  0  0
  -25.5887  -33.8594   24.2269 N   0  0  0  0  0  0
  -23.4194  -30.4786   21.5498 C   0  0  2  0  0  0
  -24.8688  -28.9346   20.1143 C   0  0  0  0  0  0
  -22.7486  -29.4624   22.5024 C   0  0  0  0  0  0
  -18.0290  -28.1404   22.8534 C   0  0  0  0  0  0
  -24.1494  -36.7288   23.2658 C   0  0  0  0  0  0
  -25.9637  -30.7846   21.3805 C   0  0  0  0  0  0
  -26.0385  -29.4103   20.7236 C   0  0  0  0  0  0
  -27.2206  -28.6094   20.7256 C   0  0  0  0  0  0
  -26.0438  -26.8920   19.4871 C   0  0  0  0  0  0
  -24.8796  -27.6825   19.4722 C   0  0  0  0  0  0
  -23.6313  -29.8115   20.1657 C   0  0  0  0  0  0
  -25.4116  -36.3086   24.0344 C   0  0  1  0  0  0
  -20.5895  -28.3671   23.1355 C   0  0  2  0  0  0
  -20.6796  -26.9391   22.5453 C   0  0  0  0  0  0
  -19.5757  -26.6393   21.5265 C   0  0  0  0  0  0
  -18.1935  -26.7972   22.1661 C   0  0  0  0  0  0
  -19.1535  -28.8858   23.2945 C   0  0  0  0  0  0
  -18.9467  -30.1498   23.8903 C   0  0  0  0  0  0
  -17.6455  -30.6595   24.0590 C   0  0  0  0  0  0
  -25.9046  -34.9470   23.5091 C   0  0  0  0  0  0
  -16.5349  -29.9091   23.6345 C   0  0  0  0  0  0
  -16.7286  -28.6533   23.0340 C   0  0  0  0  0  0
  -26.4426  -31.6580   25.0705 C   0  0  0  0  0  0
  -25.3662  -31.3668   26.1421 C   0  0  0  0  0  0
  -27.0251  -30.3020   24.6149 C   0  0  0  0  0  0
  -27.6020  -32.4280   25.7423 C   0  0  0  0  0  0
  -27.5587  -37.1786   24.8475 C   0  0  0  0  0  0
  -21.4197  -29.3017   22.3747 N   0  0  0  0  0  0
  -26.4310  -37.3780   23.9391 N   0  0  0  0  0  0
  -24.6884  -31.0582   22.0997 N   0  0  0  0  0  0
  -23.4211  -28.8215   23.3150 O   0  0  0  0  0  0
  -28.3189  -26.4167   20.2193 O   0  0  0  0  0  0
  -26.5681  -34.8968   22.4692 O   0  0  0  0  0  0
  -23.5395  -32.1416   23.7295 O   0  0  0  0  0  0
  -28.9786  -17.7790   21.5826 C   0  0  0  0  0  0
  -31.0593  -17.7805   20.4075 C   0  0  0  0  0  0
  -28.8369  -19.1969   21.3629 C   0  0  0  0  0  0
  -30.9090  -19.1802   20.1703 C   0  0  0  0  0  0
  -30.1041  -17.0198   21.1371 C   0  0  0  0  0  0
  -29.8141  -19.9475   20.6491 C   0  0  0  0  0  0
  -30.1976  -14.6847   25.1930 C   0  0  0  0  0  0
  -30.3383  -17.1063   24.6418 C   0  0  0  0  0  0
  -32.3789  -15.9071   22.9487 C   0  0  0  0  0  0
  -29.1395  -23.8463   20.3547 C   0  0  0  0  0  0
  -28.8319  -22.3244   20.8094 C   0  0  0  0  0  0
  -28.0595  -24.9977   20.6266 C   0  0  0  0  0  0
  -30.0450  -15.7097   24.0562 C   0  0  0  0  0  0
  -30.9412  -15.3344   22.8400 C   0  0  1  0  0  0
  -30.3326  -15.5925   21.4994 N   0  0  0  0  0  0
  -29.8303  -21.3401   20.3726 O   0  0  0  0  0  0
  -31.4599  -12.4717   19.1893 H   0  0  0  0  0  0
  -30.2953  -11.4086   19.9088 H   0  0  0  0  0  0
  -29.7693  -11.7936   17.4900 H   0  0  0  0  0  0
  -29.6547  -13.5139   17.7650 H   0  0  0  0  0  0
  -27.8664  -11.3245   18.8821 H   0  0  0  0  0  0
  -27.3748  -12.6073   17.8026 H   0  0  0  0  0  0
  -27.6675  -14.2850   19.5438 H   0  0  0  0  0  0
  -28.6906  -12.1070   21.4121 H   0  0  0  0  0  0
  -28.4467  -13.7796   21.8493 H   0  0  0  0  0  0
  -25.2775   -9.5679   22.4785 H   0  0  0  0  0  0
  -24.0053   -7.4573   22.7397 H   0  0  0  0  0  0
  -21.0868   -8.8771   19.8916 H   0  0  0  0  0  0
  -22.3715  -10.9690   19.6170 H   0  0  0  0  0  0
  -21.1986   -7.6154   23.9746 H   0  0  0  0  0  0
  -21.1489   -6.0507   25.9102 H   0  0  0  0  0  0
  -22.0604   -2.7612   23.2815 H   0  0  0  0  0  0
  -22.4067  -11.9835   22.4933 H   0  0  0  0  0  0
  -21.1069  -13.1178   22.2621 H   0  0  0  0  0  0
  -24.6542  -15.8615   20.4815 H   0  0  0  0  0  0
  -26.2699  -15.6239   20.0555 H   0  0  0  0  0  0
  -26.7144  -32.5447   23.1072 H   0  0  0  0  0  0
  -24.9936  -33.9747   25.0346 H   0  0  0  0  0  0
  -22.7152  -31.3013   21.4102 H   0  0  0  0  0  0
  -23.3778  -35.9595   23.3313 H   0  0  0  0  0  0
  -24.3613  -36.8902   22.2074 H   0  0  0  0  0  0
  -23.7217  -37.6484   23.6673 H   0  0  0  0  0  0
  -26.1066  -31.5444   20.6108 H   0  0  0  0  0  0
  -26.8466  -30.8310   22.0102 H   0  0  0  0  0  0
  -28.1141  -28.9796   21.2109 H   0  0  0  0  0  0
  -26.0146  -25.9486   18.9617 H   0  0  0  0  0  0
  -23.9977  -27.3202   18.9619 H   0  0  0  0  0  0
  -23.7456  -30.5943   19.4151 H   0  0  0  0  0  0
  -22.7492  -29.2409   19.8657 H   0  0  0  0  0  0
  -25.1277  -36.1957   25.0846 H   0  0  0  0  0  0
  -20.9992  -28.3266   24.1482 H   0  0  0  0  0  0
  -20.5756  -26.2275   23.3663 H   0  0  0  0  0  0
  -21.6683  -26.7486   22.1218 H   0  0  0  0  0  0
  -19.6948  -25.6307   21.1299 H   0  0  0  0  0  0
  -19.6735  -27.3257   20.6840 H   0  0  0  0  0  0
  -17.4241  -26.6769   21.4023 H   0  0  0  0  0  0
  -18.0283  -26.0096   22.9021 H   0  0  0  0  0  0
  -19.7910  -30.7341   24.2297 H   0  0  0  0  0  0
  -17.4967  -31.6281   24.5178 H   0  0  0  0  0  0
  -15.5333  -30.2962   23.7681 H   0  0  0  0  0  0
  -15.8707  -28.0842   22.7013 H   0  0  0  0  0  0
  -24.5938  -30.6907   25.7732 H   0  0  0  0  0  0
  -24.8750  -32.2812   26.4769 H   0  0  0  0  0  0
  -25.8034  -30.8918   27.0226 H   0  0  0  0  0  0
  -26.2841  -29.6794   24.1179 H   0  0  0  0  0  0
  -27.3950  -29.7222   25.4602 H   0  0  0  0  0  0
  -27.8676  -30.4308   23.9374 H   0  0  0  0  0  0
  -27.2716  -33.3618   26.1978 H   0  0  0  0  0  0
  -28.3826  -32.6782   25.0225 H   0  0  0  0  0  0
  -28.0723  -31.8435   26.5328 H   0  0  0  0  0  0
  -28.2598  -38.0099   24.7538 H   0  0  0  0  0  0
  -28.1100  -36.2623   24.6267 H   0  0  0  0  0  0
  -27.2338  -37.1405   25.8903 H   0  0  0  0  0  0
  -20.9396  -29.8638   21.6858 H   0  0  0  0  0  0
  -26.0179  -38.2862   24.1363 H   0  0  0  0  0  0
  -28.2080  -17.2756   22.1435 H   0  0  0  0  0  0
  -31.9618  -17.3032   20.0528 H   0  0  0  0  0  0
  -27.9688  -19.7003   21.7691 H   0  0  0  0  0  0
  -31.6837  -19.6881   19.6136 H   0  0  0  0  0  0
  -29.5980  -14.9664   26.0573 H   0  0  0  0  0  0
  -31.2341  -14.6108   25.5267 H   0  0  0  0  0  0
  -29.8790  -13.6881   24.8907 H   0  0  0  0  0  0
  -29.6225  -17.3775   25.4188 H   0  0  0  0  0  0
  -30.3009  -17.8847   23.8820 H   0  0  0  0  0  0
  -31.3283  -17.1442   25.1024 H   0  0  0  0  0  0
  -32.8617  -15.5912   23.8740 H   0  0  0  0  0  0
  -32.4068  -16.9971   22.9174 H   0  0  0  0  0  0
  -33.0124  -15.5573   22.1325 H   0  0  0  0  0  0
  -29.3517  -23.8356   19.2841 H   0  0  0  0  0  0
  -30.0712  -24.1507   20.8295 H   0  0  0  0  0  0
  -27.8635  -22.0158   20.4170 H   0  0  0  0  0  0
  -28.7563  -22.2756   21.8978 H   0  0  0  0  0  0
  -27.8881  -25.0289   21.7039 H   0  0  0  0  0  0
  -27.1221  -24.6279   20.2183 H   0  0  0  0  0  0
  -29.0020  -15.6804   23.7366 H   0  0  0  0  0  0
  -31.0850  -14.2531   22.9317 H   0  0  0  0  0  0
  1 25  1  0  0  0
  1 30  2  0  0  0
  1 85  1  0  0  0
  2  3  1  0  0  0
  2 25  1  0  0  0
  2 87  1  0  0  0
  2 88  1  0  0  0
  3  4  1  0  0  0
  3 89  1  0  0  0
  3 90  1  0  0  0
  4  5  1  0  0  0
  4 91  1  0  0  0
  4 92  1  0  0  0
  5  6  1  0  0  0
  5 26  1  0  0  0
  5 93  1  0  0  0
  6 25  1  0  0  0
  6 94  1  0  0  0
  6 95  1  0  0  0
  7  8  2  0  0  0
  7 26  1  0  0  0
  7 29  1  0  0  0
  8  9  1  0  0  0
  8 22  1  0  0  0
  9 10  1  0  0  0
  9 27  2  0  0  0
 10 11  2  0  0  0
 10 15  1  0  0  0
 11 12  1  0  0  0
 11 96  1  0  0  0
 12 13  2  0  0  0
 12 97  1  0  0  0
 13 14  1  0  0  0
 13 31  1  0  0  0
 14 15  2  0  0  0
 14 98  1  0  0  0
 15 99  1  0  0  0
 16 17  2  0  0  0
 16 21  1  0  0  0
 16 31  1  0  0  0
 17 18  1  0  0  0
 17100  1  0  0  0
 18 19  2  0  0  0
 18101  1  0  0  0
 19 20  1  0  0  0
 19 24  1  0  0  0
 20 21  2  0  0  0
 20102  1  0  0  0
 21 23  1  0  0  0
 22 28  1  0  0  0
 22 32  2  0  0  0
 26 27  1  0  0  0
 28103  1  0  0  0
 28104  1  0  0  0
 29105  1  0  0  0
 29106  1  0  0  0
 33 34  1  0  0  0
 33 66  1  0  0  0
 33 70  2  0  0  0
 34 36  1  0  0  0
 34 59  1  0  0  0
 34107  1  0  0  0
 35 44  2  0  0  0
 35 45  1  0  0  0
 35 68  1  0  0  0
 36 56  1  0  0  0
 36108  1  0  0  0
 37 39  1  0  0  0
 37 47  1  0  0  0
 37 66  1  0  0  0
 37109  1  0  0  0
 38 43  2  0  0  0
 38 46  1  0  0  0
 38 47  1  0  0  0
 39 64  1  0  0  0
 39 67  2  0  0  0
 40 52  1  0  0  0
 40 53  2  0  0  0
 40 58  1  0  0  0
 41110  1  0  0  0
 41111  1  0  0  0
 41112  1  0  0  0
 41 48  1  0  0  0
 42 43  1  0  0  0
 42 66  1  0  0  0
 42113  1  0  0  0
 42114  1  0  0  0
 43 44  1  0  0  0
 44115  1  0  0  0
 45 46  2  0  0  0
 45116  1  0  0  0
 46117  1  0  0  0
 47118  1  0  0  0
 47119  1  0  0  0
 48 56  1  0  0  0
 48 65  1  0  0  0
 48120  1  0  0  0
 49 50  1  0  0  0
 49 53  1  0  0  0
 49 64  1  0  0  0
 49121  1  0  0  0
 50 51  1  0  0  0
 50122  1  0  0  0
 50123  1  0  0  0
 51 52  1  0  0  0
 51124  1  0  0  0
 51125  1  0  0  0
 52126  1  0  0  0
 52127  1  0  0  0
 53 54  1  0  0  0
 54 55  2  0  0  0
 54128  1  0  0  0
 55 57  1  0  0  0
 55129  1  0  0  0
 56 69  2  0  0  0
 57 58  2  0  0  0
 57130  1  0  0  0
 58131  1  0  0  0
 59 60  1  0  0  0
 59 61  1  0  0  0
 59 62  1  0  0  0
 60132  1  0  0  0
 60133  1  0  0  0
 60134  1  0  0  0
 61135  1  0  0  0
 61136  1  0  0  0
 61137  1  0  0  0
 62138  1  0  0  0
 62139  1  0  0  0
 62140  1  0  0  0
 63 65  1  0  0  0
 63141  1  0  0  0
 63142  1  0  0  0
 63143  1  0  0  0
 64144  1  0  0  0
 65145  1  0  0  0
 68 82  1  0  0  0
 71 73  2  0  0  0
 71 75  1  0  0  0
 71146  1  0  0  0
 72 74  1  0  0  0
 72 75  2  0  0  0
 72147  1  0  0  0
 73 76  1  0  0  0
 73148  1  0  0  0
 74 76  2  0  0  0
 74149  1  0  0  0
 75 85  1  0  0  0
 76 86  1  0  0  0
 77150  1  0  0  0
 77151  1  0  0  0
 77152  1  0  0  0
 77 83  1  0  0  0
 78 83  1  0  0  0
 78153  1  0  0  0
 78154  1  0  0  0
 78155  1  0  0  0
 79156  1  0  0  0
 79157  1  0  0  0
 79158  1  0  0  0
 79 84  1  0  0  0
 80 81  1  0  0  0
 80 82  1  0  0  0
 80159  1  0  0  0
 80160  1  0  0  0
 81 86  1  0  0  0
 81161  1  0  0  0
 81162  1  0  0  0
 82163  1  0  0  0
 82164  1  0  0  0
 83 84  1  0  0  0
 83165  1  0  0  0
 84 85  1  0  0  0
 84166  1  0  0  0
M  ISO  4   1 100  68 101  82 101  85 100
M  END
> <chiral flag>
0

> <version>
0

> <s_m_source_file>
/data/baiqing/PycharmProjects/Reinvent-master-3.2/result/LINK_invent/BTK/process_docking_weight1_custom_product_contain_oxygen_bond_distance_aromatic_linkinvent_7_9_3/rearranged_h_0012.sdf

> <i_m_source_file_index>
82

> <r_mmod_Potential_Energy-OPLS-2005>
335.43115234375

> <r_mmod_Stretch_Energy-OPLS-2005>
108.182952880859

> <r_mmod_Bend_Energy-OPLS-2005>
177.485977172852

> <r_mmod_Torsional_Energy-OPLS-2005>
336.046173095703

> <r_mmod_Improper_Torsional_Energy-OPLS-2005>
6.11607027053833

> <r_mmod_Van_der_Waal_Energy-OPLS-2005>
144.459838867188

> <r_mmod_Electrostatic_Energy-OPLS-2005>
-308.821655273438

> <r_mmod_Solvation_Energy-OPLS-2005>
-181.988815307617

> <b_mmod_Minimization_Converged-OPLS-2005>
0

> <r_mmod_RMS_Derivative-OPLS-2005>
6.07480669021606

$$$$
83
                    3D
 Structure written by MMmdl.
189198  0  0  1  0            999 V2000
  -30.7219  -14.5234   20.4985 C   0  0  0  0  0  0
  -30.4043  -12.3134   19.4506 C   0  0  0  0  0  0
  -29.4972  -12.4724   18.2126 C   0  0  0  0  0  0
  -28.0163  -12.3554   18.6198 C   0  0  0  0  0  0
  -27.6503  -13.2248   19.8555 C   0  0  2  0  0  0
  -28.6938  -13.0874   20.9881 C   0  0  0  0  0  0
  -25.2558  -13.8191   20.5692 C   0  0  0  0  0  0
  -24.1830  -13.0420   20.9203 C   0  0  0  0  0  0
  -24.6419  -11.6906   20.8719 C   0  0  0  0  0  0
  -23.9096  -10.4269   21.0367 C   0  0  0  0  0  0
  -24.3652   -9.4201   21.9157 C   0  0  0  0  0  0
  -23.6326   -8.2247   22.0756 C   0  0  0  0  0  0
  -22.4301   -8.0279   21.3552 C   0  0  0  0  0  0
  -21.9934   -9.0243   20.4638 C   0  0  0  0  0  0
  -22.7260  -10.2112   20.3033 C   0  0  0  0  0  0
  -21.6859   -6.0723   22.5281 C   0  0  0  0  0  0
  -21.4013   -6.5628   23.8211 C   0  0  0  0  0  0
  -21.3679   -5.6779   24.9176 C   0  0  0  0  0  0
  -21.6053   -4.3046   24.7223 C   0  0  0  0  0  0
  -21.8832   -3.8135   23.4344 C   0  0  0  0  0  0
  -21.9209   -4.6955   22.3394 C   0  0  0  0  0  0
  -22.7850  -13.5206   21.1841 C   0  0  0  0  0  0
  -22.1680   -4.2129   21.0980 F   0  0  0  0  0  0
  -21.5642   -3.4538   25.7755 F   0  0  0  0  0  0
  -30.0174  -13.3587   20.4109 N   0  0  0  0  0  0
  -26.2981  -12.9398   20.3292 N   0  0  0  0  0  0
  -25.9346  -11.6541   20.5716 N   0  0  0  0  0  0
  -22.0495  -12.8193   22.0410 N   0  0  0  0  0  0
  -25.4252  -15.1904   20.4156 N   0  0  0  0  0  0
  -31.9016  -14.6017   20.1462 O   0  0  0  0  0  0
  -21.6661   -6.8878   21.4239 O   0  0  0  0  0  0
  -22.3512  -14.5475   20.6639 O   0  0  0  0  0  0
  -24.6149  -31.8676   23.2078 C   0  0  0  0  0  0
  -25.9027  -32.4833   23.8389 C   0  0  1  0  0  0
  -27.2455  -27.4198   20.1052 C   0  0  0  0  0  0
  -25.5869  -33.8636   24.2315 N   0  0  0  0  0  0
  -23.4042  -30.4914   21.5463 C   0  0  2  0  0  0
  -24.8563  -28.9560   20.1157 C   0  0  0  0  0  0
  -22.7371  -29.4687   22.4947 C   0  0  0  0  0  0
  -18.0264  -28.1379   22.8495 C   0  0  0  0  0  0
  -24.1483  -36.7322   23.2631 C   0  0  0  0  0  0
  -25.9332  -30.8341   21.3586 C   0  0  0  0  0  0
  -26.0162  -29.4652   20.7104 C   0  0  0  0  0  0
  -27.2131  -28.7062   20.6996 C   0  0  0  0  0  0
  -26.0633  -26.9379   19.4947 C   0  0  0  0  0  0
  -24.8778  -27.6929   19.5040 C   0  0  0  0  0  0
  -23.6142  -29.8168   20.1639 C   0  0  0  0  0  0
  -25.4109  -36.3129   24.0326 C   0  0  1  0  0  0
  -20.5858  -28.3685   23.1299 C   0  0  2  0  0  0
  -20.6762  -26.9416   22.5411 C   0  0  0  0  0  0
  -19.5747  -26.6390   21.5204 C   0  0  0  0  0  0
  -18.1922  -26.7927   22.1619 C   0  0  0  0  0  0
  -19.1514  -28.8837   23.2904 C   0  0  0  0  0  0
  -18.9440  -30.1431   23.8934 C   0  0  0  0  0  0
  -17.6455  -30.6594   24.0568 C   0  0  0  0  0  0
  -25.9028  -34.9492   23.5119 C   0  0  0  0  0  0
  -16.5344  -29.9105   23.6331 C   0  0  0  0  0  0
  -16.7256  -28.6511   23.0369 C   0  0  0  0  0  0
  -26.4464  -31.6608   25.0709 C   0  0  0  0  0  0
  -25.3715  -31.3731   26.1437 C   0  0  0  0  0  0
  -27.0247  -30.3032   24.6076 C   0  0  0  0  0  0
  -27.6054  -32.4300   25.7482 C   0  0  0  0  0  0
  -27.5583  -37.1816   24.8457 C   0  0  0  0  0  0
  -21.4094  -29.3062   22.3678 N   0  0  0  0  0  0
  -26.4298  -37.3816   23.9411 N   0  0  0  0  0  0
  -24.6691  -31.0782   22.0970 N   0  0  0  0  0  0
  -23.4130  -28.8208   23.2977 O   0  0  0  0  0  0
  -28.4131  -26.6698   20.1393 O   0  0  0  0  0  0
  -26.5603  -34.8940   22.4684 O   0  0  0  0  0  0
  -23.5337  -32.1401   23.7477 O   0  0  0  0  0  0
  -32.3835  -16.8001   22.5023 C   0  0  0  0  0  0
  -33.3650  -16.7661   23.5092 C   0  0  0  0  0  0
  -30.7641  -15.8544   24.0431 C   0  0  0  0  0  0
  -31.0601  -16.3804   22.7698 C   0  0  0  0  0  0
  -33.0577  -16.2986   24.8010 C   0  0  0  0  0  0
  -31.7506  -15.7989   25.0480 C   0  0  0  0  0  0
  -29.8886  -16.3909   19.2576 C   0  0  0  0  0  0
  -28.8189  -17.5079   19.2185 C   0  0  0  0  0  0
  -29.8504  -18.1104   21.4193 C   0  0  0  0  0  0
  -29.9448  -16.5742   21.7355 C   0  0  1  0  0  0
  -29.4646  -22.5151   18.0336 C   0  0  0  0  0  0
  -33.3671  -21.3518   18.1837 C   0  0  0  0  0  0
  -33.2079  -20.5925   20.5527 C   0  0  0  0  0  0
  -33.7173  -16.3628   27.1109 C   0  0  0  0  0  0
  -28.9165  -19.9536   19.8932 C   0  0  0  0  0  0
  -31.3562  -20.0330   18.9095 C   0  0  0  0  0  0
  -28.2926  -25.2337   20.0171 C   0  0  0  0  0  0
  -29.5872  -24.4580   20.3768 C   0  0  0  0  0  0
  -30.2779  -20.7418   19.8101 C   0  0  1  0  0  0
  -30.1011  -22.2606   19.4198 C   0  0  2  0  0  0
  -29.9845  -15.6721   20.5449 N   0  0  0  0  0  0
  -28.9227  -18.5008   20.3218 N   0  3  1  0  0  0
  -32.7951  -20.3749   19.1421 N   0  3  0  0  0  0
  -34.0709  -16.3678   25.7340 O   0  0  0  0  0  0
  -29.3935  -23.0220   20.4129 O   0  0  0  0  0  0
  -31.4083  -15.2608   26.2428 F   0  0  0  0  0  0
  -31.4568  -12.3705   19.1696 H   0  0  0  0  0  0
  -30.2674  -11.3266   19.8983 H   0  0  0  0  0  0
  -29.7356  -11.7125   17.4682 H   0  0  0  0  0  0
  -29.6883  -13.4306   17.7305 H   0  0  0  0  0  0
  -27.8203  -11.3052   18.8348 H   0  0  0  0  0  0
  -27.3732  -12.6099   17.7773 H   0  0  0  0  0  0
  -27.6671  -14.2572   19.5082 H   0  0  0  0  0  0
  -28.6663  -12.0816   21.4119 H   0  0  0  0  0  0
  -28.4685  -13.7731   21.8058 H   0  0  0  0  0  0
  -25.2799   -9.5678   22.4722 H   0  0  0  0  0  0
  -24.0037   -7.4631   22.7462 H   0  0  0  0  0  0
  -21.0893   -8.8745   19.8920 H   0  0  0  0  0  0
  -22.3727  -10.9653   19.6136 H   0  0  0  0  0  0
  -21.1983   -7.6124   23.9708 H   0  0  0  0  0  0
  -21.1504   -6.0503   25.9072 H   0  0  0  0  0  0
  -22.0596   -2.7597   23.2857 H   0  0  0  0  0  0
  -22.4162  -11.9933   22.4889 H   0  0  0  0  0  0
  -21.1074  -13.1151   22.2509 H   0  0  0  0  0  0
  -24.6538  -15.8404   20.5299 H   0  0  0  0  0  0
  -26.2716  -15.6297   20.0851 H   0  0  0  0  0  0
  -26.7088  -32.5574   23.1158 H   0  0  0  0  0  0
  -25.0023  -33.9810   25.0457 H   0  0  0  0  0  0
  -22.6967  -31.3099   21.4001 H   0  0  0  0  0  0
  -23.3766  -35.9633   23.3289 H   0  0  0  0  0  0
  -24.3572  -36.8942   22.2044 H   0  0  0  0  0  0
  -23.7199  -37.6511   23.6649 H   0  0  0  0  0  0
  -26.0317  -31.6007   20.5891 H   0  0  0  0  0  0
  -26.8257  -30.9019   21.9692 H   0  0  0  0  0  0
  -28.1068  -29.0975   21.1674 H   0  0  0  0  0  0
  -26.0405  -25.9780   19.0013 H   0  0  0  0  0  0
  -23.9866  -27.2974   19.0359 H   0  0  0  0  0  0
  -23.7094  -30.5844   19.3945 H   0  0  0  0  0  0
  -22.7422  -29.2235   19.8797 H   0  0  0  0  0  0
  -25.1289  -36.2016   25.0824 H   0  0  0  0  0  0
  -20.9983  -28.3274   24.1408 H   0  0  0  0  0  0
  -20.5671  -26.2289   23.3597 H   0  0  0  0  0  0
  -21.6631  -26.7457   22.1204 H   0  0  0  0  0  0
  -19.6922  -25.6298   21.1237 H   0  0  0  0  0  0
  -19.6701  -27.3195   20.6734 H   0  0  0  0  0  0
  -17.4187  -26.6664   21.4029 H   0  0  0  0  0  0
  -18.0338  -26.0054   22.9007 H   0  0  0  0  0  0
  -19.7913  -30.7222   24.2342 H   0  0  0  0  0  0
  -17.5019  -31.6298   24.5125 H   0  0  0  0  0  0
  -15.5354  -30.3043   23.7620 H   0  0  0  0  0  0
  -15.8642  -28.0845   22.7108 H   0  0  0  0  0  0
  -24.5889  -30.7081   25.7766 H   0  0  0  0  0  0
  -24.8901  -32.2888   26.4886 H   0  0  0  0  0  0
  -25.8049  -30.8893   27.0191 H   0  0  0  0  0  0
  -26.2760  -29.6851   24.1090 H   0  0  0  0  0  0
  -27.3927  -29.7251   25.4565 H   0  0  0  0  0  0
  -27.8665  -30.4329   23.9261 H   0  0  0  0  0  0
  -27.2698  -33.3604   26.2093 H   0  0  0  0  0  0
  -28.3879  -32.6831   25.0309 H   0  0  0  0  0  0
  -28.0690  -31.8361   26.5372 H   0  0  0  0  0  0
  -28.2611  -38.0111   24.7523 H   0  0  0  0  0  0
  -28.1066  -36.2633   24.6279 H   0  0  0  0  0  0
  -27.2276  -37.1468   25.8853 H   0  0  0  0  0  0
  -20.9213  -29.8789   21.6925 H   0  0  0  0  0  0
  -26.0191  -38.2894   24.1450 H   0  0  0  0  0  0
  -32.6579  -17.1920   21.5331 H   0  0  0  0  0  0
  -34.3581  -17.1348   23.2909 H   0  0  0  0  0  0
  -29.7689  -15.5040   24.2764 H   0  0  0  0  0  0
  -30.8648  -16.8064   19.0140 H   0  0  0  0  0  0
  -29.6712  -15.6864   18.4521 H   0  0  0  0  0  0
  -27.8295  -17.0562   19.2917 H   0  0  0  0  0  0
  -28.8458  -17.9973   18.2445 H   0  0  0  0  0  0
  -30.8434  -18.4658   21.1666 H   0  0  0  0  0  0
  -29.5760  -18.6559   22.3245 H   0  0  0  0  0  0
  -29.0117  -16.3151   22.2362 H   0  0  0  0  0  0
  -29.9598  -21.9517   17.2450 H   0  0  0  0  0  0
  -29.5386  -23.5656   17.7531 H   0  0  0  0  0  0
  -28.4057  -22.2595   18.0076 H   0  0  0  0  0  0
  -34.3599  -21.6717   18.4962 H   0  0  0  0  0  0
  -32.7561  -22.2411   18.0499 H   0  0  0  0  0  0
  -33.4832  -20.8864   17.2040 H   0  0  0  0  0  0
  -34.2960  -20.5934   20.6416 H   0  0  0  0  0  0
  -32.8409  -19.7884   21.1916 H   0  0  0  0  0  0
  -32.8380  -21.5372   20.9526 H   0  0  0  0  0  0
  -32.8522  -16.9945   27.3227 H   0  0  0  0  0  0
  -34.5432  -16.7534   27.7029 H   0  0  0  0  0  0
  -33.5136  -15.3493   27.4552 H   0  0  0  0  0  0
  -28.3575  -20.0605   18.9622 H   0  0  0  0  0  0
  -28.3012  -20.4720   20.6294 H   0  0  0  0  0  0
  -31.1155  -20.1250   17.8513 H   0  0  0  0  0  0
  -31.3191  -18.9636   19.0832 H   0  0  0  0  0  0
  -27.4934  -24.8812   20.6725 H   0  0  0  0  0  0
  -28.0126  -24.9751   18.9967 H   0  0  0  0  0  0
  -29.9122  -24.7618   21.3736 H   0  0  0  0  0  0
  -30.3896  -24.7522   19.6993 H   0  0  0  0  0  0
  -30.6466  -20.7518   20.8320 H   0  0  0  0  0  0
  -31.1075  -22.6720   19.4087 H   0  0  0  0  0  0
  -28.0091  -18.4134   20.7507 H   0  0  0  0  0  0
  -33.2881  -19.5289   18.8914 H   0  0  0  0  0  0
  1 25  1  0  0  0
  1 30  2  0  0  0
  1 91  1  0  0  0
  2  3  1  0  0  0
  2 25  1  0  0  0
  2 97  1  0  0  0
  2 98  1  0  0  0
  3  4  1  0  0  0
  3 99  1  0  0  0
  3100  1  0  0  0
  4  5  1  0  0  0
  4101  1  0  0  0
  4102  1  0  0  0
  5  6  1  0  0  0
  5 26  1  0  0  0
  5103  1  0  0  0
  6 25  1  0  0  0
  6104  1  0  0  0
  6105  1  0  0  0
  7  8  2  0  0  0
  7 26  1  0  0  0
  7 29  1  0  0  0
  8  9  1  0  0  0
  8 22  1  0  0  0
  9 10  1  0  0  0
  9 27  2  0  0  0
 10 11  2  0  0  0
 10 15  1  0  0  0
 11 12  1  0  0  0
 11106  1  0  0  0
 12 13  2  0  0  0
 12107  1  0  0  0
 13 14  1  0  0  0
 13 31  1  0  0  0
 14 15  2  0  0  0
 14108  1  0  0  0
 15109  1  0  0  0
 16 17  2  0  0  0
 16 21  1  0  0  0
 16 31  1  0  0  0
 17 18  1  0  0  0
 17110  1  0  0  0
 18 19  2  0  0  0
 18111  1  0  0  0
 19 20  1  0  0  0
 19 24  1  0  0  0
 20 21  2  0  0  0
 20112  1  0  0  0
 21 23  1  0  0  0
 22 28  1  0  0  0
 22 32  2  0  0  0
 26 27  1  0  0  0
 28113  1  0  0  0
 28114  1  0  0  0
 29115  1  0  0  0
 29116  1  0  0  0
 33 34  1  0  0  0
 33 66  1  0  0  0
 33 70  2  0  0  0
 34 36  1  0  0  0
 34 59  1  0  0  0
 34117  1  0  0  0
 35 44  2  0  0  0
 35 45  1  0  0  0
 35 68  1  0  0  0
 36 56  1  0  0  0
 36118  1  0  0  0
 37 39  1  0  0  0
 37 47  1  0  0  0
 37 66  1  0  0  0
 37119  1  0  0  0
 38 43  2  0  0  0
 38 46  1  0  0  0
 38 47  1  0  0  0
 39 64  1  0  0  0
 39 67  2  0  0  0
 40 52  1  0  0  0
 40 53  2  0  0  0
 40 58  1  0  0  0
 41120  1  0  0  0
 41121  1  0  0  0
 41122  1  0  0  0
 41 48  1  0  0  0
 42 43  1  0  0  0
 42 66  1  0  0  0
 42123  1  0  0  0
 42124  1  0  0  0
 43 44  1  0  0  0
 44125  1  0  0  0
 45 46  2  0  0  0
 45126  1  0  0  0
 46127  1  0  0  0
 47128  1  0  0  0
 47129  1  0  0  0
 48 56  1  0  0  0
 48 65  1  0  0  0
 48130  1  0  0  0
 49 50  1  0  0  0
 49 53  1  0  0  0
 49 64  1  0  0  0
 49131  1  0  0  0
 50 51  1  0  0  0
 50132  1  0  0  0
 50133  1  0  0  0
 51 52  1  0  0  0
 51134  1  0  0  0
 51135  1  0  0  0
 52136  1  0  0  0
 52137  1  0  0  0
 53 54  1  0  0  0
 54 55  2  0  0  0
 54138  1  0  0  0
 55 57  1  0  0  0
 55139  1  0  0  0
 56 69  2  0  0  0
 57 58  2  0  0  0
 57140  1  0  0  0
 58141  1  0  0  0
 59 60  1  0  0  0
 59 61  1  0  0  0
 59 62  1  0  0  0
 60142  1  0  0  0
 60143  1  0  0  0
 60144  1  0  0  0
 61145  1  0  0  0
 61146  1  0  0  0
 61147  1  0  0  0
 62148  1  0  0  0
 62149  1  0  0  0
 62150  1  0  0  0
 63 65  1  0  0  0
 63151  1  0  0  0
 63152  1  0  0  0
 63153  1  0  0  0
 64154  1  0  0  0
 65155  1  0  0  0
 68 87  1  0  0  0
 71 72  2  0  0  0
 71 74  1  0  0  0
 71156  1  0  0  0
 72 75  1  0  0  0
 72157  1  0  0  0
 73 74  2  0  0  0
 73 76  1  0  0  0
 73158  1  0  0  0
 74 80  1  0  0  0
 75 76  2  0  0  0
 75 94  1  0  0  0
 76 96  1  0  0  0
 77 78  1  0  0  0
 77 91  1  0  0  0
 77159  1  0  0  0
 77160  1  0  0  0
 78 92  1  0  0  0
 78161  1  0  0  0
 78162  1  0  0  0
 79 80  1  0  0  0
 79 92  1  0  0  0
 79163  1  0  0  0
 79164  1  0  0  0
 80 91  1  0  0  0
 80165  1  0  0  0
 81166  1  0  0  0
 81167  1  0  0  0
 81168  1  0  0  0
 81 90  1  0  0  0
 82169  1  0  0  0
 82170  1  0  0  0
 82171  1  0  0  0
 82 93  1  0  0  0
 83 93  1  0  0  0
 83172  1  0  0  0
 83173  1  0  0  0
 83174  1  0  0  0
 84 94  1  0  0  0
 84175  1  0  0  0
 84176  1  0  0  0
 84177  1  0  0  0
 85178  1  0  0  0
 85179  1  0  0  0
 85 89  1  0  0  0
 85 92  1  0  0  0
 86 89  1  0  0  0
 86 93  1  0  0  0
 86180  1  0  0  0
 86181  1  0  0  0
 87 88  1  0  0  0
 87182  1  0  0  0
 87183  1  0  0  0
 88 95  1  0  0  0
 88184  1  0  0  0
 88185  1  0  0  0
 89 90  1  0  0  0
 89186  1  0  0  0
 90 95  1  0  0  0
 90187  1  0  0  0
 92188  1  0  0  0
 93189  1  0  0  0
M  CHG  2  92   1  93   1
M  ISO  4   1 100  68 101  87 101  91 100
M  END
> <chiral flag>
0

> <version>
0

> <s_m_source_file>
/data/baiqing/PycharmProjects/Reinvent-master-3.2/result/LINK_invent/BTK/process_docking_weight1_custom_product_contain_oxygen_bond_distance_aromatic_linkinvent_7_9_3/rearranged_h_0012.sdf

> <i_m_source_file_index>
83

> <r_mmod_Potential_Energy-OPLS-2005>
96.4733276367188

> <r_mmod_Stretch_Energy-OPLS-2005>
61.5075912475586

> <r_mmod_Bend_Energy-OPLS-2005>
167.474060058594

> <r_mmod_Torsional_Energy-OPLS-2005>
457.749694824219

> <r_mmod_Improper_Torsional_Energy-OPLS-2005>
15.8497943878174

> <r_mmod_Van_der_Waal_Energy-OPLS-2005>
158.138885498047

> <r_mmod_Electrostatic_Energy-OPLS-2005>
179.664825439453

> <r_mmod_Solvation_Energy-OPLS-2005>
-967.515075683594

> <b_mmod_Minimization_Converged-OPLS-2005>
0

> <r_mmod_RMS_Derivative-OPLS-2005>
4.45805692672729

$$$$
84
                    3D
 Structure written by MMmdl.
154162  0  0  1  0            999 V2000
  -30.6063  -14.7267   20.3567 C   0  0  0  0  0  0
  -30.4398  -12.4061   19.4749 C   0  0  0  0  0  0
  -29.5114  -12.3780   18.2406 C   0  0  0  0  0  0
  -28.0243  -12.2940   18.6539 C   0  0  0  0  0  0
  -27.6357  -13.2102   19.8498 C   0  0  2  0  0  0
  -28.6939  -13.1773   20.9707 C   0  0  0  0  0  0
  -25.2531  -13.8140   20.5773 C   0  0  0  0  0  0
  -24.1788  -13.0411   20.9249 C   0  0  0  0  0  0
  -24.6352  -11.6883   20.8795 C   0  0  0  0  0  0
  -23.9032  -10.4279   21.0431 C   0  0  0  0  0  0
  -24.3593   -9.4189   21.9189 C   0  0  0  0  0  0
  -23.6274   -8.2223   22.0748 C   0  0  0  0  0  0
  -22.4256   -8.0272   21.3537 C   0  0  0  0  0  0
  -21.9893   -9.0249   20.4637 C   0  0  0  0  0  0
  -22.7218  -10.2130   20.3064 C   0  0  0  0  0  0
  -21.6847   -6.0727   22.5274 C   0  0  0  0  0  0
  -21.4001   -6.5627   23.8207 C   0  0  0  0  0  0
  -21.3664   -5.6780   24.9169 C   0  0  0  0  0  0
  -21.6053   -4.3044   24.7218 C   0  0  0  0  0  0
  -21.8821   -3.8139   23.4339 C   0  0  0  0  0  0
  -21.9187   -4.6956   22.3394 C   0  0  0  0  0  0
  -22.7819  -13.5221   21.1891 C   0  0  0  0  0  0
  -22.1654   -4.2141   21.0974 F   0  0  0  0  0  0
  -21.5644   -3.4527   25.7733 F   0  0  0  0  0  0
  -29.9848  -13.5008   20.3535 N   0  0  0  0  0  0
  -26.2925  -12.9286   20.3384 N   0  0  0  0  0  0
  -25.9279  -11.6457   20.5855 N   0  0  0  0  0  0
  -22.0449  -12.8216   22.0439 N   0  0  0  0  0  0
  -25.4269  -15.1862   20.4218 N   0  0  0  0  0  0
  -31.8352  -14.7939   20.2597 O   0  0  0  0  0  0
  -21.6619   -6.8871   21.4237 O   0  0  0  0  0  0
  -22.3521  -14.5526   20.6733 O   0  0  0  0  0  0
  -24.6255  -31.8590   23.2003 C   0  0  0  0  0  0
  -25.9104  -32.4773   23.8335 C   0  0  1  0  0  0
  -27.2296  -27.3151   20.1209 C   0  0  0  0  0  0
  -25.5925  -33.8573   24.2269 N   0  0  0  0  0  0
  -23.4183  -30.4801   21.5439 C   0  0  2  0  0  0
  -24.8643  -28.9292   20.1112 C   0  0  0  0  0  0
  -22.7468  -29.4614   22.4946 C   0  0  0  0  0  0
  -18.0285  -28.1377   22.8489 C   0  0  0  0  0  0
  -24.1488  -36.7286   23.2640 C   0  0  0  0  0  0
  -25.9576  -30.7896   21.3685 C   0  0  0  0  0  0
  -26.0306  -29.4149   20.7133 C   0  0  0  0  0  0
  -27.2117  -28.6185   20.7074 C   0  0  0  0  0  0
  -26.0352  -26.8710   19.5090 C   0  0  0  0  0  0
  -24.8683  -27.6631   19.5020 C   0  0  0  0  0  0
  -23.6319  -29.8095   20.1598 C   0  0  0  0  0  0
  -25.4115  -36.3079   24.0330 C   0  0  1  0  0  0
  -20.5881  -28.3679   23.1293 C   0  0  2  0  0  0
  -20.6774  -26.9402   22.5416 C   0  0  0  0  0  0
  -19.5754  -26.6380   21.5214 C   0  0  0  0  0  0
  -18.1931  -26.7921   22.1621 C   0  0  0  0  0  0
  -19.1535  -28.8845   23.2886 C   0  0  0  0  0  0
  -18.9457  -30.1449   23.8898 C   0  0  0  0  0  0
  -17.6456  -30.6582   24.0559 C   0  0  0  0  0  0
  -25.9050  -34.9450   23.5100 C   0  0  0  0  0  0
  -16.5349  -29.9078   23.6328 C   0  0  0  0  0  0
  -16.7271  -28.6494   23.0353 C   0  0  0  0  0  0
  -26.4498  -31.6585   25.0703 C   0  0  0  0  0  0
  -25.3744  -31.3718   26.1439 C   0  0  0  0  0  0
  -27.0343  -30.3015   24.6145 C   0  0  0  0  0  0
  -27.6055  -32.4326   25.7475 C   0  0  0  0  0  0
  -27.5579  -37.1801   24.8468 C   0  0  0  0  0  0
  -21.4183  -29.3030   22.3691 N   0  0  0  0  0  0
  -26.4292  -37.3776   23.9409 N   0  0  0  0  0  0
  -24.6861  -31.0599   22.0951 N   0  0  0  0  0  0
  -23.4196  -28.8169   23.3033 O   0  0  0  0  0  0
  -28.3842  -26.5203   20.1893 O   0  0  0  0  0  0
  -26.5618  -34.8919   22.4666 O   0  0  0  0  0  0
  -23.5420  -32.1384   23.7338 O   0  0  0  0  0  0
  -28.7077  -17.5589   21.2588 C   0  0  0  0  0  0
  -28.3906  -18.9352   21.4772 C   0  0  0  0  0  0
  -30.1618  -19.6103   20.0090 C   0  0  0  0  0  0
  -29.7555  -17.1630   20.3886 C   0  0  0  0  0  0
  -29.0730  -20.0032   20.8306 C   0  0  0  0  0  0
  -30.5010  -18.2362   19.8049 C   0  0  0  0  0  0
  -29.6936  -15.7643   18.4006 C   0  0  0  0  0  0
  -28.4170  -23.8918   20.6762 C   0  0  0  0  0  0
  -28.4834  -25.1331   19.6757 C   0  0  0  0  0  0
  -28.9206  -22.4568   20.1665 C   0  0  0  0  0  0
  -29.8464  -15.7858   19.8718 N   0  0  0  0  0  0
  -28.6487  -21.3317   21.0710 O   0  0  0  0  0  0
  -31.5251  -17.9523   18.9639 F   0  0  0  0  0  0
  -31.4779  -12.5345   19.1615 H   0  0  0  0  0  0
  -30.4003  -11.4564   20.0097 H   0  0  0  0  0  0
  -29.7595  -11.5130   17.6239 H   0  0  0  0  0  0
  -29.6931  -13.2328   17.5962 H   0  0  0  0  0  0
  -27.8412  -11.2542   18.9270 H   0  0  0  0  0  0
  -27.3783  -12.4948   17.7988 H   0  0  0  0  0  0
  -27.5978  -14.2250   19.4703 H   0  0  0  0  0  0
  -28.7291  -12.1996   21.4536 H   0  0  0  0  0  0
  -28.4507  -13.9045   21.7475 H   0  0  0  0  0  0
  -25.2740   -9.5661   22.4759 H   0  0  0  0  0  0
  -23.9987   -7.4605   22.7453 H   0  0  0  0  0  0
  -21.0834   -8.8765   19.8933 H   0  0  0  0  0  0
  -22.3681  -10.9666   19.6170 H   0  0  0  0  0  0
  -21.1989   -7.6129   23.9703 H   0  0  0  0  0  0
  -21.1488   -6.0511   25.9070 H   0  0  0  0  0  0
  -22.0603   -2.7604   23.2837 H   0  0  0  0  0  0
  -22.4035  -11.9863   22.4825 H   0  0  0  0  0  0
  -21.1059  -13.1238   22.2623 H   0  0  0  0  0  0
  -24.6684  -15.8471   20.5492 H   0  0  0  0  0  0
  -26.2890  -15.6233   20.1221 H   0  0  0  0  0  0
  -26.7171  -32.5443   23.1082 H   0  0  0  0  0  0
  -25.0089  -33.9720   25.0424 H   0  0  0  0  0  0
  -22.7114  -31.2997   21.3992 H   0  0  0  0  0  0
  -23.3751  -35.9619   23.3309 H   0  0  0  0  0  0
  -24.3572  -36.8898   22.2052 H   0  0  0  0  0  0
  -23.7242  -37.6491   23.6656 H   0  0  0  0  0  0
  -26.0851  -31.5518   20.5987 H   0  0  0  0  0  0
  -26.8396  -30.8407   21.9955 H   0  0  0  0  0  0
  -28.1087  -28.9902   21.1825 H   0  0  0  0  0  0
  -25.9654  -25.8972   19.0514 H   0  0  0  0  0  0
  -23.9706  -27.2812   19.0354 H   0  0  0  0  0  0
  -23.7490  -30.5832   19.4003 H   0  0  0  0  0  0
  -22.7522  -29.2369   19.8609 H   0  0  0  0  0  0
  -25.1298  -36.1928   25.0824 H   0  0  0  0  0  0
  -20.9971  -28.3248   24.1415 H   0  0  0  0  0  0
  -20.5670  -26.2286   23.3614 H   0  0  0  0  0  0
  -21.6645  -26.7432   22.1214 H   0  0  0  0  0  0
  -19.6912  -25.6292   21.1242 H   0  0  0  0  0  0
  -19.6692  -27.3192   20.6747 H   0  0  0  0  0  0
  -17.4205  -26.6677   21.4018 H   0  0  0  0  0  0
  -18.0320  -26.0058   22.9011 H   0  0  0  0  0  0
  -19.7935  -30.7269   24.2263 H   0  0  0  0  0  0
  -17.5011  -31.6261   24.5163 H   0  0  0  0  0  0
  -15.5348  -30.2980   23.7651 H   0  0  0  0  0  0
  -15.8672  -28.0814   22.7064 H   0  0  0  0  0  0
  -24.5902  -30.7087   25.7769 H   0  0  0  0  0  0
  -24.8959  -32.2885   26.4894 H   0  0  0  0  0  0
  -25.8077  -30.8870   27.0196 H   0  0  0  0  0  0
  -26.2909  -29.6761   24.1187 H   0  0  0  0  0  0
  -27.4074  -29.7272   25.4636 H   0  0  0  0  0  0
  -27.8763  -30.4310   23.9340 H   0  0  0  0  0  0
  -27.2653  -33.3616   26.2065 H   0  0  0  0  0  0
  -28.3856  -32.6908   25.0301 H   0  0  0  0  0  0
  -28.0738  -31.8451   26.5384 H   0  0  0  0  0  0
  -28.2608  -38.0087   24.7501 H   0  0  0  0  0  0
  -28.1063  -36.2617   24.6311 H   0  0  0  0  0  0
  -27.2294  -37.1470   25.8871 H   0  0  0  0  0  0
  -20.9360  -29.8746   21.6897 H   0  0  0  0  0  0
  -26.0171  -38.2853   24.1404 H   0  0  0  0  0  0
  -28.0816  -16.8050   21.7138 H   0  0  0  0  0  0
  -27.5587  -19.1723   22.1253 H   0  0  0  0  0  0
  -30.7500  -20.3602   19.5026 H   0  0  0  0  0  0
  -29.4771  -16.7435   17.9740 H   0  0  0  0  0  0
  -28.8564  -15.1529   18.0832 H   0  0  0  0  0  0
  -30.5921  -15.4017   17.8964 H   0  0  0  0  0  0
  -27.3875  -23.7963   21.0206 H   0  0  0  0  0  0
  -28.9972  -24.1443   21.5636 H   0  0  0  0  0  0
  -27.8188  -24.9626   18.8316 H   0  0  0  0  0  0
  -29.4747  -25.0958   19.2240 H   0  0  0  0  0  0
  -29.9920  -22.5113   19.9706 H   0  0  0  0  0  0
  -28.4434  -22.2346   19.2110 H   0  0  0  0  0  0
  1 25  1  0  0  0
  1 30  2  0  0  0
  1 81  1  0  0  0
  2  3  1  0  0  0
  2 25  1  0  0  0
  2 84  1  0  0  0
  2 85  1  0  0  0
  3  4  1  0  0  0
  3 86  1  0  0  0
  3 87  1  0  0  0
  4  5  1  0  0  0
  4 88  1  0  0  0
  4 89  1  0  0  0
  5  6  1  0  0  0
  5 26  1  0  0  0
  5 90  1  0  0  0
  6 25  1  0  0  0
  6 91  1  0  0  0
  6 92  1  0  0  0
  7  8  2  0  0  0
  7 26  1  0  0  0
  7 29  1  0  0  0
  8  9  1  0  0  0
  8 22  1  0  0  0
  9 10  1  0  0  0
  9 27  2  0  0  0
 10 11  2  0  0  0
 10 15  1  0  0  0
 11 12  1  0  0  0
 11 93  1  0  0  0
 12 13  2  0  0  0
 12 94  1  0  0  0
 13 14  1  0  0  0
 13 31  1  0  0  0
 14 15  2  0  0  0
 14 95  1  0  0  0
 15 96  1  0  0  0
 16 17  2  0  0  0
 16 21  1  0  0  0
 16 31  1  0  0  0
 17 18  1  0  0  0
 17 97  1  0  0  0
 18 19  2  0  0  0
 18 98  1  0  0  0
 19 20  1  0  0  0
 19 24  1  0  0  0
 20 21  2  0  0  0
 20 99  1  0  0  0
 21 23  1  0  0  0
 22 28  1  0  0  0
 22 32  2  0  0  0
 26 27  1  0  0  0
 28100  1  0  0  0
 28101  1  0  0  0
 29102  1  0  0  0
 29103  1  0  0  0
 33 34  1  0  0  0
 33 66  1  0  0  0
 33 70  2  0  0  0
 34 36  1  0  0  0
 34 59  1  0  0  0
 34104  1  0  0  0
 35 44  2  0  0  0
 35 45  1  0  0  0
 35 68  1  0  0  0
 36 56  1  0  0  0
 36105  1  0  0  0
 37 39  1  0  0  0
 37 47  1  0  0  0
 37 66  1  0  0  0
 37106  1  0  0  0
 38 43  2  0  0  0
 38 46  1  0  0  0
 38 47  1  0  0  0
 39 64  1  0  0  0
 39 67  2  0  0  0
 40 52  1  0  0  0
 40 53  2  0  0  0
 40 58  1  0  0  0
 41107  1  0  0  0
 41108  1  0  0  0
 41109  1  0  0  0
 41 48  1  0  0  0
 42 43  1  0  0  0
 42 66  1  0  0  0
 42110  1  0  0  0
 42111  1  0  0  0
 43 44  1  0  0  0
 44112  1  0  0  0
 45 46  2  0  0  0
 45113  1  0  0  0
 46114  1  0  0  0
 47115  1  0  0  0
 47116  1  0  0  0
 48 56  1  0  0  0
 48 65  1  0  0  0
 48117  1  0  0  0
 49 50  1  0  0  0
 49 53  1  0  0  0
 49 64  1  0  0  0
 49118  1  0  0  0
 50 51  1  0  0  0
 50119  1  0  0  0
 50120  1  0  0  0
 51 52  1  0  0  0
 51121  1  0  0  0
 51122  1  0  0  0
 52123  1  0  0  0
 52124  1  0  0  0
 53 54  1  0  0  0
 54 55  2  0  0  0
 54125  1  0  0  0
 55 57  1  0  0  0
 55126  1  0  0  0
 56 69  2  0  0  0
 57 58  2  0  0  0
 57127  1  0  0  0
 58128  1  0  0  0
 59 60  1  0  0  0
 59 61  1  0  0  0
 59 62  1  0  0  0
 60129  1  0  0  0
 60130  1  0  0  0
 60131  1  0  0  0
 61132  1  0  0  0
 61133  1  0  0  0
 61134  1  0  0  0
 62135  1  0  0  0
 62136  1  0  0  0
 62137  1  0  0  0
 63 65  1  0  0  0
 63138  1  0  0  0
 63139  1  0  0  0
 63140  1  0  0  0
 64141  1  0  0  0
 65142  1  0  0  0
 68 79  1  0  0  0
 71 72  2  0  0  0
 71 74  1  0  0  0
 71143  1  0  0  0
 72 75  1  0  0  0
 72144  1  0  0  0
 73 75  2  0  0  0
 73 76  1  0  0  0
 73145  1  0  0  0
 74 76  2  0  0  0
 74 81  1  0  0  0
 75 82  1  0  0  0
 76 83  1  0  0  0
 77 81  1  0  0  0
 77146  1  0  0  0
 77147  1  0  0  0
 77148  1  0  0  0
 78 79  1  0  0  0
 78 80  1  0  0  0
 78149  1  0  0  0
 78150  1  0  0  0
 79151  1  0  0  0
 79152  1  0  0  0
 80 82  1  0  0  0
 80153  1  0  0  0
 80154  1  0  0  0
M  ISO  4   1 100  68 101  79 101  81 100
M  END
> <chiral flag>
0

> <version>
0

> <s_m_source_file>
/data/baiqing/PycharmProjects/Reinvent-master-3.2/result/LINK_invent/BTK/process_docking_weight1_custom_product_contain_oxygen_bond_distance_aromatic_linkinvent_7_9_3/rearranged_h_0012.sdf

> <i_m_source_file_index>
84

> <r_mmod_Potential_Energy-OPLS-2005>
309.552795410156

> <r_mmod_Stretch_Energy-OPLS-2005>
88.2453536987305

> <r_mmod_Bend_Energy-OPLS-2005>
167.276290893555

> <r_mmod_Torsional_Energy-OPLS-2005>
327.139190673828

> <r_mmod_Improper_Torsional_Energy-OPLS-2005>
25.6013622283936

> <r_mmod_Van_der_Waal_Energy-OPLS-2005>
144.744674682617

> <r_mmod_Electrostatic_Energy-OPLS-2005>
-321.322082519531

> <r_mmod_Solvation_Energy-OPLS-2005>
-199.737258911133

> <b_mmod_Minimization_Converged-OPLS-2005>
0

> <r_mmod_RMS_Derivative-OPLS-2005>
0.991896033287048

$$$$
85
                    3D
 Structure written by MMmdl.
156165  0  0  1  0            999 V2000
  -30.5102  -15.1554   20.3860 C   0  0  0  0  0  0
  -30.4266  -12.7411   19.4943 C   0  0  0  0  0  0
  -29.5156  -12.5244   18.2643 C   0  0  0  0  0  0
  -28.0600  -12.2861   18.7017 C   0  0  0  0  0  0
  -27.6057  -13.2603   19.8190 C   0  0  2  0  0  0
  -28.6508  -13.4215   20.9409 C   0  0  0  0  0  0
  -25.2389  -13.8226   20.5771 C   0  0  0  0  0  0
  -24.1725  -13.0431   20.9269 C   0  0  0  0  0  0
  -24.6357  -11.6924   20.8786 C   0  0  0  0  0  0
  -23.9058  -10.4288   21.0418 C   0  0  0  0  0  0
  -24.3617   -9.4205   21.9191 C   0  0  0  0  0  0
  -23.6297   -8.2241   22.0757 C   0  0  0  0  0  0
  -22.4279   -8.0274   21.3545 C   0  0  0  0  0  0
  -21.9912   -9.0246   20.4651 C   0  0  0  0  0  0
  -22.7234  -10.2127   20.3064 C   0  0  0  0  0  0
  -21.6853   -6.0733   22.5277 C   0  0  0  0  0  0
  -21.4012   -6.5639   23.8207 C   0  0  0  0  0  0
  -21.3659   -5.6793   24.9173 C   0  0  0  0  0  0
  -21.6046   -4.3057   24.7226 C   0  0  0  0  0  0
  -21.8819   -3.8146   23.4346 C   0  0  0  0  0  0
  -21.9192   -4.6961   22.3403 C   0  0  0  0  0  0
  -22.7745  -13.5194   21.1910 C   0  0  0  0  0  0
  -22.1662   -4.2147   21.0981 F   0  0  0  0  0  0
  -21.5630   -3.4541   25.7740 F   0  0  0  0  0  0
  -29.8812  -13.8937   20.2896 N   0  0  0  0  0  0
  -26.2789  -12.9457   20.3260 N   0  0  0  0  0  0
  -25.9290  -11.6579   20.5777 N   0  0  0  0  0  0
  -22.0405  -12.8173   22.0458 N   0  0  0  0  0  0
  -25.4065  -15.1962   20.4228 N   0  0  0  0  0  0
  -31.7397  -15.0986   20.2412 O   0  0  0  0  0  0
  -21.6646   -6.8871   21.4236 O   0  0  0  0  0  0
  -22.3434  -14.5500   20.6755 O   0  0  0  0  0  0
  -24.6563  -31.8309   23.1793 C   0  0  0  0  0  0
  -25.9276  -32.4621   23.8226 C   0  0  1  0  0  0
  -27.2089  -27.0004   20.1733 C   0  0  0  0  0  0
  -25.5970  -33.8437   24.2129 N   0  0  0  0  0  0
  -23.4669  -30.4475   21.5267 C   0  0  2  0  0  0
  -24.9185  -28.8514   20.1134 C   0  0  0  0  0  0
  -22.7624  -29.4482   22.4809 C   0  0  0  0  0  0
  -18.0308  -28.1405   22.8461 C   0  0  0  0  0  0
  -24.1504  -36.7225   23.2647 C   0  0  0  0  0  0
  -26.0328  -30.6611   21.4000 C   0  0  0  0  0  0
  -26.1013  -29.2598   20.7424 C   0  0  0  0  0  0
  -27.2454  -28.3533   20.7509 C   0  0  0  0  0  0
  -25.9979  -26.7287   19.4998 C   0  0  0  0  0  0
  -24.8869  -27.6038   19.4744 C   0  0  0  0  0  0
  -23.7033  -29.7718   20.1496 C   0  0  0  0  0  0
  -25.4137  -36.2990   24.0308 C   0  0  1  0  0  0
  -20.5930  -28.3749   23.1201 C   0  0  2  0  0  0
  -20.6804  -26.9439   22.5409 C   0  0  0  0  0  0
  -19.5780  -26.6383   21.5222 C   0  0  0  0  0  0
  -18.1950  -26.7936   22.1618 C   0  0  0  0  0  0
  -19.1568  -28.8891   23.2815 C   0  0  0  0  0  0
  -18.9491  -30.1477   23.8857 C   0  0  0  0  0  0
  -17.6495  -30.6599   24.0552 C   0  0  0  0  0  0
  -25.9098  -34.9368   23.5039 C   0  0  0  0  0  0
  -16.5377  -29.9093   23.6346 C   0  0  0  0  0  0
  -16.7291  -28.6509   23.0358 C   0  0  0  0  0  0
  -26.4559  -31.6526   25.0713 C   0  0  0  0  0  0
  -25.3715  -31.3752   26.1388 C   0  0  0  0  0  0
  -27.0459  -30.2904   24.6404 C   0  0  0  0  0  0
  -27.6059  -32.4330   25.7510 C   0  0  0  0  0  0
  -27.5574  -37.1761   24.8459 C   0  0  0  0  0  0
  -21.4301  -29.3044   22.3550 N   0  0  0  0  0  0
  -26.4286  -37.3715   23.9408 N   0  0  0  0  0  0
  -24.7397  -31.0045   22.0893 N   0  0  0  0  0  0
  -23.4198  -28.8026   23.3010 O   0  0  0  0  0  0
  -28.2251  -25.9337   20.2264 O   0  0  0  0  0  0
  -26.5701  -34.8880   22.4628 O   0  0  0  0  0  0
  -23.5648  -32.1257   23.6919 O   0  0  0  0  0  0
  -28.2599  -17.0644   17.0783 C   0  0  0  0  0  0
  -28.0750  -18.4475   17.0045 C   0  0  0  0  0  0
  -28.8215  -16.4941   18.2289 C   0  0  0  0  0  0
  -28.4266  -19.2633   18.0902 C   0  0  0  0  0  0
  -29.2081  -17.2612   19.3561 C   0  0  0  0  0  0
  -28.9660  -18.7540   19.2987 C   0  0  0  0  0  0
  -30.3690  -17.5565   21.3749 C   0  0  0  0  0  0
  -29.5522  -18.9671   21.5124 C   0  0  0  0  0  0
  -28.8997  -22.8803   20.2063 C   0  0  0  0  0  0
  -28.4096  -21.2031   20.3891 C   0  0  0  0  0  0
  -27.9146  -24.3446   20.2470 C   0  0  0  0  0  0
  -29.8554  -16.4784   20.4545 N   0  0  0  0  0  0
  -29.2279  -19.7977   20.3000 N   0  0  0  0  0  0
  -31.4466  -12.9267   19.1555 H   0  0  0  0  0  0
  -30.4784  -11.8380   20.1048 H   0  0  0  0  0  0
  -29.8705  -11.6764   17.6768 H   0  0  0  0  0  0
  -29.5694  -13.3886   17.6021 H   0  0  0  0  0  0
  -27.9966  -11.2611   19.0685 H   0  0  0  0  0  0
  -27.3868  -12.3425   17.8451 H   0  0  0  0  0  0
  -27.5118  -14.2277   19.3309 H   0  0  0  0  0  0
  -28.8072  -12.4868   21.4817 H   0  0  0  0  0  0
  -28.3126  -14.1576   21.6725 H   0  0  0  0  0  0
  -25.2749   -9.5696   22.4777 H   0  0  0  0  0  0
  -24.0009   -7.4633   22.7480 H   0  0  0  0  0  0
  -21.0841   -8.8759   19.8959 H   0  0  0  0  0  0
  -22.3675  -10.9672   19.6194 H   0  0  0  0  0  0
  -21.2003   -7.6145   23.9710 H   0  0  0  0  0  0
  -21.1482   -6.0525   25.9074 H   0  0  0  0  0  0
  -22.0599   -2.7607   23.2848 H   0  0  0  0  0  0
  -22.4025  -11.9829   22.4834 H   0  0  0  0  0  0
  -21.1026  -13.1192   22.2683 H   0  0  0  0  0  0
  -24.6404  -15.8490   20.5439 H   0  0  0  0  0  0
  -26.2622  -15.6409   20.1139 H   0  0  0  0  0  0
  -26.7323  -32.5190   23.0926 H   0  0  0  0  0  0
  -25.0072  -33.9535   25.0249 H   0  0  0  0  0  0
  -22.7777  -31.2781   21.3607 H   0  0  0  0  0  0
  -23.3777  -35.9543   23.3284 H   0  0  0  0  0  0
  -24.3594  -36.8903   22.2068 H   0  0  0  0  0  0
  -23.7262  -37.6404   23.6724 H   0  0  0  0  0  0
  -26.2060  -31.4081   20.6243 H   0  0  0  0  0  0
  -26.8950  -30.7134   22.0525 H   0  0  0  0  0  0
  -28.1403  -28.6597   21.2740 H   0  0  0  0  0  0
  -25.8704  -25.7823   18.9973 H   0  0  0  0  0  0
  -23.9879  -27.2879   18.9652 H   0  0  0  0  0  0
  -23.8562  -30.5440   19.3958 H   0  0  0  0  0  0
  -22.8150  -29.2247   19.8301 H   0  0  0  0  0  0
  -25.1332  -36.1801   25.0799 H   0  0  0  0  0  0
  -21.0007  -28.3368   24.1330 H   0  0  0  0  0  0
  -20.5722  -26.2364   23.3643 H   0  0  0  0  0  0
  -21.6664  -26.7457   22.1190 H   0  0  0  0  0  0
  -19.6966  -25.6291   21.1263 H   0  0  0  0  0  0
  -19.6721  -27.3180   20.6743 H   0  0  0  0  0  0
  -17.4226  -26.6671   21.4007 H   0  0  0  0  0  0
  -18.0329  -26.0088   22.9023 H   0  0  0  0  0  0
  -19.7975  -30.7282   24.2216 H   0  0  0  0  0  0
  -17.5057  -31.6274   24.5163 H   0  0  0  0  0  0
  -15.5377  -30.2982   23.7712 H   0  0  0  0  0  0
  -15.8685  -28.0823   22.7104 H   0  0  0  0  0  0
  -24.5917  -30.7077   25.7706 H   0  0  0  0  0  0
  -24.8879  -32.2933   26.4722 H   0  0  0  0  0  0
  -25.7966  -30.8990   27.0232 H   0  0  0  0  0  0
  -26.3120  -29.6564   24.1412 H   0  0  0  0  0  0
  -27.4010  -29.7269   25.5044 H   0  0  0  0  0  0
  -27.9049  -30.4093   23.9804 H   0  0  0  0  0  0
  -27.2640  -33.3674   26.1971 H   0  0  0  0  0  0
  -28.3923  -32.6820   25.0375 H   0  0  0  0  0  0
  -28.0661  -31.8538   26.5521 H   0  0  0  0  0  0
  -28.2555  -38.0085   24.7515 H   0  0  0  0  0  0
  -28.1099  -36.2609   24.6276 H   0  0  0  0  0  0
  -27.2281  -37.1393   25.8855 H   0  0  0  0  0  0
  -20.9552  -29.8753   21.6701 H   0  0  0  0  0  0
  -26.0141  -38.2779   24.1413 H   0  0  0  0  0  0
  -27.9894  -16.4372   16.2391 H   0  0  0  0  0  0
  -27.6643  -18.8894   16.1075 H   0  0  0  0  0  0
  -28.9679  -15.4297   18.2070 H   0  0  0  0  0  0
  -28.2797  -20.3234   17.9510 H   0  0  0  0  0  0
  -30.4651  -17.1211   22.3705 H   0  0  0  0  0  0
  -31.3886  -17.7849   21.0610 H   0  0  0  0  0  0
  -30.1090  -19.6089   22.1973 H   0  0  0  0  0  0
  -28.6101  -18.7647   22.0248 H   0  0  0  0  0  0
  -29.4287  -22.9228   19.2542 H   0  0  0  0  0  0
  -29.6771  -23.0330   20.9538 H   0  0  0  0  0  0
  -27.5298  -21.0924   19.7553 H   0  0  0  0  0  0
  -27.9681  -21.1688   21.3854 H   0  0  0  0  0  0
  -27.3041  -24.2310   21.1433 H   0  0  0  0  0  0
  -27.2173  -24.1874   19.4279 H   0  0  0  0  0  0
  1 25  1  0  0  0
  1 30  2  0  0  0
  1 82  1  0  0  0
  2  3  1  0  0  0
  2 25  1  0  0  0
  2 84  1  0  0  0
  2 85  1  0  0  0
  3  4  1  0  0  0
  3 86  1  0  0  0
  3 87  1  0  0  0
  4  5  1  0  0  0
  4 88  1  0  0  0
  4 89  1  0  0  0
  5  6  1  0  0  0
  5 26  1  0  0  0
  5 90  1  0  0  0
  6 25  1  0  0  0
  6 91  1  0  0  0
  6 92  1  0  0  0
  7  8  2  0  0  0
  7 26  1  0  0  0
  7 29  1  0  0  0
  8  9  1  0  0  0
  8 22  1  0  0  0
  9 10  1  0  0  0
  9 27  2  0  0  0
 10 11  2  0  0  0
 10 15  1  0  0  0
 11 12  1  0  0  0
 11 93  1  0  0  0
 12 13  2  0  0  0
 12 94  1  0  0  0
 13 14  1  0  0  0
 13 31  1  0  0  0
 14 15  2  0  0  0
 14 95  1  0  0  0
 15 96  1  0  0  0
 16 17  2  0  0  0
 16 21  1  0  0  0
 16 31  1  0  0  0
 17 18  1  0  0  0
 17 97  1  0  0  0
 18 19  2  0  0  0
 18 98  1  0  0  0
 19 20  1  0  0  0
 19 24  1  0  0  0
 20 21  2  0  0  0
 20 99  1  0  0  0
 21 23  1  0  0  0
 22 28  1  0  0  0
 22 32  2  0  0  0
 26 27  1  0  0  0
 28100  1  0  0  0
 28101  1  0  0  0
 29102  1  0  0  0
 29103  1  0  0  0
 33 34  1  0  0  0
 33 66  1  0  0  0
 33 70  2  0  0  0
 34 36  1  0  0  0
 34 59  1  0  0  0
 34104  1  0  0  0
 35 44  2  0  0  0
 35 45  1  0  0  0
 35 68  1  0  0  0
 36 56  1  0  0  0
 36105  1  0  0  0
 37 39  1  0  0  0
 37 47  1  0  0  0
 37 66  1  0  0  0
 37106  1  0  0  0
 38 43  2  0  0  0
 38 46  1  0  0  0
 38 47  1  0  0  0
 39 64  1  0  0  0
 39 67  2  0  0  0
 40 52  1  0  0  0
 40 53  2  0  0  0
 40 58  1  0  0  0
 41107  1  0  0  0
 41108  1  0  0  0
 41109  1  0  0  0
 41 48  1  0  0  0
 42 43  1  0  0  0
 42 66  1  0  0  0
 42110  1  0  0  0
 42111  1  0  0  0
 43 44  1  0  0  0
 44112  1  0  0  0
 45 46  2  0  0  0
 45113  1  0  0  0
 46114  1  0  0  0
 47115  1  0  0  0
 47116  1  0  0  0
 48 56  1  0  0  0
 48 65  1  0  0  0
 48117  1  0  0  0
 49 50  1  0  0  0
 49 53  1  0  0  0
 49 64  1  0  0  0
 49118  1  0  0  0
 50 51  1  0  0  0
 50119  1  0  0  0
 50120  1  0  0  0
 51 52  1  0  0  0
 51121  1  0  0  0
 51122  1  0  0  0
 52123  1  0  0  0
 52124  1  0  0  0
 53 54  1  0  0  0
 54 55  2  0  0  0
 54125  1  0  0  0
 55 57  1  0  0  0
 55126  1  0  0  0
 56 69  2  0  0  0
 57 58  2  0  0  0
 57127  1  0  0  0
 58128  1  0  0  0
 59 60  1  0  0  0
 59 61  1  0  0  0
 59 62  1  0  0  0
 60129  1  0  0  0
 60130  1  0  0  0
 60131  1  0  0  0
 61132  1  0  0  0
 61133  1  0  0  0
 61134  1  0  0  0
 62135  1  0  0  0
 62136  1  0  0  0
 62137  1  0  0  0
 63 65  1  0  0  0
 63138  1  0  0  0
 63139  1  0  0  0
 63140  1  0  0  0
 64141  1  0  0  0
 65142  1  0  0  0
 68 81  1  0  0  0
 71 72  2  0  0  0
 71 73  1  0  0  0
 71143  1  0  0  0
 72 74  1  0  0  0
 72144  1  0  0  0
 73 75  2  0  0  0
 73145  1  0  0  0
 74 76  2  0  0  0
 74146  1  0  0  0
 75 76  1  0  0  0
 75 82  1  0  0  0
 76 83  1  0  0  0
 77 78  1  0  0  0
 77 82  1  0  0  0
 77147  1  0  0  0
 77148  1  0  0  0
 78 83  1  0  0  0
 78149  1  0  0  0
 78150  1  0  0  0
 79 80  1  0  0  0
 79 81  1  0  0  0
 79151  1  0  0  0
 79152  1  0  0  0
 80 83  1  0  0  0
 80153  1  0  0  0
 80154  1  0  0  0
 81155  1  0  0  0
 81156  1  0  0  0
M  ISO  4   1 100  68 101  81 101  82 100
M  END
> <chiral flag>
0

> <version>
0

> <s_m_source_file>
/data/baiqing/PycharmProjects/Reinvent-master-3.2/result/LINK_invent/BTK/process_docking_weight1_custom_product_contain_oxygen_bond_distance_aromatic_linkinvent_7_9_3/rearranged_h_0012.sdf

> <i_m_source_file_index>
85

> <r_mmod_Potential_Energy-OPLS-2005>
1091.47155761719

> <r_mmod_Stretch_Energy-OPLS-2005>
437.175231933594

> <r_mmod_Bend_Energy-OPLS-2005>
392.839416503906

> <r_mmod_Torsional_Energy-OPLS-2005>
280.102478027344

> <r_mmod_Improper_Torsional_Energy-OPLS-2005>
9.34634494781494

> <r_mmod_Van_der_Waal_Energy-OPLS-2005>
143.890930175781

> <r_mmod_Electrostatic_Energy-OPLS-2005>
-308.701019287109

> <r_mmod_Solvation_Energy-OPLS-2005>
-217.39289855957

> <b_mmod_Minimization_Converged-OPLS-2005>
0

> <r_mmod_RMS_Derivative-OPLS-2005>
1.66379618644714

$$$$
86
                    3D
 Structure written by MMmdl.
148156  0  0  1  0            999 V2000
  -30.5214  -14.9152   20.4322 C   0  0  0  0  0  0
  -30.4560  -12.5613   19.4932 C   0  0  0  0  0  0
  -29.5263  -12.5225   18.2560 C   0  0  0  0  0  0
  -28.0560  -12.3176   18.6734 C   0  0  0  0  0  0
  -27.6385  -13.2396   19.8491 C   0  0  2  0  0  0
  -28.6855  -13.2218   20.9846 C   0  0  0  0  0  0
  -25.2459  -13.8158   20.5697 C   0  0  0  0  0  0
  -24.1765  -13.0390   20.9179 C   0  0  0  0  0  0
  -24.6393  -11.6885   20.8728 C   0  0  0  0  0  0
  -23.9070  -10.4267   21.0393 C   0  0  0  0  0  0
  -24.3618   -9.4189   21.9177 C   0  0  0  0  0  0
  -23.6287   -8.2227   22.0750 C   0  0  0  0  0  0
  -22.4268   -8.0269   21.3541 C   0  0  0  0  0  0
  -21.9903   -9.0243   20.4647 C   0  0  0  0  0  0
  -22.7235  -10.2117   20.3050 C   0  0  0  0  0  0
  -21.6852   -6.0726   22.5279 C   0  0  0  0  0  0
  -21.4012   -6.5629   23.8210 C   0  0  0  0  0  0
  -21.3659   -5.6784   24.9173 C   0  0  0  0  0  0
  -21.6046   -4.3046   24.7225 C   0  0  0  0  0  0
  -21.8819   -3.8139   23.4345 C   0  0  0  0  0  0
  -21.9194   -4.6956   22.3402 C   0  0  0  0  0  0
  -22.7791  -13.5179   21.1863 C   0  0  0  0  0  0
  -22.1663   -4.2144   21.0979 F   0  0  0  0  0  0
  -21.5632   -3.4530   25.7737 F   0  0  0  0  0  0
  -29.9702  -13.6372   20.3996 N   0  0  0  0  0  0
  -26.2930  -12.9409   20.3303 N   0  0  0  0  0  0
  -25.9337  -11.6539   20.5759 N   0  0  0  0  0  0
  -22.0457  -12.8183   22.0447 N   0  0  0  0  0  0
  -25.4009  -15.1882   20.4184 N   0  0  0  0  0  0
  -31.7098  -15.0488   20.1197 O   0  0  0  0  0  0
  -21.6633   -6.8868   21.4238 O   0  0  0  0  0  0
  -22.3464  -14.5487   20.6720 O   0  0  0  0  0  0
  -24.6417  -31.8452   23.1899 C   0  0  0  0  0  0
  -25.9199  -32.4701   23.8276 C   0  0  1  0  0  0
  -27.2222  -27.1526   20.1448 C   0  0  0  0  0  0
  -25.5963  -33.8506   24.2202 N   0  0  0  0  0  0
  -23.4442  -30.4662   21.5348 C   0  0  2  0  0  0
  -24.8945  -28.8965   20.1100 C   0  0  0  0  0  0
  -22.7558  -29.4553   22.4857 C   0  0  0  0  0  0
  -18.0310  -28.1394   22.8468 C   0  0  0  0  0  0
  -24.1494  -36.7248   23.2642 C   0  0  0  0  0  0
  -25.9996  -30.7246   21.3863 C   0  0  0  0  0  0
  -26.0726  -29.3379   20.7264 C   0  0  0  0  0  0
  -27.2371  -28.4831   20.7255 C   0  0  0  0  0  0
  -26.0147  -26.8095   19.4943 C   0  0  0  0  0  0
  -24.8785  -27.6452   19.4787 C   0  0  0  0  0  0
  -23.6702  -29.7971   20.1536 C   0  0  0  0  0  0
  -25.4127  -36.3035   24.0318 C   0  0  1  0  0  0
  -20.5917  -28.3714   23.1234 C   0  0  2  0  0  0
  -20.6791  -26.9415   22.5409 C   0  0  0  0  0  0
  -19.5773  -26.6381   21.5204 C   0  0  0  0  0  0
  -18.1953  -26.7936   22.1610 C   0  0  0  0  0  0
  -19.1564  -28.8872   23.2845 C   0  0  0  0  0  0
  -18.9482  -30.1470   23.8868 C   0  0  0  0  0  0
  -17.6479  -30.6588   24.0559 C   0  0  0  0  0  0
  -25.9072  -34.9408   23.5067 C   0  0  0  0  0  0
  -16.5370  -29.9079   23.6341 C   0  0  0  0  0  0
  -16.7295  -28.6502   23.0351 C   0  0  0  0  0  0
  -26.4528  -31.6562   25.0707 C   0  0  0  0  0  0
  -25.3724  -31.3763   26.1419 C   0  0  0  0  0  0
  -27.0377  -30.2957   24.6274 C   0  0  0  0  0  0
  -27.6085  -32.4306   25.7471 C   0  0  0  0  0  0
  -27.5583  -37.1777   24.8465 C   0  0  0  0  0  0
  -21.4253  -29.3042   22.3607 N   0  0  0  0  0  0
  -26.4289  -37.3751   23.9413 N   0  0  0  0  0  0
  -24.7147  -31.0326   22.0924 N   0  0  0  0  0  0
  -23.4214  -28.8101   23.2998 O   0  0  0  0  0  0
  -28.2831  -26.1774   20.2081 O   0  0  0  0  0  0
  -26.5645  -34.8904   22.4637 O   0  0  0  0  0  0
  -23.5543  -32.1321   23.7134 O   0  0  0  0  0  0
  -30.5390  -18.5592   20.3119 C   0  0  0  0  0  0
  -30.2281  -19.9961   20.2516 C   0  0  0  0  0  0
  -27.9577  -19.5005   20.6233 C   0  0  0  0  0  0
  -29.5558  -17.5246   20.5374 C   0  0  0  0  0  0
  -28.9022  -20.5492   20.4006 C   0  0  0  0  0  0
  -28.2572  -18.0929   20.6946 C   0  0  0  0  0  0
  -27.9882  -24.6555   20.0887 C   0  0  0  0  0  0
  -28.9899  -23.3140   20.2894 C   0  0  0  0  0  0
  -29.6477  -16.0010   20.6557 N   0  0  0  0  0  0
  -28.3721  -21.9139   20.3335 O   0  0  0  0  0  0
  -27.2334  -17.2380   20.9233 F   0  0  0  0  0  0
  -31.4877  -12.7311   19.1805 H   0  0  0  0  0  0
  -30.4555  -11.5990   20.0081 H   0  0  0  0  0  0
  -29.8357  -11.7251   17.5785 H   0  0  0  0  0  0
  -29.6217  -13.4538   17.6962 H   0  0  0  0  0  0
  -27.9448  -11.2745   18.9718 H   0  0  0  0  0  0
  -27.3927  -12.4619   17.8198 H   0  0  0  0  0  0
  -27.6113  -14.2499   19.4400 H   0  0  0  0  0  0
  -28.7627  -12.2279   21.4282 H   0  0  0  0  0  0
  -28.3905  -13.8918   21.7938 H   0  0  0  0  0  0
  -25.2762   -9.5668   22.4749 H   0  0  0  0  0  0
  -23.9997   -7.4619   22.7465 H   0  0  0  0  0  0
  -21.0833   -8.8763   19.8957 H   0  0  0  0  0  0
  -22.3691  -10.9656   19.6162 H   0  0  0  0  0  0
  -21.2000   -7.6137   23.9710 H   0  0  0  0  0  0
  -21.1484   -6.0514   25.9077 H   0  0  0  0  0  0
  -22.0601   -2.7602   23.2845 H   0  0  0  0  0  0
  -22.4080  -11.9854   22.4844 H   0  0  0  0  0  0
  -21.1086  -13.1224   22.2682 H   0  0  0  0  0  0
  -24.6307  -15.8255   20.5832 H   0  0  0  0  0  0
  -26.2721  -15.6785   20.2515 H   0  0  0  0  0  0
  -26.7256  -32.5313   23.0995 H   0  0  0  0  0  0
  -25.0120  -33.9624   25.0359 H   0  0  0  0  0  0
  -22.7457  -31.2916   21.3825 H   0  0  0  0  0  0
  -23.3764  -35.9569   23.3295 H   0  0  0  0  0  0
  -24.3583  -36.8891   22.2059 H   0  0  0  0  0  0
  -23.7234  -37.6438   23.6676 H   0  0  0  0  0  0
  -26.1548  -31.4813   20.6161 H   0  0  0  0  0  0
  -26.8698  -30.7733   22.0286 H   0  0  0  0  0  0
  -28.1339  -28.8182   21.2272 H   0  0  0  0  0  0
  -25.9091  -25.8553   19.0022 H   0  0  0  0  0  0
  -23.9799  -27.3022   18.9846 H   0  0  0  0  0  0
  -23.8050  -30.5726   19.3985 H   0  0  0  0  0  0
  -22.7852  -29.2385   19.8435 H   0  0  0  0  0  0
  -25.1315  -36.1864   25.0809 H   0  0  0  0  0  0
  -21.0014  -28.3306   24.1352 H   0  0  0  0  0  0
  -20.5663  -26.2325   23.3628 H   0  0  0  0  0  0
  -21.6662  -26.7413   22.1223 H   0  0  0  0  0  0
  -19.6932  -25.6283   21.1254 H   0  0  0  0  0  0
  -19.6724  -27.3171   20.6718 H   0  0  0  0  0  0
  -17.4226  -26.6676   21.4011 H   0  0  0  0  0  0
  -18.0354  -26.0083   22.9012 H   0  0  0  0  0  0
  -19.7958  -30.7294   24.2221 H   0  0  0  0  0  0
  -17.5034  -31.6265   24.5168 H   0  0  0  0  0  0
  -15.5369  -30.2970   23.7682 H   0  0  0  0  0  0
  -15.8697  -28.0816   22.7070 H   0  0  0  0  0  0
  -24.5924  -30.7070   25.7768 H   0  0  0  0  0  0
  -24.8877  -32.2943   26.4751 H   0  0  0  0  0  0
  -25.8032  -30.9027   27.0250 H   0  0  0  0  0  0
  -26.2980  -29.6682   24.1288 H   0  0  0  0  0  0
  -27.4006  -29.7261   25.4840 H   0  0  0  0  0  0
  -27.8891  -30.4196   23.9575 H   0  0  0  0  0  0
  -27.2716  -33.3639   26.1992 H   0  0  0  0  0  0
  -28.3918  -32.6809   25.0300 H   0  0  0  0  0  0
  -28.0715  -31.8450   26.5425 H   0  0  0  0  0  0
  -28.2603  -38.0072   24.7516 H   0  0  0  0  0  0
  -28.1080  -36.2606   24.6286 H   0  0  0  0  0  0
  -27.2304  -37.1424   25.8870 H   0  0  0  0  0  0
  -20.9449  -29.8759   21.6797 H   0  0  0  0  0  0
  -26.0160  -38.2818   24.1433 H   0  0  0  0  0  0
  -31.5690  -18.2594   20.1836 H   0  0  0  0  0  0
  -31.0442  -20.6817   20.0723 H   0  0  0  0  0  0
  -26.9238  -19.7840   20.7511 H   0  0  0  0  0  0
  -27.1559  -24.4881   20.7736 H   0  0  0  0  0  0
  -27.5690  -24.5159   19.0932 H   0  0  0  0  0  0
  -29.5433  -23.4398   21.2200 H   0  0  0  0  0  0
  -29.7405  -23.3184   19.4988 H   0  0  0  0  0  0
  -28.7399  -15.6306   20.8942 H   0  0  0  0  0  0
  1 25  1  0  0  0
  1 30  2  0  0  0
  1 79  1  0  0  0
  2  3  1  0  0  0
  2 25  1  0  0  0
  2 82  1  0  0  0
  2 83  1  0  0  0
  3  4  1  0  0  0
  3 84  1  0  0  0
  3 85  1  0  0  0
  4  5  1  0  0  0
  4 86  1  0  0  0
  4 87  1  0  0  0
  5  6  1  0  0  0
  5 26  1  0  0  0
  5 88  1  0  0  0
  6 25  1  0  0  0
  6 89  1  0  0  0
  6 90  1  0  0  0
  7  8  2  0  0  0
  7 26  1  0  0  0
  7 29  1  0  0  0
  8  9  1  0  0  0
  8 22  1  0  0  0
  9 10  1  0  0  0
  9 27  2  0  0  0
 10 11  2  0  0  0
 10 15  1  0  0  0
 11 12  1  0  0  0
 11 91  1  0  0  0
 12 13  2  0  0  0
 12 92  1  0  0  0
 13 14  1  0  0  0
 13 31  1  0  0  0
 14 15  2  0  0  0
 14 93  1  0  0  0
 15 94  1  0  0  0
 16 17  2  0  0  0
 16 21  1  0  0  0
 16 31  1  0  0  0
 17 18  1  0  0  0
 17 95  1  0  0  0
 18 19  2  0  0  0
 18 96  1  0  0  0
 19 20  1  0  0  0
 19 24  1  0  0  0
 20 21  2  0  0  0
 20 97  1  0  0  0
 21 23  1  0  0  0
 22 28  1  0  0  0
 22 32  2  0  0  0
 26 27  1  0  0  0
 28 98  1  0  0  0
 28 99  1  0  0  0
 29100  1  0  0  0
 29101  1  0  0  0
 33 34  1  0  0  0
 33 66  1  0  0  0
 33 70  2  0  0  0
 34 36  1  0  0  0
 34 59  1  0  0  0
 34102  1  0  0  0
 35 44  2  0  0  0
 35 45  1  0  0  0
 35 68  1  0  0  0
 36 56  1  0  0  0
 36103  1  0  0  0
 37 39  1  0  0  0
 37 47  1  0  0  0
 37 66  1  0  0  0
 37104  1  0  0  0
 38 43  2  0  0  0
 38 46  1  0  0  0
 38 47  1  0  0  0
 39 64  1  0  0  0
 39 67  2  0  0  0
 40 52  1  0  0  0
 40 53  2  0  0  0
 40 58  1  0  0  0
 41105  1  0  0  0
 41106  1  0  0  0
 41107  1  0  0  0
 41 48  1  0  0  0
 42 43  1  0  0  0
 42 66  1  0  0  0
 42108  1  0  0  0
 42109  1  0  0  0
 43 44  1  0  0  0
 44110  1  0  0  0
 45 46  2  0  0  0
 45111  1  0  0  0
 46112  1  0  0  0
 47113  1  0  0  0
 47114  1  0  0  0
 48 56  1  0  0  0
 48 65  1  0  0  0
 48115  1  0  0  0
 49 50  1  0  0  0
 49 53  1  0  0  0
 49 64  1  0  0  0
 49116  1  0  0  0
 50 51  1  0  0  0
 50117  1  0  0  0
 50118  1  0  0  0
 51 52  1  0  0  0
 51119  1  0  0  0
 51120  1  0  0  0
 52121  1  0  0  0
 52122  1  0  0  0
 53 54  1  0  0  0
 54 55  2  0  0  0
 54123  1  0  0  0
 55 57  1  0  0  0
 55124  1  0  0  0
 56 69  2  0  0  0
 57 58  2  0  0  0
 57125  1  0  0  0
 58126  1  0  0  0
 59 60  1  0  0  0
 59 61  1  0  0  0
 59 62  1  0  0  0
 60127  1  0  0  0
 60128  1  0  0  0
 60129  1  0  0  0
 61130  1  0  0  0
 61131  1  0  0  0
 61132  1  0  0  0
 62133  1  0  0  0
 62134  1  0  0  0
 62135  1  0  0  0
 63 65  1  0  0  0
 63136  1  0  0  0
 63137  1  0  0  0
 63138  1  0  0  0
 64139  1  0  0  0
 65140  1  0  0  0
 68 77  1  0  0  0
 71 72  2  0  0  0
 71 74  1  0  0  0
 71141  1  0  0  0
 72 75  1  0  0  0
 72142  1  0  0  0
 73 75  2  0  0  0
 73 76  1  0  0  0
 73143  1  0  0  0
 74 76  2  0  0  0
 74 79  1  0  0  0
 75 80  1  0  0  0
 76 81  1  0  0  0
 77 78  1  0  0  0
 77144  1  0  0  0
 77145  1  0  0  0
 78 80  1  0  0  0
 78146  1  0  0  0
 78147  1  0  0  0
 79148  1  0  0  0
M  ISO  4   1 100  68 101  77 101  79 100
M  END
> <chiral flag>
0

> <version>
0

> <s_m_source_file>
/data/baiqing/PycharmProjects/Reinvent-master-3.2/result/LINK_invent/BTK/process_docking_weight1_custom_product_contain_oxygen_bond_distance_aromatic_linkinvent_7_9_3/rearranged_h_0012.sdf

> <i_m_source_file_index>
86

> <r_mmod_Potential_Energy-OPLS-2005>
429.317779541016

> <r_mmod_Stretch_Energy-OPLS-2005>
215.171890258789

> <r_mmod_Bend_Energy-OPLS-2005>
307.654571533203

> <r_mmod_Torsional_Energy-OPLS-2005>
210.088012695312

> <r_mmod_Improper_Torsional_Energy-OPLS-2005>
3.85878729820251

> <r_mmod_Van_der_Waal_Energy-OPLS-2005>
133.190078735352

> <r_mmod_Electrostatic_Energy-OPLS-2005>
-411.460144042969

> <r_mmod_Solvation_Energy-OPLS-2005>
-203.061370849609

> <b_mmod_Minimization_Converged-OPLS-2005>
0

> <r_mmod_RMS_Derivative-OPLS-2005>
0.840658664703369

$$$$
87
                    3D
 Structure written by MMmdl.
158166  0  0  1  0            999 V2000
  -30.5916  -14.7076   20.4552 C   0  0  0  0  0  0
  -30.4374  -12.4148   19.4908 C   0  0  0  0  0  0
  -29.5194  -12.4975   18.2474 C   0  0  0  0  0  0
  -28.0394  -12.3312   18.6472 C   0  0  0  0  0  0
  -27.6454  -13.2267   19.8509 C   0  0  2  0  0  0
  -28.6824  -13.1300   20.9915 C   0  0  0  0  0  0
  -25.2532  -13.8204   20.5678 C   0  0  0  0  0  0
  -24.1825  -13.0449   20.9211 C   0  0  0  0  0  0
  -24.6403  -11.6919   20.8754 C   0  0  0  0  0  0
  -23.9082  -10.4299   21.0399 C   0  0  0  0  0  0
  -24.3626   -9.4211   21.9178 C   0  0  0  0  0  0
  -23.6306   -8.2246   22.0739 C   0  0  0  0  0  0
  -22.4280   -8.0290   21.3544 C   0  0  0  0  0  0
  -21.9923   -9.0259   20.4633 C   0  0  0  0  0  0
  -22.7254  -10.2133   20.3052 C   0  0  0  0  0  0
  -21.6865   -6.0738   22.5283 C   0  0  0  0  0  0
  -21.4016   -6.5632   23.8218 C   0  0  0  0  0  0
  -21.3666   -5.6779   24.9178 C   0  0  0  0  0  0
  -21.6051   -4.3045   24.7231 C   0  0  0  0  0  0
  -21.8824   -3.8145   23.4348 C   0  0  0  0  0  0
  -21.9193   -4.6964   22.3408 C   0  0  0  0  0  0
  -22.7840  -13.5217   21.1877 C   0  0  0  0  0  0
  -22.1664   -4.2151   21.0987 F   0  0  0  0  0  0
  -21.5630   -3.4528   25.7745 F   0  0  0  0  0  0
  -30.0020  -13.4645   20.4401 N   0  0  0  0  0  0
  -26.2948  -12.9396   20.3254 N   0  0  0  0  0  0
  -25.9325  -11.6545   20.5735 N   0  0  0  0  0  0
  -22.0487  -12.8210   22.0440 N   0  0  0  0  0  0
  -25.4235  -15.1928   20.4089 N   0  0  0  0  0  0
  -31.7584  -14.8351   20.0688 O   0  0  0  0  0  0
  -21.6651   -6.8881   21.4245 O   0  0  0  0  0  0
  -22.3523  -14.5527   20.6724 O   0  0  0  0  0  0
  -24.6254  -31.8585   23.1997 C   0  0  0  0  0  0
  -25.9098  -32.4768   23.8328 C   0  0  1  0  0  0
  -27.2286  -27.3094   20.1041 C   0  0  0  0  0  0
  -25.5917  -33.8565   24.2257 N   0  0  0  0  0  0
  -23.4189  -30.4773   21.5429 C   0  0  2  0  0  0
  -24.8663  -28.9251   20.1091 C   0  0  0  0  0  0
  -22.7480  -29.4604   22.4961 C   0  0  0  0  0  0
  -18.0282  -28.1392   22.8489 C   0  0  0  0  0  0
  -24.1496  -36.7289   23.2634 C   0  0  0  0  0  0
  -25.9582  -30.7851   21.3689 C   0  0  0  0  0  0
  -26.0326  -29.4085   20.7141 C   0  0  0  0  0  0
  -27.2120  -28.6074   20.7056 C   0  0  0  0  0  0
  -26.0390  -26.8714   19.4838 C   0  0  0  0  0  0
  -24.8705  -27.6638   19.4881 C   0  0  0  0  0  0
  -23.6326  -29.8049   20.1593 C   0  0  0  0  0  0
  -25.4121  -36.3074   24.0323 C   0  0  1  0  0  0
  -20.5882  -28.3690   23.1305 C   0  0  2  0  0  0
  -20.6759  -26.9414   22.5423 C   0  0  0  0  0  0
  -19.5745  -26.6393   21.5217 C   0  0  0  0  0  0
  -18.1924  -26.7934   22.1622 C   0  0  0  0  0  0
  -19.1536  -28.8861   23.2885 C   0  0  0  0  0  0
  -18.9456  -30.1457   23.8910 C   0  0  0  0  0  0
  -17.6453  -30.6594   24.0560 C   0  0  0  0  0  0
  -25.9050  -34.9445   23.5092 C   0  0  0  0  0  0
  -16.5347  -29.9087   23.6320 C   0  0  0  0  0  0
  -16.7263  -28.6500   23.0348 C   0  0  0  0  0  0
  -26.4510  -31.6572   25.0688 C   0  0  0  0  0  0
  -25.3726  -31.3712   26.1402 C   0  0  0  0  0  0
  -27.0340  -30.3001   24.6111 C   0  0  0  0  0  0
  -27.6084  -32.4298   25.7454 C   0  0  0  0  0  0
  -27.5591  -37.1797   24.8468 C   0  0  0  0  0  0
  -21.4190  -29.3042   22.3719 N   0  0  0  0  0  0
  -26.4305  -37.3765   23.9408 N   0  0  0  0  0  0
  -24.6862  -31.0563   22.0953 N   0  0  0  0  0  0
  -23.4213  -28.8167   23.3058 O   0  0  0  0  0  0
  -28.3709  -26.4982   20.1816 O   0  0  0  0  0  0
  -26.5632  -34.8913   22.4661 O   0  0  0  0  0  0
  -23.5416  -32.1394   23.7325 O   0  0  0  0  0  0
  -30.3430  -20.6627   23.4057 C   0  0  0  0  0  0
  -30.6547  -19.3042   23.5046 C   0  0  0  0  0  0
  -29.7659  -21.1600   22.2295 C   0  0  0  0  0  0
  -30.3912  -18.4479   22.4232 C   0  0  0  0  0  0
  -29.4792  -20.3484   21.0983 C   0  0  0  0  0  0
  -29.8187  -18.9049   21.2118 C   0  0  0  0  0  0
  -27.6789  -20.5344   19.4091 C   0  0  0  0  0  0
  -28.2625  -23.7760   20.1786 C   0  0  0  0  0  0
  -29.1975  -22.5547   19.7059 C   0  0  0  0  0  0
  -28.5366  -25.2004   19.4847 C   0  0  0  0  0  0
  -29.7994  -15.8683   20.7817 N   0  0  0  0  0  0
  -28.8579  -21.1134   20.0397 N   0  0  0  0  0  0
  -28.3872  -17.5305   19.3353 O   0  0  0  0  0  0
  -30.9038  -17.5969   19.0948 O   0  0  0  0  0  0
  -29.7171  -17.4877   19.9642 S   0  0  0  0  0  0
  -31.4834  -12.5256   19.2028 H   0  0  0  0  0  0
  -30.3669  -11.4317   19.9575 H   0  0  0  0  0  0
  -29.7952  -11.7317   17.5207 H   0  0  0  0  0  0
  -29.6643  -13.4589   17.7524 H   0  0  0  0  0  0
  -27.8866  -11.2809   18.8998 H   0  0  0  0  0  0
  -27.3862  -12.5345   17.7968 H   0  0  0  0  0  0
  -27.6493  -14.2519   19.4792 H   0  0  0  0  0  0
  -28.6970  -12.1251   21.4155 H   0  0  0  0  0  0
  -28.4213  -13.7955   21.8159 H   0  0  0  0  0  0
  -25.2772   -9.5680   22.4751 H   0  0  0  0  0  0
  -24.0017   -7.4631   22.7444 H   0  0  0  0  0  0
  -21.0864   -8.8788   19.8929 H   0  0  0  0  0  0
  -22.3733  -10.9672   19.6159 H   0  0  0  0  0  0
  -21.2015   -7.6135   23.9737 H   0  0  0  0  0  0
  -21.1484   -6.0499   25.9087 H   0  0  0  0  0  0
  -22.0598   -2.7607   23.2855 H   0  0  0  0  0  0
  -22.4100  -11.9861   22.4808 H   0  0  0  0  0  0
  -21.1098  -13.1216   22.2643 H   0  0  0  0  0  0
  -24.6499  -15.8397   20.5123 H   0  0  0  0  0  0
  -26.2548  -15.6357   20.0382 H   0  0  0  0  0  0
  -26.7148  -32.5436   23.1066 H   0  0  0  0  0  0
  -25.0048  -33.9697   25.0387 H   0  0  0  0  0  0
  -22.7124  -31.2974   21.3958 H   0  0  0  0  0  0
  -23.3761  -35.9620   23.3304 H   0  0  0  0  0  0
  -24.3585  -36.8905   22.2047 H   0  0  0  0  0  0
  -23.7241  -37.6489   23.6656 H   0  0  0  0  0  0
  -26.0789  -31.5503   20.6000 H   0  0  0  0  0  0
  -26.8420  -30.8424   21.9936 H   0  0  0  0  0  0
  -28.1115  -28.9693   21.1844 H   0  0  0  0  0  0
  -25.9877  -25.8988   19.0174 H   0  0  0  0  0  0
  -23.9677  -27.2922   19.0208 H   0  0  0  0  0  0
  -23.7466  -30.5775   19.3986 H   0  0  0  0  0  0
  -22.7530  -29.2299   19.8601 H   0  0  0  0  0  0
  -25.1294  -36.1936   25.0813 H   0  0  0  0  0  0
  -20.9943  -28.3264   24.1436 H   0  0  0  0  0  0
  -20.5667  -26.2286   23.3612 H   0  0  0  0  0  0
  -21.6623  -26.7450   22.1217 H   0  0  0  0  0  0
  -19.6910  -25.6306   21.1244 H   0  0  0  0  0  0
  -19.6696  -27.3204   20.6753 H   0  0  0  0  0  0
  -17.4184  -26.6697   21.4022 H   0  0  0  0  0  0
  -18.0329  -26.0076   22.9020 H   0  0  0  0  0  0
  -19.7928  -30.7270   24.2306 H   0  0  0  0  0  0
  -17.4995  -31.6273   24.5164 H   0  0  0  0  0  0
  -15.5345  -30.2982   23.7637 H   0  0  0  0  0  0
  -15.8659  -28.0805   22.7067 H   0  0  0  0  0  0
  -24.5924  -30.7039   25.7728 H   0  0  0  0  0  0
  -24.8874  -32.2859   26.4796 H   0  0  0  0  0  0
  -25.8035  -30.8911   27.0190 H   0  0  0  0  0  0
  -26.2890  -29.6765   24.1145 H   0  0  0  0  0  0
  -27.4069  -29.7246   25.4598 H   0  0  0  0  0  0
  -27.8757  -30.4310   23.9297 H   0  0  0  0  0  0
  -27.2729  -33.3610   26.2025 H   0  0  0  0  0  0
  -28.3903  -32.6821   25.0275 H   0  0  0  0  0  0
  -28.0739  -31.8393   26.5352 H   0  0  0  0  0  0
  -28.2604  -38.0099   24.7490 H   0  0  0  0  0  0
  -28.1093  -36.2619   24.6327 H   0  0  0  0  0  0
  -27.2297  -37.1463   25.8869 H   0  0  0  0  0  0
  -20.9396  -29.8716   21.6867 H   0  0  0  0  0  0
  -26.0206  -38.2855   24.1383 H   0  0  0  0  0  0
  -30.5438  -21.3322   24.2318 H   0  0  0  0  0  0
  -31.1091  -18.9213   24.4080 H   0  0  0  0  0  0
  -29.5298  -22.2127   22.2354 H   0  0  0  0  0  0
  -30.6700  -17.4124   22.5302 H   0  0  0  0  0  0
  -27.2771  -19.7043   19.9896 H   0  0  0  0  0  0
  -27.9081  -20.1813   18.4007 H   0  0  0  0  0  0
  -26.8813  -21.2760   19.3309 H   0  0  0  0  0  0
  -28.3598  -23.8866   21.2567 H   0  0  0  0  0  0
  -27.2158  -23.5190   20.0124 H   0  0  0  0  0  0
  -30.2169  -22.7655   20.0328 H   0  0  0  0  0  0
  -29.2506  -22.6026   18.6171 H   0  0  0  0  0  0
  -28.0521  -25.2408   18.5088 H   0  0  0  0  0  0
  -29.5986  -25.1976   19.2343 H   0  0  0  0  0  0
  -28.8980  -15.7037   21.2212 H   0  0  0  0  0  0
  1 25  1  0  0  0
  1 30  2  0  0  0
  1 81  1  0  0  0
  2  3  1  0  0  0
  2 25  1  0  0  0
  2 86  1  0  0  0
  2 87  1  0  0  0
  3  4  1  0  0  0
  3 88  1  0  0  0
  3 89  1  0  0  0
  4  5  1  0  0  0
  4 90  1  0  0  0
  4 91  1  0  0  0
  5  6  1  0  0  0
  5 26  1  0  0  0
  5 92  1  0  0  0
  6 25  1  0  0  0
  6 93  1  0  0  0
  6 94  1  0  0  0
  7  8  2  0  0  0
  7 26  1  0  0  0
  7 29  1  0  0  0
  8  9  1  0  0  0
  8 22  1  0  0  0
  9 10  1  0  0  0
  9 27  2  0  0  0
 10 11  2  0  0  0
 10 15  1  0  0  0
 11 12  1  0  0  0
 11 95  1  0  0  0
 12 13  2  0  0  0
 12 96  1  0  0  0
 13 14  1  0  0  0
 13 31  1  0  0  0
 14 15  2  0  0  0
 14 97  1  0  0  0
 15 98  1  0  0  0
 16 17  2  0  0  0
 16 21  1  0  0  0
 16 31  1  0  0  0
 17 18  1  0  0  0
 17 99  1  0  0  0
 18 19  2  0  0  0
 18100  1  0  0  0
 19 20  1  0  0  0
 19 24  1  0  0  0
 20 21  2  0  0  0
 20101  1  0  0  0
 21 23  1  0  0  0
 22 28  1  0  0  0
 22 32  2  0  0  0
 26 27  1  0  0  0
 28102  1  0  0  0
 28103  1  0  0  0
 29104  1  0  0  0
 29105  1  0  0  0
 33 34  1  0  0  0
 33 66  1  0  0  0
 33 70  2  0  0  0
 34 36  1  0  0  0
 34 59  1  0  0  0
 34106  1  0  0  0
 35 44  2  0  0  0
 35 45  1  0  0  0
 35 68  1  0  0  0
 36 56  1  0  0  0
 36107  1  0  0  0
 37 39  1  0  0  0
 37 47  1  0  0  0
 37 66  1  0  0  0
 37108  1  0  0  0
 38 43  2  0  0  0
 38 46  1  0  0  0
 38 47  1  0  0  0
 39 64  1  0  0  0
 39 67  2  0  0  0
 40 52  1  0  0  0
 40 53  2  0  0  0
 40 58  1  0  0  0
 41109  1  0  0  0
 41110  1  0  0  0
 41111  1  0  0  0
 41 48  1  0  0  0
 42 43  1  0  0  0
 42 66  1  0  0  0
 42112  1  0  0  0
 42113  1  0  0  0
 43 44  1  0  0  0
 44114  1  0  0  0
 45 46  2  0  0  0
 45115  1  0  0  0
 46116  1  0  0  0
 47117  1  0  0  0
 47118  1  0  0  0
 48 56  1  0  0  0
 48 65  1  0  0  0
 48119  1  0  0  0
 49 50  1  0  0  0
 49 53  1  0  0  0
 49 64  1  0  0  0
 49120  1  0  0  0
 50 51  1  0  0  0
 50121  1  0  0  0
 50122  1  0  0  0
 51 52  1  0  0  0
 51123  1  0  0  0
 51124  1  0  0  0
 52125  1  0  0  0
 52126  1  0  0  0
 53 54  1  0  0  0
 54 55  2  0  0  0
 54127  1  0  0  0
 55 57  1  0  0  0
 55128  1  0  0  0
 56 69  2  0  0  0
 57 58  2  0  0  0
 57129  1  0  0  0
 58130  1  0  0  0
 59 60  1  0  0  0
 59 61  1  0  0  0
 59 62  1  0  0  0
 60131  1  0  0  0
 60132  1  0  0  0
 60133  1  0  0  0
 61134  1  0  0  0
 61135  1  0  0  0
 61136  1  0  0  0
 62137  1  0  0  0
 62138  1  0  0  0
 62139  1  0  0  0
 63 65  1  0  0  0
 63140  1  0  0  0
 63141  1  0  0  0
 63142  1  0  0  0
 64143  1  0  0  0
 65144  1  0  0  0
 68 80  1  0  0  0
 71 72  2  0  0  0
 71 73  1  0  0  0
 71145  1  0  0  0
 72 74  1  0  0  0
 72146  1  0  0  0
 73 75  2  0  0  0
 73147  1  0  0  0
 74 76  2  0  0  0
 74148  1  0  0  0
 75 76  1  0  0  0
 75 82  1  0  0  0
 76 85  1  0  0  0
 77 82  1  0  0  0
 77149  1  0  0  0
 77150  1  0  0  0
 77151  1  0  0  0
 78 79  1  0  0  0
 78 80  1  0  0  0
 78152  1  0  0  0
 78153  1  0  0  0
 79 82  1  0  0  0
 79154  1  0  0  0
 79155  1  0  0  0
 80156  1  0  0  0
 80157  1  0  0  0
 81158  1  0  0  0
 81 85  1  0  0  0
 83 85  2  0  0  0
 84 85  2  0  0  0
M  ISO  4   1 100  68 101  80 101  81 100
M  END
> <chiral flag>
0

> <version>
0

> <s_m_source_file>
/data/baiqing/PycharmProjects/Reinvent-master-3.2/result/LINK_invent/BTK/process_docking_weight1_custom_product_contain_oxygen_bond_distance_aromatic_linkinvent_7_9_3/rearranged_h_0012.sdf

> <i_m_source_file_index>
87

> <r_mmod_Potential_Energy-OPLS-2005>
142.190673828125

> <r_mmod_Stretch_Energy-OPLS-2005>
115.494567871094

> <r_mmod_Bend_Energy-OPLS-2005>
215.202011108398

> <r_mmod_Torsional_Energy-OPLS-2005>
199.470687866211

> <r_mmod_Improper_Torsional_Energy-OPLS-2005>
6.0515341758728

> <r_mmod_Van_der_Waal_Energy-OPLS-2005>
131.36669921875

> <r_mmod_Electrostatic_Energy-OPLS-2005>
-324.305603027344

> <r_mmod_Solvation_Energy-OPLS-2005>
-263.843170166016

> <b_mmod_Minimization_Converged-OPLS-2005>
0

> <r_mmod_RMS_Derivative-OPLS-2005>
3.0810854434967

$$$$
88
                    3D
 Structure written by MMmdl.
155163  0  0  1  0            999 V2000
  -30.6113  -14.8391   20.2549 C   0  0  0  0  0  0
  -30.4385  -12.4975   19.4436 C   0  0  0  0  0  0
  -29.4982  -12.4307   18.2244 C   0  0  0  0  0  0
  -28.0429  -12.2407   18.6855 C   0  0  0  0  0  0
  -27.6310  -13.2244   19.8128 C   0  0  2  0  0  0
  -28.6957  -13.2922   20.9284 C   0  0  0  0  0  0
  -25.2553  -13.8193   20.5733 C   0  0  0  0  0  0
  -24.1833  -13.0455   20.9253 C   0  0  0  0  0  0
  -24.6403  -11.6928   20.8800 C   0  0  0  0  0  0
  -23.9071  -10.4311   21.0442 C   0  0  0  0  0  0
  -24.3625   -9.4218   21.9205 C   0  0  0  0  0  0
  -23.6300   -8.2249   22.0762 C   0  0  0  0  0  0
  -22.4283   -8.0290   21.3549 C   0  0  0  0  0  0
  -21.9923   -9.0272   20.4656 C   0  0  0  0  0  0
  -22.7251  -10.2157   20.3080 C   0  0  0  0  0  0
  -21.6854   -6.0747   22.5279 C   0  0  0  0  0  0
  -21.4007   -6.5645   23.8212 C   0  0  0  0  0  0
  -21.3654   -5.6794   24.9174 C   0  0  0  0  0  0
  -21.6044   -4.3059   24.7224 C   0  0  0  0  0  0
  -21.8821   -3.8156   23.4345 C   0  0  0  0  0  0
  -21.9195   -4.6976   22.3402 C   0  0  0  0  0  0
  -22.7858  -13.5259   21.1870 C   0  0  0  0  0  0
  -22.1666   -4.2159   21.0978 F   0  0  0  0  0  0
  -21.5631   -3.4541   25.7735 F   0  0  0  0  0  0
  -29.9707  -13.6243   20.2798 N   0  0  0  0  0  0
  -26.2946  -12.9369   20.3267 N   0  0  0  0  0  0
  -25.9334  -11.6546   20.5819 N   0  0  0  0  0  0
  -22.0484  -12.8252   22.0409 N   0  0  0  0  0  0
  -25.4256  -15.1925   20.4124 N   0  0  0  0  0  0
  -31.8399  -14.8678   20.1616 O   0  0  0  0  0  0
  -21.6644   -6.8892   21.4244 O   0  0  0  0  0  0
  -22.3542  -14.5560   20.6706 O   0  0  0  0  0  0
  -24.6296  -31.8474   23.1734 C   0  0  0  0  0  0
  -25.9152  -32.4602   23.8154 C   0  0  1  0  0  0
  -27.2451  -27.2969   20.0001 C   0  0  0  0  0  0
  -25.5941  -33.8419   24.2218 N   0  0  0  0  0  0
  -23.4175  -30.4642   21.5216 C   0  0  2  0  0  0
  -24.8590  -28.8825   20.1358 C   0  0  0  0  0  0
  -22.7347  -29.4674   22.4744 C   0  0  0  0  0  0
  -18.0338  -28.1438   22.8412 C   0  0  0  0  0  0
  -24.1584  -36.7306   23.2605 C   0  0  0  0  0  0
  -25.9666  -30.7798   21.3579 C   0  0  0  0  0  0
  -26.0415  -29.3910   20.6942 C   0  0  0  0  0  0
  -27.2275  -28.5977   20.6283 C   0  0  0  0  0  0
  -26.0462  -26.8636   19.4293 C   0  0  0  0  0  0
  -24.8693  -27.6119   19.5263 C   0  0  0  0  0  0
  -23.6260  -29.7476   20.1664 C   0  0  0  0  0  0
  -25.4163  -36.2963   24.0291 C   0  0  1  0  0  0
  -20.5912  -28.3833   23.1084 C   0  0  2  0  0  0
  -20.6885  -26.9545   22.5249 C   0  0  0  0  0  0
  -19.5879  -26.6456   21.5075 C   0  0  0  0  0  0
  -18.2040  -26.7990   22.1524 C   0  0  0  0  0  0
  -19.1590  -28.8937   23.2784 C   0  0  0  0  0  0
  -18.9522  -30.1527   23.8828 C   0  0  0  0  0  0
  -17.6511  -30.6603   24.0568 C   0  0  0  0  0  0
  -25.9059  -34.9341   23.5058 C   0  0  0  0  0  0
  -16.5424  -29.9103   23.6382 C   0  0  0  0  0  0
  -16.7300  -28.6571   23.0344 C   0  0  0  0  0  0
  -26.4648  -31.6408   25.0579 C   0  0  0  0  0  0
  -25.3872  -31.3643   26.1324 C   0  0  0  0  0  0
  -27.0468  -30.2708   24.6122 C   0  0  0  0  0  0
  -27.6155  -32.4126   25.7330 C   0  0  0  0  0  0
  -27.5577  -37.1746   24.8402 C   0  0  0  0  0  0
  -21.4051  -29.3171   22.3381 N   0  0  0  0  0  0
  -26.4296  -37.3658   23.9375 N   0  0  0  0  0  0
  -24.6919  -31.0387   22.0703 N   0  0  0  0  0  0
  -23.4016  -28.8233   23.2910 O   0  0  0  0  0  0
  -28.4309  -26.5367   19.8634 O   0  0  0  0  0  0
  -26.5590  -34.8819   22.4573 O   0  0  0  0  0  0
  -23.5491  -32.1280   23.7051 O   0  0  0  0  0  0
  -30.7410  -19.9015   19.1848 C   0  0  0  0  0  0
  -28.5175  -19.1127   18.9202 C   0  0  0  0  0  0
  -30.3487  -21.2126   18.7737 C   0  0  0  0  0  0
  -28.1197  -20.4493   18.5067 C   0  0  0  0  0  0
  -29.8583  -18.7901   19.2930 C   0  0  0  0  0  0
  -29.0167  -21.5671   18.4664 C   0  0  0  0  0  0
  -29.3280  -23.2952   16.7254 C   0  0  0  0  0  0
  -30.4873  -17.4223   19.8801 C   0  0  0  0  0  0
  -27.9066  -24.0057   18.6894 C   0  0  0  0  0  0
  -28.6098  -25.0460   19.7126 C   0  0  0  0  0  0
  -29.8815  -16.0163   20.0323 N   0  0  0  0  0  0
  -28.7334  -22.9192   18.0271 N   0  0  0  0  0  0
  -31.4715  -12.6289   19.1172 H   0  0  0  0  0  0
  -30.4136  -11.5750   20.0242 H   0  0  0  0  0  0
  -29.7953  -11.6043   17.5818 H   0  0  0  0  0  0
  -29.5820  -13.3366   17.6208 H   0  0  0  0  0  0
  -27.9707  -11.2202   19.0655 H   0  0  0  0  0  0
  -27.3521  -12.2955   17.8452 H   0  0  0  0  0  0
  -27.5826  -14.2062   19.3402 H   0  0  0  0  0  0
  -28.7823  -12.3469   21.4640 H   0  0  0  0  0  0
  -28.4374  -14.0537   21.6675 H   0  0  0  0  0  0
  -25.2774   -9.5689   22.4779 H   0  0  0  0  0  0
  -24.0013   -7.4637   22.7478 H   0  0  0  0  0  0
  -21.0858   -8.8802   19.8954 H   0  0  0  0  0  0
  -22.3718  -10.9705   19.6193 H   0  0  0  0  0  0
  -21.1987   -7.6150   23.9719 H   0  0  0  0  0  0
  -21.1470   -6.0523   25.9078 H   0  0  0  0  0  0
  -22.0603   -2.7616   23.2841 H   0  0  0  0  0  0
  -22.4098  -11.9916   22.4808 H   0  0  0  0  0  0
  -21.1087  -13.1278   22.2595 H   0  0  0  0  0  0
  -24.6623  -15.8481   20.5368 H   0  0  0  0  0  0
  -26.2752  -15.6338   20.0884 H   0  0  0  0  0  0
  -26.7156  -32.5313   23.0800 H   0  0  0  0  0  0
  -25.0222  -33.9596   25.0441 H   0  0  0  0  0  0
  -22.7142  -31.2830   21.3242 H   0  0  0  0  0  0
  -23.3745  -35.9660   23.3137 H   0  0  0  0  0  0
  -24.3670  -36.9070   22.2014 H   0  0  0  0  0  0
  -23.7400  -37.6474   23.6778 H   0  0  0  0  0  0
  -26.1466  -31.5647   20.6110 H   0  0  0  0  0  0
  -26.8242  -30.7791   22.0113 H   0  0  0  0  0  0
  -28.1533  -28.9605   21.0343 H   0  0  0  0  0  0
  -25.9920  -25.9674   18.8050 H   0  0  0  0  0  0
  -23.9909  -27.1649   19.0678 H   0  0  0  0  0  0
  -23.6884  -30.4859   19.3635 H   0  0  0  0  0  0
  -22.7350  -29.1528   19.9164 H   0  0  0  0  0  0
  -25.1372  -36.1728   25.0724 H   0  0  0  0  0  0
  -21.0192  -28.3653   24.1127 H   0  0  0  0  0  0
  -20.5796  -26.2505   23.3507 H   0  0  0  0  0  0
  -21.6753  -26.7568   22.1039 H   0  0  0  0  0  0
  -19.7039  -25.6358   21.1175 H   0  0  0  0  0  0
  -19.6841  -27.3191   20.6557 H   0  0  0  0  0  0
  -17.4271  -26.6581   21.3963 H   0  0  0  0  0  0
  -18.0524  -26.0175   22.9012 H   0  0  0  0  0  0
  -19.7989  -30.7338   24.2080 H   0  0  0  0  0  0
  -17.5109  -31.6249   24.5248 H   0  0  0  0  0  0
  -15.5418  -30.3016   23.7777 H   0  0  0  0  0  0
  -15.8686  -28.0851   22.7121 H   0  0  0  0  0  0
  -24.5855  -30.7227   25.7683 H   0  0  0  0  0  0
  -24.9430  -32.2949   26.4814 H   0  0  0  0  0  0
  -25.8217  -30.8695   26.9974 H   0  0  0  0  0  0
  -26.3087  -29.6183   24.1407 H   0  0  0  0  0  0
  -27.4337  -29.7179   25.4706 H   0  0  0  0  0  0
  -27.8849  -30.3800   23.9201 H   0  0  0  0  0  0
  -27.2674  -33.3291   26.1974 H   0  0  0  0  0  0
  -28.3907  -32.6745   25.0172 H   0  0  0  0  0  0
  -28.0839  -31.8192   26.5134 H   0  0  0  0  0  0
  -28.2522  -38.0160   24.7515 H   0  0  0  0  0  0
  -28.1253  -36.2641   24.6240 H   0  0  0  0  0  0
  -27.2315  -37.1346   25.8830 H   0  0  0  0  0  0
  -20.9140  -29.8503   21.6284 H   0  0  0  0  0  0
  -26.0187  -38.2664   24.1377 H   0  0  0  0  0  0
  -31.7754  -19.7759   19.4746 H   0  0  0  0  0  0
  -27.7578  -18.3514   18.9917 H   0  0  0  0  0  0
  -31.1069  -21.9790   18.7025 H   0  0  0  0  0  0
  -27.0958  -20.5910   18.1854 H   0  0  0  0  0  0
  -29.7666  -22.4409   16.2070 H   0  0  0  0  0  0
  -30.0888  -24.0709   16.8074 H   0  0  0  0  0  0
  -28.5676  -23.6830   16.0433 H   0  0  0  0  0  0
  -30.7953  -17.7125   20.8833 H   0  0  0  0  0  0
  -31.4243  -17.3050   19.3344 H   0  0  0  0  0  0
  -27.4553  -24.5652   17.8694 H   0  0  0  0  0  0
  -27.0811  -23.5291   19.2124 H   0  0  0  0  0  0
  -28.5534  -24.6077   20.7178 H   0  0  0  0  0  0
  -29.6766  -24.9717   19.5415 H   0  0  0  0  0  0
  -28.8817  -15.9486   19.9769 H   0  0  0  0  0  0
  1 25  1  0  0  0
  1 30  2  0  0  0
  1 81  1  0  0  0
  2  3  1  0  0  0
  2 25  1  0  0  0
  2 83  1  0  0  0
  2 84  1  0  0  0
  3  4  1  0  0  0
  3 85  1  0  0  0
  3 86  1  0  0  0
  4  5  1  0  0  0
  4 87  1  0  0  0
  4 88  1  0  0  0
  5  6  1  0  0  0
  5 26  1  0  0  0
  5 89  1  0  0  0
  6 25  1  0  0  0
  6 90  1  0  0  0
  6 91  1  0  0  0
  7  8  2  0  0  0
  7 26  1  0  0  0
  7 29  1  0  0  0
  8  9  1  0  0  0
  8 22  1  0  0  0
  9 10  1  0  0  0
  9 27  2  0  0  0
 10 11  2  0  0  0
 10 15  1  0  0  0
 11 12  1  0  0  0
 11 92  1  0  0  0
 12 13  2  0  0  0
 12 93  1  0  0  0
 13 14  1  0  0  0
 13 31  1  0  0  0
 14 15  2  0  0  0
 14 94  1  0  0  0
 15 95  1  0  0  0
 16 17  2  0  0  0
 16 21  1  0  0  0
 16 31  1  0  0  0
 17 18  1  0  0  0
 17 96  1  0  0  0
 18 19  2  0  0  0
 18 97  1  0  0  0
 19 20  1  0  0  0
 19 24  1  0  0  0
 20 21  2  0  0  0
 20 98  1  0  0  0
 21 23  1  0  0  0
 22 28  1  0  0  0
 22 32  2  0  0  0
 26 27  1  0  0  0
 28 99  1  0  0  0
 28100  1  0  0  0
 29101  1  0  0  0
 29102  1  0  0  0
 33 34  1  0  0  0
 33 66  1  0  0  0
 33 70  2  0  0  0
 34 36  1  0  0  0
 34 59  1  0  0  0
 34103  1  0  0  0
 35 44  2  0  0  0
 35 45  1  0  0  0
 35 68  1  0  0  0
 36 56  1  0  0  0
 36104  1  0  0  0
 37 39  1  0  0  0
 37 47  1  0  0  0
 37 66  1  0  0  0
 37105  1  0  0  0
 38 43  2  0  0  0
 38 46  1  0  0  0
 38 47  1  0  0  0
 39 64  1  0  0  0
 39 67  2  0  0  0
 40 52  1  0  0  0
 40 53  2  0  0  0
 40 58  1  0  0  0
 41106  1  0  0  0
 41107  1  0  0  0
 41108  1  0  0  0
 41 48  1  0  0  0
 42 43  1  0  0  0
 42 66  1  0  0  0
 42109  1  0  0  0
 42110  1  0  0  0
 43 44  1  0  0  0
 44111  1  0  0  0
 45 46  2  0  0  0
 45112  1  0  0  0
 46113  1  0  0  0
 47114  1  0  0  0
 47115  1  0  0  0
 48 56  1  0  0  0
 48 65  1  0  0  0
 48116  1  0  0  0
 49 50  1  0  0  0
 49 53  1  0  0  0
 49 64  1  0  0  0
 49117  1  0  0  0
 50 51  1  0  0  0
 50118  1  0  0  0
 50119  1  0  0  0
 51 52  1  0  0  0
 51120  1  0  0  0
 51121  1  0  0  0
 52122  1  0  0  0
 52123  1  0  0  0
 53 54  1  0  0  0
 54 55  2  0  0  0
 54124  1  0  0  0
 55 57  1  0  0  0
 55125  1  0  0  0
 56 69  2  0  0  0
 57 58  2  0  0  0
 57126  1  0  0  0
 58127  1  0  0  0
 59 60  1  0  0  0
 59 61  1  0  0  0
 59 62  1  0  0  0
 60128  1  0  0  0
 60129  1  0  0  0
 60130  1  0  0  0
 61131  1  0  0  0
 61132  1  0  0  0
 61133  1  0  0  0
 62134  1  0  0  0
 62135  1  0  0  0
 62136  1  0  0  0
 63 65  1  0  0  0
 63137  1  0  0  0
 63138  1  0  0  0
 63139  1  0  0  0
 64140  1  0  0  0
 65141  1  0  0  0
 68 80  1  0  0  0
 71 73  2  0  0  0
 71 75  1  0  0  0
 71142  1  0  0  0
 72 74  1  0  0  0
 72 75  2  0  0  0
 72143  1  0  0  0
 73 76  1  0  0  0
 73144  1  0  0  0
 74 76  2  0  0  0
 74145  1  0  0  0
 75 78  1  0  0  0
 76 82  1  0  0  0
 77 82  1  0  0  0
 77146  1  0  0  0
 77147  1  0  0  0
 77148  1  0  0  0
 78 81  1  0  0  0
 78149  1  0  0  0
 78150  1  0  0  0
 79 80  1  0  0  0
 79 82  1  0  0  0
 79151  1  0  0  0
 79152  1  0  0  0
 80153  1  0  0  0
 80154  1  0  0  0
 81155  1  0  0  0
M  ISO  4   1 100  68 101  80 101  81 100
M  END
> <chiral flag>
0

> <version>
0

> <s_m_source_file>
/data/baiqing/PycharmProjects/Reinvent-master-3.2/result/LINK_invent/BTK/process_docking_weight1_custom_product_contain_oxygen_bond_distance_aromatic_linkinvent_7_9_3/rearranged_h_0012.sdf

> <i_m_source_file_index>
88

> <r_mmod_Potential_Energy-OPLS-2005>
296.880889892578

> <r_mmod_Stretch_Energy-OPLS-2005>
131.293899536133

> <r_mmod_Bend_Energy-OPLS-2005>
272.573272705078

> <r_mmod_Torsional_Energy-OPLS-2005>
243.934371948242

> <r_mmod_Improper_Torsional_Energy-OPLS-2005>
8.0540246963501

> <r_mmod_Van_der_Waal_Energy-OPLS-2005>
134.328994750977

> <r_mmod_Electrostatic_Energy-OPLS-2005>
-393.064025878906

> <r_mmod_Solvation_Energy-OPLS-2005>
-223.035095214844

> <b_mmod_Minimization_Converged-OPLS-2005>
0

> <r_mmod_RMS_Derivative-OPLS-2005>
22.6596088409424

$$$$
89
                    3D
 Structure written by MMmdl.
161169  0  0  1  0            999 V2000
  -30.7091  -14.5935   20.5280 C   0  0  0  0  0  0
  -30.4158  -12.3713   19.4502 C   0  0  0  0  0  0
  -29.4937  -12.4673   18.2182 C   0  0  0  0  0  0
  -28.0225  -12.2777   18.6353 C   0  0  0  0  0  0
  -27.6394  -13.1732   19.8365 C   0  0  2  0  0  0
  -28.6908  -13.0853   20.9765 C   0  0  0  0  0  0
  -25.2534  -13.8013   20.5701 C   0  0  0  0  0  0
  -24.1785  -13.0348   20.9223 C   0  0  0  0  0  0
  -24.6315  -11.6819   20.8772 C   0  0  0  0  0  0
  -23.8989  -10.4246   21.0425 C   0  0  0  0  0  0
  -24.3583   -9.4179   21.9195 C   0  0  0  0  0  0
  -23.6274   -8.2221   22.0762 C   0  0  0  0  0  0
  -22.4256   -8.0257   21.3544 C   0  0  0  0  0  0
  -21.9871   -9.0214   20.4642 C   0  0  0  0  0  0
  -22.7181  -10.2099   20.3053 C   0  0  0  0  0  0
  -21.6843   -6.0725   22.5280 C   0  0  0  0  0  0
  -21.3993   -6.5633   23.8212 C   0  0  0  0  0  0
  -21.3668   -5.6789   24.9179 C   0  0  0  0  0  0
  -21.6058   -4.3051   24.7235 C   0  0  0  0  0  0
  -21.8825   -3.8144   23.4362 C   0  0  0  0  0  0
  -21.9193   -4.6957   22.3419 C   0  0  0  0  0  0
  -22.7836  -13.5192   21.1890 C   0  0  0  0  0  0
  -22.1670   -4.2147   21.0996 F   0  0  0  0  0  0
  -21.5630   -3.4528   25.7752 F   0  0  0  0  0  0
  -30.0010  -13.4206   20.4051 N   0  0  0  0  0  0
  -26.2899  -12.9130   20.3205 N   0  0  0  0  0  0
  -25.9212  -11.6342   20.5738 N   0  0  0  0  0  0
  -22.0439  -12.8214   22.0434 N   0  0  0  0  0  0
  -25.4221  -15.1728   20.4231 N   0  0  0  0  0  0
  -31.8852  -14.6375   20.1547 O   0  0  0  0  0  0
  -21.6617   -6.8863   21.4247 O   0  0  0  0  0  0
  -22.3570  -14.5522   20.6738 O   0  0  0  0  0  0
  -24.6143  -31.8635   23.2085 C   0  0  0  0  0  0
  -25.9022  -32.4798   23.8382 C   0  0  1  0  0  0
  -27.2431  -27.4044   20.1020 C   0  0  0  0  0  0
  -25.5871  -33.8606   24.2300 N   0  0  0  0  0  0
  -23.4030  -30.4874   21.5469 C   0  0  2  0  0  0
  -24.8501  -28.9420   20.1154 C   0  0  0  0  0  0
  -22.7375  -29.4643   22.4956 C   0  0  0  0  0  0
  -18.0231  -28.1390   22.8423 C   0  0  0  0  0  0
  -24.1473  -36.7303   23.2642 C   0  0  0  0  0  0
  -25.9320  -30.8211   21.3625 C   0  0  0  0  0  0
  -26.0081  -29.4495   20.7148 C   0  0  0  0  0  0
  -27.2008  -28.6873   20.7058 C   0  0  0  0  0  0
  -26.0598  -26.9135   19.5037 C   0  0  0  0  0  0
  -24.8724  -27.6749   19.5068 C   0  0  0  0  0  0
  -23.6129  -29.8140   20.1621 C   0  0  0  0  0  0
  -25.4098  -36.3096   24.0334 C   0  0  1  0  0  0
  -20.5821  -28.3667   23.1298 C   0  0  2  0  0  0
  -20.6713  -26.9411   22.5389 C   0  0  0  0  0  0
  -19.5729  -26.6400   21.5159 C   0  0  0  0  0  0
  -18.1883  -26.7953   22.1520 C   0  0  0  0  0  0
  -19.1478  -28.8830   23.2869 C   0  0  0  0  0  0
  -18.9421  -30.1433   23.8890 C   0  0  0  0  0  0
  -17.6428  -30.6587   24.0538 C   0  0  0  0  0  0
  -25.9024  -34.9458   23.5113 C   0  0  0  0  0  0
  -16.5312  -29.9099   23.6307 C   0  0  0  0  0  0
  -16.7217  -28.6524   23.0316 C   0  0  0  0  0  0
  -26.4473  -31.6573   25.0693 C   0  0  0  0  0  0
  -25.3754  -31.3679   26.1444 C   0  0  0  0  0  0
  -27.0303  -30.3017   24.6070 C   0  0  0  0  0  0
  -27.6056  -32.4269   25.7446 C   0  0  0  0  0  0
  -27.5569  -37.1810   24.8473 C   0  0  0  0  0  0
  -21.4091  -29.3061   22.3723 N   0  0  0  0  0  0
  -26.4274  -37.3798   23.9419 N   0  0  0  0  0  0
  -24.6679  -31.0723   22.0982 N   0  0  0  0  0  0
  -23.4126  -28.8179   23.3000 O   0  0  0  0  0  0
  -28.4431  -26.7063   20.1213 O   0  0  0  0  0  0
  -26.5613  -34.8889   22.4691 O   0  0  0  0  0  0
  -23.5330  -32.1394   23.7476 O   0  0  0  0  0  0
  -31.1402  -18.8541   20.1112 C   0  0  0  0  0  0
  -30.8589  -20.2016   19.7762 C   0  0  0  0  0  0
  -29.9309  -19.1352   22.1914 C   0  0  0  0  0  0
  -30.6668  -18.2938   21.3202 C   0  0  0  0  0  0
  -30.0964  -21.0301   20.6311 C   0  0  0  0  0  0
  -29.6459  -20.4814   21.8558 C   0  0  0  0  0  0
  -27.7527  -16.7463   18.2867 C   0  0  0  0  0  0
  -28.8246  -16.6535   19.0868 C   0  0  0  0  0  0
  -30.9263  -16.8051   21.6874 C   0  0  0  0  0  0
  -28.8046  -16.2510   20.5568 C   0  0  0  0  0  0
  -28.2390  -24.2438   20.5981 C   0  0  0  0  0  0
  -28.5758  -25.3700   19.5840 C   0  0  0  0  0  0
  -28.5126  -22.7821   20.1298 C   0  0  0  0  0  0
  -30.1125  -15.7381   21.0162 N   0  0  0  0  0  0
  -29.8785  -22.3573   20.2852 O   0  0  0  0  0  0
  -28.9487  -21.2526   22.7265 F   0  0  0  0  0  0
  -31.4575  -12.4651   19.1411 H   0  0  0  0  0  0
  -30.3375  -11.3865   19.9157 H   0  0  0  0  0  0
  -29.7739  -11.7104   17.4862 H   0  0  0  0  0  0
  -29.6212  -13.4318   17.7250 H   0  0  0  0  0  0
  -27.8825  -11.2281   18.8962 H   0  0  0  0  0  0
  -27.3618  -12.4722   17.7888 H   0  0  0  0  0  0
  -27.6237  -14.1635   19.3951 H   0  0  0  0  0  0
  -28.7198  -12.0771   21.3956 H   0  0  0  0  0  0
  -28.4399  -13.7324   21.8173 H   0  0  0  0  0  0
  -25.2726   -9.5683   22.4774 H   0  0  0  0  0  0
  -23.9990   -7.4629   22.7492 H   0  0  0  0  0  0
  -21.0797   -8.8717   19.8964 H   0  0  0  0  0  0
  -22.3617  -10.9649   19.6182 H   0  0  0  0  0  0
  -21.1941   -7.6133   23.9700 H   0  0  0  0  0  0
  -21.1501   -6.0523   25.9082 H   0  0  0  0  0  0
  -22.0593   -2.7599   23.2855 H   0  0  0  0  0  0
  -22.3993  -11.9883   22.4882 H   0  0  0  0  0  0
  -21.1078  -13.1340   22.2615 H   0  0  0  0  0  0
  -24.6671  -15.8334   20.5671 H   0  0  0  0  0  0
  -26.2867  -15.6076   20.1317 H   0  0  0  0  0  0
  -26.7082  -32.5501   23.1139 H   0  0  0  0  0  0
  -25.0008  -33.9815   25.0428 H   0  0  0  0  0  0
  -22.6933  -31.3058   21.4067 H   0  0  0  0  0  0
  -23.3714  -35.9657   23.3309 H   0  0  0  0  0  0
  -24.3572  -36.8922   22.2060 H   0  0  0  0  0  0
  -23.7229  -37.6513   23.6637 H   0  0  0  0  0  0
  -26.0404  -31.5823   20.5890 H   0  0  0  0  0  0
  -26.8212  -30.8860   21.9773 H   0  0  0  0  0  0
  -28.0926  -29.0816   21.1711 H   0  0  0  0  0  0
  -26.0287  -25.9450   19.0280 H   0  0  0  0  0  0
  -23.9827  -27.2802   19.0357 H   0  0  0  0  0  0
  -23.7227  -30.5863   19.3998 H   0  0  0  0  0  0
  -22.7367  -29.2343   19.8671 H   0  0  0  0  0  0
  -25.1284  -36.1972   25.0831 H   0  0  0  0  0  0
  -20.9923  -28.3229   24.1411 H   0  0  0  0  0  0
  -20.5522  -26.2309   23.3593 H   0  0  0  0  0  0
  -21.6614  -26.7453   22.1266 H   0  0  0  0  0  0
  -19.6645  -27.3227   20.6702 H   0  0  0  0  0  0
  -19.6915  -25.6324   21.1174 H   0  0  0  0  0  0
  -17.4225  -26.6740   21.3843 H   0  0  0  0  0  0
  -18.0187  -26.0068   22.8838 H   0  0  0  0  0  0
  -19.7885  -30.7247   24.2277 H   0  0  0  0  0  0
  -17.4988  -31.6268   24.5145 H   0  0  0  0  0  0
  -15.5325  -30.3034   23.7657 H   0  0  0  0  0  0
  -15.8582  -28.0888   22.7026 H   0  0  0  0  0  0
  -24.5944  -30.7013   25.7783 H   0  0  0  0  0  0
  -24.8916  -32.2827   26.4860 H   0  0  0  0  0  0
  -25.8123  -30.8875   27.0207 H   0  0  0  0  0  0
  -26.2852  -29.6770   24.1131 H   0  0  0  0  0  0
  -27.4110  -29.7264   25.4521 H   0  0  0  0  0  0
  -27.8657  -30.4343   23.9192 H   0  0  0  0  0  0
  -27.2709  -33.3562   26.2057 H   0  0  0  0  0  0
  -28.3844  -32.6844   25.0257 H   0  0  0  0  0  0
  -28.0721  -31.8352   26.5335 H   0  0  0  0  0  0
  -28.2609  -38.0088   24.7516 H   0  0  0  0  0  0
  -28.1051  -36.2631   24.6301 H   0  0  0  0  0  0
  -27.2299  -37.1470   25.8882 H   0  0  0  0  0  0
  -20.9239  -29.8886   21.7033 H   0  0  0  0  0  0
  -26.0151  -38.2873   24.1421 H   0  0  0  0  0  0
  -31.7111  -18.2480   19.4208 H   0  0  0  0  0  0
  -31.2271  -20.6039   18.8433 H   0  0  0  0  0  0
  -29.5691  -18.7476   23.1323 H   0  0  0  0  0  0
  -27.8691  -17.0483   17.2555 H   0  0  0  0  0  0
  -26.7507  -16.5387   18.6270 H   0  0  0  0  0  0
  -29.7862  -16.9020   18.6603 H   0  0  0  0  0  0
  -30.7506  -16.6889   22.7583 H   0  0  0  0  0  0
  -31.9964  -16.6297   21.5647 H   0  0  0  0  0  0
  -27.9910  -15.5906   20.8069 H   0  0  0  0  0  0
  -28.5021  -17.1248   21.1284 H   0  0  0  0  0  0
  -27.1741  -24.3258   20.8214 H   0  0  0  0  0  0
  -28.7573  -24.4188   21.5419 H   0  0  0  0  0  0
  -29.6257  -25.2621   19.3134 H   0  0  0  0  0  0
  -28.0356  -25.2466   18.6451 H   0  0  0  0  0  0
  -28.2442  -22.6768   19.0771 H   0  0  0  0  0  0
  -27.8344  -22.1207   20.6702 H   0  0  0  0  0  0
  1 25  1  0  0  0
  1 30  2  0  0  0
  1 84  1  0  0  0
  2  3  1  0  0  0
  2 25  1  0  0  0
  2 87  1  0  0  0
  2 88  1  0  0  0
  3  4  1  0  0  0
  3 89  1  0  0  0
  3 90  1  0  0  0
  4  5  1  0  0  0
  4 91  1  0  0  0
  4 92  1  0  0  0
  5  6  1  0  0  0
  5 26  1  0  0  0
  5 93  1  0  0  0
  6 25  1  0  0  0
  6 94  1  0  0  0
  6 95  1  0  0  0
  7  8  2  0  0  0
  7 26  1  0  0  0
  7 29  1  0  0  0
  8  9  1  0  0  0
  8 22  1  0  0  0
  9 10  1  0  0  0
  9 27  2  0  0  0
 10 11  2  0  0  0
 10 15  1  0  0  0
 11 12  1  0  0  0
 11 96  1  0  0  0
 12 13  2  0  0  0
 12 97  1  0  0  0
 13 14  1  0  0  0
 13 31  1  0  0  0
 14 15  2  0  0  0
 14 98  1  0  0  0
 15 99  1  0  0  0
 16 17  2  0  0  0
 16 21  1  0  0  0
 16 31  1  0  0  0
 17 18  1  0  0  0
 17100  1  0  0  0
 18 19  2  0  0  0
 18101  1  0  0  0
 19 20  1  0  0  0
 19 24  1  0  0  0
 20 21  2  0  0  0
 20102  1  0  0  0
 21 23  1  0  0  0
 22 28  1  0  0  0
 22 32  2  0  0  0
 26 27  1  0  0  0
 28103  1  0  0  0
 28104  1  0  0  0
 29105  1  0  0  0
 29106  1  0  0  0
 33 34  1  0  0  0
 33 66  1  0  0  0
 33 70  2  0  0  0
 34 36  1  0  0  0
 34 59  1  0  0  0
 34107  1  0  0  0
 35 44  2  0  0  0
 35 45  1  0  0  0
 35 68  1  0  0  0
 36 56  1  0  0  0
 36108  1  0  0  0
 37 39  1  0  0  0
 37 47  1  0  0  0
 37 66  1  0  0  0
 37109  1  0  0  0
 38 43  2  0  0  0
 38 46  1  0  0  0
 38 47  1  0  0  0
 39 64  1  0  0  0
 39 67  2  0  0  0
 40 52  1  0  0  0
 40 53  2  0  0  0
 40 58  1  0  0  0
 41110  1  0  0  0
 41111  1  0  0  0
 41112  1  0  0  0
 41 48  1  0  0  0
 42 43  1  0  0  0
 42 66  1  0  0  0
 42113  1  0  0  0
 42114  1  0  0  0
 43 44  1  0  0  0
 44115  1  0  0  0
 45 46  2  0  0  0
 45116  1  0  0  0
 46117  1  0  0  0
 47118  1  0  0  0
 47119  1  0  0  0
 48 56  1  0  0  0
 48 65  1  0  0  0
 48120  1  0  0  0
 49 50  1  0  0  0
 49 53  1  0  0  0
 49 64  1  0  0  0
 49121  1  0  0  0
 50 51  1  0  0  0
 50122  1  0  0  0
 50123  1  0  0  0
 51 52  1  0  0  0
 51124  1  0  0  0
 51125  1  0  0  0
 52126  1  0  0  0
 52127  1  0  0  0
 53 54  1  0  0  0
 54 55  2  0  0  0
 54128  1  0  0  0
 55 57  1  0  0  0
 55129  1  0  0  0
 56 69  2  0  0  0
 57 58  2  0  0  0
 57130  1  0  0  0
 58131  1  0  0  0
 59 60  1  0  0  0
 59 61  1  0  0  0
 59 62  1  0  0  0
 60132  1  0  0  0
 60133  1  0  0  0
 60134  1  0  0  0
 61135  1  0  0  0
 61136  1  0  0  0
 61137  1  0  0  0
 62138  1  0  0  0
 62139  1  0  0  0
 62140  1  0  0  0
 63 65  1  0  0  0
 63141  1  0  0  0
 63142  1  0  0  0
 63143  1  0  0  0
 64144  1  0  0  0
 65145  1  0  0  0
 68 82  1  0  0  0
 71 72  2  0  0  0
 71 74  1  0  0  0
 71146  1  0  0  0
 72 75  1  0  0  0
 72147  1  0  0  0
 73 74  2  0  0  0
 73 76  1  0  0  0
 73148  1  0  0  0
 74 79  1  0  0  0
 75 76  2  0  0  0
 75 85  1  0  0  0
 76 86  1  0  0  0
 77 78  2  0  0  0
 77149  1  0  0  0
 77150  1  0  0  0
 78 80  1  0  0  0
 78151  1  0  0  0
 79 84  1  0  0  0
 79152  1  0  0  0
 79153  1  0  0  0
 80 84  1  0  0  0
 80154  1  0  0  0
 80155  1  0  0  0
 81 82  1  0  0  0
 81 83  1  0  0  0
 81156  1  0  0  0
 81157  1  0  0  0
 82158  1  0  0  0
 82159  1  0  0  0
 83 85  1  0  0  0
 83160  1  0  0  0
 83161  1  0  0  0
M  ISO  4   1 100  68 101  82 101  84 100
M  END
> <chiral flag>
0

> <version>
0

> <s_m_source_file>
/data/baiqing/PycharmProjects/Reinvent-master-3.2/result/LINK_invent/BTK/process_docking_weight1_custom_product_contain_oxygen_bond_distance_aromatic_linkinvent_7_9_3/rearranged_h_0012.sdf

> <i_m_source_file_index>
89

> <r_mmod_Potential_Energy-OPLS-2005>
180.177978515625

> <r_mmod_Stretch_Energy-OPLS-2005>
53.7706642150879

> <r_mmod_Bend_Energy-OPLS-2005>
135.855117797852

> <r_mmod_Torsional_Energy-OPLS-2005>
279.377838134766

> <r_mmod_Improper_Torsional_Energy-OPLS-2005>
2.87607789039612

> <r_mmod_Van_der_Waal_Energy-OPLS-2005>
160.076568603516

> <r_mmod_Electrostatic_Energy-OPLS-2005>
-290.334106445312

> <r_mmod_Solvation_Energy-OPLS-2005>
-192.537689208984

> <b_mmod_Minimization_Converged-OPLS-2005>
0

> <r_mmod_RMS_Derivative-OPLS-2005>
3.29323101043701

$$$$
90
                    3D
 Structure written by MMmdl.
151159  0  0  1  0            999 V2000
  -30.6305  -14.6455   20.5040 C   0  0  0  0  0  0
  -30.4376  -12.3963   19.4575 C   0  0  0  0  0  0
  -29.5085  -12.5103   18.2282 C   0  0  0  0  0  0
  -28.0315  -12.3480   18.6393 C   0  0  0  0  0  0
  -27.6534  -13.2200   19.8663 C   0  0  2  0  0  0
  -28.6987  -13.0800   20.9967 C   0  0  0  0  0  0
  -25.2518  -13.8143   20.5628 C   0  0  0  0  0  0
  -24.1805  -13.0410   20.9163 C   0  0  0  0  0  0
  -24.6398  -11.6892   20.8740 C   0  0  0  0  0  0
  -23.9069  -10.4279   21.0406 C   0  0  0  0  0  0
  -24.3617   -9.4197   21.9186 C   0  0  0  0  0  0
  -23.6289   -8.2235   22.0756 C   0  0  0  0  0  0
  -22.4272   -8.0276   21.3544 C   0  0  0  0  0  0
  -21.9908   -9.0249   20.4646 C   0  0  0  0  0  0
  -22.7240  -10.2126   20.3055 C   0  0  0  0  0  0
  -21.6850   -6.0733   22.5279 C   0  0  0  0  0  0
  -21.4013   -6.5637   23.8212 C   0  0  0  0  0  0
  -21.3658   -5.6791   24.9174 C   0  0  0  0  0  0
  -21.6044   -4.3054   24.7225 C   0  0  0  0  0  0
  -21.8820   -3.8145   23.4347 C   0  0  0  0  0  0
  -21.9192   -4.6961   22.3403 C   0  0  0  0  0  0
  -22.7830  -13.5206   21.1839 C   0  0  0  0  0  0
  -22.1661   -4.2147   21.0980 F   0  0  0  0  0  0
  -21.5629   -3.4538   25.7739 F   0  0  0  0  0  0
  -30.0157  -13.4209   20.4346 N   0  0  0  0  0  0
  -26.2989  -12.9357   20.3341 N   0  0  0  0  0  0
  -25.9339  -11.6507   20.5789 N   0  0  0  0  0  0
  -22.0486  -12.8204   22.0413 N   0  0  0  0  0  0
  -25.4142  -15.1845   20.3962 N   0  0  0  0  0  0
  -31.7888  -14.7987   20.1064 O   0  0  0  0  0  0
  -21.6635   -6.8875   21.4240 O   0  0  0  0  0  0
  -22.3505  -14.5512   20.6697 O   0  0  0  0  0  0
  -24.6267  -31.8602   23.2032 C   0  0  0  0  0  0
  -25.9113  -32.4781   23.8360 C   0  0  1  0  0  0
  -27.2239  -27.3177   20.1129 C   0  0  0  0  0  0
  -25.5928  -33.8582   24.2284 N   0  0  0  0  0  0
  -23.4201  -30.4852   21.5465 C   0  0  2  0  0  0
  -24.8657  -28.9425   20.1123 C   0  0  0  0  0  0
  -22.7477  -29.4628   22.4938 C   0  0  0  0  0  0
  -18.0288  -28.1383   22.8486 C   0  0  0  0  0  0
  -24.1490  -36.7296   23.2639 C   0  0  0  0  0  0
  -25.9626  -30.7910   21.3746 C   0  0  0  0  0  0
  -26.0368  -29.4193   20.7147 C   0  0  0  0  0  0
  -27.2194  -28.6200   20.7033 C   0  0  0  0  0  0
  -26.0247  -26.8959   19.4902 C   0  0  0  0  0  0
  -24.8619  -27.6860   19.4917 C   0  0  0  0  0  0
  -23.6345  -29.8228   20.1613 C   0  0  0  0  0  0
  -25.4115  -36.3086   24.0329 C   0  0  1  0  0  0
  -20.5888  -28.3688   23.1281 C   0  0  2  0  0  0
  -20.6777  -26.9412   22.5408 C   0  0  0  0  0  0
  -19.5752  -26.6384   21.5211 C   0  0  0  0  0  0
  -18.1933  -26.7926   22.1625 C   0  0  0  0  0  0
  -19.1540  -28.8853   23.2879 C   0  0  0  0  0  0
  -18.9463  -30.1454   23.8896 C   0  0  0  0  0  0
  -17.6462  -30.6585   24.0564 C   0  0  0  0  0  0
  -25.9050  -34.9453   23.5106 C   0  0  0  0  0  0
  -16.5354  -29.9084   23.6329 C   0  0  0  0  0  0
  -16.7274  -28.6502   23.0350 C   0  0  0  0  0  0
  -26.4495  -31.6590   25.0729 C   0  0  0  0  0  0
  -25.3729  -31.3727   26.1456 C   0  0  0  0  0  0
  -27.0338  -30.3014   24.6182 C   0  0  0  0  0  0
  -27.6053  -32.4325   25.7501 C   0  0  0  0  0  0
  -27.5577  -37.1809   24.8468 C   0  0  0  0  0  0
  -21.4190  -29.3044   22.3678 N   0  0  0  0  0  0
  -26.4295  -37.3777   23.9402 N   0  0  0  0  0  0
  -24.6888  -31.0616   22.0984 N   0  0  0  0  0  0
  -23.4200  -28.8163   23.3014 O   0  0  0  0  0  0
  -28.3420  -26.4649   20.1562 O   0  0  0  0  0  0
  -26.5617  -34.8919   22.4672 O   0  0  0  0  0  0
  -23.5430  -32.1399   23.7360 O   0  0  0  0  0  0
  -31.0217  -17.8487   20.1396 C   0  0  0  0  0  0
  -31.0135  -19.2700   20.0058 C   0  0  0  0  0  0
  -28.8384  -19.3873   21.0097 C   0  0  0  0  0  0
  -29.9338  -17.1508   20.7274 C   0  0  0  0  0  0
  -29.9272  -20.0853   20.4258 C   0  0  0  0  0  0
  -28.8503  -17.9669   21.1677 C   0  0  0  0  0  0
  -29.2752  -23.9615   20.3115 C   0  0  0  0  0  0
  -28.0945  -25.0027   20.0898 C   0  0  0  0  0  0
  -28.8995  -22.4082   20.3875 C   0  0  0  0  0  0
  -29.8409  -15.6947   20.8944 N   0  0  0  0  0  0
  -30.0311  -21.4855   20.2682 O   0  0  0  0  0  0
  -27.4972  -17.2215   21.9397 Cl  0  0  0  0  0  0
  -31.4794  -12.5174   19.1554 H   0  0  0  0  0  0
  -30.3699  -11.4017   19.9010 H   0  0  0  0  0  0
  -29.7734  -11.7581   17.4839 H   0  0  0  0  0  0
  -29.6509  -13.4795   17.7474 H   0  0  0  0  0  0
  -27.8688  -11.2949   18.8718 H   0  0  0  0  0  0
  -27.3772  -12.5768   17.7972 H   0  0  0  0  0  0
  -27.6693  -14.2553   19.5249 H   0  0  0  0  0  0
  -28.7100  -12.0600   21.3837 H   0  0  0  0  0  0
  -28.4420  -13.7154   21.8456 H   0  0  0  0  0  0
  -25.2763   -9.5672   22.4760 H   0  0  0  0  0  0
  -23.9996   -7.4626   22.7476 H   0  0  0  0  0  0
  -21.0839   -8.8771   19.8952 H   0  0  0  0  0  0
  -22.3702  -10.9665   19.6163 H   0  0  0  0  0  0
  -21.2005   -7.6146   23.9715 H   0  0  0  0  0  0
  -21.1479   -6.0521   25.9077 H   0  0  0  0  0  0
  -22.0600   -2.7607   23.2849 H   0  0  0  0  0  0
  -22.4109  -11.9866   22.4796 H   0  0  0  0  0  0
  -21.1110  -13.1235   22.2635 H   0  0  0  0  0  0
  -24.6534  -15.8378   20.5429 H   0  0  0  0  0  0
  -26.2839  -15.6419   20.1572 H   0  0  0  0  0  0
  -26.7181  -32.5450   23.1108 H   0  0  0  0  0  0
  -25.0074  -33.9728   25.0428 H   0  0  0  0  0  0
  -22.7140  -31.3060   21.4049 H   0  0  0  0  0  0
  -23.3745  -35.9637   23.3318 H   0  0  0  0  0  0
  -24.3576  -36.8900   22.2050 H   0  0  0  0  0  0
  -23.7253  -37.6508   23.6650 H   0  0  0  0  0  0
  -26.0952  -31.5557   20.6080 H   0  0  0  0  0  0
  -26.8426  -30.8378   22.0045 H   0  0  0  0  0  0
  -28.1179  -28.9827   21.1827 H   0  0  0  0  0  0
  -25.9473  -25.9394   18.9978 H   0  0  0  0  0  0
  -23.9645  -27.3145   19.0162 H   0  0  0  0  0  0
  -23.7549  -30.6006   19.4063 H   0  0  0  0  0  0
  -22.7541  -29.2537   19.8575 H   0  0  0  0  0  0
  -25.1297  -36.1943   25.0823 H   0  0  0  0  0  0
  -20.9980  -28.3262   24.1402 H   0  0  0  0  0  0
  -20.5679  -26.2298   23.3607 H   0  0  0  0  0  0
  -21.6646  -26.7442   22.1201 H   0  0  0  0  0  0
  -19.6914  -25.6295   21.1239 H   0  0  0  0  0  0
  -19.6687  -27.3195   20.6741 H   0  0  0  0  0  0
  -17.4200  -26.6668   21.4031 H   0  0  0  0  0  0
  -18.0338  -26.0069   22.9024 H   0  0  0  0  0  0
  -19.7939  -30.7270   24.2266 H   0  0  0  0  0  0
  -17.5017  -31.6265   24.5166 H   0  0  0  0  0  0
  -15.5354  -30.2986   23.7653 H   0  0  0  0  0  0
  -15.8675  -28.0822   22.7064 H   0  0  0  0  0  0
  -24.5904  -30.7075   25.7786 H   0  0  0  0  0  0
  -24.8920  -32.2893   26.4882 H   0  0  0  0  0  0
  -25.8055  -30.8905   27.0231 H   0  0  0  0  0  0
  -26.2913  -29.6767   24.1203 H   0  0  0  0  0  0
  -27.4033  -29.7267   25.4686 H   0  0  0  0  0  0
  -27.8784  -30.4301   23.9410 H   0  0  0  0  0  0
  -27.2659  -33.3622   26.2082 H   0  0  0  0  0  0
  -28.3862  -32.6893   25.0331 H   0  0  0  0  0  0
  -28.0722  -31.8450   26.5416 H   0  0  0  0  0  0
  -28.2611  -38.0089   24.7491 H   0  0  0  0  0  0
  -28.1057  -36.2620   24.6327 H   0  0  0  0  0  0
  -27.2290  -37.1499   25.8871 H   0  0  0  0  0  0
  -20.9366  -29.8774   21.6896 H   0  0  0  0  0  0
  -26.0179  -38.2857   24.1386 H   0  0  0  0  0  0
  -31.8850  -17.3072   19.7823 H   0  0  0  0  0  0
  -31.8744  -19.7472   19.5589 H   0  0  0  0  0  0
  -27.9801  -19.9342   21.3692 H   0  0  0  0  0  0
  -29.8093  -24.2268   21.2238 H   0  0  0  0  0  0
  -29.9919  -24.0999   19.5021 H   0  0  0  0  0  0
  -27.3103  -24.7672   20.8112 H   0  0  0  0  0  0
  -27.6903  -24.7693   19.1051 H   0  0  0  0  0  0
  -28.1978  -22.1721   19.5866 H   0  0  0  0  0  0
  -28.3739  -22.2212   21.3243 H   0  0  0  0  0  0
  -28.9506  -15.3964   21.2641 H   0  0  0  0  0  0
  1 25  1  0  0  0
  1 30  2  0  0  0
  1 80  1  0  0  0
  2  3  1  0  0  0
  2 25  1  0  0  0
  2 83  1  0  0  0
  2 84  1  0  0  0
  3  4  1  0  0  0
  3 85  1  0  0  0
  3 86  1  0  0  0
  4  5  1  0  0  0
  4 87  1  0  0  0
  4 88  1  0  0  0
  5  6  1  0  0  0
  5 26  1  0  0  0
  5 89  1  0  0  0
  6 25  1  0  0  0
  6 90  1  0  0  0
  6 91  1  0  0  0
  7  8  2  0  0  0
  7 26  1  0  0  0
  7 29  1  0  0  0
  8  9  1  0  0  0
  8 22  1  0  0  0
  9 10  1  0  0  0
  9 27  2  0  0  0
 10 11  2  0  0  0
 10 15  1  0  0  0
 11 12  1  0  0  0
 11 92  1  0  0  0
 12 13  2  0  0  0
 12 93  1  0  0  0
 13 14  1  0  0  0
 13 31  1  0  0  0
 14 15  2  0  0  0
 14 94  1  0  0  0
 15 95  1  0  0  0
 16 17  2  0  0  0
 16 21  1  0  0  0
 16 31  1  0  0  0
 17 18  1  0  0  0
 17 96  1  0  0  0
 18 19  2  0  0  0
 18 97  1  0  0  0
 19 20  1  0  0  0
 19 24  1  0  0  0
 20 21  2  0  0  0
 20 98  1  0  0  0
 21 23  1  0  0  0
 22 28  1  0  0  0
 22 32  2  0  0  0
 26 27  1  0  0  0
 28 99  1  0  0  0
 28100  1  0  0  0
 29101  1  0  0  0
 29102  1  0  0  0
 33 34  1  0  0  0
 33 66  1  0  0  0
 33 70  2  0  0  0
 34 36  1  0  0  0
 34 59  1  0  0  0
 34103  1  0  0  0
 35 44  2  0  0  0
 35 45  1  0  0  0
 35 68  1  0  0  0
 36 56  1  0  0  0
 36104  1  0  0  0
 37 39  1  0  0  0
 37 47  1  0  0  0
 37 66  1  0  0  0
 37105  1  0  0  0
 38 43  2  0  0  0
 38 46  1  0  0  0
 38 47  1  0  0  0
 39 64  1  0  0  0
 39 67  2  0  0  0
 40 52  1  0  0  0
 40 53  2  0  0  0
 40 58  1  0  0  0
 41106  1  0  0  0
 41107  1  0  0  0
 41108  1  0  0  0
 41 48  1  0  0  0
 42 43  1  0  0  0
 42 66  1  0  0  0
 42109  1  0  0  0
 42110  1  0  0  0
 43 44  1  0  0  0
 44111  1  0  0  0
 45 46  2  0  0  0
 45112  1  0  0  0
 46113  1  0  0  0
 47114  1  0  0  0
 47115  1  0  0  0
 48 56  1  0  0  0
 48 65  1  0  0  0
 48116  1  0  0  0
 49 50  1  0  0  0
 49 53  1  0  0  0
 49 64  1  0  0  0
 49117  1  0  0  0
 50 51  1  0  0  0
 50118  1  0  0  0
 50119  1  0  0  0
 51 52  1  0  0  0
 51120  1  0  0  0
 51121  1  0  0  0
 52122  1  0  0  0
 52123  1  0  0  0
 53 54  1  0  0  0
 54 55  2  0  0  0
 54124  1  0  0  0
 55 57  1  0  0  0
 55125  1  0  0  0
 56 69  2  0  0  0
 57 58  2  0  0  0
 57126  1  0  0  0
 58127  1  0  0  0
 59 60  1  0  0  0
 59 61  1  0  0  0
 59 62  1  0  0  0
 60128  1  0  0  0
 60129  1  0  0  0
 60130  1  0  0  0
 61131  1  0  0  0
 61132  1  0  0  0
 61133  1  0  0  0
 62134  1  0  0  0
 62135  1  0  0  0
 62136  1  0  0  0
 63 65  1  0  0  0
 63137  1  0  0  0
 63138  1  0  0  0
 63139  1  0  0  0
 64140  1  0  0  0
 65141  1  0  0  0
 68 78  1  0  0  0
 71 72  2  0  0  0
 71 74  1  0  0  0
 71142  1  0  0  0
 72 75  1  0  0  0
 72143  1  0  0  0
 73 75  2  0  0  0
 73 76  1  0  0  0
 73144  1  0  0  0
 74 76  2  0  0  0
 74 80  1  0  0  0
 75 81  1  0  0  0
 76 82  1  0  0  0
 77 78  1  0  0  0
 77 79  1  0  0  0
 77145  1  0  0  0
 77146  1  0  0  0
 78147  1  0  0  0
 78148  1  0  0  0
 79 81  1  0  0  0
 79149  1  0  0  0
 79150  1  0  0  0
 80151  1  0  0  0
M  ISO  4   1 100  68 101  78 101  80 100
M  END
> <chiral flag>
0

> <version>
0

> <s_m_source_file>
/data/baiqing/PycharmProjects/Reinvent-master-3.2/result/LINK_invent/BTK/process_docking_weight1_custom_product_contain_oxygen_bond_distance_aromatic_linkinvent_7_9_3/rearranged_h_0012.sdf

> <i_m_source_file_index>
90

> <r_mmod_Potential_Energy-OPLS-2005>
15.4443645477295

> <r_mmod_Stretch_Energy-OPLS-2005>
79.6489486694336

> <r_mmod_Bend_Energy-OPLS-2005>
146.260269165039

> <r_mmod_Torsional_Energy-OPLS-2005>
210.600006103516

> <r_mmod_Improper_Torsional_Energy-OPLS-2005>
3.52094030380249

> <r_mmod_Van_der_Waal_Energy-OPLS-2005>
144.31852722168

> <r_mmod_Electrostatic_Energy-OPLS-2005>
-413.311950683594

> <r_mmod_Solvation_Energy-OPLS-2005>
-204.80029296875

> <b_mmod_Minimization_Converged-OPLS-2005>
0

> <r_mmod_RMS_Derivative-OPLS-2005>
0.137855604290962

$$$$
91
                    3D
 Structure written by MMmdl.
160169  0  0  1  0            999 V2000
  -30.6389  -14.6284   20.4714 C   0  0  0  0  0  0
  -30.4351  -12.3732   19.4463 C   0  0  0  0  0  0
  -29.5033  -12.5072   18.2200 C   0  0  0  0  0  0
  -28.0255  -12.3566   18.6332 C   0  0  0  0  0  0
  -27.6573  -13.2198   19.8709 C   0  0  2  0  0  0
  -28.7123  -13.0651   20.9924 C   0  0  0  0  0  0
  -25.2538  -13.8146   20.5657 C   0  0  0  0  0  0
  -24.1826  -13.0408   20.9160 C   0  0  0  0  0  0
  -24.6414  -11.6892   20.8743 C   0  0  0  0  0  0
  -23.9078  -10.4281   21.0412 C   0  0  0  0  0  0
  -24.3630   -9.4193   21.9186 C   0  0  0  0  0  0
  -23.6294   -8.2240   22.0766 C   0  0  0  0  0  0
  -22.4279   -8.0294   21.3566 C   0  0  0  0  0  0
  -21.9918   -9.0256   20.4664 C   0  0  0  0  0  0
  -22.7244  -10.2127   20.3065 C   0  0  0  0  0  0
  -21.6837   -6.0735   22.5272 C   0  0  0  0  0  0
  -21.4002   -6.5643   23.8204 C   0  0  0  0  0  0
  -21.3659   -5.6805   24.9174 C   0  0  0  0  0  0
  -21.6051   -4.3064   24.7238 C   0  0  0  0  0  0
  -21.8811   -3.8151   23.4358 C   0  0  0  0  0  0
  -21.9183   -4.6959   22.3414 C   0  0  0  0  0  0
  -22.7843  -13.5194   21.1834 C   0  0  0  0  0  0
  -22.1643   -4.2141   21.0985 F   0  0  0  0  0  0
  -21.5649   -3.4550   25.7757 F   0  0  0  0  0  0
  -30.0294  -13.4007   20.4248 N   0  0  0  0  0  0
  -26.3032  -12.9358   20.3398 N   0  0  0  0  0  0
  -25.9357  -11.6508   20.5805 N   0  0  0  0  0  0
  -22.0495  -12.8202   22.0413 N   0  0  0  0  0  0
  -25.4124  -15.1870   20.4002 N   0  0  0  0  0  0
  -31.7941  -14.7988   20.0738 O   0  0  0  0  0  0
  -21.6652   -6.8886   21.4252 O   0  0  0  0  0  0
  -22.3513  -14.5500   20.6676 O   0  0  0  0  0  0
  -24.6211  -31.8591   23.2056 C   0  0  0  0  0  0
  -25.9089  -32.4760   23.8355 C   0  0  1  0  0  0
  -27.2164  -27.3176   20.1016 C   0  0  0  0  0  0
  -25.5945  -33.8566   24.2298 N   0  0  0  0  0  0
  -23.4145  -30.4856   21.5465 C   0  0  2  0  0  0
  -24.8556  -28.9333   20.1152 C   0  0  0  0  0  0
  -22.7440  -29.4611   22.4902 C   0  0  0  0  0  0
  -18.0268  -28.1385   22.8426 C   0  0  0  0  0  0
  -24.1515  -36.7286   23.2637 C   0  0  0  0  0  0
  -25.9551  -30.7811   21.3850 C   0  0  0  0  0  0
  -26.0237  -29.4106   20.7225 C   0  0  0  0  0  0
  -27.2011  -28.6095   20.7136 C   0  0  0  0  0  0
  -26.0174  -26.8823   19.4873 C   0  0  0  0  0  0
  -24.8523  -27.6724   19.4983 C   0  0  0  0  0  0
  -23.6323  -29.8246   20.1609 C   0  0  0  0  0  0
  -25.4117  -36.3057   24.0353 C   0  0  1  0  0  0
  -20.5890  -28.3595   23.1168 C   0  0  2  0  0  0
  -20.6745  -26.9302   22.5278 C   0  0  0  0  0  0
  -19.5629  -26.6147   21.5206 C   0  0  0  0  0  0
  -18.1841  -26.7879   22.1652 C   0  0  0  0  0  0
  -19.1562  -28.8782   23.2858 C   0  0  0  0  0  0
  -18.9542  -30.1290   23.9088 C   0  0  0  0  0  0
  -17.6568  -30.6459   24.0786 C   0  0  0  0  0  0
  -25.9051  -34.9433   23.5108 C   0  0  0  0  0  0
  -16.5424  -29.9134   23.6353 C   0  0  0  0  0  0
  -16.7308  -28.6598   23.0245 C   0  0  0  0  0  0
  -26.4482  -31.6559   25.0718 C   0  0  0  0  0  0
  -25.3739  -31.3676   26.1461 C   0  0  0  0  0  0
  -27.0313  -30.2979   24.6195 C   0  0  0  0  0  0
  -27.6060  -32.4272   25.7459 C   0  0  0  0  0  0
  -27.5589  -37.1795   24.8460 C   0  0  0  0  0  0
  -21.4180  -29.2958   22.3534 N   0  0  0  0  0  0
  -26.4302  -37.3758   23.9406 N   0  0  0  0  0  0
  -24.6809  -31.0583   22.1027 N   0  0  0  0  0  0
  -23.4166  -28.8211   23.3042 O   0  0  0  0  0  0
  -28.3658  -26.5190   20.1536 O   0  0  0  0  0  0
  -26.5607  -34.8876   22.4669 O   0  0  0  0  0  0
  -23.5387  -32.1426   23.7392 O   0  0  0  0  0  0
  -30.7278  -19.3075   19.8796 C   0  0  0  0  0  0
  -30.8266  -17.8787   19.9687 C   0  0  0  0  0  0
  -28.6878  -19.2520   21.1456 C   0  0  0  0  0  0
  -29.6588  -20.0360   20.4794 C   0  0  0  0  0  0
  -29.8565  -17.1100   20.6729 C   0  0  0  0  0  0
  -28.7868  -17.8403   21.2498 C   0  0  0  0  0  0
  -26.4908  -22.3375   20.3024 C   0  0  0  0  0  0
  -27.0116  -23.5922   21.0223 C   0  0  0  0  0  0
  -27.5647  -21.9811   19.2750 C   0  0  0  0  0  0
  -28.4267  -23.8684   20.4598 C   0  0  2  0  0  0
  -29.6552  -21.6069   20.6470 C   0  0  0  0  0  0
  -28.4720  -25.1772   19.5387 C   0  0  0  0  0  0
  -29.8318  -15.6599   20.8509 N   0  0  0  0  0  0
  -28.8275  -22.5552   19.7862 N   0  3  1  0  0  0
  -27.5889  -17.0074   22.1749 Cl  0  0  0  0  0  0
  -31.4784  -12.4797   19.1491 H   0  0  0  0  0  0
  -30.3545  -11.3775   19.8836 H   0  0  0  0  0  0
  -29.7567  -11.7592   17.4685 H   0  0  0  0  0  0
  -29.6527  -13.4772   17.7405 H   0  0  0  0  0  0
  -27.8463  -11.3034   18.8473 H   0  0  0  0  0  0
  -27.3757  -12.6093   17.7948 H   0  0  0  0  0  0
  -27.6748  -14.2582   19.5399 H   0  0  0  0  0  0
  -28.7204  -12.0397   21.3641 H   0  0  0  0  0  0
  -28.4702  -13.6936   21.8510 H   0  0  0  0  0  0
  -25.2763   -9.5664   22.4773 H   0  0  0  0  0  0
  -23.9982   -7.4642   22.7500 H   0  0  0  0  0  0
  -21.0839   -8.8777   19.8979 H   0  0  0  0  0  0
  -22.3689  -10.9681   19.6201 H   0  0  0  0  0  0
  -21.1977   -7.6147   23.9701 H   0  0  0  0  0  0
  -21.1486   -6.0542   25.9073 H   0  0  0  0  0  0
  -22.0587   -2.7611   23.2863 H   0  0  0  0  0  0
  -22.4125  -11.9880   22.4822 H   0  0  0  0  0  0
  -21.1130  -13.1256   22.2669 H   0  0  0  0  0  0
  -24.6418  -15.8294   20.5410 H   0  0  0  0  0  0
  -26.2808  -15.6518   20.1712 H   0  0  0  0  0  0
  -26.7153  -32.5437   23.1082 H   0  0  0  0  0  0
  -25.0138  -33.9710   25.0470 H   0  0  0  0  0  0
  -22.7100  -31.3073   21.4027 H   0  0  0  0  0  0
  -23.3759  -35.9646   23.3279 H   0  0  0  0  0  0
  -24.3595  -36.8901   22.2050 H   0  0  0  0  0  0
  -23.7266  -37.6491   23.6641 H   0  0  0  0  0  0
  -26.1013  -31.5519   20.6277 H   0  0  0  0  0  0
  -26.8295  -30.8151   22.0240 H   0  0  0  0  0  0
  -28.0937  -28.9683   21.2088 H   0  0  0  0  0  0
  -25.9367  -25.9191   19.0093 H   0  0  0  0  0  0
  -23.9506  -27.2989   19.0304 H   0  0  0  0  0  0
  -23.7779  -30.6064   19.4167 H   0  0  0  0  0  0
  -22.7445  -29.2773   19.8402 H   0  0  0  0  0  0
  -25.1281  -36.1926   25.0858 H   0  0  0  0  0  0
  -21.0059  -28.3148   24.1264 H   0  0  0  0  0  0
  -20.5776  -26.2194   23.3495 H   0  0  0  0  0  0
  -21.6567  -26.7387   22.0949 H   0  0  0  0  0  0
  -19.6709  -25.5946   21.1490 H   0  0  0  0  0  0
  -19.6568  -27.2755   20.6595 H   0  0  0  0  0  0
  -17.4036  -26.6664   21.4112 H   0  0  0  0  0  0
  -18.0230  -26.0111   22.9132 H   0  0  0  0  0  0
  -19.8051  -30.6943   24.2682 H   0  0  0  0  0  0
  -17.5164  -31.6007   24.5636 H   0  0  0  0  0  0
  -15.5448  -30.3100   23.7651 H   0  0  0  0  0  0
  -15.8658  -28.1036   22.6843 H   0  0  0  0  0  0
  -24.5953  -30.6963   25.7799 H   0  0  0  0  0  0
  -24.8907  -32.2835   26.4880 H   0  0  0  0  0  0
  -25.8116  -30.8868   27.0212 H   0  0  0  0  0  0
  -26.2906  -29.6734   24.1210 H   0  0  0  0  0  0
  -27.3949  -29.7206   25.4696 H   0  0  0  0  0  0
  -27.8780  -30.4205   23.9447 H   0  0  0  0  0  0
  -27.2700  -33.3581   26.2017 H   0  0  0  0  0  0
  -28.3857  -32.6818   25.0272 H   0  0  0  0  0  0
  -28.0743  -31.8414   26.5369 H   0  0  0  0  0  0
  -28.2578  -38.0114   24.7470 H   0  0  0  0  0  0
  -28.1106  -36.2624   24.6315 H   0  0  0  0  0  0
  -27.2308  -37.1473   25.8869 H   0  0  0  0  0  0
  -20.9406  -29.8512   21.6577 H   0  0  0  0  0  0
  -26.0175  -38.2841   24.1367 H   0  0  0  0  0  0
  -31.5248  -19.8481   19.3883 H   0  0  0  0  0  0
  -31.6763  -17.3896   19.5147 H   0  0  0  0  0  0
  -27.8689  -19.7413   21.6503 H   0  0  0  0  0  0
  -25.5215  -22.5032   19.8277 H   0  0  0  0  0  0
  -26.3650  -21.5170   21.0087 H   0  0  0  0  0  0
  -27.0568  -23.3973   22.0964 H   0  0  0  0  0  0
  -26.3359  -24.4359   20.8847 H   0  0  0  0  0  0
  -27.3281  -22.4754   18.3314 H   0  0  0  0  0  0
  -27.6121  -20.9153   19.0525 H   0  0  0  0  0  0
  -29.1101  -24.0591   21.2873 H   0  0  0  0  0  0
  -30.6915  -21.9479   20.6097 H   0  0  0  0  0  0
  -29.3474  -21.7657   21.6799 H   0  0  0  0  0  0
  -27.8183  -25.0657   18.6772 H   0  0  0  0  0  0
  -29.4634  -25.1942   19.0920 H   0  0  0  0  0  0
  -28.9659  -15.3385   21.2597 H   0  0  0  0  0  0
  -29.4044  -22.7582   18.9806 H   0  0  0  0  0  0
  1 25  1  0  0  0
  1 30  2  0  0  0
  1 83  1  0  0  0
  2  3  1  0  0  0
  2 25  1  0  0  0
  2 86  1  0  0  0
  2 87  1  0  0  0
  3  4  1  0  0  0
  3 88  1  0  0  0
  3 89  1  0  0  0
  4  5  1  0  0  0
  4 90  1  0  0  0
  4 91  1  0  0  0
  5  6  1  0  0  0
  5 26  1  0  0  0
  5 92  1  0  0  0
  6 25  1  0  0  0
  6 93  1  0  0  0
  6 94  1  0  0  0
  7  8  2  0  0  0
  7 26  1  0  0  0
  7 29  1  0  0  0
  8  9  1  0  0  0
  8 22  1  0  0  0
  9 10  1  0  0  0
  9 27  2  0  0  0
 10 11  2  0  0  0
 10 15  1  0  0  0
 11 12  1  0  0  0
 11 95  1  0  0  0
 12 13  2  0  0  0
 12 96  1  0  0  0
 13 14  1  0  0  0
 13 31  1  0  0  0
 14 15  2  0  0  0
 14 97  1  0  0  0
 15 98  1  0  0  0
 16 17  2  0  0  0
 16 21  1  0  0  0
 16 31  1  0  0  0
 17 18  1  0  0  0
 17 99  1  0  0  0
 18 19  2  0  0  0
 18100  1  0  0  0
 19 20  1  0  0  0
 19 24  1  0  0  0
 20 21  2  0  0  0
 20101  1  0  0  0
 21 23  1  0  0  0
 22 28  1  0  0  0
 22 32  2  0  0  0
 26 27  1  0  0  0
 28102  1  0  0  0
 28103  1  0  0  0
 29104  1  0  0  0
 29105  1  0  0  0
 33 34  1  0  0  0
 33 66  1  0  0  0
 33 70  2  0  0  0
 34 36  1  0  0  0
 34 59  1  0  0  0
 34106  1  0  0  0
 35 44  2  0  0  0
 35 45  1  0  0  0
 35 68  1  0  0  0
 36 56  1  0  0  0
 36107  1  0  0  0
 37 39  1  0  0  0
 37 47  1  0  0  0
 37 66  1  0  0  0
 37108  1  0  0  0
 38 43  2  0  0  0
 38 46  1  0  0  0
 38 47  1  0  0  0
 39 64  1  0  0  0
 39 67  2  0  0  0
 40 52  1  0  0  0
 40 53  2  0  0  0
 40 58  1  0  0  0
 41109  1  0  0  0
 41110  1  0  0  0
 41111  1  0  0  0
 41 48  1  0  0  0
 42 43  1  0  0  0
 42 66  1  0  0  0
 42112  1  0  0  0
 42113  1  0  0  0
 43 44  1  0  0  0
 44114  1  0  0  0
 45 46  2  0  0  0
 45115  1  0  0  0
 46116  1  0  0  0
 47117  1  0  0  0
 47118  1  0  0  0
 48 56  1  0  0  0
 48 65  1  0  0  0
 48119  1  0  0  0
 49 50  1  0  0  0
 49 53  1  0  0  0
 49 64  1  0  0  0
 49120  1  0  0  0
 50 51  1  0  0  0
 50121  1  0  0  0
 50122  1  0  0  0
 51 52  1  0  0  0
 51123  1  0  0  0
 51124  1  0  0  0
 52125  1  0  0  0
 52126  1  0  0  0
 53 54  1  0  0  0
 54 55  2  0  0  0
 54127  1  0  0  0
 55 57  1  0  0  0
 55128  1  0  0  0
 56 69  2  0  0  0
 57 58  2  0  0  0
 57129  1  0  0  0
 58130  1  0  0  0
 59 60  1  0  0  0
 59 61  1  0  0  0
 59 62  1  0  0  0
 60131  1  0  0  0
 60132  1  0  0  0
 60133  1  0  0  0
 61134  1  0  0  0
 61135  1  0  0  0
 61136  1  0  0  0
 62137  1  0  0  0
 62138  1  0  0  0
 62139  1  0  0  0
 63 65  1  0  0  0
 63140  1  0  0  0
 63141  1  0  0  0
 63142  1  0  0  0
 64143  1  0  0  0
 65144  1  0  0  0
 68 82  1  0  0  0
 71 72  2  0  0  0
 71 74  1  0  0  0
 71145  1  0  0  0
 72 75  1  0  0  0
 72146  1  0  0  0
 73 74  2  0  0  0
 73 76  1  0  0  0
 73147  1  0  0  0
 74 81  1  0  0  0
 75 76  2  0  0  0
 75 83  1  0  0  0
 76 85  1  0  0  0
 77 78  1  0  0  0
 77 79  1  0  0  0
 77148  1  0  0  0
 77149  1  0  0  0
 78 80  1  0  0  0
 78150  1  0  0  0
 78151  1  0  0  0
 79 84  1  0  0  0
 79152  1  0  0  0
 79153  1  0  0  0
 80 82  1  0  0  0
 80 84  1  0  0  0
 80154  1  0  0  0
 81155  1  0  0  0
 81156  1  0  0  0
 81 84  1  0  0  0
 82157  1  0  0  0
 82158  1  0  0  0
 83159  1  0  0  0
 84160  1  0  0  0
M  CHG  1  84   1
M  ISO  4   1 100  68 101  82 101  83 100
M  END
> <chiral flag>
0

> <version>
0

> <s_m_source_file>
/data/baiqing/PycharmProjects/Reinvent-master-3.2/result/LINK_invent/BTK/process_docking_weight1_custom_product_contain_oxygen_bond_distance_aromatic_linkinvent_7_9_3/rearranged_h_0012.sdf

> <i_m_source_file_index>
91

> <r_mmod_Potential_Energy-OPLS-2005>
40.2030982971191

> <r_mmod_Stretch_Energy-OPLS-2005>
79.0180206298828

> <r_mmod_Bend_Energy-OPLS-2005>
185.949142456055

> <r_mmod_Torsional_Energy-OPLS-2005>
280.905700683594

> <r_mmod_Improper_Torsional_Energy-OPLS-2005>
4.9254903793335

> <r_mmod_Van_der_Waal_Energy-OPLS-2005>
133.501480102539

> <r_mmod_Electrostatic_Energy-OPLS-2005>
-249.084411621094

> <r_mmod_Solvation_Energy-OPLS-2005>
-440.300567626953

> <b_mmod_Minimization_Converged-OPLS-2005>
0

> <r_mmod_RMS_Derivative-OPLS-2005>
4.52572202682495

$$$$
