0
                    3D
 Structure written by MMmdl.
166174  0  0  1  0            999 V2000
  -30.5686  -14.7616   20.4940 C   0  0  0  0  0  0
  -30.4531  -12.4708   19.4677 C   0  0  0  0  0  0
  -29.5182  -12.5078   18.2368 C   0  0  0  0  0  0
  -28.0454  -12.3141   18.6532 C   0  0  0  0  0  0
  -27.6440  -13.2161   19.8490 C   0  0  2  0  0  0
  -28.6918  -13.1267   20.9791 C   0  0  0  0  0  0
  -25.2526  -13.8149   20.5681 C   0  0  0  0  0  0
  -24.1813  -13.0419   20.9213 C   0  0  0  0  0  0
  -24.6388  -11.6888   20.8759 C   0  0  0  0  0  0
  -23.9054  -10.4277   21.0418 C   0  0  0  0  0  0
  -24.3604   -9.4186   21.9188 C   0  0  0  0  0  0
  -23.6280   -8.2223   22.0759 C   0  0  0  0  0  0
  -22.4264   -8.0264   21.3544 C   0  0  0  0  0  0
  -21.9900   -9.0238   20.4647 C   0  0  0  0  0  0
  -22.7229  -10.2118   20.3059 C   0  0  0  0  0  0
  -21.6845   -6.0725   22.5279 C   0  0  0  0  0  0
  -21.4011   -6.5633   23.8211 C   0  0  0  0  0  0
  -21.3660   -5.6787   24.9173 C   0  0  0  0  0  0
  -21.6046   -4.3052   24.7229 C   0  0  0  0  0  0
  -21.8816   -3.8140   23.4350 C   0  0  0  0  0  0
  -21.9191   -4.6953   22.3403 C   0  0  0  0  0  0
  -22.7835  -13.5211   21.1877 C   0  0  0  0  0  0
  -22.1656   -4.2138   21.0980 F   0  0  0  0  0  0
  -21.5632   -3.4539   25.7743 F   0  0  0  0  0  0
  -29.9853  -13.5159   20.4024 N   0  0  0  0  0  0
  -26.2946  -12.9327   20.3262 N   0  0  0  0  0  0
  -25.9309  -11.6490   20.5747 N   0  0  0  0  0  0
  -22.0476  -12.8204   22.0425 N   0  0  0  0  0  0
  -25.4188  -15.1881   20.4068 N   0  0  0  0  0  0
  -31.7659  -14.9079   20.2262 O   0  0  0  0  0  0
  -21.6628   -6.8863   21.4237 O   0  0  0  0  0  0
  -22.3511  -14.5508   20.6705 O   0  0  0  0  0  0
  -24.6300  -31.8581   23.1991 C   0  0  0  0  0  0
  -25.9128  -32.4766   23.8342 C   0  0  1  0  0  0
  -27.2187  -27.2578   20.1275 C   0  0  0  0  0  0
  -25.5929  -33.8570   24.2274 N   0  0  0  0  0  0
  -23.4274  -30.4822   21.5440 C   0  0  2  0  0  0
  -24.8747  -28.9316   20.1121 C   0  0  0  0  0  0
  -22.7513  -29.4616   22.4909 C   0  0  0  0  0  0
  -18.0299  -28.1383   22.8485 C   0  0  0  0  0  0
  -24.1495  -36.7276   23.2638 C   0  0  0  0  0  0
  -25.9743  -30.7718   21.3771 C   0  0  0  0  0  0
  -26.0493  -29.3937   20.7187 C   0  0  0  0  0  0
  -27.2242  -28.5715   20.7129 C   0  0  0  0  0  0
  -26.0150  -26.8688   19.4943 C   0  0  0  0  0  0
  -24.8636  -27.6773   19.4884 C   0  0  0  0  0  0
  -23.6457  -29.8186   20.1602 C   0  0  0  0  0  0
  -25.4120  -36.3075   24.0328 C   0  0  1  0  0  0
  -20.5904  -28.3699   23.1255 C   0  0  2  0  0  0
  -20.6785  -26.9414   22.5399 C   0  0  0  0  0  0
  -19.5767  -26.6382   21.5197 C   0  0  0  0  0  0
  -18.1949  -26.7933   22.1615 C   0  0  0  0  0  0
  -19.1553  -28.8856   23.2869 C   0  0  0  0  0  0
  -18.9474  -30.1455   23.8890 C   0  0  0  0  0  0
  -17.6471  -30.6583   24.0557 C   0  0  0  0  0  0
  -25.9056  -34.9447   23.5107 C   0  0  0  0  0  0
  -16.5365  -29.9082   23.6323 C   0  0  0  0  0  0
  -16.7286  -28.6500   23.0352 C   0  0  0  0  0  0
  -26.4509  -31.6581   25.0719 C   0  0  0  0  0  0
  -25.3720  -31.3712   26.1424 C   0  0  0  0  0  0
  -27.0347  -30.3005   24.6170 C   0  0  0  0  0  0
  -27.6084  -32.4304   25.7476 C   0  0  0  0  0  0
  -27.5583  -37.1789   24.8473 C   0  0  0  0  0  0
  -21.4219  -29.3049   22.3648 N   0  0  0  0  0  0
  -26.4295  -37.3770   23.9415 N   0  0  0  0  0  0
  -24.6970  -31.0549   22.0969 N   0  0  0  0  0  0
  -23.4208  -28.8147   23.3005 O   0  0  0  0  0  0
  -28.3103  -26.3512   20.1799 O   0  0  0  0  0  0
  -26.5627  -34.8922   22.4678 O   0  0  0  0  0  0
  -23.5447  -32.1409   23.7284 O   0  0  0  0  0  0
  -29.4055  -19.8749   22.2269 C   0  0  0  0  0  0
  -29.7039  -18.4339   20.3024 C   0  0  0  0  0  0
  -29.4489  -18.7413   23.0652 C   0  0  0  0  0  0
  -29.6278  -17.4278   22.5337 C   0  0  0  0  0  0
  -29.7720  -17.2302   21.1253 C   0  0  0  0  0  0
  -29.5112  -19.7803   20.8294 C   0  0  0  0  0  0
  -30.5852  -19.4353   25.2227 C   0  0  0  0  0  0
  -28.1580  -15.7482   23.7585 C   0  0  0  0  0  0
  -30.0197  -23.9733   21.5420 C   0  0  0  0  0  0
  -29.2713  -19.0154   24.5570 C   0  0  0  0  0  0
  -29.5919  -16.2270   23.4828 C   0  0  0  0  0  0
  -28.0207  -24.8683   20.1597 C   0  0  0  0  0  0
  -28.6069  -22.1569   20.3758 C   0  0  0  0  0  0
  -29.1352  -23.6966   20.3154 C   0  0  2  0  0  0
  -29.6928  -15.8387   20.5931 N   0  0  0  0  0  0
  -29.4788  -20.9772   20.0511 O   0  0  0  0  0  0
  -31.4897  -12.6295   19.1669 H   0  0  0  0  0  0
  -30.4251  -11.4922   19.9503 H   0  0  0  0  0  0
  -29.8109  -11.7401   17.5203 H   0  0  0  0  0  0
  -29.6288  -13.4641   17.7241 H   0  0  0  0  0  0
  -27.9201  -11.2671   18.9307 H   0  0  0  0  0  0
  -27.3828  -12.4843   17.8042 H   0  0  0  0  0  0
  -27.6394  -14.2370   19.4667 H   0  0  0  0  0  0
  -28.7425  -12.1134   21.3808 H   0  0  0  0  0  0
  -28.4231  -13.7659   21.8167 H   0  0  0  0  0  0
  -25.2750   -9.5663   22.4762 H   0  0  0  0  0  0
  -23.9986   -7.4616   22.7487 H   0  0  0  0  0  0
  -21.0823   -8.8751   19.8962 H   0  0  0  0  0  0
  -22.3682  -10.9649   19.6166 H   0  0  0  0  0  0
  -21.2002   -7.6143   23.9707 H   0  0  0  0  0  0
  -21.1489   -6.0525   25.9075 H   0  0  0  0  0  0
  -22.0599   -2.7603   23.2853 H   0  0  0  0  0  0
  -22.4094  -11.9864   22.4806 H   0  0  0  0  0  0
  -21.1095  -13.1226   22.2646 H   0  0  0  0  0  0
  -24.6415  -15.8306   20.5159 H   0  0  0  0  0  0
  -26.2452  -15.6332   20.0317 H   0  0  0  0  0  0
  -26.7187  -32.5449   23.1081 H   0  0  0  0  0  0
  -25.0072  -33.9718   25.0414 H   0  0  0  0  0  0
  -22.7210  -31.3017   21.3984 H   0  0  0  0  0  0
  -23.3769  -35.9597   23.3309 H   0  0  0  0  0  0
  -24.3584  -36.8894   22.2052 H   0  0  0  0  0  0
  -23.7241  -37.6472   23.6661 H   0  0  0  0  0  0
  -26.1073  -31.5327   20.6083 H   0  0  0  0  0  0
  -26.8526  -30.8267   22.0076 H   0  0  0  0  0  0
  -28.1233  -28.9210   21.2014 H   0  0  0  0  0  0
  -25.9192  -25.9151   19.0031 H   0  0  0  0  0  0
  -23.9633  -27.3173   19.0085 H   0  0  0  0  0  0
  -23.7692  -30.5966   19.4066 H   0  0  0  0  0  0
  -22.7634  -29.2537   19.8546 H   0  0  0  0  0  0
  -25.1300  -36.1929   25.0818 H   0  0  0  0  0  0
  -21.0004  -28.3281   24.1372 H   0  0  0  0  0  0
  -20.5683  -26.2304   23.3606 H   0  0  0  0  0  0
  -21.6649  -26.7433   22.1189 H   0  0  0  0  0  0
  -19.6919  -25.6292   21.1230 H   0  0  0  0  0  0
  -19.6696  -27.3187   20.6726 H   0  0  0  0  0  0
  -17.4209  -26.6664   21.4028 H   0  0  0  0  0  0
  -18.0352  -26.0074   22.9012 H   0  0  0  0  0  0
  -19.7947  -30.7266   24.2262 H   0  0  0  0  0  0
  -17.5029  -31.6271   24.5157 H   0  0  0  0  0  0
  -15.5367  -30.2982   23.7656 H   0  0  0  0  0  0
  -15.8685  -28.0818   22.7065 H   0  0  0  0  0  0
  -24.5932  -30.7026   25.7743 H   0  0  0  0  0  0
  -24.8857  -32.2857   26.4816 H   0  0  0  0  0  0
  -25.8019  -30.8915   27.0228 H   0  0  0  0  0  0
  -26.2910  -29.6747   24.1215 H   0  0  0  0  0  0
  -27.4077  -29.7269   25.4668 H   0  0  0  0  0  0
  -27.8775  -30.4308   23.9379 H   0  0  0  0  0  0
  -27.2741  -33.3641   26.2017 H   0  0  0  0  0  0
  -28.3901  -32.6803   25.0289 H   0  0  0  0  0  0
  -28.0743  -31.8443   26.5407 H   0  0  0  0  0  0
  -28.2599  -38.0089   24.7521 H   0  0  0  0  0  0
  -28.1079  -36.2616   24.6302 H   0  0  0  0  0  0
  -27.2297  -37.1443   25.8876 H   0  0  0  0  0  0
  -20.9392  -29.8783   21.6876 H   0  0  0  0  0  0
  -26.0179  -38.2844   24.1424 H   0  0  0  0  0  0
  -29.2996  -20.8466   22.6889 H   0  0  0  0  0  0
  -29.7631  -18.3180   19.2299 H   0  0  0  0  0  0
  -30.4344  -19.6286   26.2845 H   0  0  0  0  0  0
  -30.9823  -20.3455   24.7723 H   0  0  0  0  0  0
  -31.3413  -18.6568   25.1282 H   0  0  0  0  0  0
  -28.1609  -14.8179   24.3260 H   0  0  0  0  0  0
  -27.6121  -15.5735   22.8316 H   0  0  0  0  0  0
  -27.5849  -16.4784   24.3293 H   0  0  0  0  0  0
  -30.4785  -24.9594   21.4793 H   0  0  0  0  0  0
  -30.8227  -23.2403   21.6231 H   0  0  0  0  0  0
  -29.4412  -23.9362   22.4657 H   0  0  0  0  0  0
  -28.8366  -18.1701   25.0861 H   0  0  0  0  0  0
  -28.5383  -19.8156   24.6797 H   0  0  0  0  0  0
  -30.0956  -16.4682   24.4188 H   0  0  0  0  0  0
  -30.1837  -15.4039   23.0919 H   0  0  0  0  0  0
  -27.5460  -24.6443   19.2053 H   0  0  0  0  0  0
  -27.2623  -24.6911   20.9243 H   0  0  0  0  0  0
  -27.8039  -22.0896   19.6415 H   0  0  0  0  0  0
  -28.0903  -22.0087   21.3238 H   0  0  0  0  0  0
  -29.7726  -23.7730   19.4342 H   0  0  0  0  0  0
  -28.7426  -15.5075   20.5454 H   0  0  0  0  0  0
  1 25  1  0  0  0
  1 30  2  0  0  0
  1 85  1  0  0  0
  2  3  1  0  0  0
  2 25  1  0  0  0
  2 87  1  0  0  0
  2 88  1  0  0  0
  3  4  1  0  0  0
  3 89  1  0  0  0
  3 90  1  0  0  0
  4  5  1  0  0  0
  4 91  1  0  0  0
  4 92  1  0  0  0
  5  6  1  0  0  0
  5 26  1  0  0  0
  5 93  1  0  0  0
  6 25  1  0  0  0
  6 94  1  0  0  0
  6 95  1  0  0  0
  7  8  2  0  0  0
  7 26  1  0  0  0
  7 29  1  0  0  0
  8  9  1  0  0  0
  8 22  1  0  0  0
  9 10  1  0  0  0
  9 27  2  0  0  0
 10 11  2  0  0  0
 10 15  1  0  0  0
 11 12  1  0  0  0
 11 96  1  0  0  0
 12 13  2  0  0  0
 12 97  1  0  0  0
 13 14  1  0  0  0
 13 31  1  0  0  0
 14 15  2  0  0  0
 14 98  1  0  0  0
 15 99  1  0  0  0
 16 17  2  0  0  0
 16 21  1  0  0  0
 16 31  1  0  0  0
 17 18  1  0  0  0
 17100  1  0  0  0
 18 19  2  0  0  0
 18101  1  0  0  0
 19 20  1  0  0  0
 19 24  1  0  0  0
 20 21  2  0  0  0
 20102  1  0  0  0
 21 23  1  0  0  0
 22 28  1  0  0  0
 22 32  2  0  0  0
 26 27  1  0  0  0
 28103  1  0  0  0
 28104  1  0  0  0
 29105  1  0  0  0
 29106  1  0  0  0
 33 34  1  0  0  0
 33 66  1  0  0  0
 33 70  2  0  0  0
 34 36  1  0  0  0
 34 59  1  0  0  0
 34107  1  0  0  0
 35 44  2  0  0  0
 35 45  1  0  0  0
 35 68  1  0  0  0
 36 56  1  0  0  0
 36108  1  0  0  0
 37 39  1  0  0  0
 37 47  1  0  0  0
 37 66  1  0  0  0
 37109  1  0  0  0
 38 43  2  0  0  0
 38 46  1  0  0  0
 38 47  1  0  0  0
 39 64  1  0  0  0
 39 67  2  0  0  0
 40 52  1  0  0  0
 40 53  2  0  0  0
 40 58  1  0  0  0
 41110  1  0  0  0
 41111  1  0  0  0
 41112  1  0  0  0
 41 48  1  0  0  0
 42 43  1  0  0  0
 42 66  1  0  0  0
 42113  1  0  0  0
 42114  1  0  0  0
 43 44  1  0  0  0
 44115  1  0  0  0
 45 46  2  0  0  0
 45116  1  0  0  0
 46117  1  0  0  0
 47118  1  0  0  0
 47119  1  0  0  0
 48 56  1  0  0  0
 48 65  1  0  0  0
 48120  1  0  0  0
 49 50  1  0  0  0
 49 53  1  0  0  0
 49 64  1  0  0  0
 49121  1  0  0  0
 50 51  1  0  0  0
 50122  1  0  0  0
 50123  1  0  0  0
 51 52  1  0  0  0
 51124  1  0  0  0
 51125  1  0  0  0
 52126  1  0  0  0
 52127  1  0  0  0
 53 54  1  0  0  0
 54 55  2  0  0  0
 54128  1  0  0  0
 55 57  1  0  0  0
 55129  1  0  0  0
 56 69  2  0  0  0
 57 58  2  0  0  0
 57130  1  0  0  0
 58131  1  0  0  0
 59 60  1  0  0  0
 59 61  1  0  0  0
 59 62  1  0  0  0
 60132  1  0  0  0
 60133  1  0  0  0
 60134  1  0  0  0
 61135  1  0  0  0
 61136  1  0  0  0
 61137  1  0  0  0
 62138  1  0  0  0
 62139  1  0  0  0
 62140  1  0  0  0
 63 65  1  0  0  0
 63141  1  0  0  0
 63142  1  0  0  0
 63143  1  0  0  0
 64144  1  0  0  0
 65145  1  0  0  0
 68 82  1  0  0  0
 71 73  2  0  0  0
 71 76  1  0  0  0
 71146  1  0  0  0
 72 75  1  0  0  0
 72 76  2  0  0  0
 72147  1  0  0  0
 73 74  1  0  0  0
 73 80  1  0  0  0
 74 75  2  0  0  0
 74 81  1  0  0  0
 75 85  1  0  0  0
 76 86  1  0  0  0
 77 80  1  0  0  0
 77148  1  0  0  0
 77149  1  0  0  0
 77150  1  0  0  0
 78 81  1  0  0  0
 78151  1  0  0  0
 78152  1  0  0  0
 78153  1  0  0  0
 79154  1  0  0  0
 79155  1  0  0  0
 79156  1  0  0  0
 79 84  1  0  0  0
 80157  1  0  0  0
 80158  1  0  0  0
 81159  1  0  0  0
 81160  1  0  0  0
 82 84  1  0  0  0
 82161  1  0  0  0
 82162  1  0  0  0
 83 84  1  0  0  0
 83 86  1  0  0  0
 83163  1  0  0  0
 83164  1  0  0  0
 84165  1  0  0  0
 85166  1  0  0  0
M  ISO  4   1 100  68 101  82 101  85 100
M  END
> <chiral flag>
0

> <version>
0

> <s_m_source_file>
/data/baiqing/PycharmProjects/Reinvent-master-3.2/result/LINK_invent/BTK/process_docking_weight1_custom_product_contain_oxygen_bond_distance_aromatic_linkinvent_7_9_3/rearranged_h_0138.sdf

> <i_m_source_file_index>
1

> <r_mmod_Potential_Energy-OPLS-2005>
248.35563659668

> <r_mmod_Stretch_Energy-OPLS-2005>
135.205001831055

> <r_mmod_Bend_Energy-OPLS-2005>
184.003082275391

> <r_mmod_Torsional_Energy-OPLS-2005>
268.027404785156

> <r_mmod_Improper_Torsional_Energy-OPLS-2005>
10.5334300994873

> <r_mmod_Van_der_Waal_Energy-OPLS-2005>
138.085006713867

> <r_mmod_Electrostatic_Energy-OPLS-2005>
-373.858917236328

> <r_mmod_Solvation_Energy-OPLS-2005>
-206.044219970703

> <b_mmod_Minimization_Converged-OPLS-2005>
0

> <r_mmod_RMS_Derivative-OPLS-2005>
2.02176284790039

$$$$
1
                    3D
 Structure written by MMmdl.
159168  0  0  1  0            999 V2000
  -30.6708  -14.5116   20.5651 C   0  0  0  0  0  0
  -30.4309  -12.3271   19.4303 C   0  0  0  0  0  0
  -29.4999  -12.5081   18.2118 C   0  0  0  0  0  0
  -28.0217  -12.3594   18.6229 C   0  0  0  0  0  0
  -27.6638  -13.2059   19.8734 C   0  0  2  0  0  0
  -28.7026  -12.9907   20.9974 C   0  0  0  0  0  0
  -25.2600  -13.8166   20.5661 C   0  0  0  0  0  0
  -24.1846  -13.0447   20.9155 C   0  0  0  0  0  0
  -24.6402  -11.6916   20.8723 C   0  0  0  0  0  0
  -23.9068  -10.4303   21.0405 C   0  0  0  0  0  0
  -24.3626   -9.4219   21.9182 C   0  0  0  0  0  0
  -23.6305   -8.2249   22.0751 C   0  0  0  0  0  0
  -22.4286   -8.0286   21.3542 C   0  0  0  0  0  0
  -21.9918   -9.0263   20.4648 C   0  0  0  0  0  0
  -22.7241  -10.2145   20.3059 C   0  0  0  0  0  0
  -21.6855   -6.0744   22.5278 C   0  0  0  0  0  0
  -21.4009   -6.5643   23.8213 C   0  0  0  0  0  0
  -21.3654   -5.6787   24.9170 C   0  0  0  0  0  0
  -21.6050   -4.3053   24.7218 C   0  0  0  0  0  0
  -21.8816   -3.8152   23.4335 C   0  0  0  0  0  0
  -21.9190   -4.6972   22.3396 C   0  0  0  0  0  0
  -22.7866  -13.5249   21.1813 C   0  0  0  0  0  0
  -22.1661   -4.2159   21.0973 F   0  0  0  0  0  0
  -21.5637   -3.4538   25.7728 F   0  0  0  0  0  0
  -30.0351  -13.3096   20.4550 N   0  0  0  0  0  0
  -26.3037  -12.9333   20.3348 N   0  0  0  0  0  0
  -25.9330  -11.6495   20.5759 N   0  0  0  0  0  0
  -22.0503  -12.8261   22.0382 N   0  0  0  0  0  0
  -25.4343  -15.1881   20.4077 N   0  0  0  0  0  0
  -31.7792  -14.7244   20.0621 O   0  0  0  0  0  0
  -21.6643   -6.8891   21.4242 O   0  0  0  0  0  0
  -22.3547  -14.5549   20.6644 O   0  0  0  0  0  0
  -24.6199  -31.8637   23.2068 C   0  0  0  0  0  0
  -25.9078  -32.4796   23.8372 C   0  0  1  0  0  0
  -27.2359  -27.4002   20.0856 C   0  0  0  0  0  0
  -25.5914  -33.8595   24.2303 N   0  0  0  0  0  0
  -23.4103  -30.4871   21.5469 C   0  0  2  0  0  0
  -24.8570  -28.9503   20.1083 C   0  0  0  0  0  0
  -22.7443  -29.4639   22.4959 C   0  0  0  0  0  0
  -18.0284  -28.1377   22.8490 C   0  0  0  0  0  0
  -24.1487  -36.7302   23.2639 C   0  0  0  0  0  0
  -25.9439  -30.8159   21.3678 C   0  0  0  0  0  0
  -26.0199  -29.4493   20.7092 C   0  0  0  0  0  0
  -27.2115  -28.6799   20.6988 C   0  0  0  0  0  0
  -26.0502  -26.9220   19.4854 C   0  0  0  0  0  0
  -24.8683  -27.6863   19.4932 C   0  0  0  0  0  0
  -23.6201  -29.8199   20.1614 C   0  0  0  0  0  0
  -25.4110  -36.3092   24.0334 C   0  0  1  0  0  0
  -20.5876  -28.3668   23.1303 C   0  0  2  0  0  0
  -20.6766  -26.9394   22.5416 C   0  0  0  0  0  0
  -19.5744  -26.6381   21.5210 C   0  0  0  0  0  0
  -18.1925  -26.7924   22.1622 C   0  0  0  0  0  0
  -19.1534  -28.8840   23.2896 C   0  0  0  0  0  0
  -18.9456  -30.1445   23.8905 C   0  0  0  0  0  0
  -17.6458  -30.6582   24.0558 C   0  0  0  0  0  0
  -25.9041  -34.9461   23.5118 C   0  0  0  0  0  0
  -16.5350  -29.9077   23.6323 C   0  0  0  0  0  0
  -16.7274  -28.6493   23.0348 C   0  0  0  0  0  0
  -26.4487  -31.6595   25.0720 C   0  0  0  0  0  0
  -25.3744  -31.3713   26.1466 C   0  0  0  0  0  0
  -27.0318  -30.3029   24.6131 C   0  0  0  0  0  0
  -27.6058  -32.4320   25.7477 C   0  0  0  0  0  0
  -27.5581  -37.1807   24.8465 C   0  0  0  0  0  0
  -21.4165  -29.3032   22.3704 N   0  0  0  0  0  0
  -26.4296  -37.3784   23.9405 N   0  0  0  0  0  0
  -24.6761  -31.0711   22.0980 N   0  0  0  0  0  0
  -23.4200  -28.8177   23.3015 O   0  0  0  0  0  0
  -28.3642  -26.5966   20.1353 O   0  0  0  0  0  0
  -26.5601  -34.8925   22.4680 O   0  0  0  0  0  0
  -23.5385  -32.1401   23.7450 O   0  0  0  0  0  0
  -30.2457  -19.1992   21.7755 C   0  0  0  0  0  0
  -30.2456  -17.8038   22.0100 C   0  0  0  0  0  0
  -29.7522  -17.4424   19.6819 C   0  0  0  0  0  0
  -30.0032  -19.7800   20.4970 C   0  0  0  0  0  0
  -29.7152  -18.8463   19.4419 C   0  0  0  0  0  0
  -30.0328  -16.8987   20.9538 C   0  0  0  0  0  0
  -28.9566  -24.4878   19.0187 C   0  0  0  0  0  0
  -28.6746  -25.8183   19.0398 C   0  0  0  0  0  0
  -30.2062  -21.3101   20.3894 C   0  0  0  0  0  0
  -29.3540  -23.7768   17.7656 C   0  0  0  0  0  0
  -28.9639  -23.4501   20.1393 C   0  0  0  0  0  0
  -29.9155  -22.4262   18.2172 C   0  0  0  0  0  0
  -29.3563  -19.2461   18.0264 C   0  0  0  0  0  0
  -29.4651  -22.1461   19.5961 N   0  0  0  0  0  0
  -29.9822  -15.4855   21.2021 N   0  0  0  0  0  0
  -31.0175  -21.8097   21.1777 O   0  0  0  0  0  0
  -31.4729  -12.4398   19.1256 H   0  0  0  0  0  0
  -30.3464  -11.3150   19.8301 H   0  0  0  0  0  0
  -29.7468  -11.7802   17.4379 H   0  0  0  0  0  0
  -29.6591  -13.4917   17.7664 H   0  0  0  0  0  0
  -27.8394  -11.3039   18.8287 H   0  0  0  0  0  0
  -27.3698  -12.6214   17.7884 H   0  0  0  0  0  0
  -27.7098  -14.2522   19.5705 H   0  0  0  0  0  0
  -28.6844  -11.9534   21.3351 H   0  0  0  0  0  0
  -28.4494  -13.5838   21.8763 H   0  0  0  0  0  0
  -25.2786   -9.5690   22.4738 H   0  0  0  0  0  0
  -24.0019   -7.4641   22.7467 H   0  0  0  0  0  0
  -21.0845   -8.8779   19.8961 H   0  0  0  0  0  0
  -22.3702  -10.9679   19.6160 H   0  0  0  0  0  0
  -21.1997   -7.6151   23.9715 H   0  0  0  0  0  0
  -21.1482   -6.0521   25.9072 H   0  0  0  0  0  0
  -22.0602   -2.7616   23.2825 H   0  0  0  0  0  0
  -22.4129  -11.9954   22.4821 H   0  0  0  0  0  0
  -21.1112  -13.1283   22.2553 H   0  0  0  0  0  0
  -24.6735  -15.8486   20.5255 H   0  0  0  0  0  0
  -26.2972  -15.6265   20.1103 H   0  0  0  0  0  0
  -26.7143  -32.5484   23.1123 H   0  0  0  0  0  0
  -25.0069  -33.9730   25.0451 H   0  0  0  0  0  0
  -22.7012  -31.3054   21.4067 H   0  0  0  0  0  0
  -23.3740  -35.9644   23.3318 H   0  0  0  0  0  0
  -24.3577  -36.8899   22.2050 H   0  0  0  0  0  0
  -23.7250  -37.6518   23.6641 H   0  0  0  0  0  0
  -26.0700  -31.5835   20.6032 H   0  0  0  0  0  0
  -26.8266  -30.8610   21.9937 H   0  0  0  0  0  0
  -28.1078  -29.0541   21.1736 H   0  0  0  0  0  0
  -26.0283  -25.9436   19.0262 H   0  0  0  0  0  0
  -23.9733  -27.2923   19.0312 H   0  0  0  0  0  0
  -23.7288  -30.5933   19.4004 H   0  0  0  0  0  0
  -22.7435  -29.2406   19.8667 H   0  0  0  0  0  0
  -25.1292  -36.1949   25.0825 H   0  0  0  0  0  0
  -20.9978  -28.3231   24.1420 H   0  0  0  0  0  0
  -20.5646  -26.2275   23.3609 H   0  0  0  0  0  0
  -21.6639  -26.7414   22.1222 H   0  0  0  0  0  0
  -19.6894  -25.6291   21.1234 H   0  0  0  0  0  0
  -19.6684  -27.3192   20.6740 H   0  0  0  0  0  0
  -17.4195  -26.6678   21.4020 H   0  0  0  0  0  0
  -18.0320  -26.0064   22.9014 H   0  0  0  0  0  0
  -19.7932  -30.7260   24.2275 H   0  0  0  0  0  0
  -17.5009  -31.6258   24.5163 H   0  0  0  0  0  0
  -15.5346  -30.2978   23.7644 H   0  0  0  0  0  0
  -15.8676  -28.0814   22.7057 H   0  0  0  0  0  0
  -24.5915  -30.7061   25.7805 H   0  0  0  0  0  0
  -24.8939  -32.2873   26.4915 H   0  0  0  0  0  0
  -25.8098  -30.8880   27.0222 H   0  0  0  0  0  0
  -26.2866  -29.6789   24.1186 H   0  0  0  0  0  0
  -27.4068  -29.7278   25.4607 H   0  0  0  0  0  0
  -27.8716  -30.4330   23.9300 H   0  0  0  0  0  0
  -27.2673  -33.3609   26.2081 H   0  0  0  0  0  0
  -28.3852  -32.6903   25.0292 H   0  0  0  0  0  0
  -28.0750  -31.8432   26.5370 H   0  0  0  0  0  0
  -28.2617  -38.0089   24.7503 H   0  0  0  0  0  0
  -28.1061  -36.2625   24.6303 H   0  0  0  0  0  0
  -27.2301  -37.1477   25.8870 H   0  0  0  0  0  0
  -20.9328  -29.8769   21.6936 H   0  0  0  0  0  0
  -26.0183  -38.2859   24.1401 H   0  0  0  0  0  0
  -30.4586  -19.8419   22.6189 H   0  0  0  0  0  0
  -30.4321  -17.4341   23.0085 H   0  0  0  0  0  0
  -29.5428  -16.7590   18.8693 H   0  0  0  0  0  0
  -28.7092  -26.4185   18.1398 H   0  0  0  0  0  0
  -30.0756  -24.3501   17.1815 H   0  0  0  0  0  0
  -28.4639  -23.6336   17.1504 H   0  0  0  0  0  0
  -27.9521  -23.3157   20.5227 H   0  0  0  0  0  0
  -29.5752  -23.8299   20.9598 H   0  0  0  0  0  0
  -31.0067  -22.4569   18.1913 H   0  0  0  0  0  0
  -29.6064  -21.6973   17.4812 H   0  0  0  0  0  0
  -29.0023  -18.3919   17.4471 H   0  0  0  0  0  0
  -30.2283  -19.6358   17.5024 H   0  0  0  0  0  0
  -28.5369  -19.9632   18.0288 H   0  0  0  0  0  0
  -29.1941  -15.1645   21.7456 H   0  0  0  0  0  0
  1 25  1  0  0  0
  1 30  2  0  0  0
  1 85  1  0  0  0
  2  3  1  0  0  0
  2 25  1  0  0  0
  2 87  1  0  0  0
  2 88  1  0  0  0
  3  4  1  0  0  0
  3 89  1  0  0  0
  3 90  1  0  0  0
  4  5  1  0  0  0
  4 91  1  0  0  0
  4 92  1  0  0  0
  5  6  1  0  0  0
  5 26  1  0  0  0
  5 93  1  0  0  0
  6 25  1  0  0  0
  6 94  1  0  0  0
  6 95  1  0  0  0
  7  8  2  0  0  0
  7 26  1  0  0  0
  7 29  1  0  0  0
  8  9  1  0  0  0
  8 22  1  0  0  0
  9 10  1  0  0  0
  9 27  2  0  0  0
 10 11  2  0  0  0
 10 15  1  0  0  0
 11 12  1  0  0  0
 11 96  1  0  0  0
 12 13  2  0  0  0
 12 97  1  0  0  0
 13 14  1  0  0  0
 13 31  1  0  0  0
 14 15  2  0  0  0
 14 98  1  0  0  0
 15 99  1  0  0  0
 16 17  2  0  0  0
 16 21  1  0  0  0
 16 31  1  0  0  0
 17 18  1  0  0  0
 17100  1  0  0  0
 18 19  2  0  0  0
 18101  1  0  0  0
 19 20  1  0  0  0
 19 24  1  0  0  0
 20 21  2  0  0  0
 20102  1  0  0  0
 21 23  1  0  0  0
 22 28  1  0  0  0
 22 32  2  0  0  0
 26 27  1  0  0  0
 28103  1  0  0  0
 28104  1  0  0  0
 29105  1  0  0  0
 29106  1  0  0  0
 33 34  1  0  0  0
 33 66  1  0  0  0
 33 70  2  0  0  0
 34 36  1  0  0  0
 34 59  1  0  0  0
 34107  1  0  0  0
 35 44  2  0  0  0
 35 45  1  0  0  0
 35 68  1  0  0  0
 36 56  1  0  0  0
 36108  1  0  0  0
 37 39  1  0  0  0
 37 47  1  0  0  0
 37 66  1  0  0  0
 37109  1  0  0  0
 38 43  2  0  0  0
 38 46  1  0  0  0
 38 47  1  0  0  0
 39 64  1  0  0  0
 39 67  2  0  0  0
 40 52  1  0  0  0
 40 53  2  0  0  0
 40 58  1  0  0  0
 41110  1  0  0  0
 41111  1  0  0  0
 41112  1  0  0  0
 41 48  1  0  0  0
 42 43  1  0  0  0
 42 66  1  0  0  0
 42113  1  0  0  0
 42114  1  0  0  0
 43 44  1  0  0  0
 44115  1  0  0  0
 45 46  2  0  0  0
 45116  1  0  0  0
 46117  1  0  0  0
 47118  1  0  0  0
 47119  1  0  0  0
 48 56  1  0  0  0
 48 65  1  0  0  0
 48120  1  0  0  0
 49 50  1  0  0  0
 49 53  1  0  0  0
 49 64  1  0  0  0
 49121  1  0  0  0
 50 51  1  0  0  0
 50122  1  0  0  0
 50123  1  0  0  0
 51 52  1  0  0  0
 51124  1  0  0  0
 51125  1  0  0  0
 52126  1  0  0  0
 52127  1  0  0  0
 53 54  1  0  0  0
 54 55  2  0  0  0
 54128  1  0  0  0
 55 57  1  0  0  0
 55129  1  0  0  0
 56 69  2  0  0  0
 57 58  2  0  0  0
 57130  1  0  0  0
 58131  1  0  0  0
 59 60  1  0  0  0
 59 61  1  0  0  0
 59 62  1  0  0  0
 60132  1  0  0  0
 60133  1  0  0  0
 60134  1  0  0  0
 61135  1  0  0  0
 61136  1  0  0  0
 61137  1  0  0  0
 62138  1  0  0  0
 62139  1  0  0  0
 62140  1  0  0  0
 63 65  1  0  0  0
 63141  1  0  0  0
 63142  1  0  0  0
 63143  1  0  0  0
 64144  1  0  0  0
 65145  1  0  0  0
 68 78  1  0  0  0
 71 72  2  0  0  0
 71 74  1  0  0  0
 71146  1  0  0  0
 72 76  1  0  0  0
 72147  1  0  0  0
 73 75  1  0  0  0
 73 76  2  0  0  0
 73148  1  0  0  0
 74 75  2  0  0  0
 74 79  1  0  0  0
 75 83  1  0  0  0
 76 85  1  0  0  0
 77 78  2  0  0  0
 77 80  1  0  0  0
 77 81  1  0  0  0
 78149  1  0  0  0
 79 84  1  0  0  0
 79 86  2  0  0  0
 80 82  1  0  0  0
 80150  1  0  0  0
 80151  1  0  0  0
 81 84  1  0  0  0
 81152  1  0  0  0
 81153  1  0  0  0
 82 84  1  0  0  0
 82154  1  0  0  0
 82155  1  0  0  0
 83156  1  0  0  0
 83157  1  0  0  0
 83158  1  0  0  0
 85159  1  0  0  0
M  ISO  4   1 100  68 101  78 101  85 100
M  END
> <chiral flag>
0

> <version>
0

> <s_m_source_file>
/data/baiqing/PycharmProjects/Reinvent-master-3.2/result/LINK_invent/BTK/process_docking_weight1_custom_product_contain_oxygen_bond_distance_aromatic_linkinvent_7_9_3/rearranged_h_0138.sdf

> <i_m_source_file_index>
2

> <r_mmod_Potential_Energy-OPLS-2005>
200.332412719727

> <r_mmod_Stretch_Energy-OPLS-2005>
55.3968811035156

> <r_mmod_Bend_Energy-OPLS-2005>
154.905334472656

> <r_mmod_Torsional_Energy-OPLS-2005>
346.737548828125

> <r_mmod_Improper_Torsional_Energy-OPLS-2005>
9.57115840911865

> <r_mmod_Van_der_Waal_Energy-OPLS-2005>
155.474456787109

> <r_mmod_Electrostatic_Energy-OPLS-2005>
-315.331024169922

> <r_mmod_Solvation_Energy-OPLS-2005>
-225.968811035156

> <b_mmod_Minimization_Converged-OPLS-2005>
0

> <r_mmod_RMS_Derivative-OPLS-2005>
1.46210718154907

$$$$
2
                    3D
 Structure written by MMmdl.
164174  0  0  1  0            999 V2000
  -30.5702  -14.6445   20.4843 C   0  0  0  0  0  0
  -30.4547  -12.3810   19.4414 C   0  0  0  0  0  0
  -29.5194  -12.4919   18.2148 C   0  0  0  0  0  0
  -28.0408  -12.3280   18.6293 C   0  0  0  0  0  0
  -27.6604  -13.1994   19.8577 C   0  0  2  0  0  0
  -28.7051  -13.0118   20.9818 C   0  0  0  0  0  0
  -25.2615  -13.8116   20.5650 C   0  0  0  0  0  0
  -24.1844  -13.0384   20.9170 C   0  0  0  0  0  0
  -24.6387  -11.6864   20.8686 C   0  0  0  0  0  0
  -23.9032  -10.4247   21.0390 C   0  0  0  0  0  0
  -24.3583   -9.4167   21.9184 C   0  0  0  0  0  0
  -23.6245   -8.2219   22.0764 C   0  0  0  0  0  0
  -22.4236   -8.0258   21.3553 C   0  0  0  0  0  0
  -21.9854   -9.0229   20.4661 C   0  0  0  0  0  0
  -22.7189  -10.2101   20.3048 C   0  0  0  0  0  0
  -21.6840   -6.0688   22.5270 C   0  0  0  0  0  0
  -21.4022   -6.5602   23.8208 C   0  0  0  0  0  0
  -21.3667   -5.6756   24.9181 C   0  0  0  0  0  0
  -21.6050   -4.3022   24.7240 C   0  0  0  0  0  0
  -21.8807   -3.8104   23.4366 C   0  0  0  0  0  0
  -21.9181   -4.6910   22.3411 C   0  0  0  0  0  0
  -22.7875  -13.5243   21.1794 C   0  0  0  0  0  0
  -22.1646   -4.2106   21.0991 F   0  0  0  0  0  0
  -21.5616   -3.4504   25.7761 F   0  0  0  0  0  0
  -30.0199  -13.3891   20.4287 N   0  0  0  0  0  0
  -26.3024  -12.9258   20.3259 N   0  0  0  0  0  0
  -25.9312  -11.6424   20.5678 N   0  0  0  0  0  0
  -22.0488  -12.8295   22.0393 N   0  0  0  0  0  0
  -25.4269  -15.1816   20.4042 N   0  0  0  0  0  0
  -31.7093  -14.8758   20.0670 O   0  0  0  0  0  0
  -21.6607   -6.8839   21.4244 O   0  0  0  0  0  0
  -22.3575  -14.5516   20.6581 O   0  0  0  0  0  0
  -24.6259  -31.8595   23.1991 C   0  0  0  0  0  0
  -25.9110  -32.4762   23.8368 C   0  0  1  0  0  0
  -27.1877  -27.2832   20.1895 C   0  0  0  0  0  0
  -25.5899  -33.8558   24.2271 N   0  0  0  0  0  0
  -23.4201  -30.4849   21.5376 C   0  0  2  0  0  0
  -24.8736  -28.9481   20.1007 C   0  0  0  0  0  0
  -22.7482  -29.4641   22.4869 C   0  0  0  0  0  0
  -18.0302  -28.1387   22.8484 C   0  0  0  0  0  0
  -24.1473  -36.7330   23.2653 C   0  0  0  0  0  0
  -25.9617  -30.7933   21.3708 C   0  0  0  0  0  0
  -26.0391  -29.4157   20.7227 C   0  0  0  0  0  0
  -27.2070  -28.5955   20.7604 C   0  0  0  0  0  0
  -26.0283  -26.9054   19.4820 C   0  0  0  0  0  0
  -24.8761  -27.7031   19.4584 C   0  0  0  0  0  0
  -23.6376  -29.8197   20.1518 C   0  0  0  0  0  0
  -25.4096  -36.3080   24.0321 C   0  0  1  0  0  0
  -20.5912  -28.3687   23.1252 C   0  0  2  0  0  0
  -20.6755  -26.9392   22.5409 C   0  0  0  0  0  0
  -19.5726  -26.6370   21.5205 C   0  0  0  0  0  0
  -18.1918  -26.7926   22.1625 C   0  0  0  0  0  0
  -19.1567  -28.8850   23.2877 C   0  0  0  0  0  0
  -18.9489  -30.1451   23.8886 C   0  0  0  0  0  0
  -17.6493  -30.6587   24.0575 C   0  0  0  0  0  0
  -25.9045  -34.9435   23.5100 C   0  0  0  0  0  0
  -16.5380  -29.9093   23.6335 C   0  0  0  0  0  0
  -16.7294  -28.6521   23.0340 C   0  0  0  0  0  0
  -26.4492  -31.6581   25.0731 C   0  0  0  0  0  0
  -25.3718  -31.3715   26.1464 C   0  0  0  0  0  0
  -27.0363  -30.2997   24.6210 C   0  0  0  0  0  0
  -27.6074  -32.4326   25.7463 C   0  0  0  0  0  0
  -27.5554  -37.1817   24.8452 C   0  0  0  0  0  0
  -21.4200  -29.3052   22.3638 N   0  0  0  0  0  0
  -26.4277  -37.3759   23.9387 N   0  0  0  0  0  0
  -24.6887  -31.0645   22.0910 N   0  0  0  0  0  0
  -23.4220  -28.8178   23.2951 O   0  0  0  0  0  0
  -28.1811  -26.3087   20.3958 O   0  0  0  0  0  0
  -26.5632  -34.8893   22.4685 O   0  0  0  0  0  0
  -23.5411  -32.1391   23.7297 O   0  0  0  0  0  0
  -28.3518  -18.9472   21.9901 C   0  0  0  0  0  0
  -28.6014  -17.5639   21.8071 C   0  0  0  0  0  0
  -30.2616  -18.0363   20.0944 C   0  0  0  0  0  0
  -29.0688  -19.8911   21.2302 C   0  0  0  0  0  0
  -29.9669  -19.4404   20.2605 C   0  0  0  0  0  0
  -29.5835  -17.0649   20.9120 C   0  0  0  0  0  0
  -30.5745  -20.6634   19.5540 C   0  0  0  0  0  0
  -29.6340  -23.2666   19.9350 C   0  0  0  0  0  0
  -29.1865  -21.4089   21.4878 C   0  0  1  0  0  0
  -30.2367  -21.9062   20.4746 C   0  0  1  0  0  0
  -28.6617  -23.7060   21.0712 C   0  0  1  0  0  0
  -27.0077  -25.2759   22.3076 C   0  0  0  0  0  0
  -26.9044  -22.1558   22.2154 C   0  0  0  0  0  0
  -27.6774  -24.9813   20.9153 C   0  0  1  0  0  0
  -29.7031  -15.6070   20.9219 N   0  0  0  0  0  0
  -28.0392  -22.3407   21.2821 N   0  3  2  0  0  0
  -31.4985  -12.5120   19.1443 H   0  0  0  0  0  0
  -30.4018  -11.3810   19.8759 H   0  0  0  0  0  0
  -29.7848  -11.7375   17.4733 H   0  0  0  0  0  0
  -29.6613  -13.4571   17.7278 H   0  0  0  0  0  0
  -27.8840  -11.2726   18.8613 H   0  0  0  0  0  0
  -27.3877  -12.5507   17.7863 H   0  0  0  0  0  0
  -27.6874  -14.2370   19.5254 H   0  0  0  0  0  0
  -28.7313  -11.9703   21.3078 H   0  0  0  0  0  0
  -28.4476  -13.5831   21.8734 H   0  0  0  0  0  0
  -25.2751   -9.5594   22.4729 H   0  0  0  0  0  0
  -23.9918   -7.4603   22.7488 H   0  0  0  0  0  0
  -21.0773   -8.8753   19.8988 H   0  0  0  0  0  0
  -22.3678  -10.9619   19.6109 H   0  0  0  0  0  0
  -21.2034   -7.6118   23.9706 H   0  0  0  0  0  0
  -21.1496   -6.0502   25.9089 H   0  0  0  0  0  0
  -22.0577   -2.7570   23.2878 H   0  0  0  0  0  0
  -22.4079  -12.0029   22.4906 H   0  0  0  0  0  0
  -21.1093  -13.1359   22.2504 H   0  0  0  0  0  0
  -24.6391  -15.8158   20.4834 H   0  0  0  0  0  0
  -26.2590  -15.6295   20.0372 H   0  0  0  0  0  0
  -26.7195  -32.5455   23.1155 H   0  0  0  0  0  0
  -24.9926  -33.9707   25.0327 H   0  0  0  0  0  0
  -22.7112  -31.3021   21.3910 H   0  0  0  0  0  0
  -23.3679  -35.9732   23.3340 H   0  0  0  0  0  0
  -24.3519  -36.8918   22.2055 H   0  0  0  0  0  0
  -23.7320  -37.6574   23.6670 H   0  0  0  0  0  0
  -26.0852  -31.5482   20.5929 H   0  0  0  0  0  0
  -26.8441  -30.8567   21.9953 H   0  0  0  0  0  0
  -28.0806  -28.9354   21.3017 H   0  0  0  0  0  0
  -25.9710  -25.9509   18.9843 H   0  0  0  0  0  0
  -23.9955  -27.3377   18.9509 H   0  0  0  0  0  0
  -23.7424  -30.5893   19.3870 H   0  0  0  0  0  0
  -22.7632  -29.2365   19.8578 H   0  0  0  0  0  0
  -25.1289  -36.1928   25.0813 H   0  0  0  0  0  0
  -21.0037  -28.3278   24.1360 H   0  0  0  0  0  0
  -20.5568  -26.2313   23.3625 H   0  0  0  0  0  0
  -21.6630  -26.7349   22.1259 H   0  0  0  0  0  0
  -19.6858  -25.6274   21.1236 H   0  0  0  0  0  0
  -19.6650  -27.3174   20.6720 H   0  0  0  0  0  0
  -17.4173  -26.6677   21.4045 H   0  0  0  0  0  0
  -18.0321  -26.0087   22.9032 H   0  0  0  0  0  0
  -19.7985  -30.7272   24.2212 H   0  0  0  0  0  0
  -17.5068  -31.6245   24.5210 H   0  0  0  0  0  0
  -15.5385  -30.2991   23.7647 H   0  0  0  0  0  0
  -15.8701  -28.0835   22.7014 H   0  0  0  0  0  0
  -24.5865  -30.7079   25.7820 H   0  0  0  0  0  0
  -24.8897  -32.2888   26.4855 H   0  0  0  0  0  0
  -25.8029  -30.8948   27.0291 H   0  0  0  0  0  0
  -26.2943  -29.6665   24.1314 H   0  0  0  0  0  0
  -27.4165  -29.7324   25.4716 H   0  0  0  0  0  0
  -27.8762  -30.4290   23.9380 H   0  0  0  0  0  0
  -27.2683  -33.3559   26.2172 H   0  0  0  0  0  0
  -28.3810  -32.6954   25.0246 H   0  0  0  0  0  0
  -28.0882  -31.8405   26.5249 H   0  0  0  0  0  0
  -28.2624  -38.0060   24.7412 H   0  0  0  0  0  0
  -28.0991  -36.2591   24.6369 H   0  0  0  0  0  0
  -27.2275  -37.1568   25.8860 H   0  0  0  0  0  0
  -20.9324  -29.8834   21.6926 H   0  0  0  0  0  0
  -26.0140  -38.2840   24.1334 H   0  0  0  0  0  0
  -27.6488  -19.2506   22.7525 H   0  0  0  0  0  0
  -28.0402  -16.8696   22.4181 H   0  0  0  0  0  0
  -30.9981  -17.7167   19.3688 H   0  0  0  0  0  0
  -30.1193  -20.7578   18.5667 H   0  0  0  0  0  0
  -31.6498  -20.5428   19.4085 H   0  0  0  0  0  0
  -29.0641  -23.1210   19.0153 H   0  0  0  0  0  0
  -30.4024  -24.0113   19.7218 H   0  0  0  0  0  0
  -29.5665  -21.5481   22.4994 H   0  0  0  0  0  0
  -31.1397  -22.1361   21.0404 H   0  0  0  0  0  0
  -29.2935  -23.9340   21.9337 H   0  0  0  0  0  0
  -26.4198  -26.1916   22.3424 H   0  0  0  0  0  0
  -27.7544  -25.3402   23.1014 H   0  0  0  0  0  0
  -26.2778  -24.5377   22.6259 H   0  0  0  0  0  0
  -26.6270  -21.1068   22.2921 H   0  0  0  0  0  0
  -26.0175  -22.6433   21.8081 H   0  0  0  0  0  0
  -27.1028  -22.5245   23.2221 H   0  0  0  0  0  0
  -26.9085  -24.6099   20.2448 H   0  0  0  0  0  0
  -28.9026  -15.1562   21.3417 H   0  0  0  0  0  0
  -27.6658  -22.1018   20.3767 H   0  0  0  0  0  0
  1 25  1  0  0  0
  1 30  2  0  0  0
  1 85  1  0  0  0
  2  3  1  0  0  0
  2 25  1  0  0  0
  2 87  1  0  0  0
  2 88  1  0  0  0
  3  4  1  0  0  0
  3 89  1  0  0  0
  3 90  1  0  0  0
  4  5  1  0  0  0
  4 91  1  0  0  0
  4 92  1  0  0  0
  5  6  1  0  0  0
  5 26  1  0  0  0
  5 93  1  0  0  0
  6 25  1  0  0  0
  6 94  1  0  0  0
  6 95  1  0  0  0
  7  8  2  0  0  0
  7 26  1  0  0  0
  7 29  1  0  0  0
  8  9  1  0  0  0
  8 22  1  0  0  0
  9 10  1  0  0  0
  9 27  2  0  0  0
 10 11  2  0  0  0
 10 15  1  0  0  0
 11 12  1  0  0  0
 11 96  1  0  0  0
 12 13  2  0  0  0
 12 97  1  0  0  0
 13 14  1  0  0  0
 13 31  1  0  0  0
 14 15  2  0  0  0
 14 98  1  0  0  0
 15 99  1  0  0  0
 16 17  2  0  0  0
 16 21  1  0  0  0
 16 31  1  0  0  0
 17 18  1  0  0  0
 17100  1  0  0  0
 18 19  2  0  0  0
 18101  1  0  0  0
 19 20  1  0  0  0
 19 24  1  0  0  0
 20 21  2  0  0  0
 20102  1  0  0  0
 21 23  1  0  0  0
 22 28  1  0  0  0
 22 32  2  0  0  0
 26 27  1  0  0  0
 28103  1  0  0  0
 28104  1  0  0  0
 29105  1  0  0  0
 29106  1  0  0  0
 33 34  1  0  0  0
 33 66  1  0  0  0
 33 70  2  0  0  0
 34 36  1  0  0  0
 34 59  1  0  0  0
 34107  1  0  0  0
 35 44  2  0  0  0
 35 45  1  0  0  0
 35 68  1  0  0  0
 36 56  1  0  0  0
 36108  1  0  0  0
 37 39  1  0  0  0
 37 47  1  0  0  0
 37 66  1  0  0  0
 37109  1  0  0  0
 38 43  2  0  0  0
 38 46  1  0  0  0
 38 47  1  0  0  0
 39 64  1  0  0  0
 39 67  2  0  0  0
 40 52  1  0  0  0
 40 53  2  0  0  0
 40 58  1  0  0  0
 41110  1  0  0  0
 41111  1  0  0  0
 41112  1  0  0  0
 41 48  1  0  0  0
 42 43  1  0  0  0
 42 66  1  0  0  0
 42113  1  0  0  0
 42114  1  0  0  0
 43 44  1  0  0  0
 44115  1  0  0  0
 45 46  2  0  0  0
 45116  1  0  0  0
 46117  1  0  0  0
 47118  1  0  0  0
 47119  1  0  0  0
 48 56  1  0  0  0
 48 65  1  0  0  0
 48120  1  0  0  0
 49 50  1  0  0  0
 49 53  1  0  0  0
 49 64  1  0  0  0
 49121  1  0  0  0
 50 51  1  0  0  0
 50122  1  0  0  0
 50123  1  0  0  0
 51 52  1  0  0  0
 51124  1  0  0  0
 51125  1  0  0  0
 52126  1  0  0  0
 52127  1  0  0  0
 53 54  1  0  0  0
 54 55  2  0  0  0
 54128  1  0  0  0
 55 57  1  0  0  0
 55129  1  0  0  0
 56 69  2  0  0  0
 57 58  2  0  0  0
 57130  1  0  0  0
 58131  1  0  0  0
 59 60  1  0  0  0
 59 61  1  0  0  0
 59 62  1  0  0  0
 60132  1  0  0  0
 60133  1  0  0  0
 60134  1  0  0  0
 61135  1  0  0  0
 61136  1  0  0  0
 61137  1  0  0  0
 62138  1  0  0  0
 62139  1  0  0  0
 62140  1  0  0  0
 63 65  1  0  0  0
 63141  1  0  0  0
 63142  1  0  0  0
 63143  1  0  0  0
 64144  1  0  0  0
 65145  1  0  0  0
 68 84  1  0  0  0
 71 72  2  0  0  0
 71 74  1  0  0  0
 71146  1  0  0  0
 72 76  1  0  0  0
 72147  1  0  0  0
 73 75  1  0  0  0
 73 76  2  0  0  0
 73148  1  0  0  0
 74 75  2  0  0  0
 74 79  1  0  0  0
 75 77  1  0  0  0
 76 85  1  0  0  0
 77149  1  0  0  0
 77150  1  0  0  0
 77 80  1  0  0  0
 78 80  1  0  0  0
 78151  1  0  0  0
 78152  1  0  0  0
 78 81  1  0  0  0
 79 80  1  0  0  0
 79 86  1  0  0  0
 79153  1  0  0  0
 80154  1  0  0  0
 81 84  1  0  0  0
 81 86  1  0  0  0
 81155  1  0  0  0
 82156  1  0  0  0
 82157  1  0  0  0
 82158  1  0  0  0
 82 84  1  0  0  0
 83159  1  0  0  0
 83160  1  0  0  0
 83161  1  0  0  0
 83 86  1  0  0  0
 84162  1  0  0  0
 85163  1  0  0  0
 86164  1  0  0  0
M  CHG  1  86   1
M  ISO  4   1 100  68 101  84 101  85 100
M  END
> <chiral flag>
0

> <version>
0

> <s_m_source_file>
/data/baiqing/PycharmProjects/Reinvent-master-3.2/result/LINK_invent/BTK/process_docking_weight1_custom_product_contain_oxygen_bond_distance_aromatic_linkinvent_7_9_3/rearranged_h_0138.sdf

> <i_m_source_file_index>
3

> <r_mmod_Potential_Energy-OPLS-2005>
222.958938598633

> <r_mmod_Stretch_Energy-OPLS-2005>
94.0926818847656

> <r_mmod_Bend_Energy-OPLS-2005>
284.671020507812

> <r_mmod_Torsional_Energy-OPLS-2005>
297.235260009766

> <r_mmod_Improper_Torsional_Energy-OPLS-2005>
5.61163997650146

> <r_mmod_Van_der_Waal_Energy-OPLS-2005>
146.439086914062

> <r_mmod_Electrostatic_Energy-OPLS-2005>
-265.594635009766

> <r_mmod_Solvation_Energy-OPLS-2005>
-422.979583740234

> <b_mmod_Minimization_Converged-OPLS-2005>
0

> <r_mmod_RMS_Derivative-OPLS-2005>
7.41035318374634

$$$$
3
                    3D
 Structure written by MMmdl.
165173  0  0  1  0            999 V2000
  -30.6515  -14.6538   20.5763 C   0  0  0  0  0  0
  -30.4405  -12.4276   19.4621 C   0  0  0  0  0  0
  -29.5025  -12.5116   18.2343 C   0  0  0  0  0  0
  -28.0293  -12.3370   18.6466 C   0  0  0  0  0  0
  -27.6462  -13.2169   19.8621 C   0  0  2  0  0  0
  -28.6840  -13.0598   20.9939 C   0  0  0  0  0  0
  -25.2375  -13.8055   20.5377 C   0  0  0  0  0  0
  -24.1723  -13.0321   20.9182 C   0  0  0  0  0  0
  -24.6371  -11.6857   20.8789 C   0  0  0  0  0  0
  -23.9059  -10.4228   21.0454 C   0  0  0  0  0  0
  -24.3580   -9.4134   21.9237 C   0  0  0  0  0  0
  -23.6239   -8.2174   22.0782 C   0  0  0  0  0  0
  -22.4247   -8.0211   21.3538 C   0  0  0  0  0  0
  -21.9890   -9.0218   20.4650 C   0  0  0  0  0  0
  -22.7239  -10.2084   20.3085 C   0  0  0  0  0  0
  -21.6830   -6.0693   22.5270 C   0  0  0  0  0  0
  -21.3980   -6.5589   23.8197 C   0  0  0  0  0  0
  -21.3653   -5.6757   24.9149 C   0  0  0  0  0  0
  -21.6052   -4.3023   24.7217 C   0  0  0  0  0  0
  -21.8804   -3.8121   23.4328 C   0  0  0  0  0  0
  -21.9165   -4.6929   22.3379 C   0  0  0  0  0  0
  -22.7758  -13.5146   21.1839 C   0  0  0  0  0  0
  -22.1656   -4.2117   21.0960 F   0  0  0  0  0  0
  -21.5630   -3.4510   25.7737 F   0  0  0  0  0  0
  -30.0086  -13.4334   20.4616 N   0  0  0  0  0  0
  -26.2900  -12.9316   20.3259 N   0  0  0  0  0  0
  -25.9296  -11.6494   20.5841 N   0  0  0  0  0  0
  -22.0440  -12.8148   22.0470 N   0  0  0  0  0  0
  -25.3750  -15.1640   20.3088 N   0  0  0  0  0  0
  -31.7347  -14.8507   20.0157 O   0  0  0  0  0  0
  -21.6585   -6.8830   21.4238 O   0  0  0  0  0  0
  -22.3441  -14.5443   20.6691 O   0  0  0  0  0  0
  -24.6228  -31.8597   23.2069 C   0  0  0  0  0  0
  -25.9064  -32.4795   23.8430 C   0  0  1  0  0  0
  -27.2552  -27.3679   20.1251 C   0  0  0  0  0  0
  -25.5930  -33.8598   24.2343 N   0  0  0  0  0  0
  -23.4177  -30.4796   21.5461 C   0  0  2  0  0  0
  -24.8706  -28.9279   20.1218 C   0  0  0  0  0  0
  -22.7437  -29.4653   22.4992 C   0  0  0  0  0  0
  -18.0255  -28.1416   22.8514 C   0  0  0  0  0  0
  -24.1436  -36.7218   23.2682 C   0  0  0  0  0  0
  -25.9528  -30.8026   21.3718 C   0  0  0  0  0  0
  -26.0341  -29.4346   20.7186 C   0  0  0  0  0  0
  -27.2310  -28.6667   20.7003 C   0  0  0  0  0  0
  -26.0731  -26.8973   19.5173 C   0  0  0  0  0  0
  -24.8882  -27.6608   19.5162 C   0  0  0  0  0  0
  -23.6348  -29.8026   20.1677 C   0  0  0  0  0  0
  -25.4077  -36.3074   24.0372 C   0  0  1  0  0  0
  -20.5849  -28.3731   23.1269 C   0  0  2  0  0  0
  -20.6793  -26.9469   22.5391 C   0  0  0  0  0  0
  -19.5758  -26.6399   21.5228 C   0  0  0  0  0  0
  -18.1907  -26.7975   22.1594 C   0  0  0  0  0  0
  -19.1509  -28.8893   23.2881 C   0  0  0  0  0  0
  -18.9480  -30.1510   23.8914 C   0  0  0  0  0  0
  -17.6486  -30.6646   24.0583 C   0  0  0  0  0  0
  -25.9010  -34.9440   23.5151 C   0  0  0  0  0  0
  -16.5365  -29.9136   23.6413 C   0  0  0  0  0  0
  -16.7256  -28.6550   23.0426 C   0  0  0  0  0  0
  -26.4479  -31.6648   25.0810 C   0  0  0  0  0  0
  -25.3776  -31.3604   26.1576 C   0  0  0  0  0  0
  -27.0436  -30.3143   24.6198 C   0  0  0  0  0  0
  -27.6011  -32.4504   25.7533 C   0  0  0  0  0  0
  -27.5545  -37.1735   24.8500 C   0  0  0  0  0  0
  -21.4168  -29.3078   22.3705 N   0  0  0  0  0  0
  -26.4234  -37.3795   23.9501 N   0  0  0  0  0  0
  -24.6832  -31.0630   22.1012 N   0  0  0  0  0  0
  -23.4143  -28.8205   23.3087 O   0  0  0  0  0  0
  -28.4080  -26.5789   20.1354 O   0  0  0  0  0  0
  -26.5528  -34.8909   22.4676 O   0  0  0  0  0  0
  -23.5378  -32.1407   23.7397 O   0  0  0  0  0  0
  -30.7577  -18.0765   20.4722 C   0  0  0  0  0  0
  -30.5336  -19.4487   20.1431 C   0  0  0  0  0  0
  -28.2379  -19.2356   20.7782 C   0  0  0  0  0  0
  -29.7395  -17.2233   20.9837 C   0  0  0  0  0  0
  -28.4643  -17.8754   21.1611 C   0  0  0  0  0  0
  -29.2649  -20.0688   20.2821 C   0  0  0  0  0  0
  -30.0364  -15.7839   21.4929 C   0  0  0  0  0  0
  -27.1358  -17.5338   23.2990 C   0  0  0  0  0  0
  -30.5377  -24.2485   19.9400 C   0  0  0  0  0  0
  -28.4404  -24.0386   18.5469 C   0  0  0  0  0  0
  -27.2839  -17.1712   21.8154 C   0  0  0  0  0  0
  -28.6802  -22.5913   20.6701 C   0  0  0  0  0  0
  -28.3167  -25.2486   20.7506 C   0  0  0  0  0  0
  -28.9958  -24.0238   19.9907 C   0  0  0  0  0  0
  -29.8161  -15.5321   22.7153 N   0  0  0  0  0  0
  -29.0205  -21.4038   19.8145 N   0  0  0  0  0  0
  -31.4745  -12.5698   19.1436 H   0  0  0  0  0  0
  -30.4139  -11.4318   19.9047 H   0  0  0  0  0  0
  -29.7752  -11.7481   17.5032 H   0  0  0  0  0  0
  -29.6342  -13.4722   17.7344 H   0  0  0  0  0  0
  -27.8810  -11.2866   18.9011 H   0  0  0  0  0  0
  -27.3680  -12.5423   17.8041 H   0  0  0  0  0  0
  -27.6671  -14.2552   19.5307 H   0  0  0  0  0  0
  -28.7047  -12.0266   21.3421 H   0  0  0  0  0  0
  -28.3762  -13.6426   21.8592 H   0  0  0  0  0  0
  -25.2708   -9.5567   22.4820 H   0  0  0  0  0  0
  -23.9918   -7.4562   22.7498 H   0  0  0  0  0  0
  -21.0812   -8.8731   19.8948 H   0  0  0  0  0  0
  -22.3724  -10.9613   19.6166 H   0  0  0  0  0  0
  -21.1981   -7.6103   23.9696 H   0  0  0  0  0  0
  -21.1486   -6.0477   25.9056 H   0  0  0  0  0  0
  -22.0591   -2.7579   23.2837 H   0  0  0  0  0  0
  -22.4075  -11.9802   22.4836 H   0  0  0  0  0  0
  -21.1065  -13.1199   22.2744 H   0  0  0  0  0  0
  -24.5518  -15.7539   20.2747 H   0  0  0  0  0  0
  -26.1459  -15.5396   19.7722 H   0  0  0  0  0  0
  -26.7168  -32.5455   23.1226 H   0  0  0  0  0  0
  -25.0503  -33.9816   25.0758 H   0  0  0  0  0  0
  -22.7119  -31.2986   21.3872 H   0  0  0  0  0  0
  -23.3757  -35.9470   23.3301 H   0  0  0  0  0  0
  -24.3547  -36.8884   22.2108 H   0  0  0  0  0  0
  -23.7072  -37.6365   23.6721 H   0  0  0  0  0  0
  -26.0670  -31.5625   20.5965 H   0  0  0  0  0  0
  -26.8422  -30.8566   21.9899 H   0  0  0  0  0  0
  -28.1291  -29.0566   21.1560 H   0  0  0  0  0  0
  -26.0582  -25.9250   19.0454 H   0  0  0  0  0  0
  -23.9942  -27.2600   19.0579 H   0  0  0  0  0  0
  -23.7600  -30.5733   19.4094 H   0  0  0  0  0  0
  -22.7536  -29.2341   19.8632 H   0  0  0  0  0  0
  -25.1192  -36.1986   25.0854 H   0  0  0  0  0  0
  -20.9910  -28.3361   24.1389 H   0  0  0  0  0  0
  -20.5790  -26.2343   23.3590 H   0  0  0  0  0  0
  -21.6671  -26.7554   22.1133 H   0  0  0  0  0  0
  -19.6945  -25.6292   21.1312 H   0  0  0  0  0  0
  -19.6711  -27.3198   20.6755 H   0  0  0  0  0  0
  -17.4193  -26.6815   21.3963 H   0  0  0  0  0  0
  -18.0211  -26.0039   22.8892 H   0  0  0  0  0  0
  -19.7970  -30.7322   24.2246 H   0  0  0  0  0  0
  -17.5052  -31.6344   24.5155 H   0  0  0  0  0  0
  -15.5388  -30.3056   23.7730 H   0  0  0  0  0  0
  -15.8626  -28.0871   22.7183 H   0  0  0  0  0  0
  -24.6178  -30.6638   25.8031 H   0  0  0  0  0  0
  -24.8634  -32.2601   26.4965 H   0  0  0  0  0  0
  -25.8266  -30.9022   27.0402 H   0  0  0  0  0  0
  -26.3041  -29.6720   24.1424 H   0  0  0  0  0  0
  -27.4488  -29.7541   25.4630 H   0  0  0  0  0  0
  -27.8640  -30.4530   23.9153 H   0  0  0  0  0  0
  -27.2731  -33.4021   26.1715 H   0  0  0  0  0  0
  -28.3962  -32.6772   25.0425 H   0  0  0  0  0  0
  -28.0444  -31.8895   26.5760 H   0  0  0  0  0  0
  -28.2529  -38.0061   24.7723 H   0  0  0  0  0  0
  -28.1082  -36.2642   24.6157 H   0  0  0  0  0  0
  -27.2272  -37.1191   25.8887 H   0  0  0  0  0  0
  -20.9403  -29.8750   21.6845 H   0  0  0  0  0  0
  -26.0097  -38.2834   24.1653 H   0  0  0  0  0  0
  -31.7592  -17.6798   20.3622 H   0  0  0  0  0  0
  -31.3586  -20.0314   19.7563 H   0  0  0  0  0  0
  -27.2377  -19.6402   20.8704 H   0  0  0  0  0  0
  -26.2980  -16.9997   23.7501 H   0  0  0  0  0  0
  -26.9537  -18.6018   23.4307 H   0  0  0  0  0  0
  -28.0312  -17.2831   23.8650 H   0  0  0  0  0  0
  -31.0509  -23.4248   19.4441 H   0  0  0  0  0  0
  -30.9854  -24.3496   20.9325 H   0  0  0  0  0  0
  -30.8051  -25.1474   19.3803 H   0  0  0  0  0  0
  -28.9561  -23.3287   17.8995 H   0  0  0  0  0  0
  -28.5616  -25.0186   18.0797 H   0  0  0  0  0  0
  -27.3753  -23.7984   18.5375 H   0  0  0  0  0  0
  -27.3736  -16.0912   21.7146 H   0  0  0  0  0  0
  -26.3702  -17.4508   21.2898 H   0  0  0  0  0  0
  -27.6020  -22.5390   20.8870 H   0  0  0  0  0  0
  -29.1514  -22.5310   21.6611 H   0  0  0  0  0  0
  -28.7686  -25.3471   21.7407 H   0  0  0  0  0  0
  -27.2726  -25.0006   20.9328 H   0  0  0  0  0  0
  -29.4388  -16.3546   23.1701 H   0  0  0  0  0  0
  -28.3731  -21.3681   19.0254 H   0  0  0  0  0  0
  1 25  1  0  0  0
  1 30  2  0  0  0
  1 77  1  0  0  0
  2  3  1  0  0  0
  2 25  1  0  0  0
  2 87  1  0  0  0
  2 88  1  0  0  0
  3  4  1  0  0  0
  3 89  1  0  0  0
  3 90  1  0  0  0
  4  5  1  0  0  0
  4 91  1  0  0  0
  4 92  1  0  0  0
  5  6  1  0  0  0
  5 26  1  0  0  0
  5 93  1  0  0  0
  6 25  1  0  0  0
  6 94  1  0  0  0
  6 95  1  0  0  0
  7  8  2  0  0  0
  7 26  1  0  0  0
  7 29  1  0  0  0
  8  9  1  0  0  0
  8 22  1  0  0  0
  9 10  1  0  0  0
  9 27  2  0  0  0
 10 11  2  0  0  0
 10 15  1  0  0  0
 11 12  1  0  0  0
 11 96  1  0  0  0
 12 13  2  0  0  0
 12 97  1  0  0  0
 13 14  1  0  0  0
 13 31  1  0  0  0
 14 15  2  0  0  0
 14 98  1  0  0  0
 15 99  1  0  0  0
 16 17  2  0  0  0
 16 21  1  0  0  0
 16 31  1  0  0  0
 17 18  1  0  0  0
 17100  1  0  0  0
 18 19  2  0  0  0
 18101  1  0  0  0
 19 20  1  0  0  0
 19 24  1  0  0  0
 20 21  2  0  0  0
 20102  1  0  0  0
 21 23  1  0  0  0
 22 28  1  0  0  0
 22 32  2  0  0  0
 26 27  1  0  0  0
 28103  1  0  0  0
 28104  1  0  0  0
 29105  1  0  0  0
 29106  1  0  0  0
 33 34  1  0  0  0
 33 66  1  0  0  0
 33 70  2  0  0  0
 34 36  1  0  0  0
 34 59  1  0  0  0
 34107  1  0  0  0
 35 44  2  0  0  0
 35 45  1  0  0  0
 35 68  1  0  0  0
 36 56  1  0  0  0
 36108  1  0  0  0
 37 39  1  0  0  0
 37 47  1  0  0  0
 37 66  1  0  0  0
 37109  1  0  0  0
 38 43  2  0  0  0
 38 46  1  0  0  0
 38 47  1  0  0  0
 39 64  1  0  0  0
 39 67  2  0  0  0
 40 52  1  0  0  0
 40 53  2  0  0  0
 40 58  1  0  0  0
 41110  1  0  0  0
 41111  1  0  0  0
 41112  1  0  0  0
 41 48  1  0  0  0
 42 43  1  0  0  0
 42 66  1  0  0  0
 42113  1  0  0  0
 42114  1  0  0  0
 43 44  1  0  0  0
 44115  1  0  0  0
 45 46  2  0  0  0
 45116  1  0  0  0
 46117  1  0  0  0
 47118  1  0  0  0
 47119  1  0  0  0
 48 56  1  0  0  0
 48 65  1  0  0  0
 48120  1  0  0  0
 49 50  1  0  0  0
 49 53  1  0  0  0
 49 64  1  0  0  0
 49121  1  0  0  0
 50 51  1  0  0  0
 50122  1  0  0  0
 50123  1  0  0  0
 51 52  1  0  0  0
 51124  1  0  0  0
 51125  1  0  0  0
 52126  1  0  0  0
 52127  1  0  0  0
 53 54  1  0  0  0
 54 55  2  0  0  0
 54128  1  0  0  0
 55 57  1  0  0  0
 55129  1  0  0  0
 56 69  2  0  0  0
 57 58  2  0  0  0
 57130  1  0  0  0
 58131  1  0  0  0
 59 60  1  0  0  0
 59 61  1  0  0  0
 59 62  1  0  0  0
 60132  1  0  0  0
 60133  1  0  0  0
 60134  1  0  0  0
 61135  1  0  0  0
 61136  1  0  0  0
 61137  1  0  0  0
 62138  1  0  0  0
 62139  1  0  0  0
 62140  1  0  0  0
 63 65  1  0  0  0
 63141  1  0  0  0
 63142  1  0  0  0
 63143  1  0  0  0
 64144  1  0  0  0
 65145  1  0  0  0
 68 83  1  0  0  0
 71 72  2  0  0  0
 71 74  1  0  0  0
 71146  1  0  0  0
 72 76  1  0  0  0
 72147  1  0  0  0
 73 75  1  0  0  0
 73 76  2  0  0  0
 73148  1  0  0  0
 74 75  2  0  0  0
 74 77  1  0  0  0
 75 81  1  0  0  0
 76 86  1  0  0  0
 77 85  2  0  0  0
 78 81  1  0  0  0
 78149  1  0  0  0
 78150  1  0  0  0
 78151  1  0  0  0
 79152  1  0  0  0
 79153  1  0  0  0
 79154  1  0  0  0
 79 84  1  0  0  0
 80 84  1  0  0  0
 80155  1  0  0  0
 80156  1  0  0  0
 80157  1  0  0  0
 81158  1  0  0  0
 81159  1  0  0  0
 82 84  1  0  0  0
 82 86  1  0  0  0
 82160  1  0  0  0
 82161  1  0  0  0
 83 84  1  0  0  0
 83162  1  0  0  0
 83163  1  0  0  0
 85164  1  0  0  0
 86165  1  0  0  0
M  ISO  4   1 100  68 101  77 100  83 101
M  END
> <chiral flag>
0

> <version>
0

> <s_m_source_file>
/data/baiqing/PycharmProjects/Reinvent-master-3.2/result/LINK_invent/BTK/process_docking_weight1_custom_product_contain_oxygen_bond_distance_aromatic_linkinvent_7_9_3/rearranged_h_0138.sdf

> <i_m_source_file_index>
4

> <r_mmod_Potential_Energy-OPLS-2005>
269.617950439453

> <r_mmod_Stretch_Energy-OPLS-2005>
95.2637939453125

> <r_mmod_Bend_Energy-OPLS-2005>
150.028121948242

> <r_mmod_Torsional_Energy-OPLS-2005>
281.226959228516

> <r_mmod_Improper_Torsional_Energy-OPLS-2005>
10.3141088485718

> <r_mmod_Van_der_Waal_Energy-OPLS-2005>
140.05419921875

> <r_mmod_Electrostatic_Energy-OPLS-2005>
-263.580139160156

> <r_mmod_Solvation_Energy-OPLS-2005>
-186.195266723633

> <b_mmod_Minimization_Converged-OPLS-2005>
0

> <r_mmod_RMS_Derivative-OPLS-2005>
8.73944282531738

$$$$
4
                    3D
 Structure written by MMmdl.
153161  0  0  1  0            999 V2000
  -30.6233  -14.6144   20.5019 C   0  0  0  0  0  0
  -30.4309  -12.3681   19.4631 C   0  0  0  0  0  0
  -29.5156  -12.5114   18.2282 C   0  0  0  0  0  0
  -28.0360  -12.3450   18.6283 C   0  0  0  0  0  0
  -27.6539  -13.2112   19.8579 C   0  0  2  0  0  0
  -28.6907  -13.0598   20.9948 C   0  0  0  0  0  0
  -25.2580  -13.8148   20.5621 C   0  0  0  0  0  0
  -24.1837  -13.0429   20.9129 C   0  0  0  0  0  0
  -24.6388  -11.6893   20.8681 C   0  0  0  0  0  0
  -23.9040  -10.4283   21.0379 C   0  0  0  0  0  0
  -24.3593   -9.4209   21.9171 C   0  0  0  0  0  0
  -23.6274   -8.2242   22.0759 C   0  0  0  0  0  0
  -22.4260   -8.0262   21.3547 C   0  0  0  0  0  0
  -21.9885   -9.0228   20.4647 C   0  0  0  0  0  0
  -22.7203  -10.2112   20.3046 C   0  0  0  0  0  0
  -21.6846   -6.0724   22.5277 C   0  0  0  0  0  0
  -21.4012   -6.5635   23.8210 C   0  0  0  0  0  0
  -21.3665   -5.6790   24.9171 C   0  0  0  0  0  0
  -21.6039   -4.3054   24.7221 C   0  0  0  0  0  0
  -21.8814   -3.8143   23.4342 C   0  0  0  0  0  0
  -21.9185   -4.6955   22.3398 C   0  0  0  0  0  0
  -22.7867  -13.5246   21.1786 C   0  0  0  0  0  0
  -22.1648   -4.2138   21.0977 F   0  0  0  0  0  0
  -21.5632   -3.4542   25.7742 F   0  0  0  0  0  0
  -30.0144  -13.3877   20.4454 N   0  0  0  0  0  0
  -26.2984  -12.9311   20.3250 N   0  0  0  0  0  0
  -25.9308  -11.6468   20.5670 N   0  0  0  0  0  0
  -22.0495  -12.8260   22.0342 N   0  0  0  0  0  0
  -25.4334  -15.1854   20.4000 N   0  0  0  0  0  0
  -31.7718  -14.7814   20.0826 O   0  0  0  0  0  0
  -21.6628   -6.8854   21.4240 O   0  0  0  0  0  0
  -22.3566  -14.5538   20.6603 O   0  0  0  0  0  0
  -24.6242  -31.8610   23.2026 C   0  0  0  0  0  0
  -25.9112  -32.4781   23.8340 C   0  0  1  0  0  0
  -27.2273  -27.3586   20.1085 C   0  0  0  0  0  0
  -25.5950  -33.8580   24.2273 N   0  0  0  0  0  0
  -23.4134  -30.4862   21.5440 C   0  0  2  0  0  0
  -24.8581  -28.9403   20.1119 C   0  0  0  0  0  0
  -22.7435  -29.4651   22.4943 C   0  0  0  0  0  0
  -18.0290  -28.1381   22.8502 C   0  0  0  0  0  0
  -24.1481  -36.7288   23.2635 C   0  0  0  0  0  0
  -25.9488  -30.8081   21.3610 C   0  0  0  0  0  0
  -26.0257  -29.4366   20.7065 C   0  0  0  0  0  0
  -27.2163  -28.6582   20.6913 C   0  0  0  0  0  0
  -26.0427  -26.9025   19.4927 C   0  0  0  0  0  0
  -24.8662  -27.6775   19.4973 C   0  0  0  0  0  0
  -23.6234  -29.8163   20.1606 C   0  0  0  0  0  0
  -25.4108  -36.3065   24.0314 C   0  0  1  0  0  0
  -20.5881  -28.3682   23.1289 C   0  0  2  0  0  0
  -20.6773  -26.9412   22.5406 C   0  0  0  0  0  0
  -19.5746  -26.6378   21.5209 C   0  0  0  0  0  0
  -18.1925  -26.7927   22.1626 C   0  0  0  0  0  0
  -19.1544  -28.8851   23.2894 C   0  0  0  0  0  0
  -18.9467  -30.1454   23.8904 C   0  0  0  0  0  0
  -17.6467  -30.6587   24.0575 C   0  0  0  0  0  0
  -25.9047  -34.9448   23.5076 C   0  0  0  0  0  0
  -16.5359  -29.9084   23.6337 C   0  0  0  0  0  0
  -16.7275  -28.6501   23.0364 C   0  0  0  0  0  0
  -26.4511  -31.6583   25.0704 C   0  0  0  0  0  0
  -25.3746  -31.3733   26.1432 C   0  0  0  0  0  0
  -27.0335  -30.2998   24.6136 C   0  0  0  0  0  0
  -27.6050  -32.4327   25.7509 C   0  0  0  0  0  0
  -27.5559  -37.1805   24.8470 C   0  0  0  0  0  0
  -21.4150  -29.3043   22.3673 N   0  0  0  0  0  0
  -26.4278  -37.3768   23.9398 N   0  0  0  0  0  0
  -24.6812  -31.0673   22.0938 N   0  0  0  0  0  0
  -23.4180  -28.8186   23.3002 O   0  0  0  0  0  0
  -28.3592  -26.5442   20.1058 O   0  0  0  0  0  0
  -26.5605  -34.8915   22.4634 O   0  0  0  0  0  0
  -23.5427  -32.1391   23.7396 O   0  0  0  0  0  0
  -30.3145  -19.0079   19.1438 C   0  0  0  0  0  0
  -28.9375  -19.3595   21.0770 C   0  0  0  0  0  0
  -30.4822  -17.6361   19.4862 C   0  0  0  0  0  0
  -29.0850  -17.9797   21.4132 C   0  0  0  0  0  0
  -29.5257  -19.9164   19.9125 C   0  0  0  0  0  0
  -29.8450  -17.0748   20.6202 C   0  0  0  0  0  0
  -29.2837  -21.3543   19.4247 C   0  0  0  0  0  0
  -28.8089  -22.5242   20.3558 C   0  0  0  0  0  0
  -28.8569  -24.0033   19.7542 C   0  0  0  0  0  0
  -28.2120  -25.1678   20.6032 C   0  0  0  0  0  0
  -29.4640  -21.6324   18.2024 N   0  0  0  0  0  0
  -29.8474  -15.6507   20.9448 N   0  0  0  0  0  0
  -31.4809  -12.4660   19.1839 H   0  0  0  0  0  0
  -30.3324  -11.3683   19.8904 H   0  0  0  0  0  0
  -29.7862  -11.7733   17.4727 H   0  0  0  0  0  0
  -29.6665  -13.4900   17.7689 H   0  0  0  0  0  0
  -27.8757  -11.2905   18.8545 H   0  0  0  0  0  0
  -27.3867  -12.5733   17.7825 H   0  0  0  0  0  0
  -27.6726  -14.2459   19.5149 H   0  0  0  0  0  0
  -28.6928  -12.0411   21.3856 H   0  0  0  0  0  0
  -28.4293  -13.6961   21.8407 H   0  0  0  0  0  0
  -25.2722   -9.5692   22.4757 H   0  0  0  0  0  0
  -23.9981   -7.4641   22.7490 H   0  0  0  0  0  0
  -21.0810   -8.8712   19.8960 H   0  0  0  0  0  0
  -22.3626  -10.9640   19.6156 H   0  0  0  0  0  0
  -21.2008   -7.6144   23.9710 H   0  0  0  0  0  0
  -21.1498   -6.0520   25.9075 H   0  0  0  0  0  0
  -22.0592   -2.7604   23.2832 H   0  0  0  0  0  0
  -22.4109  -11.9948   22.4776 H   0  0  0  0  0  0
  -21.1113  -13.1327   22.2507 H   0  0  0  0  0  0
  -24.6557  -15.8337   20.4479 H   0  0  0  0  0  0
  -26.2783  -15.6123   20.0400 H   0  0  0  0  0  0
  -26.7179  -32.5460   23.1094 H   0  0  0  0  0  0
  -25.0142  -33.9730   25.0449 H   0  0  0  0  0  0
  -22.7071  -31.3062   21.4015 H   0  0  0  0  0  0
  -23.3720  -35.9646   23.3323 H   0  0  0  0  0  0
  -24.3563  -36.8888   22.2042 H   0  0  0  0  0  0
  -23.7260  -37.6506   23.6655 H   0  0  0  0  0  0
  -26.0697  -31.5725   20.5927 H   0  0  0  0  0  0
  -26.8341  -30.8591   21.9834 H   0  0  0  0  0  0
  -28.1165  -29.0453   21.1476 H   0  0  0  0  0  0
  -26.0254  -25.9384   19.0046 H   0  0  0  0  0  0
  -23.9730  -27.2922   19.0261 H   0  0  0  0  0  0
  -23.7387  -30.5922   19.4027 H   0  0  0  0  0  0
  -22.7427  -29.2429   19.8629 H   0  0  0  0  0  0
  -25.1297  -36.1894   25.0805 H   0  0  0  0  0  0
  -21.0012  -28.3250   24.1391 H   0  0  0  0  0  0
  -20.5660  -26.2290   23.3601 H   0  0  0  0  0  0
  -21.6641  -26.7419   22.1208 H   0  0  0  0  0  0
  -19.6900  -25.6285   21.1239 H   0  0  0  0  0  0
  -19.6688  -27.3194   20.6745 H   0  0  0  0  0  0
  -17.4197  -26.6708   21.4024 H   0  0  0  0  0  0
  -18.0322  -26.0062   22.9013 H   0  0  0  0  0  0
  -19.7939  -30.7285   24.2257 H   0  0  0  0  0  0
  -17.5019  -31.6274   24.5165 H   0  0  0  0  0  0
  -15.5359  -30.2995   23.7644 H   0  0  0  0  0  0
  -15.8679  -28.0819   22.7075 H   0  0  0  0  0  0
  -24.5921  -30.7088   25.7767 H   0  0  0  0  0  0
  -24.8962  -32.2919   26.4835 H   0  0  0  0  0  0
  -25.8078  -30.8920   27.0206 H   0  0  0  0  0  0
  -26.2875  -29.6750   24.1217 H   0  0  0  0  0  0
  -27.4081  -29.7272   25.4635 H   0  0  0  0  0  0
  -27.8731  -30.4272   23.9299 H   0  0  0  0  0  0
  -27.2617  -33.3609   26.2084 H   0  0  0  0  0  0
  -28.3889  -32.6903   25.0381 H   0  0  0  0  0  0
  -28.0680  -31.8448   26.5449 H   0  0  0  0  0  0
  -28.2608  -38.0070   24.7466 H   0  0  0  0  0  0
  -28.1016  -36.2599   24.6358 H   0  0  0  0  0  0
  -27.2272  -37.1534   25.8874 H   0  0  0  0  0  0
  -20.9298  -29.8742   21.6886 H   0  0  0  0  0  0
  -26.0143  -38.2832   24.1409 H   0  0  0  0  0  0
  -30.7939  -19.3525   18.2388 H   0  0  0  0  0  0
  -28.3236  -19.9880   21.7076 H   0  0  0  0  0  0
  -31.0747  -17.0117   18.8323 H   0  0  0  0  0  0
  -28.5802  -17.6151   22.2964 H   0  0  0  0  0  0
  -29.4138  -22.4992   21.2617 H   0  0  0  0  0  0
  -27.7868  -22.3063   20.6666 H   0  0  0  0  0  0
  -28.3736  -24.0116   18.7767 H   0  0  0  0  0  0
  -29.9000  -24.2551   19.5675 H   0  0  0  0  0  0
  -27.1671  -24.9193   20.7932 H   0  0  0  0  0  0
  -28.6793  -25.1603   21.5876 H   0  0  0  0  0  0
  -29.7439  -20.8155   17.6708 H   0  0  0  0  0  0
  -29.0331  -15.3397   21.4528 H   0  0  0  0  0  0
  1 25  1  0  0  0
  1 30  2  0  0  0
  1 82  1  0  0  0
  2  3  1  0  0  0
  2 25  1  0  0  0
  2 83  1  0  0  0
  2 84  1  0  0  0
  3  4  1  0  0  0
  3 85  1  0  0  0
  3 86  1  0  0  0
  4  5  1  0  0  0
  4 87  1  0  0  0
  4 88  1  0  0  0
  5  6  1  0  0  0
  5 26  1  0  0  0
  5 89  1  0  0  0
  6 25  1  0  0  0
  6 90  1  0  0  0
  6 91  1  0  0  0
  7  8  2  0  0  0
  7 26  1  0  0  0
  7 29  1  0  0  0
  8  9  1  0  0  0
  8 22  1  0  0  0
  9 10  1  0  0  0
  9 27  2  0  0  0
 10 11  2  0  0  0
 10 15  1  0  0  0
 11 12  1  0  0  0
 11 92  1  0  0  0
 12 13  2  0  0  0
 12 93  1  0  0  0
 13 14  1  0  0  0
 13 31  1  0  0  0
 14 15  2  0  0  0
 14 94  1  0  0  0
 15 95  1  0  0  0
 16 17  2  0  0  0
 16 21  1  0  0  0
 16 31  1  0  0  0
 17 18  1  0  0  0
 17 96  1  0  0  0
 18 19  2  0  0  0
 18 97  1  0  0  0
 19 20  1  0  0  0
 19 24  1  0  0  0
 20 21  2  0  0  0
 20 98  1  0  0  0
 21 23  1  0  0  0
 22 28  1  0  0  0
 22 32  2  0  0  0
 26 27  1  0  0  0
 28 99  1  0  0  0
 28100  1  0  0  0
 29101  1  0  0  0
 29102  1  0  0  0
 33 34  1  0  0  0
 33 66  1  0  0  0
 33 70  2  0  0  0
 34 36  1  0  0  0
 34 59  1  0  0  0
 34103  1  0  0  0
 35 44  2  0  0  0
 35 45  1  0  0  0
 35 68  1  0  0  0
 36 56  1  0  0  0
 36104  1  0  0  0
 37 39  1  0  0  0
 37 47  1  0  0  0
 37 66  1  0  0  0
 37105  1  0  0  0
 38 43  2  0  0  0
 38 46  1  0  0  0
 38 47  1  0  0  0
 39 64  1  0  0  0
 39 67  2  0  0  0
 40 52  1  0  0  0
 40 53  2  0  0  0
 40 58  1  0  0  0
 41106  1  0  0  0
 41107  1  0  0  0
 41108  1  0  0  0
 41 48  1  0  0  0
 42 43  1  0  0  0
 42 66  1  0  0  0
 42109  1  0  0  0
 42110  1  0  0  0
 43 44  1  0  0  0
 44111  1  0  0  0
 45 46  2  0  0  0
 45112  1  0  0  0
 46113  1  0  0  0
 47114  1  0  0  0
 47115  1  0  0  0
 48 56  1  0  0  0
 48 65  1  0  0  0
 48116  1  0  0  0
 49 50  1  0  0  0
 49 53  1  0  0  0
 49 64  1  0  0  0
 49117  1  0  0  0
 50 51  1  0  0  0
 50118  1  0  0  0
 50119  1  0  0  0
 51 52  1  0  0  0
 51120  1  0  0  0
 51121  1  0  0  0
 52122  1  0  0  0
 52123  1  0  0  0
 53 54  1  0  0  0
 54 55  2  0  0  0
 54124  1  0  0  0
 55 57  1  0  0  0
 55125  1  0  0  0
 56 69  2  0  0  0
 57 58  2  0  0  0
 57126  1  0  0  0
 58127  1  0  0  0
 59 60  1  0  0  0
 59 61  1  0  0  0
 59 62  1  0  0  0
 60128  1  0  0  0
 60129  1  0  0  0
 60130  1  0  0  0
 61131  1  0  0  0
 61132  1  0  0  0
 61133  1  0  0  0
 62134  1  0  0  0
 62135  1  0  0  0
 62136  1  0  0  0
 63 65  1  0  0  0
 63137  1  0  0  0
 63138  1  0  0  0
 63139  1  0  0  0
 64140  1  0  0  0
 65141  1  0  0  0
 68 80  1  0  0  0
 71 73  2  0  0  0
 71 75  1  0  0  0
 71142  1  0  0  0
 72 74  1  0  0  0
 72 75  2  0  0  0
 72143  1  0  0  0
 73 76  1  0  0  0
 73144  1  0  0  0
 74 76  2  0  0  0
 74145  1  0  0  0
 75 77  1  0  0  0
 76 82  1  0  0  0
 77 78  1  0  0  0
 77 81  2  0  0  0
 78 79  1  0  0  0
 78146  1  0  0  0
 78147  1  0  0  0
 79 80  1  0  0  0
 79148  1  0  0  0
 79149  1  0  0  0
 80150  1  0  0  0
 80151  1  0  0  0
 81152  1  0  0  0
 82153  1  0  0  0
M  ISO  4   1 100  68 101  80 101  82 100
M  END
> <chiral flag>
0

> <version>
0

> <s_m_source_file>
/data/baiqing/PycharmProjects/Reinvent-master-3.2/result/LINK_invent/BTK/process_docking_weight1_custom_product_contain_oxygen_bond_distance_aromatic_linkinvent_7_9_3/rearranged_h_0138.sdf

> <i_m_source_file_index>
5

> <r_mmod_Potential_Energy-OPLS-2005>
9.87871932983398

> <r_mmod_Stretch_Energy-OPLS-2005>
71.9521255493164

> <r_mmod_Bend_Energy-OPLS-2005>
124.002754211426

> <r_mmod_Torsional_Energy-OPLS-2005>
236.867889404297

> <r_mmod_Improper_Torsional_Energy-OPLS-2005>
4.09604024887085

> <r_mmod_Van_der_Waal_Energy-OPLS-2005>
146.762756347656

> <r_mmod_Electrostatic_Energy-OPLS-2005>
-392.326690673828

> <r_mmod_Solvation_Energy-OPLS-2005>
-217.517379760742

> <b_mmod_Minimization_Converged-OPLS-2005>
0

> <r_mmod_RMS_Derivative-OPLS-2005>
2.45420694351196

$$$$
5
                    3D
 Structure written by MMmdl.
167176  0  0  1  0            999 V2000
  -30.6110  -14.6377   20.5066 C   0  0  0  0  0  0
  -30.4426  -12.3914   19.4531 C   0  0  0  0  0  0
  -29.5103  -12.5100   18.2256 C   0  0  0  0  0  0
  -28.0321  -12.3480   18.6353 C   0  0  0  0  0  0
  -27.6562  -13.2135   19.8675 C   0  0  2  0  0  0
  -28.6997  -13.0538   20.9965 C   0  0  0  0  0  0
  -25.2576  -13.8166   20.5682 C   0  0  0  0  0  0
  -24.1837  -13.0437   20.9188 C   0  0  0  0  0  0
  -24.6398  -11.6906   20.8742 C   0  0  0  0  0  0
  -23.9064  -10.4292   21.0410 C   0  0  0  0  0  0
  -24.3617   -9.4206   21.9185 C   0  0  0  0  0  0
  -23.6294   -8.2242   22.0754 C   0  0  0  0  0  0
  -22.4274   -8.0283   21.3547 C   0  0  0  0  0  0
  -21.9910   -9.0254   20.4645 C   0  0  0  0  0  0
  -22.7239  -10.2133   20.3056 C   0  0  0  0  0  0
  -21.6851   -6.0737   22.5280 C   0  0  0  0  0  0
  -21.4012   -6.5641   23.8213 C   0  0  0  0  0  0
  -21.3659   -5.6793   24.9175 C   0  0  0  0  0  0
  -21.6044   -4.3055   24.7226 C   0  0  0  0  0  0
  -21.8820   -3.8148   23.4346 C   0  0  0  0  0  0
  -21.9192   -4.6965   22.3402 C   0  0  0  0  0  0
  -22.7858  -13.5235   21.1851 C   0  0  0  0  0  0
  -22.1661   -4.2151   21.0978 F   0  0  0  0  0  0
  -21.5630   -3.4537   25.7738 F   0  0  0  0  0  0
  -30.0172  -13.4039   20.4401 N   0  0  0  0  0  0
  -26.3003  -12.9339   20.3330 N   0  0  0  0  0  0
  -25.9328  -11.6498   20.5761 N   0  0  0  0  0  0
  -22.0499  -12.8228   22.0405 N   0  0  0  0  0  0
  -25.4301  -15.1885   20.4087 N   0  0  0  0  0  0
  -31.7613  -14.8204   20.0960 O   0  0  0  0  0  0
  -21.6639   -6.8880   21.4242 O   0  0  0  0  0  0
  -22.3548  -14.5546   20.6703 O   0  0  0  0  0  0
  -24.6250  -31.8602   23.2031 C   0  0  0  0  0  0
  -25.9100  -32.4781   23.8356 C   0  0  1  0  0  0
  -27.2229  -27.3260   20.1191 C   0  0  0  0  0  0
  -25.5921  -33.8582   24.2285 N   0  0  0  0  0  0
  -23.4183  -30.4840   21.5456 C   0  0  2  0  0  0
  -24.8648  -28.9392   20.1125 C   0  0  0  0  0  0
  -22.7471  -29.4624   22.4941 C   0  0  0  0  0  0
  -18.0284  -28.1382   22.8490 C   0  0  0  0  0  0
  -24.1489  -36.7295   23.2640 C   0  0  0  0  0  0
  -25.9588  -30.7933   21.3734 C   0  0  0  0  0  0
  -26.0329  -29.4208   20.7166 C   0  0  0  0  0  0
  -27.2166  -28.6263   20.7093 C   0  0  0  0  0  0
  -26.0360  -26.8988   19.4825 C   0  0  0  0  0  0
  -24.8682  -27.6838   19.4858 C   0  0  0  0  0  0
  -23.6324  -29.8182   20.1608 C   0  0  0  0  0  0
  -25.4114  -36.3086   24.0331 C   0  0  1  0  0  0
  -20.5887  -28.3684   23.1289 C   0  0  2  0  0  0
  -20.6778  -26.9410   22.5413 C   0  0  0  0  0  0
  -19.5753  -26.6383   21.5217 C   0  0  0  0  0  0
  -18.1930  -26.7927   22.1625 C   0  0  0  0  0  0
  -19.1538  -28.8849   23.2886 C   0  0  0  0  0  0
  -18.9463  -30.1452   23.8901 C   0  0  0  0  0  0
  -17.6464  -30.6587   24.0565 C   0  0  0  0  0  0
  -25.9047  -34.9454   23.5107 C   0  0  0  0  0  0
  -16.5353  -29.9088   23.6330 C   0  0  0  0  0  0
  -16.7272  -28.6503   23.0352 C   0  0  0  0  0  0
  -26.4490  -31.6584   25.0720 C   0  0  0  0  0  0
  -25.3725  -31.3723   26.1450 C   0  0  0  0  0  0
  -27.0331  -30.3010   24.6158 C   0  0  0  0  0  0
  -27.6052  -32.4314   25.7492 C   0  0  0  0  0  0
  -27.5580  -37.1802   24.8465 C   0  0  0  0  0  0
  -21.4186  -29.3044   22.3687 N   0  0  0  0  0  0
  -26.4294  -37.3779   23.9407 N   0  0  0  0  0  0
  -24.6861  -31.0622   22.0976 N   0  0  0  0  0  0
  -23.4204  -28.8161   23.3012 O   0  0  0  0  0  0
  -28.3410  -26.4794   20.1581 O   0  0  0  0  0  0
  -26.5615  -34.8920   22.4674 O   0  0  0  0  0  0
  -23.5417  -32.1391   23.7368 O   0  0  0  0  0  0
  -28.5113  -19.2470   20.9194 C   0  0  0  0  0  0
  -28.6683  -17.8516   21.1689 C   0  0  0  0  0  0
  -30.7622  -17.8559   19.9914 C   0  0  0  0  0  0
  -29.4651  -19.9914   20.1772 C   0  0  0  0  0  0
  -29.7814  -17.1052   20.6948 C   0  0  0  0  0  0
  -30.6070  -19.2557   19.7398 C   0  0  0  0  0  0
  -30.8840  -23.7670   22.1110 C   0  0  0  0  0  0
  -30.3271  -22.3950   21.7412 C   0  0  0  0  0  0
  -30.6828  -24.5899   20.8416 C   0  0  2  0  0  0
  -29.3652  -24.0574   20.2380 C   0  0  2  0  0  0
  -27.9047  -21.5599   18.8969 C   0  0  0  0  0  0
  -27.7293  -25.0529   22.0263 C   0  0  0  0  0  0
  -29.2073  -21.4880   19.7155 C   0  0  1  0  0  0
  -28.1439  -25.0541   20.5412 C   0  0  1  0  0  0
  -29.8006  -15.6580   20.9317 N   0  0  0  0  0  0
  -29.2421  -22.6079   20.7473 N   0  3  1  0  0  0
  -31.7584  -24.3432   19.9469 O   0  0  0  0  0  0
  -31.5663  -19.8895   19.0240 F   0  0  0  0  0  0
  -31.4833  -12.5228   19.1518 H   0  0  0  0  0  0
  -30.3825  -11.3926   19.8878 H   0  0  0  0  0  0
  -29.7755  -11.7608   17.4785 H   0  0  0  0  0  0
  -29.6526  -13.4805   17.7479 H   0  0  0  0  0  0
  -27.8666  -11.2941   18.8614 H   0  0  0  0  0  0
  -27.3786  -12.5830   17.7945 H   0  0  0  0  0  0
  -27.6791  -14.2513   19.5351 H   0  0  0  0  0  0
  -28.7105  -12.0265   21.3643 H   0  0  0  0  0  0
  -28.4414  -13.6700   21.8588 H   0  0  0  0  0  0
  -25.2765   -9.5681   22.4755 H   0  0  0  0  0  0
  -24.0005   -7.4632   22.7471 H   0  0  0  0  0  0
  -21.0843   -8.8772   19.8950 H   0  0  0  0  0  0
  -22.3702  -10.9670   19.6162 H   0  0  0  0  0  0
  -21.2002   -7.6150   23.9719 H   0  0  0  0  0  0
  -21.1481   -6.0522   25.9079 H   0  0  0  0  0  0
  -22.0599   -2.7611   23.2844 H   0  0  0  0  0  0
  -22.4110  -11.9884   22.4790 H   0  0  0  0  0  0
  -21.1115  -13.1250   22.2605 H   0  0  0  0  0  0
  -24.6604  -15.8414   20.5083 H   0  0  0  0  0  0
  -26.2735  -15.6232   20.0569 H   0  0  0  0  0  0
  -26.7167  -32.5450   23.1106 H   0  0  0  0  0  0
  -25.0073  -33.9731   25.0434 H   0  0  0  0  0  0
  -22.7115  -31.3043   21.4028 H   0  0  0  0  0  0
  -23.3753  -35.9626   23.3304 H   0  0  0  0  0  0
  -24.3581  -36.8909   22.2054 H   0  0  0  0  0  0
  -23.7240  -37.6499   23.6654 H   0  0  0  0  0  0
  -26.0881  -31.5569   20.6050 H   0  0  0  0  0  0
  -26.8404  -30.8423   22.0009 H   0  0  0  0  0  0
  -28.1134  -28.9907   21.1909 H   0  0  0  0  0  0
  -25.9888  -25.9493   18.9713 H   0  0  0  0  0  0
  -23.9748  -27.3146   19.0009 H   0  0  0  0  0  0
  -23.7509  -30.5937   19.4032 H   0  0  0  0  0  0
  -22.7528  -29.2464   19.8585 H   0  0  0  0  0  0
  -25.1298  -36.1939   25.0826 H   0  0  0  0  0  0
  -20.9976  -28.3252   24.1409 H   0  0  0  0  0  0
  -20.5683  -26.2294   23.3613 H   0  0  0  0  0  0
  -21.6644  -26.7444   22.1200 H   0  0  0  0  0  0
  -19.6916  -25.6295   21.1242 H   0  0  0  0  0  0
  -19.6689  -27.3201   20.6753 H   0  0  0  0  0  0
  -17.4205  -26.6677   21.4024 H   0  0  0  0  0  0
  -18.0326  -26.0067   22.9018 H   0  0  0  0  0  0
  -19.7940  -30.7267   24.2270 H   0  0  0  0  0  0
  -17.5020  -31.6269   24.5164 H   0  0  0  0  0  0
  -15.5354  -30.2995   23.7652 H   0  0  0  0  0  0
  -15.8670  -28.0827   22.7065 H   0  0  0  0  0  0
  -24.5899  -30.7074   25.7779 H   0  0  0  0  0  0
  -24.8923  -32.2894   26.4870 H   0  0  0  0  0  0
  -25.8053  -30.8902   27.0226 H   0  0  0  0  0  0
  -26.2902  -29.6765   24.1184 H   0  0  0  0  0  0
  -27.4045  -29.7256   25.4648 H   0  0  0  0  0  0
  -27.8764  -30.4311   23.9371 H   0  0  0  0  0  0
  -27.2663  -33.3614   26.2072 H   0  0  0  0  0  0
  -28.3864  -32.6873   25.0321 H   0  0  0  0  0  0
  -28.0718  -31.8437   26.5407 H   0  0  0  0  0  0
  -28.2597  -38.0100   24.7511 H   0  0  0  0  0  0
  -28.1077  -36.2630   24.6295 H   0  0  0  0  0  0
  -27.2298  -37.1455   25.8868 H   0  0  0  0  0  0
  -20.9359  -29.8776   21.6910 H   0  0  0  0  0  0
  -26.0177  -38.2856   24.1406 H   0  0  0  0  0  0
  -27.6136  -19.7343   21.2721 H   0  0  0  0  0  0
  -27.8858  -17.3439   21.7164 H   0  0  0  0  0  0
  -31.6414  -17.3637   19.6033 H   0  0  0  0  0  0
  -31.9213  -23.7250   22.4462 H   0  0  0  0  0  0
  -30.3045  -24.1864   22.9329 H   0  0  0  0  0  0
  -29.9752  -21.8385   22.6107 H   0  0  0  0  0  0
  -31.1389  -21.8195   21.2932 H   0  0  0  0  0  0
  -30.6458  -25.6603   21.0543 H   0  0  0  0  0  0
  -29.4644  -24.0431   19.1516 H   0  0  0  0  0  0
  -27.9254  -20.8391   18.0793 H   0  0  0  0  0  0
  -27.7566  -22.5417   18.4483 H   0  0  0  0  0  0
  -27.0288  -21.3388   19.5068 H   0  0  0  0  0  0
  -27.5831  -24.0446   22.4111 H   0  0  0  0  0  0
  -26.7874  -25.5811   22.1724 H   0  0  0  0  0  0
  -28.4734  -25.5498   22.6478 H   0  0  0  0  0  0
  -30.0176  -21.7204   19.0225 H   0  0  0  0  0  0
  -27.3094  -24.6407   19.9782 H   0  0  0  0  0  0
  -28.9517  -15.3024   21.3442 H   0  0  0  0  0  0
  -28.3792  -22.5454   21.2663 H   0  0  0  0  0  0
  -32.5295  -24.7997   20.2746 H   0  0  0  0  0  0
  1 25  1  0  0  0
  1 30  2  0  0  0
  1 85  1  0  0  0
  2  3  1  0  0  0
  2 25  1  0  0  0
  2 89  1  0  0  0
  2 90  1  0  0  0
  3  4  1  0  0  0
  3 91  1  0  0  0
  3 92  1  0  0  0
  4  5  1  0  0  0
  4 93  1  0  0  0
  4 94  1  0  0  0
  5  6  1  0  0  0
  5 26  1  0  0  0
  5 95  1  0  0  0
  6 25  1  0  0  0
  6 96  1  0  0  0
  6 97  1  0  0  0
  7  8  2  0  0  0
  7 26  1  0  0  0
  7 29  1  0  0  0
  8  9  1  0  0  0
  8 22  1  0  0  0
  9 10  1  0  0  0
  9 27  2  0  0  0
 10 11  2  0  0  0
 10 15  1  0  0  0
 11 12  1  0  0  0
 11 98  1  0  0  0
 12 13  2  0  0  0
 12 99  1  0  0  0
 13 14  1  0  0  0
 13 31  1  0  0  0
 14 15  2  0  0  0
 14100  1  0  0  0
 15101  1  0  0  0
 16 17  2  0  0  0
 16 21  1  0  0  0
 16 31  1  0  0  0
 17 18  1  0  0  0
 17102  1  0  0  0
 18 19  2  0  0  0
 18103  1  0  0  0
 19 20  1  0  0  0
 19 24  1  0  0  0
 20 21  2  0  0  0
 20104  1  0  0  0
 21 23  1  0  0  0
 22 28  1  0  0  0
 22 32  2  0  0  0
 26 27  1  0  0  0
 28105  1  0  0  0
 28106  1  0  0  0
 29107  1  0  0  0
 29108  1  0  0  0
 33 34  1  0  0  0
 33 66  1  0  0  0
 33 70  2  0  0  0
 34 36  1  0  0  0
 34 59  1  0  0  0
 34109  1  0  0  0
 35 44  2  0  0  0
 35 45  1  0  0  0
 35 68  1  0  0  0
 36 56  1  0  0  0
 36110  1  0  0  0
 37 39  1  0  0  0
 37 47  1  0  0  0
 37 66  1  0  0  0
 37111  1  0  0  0
 38 43  2  0  0  0
 38 46  1  0  0  0
 38 47  1  0  0  0
 39 64  1  0  0  0
 39 67  2  0  0  0
 40 52  1  0  0  0
 40 53  2  0  0  0
 40 58  1  0  0  0
 41112  1  0  0  0
 41113  1  0  0  0
 41114  1  0  0  0
 41 48  1  0  0  0
 42 43  1  0  0  0
 42 66  1  0  0  0
 42115  1  0  0  0
 42116  1  0  0  0
 43 44  1  0  0  0
 44117  1  0  0  0
 45 46  2  0  0  0
 45118  1  0  0  0
 46119  1  0  0  0
 47120  1  0  0  0
 47121  1  0  0  0
 48 56  1  0  0  0
 48 65  1  0  0  0
 48122  1  0  0  0
 49 50  1  0  0  0
 49 53  1  0  0  0
 49 64  1  0  0  0
 49123  1  0  0  0
 50 51  1  0  0  0
 50124  1  0  0  0
 50125  1  0  0  0
 51 52  1  0  0  0
 51126  1  0  0  0
 51127  1  0  0  0
 52128  1  0  0  0
 52129  1  0  0  0
 53 54  1  0  0  0
 54 55  2  0  0  0
 54130  1  0  0  0
 55 57  1  0  0  0
 55131  1  0  0  0
 56 69  2  0  0  0
 57 58  2  0  0  0
 57132  1  0  0  0
 58133  1  0  0  0
 59 60  1  0  0  0
 59 61  1  0  0  0
 59 62  1  0  0  0
 60134  1  0  0  0
 60135  1  0  0  0
 60136  1  0  0  0
 61137  1  0  0  0
 61138  1  0  0  0
 61139  1  0  0  0
 62140  1  0  0  0
 62141  1  0  0  0
 62142  1  0  0  0
 63 65  1  0  0  0
 63143  1  0  0  0
 63144  1  0  0  0
 63145  1  0  0  0
 64146  1  0  0  0
 65147  1  0  0  0
 68 84  1  0  0  0
 71 72  2  0  0  0
 71 74  1  0  0  0
 71148  1  0  0  0
 72 75  1  0  0  0
 72149  1  0  0  0
 73 75  2  0  0  0
 73 76  1  0  0  0
 73150  1  0  0  0
 74 76  2  0  0  0
 74 83  1  0  0  0
 75 85  1  0  0  0
 76 88  1  0  0  0
 77 78  1  0  0  0
 77 79  1  0  0  0
 77151  1  0  0  0
 77152  1  0  0  0
 78153  1  0  0  0
 78154  1  0  0  0
 78 86  1  0  0  0
 79 80  1  0  0  0
 79 87  1  0  0  0
 79155  1  0  0  0
 80 84  1  0  0  0
 80 86  1  0  0  0
 80156  1  0  0  0
 81157  1  0  0  0
 81158  1  0  0  0
 81159  1  0  0  0
 81 83  1  0  0  0
 82160  1  0  0  0
 82161  1  0  0  0
 82162  1  0  0  0
 82 84  1  0  0  0
 83 86  1  0  0  0
 83163  1  0  0  0
 84164  1  0  0  0
 85165  1  0  0  0
 86166  1  0  0  0
 87167  1  0  0  0
M  CHG  1  86   1
M  ISO  4   1 100  68 101  84 101  85 100
M  END
> <chiral flag>
0

> <version>
0

> <s_m_source_file>
/data/baiqing/PycharmProjects/Reinvent-master-3.2/result/LINK_invent/BTK/process_docking_weight1_custom_product_contain_oxygen_bond_distance_aromatic_linkinvent_7_9_3/rearranged_h_0138.sdf

> <i_m_source_file_index>
6

> <r_mmod_Potential_Energy-OPLS-2005>
26.0847949981689

> <r_mmod_Stretch_Energy-OPLS-2005>
88.5725173950195

> <r_mmod_Bend_Energy-OPLS-2005>
159.428466796875

> <r_mmod_Torsional_Energy-OPLS-2005>
304.276275634766

> <r_mmod_Improper_Torsional_Energy-OPLS-2005>
4.36909627914429

> <r_mmod_Van_der_Waal_Energy-OPLS-2005>
137.830047607422

> <r_mmod_Electrostatic_Energy-OPLS-2005>
-284.787414550781

> <r_mmod_Solvation_Energy-OPLS-2005>
-430.179748535156

> <b_mmod_Minimization_Converged-OPLS-2005>
0

> <r_mmod_RMS_Derivative-OPLS-2005>
0.618548691272736

$$$$
6
                    3D
 Structure written by MMmdl.
158166  0  0  1  0            999 V2000
  -30.5629  -14.7243   20.4275 C   0  0  0  0  0  0
  -30.4283  -12.4302   19.4606 C   0  0  0  0  0  0
  -29.5053  -12.5088   18.2240 C   0  0  0  0  0  0
  -28.0315  -12.3341   18.6428 C   0  0  0  0  0  0
  -27.6467  -13.2207   19.8599 C   0  0  2  0  0  0
  -28.6895  -13.1114   20.9922 C   0  0  0  0  0  0
  -25.2529  -13.8163   20.5687 C   0  0  0  0  0  0
  -24.1813  -13.0436   20.9180 C   0  0  0  0  0  0
  -24.6388  -11.6893   20.8738 C   0  0  0  0  0  0
  -23.9061  -10.4285   21.0396 C   0  0  0  0  0  0
  -24.3616   -9.4195   21.9178 C   0  0  0  0  0  0
  -23.6280   -8.2241   22.0752 C   0  0  0  0  0  0
  -22.4254   -8.0280   21.3554 C   0  0  0  0  0  0
  -21.9899   -9.0247   20.4650 C   0  0  0  0  0  0
  -22.7234  -10.2121   20.3042 C   0  0  0  0  0  0
  -21.6853   -6.0719   22.5270 C   0  0  0  0  0  0
  -21.4029   -6.5630   23.8203 C   0  0  0  0  0  0
  -21.3655   -5.6792   24.9170 C   0  0  0  0  0  0
  -21.6036   -4.3049   24.7230 C   0  0  0  0  0  0
  -21.8824   -3.8132   23.4355 C   0  0  0  0  0  0
  -21.9201   -4.6946   22.3408 C   0  0  0  0  0  0
  -22.7834  -13.5203   21.1869 C   0  0  0  0  0  0
  -22.1659   -4.2126   21.0978 F   0  0  0  0  0  0
  -21.5626   -3.4527   25.7744 F   0  0  0  0  0  0
  -29.9916  -13.4736   20.4215 N   0  0  0  0  0  0
  -26.2963  -12.9367   20.3300 N   0  0  0  0  0  0
  -25.9315  -11.6511   20.5760 N   0  0  0  0  0  0
  -22.0497  -12.8203   22.0423 N   0  0  0  0  0  0
  -25.4209  -15.1910   20.4104 N   0  0  0  0  0  0
  -31.7234  -14.8675   20.0264 O   0  0  0  0  0  0
  -21.6633   -6.8862   21.4229 O   0  0  0  0  0  0
  -22.3528  -14.5518   20.6712 O   0  0  0  0  0  0
  -24.6321  -31.8578   23.2011 C   0  0  0  0  0  0
  -25.9146  -32.4747   23.8393 C   0  0  1  0  0  0
  -27.2035  -27.2845   20.0970 C   0  0  0  0  0  0
  -25.5945  -33.8562   24.2311 N   0  0  0  0  0  0
  -23.4261  -30.4838   21.5482 C   0  0  2  0  0  0
  -24.8611  -28.9344   20.1110 C   0  0  0  0  0  0
  -22.7543  -29.4595   22.4941 C   0  0  0  0  0  0
  -18.0370  -28.1399   22.8381 C   0  0  0  0  0  0
  -24.1488  -36.7280   23.2643 C   0  0  0  0  0  0
  -25.9745  -30.7709   21.3824 C   0  0  0  0  0  0
  -26.0348  -29.4003   20.7104 C   0  0  0  0  0  0
  -27.2100  -28.5889   20.6881 C   0  0  0  0  0  0
  -25.9952  -26.8686   19.4887 C   0  0  0  0  0  0
  -24.8465  -27.6789   19.4872 C   0  0  0  0  0  0
  -23.6388  -29.8253   20.1607 C   0  0  0  0  0  0
  -25.4121  -36.3084   24.0344 C   0  0  1  0  0  0
  -20.5968  -28.3584   23.1187 C   0  0  2  0  0  0
  -20.6780  -26.9341   22.5278 C   0  0  0  0  0  0
  -19.5771  -26.6480   21.5012 C   0  0  0  0  0  0
  -18.1971  -26.8026   22.1392 C   0  0  0  0  0  0
  -19.1631  -28.8798   23.2813 C   0  0  0  0  0  0
  -18.9564  -30.1370   23.8909 C   0  0  0  0  0  0
  -17.6566  -30.6495   24.0643 C   0  0  0  0  0  0
  -25.9057  -34.9436   23.5129 C   0  0  0  0  0  0
  -16.5465  -29.9046   23.6318 C   0  0  0  0  0  0
  -16.7377  -28.6513   23.0285 C   0  0  0  0  0  0
  -26.4531  -31.6577   25.0790 C   0  0  0  0  0  0
  -25.3750  -31.3667   26.1492 C   0  0  0  0  0  0
  -27.0374  -30.3012   24.6238 C   0  0  0  0  0  0
  -27.6109  -32.4328   25.7533 C   0  0  0  0  0  0
  -27.5592  -37.1783   24.8477 C   0  0  0  0  0  0
  -21.4294  -29.2878   22.3523 N   0  0  0  0  0  0
  -26.4302  -37.3782   23.9404 N   0  0  0  0  0  0
  -24.6978  -31.0543   22.0986 N   0  0  0  0  0  0
  -23.4212  -28.8288   23.3182 O   0  0  0  0  0  0
  -28.3357  -26.4504   20.1469 O   0  0  0  0  0  0
  -26.5631  -34.8865   22.4695 O   0  0  0  0  0  0
  -23.5469  -32.1420   23.7296 O   0  0  0  0  0  0
  -29.5354  -18.4181   18.0015 C   0  0  0  0  0  0
  -29.3067  -19.6253   18.6915 C   0  0  0  0  0  0
  -29.7076  -17.1990   18.6919 C   0  0  0  0  0  0
  -29.3631  -18.3816   20.7869 C   0  0  0  0  0  0
  -29.2104  -19.6557   20.1007 C   0  0  0  0  0  0
  -29.6534  -17.1330   20.1037 C   0  0  0  0  0  0
  -28.9466  -21.0107   20.8073 C   0  0  0  0  0  0
  -29.5181  -24.1920   21.7160 C   0  0  0  0  0  0
  -27.0715  -23.7348   21.3792 C   0  0  0  0  0  0
  -28.7888  -22.3810   19.9887 C   0  0  0  0  0  0
  -28.3637  -25.0415   19.6483 C   0  0  0  0  0  0
  -28.4424  -23.8135   20.6776 C   0  0  0  0  0  0
  -29.7716  -15.8148   20.7633 N   0  0  0  0  0  0
  -28.8664  -21.0505   22.0373 O   0  0  0  0  0  0
  -31.4717  -12.5533   19.1636 H   0  0  0  0  0  0
  -30.3646  -11.4403   19.9146 H   0  0  0  0  0  0
  -29.7751  -11.7420   17.4961 H   0  0  0  0  0  0
  -29.6365  -13.4668   17.7184 H   0  0  0  0  0  0
  -27.8849  -11.2824   18.8945 H   0  0  0  0  0  0
  -27.3676  -12.5324   17.7994 H   0  0  0  0  0  0
  -27.6546  -14.2495   19.5009 H   0  0  0  0  0  0
  -28.7256  -12.0972   21.3902 H   0  0  0  0  0  0
  -28.4312  -13.7517   21.8352 H   0  0  0  0  0  0
  -25.2762   -9.5670   22.4750 H   0  0  0  0  0  0
  -23.9979   -7.4639   22.7488 H   0  0  0  0  0  0
  -21.0816   -8.8776   19.8968 H   0  0  0  0  0  0
  -22.3690  -10.9663   19.6147 H   0  0  0  0  0  0
  -21.2021   -7.6136   23.9703 H   0  0  0  0  0  0
  -21.1469   -6.0513   25.9073 H   0  0  0  0  0  0
  -22.0606   -2.7584   23.2861 H   0  0  0  0  0  0
  -22.4120  -11.9837   22.4794 H   0  0  0  0  0  0
  -21.1136  -13.1237   22.2666 H   0  0  0  0  0  0
  -24.6509  -15.8400   20.5291 H   0  0  0  0  0  0
  -26.2632  -15.6375   20.0676 H   0  0  0  0  0  0
  -26.7247  -32.5382   23.1147 H   0  0  0  0  0  0
  -25.0064  -33.9732   25.0435 H   0  0  0  0  0  0
  -22.7207  -31.3081   21.4111 H   0  0  0  0  0  0
  -23.3745  -35.9610   23.3309 H   0  0  0  0  0  0
  -24.3572  -36.8893   22.2051 H   0  0  0  0  0  0
  -23.7219  -37.6471   23.6666 H   0  0  0  0  0  0
  -26.1313  -31.5332   20.6208 H   0  0  0  0  0  0
  -26.8451  -30.8000   22.0251 H   0  0  0  0  0  0
  -28.1205  -28.9456   21.1497 H   0  0  0  0  0  0
  -25.8843  -25.9032   19.0217 H   0  0  0  0  0  0
  -23.9427  -27.3194   19.0146 H   0  0  0  0  0  0
  -23.7840  -30.6103   19.4191 H   0  0  0  0  0  0
  -22.7516  -29.2781   19.8368 H   0  0  0  0  0  0
  -25.1287  -36.1968   25.0850 H   0  0  0  0  0  0
  -21.0090  -28.3184   24.1296 H   0  0  0  0  0  0
  -20.5515  -26.2209   23.3411 H   0  0  0  0  0  0
  -21.6658  -26.7308   22.1133 H   0  0  0  0  0  0
  -19.6872  -25.6393   21.0931 H   0  0  0  0  0  0
  -19.6728  -27.3424   20.6651 H   0  0  0  0  0  0
  -17.4281  -26.6911   21.3711 H   0  0  0  0  0  0
  -18.0228  -26.0095   22.8674 H   0  0  0  0  0  0
  -19.8072  -30.7102   24.2351 H   0  0  0  0  0  0
  -17.5139  -31.6110   24.5384 H   0  0  0  0  0  0
  -15.5481  -30.2944   23.7667 H   0  0  0  0  0  0
  -15.8751  -28.0874   22.6995 H   0  0  0  0  0  0
  -24.5941  -30.7030   25.7766 H   0  0  0  0  0  0
  -24.8906  -32.2790   26.4984 H   0  0  0  0  0  0
  -25.8053  -30.8772   27.0245 H   0  0  0  0  0  0
  -26.2944  -29.6745   24.1296 H   0  0  0  0  0  0
  -27.4121  -29.7288   25.4738 H   0  0  0  0  0  0
  -27.8815  -30.4307   23.9462 H   0  0  0  0  0  0
  -27.2762  -33.3646   26.2103 H   0  0  0  0  0  0
  -28.3885  -32.6864   25.0321 H   0  0  0  0  0  0
  -28.0830  -31.8468   26.5417 H   0  0  0  0  0  0
  -28.2636  -38.0064   24.7527 H   0  0  0  0  0  0
  -28.1070  -36.2590   24.6322 H   0  0  0  0  0  0
  -27.2306  -37.1469   25.8884 H   0  0  0  0  0  0
  -20.9630  -29.8253   21.6350 H   0  0  0  0  0  0
  -26.0191  -38.2875   24.1344 H   0  0  0  0  0  0
  -29.5766  -18.4260   16.9215 H   0  0  0  0  0  0
  -29.1938  -20.5345   18.1150 H   0  0  0  0  0  0
  -29.8549  -16.3015   18.1109 H   0  0  0  0  0  0
  -29.2539  -18.3734   21.8617 H   0  0  0  0  0  0
  -29.5937  -23.4648   22.5231 H   0  0  0  0  0  0
  -29.2805  -25.1498   22.1805 H   0  0  0  0  0  0
  -30.5067  -24.2858   21.2586 H   0  0  0  0  0  0
  -27.0669  -23.0022   22.1854 H   0  0  0  0  0  0
  -26.2852  -23.4621   20.6752 H   0  0  0  0  0  0
  -26.7974  -24.6951   21.8215 H   0  0  0  0  0  0
  -28.0207  -22.2037   19.2345 H   0  0  0  0  0  0
  -29.7156  -22.4997   19.4256 H   0  0  0  0  0  0
  -27.5872  -24.8351   18.9163 H   0  0  0  0  0  0
  -29.2723  -24.9816   19.0466 H   0  0  0  0  0  0
  -29.0183  -15.6024   21.3992 H   0  0  0  0  0  0
  1 25  1  0  0  0
  1 30  2  0  0  0
  1 83  1  0  0  0
  2  3  1  0  0  0
  2 25  1  0  0  0
  2 85  1  0  0  0
  2 86  1  0  0  0
  3  4  1  0  0  0
  3 87  1  0  0  0
  3 88  1  0  0  0
  4  5  1  0  0  0
  4 89  1  0  0  0
  4 90  1  0  0  0
  5  6  1  0  0  0
  5 26  1  0  0  0
  5 91  1  0  0  0
  6 25  1  0  0  0
  6 92  1  0  0  0
  6 93  1  0  0  0
  7  8  2  0  0  0
  7 26  1  0  0  0
  7 29  1  0  0  0
  8  9  1  0  0  0
  8 22  1  0  0  0
  9 10  1  0  0  0
  9 27  2  0  0  0
 10 11  2  0  0  0
 10 15  1  0  0  0
 11 12  1  0  0  0
 11 94  1  0  0  0
 12 13  2  0  0  0
 12 95  1  0  0  0
 13 14  1  0  0  0
 13 31  1  0  0  0
 14 15  2  0  0  0
 14 96  1  0  0  0
 15 97  1  0  0  0
 16 17  2  0  0  0
 16 21  1  0  0  0
 16 31  1  0  0  0
 17 18  1  0  0  0
 17 98  1  0  0  0
 18 19  2  0  0  0
 18 99  1  0  0  0
 19 20  1  0  0  0
 19 24  1  0  0  0
 20 21  2  0  0  0
 20100  1  0  0  0
 21 23  1  0  0  0
 22 28  1  0  0  0
 22 32  2  0  0  0
 26 27  1  0  0  0
 28101  1  0  0  0
 28102  1  0  0  0
 29103  1  0  0  0
 29104  1  0  0  0
 33 34  1  0  0  0
 33 66  1  0  0  0
 33 70  2  0  0  0
 34 36  1  0  0  0
 34 59  1  0  0  0
 34105  1  0  0  0
 35 44  2  0  0  0
 35 45  1  0  0  0
 35 68  1  0  0  0
 36 56  1  0  0  0
 36106  1  0  0  0
 37 39  1  0  0  0
 37 47  1  0  0  0
 37 66  1  0  0  0
 37107  1  0  0  0
 38 43  2  0  0  0
 38 46  1  0  0  0
 38 47  1  0  0  0
 39 64  1  0  0  0
 39 67  2  0  0  0
 40 52  1  0  0  0
 40 53  2  0  0  0
 40 58  1  0  0  0
 41108  1  0  0  0
 41109  1  0  0  0
 41110  1  0  0  0
 41 48  1  0  0  0
 42 43  1  0  0  0
 42 66  1  0  0  0
 42111  1  0  0  0
 42112  1  0  0  0
 43 44  1  0  0  0
 44113  1  0  0  0
 45 46  2  0  0  0
 45114  1  0  0  0
 46115  1  0  0  0
 47116  1  0  0  0
 47117  1  0  0  0
 48 56  1  0  0  0
 48 65  1  0  0  0
 48118  1  0  0  0
 49 50  1  0  0  0
 49 53  1  0  0  0
 49 64  1  0  0  0
 49119  1  0  0  0
 50 51  1  0  0  0
 50120  1  0  0  0
 50121  1  0  0  0
 51 52  1  0  0  0
 51122  1  0  0  0
 51123  1  0  0  0
 52124  1  0  0  0
 52125  1  0  0  0
 53 54  1  0  0  0
 54 55  2  0  0  0
 54126  1  0  0  0
 55 57  1  0  0  0
 55127  1  0  0  0
 56 69  2  0  0  0
 57 58  2  0  0  0
 57128  1  0  0  0
 58129  1  0  0  0
 59 60  1  0  0  0
 59 61  1  0  0  0
 59 62  1  0  0  0
 60130  1  0  0  0
 60131  1  0  0  0
 60132  1  0  0  0
 61133  1  0  0  0
 61134  1  0  0  0
 61135  1  0  0  0
 62136  1  0  0  0
 62137  1  0  0  0
 62138  1  0  0  0
 63 65  1  0  0  0
 63139  1  0  0  0
 63140  1  0  0  0
 63141  1  0  0  0
 64142  1  0  0  0
 65143  1  0  0  0
 68 81  1  0  0  0
 71 72  2  0  0  0
 71 73  1  0  0  0
 71144  1  0  0  0
 72 75  1  0  0  0
 72145  1  0  0  0
 73 76  2  0  0  0
 73146  1  0  0  0
 74 75  2  0  0  0
 74 76  1  0  0  0
 74147  1  0  0  0
 75 77  1  0  0  0
 76 83  1  0  0  0
 77 80  1  0  0  0
 77 84  2  0  0  0
 78148  1  0  0  0
 78149  1  0  0  0
 78150  1  0  0  0
 78 82  1  0  0  0
 79 82  1  0  0  0
 79151  1  0  0  0
 79152  1  0  0  0
 79153  1  0  0  0
 80 82  1  0  0  0
 80154  1  0  0  0
 80155  1  0  0  0
 81 82  1  0  0  0
 81156  1  0  0  0
 81157  1  0  0  0
 83158  1  0  0  0
M  ISO  4   1 100  68 101  81 101  83 100
M  END
> <chiral flag>
0

> <version>
0

> <s_m_source_file>
/data/baiqing/PycharmProjects/Reinvent-master-3.2/result/LINK_invent/BTK/process_docking_weight1_custom_product_contain_oxygen_bond_distance_aromatic_linkinvent_7_9_3/rearranged_h_0138.sdf

> <i_m_source_file_index>
7

> <r_mmod_Potential_Energy-OPLS-2005>
167.372924804688

> <r_mmod_Stretch_Energy-OPLS-2005>
111.67261505127

> <r_mmod_Bend_Energy-OPLS-2005>
160.508346557617

> <r_mmod_Torsional_Energy-OPLS-2005>
241.638626098633

> <r_mmod_Improper_Torsional_Energy-OPLS-2005>
4.32892656326294

> <r_mmod_Van_der_Waal_Energy-OPLS-2005>
137.698287963867

> <r_mmod_Electrostatic_Energy-OPLS-2005>
-347.974273681641

> <r_mmod_Solvation_Energy-OPLS-2005>
-214.212844848633

> <b_mmod_Minimization_Converged-OPLS-2005>
0

> <r_mmod_RMS_Derivative-OPLS-2005>
5.92698431015015

$$$$
7
                    3D
 Structure written by MMmdl.
160168  0  0  1  0            999 V2000
  -30.5365  -15.0242   20.3709 C   0  0  0  0  0  0
  -30.4296  -12.6340   19.5109 C   0  0  0  0  0  0
  -29.5225  -12.5329   18.2632 C   0  0  0  0  0  0
  -28.0579  -12.3102   18.6815 C   0  0  0  0  0  0
  -27.6205  -13.2598   19.8281 C   0  0  2  0  0  0
  -28.6594  -13.3405   20.9653 C   0  0  0  0  0  0
  -25.2430  -13.8244   20.5723 C   0  0  0  0  0  0
  -24.1761  -13.0451   20.9231 C   0  0  0  0  0  0
  -24.6399  -11.6942   20.8755 C   0  0  0  0  0  0
  -23.9086  -10.4305   21.0400 C   0  0  0  0  0  0
  -24.3636   -9.4215   21.9172 C   0  0  0  0  0  0
  -23.6309   -8.2252   22.0746 C   0  0  0  0  0  0
  -22.4290   -8.0291   21.3536 C   0  0  0  0  0  0
  -21.9929   -9.0261   20.4637 C   0  0  0  0  0  0
  -22.7259  -10.2138   20.3046 C   0  0  0  0  0  0
  -21.6861   -6.0748   22.5283 C   0  0  0  0  0  0
  -21.4013   -6.5646   23.8216 C   0  0  0  0  0  0
  -21.3655   -5.6792   24.9174 C   0  0  0  0  0  0
  -21.6046   -4.3057   24.7218 C   0  0  0  0  0  0
  -21.8819   -3.8155   23.4337 C   0  0  0  0  0  0
  -21.9194   -4.6978   22.3399 C   0  0  0  0  0  0
  -22.7781  -13.5210   21.1874 C   0  0  0  0  0  0
  -22.1666   -4.2172   21.0974 F   0  0  0  0  0  0
  -21.5622   -3.4535   25.7722 F   0  0  0  0  0  0
  -29.9237  -13.7634   20.3534 N   0  0  0  0  0  0
  -26.2850  -12.9500   20.3220 N   0  0  0  0  0  0
  -25.9328  -11.6618   20.5725 N   0  0  0  0  0  0
  -22.0432  -12.8200   22.0433 N   0  0  0  0  0  0
  -25.4096  -15.1979   20.4173 N   0  0  0  0  0  0
  -31.7594  -14.9981   20.1909 O   0  0  0  0  0  0
  -21.6641   -6.8893   21.4246 O   0  0  0  0  0  0
  -22.3461  -14.5503   20.6708 O   0  0  0  0  0  0
  -24.6505  -31.8372   23.1841 C   0  0  0  0  0  0
  -25.9250  -32.4644   23.8259 C   0  0  1  0  0  0
  -27.2102  -27.0750   20.1607 C   0  0  0  0  0  0
  -25.5969  -33.8464   24.2173 N   0  0  0  0  0  0
  -23.4552  -30.4560   21.5330 C   0  0  2  0  0  0
  -24.9047  -28.8749   20.1122 C   0  0  0  0  0  0
  -22.7592  -29.4519   22.4866 C   0  0  0  0  0  0
  -18.0308  -28.1400   22.8473 C   0  0  0  0  0  0
  -24.1492  -36.7228   23.2634 C   0  0  0  0  0  0
  -26.0160  -30.6946   21.3914 C   0  0  0  0  0  0
  -26.0861  -29.3005   20.7330 C   0  0  0  0  0  0
  -27.2400  -28.4167   20.7394 C   0  0  0  0  0  0
  -26.0030  -26.7740   19.4902 C   0  0  0  0  0  0
  -24.8792  -27.6280   19.4747 C   0  0  0  0  0  0
  -23.6846  -29.7845   20.1541 C   0  0  0  0  0  0
  -25.4129  -36.3015   24.0296 C   0  0  1  0  0  0
  -20.5923  -28.3724   23.1233 C   0  0  2  0  0  0
  -20.6788  -26.9430   22.5390 C   0  0  0  0  0  0
  -19.5754  -26.6376   21.5212 C   0  0  0  0  0  0
  -18.1940  -26.7931   22.1632 C   0  0  0  0  0  0
  -19.1562  -28.8882   23.2848 C   0  0  0  0  0  0
  -18.9478  -30.1478   23.8875 C   0  0  0  0  0  0
  -17.6467  -30.6598   24.0550 C   0  0  0  0  0  0
  -25.9082  -34.9373   23.5050 C   0  0  0  0  0  0
  -16.5361  -29.9077   23.6343 C   0  0  0  0  0  0
  -16.7289  -28.6489   23.0367 C   0  0  0  0  0  0
  -26.4557  -31.6547   25.0729 C   0  0  0  0  0  0
  -25.3704  -31.3752   26.1401 C   0  0  0  0  0  0
  -27.0445  -30.2937   24.6359 C   0  0  0  0  0  0
  -27.6084  -32.4354   25.7502 C   0  0  0  0  0  0
  -27.5574  -37.1797   24.8458 C   0  0  0  0  0  0
  -21.4275  -29.3050   22.3616 N   0  0  0  0  0  0
  -26.4290  -37.3743   23.9392 N   0  0  0  0  0  0
  -24.7280  -31.0168   22.0922 N   0  0  0  0  0  0
  -23.4199  -28.8072   23.3039 O   0  0  0  0  0  0
  -28.2414  -26.0466   20.2119 O   0  0  0  0  0  0
  -26.5683  -34.8879   22.4635 O   0  0  0  0  0  0
  -23.5612  -32.1310   23.7004 O   0  0  0  0  0  0
  -30.9986  -18.2630   17.4654 C   0  0  0  0  0  0
  -30.9596  -17.4568   18.6053 C   0  0  0  0  0  0
  -29.9881  -19.1996   17.2384 C   0  0  0  0  0  0
  -29.0334  -19.4455   18.2534 C   0  0  0  0  0  0
  -30.0234  -17.6291   19.6597 C   0  0  0  0  0  0
  -29.2813  -18.9753   19.5856 C   0  0  0  0  0  0
  -29.9979  -19.9350   15.9067 C   0  0  0  0  0  0
  -26.9466  -19.7372   16.7045 C   0  0  0  0  0  0
  -27.7516  -20.2195   17.9235 C   0  0  0  0  0  0
  -28.9170  -23.0909   20.2230 C   0  0  0  0  0  0
  -27.9174  -24.4920   20.2616 C   0  0  0  0  0  0
  -28.4208  -21.4813   20.5476 C   0  0  0  0  0  0
  -29.8172  -16.2826   20.4216 N   0  0  0  0  0  0
  -29.1089  -20.0401   20.5927 O   0  0  0  0  0  0
  -31.4650  -12.7818   19.2000 H   0  0  0  0  0  0
  -30.4237  -11.6985   20.0732 H   0  0  0  0  0  0
  -29.8555  -11.7217   17.6144 H   0  0  0  0  0  0
  -29.6043  -13.4502   17.6779 H   0  0  0  0  0  0
  -27.9678  -11.2731   19.0089 H   0  0  0  0  0  0
  -27.3958  -12.4171   17.8220 H   0  0  0  0  0  0
  -27.5677  -14.2505   19.3744 H   0  0  0  0  0  0
  -28.7668  -12.3827   21.4762 H   0  0  0  0  0  0
  -28.3465  -14.0637   21.7201 H   0  0  0  0  0  0
  -25.2782   -9.5697   22.4739 H   0  0  0  0  0  0
  -24.0024   -7.4644   22.7468 H   0  0  0  0  0  0
  -21.0861   -8.8783   19.8939 H   0  0  0  0  0  0
  -22.3724  -10.9674   19.6151 H   0  0  0  0  0  0
  -21.2004   -7.6155   23.9730 H   0  0  0  0  0  0
  -21.1474   -6.0514   25.9079 H   0  0  0  0  0  0
  -22.0599   -2.7623   23.2823 H   0  0  0  0  0  0
  -22.4083  -11.9894   22.4851 H   0  0  0  0  0  0
  -21.1027  -13.1187   22.2592 H   0  0  0  0  0  0
  -24.6368  -15.8455   20.5245 H   0  0  0  0  0  0
  -26.2529  -15.6433   20.0797 H   0  0  0  0  0  0
  -26.7330  -32.5217   23.1000 H   0  0  0  0  0  0
  -25.0101  -33.9555   25.0308 H   0  0  0  0  0  0
  -22.7625  -31.2848   21.3740 H   0  0  0  0  0  0
  -23.3762  -35.9558   23.3284 H   0  0  0  0  0  0
  -24.3576  -36.8878   22.2049 H   0  0  0  0  0  0
  -23.7216  -37.6410   23.6675 H   0  0  0  0  0  0
  -26.8814  -30.7444   22.0407 H   0  0  0  0  0  0
  -26.1796  -31.4498   20.6208 H   0  0  0  0  0  0
  -28.1378  -28.7403   21.2476 H   0  0  0  0  0  0
  -25.8868  -25.8343   18.9757 H   0  0  0  0  0  0
  -23.9801  -27.3008   18.9692 H   0  0  0  0  0  0
  -23.8237  -30.5588   19.3983 H   0  0  0  0  0  0
  -22.7962  -29.2319   19.8415 H   0  0  0  0  0  0
  -25.1328  -36.1860   25.0791 H   0  0  0  0  0  0
  -21.0021  -28.3298   24.1351 H   0  0  0  0  0  0
  -20.5687  -26.2336   23.3616 H   0  0  0  0  0  0
  -21.6659  -26.7433   22.1191 H   0  0  0  0  0  0
  -19.6922  -25.6277   21.1261 H   0  0  0  0  0  0
  -19.6693  -27.3176   20.6738 H   0  0  0  0  0  0
  -17.4205  -26.6672   21.4040 H   0  0  0  0  0  0
  -18.0346  -26.0105   22.9062 H   0  0  0  0  0  0
  -19.7951  -30.7294   24.2254 H   0  0  0  0  0  0
  -17.5022  -31.6279   24.5149 H   0  0  0  0  0  0
  -15.5361  -30.2958   23.7702 H   0  0  0  0  0  0
  -15.8692  -28.0789   22.7119 H   0  0  0  0  0  0
  -24.5896  -30.7096   25.7699 H   0  0  0  0  0  0
  -24.8863  -32.2932   26.4750 H   0  0  0  0  0  0
  -25.7936  -30.8961   27.0242 H   0  0  0  0  0  0
  -26.3087  -29.6653   24.1327 H   0  0  0  0  0  0
  -27.4005  -29.7245   25.4953 H   0  0  0  0  0  0
  -27.9007  -30.4157   23.9724 H   0  0  0  0  0  0
  -27.2676  -33.3695   26.1995 H   0  0  0  0  0  0
  -28.3921  -32.6875   25.0345 H   0  0  0  0  0  0
  -28.0747  -31.8551   26.5480 H   0  0  0  0  0  0
  -28.2609  -38.0090   24.7541 H   0  0  0  0  0  0
  -28.1054  -36.2617   24.6268 H   0  0  0  0  0  0
  -27.2278  -37.1440   25.8861 H   0  0  0  0  0  0
  -20.9504  -29.8784   21.6811 H   0  0  0  0  0  0
  -26.0142  -38.2807   24.1410 H   0  0  0  0  0  0
  -31.7282  -18.0517   16.6960 H   0  0  0  0  0  0
  -31.6464  -16.6302   18.5660 H   0  0  0  0  0  0
  -31.0213  -20.1078   15.5719 H   0  0  0  0  0  0
  -29.5200  -20.9122   15.9751 H   0  0  0  0  0  0
  -29.4984  -19.3466   15.1370 H   0  0  0  0  0  0
  -25.9998  -20.2755   16.6637 H   0  0  0  0  0  0
  -26.7115  -18.6750   16.7753 H   0  0  0  0  0  0
  -27.4319  -19.9158   15.7503 H   0  0  0  0  0  0
  -27.9529  -21.2888   17.8484 H   0  0  0  0  0  0
  -27.0551  -20.0434   18.7382 H   0  0  0  0  0  0
  -29.7415  -23.2840   20.9065 H   0  0  0  0  0  0
  -29.3810  -23.0744   19.2379 H   0  0  0  0  0  0
  -27.3179  -24.3854   21.1666 H   0  0  0  0  0  0
  -27.2157  -24.3061   19.4517 H   0  0  0  0  0  0
  -27.4076  -21.4017   20.1732 H   0  0  0  0  0  0
  -28.2018  -21.5738   21.6119 H   0  0  0  0  0  0
  -28.8933  -16.1882   20.8160 H   0  0  0  0  0  0
  1 25  1  0  0  0
  1 30  2  0  0  0
  1 83  1  0  0  0
  2  3  1  0  0  0
  2 25  1  0  0  0
  2 85  1  0  0  0
  2 86  1  0  0  0
  3  4  1  0  0  0
  3 87  1  0  0  0
  3 88  1  0  0  0
  4  5  1  0  0  0
  4 89  1  0  0  0
  4 90  1  0  0  0
  5  6  1  0  0  0
  5 26  1  0  0  0
  5 91  1  0  0  0
  6 25  1  0  0  0
  6 92  1  0  0  0
  6 93  1  0  0  0
  7  8  2  0  0  0
  7 26  1  0  0  0
  7 29  1  0  0  0
  8  9  1  0  0  0
  8 22  1  0  0  0
  9 10  1  0  0  0
  9 27  2  0  0  0
 10 11  2  0  0  0
 10 15  1  0  0  0
 11 12  1  0  0  0
 11 94  1  0  0  0
 12 13  2  0  0  0
 12 95  1  0  0  0
 13 14  1  0  0  0
 13 31  1  0  0  0
 14 15  2  0  0  0
 14 96  1  0  0  0
 15 97  1  0  0  0
 16 17  2  0  0  0
 16 21  1  0  0  0
 16 31  1  0  0  0
 17 18  1  0  0  0
 17 98  1  0  0  0
 18 19  2  0  0  0
 18 99  1  0  0  0
 19 20  1  0  0  0
 19 24  1  0  0  0
 20 21  2  0  0  0
 20100  1  0  0  0
 21 23  1  0  0  0
 22 28  1  0  0  0
 22 32  2  0  0  0
 26 27  1  0  0  0
 28101  1  0  0  0
 28102  1  0  0  0
 29103  1  0  0  0
 29104  1  0  0  0
 33 34  1  0  0  0
 33 66  1  0  0  0
 33 70  2  0  0  0
 34 36  1  0  0  0
 34 59  1  0  0  0
 34105  1  0  0  0
 35 44  2  0  0  0
 35 45  1  0  0  0
 35 68  1  0  0  0
 36 56  1  0  0  0
 36106  1  0  0  0
 37 39  1  0  0  0
 37 47  1  0  0  0
 37 66  1  0  0  0
 37107  1  0  0  0
 38 43  2  0  0  0
 38 46  1  0  0  0
 38 47  1  0  0  0
 39 64  1  0  0  0
 39 67  2  0  0  0
 40 52  1  0  0  0
 40 53  2  0  0  0
 40 58  1  0  0  0
 41108  1  0  0  0
 41109  1  0  0  0
 41110  1  0  0  0
 41 48  1  0  0  0
 42 43  1  0  0  0
 42 66  1  0  0  0
 42111  1  0  0  0
 42112  1  0  0  0
 43 44  1  0  0  0
 44113  1  0  0  0
 45 46  2  0  0  0
 45114  1  0  0  0
 46115  1  0  0  0
 47116  1  0  0  0
 47117  1  0  0  0
 48 56  1  0  0  0
 48 65  1  0  0  0
 48118  1  0  0  0
 49 50  1  0  0  0
 49 53  1  0  0  0
 49 64  1  0  0  0
 49119  1  0  0  0
 50 51  1  0  0  0
 50120  1  0  0  0
 50121  1  0  0  0
 51 52  1  0  0  0
 51122  1  0  0  0
 51123  1  0  0  0
 52124  1  0  0  0
 52125  1  0  0  0
 53 54  1  0  0  0
 54 55  2  0  0  0
 54126  1  0  0  0
 55 57  1  0  0  0
 55127  1  0  0  0
 56 69  2  0  0  0
 57 58  2  0  0  0
 57128  1  0  0  0
 58129  1  0  0  0
 59 60  1  0  0  0
 59 61  1  0  0  0
 59 62  1  0  0  0
 60130  1  0  0  0
 60131  1  0  0  0
 60132  1  0  0  0
 61133  1  0  0  0
 61134  1  0  0  0
 61135  1  0  0  0
 62136  1  0  0  0
 62137  1  0  0  0
 62138  1  0  0  0
 63 65  1  0  0  0
 63139  1  0  0  0
 63140  1  0  0  0
 63141  1  0  0  0
 64142  1  0  0  0
 65143  1  0  0  0
 68 81  1  0  0  0
 71 72  2  0  0  0
 71 73  1  0  0  0
 71144  1  0  0  0
 72 75  1  0  0  0
 72145  1  0  0  0
 73 74  2  0  0  0
 73 77  1  0  0  0
 74 76  1  0  0  0
 74 79  1  0  0  0
 75 76  2  0  0  0
 75 83  1  0  0  0
 76 84  1  0  0  0
 77146  1  0  0  0
 77147  1  0  0  0
 77148  1  0  0  0
 78 79  1  0  0  0
 78149  1  0  0  0
 78150  1  0  0  0
 78151  1  0  0  0
 79152  1  0  0  0
 79153  1  0  0  0
 80 81  1  0  0  0
 80 82  1  0  0  0
 80154  1  0  0  0
 80155  1  0  0  0
 81156  1  0  0  0
 81157  1  0  0  0
 82 84  1  0  0  0
 82158  1  0  0  0
 82159  1  0  0  0
 83160  1  0  0  0
M  ISO  4   1 100  68 101  81 101  83 100
M  END
> <chiral flag>
0

> <version>
0

> <s_m_source_file>
/data/baiqing/PycharmProjects/Reinvent-master-3.2/result/LINK_invent/BTK/process_docking_weight1_custom_product_contain_oxygen_bond_distance_aromatic_linkinvent_7_9_3/rearranged_h_0138.sdf

> <i_m_source_file_index>
8

> <r_mmod_Potential_Energy-OPLS-2005>
948.425598144531

> <r_mmod_Stretch_Energy-OPLS-2005>
374.368103027344

> <r_mmod_Bend_Energy-OPLS-2005>
384.542266845703

> <r_mmod_Torsional_Energy-OPLS-2005>
383.705963134766

> <r_mmod_Improper_Torsional_Energy-OPLS-2005>
10.289589881897

> <r_mmod_Van_der_Waal_Energy-OPLS-2005>
158.746536254883

> <r_mmod_Electrostatic_Energy-OPLS-2005>
-403.174407958984

> <r_mmod_Solvation_Energy-OPLS-2005>
-210.023681640625

> <b_mmod_Minimization_Converged-OPLS-2005>
0

> <r_mmod_RMS_Derivative-OPLS-2005>
2.46940398216248

$$$$
8
                    3D
 Structure written by MMmdl.
162170  0  0  1  0            999 V2000
  -30.6340  -14.7368   20.4046 C   0  0  0  0  0  0
  -30.3984  -12.4207   19.4868 C   0  0  0  0  0  0
  -29.5091  -12.5175   18.2248 C   0  0  0  0  0  0
  -28.0218  -12.3837   18.6123 C   0  0  0  0  0  0
  -27.6421  -13.2431   19.8469 C   0  0  2  0  0  0
  -28.6848  -13.1651   20.9869 C   0  0  0  0  0  0
  -25.2575  -13.8284   20.5669 C   0  0  0  0  0  0
  -24.1798  -13.0509   20.9215 C   0  0  0  0  0  0
  -24.6402  -11.7011   20.8720 C   0  0  0  0  0  0
  -23.9072  -10.4350   21.0409 C   0  0  0  0  0  0
  -24.3628   -9.4305   21.9189 C   0  0  0  0  0  0
  -23.6304   -8.2324   22.0753 C   0  0  0  0  0  0
  -22.4296   -8.0357   21.3557 C   0  0  0  0  0  0
  -21.9925   -9.0336   20.4632 C   0  0  0  0  0  0
  -22.7234  -10.2207   20.3033 C   0  0  0  0  0  0
  -21.6868   -6.0775   22.5298 C   0  0  0  0  0  0
  -21.4023   -6.5636   23.8232 C   0  0  0  0  0  0
  -21.3645   -5.6765   24.9185 C   0  0  0  0  0  0
  -21.6063   -4.3039   24.7229 C   0  0  0  0  0  0
  -21.8797   -3.8151   23.4310 C   0  0  0  0  0  0
  -21.9191   -4.6981   22.3398 C   0  0  0  0  0  0
  -22.7878  -13.5398   21.1833 C   0  0  0  0  0  0
  -22.1659   -4.2196   21.0968 F   0  0  0  0  0  0
  -21.5651   -3.4488   25.7722 F   0  0  0  0  0  0
  -29.9970  -13.5036   20.4180 N   0  0  0  0  0  0
  -26.2939  -12.9490   20.3232 N   0  0  0  0  0  0
  -25.9316  -11.6614   20.5627 N   0  0  0  0  0  0
  -22.0403  -12.8397   22.0426 N   0  0  0  0  0  0
  -25.4316  -15.1970   20.4085 N   0  0  0  0  0  0
  -31.7850  -14.8135   19.9615 O   0  0  0  0  0  0
  -21.6659   -6.8950   21.4270 O   0  0  0  0  0  0
  -22.3581  -14.5627   20.6660 O   0  0  0  0  0  0
  -24.6371  -31.8477   23.1898 C   0  0  0  0  0  0
  -25.9274  -32.4625   23.8228 C   0  0  1  0  0  0
  -27.2166  -27.2109   20.1116 C   0  0  0  0  0  0
  -25.6097  -33.8426   24.2172 N   0  0  0  0  0  0
  -23.4434  -30.4711   21.5241 C   0  0  2  0  0  0
  -24.8908  -28.8960   20.1119 C   0  0  0  0  0  0
  -22.7500  -29.4596   22.4732 C   0  0  0  0  0  0
  -18.0306  -28.1220   22.8484 C   0  0  0  0  0  0
  -24.1545  -36.7196   23.2608 C   0  0  0  0  0  0
  -25.9974  -30.7146   21.4146 C   0  0  0  0  0  0
  -26.0535  -29.3339   20.7538 C   0  0  0  0  0  0
  -27.2055  -28.4854   20.7771 C   0  0  0  0  0  0
  -26.0439  -26.8619   19.4161 C   0  0  0  0  0  0
  -24.8838  -27.6613   19.4373 C   0  0  0  0  0  0
  -23.6909  -29.8077   20.1407 C   0  0  0  0  0  0
  -25.4154  -36.2904   24.0254 C   0  0  1  0  0  0
  -20.5891  -28.3670   23.1209 C   0  0  2  0  0  0
  -20.6789  -26.9289   22.5528 C   0  0  0  0  0  0
  -19.5810  -26.6226   21.5284 C   0  0  0  0  0  0
  -18.2026  -26.7749   22.1678 C   0  0  0  0  0  0
  -19.1523  -28.8749   23.2852 C   0  0  0  0  0  0
  -18.9445  -30.1351   23.8814 C   0  0  0  0  0  0
  -17.6496  -30.6561   24.0456 C   0  0  0  0  0  0
  -25.9114  -34.9312   23.4982 C   0  0  0  0  0  0
  -16.5384  -29.8931   23.6294 C   0  0  0  0  0  0
  -16.7281  -28.6349   23.0359 C   0  0  0  0  0  0
  -26.4600  -31.6424   25.0603 C   0  0  0  0  0  0
  -25.3794  -31.3649   26.1287 C   0  0  0  0  0  0
  -27.0523  -30.2801   24.6214 C   0  0  0  0  0  0
  -27.6133  -32.4198   25.7359 C   0  0  0  0  0  0
  -27.5583  -37.1741   24.8447 C   0  0  0  0  0  0
  -21.4176  -29.3107   22.3593 N   0  0  0  0  0  0
  -26.4291  -37.3646   23.9379 N   0  0  0  0  0  0
  -24.7088  -31.0306   22.0950 N   0  0  0  0  0  0
  -23.4161  -28.8216   23.2923 O   0  0  0  0  0  0
  -28.3019  -26.3009   20.1100 O   0  0  0  0  0  0
  -26.5608  -34.8816   22.4479 O   0  0  0  0  0  0
  -23.5525  -32.1472   23.6994 O   0  0  0  0  0  0
  -29.0980  -16.8731   18.6205 C   0  0  0  0  0  0
  -29.7680  -18.4929   20.2701 C   0  0  0  0  0  0
  -28.7790  -19.3027   18.1674 C   0  0  0  0  0  0
  -28.6250  -17.9222   17.7871 C   0  0  0  0  0  0
  -29.6607  -17.0895   19.9000 C   0  0  0  0  0  0
  -29.3631  -19.6232   19.4359 C   0  0  0  0  0  0
  -28.5341  -20.4286   17.2013 C   0  0  0  0  0  0
  -27.9734  -17.4753   16.4756 C   0  0  0  0  0  0
  -27.1064  -20.7871   16.7588 C   0  0  0  0  0  0
  -30.5242  -24.0179   20.1138 C   0  0  0  0  0  0
  -28.0474  -24.8178   20.3224 C   0  0  0  0  0  0
  -28.6826  -22.0871   19.9593 C   0  0  0  0  0  0
  -29.0610  -23.6703   19.7091 C   0  0  2  0  0  0
  -29.9564  -15.8935   20.7606 N   0  0  0  0  0  0
  -29.4495  -21.1614   16.8194 O   0  0  0  0  0  0
  -29.6802  -20.9770   19.7969 O   0  0  0  0  0  0
  -31.4533  -12.4597   19.2118 H   0  0  0  0  0  0
  -30.2490  -11.4461   19.9569 H   0  0  0  0  0  0
  -29.7820  -11.7454   17.5023 H   0  0  0  0  0  0
  -29.6814  -13.4595   17.7070 H   0  0  0  0  0  0
  -27.8250  -11.3311   18.8136 H   0  0  0  0  0  0
  -27.3888  -12.6569   17.7671 H   0  0  0  0  0  0
  -27.6470  -14.2748   19.4986 H   0  0  0  0  0  0
  -28.7041  -12.1618   21.4230 H   0  0  0  0  0  0
  -28.4203  -13.8457   21.8013 H   0  0  0  0  0  0
  -25.2733   -9.5843   22.4818 H   0  0  0  0  0  0
  -24.0032   -7.4704   22.7450 H   0  0  0  0  0  0
  -21.0878   -8.8883   19.8885 H   0  0  0  0  0  0
  -22.3716  -10.9810   19.6162 H   0  0  0  0  0  0
  -21.2036   -7.6131   23.9790 H   0  0  0  0  0  0
  -21.1451   -6.0455   25.9102 H   0  0  0  0  0  0
  -22.0556   -2.7622   23.2801 H   0  0  0  0  0  0
  -22.3957  -12.0133   22.4949 H   0  0  0  0  0  0
  -21.0979  -13.1485   22.2365 H   0  0  0  0  0  0
  -24.6723  -15.8602   20.5179 H   0  0  0  0  0  0
  -26.2899  -15.6233   20.0841 H   0  0  0  0  0  0
  -26.7354  -32.5343   23.0986 H   0  0  0  0  0  0
  -25.0533  -33.9574   25.0518 H   0  0  0  0  0  0
  -22.7565  -31.3011   21.3463 H   0  0  0  0  0  0
  -23.3764  -35.9596   23.3222 H   0  0  0  0  0  0
  -24.3673  -36.8892   22.2052 H   0  0  0  0  0  0
  -23.7388  -37.6395   23.6702 H   0  0  0  0  0  0
  -26.1972  -31.4792   20.6650 H   0  0  0  0  0  0
  -26.8559  -30.7373   22.0722 H   0  0  0  0  0  0
  -28.0643  -28.7679   21.3660 H   0  0  0  0  0  0
  -26.0178  -25.9425   18.8510 H   0  0  0  0  0  0
  -24.0002  -27.3135   18.9156 H   0  0  0  0  0  0
  -23.9074  -30.5822   19.4021 H   0  0  0  0  0  0
  -22.8104  -29.2722   19.7806 H   0  0  0  0  0  0
  -25.1330  -36.1677   25.0748 H   0  0  0  0  0  0
  -20.9871  -28.3336   24.1370 H   0  0  0  0  0  0
  -20.5380  -26.2304   23.3824 H   0  0  0  0  0  0
  -21.6633  -26.7091   22.1412 H   0  0  0  0  0  0
  -19.7015  -25.6097   21.1384 H   0  0  0  0  0  0
  -19.6716  -27.3014   20.6822 H   0  0  0  0  0  0
  -17.4245  -26.6357   21.4194 H   0  0  0  0  0  0
  -18.0636  -25.9772   22.9020 H   0  0  0  0  0  0
  -19.7984  -30.7167   24.2063 H   0  0  0  0  0  0
  -17.5122  -31.6386   24.4794 H   0  0  0  0  0  0
  -15.5436  -30.2884   23.7541 H   0  0  0  0  0  0
  -15.8733  -28.0638   22.6961 H   0  0  0  0  0  0
  -24.5986  -30.6971   25.7619 H   0  0  0  0  0  0
  -24.8959  -32.2852   26.4562 H   0  0  0  0  0  0
  -25.8052  -30.8924   27.0162 H   0  0  0  0  0  0
  -26.3199  -29.6394   24.1252 H   0  0  0  0  0  0
  -27.4261  -29.7120   25.4766 H   0  0  0  0  0  0
  -27.9047  -30.4004   23.9517 H   0  0  0  0  0  0
  -27.2728  -33.3559   26.1788 H   0  0  0  0  0  0
  -28.3933  -32.6661   25.0139 H   0  0  0  0  0  0
  -28.0805  -31.8420   26.5366 H   0  0  0  0  0  0
  -28.2461  -38.0156   24.7455 H   0  0  0  0  0  0
  -28.1178  -36.2620   24.6248 H   0  0  0  0  0  0
  -27.2268  -37.1340   25.8851 H   0  0  0  0  0  0
  -20.9219  -29.9196   21.7175 H   0  0  0  0  0  0
  -26.0064  -38.2652   24.1503 H   0  0  0  0  0  0
  -28.9834  -15.8588   18.2680 H   0  0  0  0  0  0
  -30.2160  -18.7189   21.2273 H   0  0  0  0  0  0
  -27.6706  -16.4247   16.5261 H   0  0  0  0  0  0
  -28.6643  -17.5431   15.6328 H   0  0  0  0  0  0
  -27.0727  -18.0441   16.2348 H   0  0  0  0  0  0
  -26.3362  -20.5032   17.4737 H   0  0  0  0  0  0
  -26.8641  -20.3491   15.7908 H   0  0  0  0  0  0
  -27.0406  -21.8710   16.6425 H   0  0  0  0  0  0
  -31.1071  -24.4373   19.2867 H   0  0  0  0  0  0
  -31.1104  -23.1609   20.4600 H   0  0  0  0  0  0
  -30.5496  -24.7750   20.9014 H   0  0  0  0  0  0
  -28.0086  -24.7076   21.4119 H   0  0  0  0  0  0
  -27.0183  -24.5513   20.0490 H   0  0  0  0  0  0
  -27.7945  -21.8510   19.3739 H   0  0  0  0  0  0
  -28.3415  -21.9850   20.9834 H   0  0  0  0  0  0
  -29.0489  -23.7551   18.6145 H   0  0  0  0  0  0
  -29.3219  -15.7668   21.5476 H   0  0  0  0  0  0
  1 25  1  0  0  0
  1 30  2  0  0  0
  1 84  1  0  0  0
  2  3  1  0  0  0
  2 25  1  0  0  0
  2 87  1  0  0  0
  2 88  1  0  0  0
  3  4  1  0  0  0
  3 89  1  0  0  0
  3 90  1  0  0  0
  4  5  1  0  0  0
  4 91  1  0  0  0
  4 92  1  0  0  0
  5  6  1  0  0  0
  5 26  1  0  0  0
  5 93  1  0  0  0
  6 25  1  0  0  0
  6 94  1  0  0  0
  6 95  1  0  0  0
  7  8  2  0  0  0
  7 26  1  0  0  0
  7 29  1  0  0  0
  8  9  1  0  0  0
  8 22  1  0  0  0
  9 10  1  0  0  0
  9 27  2  0  0  0
 10 11  2  0  0  0
 10 15  1  0  0  0
 11 12  1  0  0  0
 11 96  1  0  0  0
 12 13  2  0  0  0
 12 97  1  0  0  0
 13 14  1  0  0  0
 13 31  1  0  0  0
 14 15  2  0  0  0
 14 98  1  0  0  0
 15 99  1  0  0  0
 16 17  2  0  0  0
 16 21  1  0  0  0
 16 31  1  0  0  0
 17 18  1  0  0  0
 17100  1  0  0  0
 18 19  2  0  0  0
 18101  1  0  0  0
 19 20  1  0  0  0
 19 24  1  0  0  0
 20 21  2  0  0  0
 20102  1  0  0  0
 21 23  1  0  0  0
 22 28  1  0  0  0
 22 32  2  0  0  0
 26 27  1  0  0  0
 28103  1  0  0  0
 28104  1  0  0  0
 29105  1  0  0  0
 29106  1  0  0  0
 33 34  1  0  0  0
 33 66  1  0  0  0
 33 70  2  0  0  0
 34 36  1  0  0  0
 34 59  1  0  0  0
 34107  1  0  0  0
 35 44  2  0  0  0
 35 45  1  0  0  0
 35 68  1  0  0  0
 36 56  1  0  0  0
 36108  1  0  0  0
 37 39  1  0  0  0
 37 47  1  0  0  0
 37 66  1  0  0  0
 37109  1  0  0  0
 38 43  2  0  0  0
 38 46  1  0  0  0
 38 47  1  0  0  0
 39 64  1  0  0  0
 39 67  2  0  0  0
 40 52  1  0  0  0
 40 53  2  0  0  0
 40 58  1  0  0  0
 41110  1  0  0  0
 41111  1  0  0  0
 41112  1  0  0  0
 41 48  1  0  0  0
 42 43  1  0  0  0
 42 66  1  0  0  0
 42113  1  0  0  0
 42114  1  0  0  0
 43 44  1  0  0  0
 44115  1  0  0  0
 45 46  2  0  0  0
 45116  1  0  0  0
 46117  1  0  0  0
 47118  1  0  0  0
 47119  1  0  0  0
 48 56  1  0  0  0
 48 65  1  0  0  0
 48120  1  0  0  0
 49 50  1  0  0  0
 49 53  1  0  0  0
 49 64  1  0  0  0
 49121  1  0  0  0
 50 51  1  0  0  0
 50122  1  0  0  0
 50123  1  0  0  0
 51 52  1  0  0  0
 51124  1  0  0  0
 51125  1  0  0  0
 52126  1  0  0  0
 52127  1  0  0  0
 53 54  1  0  0  0
 54 55  2  0  0  0
 54128  1  0  0  0
 55 57  1  0  0  0
 55129  1  0  0  0
 56 69  2  0  0  0
 57 58  2  0  0  0
 57130  1  0  0  0
 58131  1  0  0  0
 59 60  1  0  0  0
 59 61  1  0  0  0
 59 62  1  0  0  0
 60132  1  0  0  0
 60133  1  0  0  0
 60134  1  0  0  0
 61135  1  0  0  0
 61136  1  0  0  0
 61137  1  0  0  0
 62138  1  0  0  0
 62139  1  0  0  0
 62140  1  0  0  0
 63 65  1  0  0  0
 63141  1  0  0  0
 63142  1  0  0  0
 63143  1  0  0  0
 64144  1  0  0  0
 65145  1  0  0  0
 68 81  1  0  0  0
 71 74  2  0  0  0
 71 75  1  0  0  0
 71146  1  0  0  0
 72 75  2  0  0  0
 72 76  1  0  0  0
 72147  1  0  0  0
 73 74  1  0  0  0
 73 76  2  0  0  0
 73 77  1  0  0  0
 74 78  1  0  0  0
 75 84  1  0  0  0
 76 86  1  0  0  0
 77 79  1  0  0  0
 77 85  2  0  0  0
 78148  1  0  0  0
 78149  1  0  0  0
 78150  1  0  0  0
 79151  1  0  0  0
 79152  1  0  0  0
 79153  1  0  0  0
 80154  1  0  0  0
 80155  1  0  0  0
 80156  1  0  0  0
 80 83  1  0  0  0
 81 83  1  0  0  0
 81157  1  0  0  0
 81158  1  0  0  0
 82 83  1  0  0  0
 82 86  1  0  0  0
 82159  1  0  0  0
 82160  1  0  0  0
 83161  1  0  0  0
 84162  1  0  0  0
M  ISO  4   1 100  68 101  81 101  84 100
M  END
> <chiral flag>
0

> <version>
0

> <s_m_source_file>
/data/baiqing/PycharmProjects/Reinvent-master-3.2/result/LINK_invent/BTK/process_docking_weight1_custom_product_contain_oxygen_bond_distance_aromatic_linkinvent_7_9_3/rearranged_h_0138.sdf

> <i_m_source_file_index>
9

> <r_mmod_Potential_Energy-OPLS-2005>
415.227966308594

> <r_mmod_Stretch_Energy-OPLS-2005>
160.032333374023

> <r_mmod_Bend_Energy-OPLS-2005>
192.762359619141

> <r_mmod_Torsional_Energy-OPLS-2005>
362.05224609375

> <r_mmod_Improper_Torsional_Energy-OPLS-2005>
7.13027763366699

> <r_mmod_Van_der_Waal_Energy-OPLS-2005>
131.372344970703

> <r_mmod_Electrostatic_Energy-OPLS-2005>
-309.631774902344

> <r_mmod_Solvation_Energy-OPLS-2005>
-230.519058227539

> <b_mmod_Minimization_Converged-OPLS-2005>
0

> <r_mmod_RMS_Derivative-OPLS-2005>
14.7785415649414

$$$$
9
                    3D
 Structure written by MMmdl.
164172  0  0  1  0            999 V2000
  -30.5680  -14.7518   20.5055 C   0  0  0  0  0  0
  -30.4286  -12.4598   19.4817 C   0  0  0  0  0  0
  -29.5148  -12.5313   18.2363 C   0  0  0  0  0  0
  -28.0365  -12.3410   18.6371 C   0  0  0  0  0  0
  -27.6323  -13.2281   19.8421 C   0  0  2  0  0  0
  -28.6681  -13.1434   20.9833 C   0  0  0  0  0  0
  -25.2466  -13.8181   20.5713 C   0  0  0  0  0  0
  -24.1752  -13.0416   20.9213 C   0  0  0  0  0  0
  -24.6349  -11.6907   20.8719 C   0  0  0  0  0  0
  -23.9003  -10.4304   21.0414 C   0  0  0  0  0  0
  -24.3588   -9.4221   21.9184 C   0  0  0  0  0  0
  -23.6302   -8.2225   22.0727 C   0  0  0  0  0  0
  -22.4268   -8.0263   21.3544 C   0  0  0  0  0  0
  -21.9885   -9.0205   20.4620 C   0  0  0  0  0  0
  -22.7180  -10.2098   20.3051 C   0  0  0  0  0  0
  -21.6828   -6.0750   22.5289 C   0  0  0  0  0  0
  -21.4021   -6.5653   23.8236 C   0  0  0  0  0  0
  -21.3678   -5.6799   24.9191 C   0  0  0  0  0  0
  -21.6038   -4.3066   24.7234 C   0  0  0  0  0  0
  -21.8807   -3.8161   23.4351 C   0  0  0  0  0  0
  -21.9199   -4.6984   22.3410 C   0  0  0  0  0  0
  -22.7791  -13.5197   21.1932 C   0  0  0  0  0  0
  -22.1665   -4.2172   21.0987 F   0  0  0  0  0  0
  -21.5631   -3.4537   25.7740 F   0  0  0  0  0  0
  -29.9654  -13.5169   20.4097 N   0  0  0  0  0  0
  -26.2852  -12.9373   20.3172 N   0  0  0  0  0  0
  -25.9273  -11.6520   20.5624 N   0  0  0  0  0  0
  -22.0432  -12.8194   22.0476 N   0  0  0  0  0  0
  -25.4170  -15.1917   20.4268 N   0  0  0  0  0  0
  -31.7679  -14.8684   20.2306 O   0  0  0  0  0  0
  -21.6641   -6.8856   21.4235 O   0  0  0  0  0  0
  -22.3502  -14.5528   20.6805 O   0  0  0  0  0  0
  -24.6365  -31.8467   23.1970 C   0  0  0  0  0  0
  -25.9205  -32.4663   23.8314 C   0  0  1  0  0  0
  -27.2457  -27.2645   20.1426 C   0  0  0  0  0  0
  -25.6059  -33.8454   24.2304 N   0  0  0  0  0  0
  -23.4299  -30.4687   21.5391 C   0  0  2  0  0  0
  -24.8812  -28.9087   20.1104 C   0  0  0  0  0  0
  -22.7487  -29.4539   22.4885 C   0  0  0  0  0  0
  -18.0302  -28.1394   22.8487 C   0  0  0  0  0  0
  -24.1510  -36.7173   23.2619 C   0  0  0  0  0  0
  -25.9723  -30.7701   21.3672 C   0  0  0  0  0  0
  -26.0492  -29.3916   20.7109 C   0  0  0  0  0  0
  -27.2267  -28.5844   20.7082 C   0  0  0  0  0  0
  -26.0481  -26.8319   19.5272 C   0  0  0  0  0  0
  -24.8852  -27.6358   19.5101 C   0  0  0  0  0  0
  -23.6497  -29.7917   20.1575 C   0  0  0  0  0  0
  -25.4112  -36.2967   24.0344 C   0  0  1  0  0  0
  -20.5907  -28.3672   23.1273 C   0  0  2  0  0  0
  -20.6767  -26.9382   22.5395 C   0  0  0  0  0  0
  -19.5745  -26.6436   21.5166 C   0  0  0  0  0  0
  -18.1931  -26.7962   22.1593 C   0  0  0  0  0  0
  -19.1557  -28.8853   23.2900 C   0  0  0  0  0  0
  -18.9457  -30.1459   23.8911 C   0  0  0  0  0  0
  -17.6454  -30.6580   24.0570 C   0  0  0  0  0  0
  -25.9065  -34.9353   23.5105 C   0  0  0  0  0  0
  -16.5349  -29.9064   23.6351 C   0  0  0  0  0  0
  -16.7287  -28.6498   23.0364 C   0  0  0  0  0  0
  -26.4682  -31.6440   25.0640 C   0  0  0  0  0  0
  -25.4004  -31.3477   26.1408 C   0  0  0  0  0  0
  -27.0503  -30.2875   24.6038 C   0  0  0  0  0  0
  -27.6309  -32.4099   25.7375 C   0  0  0  0  0  0
  -27.5574  -37.1687   24.8501 C   0  0  0  0  0  0
  -21.4201  -29.2989   22.3617 N   0  0  0  0  0  0
  -26.4272  -37.3685   23.9467 N   0  0  0  0  0  0
  -24.6980  -31.0485   22.0901 N   0  0  0  0  0  0
  -23.4151  -28.8090   23.3001 O   0  0  0  0  0  0
  -28.3728  -26.4201   20.2629 O   0  0  0  0  0  0
  -26.5541  -34.8827   22.4611 O   0  0  0  0  0  0
  -23.5548  -32.1273   23.7333 O   0  0  0  0  0  0
  -30.6867  -17.3268   22.3439 C   0  0  0  0  0  0
  -29.4641  -18.4942   20.6135 C   0  0  0  0  0  0
  -30.8545  -18.5493   23.0225 C   0  0  0  0  0  0
  -30.4416  -19.7998   22.4442 C   0  0  0  0  0  0
  -30.0035  -17.2391   21.1285 C   0  0  0  0  0  0
  -29.6638  -19.8107   21.2221 C   0  0  0  0  0  0
  -31.4335  -18.4170   24.4290 C   0  0  0  0  0  0
  -32.2045  -21.2256   23.8315 C   0  0  0  0  0  0
  -27.2540  -22.8897   19.1510 C   0  0  0  0  0  0
  -30.8178  -21.1112   23.1563 C   0  0  0  0  0  0
  -29.1915  -22.5195   20.8143 C   0  0  0  0  0  0
  -28.5563  -25.0635   19.6391 C   0  0  0  0  0  0
  -28.1066  -23.5942   20.2198 C   0  0  1  0  0  0
  -29.7378  -15.8677   20.6218 N   0  0  0  0  0  0
  -29.0369  -21.0018   20.6098 N   0  0  0  0  0  0
  -31.4767  -12.5798   19.2025 H   0  0  0  0  0  0
  -30.3514  -11.4825   19.9621 H   0  0  0  0  0  0
  -29.8134  -11.7886   17.4943 H   0  0  0  0  0  0
  -29.6397  -13.5032   17.7584 H   0  0  0  0  0  0
  -27.8885  -11.2907   18.8851 H   0  0  0  0  0  0
  -27.3851  -12.5421   17.7883 H   0  0  0  0  0  0
  -27.6205  -14.2505   19.4635 H   0  0  0  0  0  0
  -28.7033  -12.1367   21.4045 H   0  0  0  0  0  0
  -28.3957  -13.8086   21.8031 H   0  0  0  0  0  0
  -25.2729   -9.5736   22.4746 H   0  0  0  0  0  0
  -24.0042   -7.4624   22.7446 H   0  0  0  0  0  0
  -21.0810   -8.8712   19.8911 H   0  0  0  0  0  0
  -22.3644  -10.9639   19.6165 H   0  0  0  0  0  0
  -21.2003   -7.6154   23.9750 H   0  0  0  0  0  0
  -21.1515   -6.0522   25.9097 H   0  0  0  0  0  0
  -22.0566   -2.7617   23.2837 H   0  0  0  0  0  0
  -22.4098  -11.9855   22.4845 H   0  0  0  0  0  0
  -21.1033  -13.1200   22.2664 H   0  0  0  0  0  0
  -24.6497  -15.8364   20.5735 H   0  0  0  0  0  0
  -26.2537  -15.6448   20.0845 H   0  0  0  0  0  0
  -26.7224  -32.5374   23.1020 H   0  0  0  0  0  0
  -25.0460  -33.9579   25.0629 H   0  0  0  0  0  0
  -22.7316  -31.2939   21.3868 H   0  0  0  0  0  0
  -23.3795  -35.9487   23.3257 H   0  0  0  0  0  0
  -24.3633  -36.8766   22.2042 H   0  0  0  0  0  0
  -23.7227  -37.6364   23.6609 H   0  0  0  0  0  0
  -26.1136  -31.5387   20.6065 H   0  0  0  0  0  0
  -26.8483  -30.8202   22.0005 H   0  0  0  0  0  0
  -28.1202  -28.9541   21.1914 H   0  0  0  0  0  0
  -25.9941  -25.8415   19.1010 H   0  0  0  0  0  0
  -23.9788  -27.2532   19.0603 H   0  0  0  0  0  0
  -23.7714  -30.5604   19.3941 H   0  0  0  0  0  0
  -22.7735  -29.2191   19.8529 H   0  0  0  0  0  0
  -25.1284  -36.1775   25.0834 H   0  0  0  0  0  0
  -21.0072  -28.3236   24.1369 H   0  0  0  0  0  0
  -20.5615  -26.2239   23.3573 H   0  0  0  0  0  0
  -21.6628  -26.7364   22.1174 H   0  0  0  0  0  0
  -19.6851  -25.6376   21.1107 H   0  0  0  0  0  0
  -19.6699  -27.3318   20.6754 H   0  0  0  0  0  0
  -17.4194  -26.6773   21.3992 H   0  0  0  0  0  0
  -18.0294  -26.0081   22.8970 H   0  0  0  0  0  0
  -19.7924  -30.7295   24.2270 H   0  0  0  0  0  0
  -17.4991  -31.6257   24.5184 H   0  0  0  0  0  0
  -15.5343  -30.2959   23.7688 H   0  0  0  0  0  0
  -15.8692  -28.0822   22.7077 H   0  0  0  0  0  0
  -24.6308  -30.6649   25.7782 H   0  0  0  0  0  0
  -24.9089  -32.2579   26.4841 H   0  0  0  0  0  0
  -25.8512  -30.8734   27.0140 H   0  0  0  0  0  0
  -26.3059  -29.6593   24.1121 H   0  0  0  0  0  0
  -27.4311  -29.7113   25.4487 H   0  0  0  0  0  0
  -27.8910  -30.4165   23.9200 H   0  0  0  0  0  0
  -27.3061  -33.3437   26.1957 H   0  0  0  0  0  0
  -28.4173  -32.6508   25.0205 H   0  0  0  0  0  0
  -28.0935  -31.8154   26.5271 H   0  0  0  0  0  0
  -28.2594  -37.9979   24.7585 H   0  0  0  0  0  0
  -28.1071  -36.2523   24.6316 H   0  0  0  0  0  0
  -27.2297  -37.1312   25.8899 H   0  0  0  0  0  0
  -20.9379  -29.8664   21.6807 H   0  0  0  0  0  0
  -26.0139  -38.2721   24.1590 H   0  0  0  0  0  0
  -31.0421  -16.4212   22.8148 H   0  0  0  0  0  0
  -28.8638  -18.4458   19.7171 H   0  0  0  0  0  0
  -30.9505  -19.1025   25.1233 H   0  0  0  0  0  0
  -32.5140  -18.5685   24.4330 H   0  0  0  0  0  0
  -31.2590  -17.4250   24.8467 H   0  0  0  0  0  0
  -32.4838  -22.2764   23.9352 H   0  0  0  0  0  0
  -32.9740  -20.7357   23.2333 H   0  0  0  0  0  0
  -32.2425  -20.8221   24.8402 H   0  0  0  0  0  0
  -27.8684  -22.6016   18.2942 H   0  0  0  0  0  0
  -26.4455  -23.5341   18.7970 H   0  0  0  0  0  0
  -26.7873  -21.9890   19.5489 H   0  0  0  0  0  0
  -30.0114  -21.3971   23.8343 H   0  0  0  0  0  0
  -30.9151  -21.8726   22.4017 H   0  0  0  0  0  0
  -29.1801  -22.7295   21.8839 H   0  0  0  0  0  0
  -30.1810  -22.7995   20.4499 H   0  0  0  0  0  0
  -28.1845  -25.1692   18.6182 H   0  0  0  0  0  0
  -29.6362  -24.9923   19.4895 H   0  0  0  0  0  0
  -27.4176  -23.8186   21.0328 H   0  0  0  0  0  0
  -28.7584  -15.6507   20.5198 H   0  0  0  0  0  0
  -28.5431  -20.7926   19.7500 H   0  0  0  0  0  0
  1 25  1  0  0  0
  1 30  2  0  0  0
  1 84  1  0  0  0
  2  3  1  0  0  0
  2 25  1  0  0  0
  2 86  1  0  0  0
  2 87  1  0  0  0
  3  4  1  0  0  0
  3 88  1  0  0  0
  3 89  1  0  0  0
  4  5  1  0  0  0
  4 90  1  0  0  0
  4 91  1  0  0  0
  5  6  1  0  0  0
  5 26  1  0  0  0
  5 92  1  0  0  0
  6 25  1  0  0  0
  6 93  1  0  0  0
  6 94  1  0  0  0
  7  8  2  0  0  0
  7 26  1  0  0  0
  7 29  1  0  0  0
  8  9  1  0  0  0
  8 22  1  0  0  0
  9 10  1  0  0  0
  9 27  2  0  0  0
 10 11  2  0  0  0
 10 15  1  0  0  0
 11 12  1  0  0  0
 11 95  1  0  0  0
 12 13  2  0  0  0
 12 96  1  0  0  0
 13 14  1  0  0  0
 13 31  1  0  0  0
 14 15  2  0  0  0
 14 97  1  0  0  0
 15 98  1  0  0  0
 16 17  2  0  0  0
 16 21  1  0  0  0
 16 31  1  0  0  0
 17 18  1  0  0  0
 17 99  1  0  0  0
 18 19  2  0  0  0
 18100  1  0  0  0
 19 20  1  0  0  0
 19 24  1  0  0  0
 20 21  2  0  0  0
 20101  1  0  0  0
 21 23  1  0  0  0
 22 28  1  0  0  0
 22 32  2  0  0  0
 26 27  1  0  0  0
 28102  1  0  0  0
 28103  1  0  0  0
 29104  1  0  0  0
 29105  1  0  0  0
 33 34  1  0  0  0
 33 66  1  0  0  0
 33 70  2  0  0  0
 34 36  1  0  0  0
 34 59  1  0  0  0
 34106  1  0  0  0
 35 44  2  0  0  0
 35 45  1  0  0  0
 35 68  1  0  0  0
 36 56  1  0  0  0
 36107  1  0  0  0
 37 39  1  0  0  0
 37 47  1  0  0  0
 37 66  1  0  0  0
 37108  1  0  0  0
 38 43  2  0  0  0
 38 46  1  0  0  0
 38 47  1  0  0  0
 39 64  1  0  0  0
 39 67  2  0  0  0
 40 52  1  0  0  0
 40 53  2  0  0  0
 40 58  1  0  0  0
 41109  1  0  0  0
 41110  1  0  0  0
 41111  1  0  0  0
 41 48  1  0  0  0
 42 43  1  0  0  0
 42 66  1  0  0  0
 42112  1  0  0  0
 42113  1  0  0  0
 43 44  1  0  0  0
 44114  1  0  0  0
 45 46  2  0  0  0
 45115  1  0  0  0
 46116  1  0  0  0
 47117  1  0  0  0
 47118  1  0  0  0
 48 56  1  0  0  0
 48 65  1  0  0  0
 48119  1  0  0  0
 49 50  1  0  0  0
 49 53  1  0  0  0
 49 64  1  0  0  0
 49120  1  0  0  0
 50 51  1  0  0  0
 50121  1  0  0  0
 50122  1  0  0  0
 51 52  1  0  0  0
 51123  1  0  0  0
 51124  1  0  0  0
 52125  1  0  0  0
 52126  1  0  0  0
 53 54  1  0  0  0
 54 55  2  0  0  0
 54127  1  0  0  0
 55 57  1  0  0  0
 55128  1  0  0  0
 56 69  2  0  0  0
 57 58  2  0  0  0
 57129  1  0  0  0
 58130  1  0  0  0
 59 60  1  0  0  0
 59 61  1  0  0  0
 59 62  1  0  0  0
 60131  1  0  0  0
 60132  1  0  0  0
 60133  1  0  0  0
 61134  1  0  0  0
 61135  1  0  0  0
 61136  1  0  0  0
 62137  1  0  0  0
 62138  1  0  0  0
 62139  1  0  0  0
 63 65  1  0  0  0
 63140  1  0  0  0
 63141  1  0  0  0
 63142  1  0  0  0
 64143  1  0  0  0
 65144  1  0  0  0
 68 82  1  0  0  0
 71 73  2  0  0  0
 71 75  1  0  0  0
 71145  1  0  0  0
 72 75  2  0  0  0
 72 76  1  0  0  0
 72146  1  0  0  0
 73 74  1  0  0  0
 73 77  1  0  0  0
 74 76  2  0  0  0
 74 80  1  0  0  0
 75 84  1  0  0  0
 76 85  1  0  0  0
 77147  1  0  0  0
 77148  1  0  0  0
 77149  1  0  0  0
 78 80  1  0  0  0
 78150  1  0  0  0
 78151  1  0  0  0
 78152  1  0  0  0
 79153  1  0  0  0
 79154  1  0  0  0
 79155  1  0  0  0
 79 83  1  0  0  0
 80156  1  0  0  0
 80157  1  0  0  0
 81 83  1  0  0  0
 81 85  1  0  0  0
 81158  1  0  0  0
 81159  1  0  0  0
 82 83  1  0  0  0
 82160  1  0  0  0
 82161  1  0  0  0
 83162  1  0  0  0
 84163  1  0  0  0
 85164  1  0  0  0
M  ISO  4   1 100  68 101  82 101  84 100
M  END
> <chiral flag>
0

> <version>
0

> <s_m_source_file>
/data/baiqing/PycharmProjects/Reinvent-master-3.2/result/LINK_invent/BTK/process_docking_weight1_custom_product_contain_oxygen_bond_distance_aromatic_linkinvent_7_9_3/rearranged_h_0138.sdf

> <i_m_source_file_index>
10

> <r_mmod_Potential_Energy-OPLS-2005>
345.200500488281

> <r_mmod_Stretch_Energy-OPLS-2005>
153.175338745117

> <r_mmod_Bend_Energy-OPLS-2005>
248.03874206543

> <r_mmod_Torsional_Energy-OPLS-2005>
260.368469238281

> <r_mmod_Improper_Torsional_Energy-OPLS-2005>
9.2702112197876

> <r_mmod_Van_der_Waal_Energy-OPLS-2005>
154.778289794922

> <r_mmod_Electrostatic_Energy-OPLS-2005>
-354.228088378906

> <r_mmod_Solvation_Energy-OPLS-2005>
-214.768218994141

> <b_mmod_Minimization_Converged-OPLS-2005>
0

> <r_mmod_RMS_Derivative-OPLS-2005>
6.1709451675415

$$$$
10
                    3D
 Structure written by MMmdl.
167176  0  0  1  0            999 V2000
  -30.7151  -14.5564   20.5152 C   0  0  0  0  0  0
  -30.4215  -12.3498   19.4350 C   0  0  0  0  0  0
  -29.4916  -12.4754   18.2112 C   0  0  0  0  0  0
  -28.0213  -12.2901   18.6331 C   0  0  0  0  0  0
  -27.6407  -13.1774   19.8426 C   0  0  2  0  0  0
  -28.6938  -13.0959   20.9754 C   0  0  0  0  0  0
  -25.2565  -13.8034   20.5720 C   0  0  0  0  0  0
  -24.1802  -13.0354   20.9206 C   0  0  0  0  0  0
  -24.6337  -11.6820   20.8752 C   0  0  0  0  0  0
  -23.9003  -10.4240   21.0419 C   0  0  0  0  0  0
  -24.3573   -9.4172   21.9200 C   0  0  0  0  0  0
  -23.6260   -8.2211   22.0758 C   0  0  0  0  0  0
  -22.4242   -8.0255   21.3547 C   0  0  0  0  0  0
  -21.9868   -9.0222   20.4648 C   0  0  0  0  0  0
  -22.7180  -10.2104   20.3061 C   0  0  0  0  0  0
  -21.6839   -6.0718   22.5285 C   0  0  0  0  0  0
  -21.4002   -6.5630   23.8217 C   0  0  0  0  0  0
  -21.3660   -5.6786   24.9182 C   0  0  0  0  0  0
  -21.6047   -4.3048   24.7236 C   0  0  0  0  0  0
  -21.8821   -3.8138   23.4355 C   0  0  0  0  0  0
  -21.9187   -4.6952   22.3410 C   0  0  0  0  0  0
  -22.7844  -13.5206   21.1873 C   0  0  0  0  0  0
  -22.1658   -4.2137   21.0986 F   0  0  0  0  0  0
  -21.5637   -3.4532   25.7751 F   0  0  0  0  0  0
  -30.0167  -13.3860   20.4011 N   0  0  0  0  0  0
  -26.2927  -12.9139   20.3271 N   0  0  0  0  0  0
  -25.9244  -11.6343   20.5753 N   0  0  0  0  0  0
  -22.0472  -12.8222   22.0431 N   0  0  0  0  0  0
  -25.4282  -15.1749   20.4225 N   0  0  0  0  0  0
  -31.9050  -14.6342   20.1978 O   0  0  0  0  0  0
  -21.6617   -6.8851   21.4245 O   0  0  0  0  0  0
  -22.3559  -14.5530   20.6727 O   0  0  0  0  0  0
  -24.6163  -31.8677   23.2101 C   0  0  0  0  0  0
  -25.9052  -32.4820   23.8399 C   0  0  1  0  0  0
  -27.2382  -27.4195   20.0991 C   0  0  0  0  0  0
  -25.5901  -33.8619   24.2326 N   0  0  0  0  0  0
  -23.4053  -30.4930   21.5498 C   0  0  2  0  0  0
  -24.8532  -28.9629   20.1126 C   0  0  0  0  0  0
  -22.7417  -29.4666   22.4966 C   0  0  0  0  0  0
  -18.0278  -28.1379   22.8490 C   0  0  0  0  0  0
  -24.1488  -36.7311   23.2637 C   0  0  0  0  0  0
  -25.9372  -30.8296   21.3668 C   0  0  0  0  0  0
  -26.0157  -29.4649   20.7105 C   0  0  0  0  0  0
  -27.2101  -28.7031   20.6982 C   0  0  0  0  0  0
  -26.0530  -26.9474   19.4811 C   0  0  0  0  0  0
  -24.8683  -27.7038   19.4937 C   0  0  0  0  0  0
  -23.6150  -29.8288   20.1640 C   0  0  0  0  0  0
  -25.4107  -36.3107   24.0337 C   0  0  1  0  0  0
  -20.5870  -28.3672   23.1300 C   0  0  2  0  0  0
  -20.6771  -26.9402   22.5412 C   0  0  0  0  0  0
  -19.5750  -26.6384   21.5208 C   0  0  0  0  0  0
  -18.1926  -26.7927   22.1617 C   0  0  0  0  0  0
  -19.1528  -28.8840   23.2897 C   0  0  0  0  0  0
  -18.9457  -30.1444   23.8911 C   0  0  0  0  0  0
  -17.6461  -30.6587   24.0565 C   0  0  0  0  0  0
  -25.9035  -34.9474   23.5126 C   0  0  0  0  0  0
  -16.5350  -29.9088   23.6328 C   0  0  0  0  0  0
  -16.7266  -28.6502   23.0350 C   0  0  0  0  0  0
  -26.4477  -31.6598   25.0728 C   0  0  0  0  0  0
  -25.3740  -31.3712   26.1474 C   0  0  0  0  0  0
  -27.0303  -30.3034   24.6115 C   0  0  0  0  0  0
  -27.6053  -32.4314   25.7493 C   0  0  0  0  0  0
  -27.5581  -37.1809   24.8461 C   0  0  0  0  0  0
  -21.4142  -29.3041   22.3702 N   0  0  0  0  0  0
  -26.4291  -37.3792   23.9410 N   0  0  0  0  0  0
  -24.6711  -31.0775   22.1003 N   0  0  0  0  0  0
  -23.4184  -28.8202   23.3008 O   0  0  0  0  0  0
  -28.3951  -26.6513   20.1477 O   0  0  0  0  0  0
  -26.5596  -34.8921   22.4688 O   0  0  0  0  0  0
  -23.5352  -32.1430   23.7489 O   0  0  0  0  0  0
  -30.3895  -19.4588   21.1352 C   0  0  0  0  0  0
  -28.9780  -20.0851   19.2412 C   0  0  0  0  0  0
  -30.1314  -18.1039   20.8128 C   0  0  0  0  0  0
  -29.3144  -17.7552   19.7497 C   0  0  0  0  0  0
  -28.7168  -18.7316   18.9029 C   0  0  0  0  0  0
  -29.7700  -20.4700   20.3530 C   0  0  0  0  0  0
  -28.9794  -22.8119   20.5705 C   0  0  0  0  0  0
  -30.6082  -16.8480   21.5278 C   0  0  0  0  0  0
  -29.1535  -16.2559   19.7481 C   0  0  0  0  0  0
  -27.6508  -19.5894   16.7148 C   0  0  0  0  0  0
  -26.3610  -18.1384   18.2703 C   0  0  0  0  0  0
  -28.2240  -17.1967   16.8784 C   0  0  0  0  0  0
  -29.3595  -24.3157   20.5909 C   0  0  0  0  0  0
  -28.2082  -25.2204   20.0563 C   0  0  0  0  0  0
  -27.7678  -18.4112   17.7150 C   0  0  0  0  0  0
  -30.0089  -15.6863   20.8130 N   0  0  0  0  0  0
  -29.9495  -21.8677   20.6358 N   0  0  0  0  0  0
  -27.7853  -22.5008   20.5253 O   0  0  0  0  0  0
  -31.4633  -12.4477   19.1245 H   0  0  0  0  0  0
  -30.3368  -11.3596   19.8857 H   0  0  0  0  0  0
  -29.7578  -11.7322   17.4589 H   0  0  0  0  0  0
  -29.6239  -13.4499   17.7385 H   0  0  0  0  0  0
  -27.8775  -11.2382   18.8826 H   0  0  0  0  0  0
  -27.3576  -12.4953   17.7915 H   0  0  0  0  0  0
  -27.6178  -14.1730   19.4256 H   0  0  0  0  0  0
  -28.6984  -12.1013   21.4243 H   0  0  0  0  0  0
  -28.4454  -13.7920   21.7788 H   0  0  0  0  0  0
  -25.2720   -9.5667   22.4770 H   0  0  0  0  0  0
  -23.9978   -7.4596   22.7463 H   0  0  0  0  0  0
  -21.0807   -8.8727   19.8945 H   0  0  0  0  0  0
  -22.3637  -10.9648   19.6172 H   0  0  0  0  0  0
  -21.1983   -7.6134   23.9722 H   0  0  0  0  0  0
  -21.1484   -6.0517   25.9088 H   0  0  0  0  0  0
  -22.0599   -2.7599   23.2868 H   0  0  0  0  0  0
  -22.4046  -11.9861   22.4815 H   0  0  0  0  0  0
  -21.1107  -13.1295   22.2635 H   0  0  0  0  0  0
  -24.6616  -15.8265   20.5450 H   0  0  0  0  0  0
  -26.2894  -15.6243   20.1469 H   0  0  0  0  0  0
  -26.7123  -32.5534   23.1164 H   0  0  0  0  0  0
  -25.0065  -33.9785   25.0481 H   0  0  0  0  0  0
  -22.6952  -31.3110   21.4111 H   0  0  0  0  0  0
  -23.3746  -35.9649   23.3307 H   0  0  0  0  0  0
  -24.3578  -36.8918   22.2048 H   0  0  0  0  0  0
  -23.7246  -37.6521   23.6646 H   0  0  0  0  0  0
  -26.0537  -31.5971   20.6005 H   0  0  0  0  0  0
  -26.8237  -30.8803   21.9873 H   0  0  0  0  0  0
  -28.1040  -29.0861   21.1714 H   0  0  0  0  0  0
  -26.0168  -25.9888   18.9854 H   0  0  0  0  0  0
  -23.9765  -27.3117   19.0245 H   0  0  0  0  0  0
  -23.7221  -30.6050   19.4052 H   0  0  0  0  0  0
  -22.7398  -29.2480   19.8666 H   0  0  0  0  0  0
  -25.1287  -36.1973   25.0832 H   0  0  0  0  0  0
  -20.9974  -28.3244   24.1415 H   0  0  0  0  0  0
  -20.5667  -26.2279   23.3603 H   0  0  0  0  0  0
  -21.6640  -26.7439   22.1206 H   0  0  0  0  0  0
  -19.6911  -25.6296   21.1232 H   0  0  0  0  0  0
  -19.6695  -27.3197   20.6740 H   0  0  0  0  0  0
  -17.4198  -26.6677   21.4016 H   0  0  0  0  0  0
  -18.0325  -26.0062   22.9006 H   0  0  0  0  0  0
  -19.7932  -30.7251   24.2291 H   0  0  0  0  0  0
  -17.5017  -31.6268   24.5162 H   0  0  0  0  0  0
  -15.5354  -30.2998   23.7645 H   0  0  0  0  0  0
  -15.8662  -28.0828   22.7059 H   0  0  0  0  0  0
  -24.5906  -30.7068   25.7808 H   0  0  0  0  0  0
  -24.8941  -32.2872   26.4928 H   0  0  0  0  0  0
  -25.8086  -30.8871   27.0227 H   0  0  0  0  0  0
  -26.2847  -29.6799   24.1162 H   0  0  0  0  0  0
  -27.4057  -29.7269   25.4580 H   0  0  0  0  0  0
  -27.8694  -30.4343   23.9277 H   0  0  0  0  0  0
  -27.2673  -33.3603   26.2099 H   0  0  0  0  0  0
  -28.3853  -32.6888   25.0315 H   0  0  0  0  0  0
  -28.0729  -31.8417   26.5388 H   0  0  0  0  0  0
  -28.2601  -38.0106   24.7509 H   0  0  0  0  0  0
  -28.1079  -36.2637   24.6288 H   0  0  0  0  0  0
  -27.2298  -37.1460   25.8864 H   0  0  0  0  0  0
  -20.9298  -29.8765   21.6929 H   0  0  0  0  0  0
  -26.0182  -38.2871   24.1415 H   0  0  0  0  0  0
  -31.0135  -19.7120   21.9807 H   0  0  0  0  0  0
  -28.5468  -20.8792   18.6558 H   0  0  0  0  0  0
  -30.2662  -16.8568   22.5638 H   0  0  0  0  0  0
  -31.6988  -16.8188   21.5375 H   0  0  0  0  0  0
  -29.4326  -15.8330   18.7845 H   0  0  0  0  0  0
  -28.1086  -16.0684   19.9702 H   0  0  0  0  0  0
  -27.1575  -20.4611   17.1455 H   0  0  0  0  0  0
  -27.0468  -19.3205   15.8475 H   0  0  0  0  0  0
  -28.6283  -19.8983   16.3413 H   0  0  0  0  0  0
  -25.9775  -18.9995   18.8189 H   0  0  0  0  0  0
  -26.3604  -17.2937   18.9550 H   0  0  0  0  0  0
  -25.6508  -17.9118   17.4744 H   0  0  0  0  0  0
  -29.2929  -17.2330   16.6666 H   0  0  0  0  0  0
  -27.7090  -17.1544   15.9182 H   0  0  0  0  0  0
  -27.9843  -16.2485   17.3534 H   0  0  0  0  0  0
  -30.2571  -24.4692   19.9922 H   0  0  0  0  0  0
  -29.6057  -24.5950   21.6150 H   0  0  0  0  0  0
  -27.3088  -24.9631   20.6192 H   0  0  0  0  0  0
  -28.0217  -24.9627   19.0122 H   0  0  0  0  0  0
  -30.8855  -22.1763   20.8647 H   0  0  0  0  0  0
  1 25  1  0  0  0
  1 30  2  0  0  0
  1 86  1  0  0  0
  2  3  1  0  0  0
  2 25  1  0  0  0
  2 89  1  0  0  0
  2 90  1  0  0  0
  3  4  1  0  0  0
  3 91  1  0  0  0
  3 92  1  0  0  0
  4  5  1  0  0  0
  4 93  1  0  0  0
  4 94  1  0  0  0
  5  6  1  0  0  0
  5 26  1  0  0  0
  5 95  1  0  0  0
  6 25  1  0  0  0
  6 96  1  0  0  0
  6 97  1  0  0  0
  7  8  2  0  0  0
  7 26  1  0  0  0
  7 29  1  0  0  0
  8  9  1  0  0  0
  8 22  1  0  0  0
  9 10  1  0  0  0
  9 27  2  0  0  0
 10 11  2  0  0  0
 10 15  1  0  0  0
 11 12  1  0  0  0
 11 98  1  0  0  0
 12 13  2  0  0  0
 12 99  1  0  0  0
 13 14  1  0  0  0
 13 31  1  0  0  0
 14 15  2  0  0  0
 14100  1  0  0  0
 15101  1  0  0  0
 16 17  2  0  0  0
 16 21  1  0  0  0
 16 31  1  0  0  0
 17 18  1  0  0  0
 17102  1  0  0  0
 18 19  2  0  0  0
 18103  1  0  0  0
 19 20  1  0  0  0
 19 24  1  0  0  0
 20 21  2  0  0  0
 20104  1  0  0  0
 21 23  1  0  0  0
 22 28  1  0  0  0
 22 32  2  0  0  0
 26 27  1  0  0  0
 28105  1  0  0  0
 28106  1  0  0  0
 29107  1  0  0  0
 29108  1  0  0  0
 33 34  1  0  0  0
 33 66  1  0  0  0
 33 70  2  0  0  0
 34 36  1  0  0  0
 34 59  1  0  0  0
 34109  1  0  0  0
 35 44  2  0  0  0
 35 45  1  0  0  0
 35 68  1  0  0  0
 36 56  1  0  0  0
 36110  1  0  0  0
 37 39  1  0  0  0
 37 47  1  0  0  0
 37 66  1  0  0  0
 37111  1  0  0  0
 38 43  2  0  0  0
 38 46  1  0  0  0
 38 47  1  0  0  0
 39 64  1  0  0  0
 39 67  2  0  0  0
 40 52  1  0  0  0
 40 53  2  0  0  0
 40 58  1  0  0  0
 41112  1  0  0  0
 41113  1  0  0  0
 41114  1  0  0  0
 41 48  1  0  0  0
 42 43  1  0  0  0
 42 66  1  0  0  0
 42115  1  0  0  0
 42116  1  0  0  0
 43 44  1  0  0  0
 44117  1  0  0  0
 45 46  2  0  0  0
 45118  1  0  0  0
 46119  1  0  0  0
 47120  1  0  0  0
 47121  1  0  0  0
 48 56  1  0  0  0
 48 65  1  0  0  0
 48122  1  0  0  0
 49 50  1  0  0  0
 49 53  1  0  0  0
 49 64  1  0  0  0
 49123  1  0  0  0
 50 51  1  0  0  0
 50124  1  0  0  0
 50125  1  0  0  0
 51 52  1  0  0  0
 51126  1  0  0  0
 51127  1  0  0  0
 52128  1  0  0  0
 52129  1  0  0  0
 53 54  1  0  0  0
 54 55  2  0  0  0
 54130  1  0  0  0
 55 57  1  0  0  0
 55131  1  0  0  0
 56 69  2  0  0  0
 57 58  2  0  0  0
 57132  1  0  0  0
 58133  1  0  0  0
 59 60  1  0  0  0
 59 61  1  0  0  0
 59 62  1  0  0  0
 60134  1  0  0  0
 60135  1  0  0  0
 60136  1  0  0  0
 61137  1  0  0  0
 61138  1  0  0  0
 61139  1  0  0  0
 62140  1  0  0  0
 62141  1  0  0  0
 62142  1  0  0  0
 63 65  1  0  0  0
 63143  1  0  0  0
 63144  1  0  0  0
 63145  1  0  0  0
 64146  1  0  0  0
 65147  1  0  0  0
 68 84  1  0  0  0
 71 73  2  0  0  0
 71 76  1  0  0  0
 71148  1  0  0  0
 72 75  1  0  0  0
 72 76  2  0  0  0
 72149  1  0  0  0
 73 74  1  0  0  0
 73 78  1  0  0  0
 74 75  2  0  0  0
 74 79  1  0  0  0
 75 85  1  0  0  0
 76 87  1  0  0  0
 77 83  1  0  0  0
 77 87  1  0  0  0
 77 88  2  0  0  0
 78 86  1  0  0  0
 78150  1  0  0  0
 78151  1  0  0  0
 79 86  1  0  0  0
 79152  1  0  0  0
 79153  1  0  0  0
 80154  1  0  0  0
 80155  1  0  0  0
 80156  1  0  0  0
 80 85  1  0  0  0
 81 85  1  0  0  0
 81157  1  0  0  0
 81158  1  0  0  0
 81159  1  0  0  0
 82 85  1  0  0  0
 82160  1  0  0  0
 82161  1  0  0  0
 82162  1  0  0  0
 83 84  1  0  0  0
 83163  1  0  0  0
 83164  1  0  0  0
 84165  1  0  0  0
 84166  1  0  0  0
 87167  1  0  0  0
M  ISO  4   1 100  68 101  84 101  86 100
M  END
> <chiral flag>
0

> <version>
0

> <s_m_source_file>
/data/baiqing/PycharmProjects/Reinvent-master-3.2/result/LINK_invent/BTK/process_docking_weight1_custom_product_contain_oxygen_bond_distance_aromatic_linkinvent_7_9_3/rearranged_h_0138.sdf

> <i_m_source_file_index>
11

> <r_mmod_Potential_Energy-OPLS-2005>
80.9414901733398

> <r_mmod_Stretch_Energy-OPLS-2005>
51.2830390930176

> <r_mmod_Bend_Energy-OPLS-2005>
159.581787109375

> <r_mmod_Torsional_Energy-OPLS-2005>
287.022979736328

> <r_mmod_Improper_Torsional_Energy-OPLS-2005>
8.22976970672607

> <r_mmod_Van_der_Waal_Energy-OPLS-2005>
171.283493041992

> <r_mmod_Electrostatic_Energy-OPLS-2005>
-407.809356689453

> <r_mmod_Solvation_Energy-OPLS-2005>
-218.07698059082

> <b_mmod_Minimization_Converged-OPLS-2005>
0

> <r_mmod_RMS_Derivative-OPLS-2005>
1.00582647323608

$$$$
11
                    3D
 Structure written by MMmdl.
170179  0  0  1  0            999 V2000
  -30.7709  -14.4424   20.5950 C   0  0  0  0  0  0
  -30.4026  -12.2980   19.4324 C   0  0  0  0  0  0
  -29.4879  -12.5100   18.2115 C   0  0  0  0  0  0
  -28.0109  -12.3760   18.6238 C   0  0  0  0  0  0
  -27.6610  -13.2191   19.8795 C   0  0  2  0  0  0
  -28.7038  -13.0285   21.0067 C   0  0  0  0  0  0
  -25.2566  -13.8194   20.5695 C   0  0  0  0  0  0
  -24.1835  -13.0441   20.9185 C   0  0  0  0  0  0
  -24.6412  -11.6923   20.8743 C   0  0  0  0  0  0
  -23.9078  -10.4302   21.0405 C   0  0  0  0  0  0
  -24.3626   -9.4215   21.9182 C   0  0  0  0  0  0
  -23.6303   -8.2249   22.0752 C   0  0  0  0  0  0
  -22.4283   -8.0284   21.3549 C   0  0  0  0  0  0
  -21.9919   -9.0257   20.4645 C   0  0  0  0  0  0
  -22.7250  -10.2141   20.3056 C   0  0  0  0  0  0
  -21.6857   -6.0739   22.5276 C   0  0  0  0  0  0
  -21.4018   -6.5642   23.8209 C   0  0  0  0  0  0
  -21.3659   -5.6793   24.9170 C   0  0  0  0  0  0
  -21.6044   -4.3055   24.7224 C   0  0  0  0  0  0
  -21.8818   -3.8150   23.4346 C   0  0  0  0  0  0
  -21.9196   -4.6965   22.3402 C   0  0  0  0  0  0
  -22.7856  -13.5236   21.1839 C   0  0  0  0  0  0
  -22.1661   -4.2152   21.0980 F   0  0  0  0  0  0
  -21.5630   -3.4539   25.7738 F   0  0  0  0  0  0
  -30.0390  -13.3016   20.4508 N   0  0  0  0  0  0
  -26.3028  -12.9391   20.3411 N   0  0  0  0  0  0
  -25.9349  -11.6533   20.5794 N   0  0  0  0  0  0
  -22.0500  -12.8217   22.0398 N   0  0  0  0  0  0
  -25.4277  -15.1911   20.4112 N   0  0  0  0  0  0
  -31.8464  -14.5853   20.0114 O   0  0  0  0  0  0
  -21.6642   -6.8883   21.4241 O   0  0  0  0  0  0
  -22.3530  -14.5540   20.6694 O   0  0  0  0  0  0
  -24.6122  -31.8716   23.2123 C   0  0  0  0  0  0
  -25.9034  -32.4836   23.8418 C   0  0  1  0  0  0
  -27.2483  -27.4519   20.0991 C   0  0  0  0  0  0
  -25.5888  -33.8633   24.2350 N   0  0  0  0  0  0
  -23.4012  -30.4935   21.5509 C   0  0  2  0  0  0
  -24.8533  -28.9609   20.1176 C   0  0  0  0  0  0
  -22.7392  -29.4684   22.4994 C   0  0  0  0  0  0
  -18.0263  -28.1364   22.8505 C   0  0  0  0  0  0
  -24.1484  -36.7311   23.2638 C   0  0  0  0  0  0
  -25.9288  -30.8385   21.3674 C   0  0  0  0  0  0
  -26.0106  -29.4728   20.7197 C   0  0  0  0  0  0
  -27.2104  -28.7246   20.7187 C   0  0  0  0  0  0
  -26.0817  -26.9641   19.4743 C   0  0  0  0  0  0
  -24.8821  -27.7013   19.4948 C   0  0  0  0  0  0
  -23.6129  -29.8258   20.1654 C   0  0  0  0  0  0
  -25.4106  -36.3115   24.0342 C   0  0  1  0  0  0
  -20.5860  -28.3655   23.1312 C   0  0  2  0  0  0
  -20.6759  -26.9392   22.5412 C   0  0  0  0  0  0
  -19.5743  -26.6382   21.5201 C   0  0  0  0  0  0
  -18.1920  -26.7918   22.1620 C   0  0  0  0  0  0
  -19.1517  -28.8828   23.2910 C   0  0  0  0  0  0
  -18.9451  -30.1432   23.8923 C   0  0  0  0  0  0
  -17.6463  -30.6583   24.0559 C   0  0  0  0  0  0
  -25.9036  -34.9478   23.5147 C   0  0  0  0  0  0
  -16.5357  -29.9085   23.6320 C   0  0  0  0  0  0
  -16.7259  -28.6493   23.0359 C   0  0  0  0  0  0
  -26.4488  -31.6590   25.0725 C   0  0  0  0  0  0
  -25.3764  -31.3669   26.1473 C   0  0  0  0  0  0
  -27.0322  -30.3041   24.6073 C   0  0  0  0  0  0
  -27.6073  -32.4303   25.7480 C   0  0  0  0  0  0
  -27.5579  -37.1801   24.8465 C   0  0  0  0  0  0
  -21.4126  -29.3026   22.3714 N   0  0  0  0  0  0
  -26.4289  -37.3801   23.9418 N   0  0  0  0  0  0
  -24.6647  -31.0818   22.1018 N   0  0  0  0  0  0
  -23.4169  -28.8225   23.3029 O   0  0  0  0  0  0
  -28.3721  -26.6535   20.0375 O   0  0  0  0  0  0
  -26.5600  -34.8924   22.4706 O   0  0  0  0  0  0
  -23.5317  -32.1482   23.7515 O   0  0  0  0  0  0
  -32.7796  -18.1892   21.9095 C   0  0  0  0  0  0
  -31.9437  -19.2843   22.1772 C   0  0  0  0  0  0
  -32.2241  -16.9259   21.6442 C   0  0  0  0  0  0
  -29.9859  -17.8501   21.8865 C   0  0  0  0  0  0
  -30.5436  -19.1259   22.1799 C   0  0  0  0  0  0
  -30.8185  -16.7328   21.6022 C   0  0  0  0  0  0
  -29.4708  -25.1110   21.6435 C   0  0  0  0  0  0
  -28.6522  -24.0463   21.6189 C   0  0  0  0  0  0
  -30.7752  -24.7952   22.3256 C   0  0  0  0  0  0
  -30.6226  -23.3367   22.8101 C   0  0  0  0  0  0
  -29.2398  -22.8160   22.3207 C   0  0  2  0  0  0
  -27.2070  -24.0708   21.1618 C   0  0  0  0  0  0
  -30.2391  -21.4673   20.3563 C   0  0  0  0  0  0
  -27.9031  -21.0045   21.0405 C   0  0  0  0  0  0
  -29.6713  -20.3062   22.6237 C   0  0  0  0  0  0
  -29.1996  -26.5571   21.2005 C   0  0  0  0  0  0
  -29.2891  -21.4176   21.5773 C   0  0  0  0  0  0
  -30.2336  -15.4446   21.3289 N   0  0  0  0  0  0
  -31.4504  -12.3534   19.1317 H   0  0  0  0  0  0
  -30.2707  -11.2934   19.8365 H   0  0  0  0  0  0
  -29.7249  -11.7862   17.4298 H   0  0  0  0  0  0
  -29.6652  -13.4971   17.7803 H   0  0  0  0  0  0
  -27.8178  -11.3204   18.8183 H   0  0  0  0  0  0
  -27.3624  -12.6545   17.7920 H   0  0  0  0  0  0
  -27.6992  -14.2649   19.5739 H   0  0  0  0  0  0
  -28.6703  -12.0072   21.3888 H   0  0  0  0  0  0
  -28.4672  -13.6681   21.8572 H   0  0  0  0  0  0
  -25.2773   -9.5682   22.4754 H   0  0  0  0  0  0
  -24.0008   -7.4638   22.7476 H   0  0  0  0  0  0
  -21.0850   -8.8784   19.8952 H   0  0  0  0  0  0
  -22.3713  -10.9679   19.6162 H   0  0  0  0  0  0
  -21.2010   -7.6149   23.9714 H   0  0  0  0  0  0
  -21.1480   -6.0524   25.9075 H   0  0  0  0  0  0
  -22.0600   -2.7614   23.2845 H   0  0  0  0  0  0
  -22.4127  -11.9876   22.4775 H   0  0  0  0  0  0
  -21.1120  -13.1232   22.2613 H   0  0  0  0  0  0
  -24.6617  -15.8473   20.5178 H   0  0  0  0  0  0
  -26.2839  -15.6313   20.0974 H   0  0  0  0  0  0
  -26.7105  -32.5574   23.1186 H   0  0  0  0  0  0
  -25.0042  -33.9806   25.0497 H   0  0  0  0  0  0
  -22.6915  -31.3106   21.4108 H   0  0  0  0  0  0
  -23.3752  -35.9636   23.3323 H   0  0  0  0  0  0
  -24.3576  -36.8915   22.2047 H   0  0  0  0  0  0
  -23.7236  -37.6519   23.6651 H   0  0  0  0  0  0
  -26.0401  -31.6028   20.5974 H   0  0  0  0  0  0
  -26.8167  -30.8946   21.9849 H   0  0  0  0  0  0
  -28.1008  -29.1324   21.1782 H   0  0  0  0  0  0
  -26.0991  -26.0001   18.9841 H   0  0  0  0  0  0
  -23.9951  -27.3039   19.0206 H   0  0  0  0  0  0
  -23.7228  -30.6046   19.4091 H   0  0  0  0  0  0
  -22.7372  -29.2460   19.8676 H   0  0  0  0  0  0
  -25.1276  -36.1988   25.0836 H   0  0  0  0  0  0
  -20.9957  -28.3220   24.1427 H   0  0  0  0  0  0
  -20.5648  -26.2268   23.3604 H   0  0  0  0  0  0
  -21.6631  -26.7436   22.1206 H   0  0  0  0  0  0
  -19.6916  -25.6291   21.1223 H   0  0  0  0  0  0
  -19.6678  -27.3199   20.6740 H   0  0  0  0  0  0
  -17.4186  -26.6669   21.4021 H   0  0  0  0  0  0
  -18.0321  -26.0049   22.9008 H   0  0  0  0  0  0
  -19.7938  -30.7213   24.2324 H   0  0  0  0  0  0
  -17.5031  -31.6269   24.5134 H   0  0  0  0  0  0
  -15.5361  -30.2993   23.7625 H   0  0  0  0  0  0
  -15.8667  -28.0805   22.7079 H   0  0  0  0  0  0
  -24.5944  -30.7014   25.7810 H   0  0  0  0  0  0
  -24.8935  -32.2797   26.4948 H   0  0  0  0  0  0
  -25.8107  -30.8825   27.0222 H   0  0  0  0  0  0
  -26.2848  -29.6777   24.1190 H   0  0  0  0  0  0
  -27.4188  -29.7292   25.4499 H   0  0  0  0  0  0
  -27.8640  -30.4386   23.9160 H   0  0  0  0  0  0
  -27.2713  -33.3608   26.2069 H   0  0  0  0  0  0
  -28.3860  -32.6857   25.0279 H   0  0  0  0  0  0
  -28.0768  -31.8423   26.5379 H   0  0  0  0  0  0
  -28.2595  -38.0102   24.7529 H   0  0  0  0  0  0
  -28.1077  -36.2637   24.6267 H   0  0  0  0  0  0
  -27.2299  -37.1409   25.8867 H   0  0  0  0  0  0
  -20.9273  -29.8752   21.6949 H   0  0  0  0  0  0
  -26.0188  -38.2878   24.1439 H   0  0  0  0  0  0
  -33.8539  -18.3107   21.9258 H   0  0  0  0  0  0
  -32.3853  -20.2431   22.4119 H   0  0  0  0  0  0
  -32.9145  -16.1121   21.4828 H   0  0  0  0  0  0
  -28.9112  -17.7307   21.8990 H   0  0  0  0  0  0
  -30.9408  -25.4741   23.1627 H   0  0  0  0  0  0
  -31.6029  -24.9088   21.6233 H   0  0  0  0  0  0
  -30.6684  -23.2992   23.8992 H   0  0  0  0  0  0
  -31.4590  -22.7344   22.4589 H   0  0  0  0  0  0
  -28.6111  -22.6874   23.2038 H   0  0  0  0  0  0
  -26.7496  -25.0334   21.3845 H   0  0  0  0  0  0
  -26.6151  -23.3209   21.6836 H   0  0  0  0  0  0
  -27.1441  -23.8981   20.0880 H   0  0  0  0  0  0
  -29.9952  -22.3040   19.7007 H   0  0  0  0  0  0
  -30.1643  -20.5597   19.7571 H   0  0  0  0  0  0
  -31.2869  -21.5736   20.6326 H   0  0  0  0  0  0
  -27.5673  -21.6421   20.2257 H   0  0  0  0  0  0
  -27.1450  -21.0222   21.8248 H   0  0  0  0  0  0
  -27.9288  -19.9896   20.6400 H   0  0  0  0  0  0
  -30.2187  -20.7640   23.4495 H   0  0  0  0  0  0
  -28.7770  -19.9130   23.1098 H   0  0  0  0  0  0
  -30.1516  -27.0258   20.9489 H   0  0  0  0  0  0
  -28.8029  -27.0988   22.0604 H   0  0  0  0  0  0
  -29.2945  -15.2878   21.6604 H   0  0  0  0  0  0
  1 25  1  0  0  0
  1 30  2  0  0  0
  1 88  1  0  0  0
  2  3  1  0  0  0
  2 25  1  0  0  0
  2 89  1  0  0  0
  2 90  1  0  0  0
  3  4  1  0  0  0
  3 91  1  0  0  0
  3 92  1  0  0  0
  4  5  1  0  0  0
  4 93  1  0  0  0
  4 94  1  0  0  0
  5  6  1  0  0  0
  5 26  1  0  0  0
  5 95  1  0  0  0
  6 25  1  0  0  0
  6 96  1  0  0  0
  6 97  1  0  0  0
  7  8  2  0  0  0
  7 26  1  0  0  0
  7 29  1  0  0  0
  8  9  1  0  0  0
  8 22  1  0  0  0
  9 10  1  0  0  0
  9 27  2  0  0  0
 10 11  2  0  0  0
 10 15  1  0  0  0
 11 12  1  0  0  0
 11 98  1  0  0  0
 12 13  2  0  0  0
 12 99  1  0  0  0
 13 14  1  0  0  0
 13 31  1  0  0  0
 14 15  2  0  0  0
 14100  1  0  0  0
 15101  1  0  0  0
 16 17  2  0  0  0
 16 21  1  0  0  0
 16 31  1  0  0  0
 17 18  1  0  0  0
 17102  1  0  0  0
 18 19  2  0  0  0
 18103  1  0  0  0
 19 20  1  0  0  0
 19 24  1  0  0  0
 20 21  2  0  0  0
 20104  1  0  0  0
 21 23  1  0  0  0
 22 28  1  0  0  0
 22 32  2  0  0  0
 26 27  1  0  0  0
 28105  1  0  0  0
 28106  1  0  0  0
 29107  1  0  0  0
 29108  1  0  0  0
 33 34  1  0  0  0
 33 66  1  0  0  0
 33 70  2  0  0  0
 34 36  1  0  0  0
 34 59  1  0  0  0
 34109  1  0  0  0
 35 44  2  0  0  0
 35 45  1  0  0  0
 35 68  1  0  0  0
 36 56  1  0  0  0
 36110  1  0  0  0
 37 39  1  0  0  0
 37 47  1  0  0  0
 37 66  1  0  0  0
 37111  1  0  0  0
 38 43  2  0  0  0
 38 46  1  0  0  0
 38 47  1  0  0  0
 39 64  1  0  0  0
 39 67  2  0  0  0
 40 52  1  0  0  0
 40 53  2  0  0  0
 40 58  1  0  0  0
 41112  1  0  0  0
 41113  1  0  0  0
 41114  1  0  0  0
 41 48  1  0  0  0
 42 43  1  0  0  0
 42 66  1  0  0  0
 42115  1  0  0  0
 42116  1  0  0  0
 43 44  1  0  0  0
 44117  1  0  0  0
 45 46  2  0  0  0
 45118  1  0  0  0
 46119  1  0  0  0
 47120  1  0  0  0
 47121  1  0  0  0
 48 56  1  0  0  0
 48 65  1  0  0  0
 48122  1  0  0  0
 49 50  1  0  0  0
 49 53  1  0  0  0
 49 64  1  0  0  0
 49123  1  0  0  0
 50 51  1  0  0  0
 50124  1  0  0  0
 50125  1  0  0  0
 51 52  1  0  0  0
 51126  1  0  0  0
 51127  1  0  0  0
 52128  1  0  0  0
 52129  1  0  0  0
 53 54  1  0  0  0
 54 55  2  0  0  0
 54130  1  0  0  0
 55 57  1  0  0  0
 55131  1  0  0  0
 56 69  2  0  0  0
 57 58  2  0  0  0
 57132  1  0  0  0
 58133  1  0  0  0
 59 60  1  0  0  0
 59 61  1  0  0  0
 59 62  1  0  0  0
 60134  1  0  0  0
 60135  1  0  0  0
 60136  1  0  0  0
 61137  1  0  0  0
 61138  1  0  0  0
 61139  1  0  0  0
 62140  1  0  0  0
 62141  1  0  0  0
 62142  1  0  0  0
 63 65  1  0  0  0
 63143  1  0  0  0
 63144  1  0  0  0
 63145  1  0  0  0
 64146  1  0  0  0
 65147  1  0  0  0
 68 86  1  0  0  0
 71 72  2  0  0  0
 71 73  1  0  0  0
 71148  1  0  0  0
 72 75  1  0  0  0
 72149  1  0  0  0
 73 76  2  0  0  0
 73150  1  0  0  0
 74 75  2  0  0  0
 74 76  1  0  0  0
 74151  1  0  0  0
 75 85  1  0  0  0
 76 88  1  0  0  0
 77 78  2  0  0  0
 77 79  1  0  0  0
 77 86  1  0  0  0
 78 81  1  0  0  0
 78 82  1  0  0  0
 79 80  1  0  0  0
 79152  1  0  0  0
 79153  1  0  0  0
 80154  1  0  0  0
 80155  1  0  0  0
 80 81  1  0  0  0
 81 87  1  0  0  0
 81156  1  0  0  0
 82157  1  0  0  0
 82158  1  0  0  0
 82159  1  0  0  0
 83160  1  0  0  0
 83161  1  0  0  0
 83162  1  0  0  0
 83 87  1  0  0  0
 84 87  1  0  0  0
 84163  1  0  0  0
 84164  1  0  0  0
 84165  1  0  0  0
 85 87  1  0  0  0
 85166  1  0  0  0
 85167  1  0  0  0
 86168  1  0  0  0
 86169  1  0  0  0
 88170  1  0  0  0
M  ISO  4   1 100  68 101  86 101  88 100
M  END
> <chiral flag>
0

> <version>
0

> <s_m_source_file>
/data/baiqing/PycharmProjects/Reinvent-master-3.2/result/LINK_invent/BTK/process_docking_weight1_custom_product_contain_oxygen_bond_distance_aromatic_linkinvent_7_9_3/rearranged_h_0138.sdf

> <i_m_source_file_index>
12

> <r_mmod_Potential_Energy-OPLS-2005>
98.0032043457031

> <r_mmod_Stretch_Energy-OPLS-2005>
46.2799377441406

> <r_mmod_Bend_Energy-OPLS-2005>
162.680313110352

> <r_mmod_Torsional_Energy-OPLS-2005>
259.83056640625

> <r_mmod_Improper_Torsional_Energy-OPLS-2005>
3.06180000305176

> <r_mmod_Van_der_Waal_Energy-OPLS-2005>
159.140228271484

> <r_mmod_Electrostatic_Energy-OPLS-2005>
-355.425720214844

> <r_mmod_Solvation_Energy-OPLS-2005>
-189.110229492188

> <b_mmod_Minimization_Converged-OPLS-2005>
0

> <r_mmod_RMS_Derivative-OPLS-2005>
2.01803946495056

$$$$
12
                    3D
 Structure written by MMmdl.
163171  0  0  1  0            999 V2000
  -30.6145  -14.7412   20.4762 C   0  0  0  0  0  0
  -30.4235  -12.4498   19.4767 C   0  0  0  0  0  0
  -29.5061  -12.5140   18.2373 C   0  0  0  0  0  0
  -28.0295  -12.3608   18.6390 C   0  0  0  0  0  0
  -27.6431  -13.2407   19.8581 C   0  0  2  0  0  0
  -28.6870  -13.1469   20.9917 C   0  0  0  0  0  0
  -25.2495  -13.8183   20.5681 C   0  0  0  0  0  0
  -24.1785  -13.0413   20.9197 C   0  0  0  0  0  0
  -24.6383  -11.6898   20.8687 C   0  0  0  0  0  0
  -23.9037  -10.4274   21.0352 C   0  0  0  0  0  0
  -24.3576   -9.4197   21.9152 C   0  0  0  0  0  0
  -23.6250   -8.2235   22.0714 C   0  0  0  0  0  0
  -22.4233   -8.0260   21.3500 C   0  0  0  0  0  0
  -21.9876   -9.0248   20.4602 C   0  0  0  0  0  0
  -22.7204  -10.2128   20.3013 C   0  0  0  0  0  0
  -21.6835   -6.0720   22.5253 C   0  0  0  0  0  0
  -21.4043   -6.5630   23.8186 C   0  0  0  0  0  0
  -21.3680   -5.6772   24.9152 C   0  0  0  0  0  0
  -21.6039   -4.3038   24.7199 C   0  0  0  0  0  0
  -21.8833   -3.8131   23.4335 C   0  0  0  0  0  0
  -21.9196   -4.6956   22.3379 C   0  0  0  0  0  0
  -22.7819  -13.5166   21.1885 C   0  0  0  0  0  0
  -22.1641   -4.2144   21.0967 F   0  0  0  0  0  0
  -21.5610   -3.4518   25.7715 F   0  0  0  0  0  0
  -29.9847  -13.5140   20.4140 N   0  0  0  0  0  0
  -26.2936  -12.9418   20.3293 N   0  0  0  0  0  0
  -25.9327  -11.6538   20.5723 N   0  0  0  0  0  0
  -22.0486  -12.8136   22.0450 N   0  0  0  0  0  0
  -25.4178  -15.1902   20.4063 N   0  0  0  0  0  0
  -31.7696  -14.8318   20.0560 O   0  0  0  0  0  0
  -21.6619   -6.8854   21.4198 O   0  0  0  0  0  0
  -22.3468  -14.5480   20.6752 O   0  0  0  0  0  0
  -24.6310  -31.8529   23.1978 C   0  0  0  0  0  0
  -25.9125  -32.4730   23.8342 C   0  0  1  0  0  0
  -27.2087  -27.2371   20.1395 C   0  0  0  0  0  0
  -25.5934  -33.8537   24.2266 N   0  0  0  0  0  0
  -23.4315  -30.4733   21.5419 C   0  0  2  0  0  0
  -24.8787  -28.9155   20.1149 C   0  0  0  0  0  0
  -22.7521  -29.4570   22.4912 C   0  0  0  0  0  0
  -18.0300  -28.1373   22.8468 C   0  0  0  0  0  0
  -24.1508  -36.7247   23.2638 C   0  0  0  0  0  0
  -25.9824  -30.7569   21.3867 C   0  0  0  0  0  0
  -26.0533  -29.3802   20.7222 C   0  0  0  0  0  0
  -27.2257  -28.5536   20.7197 C   0  0  0  0  0  0
  -26.0156  -26.8496   19.4955 C   0  0  0  0  0  0
  -24.8637  -27.6580   19.4927 C   0  0  0  0  0  0
  -23.6537  -29.8071   20.1598 C   0  0  0  0  0  0
  -25.4130  -36.3052   24.0334 C   0  0  1  0  0  0
  -20.5909  -28.3680   23.1257 C   0  0  2  0  0  0
  -20.6795  -26.9394   22.5390 C   0  0  0  0  0  0
  -19.5777  -26.6372   21.5192 C   0  0  0  0  0  0
  -18.1961  -26.7914   22.1607 C   0  0  0  0  0  0
  -19.1557  -28.8845   23.2854 C   0  0  0  0  0  0
  -18.9466  -30.1456   23.8861 C   0  0  0  0  0  0
  -17.6464  -30.6567   24.0543 C   0  0  0  0  0  0
  -25.9070  -34.9424   23.5109 C   0  0  0  0  0  0
  -16.5355  -29.9057   23.6337 C   0  0  0  0  0  0
  -16.7288  -28.6481   23.0341 C   0  0  0  0  0  0
  -26.4487  -31.6555   25.0731 C   0  0  0  0  0  0
  -25.3731  -31.3697   26.1461 C   0  0  0  0  0  0
  -27.0332  -30.2971   24.6256 C   0  0  0  0  0  0
  -27.6071  -32.4286   25.7448 C   0  0  0  0  0  0
  -27.5612  -37.1752   24.8449 C   0  0  0  0  0  0
  -21.4232  -29.3012   22.3632 N   0  0  0  0  0  0
  -26.4303  -37.3757   23.9428 N   0  0  0  0  0  0
  -24.6999  -31.0477   22.0960 N   0  0  0  0  0  0
  -23.4193  -28.8141   23.3049 O   0  0  0  0  0  0
  -28.2734  -26.3056   20.1711 O   0  0  0  0  0  0
  -26.5640  -34.8894   22.4680 O   0  0  0  0  0  0
  -23.5452  -32.1345   23.7257 O   0  0  0  0  0  0
  -30.9581  -20.1212   21.2078 C   0  0  0  0  0  0
  -29.4058  -18.4231   20.4674 C   0  0  0  0  0  0
  -31.8165  -19.1003   21.6720 C   0  0  0  0  0  0
  -31.4267  -17.7274   21.6654 C   0  0  0  0  0  0
  -30.2472  -17.3253   20.9514 C   0  0  0  0  0  0
  -29.7047  -19.8432   20.6343 C   0  0  0  0  0  0
  -33.4384  -20.1836   23.1793 C   0  0  0  0  0  0
  -33.1773  -19.5219   22.0403 C   0  0  0  0  0  0
  -28.7166  -23.6263   20.0826 C   0  0  0  0  0  0
  -34.2540  -19.1884   21.0226 C   0  0  0  0  0  0
  -31.5126  -16.1836   23.7190 C   0  0  0  0  0  0
  -32.2639  -16.7351   22.4976 C   0  0  0  0  0  0
  -27.9612  -24.9147   20.6860 C   0  0  0  0  0  0
  -28.7769  -22.2390   20.9059 C   0  0  0  0  0  0
  -29.8715  -15.8794   20.8047 N   0  0  0  0  0  0
  -29.2561  -23.7018   18.9742 O   0  0  0  0  0  0
  -28.9057  -20.9334   20.1589 O   0  0  0  0  0  0
  -31.4606  -12.5776   19.1679 H   0  0  0  0  0  0
  -30.3737  -11.4689   19.9533 H   0  0  0  0  0  0
  -29.7774  -11.7371   17.5207 H   0  0  0  0  0  0
  -29.6525  -13.4662   17.7275 H   0  0  0  0  0  0
  -27.8538  -11.3104   18.8672 H   0  0  0  0  0  0
  -27.3865  -12.6004   17.7905 H   0  0  0  0  0  0
  -27.6524  -14.2707   19.4981 H   0  0  0  0  0  0
  -28.7226  -12.1351   21.3984 H   0  0  0  0  0  0
  -28.4248  -13.7998   21.8254 H   0  0  0  0  0  0
  -25.2717   -9.5681   22.4732 H   0  0  0  0  0  0
  -23.9967   -7.4607   22.7412 H   0  0  0  0  0  0
  -21.0810   -8.8720   19.8906 H   0  0  0  0  0  0
  -22.3603  -10.9640   19.6112 H   0  0  0  0  0  0
  -21.2050   -7.6125   23.9694 H   0  0  0  0  0  0
  -21.1479   -6.0498   25.9045 H   0  0  0  0  0  0
  -22.0604   -2.7610   23.2822 H   0  0  0  0  0  0
  -22.4093  -11.9787   22.4836 H   0  0  0  0  0  0
  -21.1115  -13.1148   22.2654 H   0  0  0  0  0  0
  -24.6645  -15.8514   20.5580 H   0  0  0  0  0  0
  -26.2544  -15.6284   20.0429 H   0  0  0  0  0  0
  -26.7194  -32.5367   23.1079 H   0  0  0  0  0  0
  -25.0061  -33.9700   25.0399 H   0  0  0  0  0  0
  -22.7274  -31.2937   21.3933 H   0  0  0  0  0  0
  -23.3809  -35.9538   23.3239 H   0  0  0  0  0  0
  -24.3629  -36.8922   22.2072 H   0  0  0  0  0  0
  -23.7208  -37.6409   23.6697 H   0  0  0  0  0  0
  -26.1494  -31.5280   20.6335 H   0  0  0  0  0  0
  -26.8467  -30.7853   22.0375 H   0  0  0  0  0  0
  -28.1273  -28.9010   21.2049 H   0  0  0  0  0  0
  -25.9585  -25.8898   19.0045 H   0  0  0  0  0  0
  -23.9617  -27.2952   19.0194 H   0  0  0  0  0  0
  -23.7885  -30.5836   19.4058 H   0  0  0  0  0  0
  -22.7697  -29.2453   19.8502 H   0  0  0  0  0  0
  -25.1301  -36.1893   25.0825 H   0  0  0  0  0  0
  -20.9998  -28.3269   24.1379 H   0  0  0  0  0  0
  -20.5717  -26.2272   23.3582 H   0  0  0  0  0  0
  -21.6662  -26.7423   22.1175 H   0  0  0  0  0  0
  -19.6935  -25.6284   21.1226 H   0  0  0  0  0  0
  -19.6733  -27.3175   20.6721 H   0  0  0  0  0  0
  -17.4215  -26.6630   21.4033 H   0  0  0  0  0  0
  -18.0391  -26.0071   22.9034 H   0  0  0  0  0  0
  -19.7948  -30.7290   24.2214 H   0  0  0  0  0  0
  -17.5008  -31.6257   24.5141 H   0  0  0  0  0  0
  -15.5354  -30.2921   23.7693 H   0  0  0  0  0  0
  -15.8696  -28.0787   22.7049 H   0  0  0  0  0  0
  -24.5797  -30.7206   25.7738 H   0  0  0  0  0  0
  -24.9064  -32.2870   26.5061 H   0  0  0  0  0  0
  -25.8025  -30.8668   27.0136 H   0  0  0  0  0  0
  -26.2921  -29.6686   24.1310 H   0  0  0  0  0  0
  -27.4016  -29.7262   25.4789 H   0  0  0  0  0  0
  -27.8806  -30.4210   23.9513 H   0  0  0  0  0  0
  -27.2725  -33.3591   26.2038 H   0  0  0  0  0  0
  -28.3830  -32.6833   25.0219 H   0  0  0  0  0  0
  -28.0798  -31.8407   26.5326 H   0  0  0  0  0  0
  -28.2527  -38.0151   24.7640 H   0  0  0  0  0  0
  -28.1220  -36.2689   24.6091 H   0  0  0  0  0  0
  -27.2358  -37.1157   25.8853 H   0  0  0  0  0  0
  -20.9428  -29.8658   21.6768 H   0  0  0  0  0  0
  -26.0171  -38.2818   24.1495 H   0  0  0  0  0  0
  -31.3104  -21.1409   21.2534 H   0  0  0  0  0  0
  -28.4882  -18.1752   19.9494 H   0  0  0  0  0  0
  -32.6489  -20.4162   23.8791 H   0  0  0  0  0  0
  -34.4399  -20.5032   23.4358 H   0  0  0  0  0  0
  -33.9816  -19.5805   20.0401 H   0  0  0  0  0  0
  -34.3698  -18.1076   20.9245 H   0  0  0  0  0  0
  -35.2218  -19.6163   21.2893 H   0  0  0  0  0  0
  -30.5521  -15.7347   23.4669 H   0  0  0  0  0  0
  -31.3319  -16.9802   24.4388 H   0  0  0  0  0  0
  -32.1053  -15.4187   24.2238 H   0  0  0  0  0  0
  -33.1727  -17.1903   22.8869 H   0  0  0  0  0  0
  -32.6600  -15.9272   21.8986 H   0  0  0  0  0  0
  -28.1376  -24.9214   21.7625 H   0  0  0  0  0  0
  -26.8978  -24.7047   20.5749 H   0  0  0  0  0  0
  -27.8464  -22.1733   21.4688 H   0  0  0  0  0  0
  -29.5576  -22.3336   21.6572 H   0  0  0  0  0  0
  -28.8901  -15.6850   20.9312 H   0  0  0  0  0  0
  1 25  1  0  0  0
  1 30  2  0  0  0
  1 85  1  0  0  0
  2  3  1  0  0  0
  2 25  1  0  0  0
  2 88  1  0  0  0
  2 89  1  0  0  0
  3  4  1  0  0  0
  3 90  1  0  0  0
  3 91  1  0  0  0
  4  5  1  0  0  0
  4 92  1  0  0  0
  4 93  1  0  0  0
  5  6  1  0  0  0
  5 26  1  0  0  0
  5 94  1  0  0  0
  6 25  1  0  0  0
  6 95  1  0  0  0
  6 96  1  0  0  0
  7  8  2  0  0  0
  7 26  1  0  0  0
  7 29  1  0  0  0
  8  9  1  0  0  0
  8 22  1  0  0  0
  9 10  1  0  0  0
  9 27  2  0  0  0
 10 11  2  0  0  0
 10 15  1  0  0  0
 11 12  1  0  0  0
 11 97  1  0  0  0
 12 13  2  0  0  0
 12 98  1  0  0  0
 13 14  1  0  0  0
 13 31  1  0  0  0
 14 15  2  0  0  0
 14 99  1  0  0  0
 15100  1  0  0  0
 16 17  2  0  0  0
 16 21  1  0  0  0
 16 31  1  0  0  0
 17 18  1  0  0  0
 17101  1  0  0  0
 18 19  2  0  0  0
 18102  1  0  0  0
 19 20  1  0  0  0
 19 24  1  0  0  0
 20 21  2  0  0  0
 20103  1  0  0  0
 21 23  1  0  0  0
 22 28  1  0  0  0
 22 32  2  0  0  0
 26 27  1  0  0  0
 28104  1  0  0  0
 28105  1  0  0  0
 29106  1  0  0  0
 29107  1  0  0  0
 33 34  1  0  0  0
 33 66  1  0  0  0
 33 70  2  0  0  0
 34 36  1  0  0  0
 34 59  1  0  0  0
 34108  1  0  0  0
 35 44  2  0  0  0
 35 45  1  0  0  0
 35 68  1  0  0  0
 36 56  1  0  0  0
 36109  1  0  0  0
 37 39  1  0  0  0
 37 47  1  0  0  0
 37 66  1  0  0  0
 37110  1  0  0  0
 38 43  2  0  0  0
 38 46  1  0  0  0
 38 47  1  0  0  0
 39 64  1  0  0  0
 39 67  2  0  0  0
 40 52  1  0  0  0
 40 53  2  0  0  0
 40 58  1  0  0  0
 41111  1  0  0  0
 41112  1  0  0  0
 41113  1  0  0  0
 41 48  1  0  0  0
 42 43  1  0  0  0
 42 66  1  0  0  0
 42114  1  0  0  0
 42115  1  0  0  0
 43 44  1  0  0  0
 44116  1  0  0  0
 45 46  2  0  0  0
 45117  1  0  0  0
 46118  1  0  0  0
 47119  1  0  0  0
 47120  1  0  0  0
 48 56  1  0  0  0
 48 65  1  0  0  0
 48121  1  0  0  0
 49 50  1  0  0  0
 49 53  1  0  0  0
 49 64  1  0  0  0
 49122  1  0  0  0
 50 51  1  0  0  0
 50123  1  0  0  0
 50124  1  0  0  0
 51 52  1  0  0  0
 51125  1  0  0  0
 51126  1  0  0  0
 52127  1  0  0  0
 52128  1  0  0  0
 53 54  1  0  0  0
 54 55  2  0  0  0
 54129  1  0  0  0
 55 57  1  0  0  0
 55130  1  0  0  0
 56 69  2  0  0  0
 57 58  2  0  0  0
 57131  1  0  0  0
 58132  1  0  0  0
 59 60  1  0  0  0
 59 61  1  0  0  0
 59 62  1  0  0  0
 60133  1  0  0  0
 60134  1  0  0  0
 60135  1  0  0  0
 61136  1  0  0  0
 61137  1  0  0  0
 61138  1  0  0  0
 62139  1  0  0  0
 62140  1  0  0  0
 62141  1  0  0  0
 63 65  1  0  0  0
 63142  1  0  0  0
 63143  1  0  0  0
 63144  1  0  0  0
 64145  1  0  0  0
 65146  1  0  0  0
 68 83  1  0  0  0
 71 73  2  0  0  0
 71 76  1  0  0  0
 71147  1  0  0  0
 72 75  1  0  0  0
 72 76  2  0  0  0
 72148  1  0  0  0
 73 74  1  0  0  0
 73 78  1  0  0  0
 74 75  2  0  0  0
 74 82  1  0  0  0
 75 85  1  0  0  0
 76 87  1  0  0  0
 77 78  2  0  0  0
 77149  1  0  0  0
 77150  1  0  0  0
 78 80  1  0  0  0
 79 83  1  0  0  0
 79 84  1  0  0  0
 79 86  2  0  0  0
 80151  1  0  0  0
 80152  1  0  0  0
 80153  1  0  0  0
 81 82  1  0  0  0
 81154  1  0  0  0
 81155  1  0  0  0
 81156  1  0  0  0
 82157  1  0  0  0
 82158  1  0  0  0
 83159  1  0  0  0
 83160  1  0  0  0
 84 87  1  0  0  0
 84161  1  0  0  0
 84162  1  0  0  0
 85163  1  0  0  0
M  ISO  4   1 100  68 101  83 101  85 100
M  END
> <chiral flag>
0

> <version>
0

> <s_m_source_file>
/data/baiqing/PycharmProjects/Reinvent-master-3.2/result/LINK_invent/BTK/process_docking_weight1_custom_product_contain_oxygen_bond_distance_aromatic_linkinvent_7_9_3/rearranged_h_0138.sdf

> <i_m_source_file_index>
13

> <r_mmod_Potential_Energy-OPLS-2005>
283.750061035156

> <r_mmod_Stretch_Energy-OPLS-2005>
147.670593261719

> <r_mmod_Bend_Energy-OPLS-2005>
177.080535888672

> <r_mmod_Torsional_Energy-OPLS-2005>
286.957244873047

> <r_mmod_Improper_Torsional_Energy-OPLS-2005>
5.78596448898315

> <r_mmod_Van_der_Waal_Energy-OPLS-2005>
145.242095947266

> <r_mmod_Electrostatic_Energy-OPLS-2005>
-338.396514892578

> <r_mmod_Solvation_Energy-OPLS-2005>
-231.472534179688

> <b_mmod_Minimization_Converged-OPLS-2005>
0

> <r_mmod_RMS_Derivative-OPLS-2005>
4.64812994003296

$$$$
13
                    3D
 Structure written by MMmdl.
157165  0  0  1  0            999 V2000
  -30.5685  -14.7398   20.4638 C   0  0  0  0  0  0
  -30.4246  -12.4379   19.5021 C   0  0  0  0  0  0
  -29.5167  -12.5124   18.2522 C   0  0  0  0  0  0
  -28.0360  -12.3456   18.6490 C   0  0  0  0  0  0
  -27.6408  -13.2212   19.8666 C   0  0  2  0  0  0
  -28.6760  -13.1335   21.0107 C   0  0  0  0  0  0
  -25.2496  -13.8183   20.5674 C   0  0  0  0  0  0
  -24.1751  -13.0423   20.9183 C   0  0  0  0  0  0
  -24.6326  -11.6903   20.8739 C   0  0  0  0  0  0
  -23.8993  -10.4288   21.0417 C   0  0  0  0  0  0
  -24.3553   -9.4212   21.9183 C   0  0  0  0  0  0
  -23.6252   -8.2235   22.0744 C   0  0  0  0  0  0
  -22.4242   -8.0256   21.3529 C   0  0  0  0  0  0
  -21.9859   -9.0225   20.4635 C   0  0  0  0  0  0
  -22.7174  -10.2120   20.3073 C   0  0  0  0  0  0
  -21.6852   -6.0700   22.5256 C   0  0  0  0  0  0
  -21.4020   -6.5606   23.8192 C   0  0  0  0  0  0
  -21.3666   -5.6761   24.9155 C   0  0  0  0  0  0
  -21.6071   -4.3027   24.7210 C   0  0  0  0  0  0
  -21.8822   -3.8116   23.4328 C   0  0  0  0  0  0
  -21.9183   -4.6928   22.3384 C   0  0  0  0  0  0
  -22.7803  -13.5258   21.1842 C   0  0  0  0  0  0
  -22.1667   -4.2125   21.0966 F   0  0  0  0  0  0
  -21.5629   -3.4513   25.7719 F   0  0  0  0  0  0
  -29.9843  -13.4927   20.4509 N   0  0  0  0  0  0
  -26.2896  -12.9337   20.3310 N   0  0  0  0  0  0
  -25.9260  -11.6489   20.5740 N   0  0  0  0  0  0
  -22.0432  -12.8281   22.0438 N   0  0  0  0  0  0
  -25.4206  -15.1892   20.4103 N   0  0  0  0  0  0
  -31.7104  -14.8825   20.0086 O   0  0  0  0  0  0
  -21.6643   -6.8832   21.4213 O   0  0  0  0  0  0
  -22.3514  -14.5566   20.6682 O   0  0  0  0  0  0
  -24.6366  -31.8562   23.2051 C   0  0  0  0  0  0
  -25.9209  -32.4737   23.8333 C   0  0  1  0  0  0
  -27.1557  -27.2273   20.0915 C   0  0  0  0  0  0
  -25.6018  -33.8556   24.2248 N   0  0  0  0  0  0
  -23.4245  -30.4945   21.5565 C   0  0  2  0  0  0
  -24.8510  -28.9539   20.1027 C   0  0  0  0  0  0
  -22.7528  -29.4645   22.4953 C   0  0  0  0  0  0
  -18.0315  -28.1232   22.8611 C   0  0  0  0  0  0
  -24.1504  -36.7222   23.2636 C   0  0  0  0  0  0
  -25.9800  -30.7505   21.3964 C   0  0  0  0  0  0
  -26.0313  -29.3818   20.7182 C   0  0  0  0  0  0
  -27.1884  -28.5308   20.7023 C   0  0  0  0  0  0
  -25.9451  -26.8842   19.4434 C   0  0  0  0  0  0
  -24.8171  -27.7152   19.4577 C   0  0  0  0  0  0
  -23.6313  -29.8491   20.1660 C   0  0  0  0  0  0
  -25.4152  -36.3053   24.0317 C   0  0  1  0  0  0
  -20.5912  -28.3653   23.1133 C   0  0  2  0  0  0
  -20.6894  -26.9444   22.5084 C   0  0  0  0  0  0
  -19.5606  -26.6203   21.5246 C   0  0  0  0  0  0
  -18.2003  -26.7617   22.2096 C   0  0  0  0  0  0
  -19.1561  -28.8798   23.2825 C   0  0  0  0  0  0
  -18.9492  -30.1470   23.8688 C   0  0  0  0  0  0
  -17.6483  -30.6575   24.0424 C   0  0  0  0  0  0
  -25.9107  -34.9422   23.5081 C   0  0  0  0  0  0
  -16.5382  -29.8993   23.6326 C   0  0  0  0  0  0
  -16.7298  -28.6357   23.0433 C   0  0  0  0  0  0
  -26.4544  -31.6561   25.0728 C   0  0  0  0  0  0
  -25.3713  -31.3759   26.1399 C   0  0  0  0  0  0
  -27.0409  -30.2963   24.6294 C   0  0  0  0  0  0
  -27.6101  -32.4313   25.7489 C   0  0  0  0  0  0
  -27.5589  -37.1798   24.8476 C   0  0  0  0  0  0
  -21.4229  -29.3116   22.3666 N   0  0  0  0  0  0
  -26.4305  -37.3763   23.9406 N   0  0  0  0  0  0
  -24.7006  -31.0513   22.1063 N   0  0  0  0  0  0
  -23.4225  -28.8150   23.3011 O   0  0  0  0  0  0
  -28.2338  -26.3060   20.1449 O   0  0  0  0  0  0
  -26.5636  -34.8903   22.4618 O   0  0  0  0  0  0
  -23.5522  -32.1405   23.7353 O   0  0  0  0  0  0
  -28.2419  -17.8307   18.1093 C   0  0  0  0  0  0
  -28.8315  -16.7946   18.8526 C   0  0  0  0  0  0
  -29.2795  -18.4012   20.6039 C   0  0  0  0  0  0
  -28.1749  -19.1727   18.5633 C   0  0  0  0  0  0
  -29.3724  -17.0254   20.1303 C   0  0  0  0  0  0
  -28.7118  -19.5225   19.8537 C   0  0  0  0  0  0
  -27.5024  -20.1349   17.5818 C   0  0  0  0  0  0
  -27.7266  -23.6893   21.8539 C   0  0  0  0  0  0
  -28.1279  -24.8830   19.6308 C   0  0  0  0  0  0
  -28.2569  -22.1143   19.8025 C   0  0  0  0  0  0
  -28.4731  -23.5714   20.5137 C   0  0  2  0  0  0
  -29.8344  -15.8404   20.9006 N   0  0  0  0  0  0
  -28.7196  -20.8386   20.4399 O   0  0  0  0  0  0
  -31.4722  -12.5474   19.2187 H   0  0  0  0  0  0
  -30.3482  -11.4546   19.9712 H   0  0  0  0  0  0
  -29.7975  -11.7461   17.5299 H   0  0  0  0  0  0
  -29.6601  -13.4690   17.7485 H   0  0  0  0  0  0
  -27.8740  -11.2936   18.8841 H   0  0  0  0  0  0
  -27.3914  -12.5698   17.7983 H   0  0  0  0  0  0
  -27.6421  -14.2471   19.5089 H   0  0  0  0  0  0
  -28.7014  -12.1311   21.4389 H   0  0  0  0  0  0
  -28.4000  -13.8021   21.8256 H   0  0  0  0  0  0
  -25.2675   -9.5729   22.4763 H   0  0  0  0  0  0
  -23.9968   -7.4647   22.7490 H   0  0  0  0  0  0
  -21.0775   -8.8731   19.8955 H   0  0  0  0  0  0
  -22.3595  -10.9657   19.6199 H   0  0  0  0  0  0
  -21.2041   -7.6118   23.9694 H   0  0  0  0  0  0
  -21.1489   -6.0486   25.9063 H   0  0  0  0  0  0
  -22.0600   -2.7583   23.2827 H   0  0  0  0  0  0
  -22.4000  -11.9965   22.4903 H   0  0  0  0  0  0
  -21.1065  -13.1340   22.2670 H   0  0  0  0  0  0
  -24.6482  -15.8382   20.5152 H   0  0  0  0  0  0
  -26.2669  -15.6307   20.0718 H   0  0  0  0  0  0
  -26.7266  -32.5354   23.1034 H   0  0  0  0  0  0
  -25.0290  -33.9685   25.0484 H   0  0  0  0  0  0
  -22.7205  -31.3216   21.4316 H   0  0  0  0  0  0
  -23.3796  -35.9518   23.3311 H   0  0  0  0  0  0
  -24.3591  -36.8822   22.2047 H   0  0  0  0  0  0
  -23.7227  -37.6419   23.6643 H   0  0  0  0  0  0
  -26.1561  -31.5270   20.6504 H   0  0  0  0  0  0
  -26.8445  -30.7605   22.0464 H   0  0  0  0  0  0
  -28.0946  -28.8537   21.1936 H   0  0  0  0  0  0
  -25.7898  -25.9686   18.9048 H   0  0  0  0  0  0
  -23.9109  -27.3919   18.9640 H   0  0  0  0  0  0
  -23.7517  -30.6348   19.4198 H   0  0  0  0  0  0
  -22.7405  -29.2980   19.8643 H   0  0  0  0  0  0
  -25.1342  -36.1884   25.0812 H   0  0  0  0  0  0
  -20.9993  -28.3103   24.1240 H   0  0  0  0  0  0
  -20.6336  -26.2168   23.3199 H   0  0  0  0  0  0
  -21.6603  -26.7752   22.0392 H   0  0  0  0  0  0
  -19.6733  -25.6074   21.1353 H   0  0  0  0  0  0
  -19.6102  -27.2907   20.6648 H   0  0  0  0  0  0
  -17.3995  -26.5795   21.4945 H   0  0  0  0  0  0
  -18.1053  -25.9966   22.9837 H   0  0  0  0  0  0
  -19.7999  -30.7354   24.1817 H   0  0  0  0  0  0
  -17.5047  -31.6341   24.4886 H   0  0  0  0  0  0
  -15.5377  -30.2870   23.7659 H   0  0  0  0  0  0
  -15.8701  -28.0613   22.7203 H   0  0  0  0  0  0
  -24.5910  -30.7096   25.7698 H   0  0  0  0  0  0
  -24.8855  -32.2941   26.4717 H   0  0  0  0  0  0
  -25.7937  -30.8990   27.0241 H   0  0  0  0  0  0
  -26.3033  -29.6696   24.1270 H   0  0  0  0  0  0
  -27.4003  -29.7252   25.4858 H   0  0  0  0  0  0
  -27.8938  -30.4195   23.9619 H   0  0  0  0  0  0
  -27.2732  -33.3657   26.1981 H   0  0  0  0  0  0
  -28.3928  -32.6799   25.0315 H   0  0  0  0  0  0
  -28.0724  -31.8479   26.5456 H   0  0  0  0  0  0
  -28.2628  -38.0081   24.7529 H   0  0  0  0  0  0
  -28.1063  -36.2611   24.6313 H   0  0  0  0  0  0
  -27.2276  -37.1453   25.8870 H   0  0  0  0  0  0
  -20.9424  -29.8948   21.6967 H   0  0  0  0  0  0
  -26.0169  -38.2823   24.1424 H   0  0  0  0  0  0
  -27.8204  -17.5630   17.1484 H   0  0  0  0  0  0
  -28.8248  -15.8020   18.4300 H   0  0  0  0  0  0
  -29.6690  -18.6190   21.5878 H   0  0  0  0  0  0
  -27.2147  -19.6134   16.6670 H   0  0  0  0  0  0
  -28.1686  -20.9261   17.2430 H   0  0  0  0  0  0
  -26.5781  -20.5613   17.9734 H   0  0  0  0  0  0
  -27.9574  -24.6410   22.3379 H   0  0  0  0  0  0
  -28.0029  -22.8972   22.5509 H   0  0  0  0  0  0
  -26.6465  -23.6661   21.7166 H   0  0  0  0  0  0
  -28.8019  -24.8533   18.7767 H   0  0  0  0  0  0
  -27.1666  -24.6445   19.1952 H   0  0  0  0  0  0
  -28.7683  -22.1875   18.8466 H   0  0  0  0  0  0
  -27.1935  -22.0078   19.5886 H   0  0  0  0  0  0
  -29.5359  -23.6315   20.7403 H   0  0  0  0  0  0
  -29.2598  -15.6475   21.7117 H   0  0  0  0  0  0
  1 25  1  0  0  0
  1 30  2  0  0  0
  1 82  1  0  0  0
  2  3  1  0  0  0
  2 25  1  0  0  0
  2 84  1  0  0  0
  2 85  1  0  0  0
  3  4  1  0  0  0
  3 86  1  0  0  0
  3 87  1  0  0  0
  4  5  1  0  0  0
  4 88  1  0  0  0
  4 89  1  0  0  0
  5  6  1  0  0  0
  5 26  1  0  0  0
  5 90  1  0  0  0
  6 25  1  0  0  0
  6 91  1  0  0  0
  6 92  1  0  0  0
  7  8  2  0  0  0
  7 26  1  0  0  0
  7 29  1  0  0  0
  8  9  1  0  0  0
  8 22  1  0  0  0
  9 10  1  0  0  0
  9 27  2  0  0  0
 10 11  2  0  0  0
 10 15  1  0  0  0
 11 12  1  0  0  0
 11 93  1  0  0  0
 12 13  2  0  0  0
 12 94  1  0  0  0
 13 14  1  0  0  0
 13 31  1  0  0  0
 14 15  2  0  0  0
 14 95  1  0  0  0
 15 96  1  0  0  0
 16 17  2  0  0  0
 16 21  1  0  0  0
 16 31  1  0  0  0
 17 18  1  0  0  0
 17 97  1  0  0  0
 18 19  2  0  0  0
 18 98  1  0  0  0
 19 20  1  0  0  0
 19 24  1  0  0  0
 20 21  2  0  0  0
 20 99  1  0  0  0
 21 23  1  0  0  0
 22 28  1  0  0  0
 22 32  2  0  0  0
 26 27  1  0  0  0
 28100  1  0  0  0
 28101  1  0  0  0
 29102  1  0  0  0
 29103  1  0  0  0
 33 34  1  0  0  0
 33 66  1  0  0  0
 33 70  2  0  0  0
 34 36  1  0  0  0
 34 59  1  0  0  0
 34104  1  0  0  0
 35 44  2  0  0  0
 35 45  1  0  0  0
 35 68  1  0  0  0
 36 56  1  0  0  0
 36105  1  0  0  0
 37 39  1  0  0  0
 37 47  1  0  0  0
 37 66  1  0  0  0
 37106  1  0  0  0
 38 43  2  0  0  0
 38 46  1  0  0  0
 38 47  1  0  0  0
 39 64  1  0  0  0
 39 67  2  0  0  0
 40 52  1  0  0  0
 40 53  2  0  0  0
 40 58  1  0  0  0
 41107  1  0  0  0
 41108  1  0  0  0
 41109  1  0  0  0
 41 48  1  0  0  0
 42 43  1  0  0  0
 42 66  1  0  0  0
 42110  1  0  0  0
 42111  1  0  0  0
 43 44  1  0  0  0
 44112  1  0  0  0
 45 46  2  0  0  0
 45113  1  0  0  0
 46114  1  0  0  0
 47115  1  0  0  0
 47116  1  0  0  0
 48 56  1  0  0  0
 48 65  1  0  0  0
 48117  1  0  0  0
 49 50  1  0  0  0
 49 53  1  0  0  0
 49 64  1  0  0  0
 49118  1  0  0  0
 50 51  1  0  0  0
 50119  1  0  0  0
 50120  1  0  0  0
 51 52  1  0  0  0
 51121  1  0  0  0
 51122  1  0  0  0
 52123  1  0  0  0
 52124  1  0  0  0
 53 54  1  0  0  0
 54 55  2  0  0  0
 54125  1  0  0  0
 55 57  1  0  0  0
 55126  1  0  0  0
 56 69  2  0  0  0
 57 58  2  0  0  0
 57127  1  0  0  0
 58128  1  0  0  0
 59 60  1  0  0  0
 59 61  1  0  0  0
 59 62  1  0  0  0
 60129  1  0  0  0
 60130  1  0  0  0
 60131  1  0  0  0
 61132  1  0  0  0
 61133  1  0  0  0
 61134  1  0  0  0
 62135  1  0  0  0
 62136  1  0  0  0
 62137  1  0  0  0
 63 65  1  0  0  0
 63138  1  0  0  0
 63139  1  0  0  0
 63140  1  0  0  0
 64141  1  0  0  0
 65142  1  0  0  0
 68 79  1  0  0  0
 71 72  2  0  0  0
 71 74  1  0  0  0
 71143  1  0  0  0
 72 75  1  0  0  0
 72144  1  0  0  0
 73 75  2  0  0  0
 73 76  1  0  0  0
 73145  1  0  0  0
 74 76  2  0  0  0
 74 77  1  0  0  0
 75 82  1  0  0  0
 76 83  1  0  0  0
 77146  1  0  0  0
 77147  1  0  0  0
 77148  1  0  0  0
 78149  1  0  0  0
 78150  1  0  0  0
 78151  1  0  0  0
 78 81  1  0  0  0
 79 81  1  0  0  0
 79152  1  0  0  0
 79153  1  0  0  0
 80 81  1  0  0  0
 80 83  1  0  0  0
 80154  1  0  0  0
 80155  1  0  0  0
 81156  1  0  0  0
 82157  1  0  0  0
M  ISO  4   1 100  68 101  79 101  82 100
M  END
> <chiral flag>
0

> <version>
0

> <s_m_source_file>
/data/baiqing/PycharmProjects/Reinvent-master-3.2/result/LINK_invent/BTK/process_docking_weight1_custom_product_contain_oxygen_bond_distance_aromatic_linkinvent_7_9_3/rearranged_h_0138.sdf

> <i_m_source_file_index>
14

> <r_mmod_Potential_Energy-OPLS-2005>
267.943237304688

> <r_mmod_Stretch_Energy-OPLS-2005>
139.60319519043

> <r_mmod_Bend_Energy-OPLS-2005>
203.19075012207

> <r_mmod_Torsional_Energy-OPLS-2005>
255.265625

> <r_mmod_Improper_Torsional_Energy-OPLS-2005>
4.78238439559937

> <r_mmod_Van_der_Waal_Energy-OPLS-2005>
145.388259887695

> <r_mmod_Electrostatic_Energy-OPLS-2005>
-366.419250488281

> <r_mmod_Solvation_Energy-OPLS-2005>
-212.587890625

> <b_mmod_Minimization_Converged-OPLS-2005>
0

> <r_mmod_RMS_Derivative-OPLS-2005>
6.08381938934326

$$$$
14
                    3D
 Structure written by MMmdl.
168178  0  0  1  0            999 V2000
  -30.7073  -14.4071   20.5358 C   0  0  0  0  0  0
  -30.4238  -12.2471   19.4226 C   0  0  0  0  0  0
  -29.4965  -12.4561   18.2065 C   0  0  0  0  0  0
  -28.0100  -12.3634   18.6146 C   0  0  0  0  0  0
  -27.6631  -13.1860   19.8863 C   0  0  2  0  0  0
  -28.7079  -12.9449   21.0006 C   0  0  0  0  0  0
  -25.2608  -13.8115   20.5678 C   0  0  0  0  0  0
  -24.1831  -13.0421   20.9157 C   0  0  0  0  0  0
  -24.6355  -11.6876   20.8730 C   0  0  0  0  0  0
  -23.9024  -10.4272   21.0409 C   0  0  0  0  0  0
  -24.3580   -9.4188   21.9184 C   0  0  0  0  0  0
  -23.6259   -8.2224   22.0747 C   0  0  0  0  0  0
  -22.4242   -8.0271   21.3539 C   0  0  0  0  0  0
  -21.9871   -9.0250   20.4645 C   0  0  0  0  0  0
  -22.7203  -10.2124   20.3056 C   0  0  0  0  0  0
  -21.6840   -6.0736   22.5272 C   0  0  0  0  0  0
  -21.4005   -6.5638   23.8203 C   0  0  0  0  0  0
  -21.3660   -5.6786   24.9162 C   0  0  0  0  0  0
  -21.6045   -4.3051   24.7211 C   0  0  0  0  0  0
  -21.8825   -3.8148   23.4328 C   0  0  0  0  0  0
  -21.9187   -4.6966   22.3390 C   0  0  0  0  0  0
  -22.7859  -13.5245   21.1823 C   0  0  0  0  0  0
  -22.1660   -4.2161   21.0966 F   0  0  0  0  0  0
  -21.5631   -3.4532   25.7722 F   0  0  0  0  0  0
  -30.0474  -13.2251   20.4488 N   0  0  0  0  0  0
  -26.3024  -12.9230   20.3432 N   0  0  0  0  0  0
  -25.9275  -11.6412   20.5796 N   0  0  0  0  0  0
  -22.0486  -12.8255   22.0389 N   0  0  0  0  0  0
  -25.4389  -15.1828   20.4085 N   0  0  0  0  0  0
  -31.8453  -14.6024   20.0990 O   0  0  0  0  0  0
  -21.6609   -6.8869   21.4230 O   0  0  0  0  0  0
  -22.3570  -14.5575   20.6697 O   0  0  0  0  0  0
  -24.6072  -31.8711   23.2138 C   0  0  0  0  0  0
  -25.8991  -32.4842   23.8416 C   0  0  1  0  0  0
  -27.2454  -27.4928   20.0851 C   0  0  0  0  0  0
  -25.5863  -33.8642   24.2347 N   0  0  0  0  0  0
  -23.3923  -30.4934   21.5519 C   0  0  2  0  0  0
  -24.8387  -28.9611   20.1189 C   0  0  0  0  0  0
  -22.7368  -29.4669   22.5016 C   0  0  0  0  0  0
  -18.0261  -28.1372   22.8500 C   0  0  0  0  0  0
  -24.1478  -36.7325   23.2641 C   0  0  0  0  0  0
  -25.9126  -30.8541   21.3564 C   0  0  0  0  0  0
  -25.9907  -29.4896   20.7115 C   0  0  0  0  0  0
  -27.1906  -28.7571   20.6992 C   0  0  0  0  0  0
  -26.0738  -26.9568   19.4981 C   0  0  0  0  0  0
  -24.8711  -27.6907   19.5157 C   0  0  0  0  0  0
  -23.5971  -29.8196   20.1673 C   0  0  0  0  0  0
  -25.4096  -36.3129   24.0345 C   0  0  1  0  0  0
  -20.5847  -28.3644   23.1343 C   0  0  2  0  0  0
  -20.6744  -26.9386   22.5429 C   0  0  0  0  0  0
  -19.5727  -26.6385   21.5215 C   0  0  0  0  0  0
  -18.1904  -26.7923   22.1624 C   0  0  0  0  0  0
  -19.1508  -28.8825   23.2924 C   0  0  0  0  0  0
  -18.9444  -30.1436   23.8929 C   0  0  0  0  0  0
  -17.6449  -30.6585   24.0567 C   0  0  0  0  0  0
  -25.9021  -34.9491   23.5145 C   0  0  0  0  0  0
  -16.5339  -29.9091   23.6316 C   0  0  0  0  0  0
  -16.7256  -28.6502   23.0348 C   0  0  0  0  0  0
  -26.4449  -31.6613   25.0726 C   0  0  0  0  0  0
  -25.3740  -31.3707   26.1496 C   0  0  0  0  0  0
  -27.0266  -30.3069   24.6057 C   0  0  0  0  0  0
  -27.6027  -32.4335   25.7486 C   0  0  0  0  0  0
  -27.5576  -37.1815   24.8465 C   0  0  0  0  0  0
  -21.4105  -29.3021   22.3759 N   0  0  0  0  0  0
  -26.4286  -37.3806   23.9413 N   0  0  0  0  0  0
  -24.6556  -31.0862   22.1006 N   0  0  0  0  0  0
  -23.4168  -28.8202   23.3026 O   0  0  0  0  0  0
  -28.4649  -26.8648   20.0957 O   0  0  0  0  0  0
  -26.5584  -34.8929   22.4705 O   0  0  0  0  0  0
  -23.5282  -32.1430   23.7576 O   0  0  0  0  0  0
  -28.6298  -19.8825   17.7308 C   0  0  0  0  0  0
  -28.8234  -21.1772   18.2380 C   0  0  0  0  0  0
  -29.7937  -20.2463   20.2764 C   0  0  0  0  0  0
  -29.9055  -17.8396   20.5893 C   0  0  0  0  0  0
  -29.1796  -16.3523   18.7997 C   0  0  0  0  0  0
  -29.0058  -18.7569   18.4943 C   0  0  0  0  0  0
  -29.5739  -18.9460   19.7836 C   0  0  0  0  0  0
  -29.4324  -21.3620   19.4970 C   0  0  0  0  0  0
  -28.8141  -17.4469   17.9993 C   0  0  0  0  0  0
  -29.7017  -16.5374   20.1008 C   0  0  0  0  0  0
  -30.9840  -23.6481   18.1406 C   0  0  0  0  0  0
  -29.6166  -22.7088   20.0298 C   0  0  0  0  0  0
  -31.3855  -25.0377   17.6781 C   0  0  0  0  0  0
  -31.0836  -25.9237   18.8847 C   0  0  0  0  0  0
  -30.0532  -25.1460   19.7196 C   0  0  1  0  0  0
  -28.2034  -17.1898   16.6290 C   0  0  0  0  0  0
  -28.6055  -25.6150   19.4595 C   0  0  0  0  0  0
  -30.2008  -23.7303   19.3471 N   0  0  0  0  0  0
  -29.9459  -15.4260   20.9405 N   0  0  0  0  0  0
  -29.1242  -22.9217   21.2574 N   0  3  0  0  0  0
  -31.3251  -22.6086   17.5714 O   0  0  0  0  0  0
  -31.4708  -12.3330   19.1240 H   0  0  0  0  0  0
  -30.3122  -11.2372   19.8199 H   0  0  0  0  0  0
  -29.7103  -11.7069   17.4424 H   0  0  0  0  0  0
  -29.7021  -13.4168   17.7389 H   0  0  0  0  0  0
  -27.7852  -11.3100   18.7871 H   0  0  0  0  0  0
  -27.3743  -12.6755   17.7851 H   0  0  0  0  0  0
  -27.6977  -14.2345   19.6127 H   0  0  0  0  0  0
  -28.6641  -11.9065   21.3327 H   0  0  0  0  0  0
  -28.4845  -13.5423   21.8859 H   0  0  0  0  0  0
  -25.2728   -9.5679   22.4747 H   0  0  0  0  0  0
  -23.9981   -7.4616   22.7461 H   0  0  0  0  0  0
  -21.0810   -8.8786   19.8943 H   0  0  0  0  0  0
  -22.3673  -10.9674   19.6169 H   0  0  0  0  0  0
  -21.2000   -7.6142   23.9716 H   0  0  0  0  0  0
  -21.1476   -6.0504   25.9066 H   0  0  0  0  0  0
  -22.0605   -2.7611   23.2814 H   0  0  0  0  0  0
  -22.4051  -11.9880   22.4756 H   0  0  0  0  0  0
  -21.1131  -13.1338   22.2619 H   0  0  0  0  0  0
  -24.6797  -15.8462   20.5149 H   0  0  0  0  0  0
  -26.3027  -15.6157   20.1077 H   0  0  0  0  0  0
  -26.7062  -32.5578   23.1188 H   0  0  0  0  0  0
  -25.0020  -33.9812   25.0497 H   0  0  0  0  0  0
  -22.6776  -31.3075   21.4142 H   0  0  0  0  0  0
  -23.3734  -35.9665   23.3328 H   0  0  0  0  0  0
  -24.3573  -36.8909   22.2051 H   0  0  0  0  0  0
  -23.7238  -37.6541   23.6636 H   0  0  0  0  0  0
  -26.0114  -31.6182   20.5845 H   0  0  0  0  0  0
  -26.8061  -30.9150   21.9656 H   0  0  0  0  0  0
  -28.0839  -29.1657   21.1510 H   0  0  0  0  0  0
  -26.0689  -25.9864   19.0230 H   0  0  0  0  0  0
  -23.9814  -27.2756   19.0624 H   0  0  0  0  0  0
  -23.6970  -30.5894   19.4012 H   0  0  0  0  0  0
  -22.7246  -29.2301   19.8795 H   0  0  0  0  0  0
  -25.1271  -36.1999   25.0839 H   0  0  0  0  0  0
  -20.9948  -28.3207   24.1460 H   0  0  0  0  0  0
  -20.5637  -26.2251   23.3608 H   0  0  0  0  0  0
  -21.6618  -26.7427   22.1235 H   0  0  0  0  0  0
  -19.6881  -25.6300   21.1232 H   0  0  0  0  0  0
  -19.6667  -27.3206   20.6751 H   0  0  0  0  0  0
  -17.4175  -26.6690   21.4021 H   0  0  0  0  0  0
  -18.0295  -26.0060   22.9014 H   0  0  0  0  0  0
  -19.7922  -30.7243   24.2314 H   0  0  0  0  0  0
  -17.5008  -31.6265   24.5165 H   0  0  0  0  0  0
  -15.5342  -30.3008   23.7621 H   0  0  0  0  0  0
  -15.8653  -28.0835   22.7052 H   0  0  0  0  0  0
  -24.5902  -30.7058   25.7856 H   0  0  0  0  0  0
  -24.8937  -32.2855   26.4979 H   0  0  0  0  0  0
  -25.8122  -30.8871   27.0234 H   0  0  0  0  0  0
  -26.2785  -29.6858   24.1118 H   0  0  0  0  0  0
  -27.4056  -29.7283   25.4490 H   0  0  0  0  0  0
  -27.8610  -30.4409   23.9170 H   0  0  0  0  0  0
  -27.2642  -33.3619   26.2104 H   0  0  0  0  0  0
  -28.3815  -32.6931   25.0303 H   0  0  0  0  0  0
  -28.0721  -31.8439   26.5373 H   0  0  0  0  0  0
  -28.2611  -38.0098   24.7504 H   0  0  0  0  0  0
  -28.1050  -36.2627   24.6295 H   0  0  0  0  0  0
  -27.2294  -37.1482   25.8871 H   0  0  0  0  0  0
  -20.9249  -29.8747   21.7000 H   0  0  0  0  0  0
  -26.0180  -38.2887   24.1412 H   0  0  0  0  0  0
  -28.1807  -19.7782   16.7535 H   0  0  0  0  0  0
  -28.5098  -22.0268   17.6469 H   0  0  0  0  0  0
  -30.2337  -20.3867   21.2545 H   0  0  0  0  0  0
  -30.3069  -17.9888   21.5813 H   0  0  0  0  0  0
  -29.0337  -15.3620   18.4033 H   0  0  0  0  0  0
  -30.7743  -25.3157   16.8188 H   0  0  0  0  0  0
  -32.4353  -25.0767   17.3863 H   0  0  0  0  0  0
  -30.7090  -26.8991   18.5734 H   0  0  0  0  0  0
  -31.9874  -26.0970   19.4702 H   0  0  0  0  0  0
  -30.2862  -25.2767   20.7786 H   0  0  0  0  0  0
  -28.1632  -16.1250   16.3950 H   0  0  0  0  0  0
  -28.7898  -17.6766   15.8485 H   0  0  0  0  0  0
  -27.1834  -17.5766   16.5904 H   0  0  0  0  0  0
  -27.8831  -24.9114   19.8748 H   0  0  0  0  0  0
  -28.4125  -25.7039   18.3898 H   0  0  0  0  0  0
  -29.1365  -15.1176   21.4588 H   0  0  0  0  0  0
  -28.6238  -22.1693   21.7060 H   0  0  0  0  0  0
  -29.3369  -23.7410   21.8002 H   0  0  0  0  0  0
  1 25  1  0  0  0
  1 30  2  0  0  0
  1 89  1  0  0  0
  2  3  1  0  0  0
  2 25  1  0  0  0
  2 92  1  0  0  0
  2 93  1  0  0  0
  3  4  1  0  0  0
  3 94  1  0  0  0
  3 95  1  0  0  0
  4  5  1  0  0  0
  4 96  1  0  0  0
  4 97  1  0  0  0
  5  6  1  0  0  0
  5 26  1  0  0  0
  5 98  1  0  0  0
  6 25  1  0  0  0
  6 99  1  0  0  0
  6100  1  0  0  0
  7  8  2  0  0  0
  7 26  1  0  0  0
  7 29  1  0  0  0
  8  9  1  0  0  0
  8 22  1  0  0  0
  9 10  1  0  0  0
  9 27  2  0  0  0
 10 11  2  0  0  0
 10 15  1  0  0  0
 11 12  1  0  0  0
 11101  1  0  0  0
 12 13  2  0  0  0
 12102  1  0  0  0
 13 14  1  0  0  0
 13 31  1  0  0  0
 14 15  2  0  0  0
 14103  1  0  0  0
 15104  1  0  0  0
 16 17  2  0  0  0
 16 21  1  0  0  0
 16 31  1  0  0  0
 17 18  1  0  0  0
 17105  1  0  0  0
 18 19  2  0  0  0
 18106  1  0  0  0
 19 20  1  0  0  0
 19 24  1  0  0  0
 20 21  2  0  0  0
 20107  1  0  0  0
 21 23  1  0  0  0
 22 28  1  0  0  0
 22 32  2  0  0  0
 26 27  1  0  0  0
 28108  1  0  0  0
 28109  1  0  0  0
 29110  1  0  0  0
 29111  1  0  0  0
 33 34  1  0  0  0
 33 66  1  0  0  0
 33 70  2  0  0  0
 34 36  1  0  0  0
 34 59  1  0  0  0
 34112  1  0  0  0
 35 44  2  0  0  0
 35 45  1  0  0  0
 35 68  1  0  0  0
 36 56  1  0  0  0
 36113  1  0  0  0
 37 39  1  0  0  0
 37 47  1  0  0  0
 37 66  1  0  0  0
 37114  1  0  0  0
 38 43  2  0  0  0
 38 46  1  0  0  0
 38 47  1  0  0  0
 39 64  1  0  0  0
 39 67  2  0  0  0
 40 52  1  0  0  0
 40 53  2  0  0  0
 40 58  1  0  0  0
 41115  1  0  0  0
 41116  1  0  0  0
 41117  1  0  0  0
 41 48  1  0  0  0
 42 43  1  0  0  0
 42 66  1  0  0  0
 42118  1  0  0  0
 42119  1  0  0  0
 43 44  1  0  0  0
 44120  1  0  0  0
 45 46  2  0  0  0
 45121  1  0  0  0
 46122  1  0  0  0
 47123  1  0  0  0
 47124  1  0  0  0
 48 56  1  0  0  0
 48 65  1  0  0  0
 48125  1  0  0  0
 49 50  1  0  0  0
 49 53  1  0  0  0
 49 64  1  0  0  0
 49126  1  0  0  0
 50 51  1  0  0  0
 50127  1  0  0  0
 50128  1  0  0  0
 51 52  1  0  0  0
 51129  1  0  0  0
 51130  1  0  0  0
 52131  1  0  0  0
 52132  1  0  0  0
 53 54  1  0  0  0
 54 55  2  0  0  0
 54133  1  0  0  0
 55 57  1  0  0  0
 55134  1  0  0  0
 56 69  2  0  0  0
 57 58  2  0  0  0
 57135  1  0  0  0
 58136  1  0  0  0
 59 60  1  0  0  0
 59 61  1  0  0  0
 59 62  1  0  0  0
 60137  1  0  0  0
 60138  1  0  0  0
 60139  1  0  0  0
 61140  1  0  0  0
 61141  1  0  0  0
 61142  1  0  0  0
 62143  1  0  0  0
 62144  1  0  0  0
 62145  1  0  0  0
 63 65  1  0  0  0
 63146  1  0  0  0
 63147  1  0  0  0
 63148  1  0  0  0
 64149  1  0  0  0
 65150  1  0  0  0
 68 87  1  0  0  0
 71 72  2  0  0  0
 71 76  1  0  0  0
 71151  1  0  0  0
 72 78  1  0  0  0
 72152  1  0  0  0
 73 77  1  0  0  0
 73 78  2  0  0  0
 73153  1  0  0  0
 74 77  1  0  0  0
 74 80  2  0  0  0
 74154  1  0  0  0
 75 79  2  0  0  0
 75 80  1  0  0  0
 75155  1  0  0  0
 76 77  2  0  0  0
 76 79  1  0  0  0
 78 82  1  0  0  0
 79 86  1  0  0  0
 80 89  1  0  0  0
 81 83  1  0  0  0
 81 88  1  0  0  0
 81 91  2  0  0  0
 82 88  1  0  0  0
 82 90  2  0  0  0
 83 84  1  0  0  0
 83156  1  0  0  0
 83157  1  0  0  0
 84 85  1  0  0  0
 84158  1  0  0  0
 84159  1  0  0  0
 85 87  1  0  0  0
 85 88  1  0  0  0
 85160  1  0  0  0
 86161  1  0  0  0
 86162  1  0  0  0
 86163  1  0  0  0
 87164  1  0  0  0
 87165  1  0  0  0
 89166  1  0  0  0
 90167  1  0  0  0
 90168  1  0  0  0
M  CHG  1  90   1
M  ISO  4   1 100  68 101  87 101  89 100
M  END
> <chiral flag>
0

> <version>
0

> <s_m_source_file>
/data/baiqing/PycharmProjects/Reinvent-master-3.2/result/LINK_invent/BTK/process_docking_weight1_custom_product_contain_oxygen_bond_distance_aromatic_linkinvent_7_9_3/rearranged_h_0138.sdf

> <i_m_source_file_index>
15

> <r_mmod_Potential_Energy-OPLS-2005>
-155.440979003906

> <r_mmod_Stretch_Energy-OPLS-2005>
33.0404853820801

> <r_mmod_Bend_Energy-OPLS-2005>
129.584899902344

> <r_mmod_Torsional_Energy-OPLS-2005>
293.502716064453

> <r_mmod_Improper_Torsional_Energy-OPLS-2005>
9.14888477325439

> <r_mmod_Van_der_Waal_Energy-OPLS-2005>
187.276290893555

> <r_mmod_Electrostatic_Energy-OPLS-2005>
-402.627105712891

> <r_mmod_Solvation_Energy-OPLS-2005>
-417.895721435547

> <b_mmod_Minimization_Converged-OPLS-2005>
0

> <r_mmod_RMS_Derivative-OPLS-2005>
1.9474093914032

$$$$
15
                    3D
 Structure written by MMmdl.
160169  0  0  1  0            999 V2000
  -30.7071  -14.5737   20.5173 C   0  0  0  0  0  0
  -30.4133  -12.3563   19.4535 C   0  0  0  0  0  0
  -29.4964  -12.4965   18.2219 C   0  0  0  0  0  0
  -28.0206  -12.3484   18.6353 C   0  0  0  0  0  0
  -27.6505  -13.2244   19.8627 C   0  0  2  0  0  0
  -28.6956  -13.0984   20.9951 C   0  0  0  0  0  0
  -25.2539  -13.8198   20.5697 C   0  0  0  0  0  0
  -24.1817  -13.0450   20.9201 C   0  0  0  0  0  0
  -24.6398  -11.6925   20.8755 C   0  0  0  0  0  0
  -23.9075  -10.4301   21.0412 C   0  0  0  0  0  0
  -24.3624   -9.4212   21.9187 C   0  0  0  0  0  0
  -23.6298   -8.2248   22.0755 C   0  0  0  0  0  0
  -22.4280   -8.0287   21.3547 C   0  0  0  0  0  0
  -21.9918   -9.0262   20.4648 C   0  0  0  0  0  0
  -22.7248  -10.2141   20.3060 C   0  0  0  0  0  0
  -21.6853   -6.0740   22.5280 C   0  0  0  0  0  0
  -21.4013   -6.5643   23.8213 C   0  0  0  0  0  0
  -21.3660   -5.6795   24.9174 C   0  0  0  0  0  0
  -21.6044   -4.3058   24.7224 C   0  0  0  0  0  0
  -21.8819   -3.8151   23.4345 C   0  0  0  0  0  0
  -21.9192   -4.6968   22.3402 C   0  0  0  0  0  0
  -22.7837  -13.5233   21.1860 C   0  0  0  0  0  0
  -22.1661   -4.2156   21.0979 F   0  0  0  0  0  0
  -21.5630   -3.4540   25.7736 F   0  0  0  0  0  0
  -30.0148  -13.3976   20.4221 N   0  0  0  0  0  0
  -26.2977  -12.9398   20.3339 N   0  0  0  0  0  0
  -25.9330  -11.6544   20.5782 N   0  0  0  0  0  0
  -22.0480  -12.8221   22.0413 N   0  0  0  0  0  0
  -25.4238  -15.1919   20.4097 N   0  0  0  0  0  0
  -31.8643  -14.6472   20.0987 O   0  0  0  0  0  0
  -21.6641   -6.8886   21.4243 O   0  0  0  0  0  0
  -22.3522  -14.5540   20.6710 O   0  0  0  0  0  0
  -24.6213  -31.8637   23.2071 C   0  0  0  0  0  0
  -25.9080  -32.4802   23.8385 C   0  0  1  0  0  0
  -27.2193  -27.3673   20.1128 C   0  0  0  0  0  0
  -25.5913  -33.8602   24.2312 N   0  0  0  0  0  0
  -23.4136  -30.4886   21.5480 C   0  0  2  0  0  0
  -24.8615  -28.9559   20.1057 C   0  0  0  0  0  0
  -22.7458  -29.4639   22.4951 C   0  0  0  0  0  0
  -18.0284  -28.1377   22.8488 C   0  0  0  0  0  0
  -24.1489  -36.7304   23.2639 C   0  0  0  0  0  0
  -25.9506  -30.8099   21.3726 C   0  0  0  0  0  0
  -26.0274  -29.4425   20.7129 C   0  0  0  0  0  0
  -27.2137  -28.6575   20.7114 C   0  0  0  0  0  0
  -26.0433  -26.9324   19.4638 C   0  0  0  0  0  0
  -24.8686  -27.7040   19.4717 C   0  0  0  0  0  0
  -23.6260  -29.8280   20.1607 C   0  0  0  0  0  0
  -25.4112  -36.3100   24.0337 C   0  0  1  0  0  0
  -20.5881  -28.3676   23.1292 C   0  0  2  0  0  0
  -20.6771  -26.9405   22.5408 C   0  0  0  0  0  0
  -19.5747  -26.6380   21.5210 C   0  0  0  0  0  0
  -18.1927  -26.7921   22.1624 C   0  0  0  0  0  0
  -19.1536  -28.8845   23.2885 C   0  0  0  0  0  0
  -18.9461  -30.1446   23.8902 C   0  0  0  0  0  0
  -17.6462  -30.6581   24.0563 C   0  0  0  0  0  0
  -25.9043  -34.9465   23.5123 C   0  0  0  0  0  0
  -16.5353  -29.9082   23.6327 C   0  0  0  0  0  0
  -16.7273  -28.6498   23.0351 C   0  0  0  0  0  0
  -26.4483  -31.6596   25.0734 C   0  0  0  0  0  0
  -25.3734  -31.3714   26.1473 C   0  0  0  0  0  0
  -27.0322  -30.3031   24.6150 C   0  0  0  0  0  0
  -27.6055  -32.4318   25.7497 C   0  0  0  0  0  0
  -27.5582  -37.1807   24.8467 C   0  0  0  0  0  0
  -21.4176  -29.3039   22.3696 N   0  0  0  0  0  0
  -26.4297  -37.3786   23.9409 N   0  0  0  0  0  0
  -24.6803  -31.0689   22.1001 N   0  0  0  0  0  0
  -23.4202  -28.8174   23.3012 O   0  0  0  0  0  0
  -28.3039  -26.4969   20.1813 O   0  0  0  0  0  0
  -26.5605  -34.8922   22.4685 O   0  0  0  0  0  0
  -23.5388  -32.1414   23.7425 O   0  0  0  0  0  0
  -32.3952  -18.6316   21.3037 C   0  0  0  0  0  0
  -31.5485  -19.7356   21.1188 C   0  0  0  0  0  0
  -31.8862  -17.3232   21.2488 C   0  0  0  0  0  0
  -29.6623  -18.2169   20.8239 C   0  0  0  0  0  0
  -30.1664  -19.5623   20.8963 C   0  0  0  0  0  0
  -30.5187  -17.0707   20.9749 C   0  0  0  0  0  0
  -29.6480  -21.7873   19.6024 C   0  0  0  0  0  0
  -29.3594  -21.7076   22.0789 C   0  0  0  0  0  0
  -28.8324  -23.1244   19.5486 C   0  0  0  0  0  0
  -28.5420  -23.0255   22.0141 C   0  0  0  0  0  0
  -29.2825  -20.8453   20.7909 C   0  0  2  0  0  0
  -28.9181  -23.9800   20.8441 C   0  0  2  0  0  0
  -27.9810  -25.2522   20.8855 C   0  0  0  0  0  0
  -30.0235  -15.6982   20.8955 N   0  0  0  0  0  0
  -31.4597  -12.4323   19.1528 H   0  0  0  0  0  0
  -30.3078  -11.3668   19.9011 H   0  0  0  0  0  0
  -29.7515  -11.7451   17.4734 H   0  0  0  0  0  0
  -29.6532  -13.4674   17.7488 H   0  0  0  0  0  0
  -27.8503  -11.2964   18.8673 H   0  0  0  0  0  0
  -27.3669  -12.5821   17.7942 H   0  0  0  0  0  0
  -27.6668  -14.2577   19.5157 H   0  0  0  0  0  0
  -28.6911  -12.0912   21.4142 H   0  0  0  0  0  0
  -28.4551  -13.7695   21.8211 H   0  0  0  0  0  0
  -25.2767   -9.5686   22.4765 H   0  0  0  0  0  0
  -24.0007   -7.4637   22.7474 H   0  0  0  0  0  0
  -21.0852   -8.8784   19.8952 H   0  0  0  0  0  0
  -22.3709  -10.9683   19.6173 H   0  0  0  0  0  0
  -21.2003   -7.6150   23.9720 H   0  0  0  0  0  0
  -21.1482   -6.0523   25.9078 H   0  0  0  0  0  0
  -22.0597   -2.7614   23.2841 H   0  0  0  0  0  0
  -22.4095  -11.9878   22.4794 H   0  0  0  0  0  0
  -21.1098  -13.1247   22.2625 H   0  0  0  0  0  0
  -24.6550  -15.8452   20.5147 H   0  0  0  0  0  0
  -26.2704  -15.6306   20.0706 H   0  0  0  0  0  0
  -26.7153  -32.5493   23.1144 H   0  0  0  0  0  0
  -25.0073  -33.9757   25.0465 H   0  0  0  0  0  0
  -22.7053  -31.3078   21.4086 H   0  0  0  0  0  0
  -23.3748  -35.9638   23.3307 H   0  0  0  0  0  0
  -24.3584  -36.8915   22.2052 H   0  0  0  0  0  0
  -23.7241  -37.6511   23.6650 H   0  0  0  0  0  0
  -26.0761  -31.5772   20.6076 H   0  0  0  0  0  0
  -26.8332  -30.8575   21.9990 H   0  0  0  0  0  0
  -28.1053  -29.0174   21.2054 H   0  0  0  0  0  0
  -26.0219  -25.9730   18.9666 H   0  0  0  0  0  0
  -23.9780  -27.3284   18.9868 H   0  0  0  0  0  0
  -23.7383  -30.6066   19.4055 H   0  0  0  0  0  0
  -22.7484  -29.2527   19.8605 H   0  0  0  0  0  0
  -25.1287  -36.1966   25.0829 H   0  0  0  0  0  0
  -20.9972  -28.3244   24.1414 H   0  0  0  0  0  0
  -20.5670  -26.2289   23.3606 H   0  0  0  0  0  0
  -21.6639  -26.7435   22.1203 H   0  0  0  0  0  0
  -19.6909  -25.6293   21.1235 H   0  0  0  0  0  0
  -19.6682  -27.3196   20.6743 H   0  0  0  0  0  0
  -17.4195  -26.6673   21.4026 H   0  0  0  0  0  0
  -18.0325  -26.0061   22.9018 H   0  0  0  0  0  0
  -19.7939  -30.7254   24.2279 H   0  0  0  0  0  0
  -17.5020  -31.6265   24.5157 H   0  0  0  0  0  0
  -15.5354  -30.2984   23.7646 H   0  0  0  0  0  0
  -15.8675  -28.0817   22.7064 H   0  0  0  0  0  0
  -24.5909  -30.7063   25.7806 H   0  0  0  0  0  0
  -24.8924  -32.2872   26.4919 H   0  0  0  0  0  0
  -25.8072  -30.8882   27.0237 H   0  0  0  0  0  0
  -26.2883  -29.6789   24.1185 H   0  0  0  0  0  0
  -27.4055  -29.7275   25.4630 H   0  0  0  0  0  0
  -27.8737  -30.4337   23.9343 H   0  0  0  0  0  0
  -27.2679  -33.3618   26.2083 H   0  0  0  0  0  0
  -28.3859  -32.6875   25.0318 H   0  0  0  0  0  0
  -28.0728  -31.8437   26.5407 H   0  0  0  0  0  0
  -28.2601  -38.0101   24.7508 H   0  0  0  0  0  0
  -28.1072  -36.2631   24.6297 H   0  0  0  0  0  0
  -27.2298  -37.1465   25.8870 H   0  0  0  0  0  0
  -20.9346  -29.8785   21.6933 H   0  0  0  0  0  0
  -26.0185  -38.2866   24.1401 H   0  0  0  0  0  0
  -33.4467  -18.7895   21.4989 H   0  0  0  0  0  0
  -31.9720  -20.7284   21.1762 H   0  0  0  0  0  0
  -32.5837  -16.5179   21.4245 H   0  0  0  0  0  0
  -28.6059  -18.0670   20.6493 H   0  0  0  0  0  0
  -30.7071  -22.0410   19.6526 H   0  0  0  0  0  0
  -29.5166  -21.2478   18.6638 H   0  0  0  0  0  0
  -29.0184  -21.1147   22.9284 H   0  0  0  0  0  0
  -30.3958  -21.9680   22.2946 H   0  0  0  0  0  0
  -27.7873  -22.8866   19.3453 H   0  0  0  0  0  0
  -29.1713  -23.7227   18.7018 H   0  0  0  0  0  0
  -28.6580  -23.5528   22.9619 H   0  0  0  0  0  0
  -27.4829  -22.7725   21.9449 H   0  0  0  0  0  0
  -28.2491  -20.5207   20.6596 H   0  0  0  0  0  0
  -29.9486  -24.3075   20.9879 H   0  0  0  0  0  0
  -27.9002  -25.5554   21.9307 H   0  0  0  0  0  0
  -26.9830  -24.8951   20.6335 H   0  0  0  0  0  0
  -29.0397  -15.5636   21.0715 H   0  0  0  0  0  0
  1 25  1  0  0  0
  1 30  2  0  0  0
  1 84  1  0  0  0
  2  3  1  0  0  0
  2 25  1  0  0  0
  2 85  1  0  0  0
  2 86  1  0  0  0
  3  4  1  0  0  0
  3 87  1  0  0  0
  3 88  1  0  0  0
  4  5  1  0  0  0
  4 89  1  0  0  0
  4 90  1  0  0  0
  5  6  1  0  0  0
  5 26  1  0  0  0
  5 91  1  0  0  0
  6 25  1  0  0  0
  6 92  1  0  0  0
  6 93  1  0  0  0
  7  8  2  0  0  0
  7 26  1  0  0  0
  7 29  1  0  0  0
  8  9  1  0  0  0
  8 22  1  0  0  0
  9 10  1  0  0  0
  9 27  2  0  0  0
 10 11  2  0  0  0
 10 15  1  0  0  0
 11 12  1  0  0  0
 11 94  1  0  0  0
 12 13  2  0  0  0
 12 95  1  0  0  0
 13 14  1  0  0  0
 13 31  1  0  0  0
 14 15  2  0  0  0
 14 96  1  0  0  0
 15 97  1  0  0  0
 16 17  2  0  0  0
 16 21  1  0  0  0
 16 31  1  0  0  0
 17 18  1  0  0  0
 17 98  1  0  0  0
 18 19  2  0  0  0
 18 99  1  0  0  0
 19 20  1  0  0  0
 19 24  1  0  0  0
 20 21  2  0  0  0
 20100  1  0  0  0
 21 23  1  0  0  0
 22 28  1  0  0  0
 22 32  2  0  0  0
 26 27  1  0  0  0
 28101  1  0  0  0
 28102  1  0  0  0
 29103  1  0  0  0
 29104  1  0  0  0
 33 34  1  0  0  0
 33 66  1  0  0  0
 33 70  2  0  0  0
 34 36  1  0  0  0
 34 59  1  0  0  0
 34105  1  0  0  0
 35 44  2  0  0  0
 35 45  1  0  0  0
 35 68  1  0  0  0
 36 56  1  0  0  0
 36106  1  0  0  0
 37 39  1  0  0  0
 37 47  1  0  0  0
 37 66  1  0  0  0
 37107  1  0  0  0
 38 43  2  0  0  0
 38 46  1  0  0  0
 38 47  1  0  0  0
 39 64  1  0  0  0
 39 67  2  0  0  0
 40 52  1  0  0  0
 40 53  2  0  0  0
 40 58  1  0  0  0
 41108  1  0  0  0
 41109  1  0  0  0
 41110  1  0  0  0
 41 48  1  0  0  0
 42 43  1  0  0  0
 42 66  1  0  0  0
 42111  1  0  0  0
 42112  1  0  0  0
 43 44  1  0  0  0
 44113  1  0  0  0
 45 46  2  0  0  0
 45114  1  0  0  0
 46115  1  0  0  0
 47116  1  0  0  0
 47117  1  0  0  0
 48 56  1  0  0  0
 48 65  1  0  0  0
 48118  1  0  0  0
 49 50  1  0  0  0
 49 53  1  0  0  0
 49 64  1  0  0  0
 49119  1  0  0  0
 50 51  1  0  0  0
 50120  1  0  0  0
 50121  1  0  0  0
 51 52  1  0  0  0
 51122  1  0  0  0
 51123  1  0  0  0
 52124  1  0  0  0
 52125  1  0  0  0
 53 54  1  0  0  0
 54 55  2  0  0  0
 54126  1  0  0  0
 55 57  1  0  0  0
 55127  1  0  0  0
 56 69  2  0  0  0
 57 58  2  0  0  0
 57128  1  0  0  0
 58129  1  0  0  0
 59 60  1  0  0  0
 59 61  1  0  0  0
 59 62  1  0  0  0
 60130  1  0  0  0
 60131  1  0  0  0
 60132  1  0  0  0
 61133  1  0  0  0
 61134  1  0  0  0
 61135  1  0  0  0
 62136  1  0  0  0
 62137  1  0  0  0
 62138  1  0  0  0
 63 65  1  0  0  0
 63139  1  0  0  0
 63140  1  0  0  0
 63141  1  0  0  0
 64142  1  0  0  0
 65143  1  0  0  0
 68 83  1  0  0  0
 71 72  2  0  0  0
 71 73  1  0  0  0
 71144  1  0  0  0
 72 75  1  0  0  0
 72145  1  0  0  0
 73 76  2  0  0  0
 73146  1  0  0  0
 74 75  2  0  0  0
 74 76  1  0  0  0
 74147  1  0  0  0
 75 81  1  0  0  0
 76 84  1  0  0  0
 77 79  1  0  0  0
 77 81  1  0  0  0
 77148  1  0  0  0
 77149  1  0  0  0
 78 80  1  0  0  0
 78 81  1  0  0  0
 78150  1  0  0  0
 78151  1  0  0  0
 79 82  1  0  0  0
 79152  1  0  0  0
 79153  1  0  0  0
 80 82  1  0  0  0
 80154  1  0  0  0
 80155  1  0  0  0
 81156  1  0  0  0
 82 83  1  0  0  0
 82157  1  0  0  0
 83158  1  0  0  0
 83159  1  0  0  0
 84160  1  0  0  0
M  ISO  4   1 100  68 101  83 101  84 100
M  END
> <chiral flag>
0

> <version>
0

> <s_m_source_file>
/data/baiqing/PycharmProjects/Reinvent-master-3.2/result/LINK_invent/BTK/process_docking_weight1_custom_product_contain_oxygen_bond_distance_aromatic_linkinvent_7_9_3/rearranged_h_0138.sdf

> <i_m_source_file_index>
16

> <r_mmod_Potential_Energy-OPLS-2005>
81.3016891479492

> <r_mmod_Stretch_Energy-OPLS-2005>
63.6011428833008

> <r_mmod_Bend_Energy-OPLS-2005>
122.261848449707

> <r_mmod_Torsional_Energy-OPLS-2005>
253.930267333984

> <r_mmod_Improper_Torsional_Energy-OPLS-2005>
4.47344636917114

> <r_mmod_Van_der_Waal_Energy-OPLS-2005>
157.178756713867

> <r_mmod_Electrostatic_Energy-OPLS-2005>
-359.534820556641

> <r_mmod_Solvation_Energy-OPLS-2005>
-197.36376953125

> <b_mmod_Minimization_Converged-OPLS-2005>
0

> <r_mmod_RMS_Derivative-OPLS-2005>
0.430582523345947

$$$$
16
                    3D
 Structure written by MMmdl.
157166  0  0  1  0            999 V2000
  -30.5365  -14.9782   20.4746 C   0  0  0  0  0  0
  -30.4460  -12.6065   19.5768 C   0  0  0  0  0  0
  -29.5649  -12.5651   18.3120 C   0  0  0  0  0  0
  -28.0955  -12.3288   18.7079 C   0  0  0  0  0  0
  -27.6407  -13.2545   19.8714 C   0  0  2  0  0  0
  -28.6610  -13.2741   21.0321 C   0  0  0  0  0  0
  -25.2452  -13.8157   20.5707 C   0  0  0  0  0  0
  -24.1794  -13.0428   20.9240 C   0  0  0  0  0  0
  -24.6414  -11.6916   20.8765 C   0  0  0  0  0  0
  -23.9103  -10.4320   21.0437 C   0  0  0  0  0  0
  -24.3628   -9.4214   21.9215 C   0  0  0  0  0  0
  -23.6300   -8.2252   22.0777 C   0  0  0  0  0  0
  -22.4281   -8.0283   21.3568 C   0  0  0  0  0  0
  -21.9927   -9.0280   20.4682 C   0  0  0  0  0  0
  -22.7271  -10.2166   20.3098 C   0  0  0  0  0  0
  -21.6846   -6.0737   22.5276 C   0  0  0  0  0  0
  -21.4030   -6.5641   23.8217 C   0  0  0  0  0  0
  -21.3650   -5.6781   24.9173 C   0  0  0  0  0  0
  -21.6063   -4.3052   24.7223 C   0  0  0  0  0  0
  -21.8795   -3.8149   23.4341 C   0  0  0  0  0  0
  -21.9209   -4.6969   22.3411 C   0  0  0  0  0  0
  -22.7805  -13.5218   21.1874 C   0  0  0  0  0  0
  -22.1651   -4.2128   21.0982 F   0  0  0  0  0  0
  -21.5630   -3.4558   25.7745 F   0  0  0  0  0  0
  -29.9329  -13.7141   20.4470 N   0  0  0  0  0  0
  -26.2934  -12.9452   20.3339 N   0  0  0  0  0  0
  -25.9359  -11.6603   20.5782 N   0  0  0  0  0  0
  -22.0416  -12.8286   22.0426 N   0  0  0  0  0  0
  -25.4128  -15.1910   20.4043 N   0  0  0  0  0  0
  -31.7222  -14.9728   20.1224 O   0  0  0  0  0  0
  -21.6638   -6.8873   21.4225 O   0  0  0  0  0  0
  -22.3532  -14.5571   20.6718 O   0  0  0  0  0  0
  -24.6533  -31.8255   23.1716 C   0  0  0  0  0  0
  -25.9296  -32.4525   23.8145 C   0  0  1  0  0  0
  -27.2295  -27.0613   20.2115 C   0  0  0  0  0  0
  -25.5970  -33.8322   24.2034 N   0  0  0  0  0  0
  -23.4588  -30.4423   21.5123 C   0  0  2  0  0  0
  -24.9167  -28.8439   20.1044 C   0  0  0  0  0  0
  -22.7651  -29.4493   22.4751 C   0  0  0  0  0  0
  -18.0332  -28.1299   22.8534 C   0  0  0  0  0  0
  -24.1510  -36.7204   23.2651 C   0  0  0  0  0  0
  -26.0164  -30.6791   21.3845 C   0  0  0  0  0  0
  -26.0905  -29.2861   20.7221 C   0  0  0  0  0  0
  -27.2484  -28.4177   20.7413 C   0  0  0  0  0  0
  -26.0301  -26.7116   19.5586 C   0  0  0  0  0  0
  -24.9024  -27.5707   19.5008 C   0  0  0  0  0  0
  -23.6987  -29.7602   20.1333 C   0  0  0  0  0  0
  -25.4138  -36.2889   24.0279 C   0  0  1  0  0  0
  -20.5953  -28.3679   23.1179 C   0  0  2  0  0  0
  -20.6836  -26.9374   22.5267 C   0  0  0  0  0  0
  -19.5709  -26.6289   21.5153 C   0  0  0  0  0  0
  -18.1943  -26.7833   22.1681 C   0  0  0  0  0  0
  -19.1596  -28.8794   23.2832 C   0  0  0  0  0  0
  -18.9516  -30.1446   23.8787 C   0  0  0  0  0  0
  -17.6543  -30.6622   24.0406 C   0  0  0  0  0  0
  -25.9092  -34.9260   23.4988 C   0  0  0  0  0  0
  -16.5416  -29.9058   23.6320 C   0  0  0  0  0  0
  -16.7317  -28.6417   23.0454 C   0  0  0  0  0  0
  -26.4575  -31.6465   25.0687 C   0  0  0  0  0  0
  -25.3727  -31.3736   26.1393 C   0  0  0  0  0  0
  -27.0507  -30.2814   24.6439 C   0  0  0  0  0  0
  -27.6062  -32.4291   25.7499 C   0  0  0  0  0  0
  -27.5555  -37.1777   24.8477 C   0  0  0  0  0  0
  -21.4309  -29.3138   22.3676 N   0  0  0  0  0  0
  -26.4258  -37.3646   23.9412 N   0  0  0  0  0  0
  -24.7287  -31.0092   22.0758 N   0  0  0  0  0  0
  -23.4285  -28.7979   23.2876 O   0  0  0  0  0  0
  -28.2653  -26.0688   20.4143 O   0  0  0  0  0  0
  -26.5699  -34.8830   22.4582 O   0  0  0  0  0  0
  -23.5647  -32.1158   23.6887 O   0  0  0  0  0  0
  -30.0380  -19.3574   22.6179 C   0  0  0  0  0  0
  -31.2073  -18.8294   23.1963 C   0  0  0  0  0  0
  -31.6521  -17.7082   21.0935 C   0  0  0  0  0  0
  -29.5955  -18.9716   21.3262 C   0  0  0  0  0  0
  -30.2738  -17.7083   20.7959 C   0  0  0  0  0  0
  -32.0617  -18.0617   22.3898 C   0  0  0  0  0  0
  -27.4415  -20.7380   21.3265 C   0  0  0  0  0  0
  -27.2257  -22.3259   21.2542 C   0  0  0  0  0  0
  -29.3948  -21.7668   20.4272 C   0  0  0  0  0  0
  -28.7690  -20.2459   20.6173 C   0  0  1  0  0  0
  -28.2525  -22.9397   20.2757 C   0  0  2  0  0  0
  -28.4107  -24.6129   19.8354 C   0  0  0  0  0  0
  -29.8149  -16.2205   20.6811 N   0  0  0  0  0  0
  -33.2561  -17.6191   22.8520 F   0  0  0  0  0  0
  -31.4934  -12.7384   19.3056 H   0  0  0  0  0  0
  -30.4134  -11.6500   20.1093 H   0  0  0  0  0  0
  -29.9198  -11.7813   17.6416 H   0  0  0  0  0  0
  -29.6684  -13.5125   17.7817 H   0  0  0  0  0  0
  -28.0293  -11.2904   19.0452 H   0  0  0  0  0  0
  -27.4410  -12.4194   17.8431 H   0  0  0  0  0  0
  -27.6174  -14.2675   19.4646 H   0  0  0  0  0  0
  -28.7458  -12.2814   21.4874 H   0  0  0  0  0  0
  -28.3331  -13.9327   21.8369 H   0  0  0  0  0  0
  -25.2772   -9.5663   22.4825 H   0  0  0  0  0  0
  -23.9983   -7.4618   22.7519 H   0  0  0  0  0  0
  -21.0845   -8.8841   19.8991 H   0  0  0  0  0  0
  -22.3741  -10.9709   19.6237 H   0  0  0  0  0  0
  -21.2002   -7.6151   23.9700 H   0  0  0  0  0  0
  -21.1500   -6.0538   25.9074 H   0  0  0  0  0  0
  -22.0589   -2.7606   23.2869 H   0  0  0  0  0  0
  -22.4004  -11.9920   22.4829 H   0  0  0  0  0  0
  -21.1063  -13.1360   22.2623 H   0  0  0  0  0  0
  -24.6347  -15.8374   20.4819 H   0  0  0  0  0  0
  -26.2397  -15.6139   20.0020 H   0  0  0  0  0  0
  -26.7393  -32.5063   23.0897 H   0  0  0  0  0  0
  -25.0097  -33.9372   25.0166 H   0  0  0  0  0  0
  -22.7726  -31.2709   21.3413 H   0  0  0  0  0  0
  -23.3696  -35.9603   23.3262 H   0  0  0  0  0  0
  -24.3627  -36.8908   22.2080 H   0  0  0  0  0  0
  -23.7353  -37.6430   23.6726 H   0  0  0  0  0  0
  -26.2111  -31.4347   20.6200 H   0  0  0  0  0  0
  -26.8688  -30.6979   22.0569 H   0  0  0  0  0  0
  -28.1448  -28.7626   21.2374 H   0  0  0  0  0  0
  -25.9242  -25.7084   19.1722 H   0  0  0  0  0  0
  -23.9998  -27.2040   19.0365 H   0  0  0  0  0  0
  -23.8690  -30.5301   19.3808 H   0  0  0  0  0  0
  -22.8116  -29.2210   19.7987 H   0  0  0  0  0  0
  -25.1331  -36.1651   25.0749 H   0  0  0  0  0  0
  -20.9962  -28.3199   24.1340 H   0  0  0  0  0  0
  -20.5975  -26.2250   23.3506 H   0  0  0  0  0  0
  -21.6619  -26.7473   22.0810 H   0  0  0  0  0  0
  -19.6789  -25.6163   21.1237 H   0  0  0  0  0  0
  -19.6481  -27.3119   20.6694 H   0  0  0  0  0  0
  -17.4132  -26.6583   21.4217 H   0  0  0  0  0  0
  -18.0420  -25.9916   22.9031 H   0  0  0  0  0  0
  -19.8046  -30.7273   24.2020 H   0  0  0  0  0  0
  -17.5175  -31.6369   24.4873 H   0  0  0  0  0  0
  -15.5479  -30.3000   23.7705 H   0  0  0  0  0  0
  -15.8686  -28.0652   22.7321 H   0  0  0  0  0  0
  -24.5906  -30.7058   25.7779 H   0  0  0  0  0  0
  -24.8941  -32.2944   26.4690 H   0  0  0  0  0  0
  -25.7997  -30.9064   27.0266 H   0  0  0  0  0  0
  -26.3203  -29.6476   24.1415 H   0  0  0  0  0  0
  -27.4012  -29.7195   25.5111 H   0  0  0  0  0  0
  -27.9115  -30.4004   23.9867 H   0  0  0  0  0  0
  -27.2589  -33.3610   26.1944 H   0  0  0  0  0  0
  -28.3922  -32.6806   25.0369 H   0  0  0  0  0  0
  -28.0639  -31.8531   26.5558 H   0  0  0  0  0  0
  -28.2553  -38.0099   24.7454 H   0  0  0  0  0  0
  -28.1078  -36.2613   24.6323 H   0  0  0  0  0  0
  -27.2303  -37.1434   25.8904 H   0  0  0  0  0  0
  -20.9576  -29.9261   21.7188 H   0  0  0  0  0  0
  -26.0077  -38.2694   24.1395 H   0  0  0  0  0  0
  -29.5555  -20.1685   23.1452 H   0  0  0  0  0  0
  -31.5036  -19.1198   24.1997 H   0  0  0  0  0  0
  -32.3452  -17.1023   20.5407 H   0  0  0  0  0  0
  -26.5874  -20.2256   20.8777 H   0  0  0  0  0  0
  -27.4245  -20.4336   22.3729 H   0  0  0  0  0  0
  -27.3344  -22.7721   22.2475 H   0  0  0  0  0  0
  -26.2066  -22.5452   20.9340 H   0  0  0  0  0  0
  -29.9967  -22.0012   21.3086 H   0  0  0  0  0  0
  -30.0812  -21.7752   19.5789 H   0  0  0  0  0  0
  -28.4696  -19.8785   19.6357 H   0  0  0  0  0  0
  -27.7949  -22.6153   19.3383 H   0  0  0  0  0  0
  -27.9801  -24.6897   18.8403 H   0  0  0  0  0  0
  -29.4775  -24.6295   19.6162 H   0  0  0  0  0  0
  -28.8438  -16.0716   20.9021 H   0  0  0  0  0  0
  1 25  1  0  0  0
  1 30  2  0  0  0
  1 83  1  0  0  0
  2  3  1  0  0  0
  2 25  1  0  0  0
  2 85  1  0  0  0
  2 86  1  0  0  0
  3  4  1  0  0  0
  3 87  1  0  0  0
  3 88  1  0  0  0
  4  5  1  0  0  0
  4 89  1  0  0  0
  4 90  1  0  0  0
  5  6  1  0  0  0
  5 26  1  0  0  0
  5 91  1  0  0  0
  6 25  1  0  0  0
  6 92  1  0  0  0
  6 93  1  0  0  0
  7  8  2  0  0  0
  7 26  1  0  0  0
  7 29  1  0  0  0
  8  9  1  0  0  0
  8 22  1  0  0  0
  9 10  1  0  0  0
  9 27  2  0  0  0
 10 11  2  0  0  0
 10 15  1  0  0  0
 11 12  1  0  0  0
 11 94  1  0  0  0
 12 13  2  0  0  0
 12 95  1  0  0  0
 13 14  1  0  0  0
 13 31  1  0  0  0
 14 15  2  0  0  0
 14 96  1  0  0  0
 15 97  1  0  0  0
 16 17  2  0  0  0
 16 21  1  0  0  0
 16 31  1  0  0  0
 17 18  1  0  0  0
 17 98  1  0  0  0
 18 19  2  0  0  0
 18 99  1  0  0  0
 19 20  1  0  0  0
 19 24  1  0  0  0
 20 21  2  0  0  0
 20100  1  0  0  0
 21 23  1  0  0  0
 22 28  1  0  0  0
 22 32  2  0  0  0
 26 27  1  0  0  0
 28101  1  0  0  0
 28102  1  0  0  0
 29103  1  0  0  0
 29104  1  0  0  0
 33 34  1  0  0  0
 33 66  1  0  0  0
 33 70  2  0  0  0
 34 36  1  0  0  0
 34 59  1  0  0  0
 34105  1  0  0  0
 35 44  2  0  0  0
 35 45  1  0  0  0
 35 68  1  0  0  0
 36 56  1  0  0  0
 36106  1  0  0  0
 37 39  1  0  0  0
 37 47  1  0  0  0
 37 66  1  0  0  0
 37107  1  0  0  0
 38 43  2  0  0  0
 38 46  1  0  0  0
 38 47  1  0  0  0
 39 64  1  0  0  0
 39 67  2  0  0  0
 40 52  1  0  0  0
 40 53  2  0  0  0
 40 58  1  0  0  0
 41108  1  0  0  0
 41109  1  0  0  0
 41110  1  0  0  0
 41 48  1  0  0  0
 42 43  1  0  0  0
 42 66  1  0  0  0
 42111  1  0  0  0
 42112  1  0  0  0
 43 44  1  0  0  0
 44113  1  0  0  0
 45 46  2  0  0  0
 45114  1  0  0  0
 46115  1  0  0  0
 47116  1  0  0  0
 47117  1  0  0  0
 48 56  1  0  0  0
 48 65  1  0  0  0
 48118  1  0  0  0
 49 50  1  0  0  0
 49 53  1  0  0  0
 49 64  1  0  0  0
 49119  1  0  0  0
 50 51  1  0  0  0
 50120  1  0  0  0
 50121  1  0  0  0
 51 52  1  0  0  0
 51122  1  0  0  0
 51123  1  0  0  0
 52124  1  0  0  0
 52125  1  0  0  0
 53 54  1  0  0  0
 54 55  2  0  0  0
 54126  1  0  0  0
 55 57  1  0  0  0
 55127  1  0  0  0
 56 69  2  0  0  0
 57 58  2  0  0  0
 57128  1  0  0  0
 58129  1  0  0  0
 59 60  1  0  0  0
 59 61  1  0  0  0
 59 62  1  0  0  0
 60130  1  0  0  0
 60131  1  0  0  0
 60132  1  0  0  0
 61133  1  0  0  0
 61134  1  0  0  0
 61135  1  0  0  0
 62136  1  0  0  0
 62137  1  0  0  0
 62138  1  0  0  0
 63 65  1  0  0  0
 63139  1  0  0  0
 63140  1  0  0  0
 63141  1  0  0  0
 64142  1  0  0  0
 65143  1  0  0  0
 68 82  1  0  0  0
 71 72  2  0  0  0
 71 74  1  0  0  0
 71144  1  0  0  0
 72 76  1  0  0  0
 72145  1  0  0  0
 73 75  1  0  0  0
 73 76  2  0  0  0
 73146  1  0  0  0
 74 75  2  0  0  0
 74 80  1  0  0  0
 75 83  1  0  0  0
 76 84  1  0  0  0
 77 78  1  0  0  0
 77 80  1  0  0  0
 77147  1  0  0  0
 77148  1  0  0  0
 78 81  1  0  0  0
 78149  1  0  0  0
 78150  1  0  0  0
 79 80  1  0  0  0
 79 81  1  0  0  0
 79151  1  0  0  0
 79152  1  0  0  0
 80153  1  0  0  0
 81 82  1  0  0  0
 81154  1  0  0  0
 82155  1  0  0  0
 82156  1  0  0  0
 83157  1  0  0  0
M  ISO  4   1 100  68 101  82 101  83 100
M  END
> <chiral flag>
0

> <version>
0

> <s_m_source_file>
/data/baiqing/PycharmProjects/Reinvent-master-3.2/result/LINK_invent/BTK/process_docking_weight1_custom_product_contain_oxygen_bond_distance_aromatic_linkinvent_7_9_3/rearranged_h_0138.sdf

> <i_m_source_file_index>
17

> <r_mmod_Potential_Energy-OPLS-2005>
1099.83227539062

> <r_mmod_Stretch_Energy-OPLS-2005>
332.714050292969

> <r_mmod_Bend_Energy-OPLS-2005>
448.750854492188

> <r_mmod_Torsional_Energy-OPLS-2005>
458.060485839844

> <r_mmod_Improper_Torsional_Energy-OPLS-2005>
22.4124393463135

> <r_mmod_Van_der_Waal_Energy-OPLS-2005>
143.800964355469

> <r_mmod_Electrostatic_Energy-OPLS-2005>
-351.455230712891

> <r_mmod_Solvation_Energy-OPLS-2005>
-199.193817138672

> <b_mmod_Minimization_Converged-OPLS-2005>
0

> <r_mmod_RMS_Derivative-OPLS-2005>
10.5341014862061

$$$$
17
                    3D
 Structure written by MMmdl.
164172  0  0  1  0            999 V2000
  -30.6351  -14.5971   20.5186 C   0  0  0  0  0  0
  -30.4387  -12.3688   19.4441 C   0  0  0  0  0  0
  -29.5059  -12.5077   18.2203 C   0  0  0  0  0  0
  -28.0278  -12.3518   18.6322 C   0  0  0  0  0  0
  -27.6582  -13.2117   19.8701 C   0  0  2  0  0  0
  -28.7026  -13.0368   20.9962 C   0  0  0  0  0  0
  -25.2582  -13.8165   20.5688 C   0  0  0  0  0  0
  -24.1839  -13.0436   20.9184 C   0  0  0  0  0  0
  -24.6401  -11.6905   20.8740 C   0  0  0  0  0  0
  -23.9068  -10.4292   21.0406 C   0  0  0  0  0  0
  -24.3616   -9.4207   21.9185 C   0  0  0  0  0  0
  -23.6291   -8.2243   22.0755 C   0  0  0  0  0  0
  -22.4275   -8.0283   21.3545 C   0  0  0  0  0  0
  -21.9912   -9.0256   20.4645 C   0  0  0  0  0  0
  -22.7241  -10.2133   20.3054 C   0  0  0  0  0  0
  -21.6853   -6.0738   22.5281 C   0  0  0  0  0  0
  -21.4010   -6.5641   23.8214 C   0  0  0  0  0  0
  -21.3657   -5.6792   24.9174 C   0  0  0  0  0  0
  -21.6045   -4.3055   24.7224 C   0  0  0  0  0  0
  -21.8820   -3.8147   23.4345 C   0  0  0  0  0  0
  -21.9193   -4.6965   22.3403 C   0  0  0  0  0  0
  -22.7860  -13.5231   21.1848 C   0  0  0  0  0  0
  -22.1663   -4.2152   21.0979 F   0  0  0  0  0  0
  -21.5630   -3.4536   25.7736 F   0  0  0  0  0  0
  -30.0238  -13.3752   20.4398 N   0  0  0  0  0  0
  -26.3014  -12.9337   20.3349 N   0  0  0  0  0  0
  -25.9331  -11.6497   20.5768 N   0  0  0  0  0  0
  -22.0497  -12.8223   22.0399 N   0  0  0  0  0  0
  -25.4302  -15.1883   20.4103 N   0  0  0  0  0  0
  -31.7812  -14.7765   20.0951 O   0  0  0  0  0  0
  -21.6639   -6.8879   21.4241 O   0  0  0  0  0  0
  -22.3549  -14.5542   20.6703 O   0  0  0  0  0  0
  -24.6231  -31.8620   23.2043 C   0  0  0  0  0  0
  -25.9091  -32.4792   23.8364 C   0  0  1  0  0  0
  -27.2279  -27.3484   20.1103 C   0  0  0  0  0  0
  -25.5918  -33.8592   24.2293 N   0  0  0  0  0  0
  -23.4154  -30.4861   21.5464 C   0  0  2  0  0  0
  -24.8616  -28.9449   20.1111 C   0  0  0  0  0  0
  -22.7457  -29.4637   22.4949 C   0  0  0  0  0  0
  -18.0280  -28.1382   22.8492 C   0  0  0  0  0  0
  -24.1485  -36.7288   23.2639 C   0  0  0  0  0  0
  -25.9536  -30.8022   21.3706 C   0  0  0  0  0  0
  -26.0285  -29.4318   20.7129 C   0  0  0  0  0  0
  -27.2143  -28.6445   20.7035 C   0  0  0  0  0  0
  -26.0373  -26.9069   19.4865 C   0  0  0  0  0  0
  -24.8661  -27.6864   19.4903 C   0  0  0  0  0  0
  -23.6279  -29.8209   20.1612 C   0  0  0  0  0  0
  -25.4110  -36.3090   24.0336 C   0  0  1  0  0  0
  -20.5879  -28.3684   23.1291 C   0  0  2  0  0  0
  -20.6771  -26.9412   22.5410 C   0  0  0  0  0  0
  -19.5747  -26.6387   21.5211 C   0  0  0  0  0  0
  -18.1925  -26.7930   22.1620 C   0  0  0  0  0  0
  -19.1532  -28.8848   23.2888 C   0  0  0  0  0  0
  -18.9459  -30.1448   23.8906 C   0  0  0  0  0  0
  -17.6462  -30.6590   24.0565 C   0  0  0  0  0  0
  -25.9050  -34.9461   23.5114 C   0  0  0  0  0  0
  -16.5351  -29.9092   23.6331 C   0  0  0  0  0  0
  -16.7268  -28.6504   23.0360 C   0  0  0  0  0  0
  -26.4488  -31.6592   25.0721 C   0  0  0  0  0  0
  -25.3731  -31.3712   26.1451 C   0  0  0  0  0  0
  -27.0333  -30.3027   24.6144 C   0  0  0  0  0  0
  -27.6052  -32.4323   25.7493 C   0  0  0  0  0  0
  -27.5579  -37.1793   24.8460 C   0  0  0  0  0  0
  -21.4174  -29.3044   22.3688 N   0  0  0  0  0  0
  -26.4280  -37.3791   23.9421 N   0  0  0  0  0  0
  -24.6828  -31.0660   22.0979 N   0  0  0  0  0  0
  -23.4193  -28.8179   23.3021 O   0  0  0  0  0  0
  -28.3619  -26.5309   20.1589 O   0  0  0  0  0  0
  -26.5617  -34.8926   22.4679 O   0  0  0  0  0  0
  -23.5402  -32.1402   23.7392 O   0  0  0  0  0  0
  -30.8004  -19.1871   19.9177 C   0  0  0  0  0  0
  -30.8002  -17.7644   19.9766 C   0  0  0  0  0  0
  -29.0555  -17.8650   21.6342 C   0  0  0  0  0  0
  -29.9527  -19.9888   20.7307 C   0  0  0  0  0  0
  -29.9337  -17.0659   20.8544 C   0  0  0  0  0  0
  -29.0633  -19.2957   21.5981 C   0  0  0  0  0  0
  -30.6170  -24.5128   19.6849 C   0  0  0  0  0  0
  -29.6047  -24.4436   21.9855 C   0  0  0  0  0  0
  -27.4266  -19.4285   23.4802 C   0  0  0  0  0  0
  -30.1675  -21.5432   20.7864 C   0  0  0  0  0  0
  -29.0551  -22.5742   20.3146 C   0  0  0  0  0  0
  -28.1797  -25.0772   20.0088 C   0  0  0  0  0  0
  -29.3603  -24.1375   20.4940 C   0  0  0  0  0  0
  -29.8494  -15.6148   20.9752 N   0  0  0  0  0  0
  -28.2263  -20.0517   22.4338 N   0  0  0  0  0  0
  -31.4799  -12.4924   19.1411 H   0  0  0  0  0  0
  -30.3695  -11.3665   19.8696 H   0  0  0  0  0  0
  -29.7632  -11.7644   17.4645 H   0  0  0  0  0  0
  -29.6551  -13.4820   17.7526 H   0  0  0  0  0  0
  -27.8564  -11.2975   18.8520 H   0  0  0  0  0  0
  -27.3740  -12.5959   17.7941 H   0  0  0  0  0  0
  -27.6867  -14.2519   19.5457 H   0  0  0  0  0  0
  -28.7050  -12.0073   21.3574 H   0  0  0  0  0  0
  -28.4502  -13.6491   21.8629 H   0  0  0  0  0  0
  -25.2761   -9.5684   22.4759 H   0  0  0  0  0  0
  -24.0003   -7.4633   22.7473 H   0  0  0  0  0  0
  -21.0845   -8.8773   19.8947 H   0  0  0  0  0  0
  -22.3705  -10.9670   19.6157 H   0  0  0  0  0  0
  -21.1998   -7.6150   23.9717 H   0  0  0  0  0  0
  -21.1479   -6.0521   25.9078 H   0  0  0  0  0  0
  -22.0600   -2.7610   23.2842 H   0  0  0  0  0  0
  -22.4103  -11.9873   22.4775 H   0  0  0  0  0  0
  -21.1112  -13.1248   22.2597 H   0  0  0  0  0  0
  -24.6618  -15.8421   20.5165 H   0  0  0  0  0  0
  -26.2800  -15.6280   20.0800 H   0  0  0  0  0  0
  -26.7158  -32.5473   23.1117 H   0  0  0  0  0  0
  -25.0075  -33.9742   25.0443 H   0  0  0  0  0  0
  -22.7082  -31.3061   21.4048 H   0  0  0  0  0  0
  -23.3762  -35.9603   23.3285 H   0  0  0  0  0  0
  -24.3584  -36.8921   22.2057 H   0  0  0  0  0  0
  -23.7214  -37.6476   23.6666 H   0  0  0  0  0  0
  -26.0807  -31.5672   20.6034 H   0  0  0  0  0  0
  -26.8359  -30.8511   21.9969 H   0  0  0  0  0  0
  -28.1109  -29.0138   21.1813 H   0  0  0  0  0  0
  -25.9852  -25.9469   18.9949 H   0  0  0  0  0  0
  -23.9717  -27.3080   19.0146 H   0  0  0  0  0  0
  -23.7438  -30.5968   19.4035 H   0  0  0  0  0  0
  -22.7493  -29.2470   19.8612 H   0  0  0  0  0  0
  -25.1287  -36.1941   25.0828 H   0  0  0  0  0  0
  -20.9974  -28.3252   24.1410 H   0  0  0  0  0  0
  -20.5671  -26.2296   23.3608 H   0  0  0  0  0  0
  -21.6640  -26.7449   22.1201 H   0  0  0  0  0  0
  -19.6914  -25.6301   21.1232 H   0  0  0  0  0  0
  -19.6684  -27.3205   20.6746 H   0  0  0  0  0  0
  -17.4200  -26.6686   21.4015 H   0  0  0  0  0  0
  -18.0320  -26.0064   22.9008 H   0  0  0  0  0  0
  -19.7937  -30.7256   24.2283 H   0  0  0  0  0  0
  -17.5024  -31.6272   24.5165 H   0  0  0  0  0  0
  -15.5355  -30.3003   23.7650 H   0  0  0  0  0  0
  -15.8664  -28.0825   22.7084 H   0  0  0  0  0  0
  -24.5910  -30.7058   25.7775 H   0  0  0  0  0  0
  -24.8917  -32.2872   26.4886 H   0  0  0  0  0  0
  -25.8063  -30.8881   27.0218 H   0  0  0  0  0  0
  -26.2899  -29.6777   24.1182 H   0  0  0  0  0  0
  -27.4071  -29.7277   25.4624 H   0  0  0  0  0  0
  -27.8750  -30.4333   23.9338 H   0  0  0  0  0  0
  -27.2665  -33.3630   26.2060 H   0  0  0  0  0  0
  -28.3870  -32.6867   25.0324 H   0  0  0  0  0  0
  -28.0709  -31.8451   26.5418 H   0  0  0  0  0  0
  -28.2570  -38.0117   24.7555 H   0  0  0  0  0  0
  -28.1097  -36.2652   24.6220 H   0  0  0  0  0  0
  -27.2306  -37.1362   25.8862 H   0  0  0  0  0  0
  -20.9343  -29.8771   21.6905 H   0  0  0  0  0  0
  -26.0159  -38.2856   24.1456 H   0  0  0  0  0  0
  -31.5068  -19.6685   19.2563 H   0  0  0  0  0  0
  -31.4834  -17.2216   19.3386 H   0  0  0  0  0  0
  -28.3745  -17.3508   22.2962 H   0  0  0  0  0  0
  -31.5049  -23.9901   20.0396 H   0  0  0  0  0  0
  -30.8296  -25.5801   19.7568 H   0  0  0  0  0  0
  -30.4925  -24.2774   18.6273 H   0  0  0  0  0  0
  -30.4889  -23.9377   22.3720 H   0  0  0  0  0  0
  -28.7542  -24.1406   22.5971 H   0  0  0  0  0  0
  -29.7580  -25.5107   22.1503 H   0  0  0  0  0  0
  -26.9293  -20.1930   24.0787 H   0  0  0  0  0  0
  -28.0472  -18.8321   24.1513 H   0  0  0  0  0  0
  -26.6551  -18.7851   23.0541 H   0  0  0  0  0  0
  -31.0787  -21.7550   20.2281 H   0  0  0  0  0  0
  -30.4246  -21.7583   21.8226 H   0  0  0  0  0  0
  -28.1279  -22.3498   20.8417 H   0  0  0  0  0  0
  -28.8376  -22.3797   19.2637 H   0  0  0  0  0  0
  -27.2836  -24.7775   20.5556 H   0  0  0  0  0  0
  -27.9824  -24.8665   18.9567 H   0  0  0  0  0  0
  -28.9980  -15.2792   21.3991 H   0  0  0  0  0  0
  -28.3123  -21.0648   22.4260 H   0  0  0  0  0  0
  1 25  1  0  0  0
  1 30  2  0  0  0
  1 84  1  0  0  0
  2  3  1  0  0  0
  2 25  1  0  0  0
  2 86  1  0  0  0
  2 87  1  0  0  0
  3  4  1  0  0  0
  3 88  1  0  0  0
  3 89  1  0  0  0
  4  5  1  0  0  0
  4 90  1  0  0  0
  4 91  1  0  0  0
  5  6  1  0  0  0
  5 26  1  0  0  0
  5 92  1  0  0  0
  6 25  1  0  0  0
  6 93  1  0  0  0
  6 94  1  0  0  0
  7  8  2  0  0  0
  7 26  1  0  0  0
  7 29  1  0  0  0
  8  9  1  0  0  0
  8 22  1  0  0  0
  9 10  1  0  0  0
  9 27  2  0  0  0
 10 11  2  0  0  0
 10 15  1  0  0  0
 11 12  1  0  0  0
 11 95  1  0  0  0
 12 13  2  0  0  0
 12 96  1  0  0  0
 13 14  1  0  0  0
 13 31  1  0  0  0
 14 15  2  0  0  0
 14 97  1  0  0  0
 15 98  1  0  0  0
 16 17  2  0  0  0
 16 21  1  0  0  0
 16 31  1  0  0  0
 17 18  1  0  0  0
 17 99  1  0  0  0
 18 19  2  0  0  0
 18100  1  0  0  0
 19 20  1  0  0  0
 19 24  1  0  0  0
 20 21  2  0  0  0
 20101  1  0  0  0
 21 23  1  0  0  0
 22 28  1  0  0  0
 22 32  2  0  0  0
 26 27  1  0  0  0
 28102  1  0  0  0
 28103  1  0  0  0
 29104  1  0  0  0
 29105  1  0  0  0
 33 34  1  0  0  0
 33 66  1  0  0  0
 33 70  2  0  0  0
 34 36  1  0  0  0
 34 59  1  0  0  0
 34106  1  0  0  0
 35 44  2  0  0  0
 35 45  1  0  0  0
 35 68  1  0  0  0
 36 56  1  0  0  0
 36107  1  0  0  0
 37 39  1  0  0  0
 37 47  1  0  0  0
 37 66  1  0  0  0
 37108  1  0  0  0
 38 43  2  0  0  0
 38 46  1  0  0  0
 38 47  1  0  0  0
 39 64  1  0  0  0
 39 67  2  0  0  0
 40 52  1  0  0  0
 40 53  2  0  0  0
 40 58  1  0  0  0
 41109  1  0  0  0
 41110  1  0  0  0
 41111  1  0  0  0
 41 48  1  0  0  0
 42 43  1  0  0  0
 42 66  1  0  0  0
 42112  1  0  0  0
 42113  1  0  0  0
 43 44  1  0  0  0
 44114  1  0  0  0
 45 46  2  0  0  0
 45115  1  0  0  0
 46116  1  0  0  0
 47117  1  0  0  0
 47118  1  0  0  0
 48 56  1  0  0  0
 48 65  1  0  0  0
 48119  1  0  0  0
 49 50  1  0  0  0
 49 53  1  0  0  0
 49 64  1  0  0  0
 49120  1  0  0  0
 50 51  1  0  0  0
 50121  1  0  0  0
 50122  1  0  0  0
 51 52  1  0  0  0
 51123  1  0  0  0
 51124  1  0  0  0
 52125  1  0  0  0
 52126  1  0  0  0
 53 54  1  0  0  0
 54 55  2  0  0  0
 54127  1  0  0  0
 55 57  1  0  0  0
 55128  1  0  0  0
 56 69  2  0  0  0
 57 58  2  0  0  0
 57129  1  0  0  0
 58130  1  0  0  0
 59 60  1  0  0  0
 59 61  1  0  0  0
 59 62  1  0  0  0
 60131  1  0  0  0
 60132  1  0  0  0
 60133  1  0  0  0
 61134  1  0  0  0
 61135  1  0  0  0
 61136  1  0  0  0
 62137  1  0  0  0
 62138  1  0  0  0
 62139  1  0  0  0
 63 65  1  0  0  0
 63140  1  0  0  0
 63141  1  0  0  0
 63142  1  0  0  0
 64143  1  0  0  0
 65144  1  0  0  0
 68 82  1  0  0  0
 71 72  2  0  0  0
 71 74  1  0  0  0
 71145  1  0  0  0
 72 75  1  0  0  0
 72146  1  0  0  0
 73 75  2  0  0  0
 73 76  1  0  0  0
 73147  1  0  0  0
 74 76  2  0  0  0
 74 80  1  0  0  0
 75 84  1  0  0  0
 76 85  1  0  0  0
 77148  1  0  0  0
 77149  1  0  0  0
 77150  1  0  0  0
 77 83  1  0  0  0
 78 83  1  0  0  0
 78151  1  0  0  0
 78152  1  0  0  0
 78153  1  0  0  0
 79 85  1  0  0  0
 79154  1  0  0  0
 79155  1  0  0  0
 79156  1  0  0  0
 80 81  1  0  0  0
 80157  1  0  0  0
 80158  1  0  0  0
 81 83  1  0  0  0
 81159  1  0  0  0
 81160  1  0  0  0
 82 83  1  0  0  0
 82161  1  0  0  0
 82162  1  0  0  0
 84163  1  0  0  0
 85164  1  0  0  0
M  ISO  4   1 100  68 101  82 101  84 100
M  END
> <chiral flag>
0

> <version>
0

> <s_m_source_file>
/data/baiqing/PycharmProjects/Reinvent-master-3.2/result/LINK_invent/BTK/process_docking_weight1_custom_product_contain_oxygen_bond_distance_aromatic_linkinvent_7_9_3/rearranged_h_0138.sdf

> <i_m_source_file_index>
18

> <r_mmod_Potential_Energy-OPLS-2005>
54.8815422058105

> <r_mmod_Stretch_Energy-OPLS-2005>
72.4757843017578

> <r_mmod_Bend_Energy-OPLS-2005>
143.834197998047

> <r_mmod_Torsional_Energy-OPLS-2005>
213.050262451172

> <r_mmod_Improper_Torsional_Energy-OPLS-2005>
4.44843053817749

> <r_mmod_Van_der_Waal_Energy-OPLS-2005>
150.565689086914

> <r_mmod_Electrostatic_Energy-OPLS-2005>
-358.231079101562

> <r_mmod_Solvation_Energy-OPLS-2005>
-206.748199462891

> <b_mmod_Minimization_Converged-OPLS-2005>
0

> <r_mmod_RMS_Derivative-OPLS-2005>
0.50133740901947

$$$$
18
                    3D
 Structure written by MMmdl.
167175  0  0  1  0            999 V2000
  -30.6857  -14.5050   20.5937 C   0  0  0  0  0  0
  -30.4343  -12.3375   19.4117 C   0  0  0  0  0  0
  -29.4961  -12.5208   18.2011 C   0  0  0  0  0  0
  -28.0136  -12.3869   18.6110 C   0  0  0  0  0  0
  -27.6581  -13.2160   19.8771 C   0  0  2  0  0  0
  -28.7092  -12.9929   20.9906 C   0  0  0  0  0  0
  -25.2560  -13.8168   20.5715 C   0  0  0  0  0  0
  -24.1807  -13.0448   20.9166 C   0  0  0  0  0  0
  -24.6361  -11.6921   20.8723 C   0  0  0  0  0  0
  -23.9050  -10.4296   21.0349 C   0  0  0  0  0  0
  -24.3607   -9.4218   21.9149 C   0  0  0  0  0  0
  -23.6269   -8.2263   22.0773 C   0  0  0  0  0  0
  -22.4277   -8.0285   21.3544 C   0  0  0  0  0  0
  -21.9890   -9.0242   20.4658 C   0  0  0  0  0  0
  -22.7209  -10.2118   20.3014 C   0  0  0  0  0  0
  -21.6843   -6.0725   22.5258 C   0  0  0  0  0  0
  -21.4012   -6.5625   23.8189 C   0  0  0  0  0  0
  -21.3651   -5.6782   24.9153 C   0  0  0  0  0  0
  -21.6050   -4.3042   24.7226 C   0  0  0  0  0  0
  -21.8813   -3.8131   23.4352 C   0  0  0  0  0  0
  -21.9182   -4.6941   22.3399 C   0  0  0  0  0  0
  -22.7828  -13.5257   21.1798 C   0  0  0  0  0  0
  -22.1672   -4.2139   21.0965 F   0  0  0  0  0  0
  -21.5602   -3.4520   25.7728 F   0  0  0  0  0  0
  -30.0294  -13.3202   20.4309 N   0  0  0  0  0  0
  -26.3005  -12.9346   20.3410 N   0  0  0  0  0  0
  -25.9298  -11.6497   20.5786 N   0  0  0  0  0  0
  -22.0450  -12.8304   22.0362 N   0  0  0  0  0  0
  -25.4287  -15.1899   20.4161 N   0  0  0  0  0  0
  -31.8224  -14.6951   20.1586 O   0  0  0  0  0  0
  -21.6646   -6.8889   21.4237 O   0  0  0  0  0  0
  -22.3522  -14.5535   20.6585 O   0  0  0  0  0  0
  -24.6221  -31.8636   23.2064 C   0  0  0  0  0  0
  -25.9077  -32.4797   23.8413 C   0  0  1  0  0  0
  -27.2244  -27.3648   20.1181 C   0  0  0  0  0  0
  -25.5938  -33.8611   24.2337 N   0  0  0  0  0  0
  -23.4131  -30.4859   21.5525 C   0  0  2  0  0  0
  -24.8585  -28.9438   20.1171 C   0  0  0  0  0  0
  -22.7469  -29.4627   22.5018 C   0  0  0  0  0  0
  -18.0263  -28.1424   22.8484 C   0  0  0  0  0  0
  -24.1479  -36.7299   23.2651 C   0  0  0  0  0  0
  -25.9520  -30.8063   21.3718 C   0  0  0  0  0  0
  -26.0262  -29.4373   20.7150 C   0  0  0  0  0  0
  -27.2164  -28.6614   20.6980 C   0  0  0  0  0  0
  -26.0356  -26.8987   19.5211 C   0  0  0  0  0  0
  -24.8633  -27.6764   19.5135 C   0  0  0  0  0  0
  -23.6228  -29.8190   20.1657 C   0  0  0  0  0  0
  -25.4110  -36.3120   24.0333 C   0  0  1  0  0  0
  -20.5884  -28.3682   23.1304 C   0  0  2  0  0  0
  -20.6769  -26.9464   22.5235 C   0  0  0  0  0  0
  -19.5679  -26.6506   21.5091 C   0  0  0  0  0  0
  -18.1902  -26.8005   22.1561 C   0  0  0  0  0  0
  -19.1539  -28.8859   23.2908 C   0  0  0  0  0  0
  -18.9456  -30.1440   23.8944 C   0  0  0  0  0  0
  -17.6453  -30.6568   24.0622 C   0  0  0  0  0  0
  -25.9065  -34.9472   23.5151 C   0  0  0  0  0  0
  -16.5336  -29.9117   23.6345 C   0  0  0  0  0  0
  -16.7266  -28.6569   23.0354 C   0  0  0  0  0  0
  -26.4496  -31.6597   25.0791 C   0  0  0  0  0  0
  -25.3734  -31.3673   26.1512 C   0  0  0  0  0  0
  -27.0359  -30.3036   24.6230 C   0  0  0  0  0  0
  -27.6093  -32.4330   25.7536 C   0  0  0  0  0  0
  -27.5571  -37.1793   24.8484 C   0  0  0  0  0  0
  -21.4195  -29.3102   22.3791 N   0  0  0  0  0  0
  -26.4285  -37.3789   23.9418 N   0  0  0  0  0  0
  -24.6805  -31.0689   22.0988 N   0  0  0  0  0  0
  -23.4221  -28.8040   23.2979 O   0  0  0  0  0  0
  -28.3591  -26.5631   20.0889 O   0  0  0  0  0  0
  -26.5607  -34.8928   22.4702 O   0  0  0  0  0  0
  -23.5397  -32.1398   23.7433 O   0  0  0  0  0  0
  -31.5467  -16.9818   22.2668 C   0  0  0  0  0  0
  -29.5109  -17.9608   21.3519 C   0  0  0  0  0  0
  -31.0502  -19.3582   22.6400 C   0  0  0  0  0  0
  -31.9034  -18.2315   22.8168 C   0  0  0  0  0  0
  -30.3477  -16.8209   21.5393 C   0  0  0  0  0  0
  -29.8589  -19.2411   21.8729 C   0  0  0  0  0  0
  -31.3815  -20.6473   23.3036 C   0  0  0  0  0  0
  -28.7687  -22.7643   21.2575 C   0  0  0  0  0  0
  -33.1867  -18.3252   23.6391 C   0  0  0  0  0  0
  -30.6097  -20.9331   24.5839 C   0  0  0  0  0  0
  -29.8646  -23.9947   19.3308 C   0  0  0  0  0  0
  -27.3765  -23.5755   19.3188 C   0  0  0  0  0  0
  -29.2590  -21.3478   20.7944 C   0  0  0  0  0  0
  -28.3411  -25.3470   20.9042 C   0  0  0  0  0  0
  -28.5896  -23.9311   20.2101 C   0  0  0  0  0  0
  -29.9317  -15.5165   21.0938 N   0  0  0  0  0  0
  -32.2374  -21.4359   22.8933 O   0  0  0  0  0  0
  -28.5135  -22.9552   22.4502 O   0  0  0  0  0  0
  -28.9694  -20.3072   21.7600 O   0  0  0  0  0  0
  -31.4736  -12.4623   19.1021 H   0  0  0  0  0  0
  -30.3679  -11.3214   19.8050 H   0  0  0  0  0  0
  -29.7342  -11.7889   17.4293 H   0  0  0  0  0  0
  -29.6644  -13.5004   17.7510 H   0  0  0  0  0  0
  -27.8118  -11.3298   18.7923 H   0  0  0  0  0  0
  -27.3731  -12.6771   17.7764 H   0  0  0  0  0  0
  -27.6945  -14.2680   19.5888 H   0  0  0  0  0  0
  -28.6953  -11.9519   21.3096 H   0  0  0  0  0  0
  -28.4736  -13.5657   21.8894 H   0  0  0  0  0  0
  -25.2742   -9.5706   22.4751 H   0  0  0  0  0  0
  -23.9952   -7.4680   22.7529 H   0  0  0  0  0  0
  -21.0815   -8.8723   19.9012 H   0  0  0  0  0  0
  -22.3610  -10.9637   19.6131 H   0  0  0  0  0  0
  -21.2024   -7.6130   23.9691 H   0  0  0  0  0  0
  -21.1494   -6.0529   25.9061 H   0  0  0  0  0  0
  -22.0622   -2.7612   23.2843 H   0  0  0  0  0  0
  -22.3991  -11.9979   22.4830 H   0  0  0  0  0  0
  -21.1047  -13.1353   22.2416 H   0  0  0  0  0  0
  -24.6714  -15.8496   20.5549 H   0  0  0  0  0  0
  -26.2858  -15.6334   20.1122 H   0  0  0  0  0  0
  -26.7125  -32.5435   23.1146 H   0  0  0  0  0  0
  -25.0092  -33.9765   25.0487 H   0  0  0  0  0  0
  -22.7034  -31.3042   21.4085 H   0  0  0  0  0  0
  -23.3747  -35.9621   23.3354 H   0  0  0  0  0  0
  -24.3612  -36.8921   22.2076 H   0  0  0  0  0  0
  -23.7203  -37.6501   23.6661 H   0  0  0  0  0  0
  -26.0871  -31.5716   20.6057 H   0  0  0  0  0  0
  -26.8280  -30.8505   22.0083 H   0  0  0  0  0  0
  -28.1222  -29.0380   21.1531 H   0  0  0  0  0  0
  -26.0063  -25.9253   19.0562 H   0  0  0  0  0  0
  -23.9628  -27.2890   19.0556 H   0  0  0  0  0  0
  -23.7340  -30.5984   19.4086 H   0  0  0  0  0  0
  -22.7437  -29.2481   19.8637 H   0  0  0  0  0  0
  -25.1261  -36.2003   25.0811 H   0  0  0  0  0  0
  -21.0021  -28.3162   24.1399 H   0  0  0  0  0  0
  -20.5841  -26.2183   23.3325 H   0  0  0  0  0  0
  -21.6593  -26.7645   22.0858 H   0  0  0  0  0  0
  -19.6768  -25.6468   21.1022 H   0  0  0  0  0  0
  -19.6556  -27.3326   20.6638 H   0  0  0  0  0  0
  -17.4109  -26.6798   21.4031 H   0  0  0  0  0  0
  -18.0355  -26.0155   22.8991 H   0  0  0  0  0  0
  -19.7947  -30.7226   24.2335 H   0  0  0  0  0  0
  -17.5030  -31.6188   24.5313 H   0  0  0  0  0  0
  -15.5331  -30.2982   23.7680 H   0  0  0  0  0  0
  -15.8653  -28.0863   22.7057 H   0  0  0  0  0  0
  -24.5948  -30.6985   25.7827 H   0  0  0  0  0  0
  -24.8832  -32.2790   26.4952 H   0  0  0  0  0  0
  -25.8076  -30.8865   27.0281 H   0  0  0  0  0  0
  -26.2927  -29.6776   24.1260 H   0  0  0  0  0  0
  -27.4096  -29.7334   25.4743 H   0  0  0  0  0  0
  -27.8796  -30.4406   23.9443 H   0  0  0  0  0  0
  -27.2755  -33.3656   26.2082 H   0  0  0  0  0  0
  -28.3887  -32.6816   25.0325 H   0  0  0  0  0  0
  -28.0736  -31.8442   26.5462 H   0  0  0  0  0  0
  -28.2573  -38.0098   24.7528 H   0  0  0  0  0  0
  -28.1063  -36.2630   24.6277 H   0  0  0  0  0  0
  -27.2315  -37.1414   25.8894 H   0  0  0  0  0  0
  -20.9405  -29.8982   21.7127 H   0  0  0  0  0  0
  -26.0203  -38.2879   24.1407 H   0  0  0  0  0  0
  -32.1811  -16.1263   22.4597 H   0  0  0  0  0  0
  -28.5739  -17.8608   20.8182 H   0  0  0  0  0  0
  -33.6407  -17.3489   23.7959 H   0  0  0  0  0  0
  -32.9881  -18.7386   24.6289 H   0  0  0  0  0  0
  -33.9270  -18.9559   23.1458 H   0  0  0  0  0  0
  -29.5490  -21.0505   24.3583 H   0  0  0  0  0  0
  -30.9807  -21.8330   25.0754 H   0  0  0  0  0  0
  -30.7331  -20.0949   25.2684 H   0  0  0  0  0  0
  -30.0253  -23.0717   18.7680 H   0  0  0  0  0  0
  -30.7633  -24.1908   19.9166 H   0  0  0  0  0  0
  -29.7993  -24.7917   18.5895 H   0  0  0  0  0  0
  -27.4084  -22.5600   18.9241 H   0  0  0  0  0  0
  -27.3117  -24.2404   18.4576 H   0  0  0  0  0  0
  -26.4423  -23.6595   19.8751 H   0  0  0  0  0  0
  -30.3287  -21.3748   20.5805 H   0  0  0  0  0  0
  -28.7506  -21.0848   19.8676 H   0  0  0  0  0  0
  -29.1285  -25.5044   21.6399 H   0  0  0  0  0  0
  -27.4232  -25.3098   21.4948 H   0  0  0  0  0  0
  -28.9536  -15.3021   21.2035 H   0  0  0  0  0  0
  1 25  1  0  0  0
  1 30  2  0  0  0
  1 86  1  0  0  0
  2  3  1  0  0  0
  2 25  1  0  0  0
  2 90  1  0  0  0
  2 91  1  0  0  0
  3  4  1  0  0  0
  3 92  1  0  0  0
  3 93  1  0  0  0
  4  5  1  0  0  0
  4 94  1  0  0  0
  4 95  1  0  0  0
  5  6  1  0  0  0
  5 26  1  0  0  0
  5 96  1  0  0  0
  6 25  1  0  0  0
  6 97  1  0  0  0
  6 98  1  0  0  0
  7  8  2  0  0  0
  7 26  1  0  0  0
  7 29  1  0  0  0
  8  9  1  0  0  0
  8 22  1  0  0  0
  9 10  1  0  0  0
  9 27  2  0  0  0
 10 11  2  0  0  0
 10 15  1  0  0  0
 11 12  1  0  0  0
 11 99  1  0  0  0
 12 13  2  0  0  0
 12100  1  0  0  0
 13 14  1  0  0  0
 13 31  1  0  0  0
 14 15  2  0  0  0
 14101  1  0  0  0
 15102  1  0  0  0
 16 17  2  0  0  0
 16 21  1  0  0  0
 16 31  1  0  0  0
 17 18  1  0  0  0
 17103  1  0  0  0
 18 19  2  0  0  0
 18104  1  0  0  0
 19 20  1  0  0  0
 19 24  1  0  0  0
 20 21  2  0  0  0
 20105  1  0  0  0
 21 23  1  0  0  0
 22 28  1  0  0  0
 22 32  2  0  0  0
 26 27  1  0  0  0
 28106  1  0  0  0
 28107  1  0  0  0
 29108  1  0  0  0
 29109  1  0  0  0
 33 34  1  0  0  0
 33 66  1  0  0  0
 33 70  2  0  0  0
 34 36  1  0  0  0
 34 59  1  0  0  0
 34110  1  0  0  0
 35 44  2  0  0  0
 35 45  1  0  0  0
 35 68  1  0  0  0
 36 56  1  0  0  0
 36111  1  0  0  0
 37 39  1  0  0  0
 37 47  1  0  0  0
 37 66  1  0  0  0
 37112  1  0  0  0
 38 43  2  0  0  0
 38 46  1  0  0  0
 38 47  1  0  0  0
 39 64  1  0  0  0
 39 67  2  0  0  0
 40 52  1  0  0  0
 40 53  2  0  0  0
 40 58  1  0  0  0
 41113  1  0  0  0
 41114  1  0  0  0
 41115  1  0  0  0
 41 48  1  0  0  0
 42 43  1  0  0  0
 42 66  1  0  0  0
 42116  1  0  0  0
 42117  1  0  0  0
 43 44  1  0  0  0
 44118  1  0  0  0
 45 46  2  0  0  0
 45119  1  0  0  0
 46120  1  0  0  0
 47121  1  0  0  0
 47122  1  0  0  0
 48 56  1  0  0  0
 48 65  1  0  0  0
 48123  1  0  0  0
 49 50  1  0  0  0
 49 53  1  0  0  0
 49 64  1  0  0  0
 49124  1  0  0  0
 50 51  1  0  0  0
 50125  1  0  0  0
 50126  1  0  0  0
 51 52  1  0  0  0
 51127  1  0  0  0
 51128  1  0  0  0
 52129  1  0  0  0
 52130  1  0  0  0
 53 54  1  0  0  0
 54 55  2  0  0  0
 54131  1  0  0  0
 55 57  1  0  0  0
 55132  1  0  0  0
 56 69  2  0  0  0
 57 58  2  0  0  0
 57133  1  0  0  0
 58134  1  0  0  0
 59 60  1  0  0  0
 59 61  1  0  0  0
 59 62  1  0  0  0
 60135  1  0  0  0
 60136  1  0  0  0
 60137  1  0  0  0
 61138  1  0  0  0
 61139  1  0  0  0
 61140  1  0  0  0
 62141  1  0  0  0
 62142  1  0  0  0
 62143  1  0  0  0
 63 65  1  0  0  0
 63144  1  0  0  0
 63145  1  0  0  0
 63146  1  0  0  0
 64147  1  0  0  0
 65148  1  0  0  0
 68 84  1  0  0  0
 71 74  2  0  0  0
 71 75  1  0  0  0
 71149  1  0  0  0
 72 75  2  0  0  0
 72 76  1  0  0  0
 72150  1  0  0  0
 73 74  1  0  0  0
 73 76  2  0  0  0
 73 77  1  0  0  0
 74 79  1  0  0  0
 75 86  1  0  0  0
 76 89  1  0  0  0
 77 80  1  0  0  0
 77 87  2  0  0  0
 78 83  1  0  0  0
 78 85  1  0  0  0
 78 88  2  0  0  0
 79151  1  0  0  0
 79152  1  0  0  0
 79153  1  0  0  0
 80154  1  0  0  0
 80155  1  0  0  0
 80156  1  0  0  0
 81157  1  0  0  0
 81158  1  0  0  0
 81159  1  0  0  0
 81 85  1  0  0  0
 82 85  1  0  0  0
 82160  1  0  0  0
 82161  1  0  0  0
 82162  1  0  0  0
 83 89  1  0  0  0
 83163  1  0  0  0
 83164  1  0  0  0
 84 85  1  0  0  0
 84165  1  0  0  0
 84166  1  0  0  0
 86167  1  0  0  0
M  ISO  4   1 100  68 101  84 101  86 100
M  END
> <chiral flag>
0

> <version>
0

> <s_m_source_file>
/data/baiqing/PycharmProjects/Reinvent-master-3.2/result/LINK_invent/BTK/process_docking_weight1_custom_product_contain_oxygen_bond_distance_aromatic_linkinvent_7_9_3/rearranged_h_0138.sdf

> <i_m_source_file_index>
19

> <r_mmod_Potential_Energy-OPLS-2005>
165.505462646484

> <r_mmod_Stretch_Energy-OPLS-2005>
62.7420501708984

> <r_mmod_Bend_Energy-OPLS-2005>
112.427024841309

> <r_mmod_Torsional_Energy-OPLS-2005>
340.0830078125

> <r_mmod_Improper_Torsional_Energy-OPLS-2005>
4.94458770751953

> <r_mmod_Van_der_Waal_Energy-OPLS-2005>
141.451354980469

> <r_mmod_Electrostatic_Energy-OPLS-2005>
-293.332794189453

> <r_mmod_Solvation_Energy-OPLS-2005>
-224.794097900391

> <b_mmod_Minimization_Converged-OPLS-2005>
0

> <r_mmod_RMS_Derivative-OPLS-2005>
6.68383646011353

$$$$
19
                    3D
 Structure written by MMmdl.
159167  0  0  1  0            999 V2000
  -30.6918  -14.5428   20.5886 C   0  0  0  0  0  0
  -30.4142  -12.3606   19.4387 C   0  0  0  0  0  0
  -29.5008  -12.5486   18.2125 C   0  0  0  0  0  0
  -28.0188  -12.4057   18.6105 C   0  0  0  0  0  0
  -27.6556  -13.2281   19.8764 C   0  0  2  0  0  0
  -28.6972  -13.0326   21.0013 C   0  0  0  0  0  0
  -25.2545  -13.8192   20.5713 C   0  0  0  0  0  0
  -24.1815  -13.0430   20.9182 C   0  0  0  0  0  0
  -24.6396  -11.6915   20.8723 C   0  0  0  0  0  0
  -23.9057  -10.4291   21.0388 C   0  0  0  0  0  0
  -24.3609   -9.4199   21.9164 C   0  0  0  0  0  0
  -23.6282   -8.2232   22.0736 C   0  0  0  0  0  0
  -22.4264   -8.0265   21.3526 C   0  0  0  0  0  0
  -21.9897   -9.0231   20.4626 C   0  0  0  0  0  0
  -22.7225  -10.2113   20.3035 C   0  0  0  0  0  0
  -21.6848   -6.0717   22.5273 C   0  0  0  0  0  0
  -21.4016   -6.5629   23.8200 C   0  0  0  0  0  0
  -21.3664   -5.6784   24.9163 C   0  0  0  0  0  0
  -21.6051   -4.3048   24.7219 C   0  0  0  0  0  0
  -21.8816   -3.8131   23.4345 C   0  0  0  0  0  0
  -21.9187   -4.6947   22.3399 C   0  0  0  0  0  0
  -22.7840  -13.5209   21.1839 C   0  0  0  0  0  0
  -22.1661   -4.2139   21.0974 F   0  0  0  0  0  0
  -21.5628   -3.4537   25.7736 F   0  0  0  0  0  0
  -30.0161  -13.3625   20.4460 N   0  0  0  0  0  0
  -26.2986  -12.9390   20.3355 N   0  0  0  0  0  0
  -25.9330  -11.6532   20.5730 N   0  0  0  0  0  0
  -22.0478  -12.8192   22.0398 N   0  0  0  0  0  0
  -25.4253  -15.1915   20.4174 N   0  0  0  0  0  0
  -31.8296  -14.6823   20.1290 O   0  0  0  0  0  0
  -21.6627   -6.8864   21.4232 O   0  0  0  0  0  0
  -22.3521  -14.5500   20.6676 O   0  0  0  0  0  0
  -24.6206  -31.8649   23.2106 C   0  0  0  0  0  0
  -25.9081  -32.4825   23.8395 C   0  0  1  0  0  0
  -27.2374  -27.3539   20.1375 C   0  0  0  0  0  0
  -25.5929  -33.8641   24.2319 N   0  0  0  0  0  0
  -23.4118  -30.4933   21.5465 C   0  0  2  0  0  0
  -24.8642  -28.9582   20.1086 C   0  0  0  0  0  0
  -22.7435  -29.4658   22.4910 C   0  0  0  0  0  0
  -18.0273  -28.1405   22.8489 C   0  0  0  0  0  0
  -24.1451  -36.7268   23.2639 C   0  0  0  0  0  0
  -25.9500  -30.8096   21.3786 C   0  0  0  0  0  0
  -26.0265  -29.4418   20.7196 C   0  0  0  0  0  0
  -27.2085  -28.6529   20.7249 C   0  0  0  0  0  0
  -26.0542  -26.9294   19.4816 C   0  0  0  0  0  0
  -24.8793  -27.7060   19.4800 C   0  0  0  0  0  0
  -23.6292  -29.8318   20.1582 C   0  0  0  0  0  0
  -25.4087  -36.3129   24.0339 C   0  0  1  0  0  0
  -20.5871  -28.3674   23.1294 C   0  0  2  0  0  0
  -20.6742  -26.9392   22.5430 C   0  0  0  0  0  0
  -19.5732  -26.6380   21.5220 C   0  0  0  0  0  0
  -18.1905  -26.7953   22.1620 C   0  0  0  0  0  0
  -19.1534  -28.8848   23.2892 C   0  0  0  0  0  0
  -18.9485  -30.1453   23.8905 C   0  0  0  0  0  0
  -17.6493  -30.6612   24.0576 C   0  0  0  0  0  0
  -25.9043  -34.9510   23.5130 C   0  0  0  0  0  0
  -16.5366  -29.9129   23.6347 C   0  0  0  0  0  0
  -16.7265  -28.6543   23.0350 C   0  0  0  0  0  0
  -26.4467  -31.6666   25.0784 C   0  0  0  0  0  0
  -25.3706  -31.3831   26.1510 C   0  0  0  0  0  0
  -27.0275  -30.3073   24.6262 C   0  0  0  0  0  0
  -27.6022  -32.4375   25.7596 C   0  0  0  0  0  0
  -27.5541  -37.1815   24.8478 C   0  0  0  0  0  0
  -21.4151  -29.3053   22.3674 N   0  0  0  0  0  0
  -26.4253  -37.3828   23.9424 N   0  0  0  0  0  0
  -24.6788  -31.0712   22.1023 N   0  0  0  0  0  0
  -23.4178  -28.8181   23.2952 O   0  0  0  0  0  0
  -28.3906  -26.5613   20.2542 O   0  0  0  0  0  0
  -26.5597  -34.8956   22.4685 O   0  0  0  0  0  0
  -23.5391  -32.1408   23.7476 O   0  0  0  0  0  0
  -29.8179  -18.1416   21.1445 C   0  0  0  0  0  0
  -31.8297  -17.0596   21.9717 C   0  0  0  0  0  0
  -31.6901  -19.5040   21.9093 C   0  0  0  0  0  0
  -30.5472  -16.9323   21.3927 C   0  0  0  0  0  0
  -30.3759  -19.4419   21.3811 C   0  0  0  0  0  0
  -32.3939  -18.3245   22.2238 C   0  0  0  0  0  0
  -30.1032  -22.9945   20.5388 C   0  0  0  0  0  0
  -28.4349  -24.7497   18.6368 C   0  0  0  0  0  0
  -27.2417  -24.4027   20.9119 C   0  0  0  0  0  0
  -29.7232  -24.4965   20.8133 C   0  0  0  0  0  0
  -29.9076  -21.8925   21.6218 C   0  0  0  0  0  0
  -28.4084  -25.0838   20.1461 C   0  0  0  0  0  0
  -30.0097  -15.6101   21.1002 N   0  0  0  0  0  0
  -30.6372  -22.6875   19.4658 O   0  0  0  0  0  0
  -29.6365  -20.5788   21.0398 O   0  0  0  0  0  0
  -33.6377  -18.4060   22.7571 F   0  0  0  0  0  0
  -31.4636  -12.4417   19.1557 H   0  0  0  0  0  0
  -30.2944  -11.3540   19.8382 H   0  0  0  0  0  0
  -29.7522  -11.8329   17.4291 H   0  0  0  0  0  0
  -29.6719  -13.5379   17.7838 H   0  0  0  0  0  0
  -27.8196  -11.3476   18.7797 H   0  0  0  0  0  0
  -27.3770  -12.7069   17.7817 H   0  0  0  0  0  0
  -27.6861  -14.2780   19.5877 H   0  0  0  0  0  0
  -28.6926  -11.9961   21.3411 H   0  0  0  0  0  0
  -28.4558  -13.6319   21.8803 H   0  0  0  0  0  0
  -25.2747   -9.5675   22.4744 H   0  0  0  0  0  0
  -23.9979   -7.4630   22.7475 H   0  0  0  0  0  0
  -21.0806   -8.8733   19.8974 H   0  0  0  0  0  0
  -22.3649  -10.9631   19.6150 H   0  0  0  0  0  0
  -21.2026   -7.6146   23.9697 H   0  0  0  0  0  0
  -21.1493   -6.0523   25.9062 H   0  0  0  0  0  0
  -22.0604   -2.7597   23.2838 H   0  0  0  0  0  0
  -22.4074  -11.9857   22.4811 H   0  0  0  0  0  0
  -21.1103  -13.1234   22.2636 H   0  0  0  0  0  0
  -24.6626  -15.8490   20.5396 H   0  0  0  0  0  0
  -26.2810  -15.6314   20.1022 H   0  0  0  0  0  0
  -26.7160  -32.5488   23.1161 H   0  0  0  0  0  0
  -25.0133  -33.9798   25.0493 H   0  0  0  0  0  0
  -22.7029  -31.3122   21.4054 H   0  0  0  0  0  0
  -23.3754  -35.9576   23.3376 H   0  0  0  0  0  0
  -24.3491  -36.8802   22.2035 H   0  0  0  0  0  0
  -23.7165  -37.6478   23.6601 H   0  0  0  0  0  0
  -26.0781  -31.5797   20.6168 H   0  0  0  0  0  0
  -26.8279  -30.8508   22.0112 H   0  0  0  0  0  0
  -28.0945  -29.0236   21.2234 H   0  0  0  0  0  0
  -25.9822  -25.9812   18.9796 H   0  0  0  0  0  0
  -23.9933  -27.3264   18.9935 H   0  0  0  0  0  0
  -23.7504  -30.6125   19.4049 H   0  0  0  0  0  0
  -22.7491  -29.2658   19.8445 H   0  0  0  0  0  0
  -25.1281  -36.1981   25.0835 H   0  0  0  0  0  0
  -20.9965  -28.3257   24.1413 H   0  0  0  0  0  0
  -20.5571  -26.2300   23.3630 H   0  0  0  0  0  0
  -21.6622  -26.7366   22.1280 H   0  0  0  0  0  0
  -19.6879  -25.6288   21.1254 H   0  0  0  0  0  0
  -19.6711  -27.3188   20.6755 H   0  0  0  0  0  0
  -17.4176  -26.6709   21.4017 H   0  0  0  0  0  0
  -18.0294  -26.0102   22.9019 H   0  0  0  0  0  0
  -19.7970  -30.7256   24.2264 H   0  0  0  0  0  0
  -17.5077  -31.6302   24.5169 H   0  0  0  0  0  0
  -15.5377  -30.3057   23.7683 H   0  0  0  0  0  0
  -15.8653  -28.0890   22.7058 H   0  0  0  0  0  0
  -24.5985  -30.7021   25.7915 H   0  0  0  0  0  0
  -24.8764  -32.2992   26.4784 H   0  0  0  0  0  0
  -25.8058  -30.9232   27.0384 H   0  0  0  0  0  0
  -26.2899  -29.6948   24.1070 H   0  0  0  0  0  0
  -27.3689  -29.7230   25.4816 H   0  0  0  0  0  0
  -27.8903  -30.4342   23.9709 H   0  0  0  0  0  0
  -27.2684  -33.3742   26.2075 H   0  0  0  0  0  0
  -28.3965  -32.6785   25.0519 H   0  0  0  0  0  0
  -28.0542  -31.8533   26.5628 H   0  0  0  0  0  0
  -28.2633  -38.0039   24.7468 H   0  0  0  0  0  0
  -28.0950  -36.2577   24.6388 H   0  0  0  0  0  0
  -27.2232  -37.1574   25.8871 H   0  0  0  0  0  0
  -20.9296  -29.8814   21.6942 H   0  0  0  0  0  0
  -26.0151  -38.2901   24.1446 H   0  0  0  0  0  0
  -28.8180  -18.0847   20.7387 H   0  0  0  0  0  0
  -32.4057  -16.1807   22.2245 H   0  0  0  0  0  0
  -32.1963  -20.4446   22.0629 H   0  0  0  0  0  0
  -28.4282  -23.6761   18.4586 H   0  0  0  0  0  0
  -29.3425  -25.1488   18.1779 H   0  0  0  0  0  0
  -27.6029  -25.1493   18.0694 H   0  0  0  0  0  0
  -27.2874  -24.6362   21.9757 H   0  0  0  0  0  0
  -27.2917  -23.3179   20.8187 H   0  0  0  0  0  0
  -26.2454  -24.6651   20.5789 H   0  0  0  0  0  0
  -30.5717  -25.0908   20.4745 H   0  0  0  0  0  0
  -29.6888  -24.6530   21.8918 H   0  0  0  0  0  0
  -30.7856  -21.8896   22.2640 H   0  0  0  0  0  0
  -29.0696  -22.1677   22.2600 H   0  0  0  0  0  0
  -29.0217  -15.4725   21.2578 H   0  0  0  0  0  0
  1 25  1  0  0  0
  1 30  2  0  0  0
  1 83  1  0  0  0
  2  3  1  0  0  0
  2 25  1  0  0  0
  2 87  1  0  0  0
  2 88  1  0  0  0
  3  4  1  0  0  0
  3 89  1  0  0  0
  3 90  1  0  0  0
  4  5  1  0  0  0
  4 91  1  0  0  0
  4 92  1  0  0  0
  5  6  1  0  0  0
  5 26  1  0  0  0
  5 93  1  0  0  0
  6 25  1  0  0  0
  6 94  1  0  0  0
  6 95  1  0  0  0
  7  8  2  0  0  0
  7 26  1  0  0  0
  7 29  1  0  0  0
  8  9  1  0  0  0
  8 22  1  0  0  0
  9 10  1  0  0  0
  9 27  2  0  0  0
 10 11  2  0  0  0
 10 15  1  0  0  0
 11 12  1  0  0  0
 11 96  1  0  0  0
 12 13  2  0  0  0
 12 97  1  0  0  0
 13 14  1  0  0  0
 13 31  1  0  0  0
 14 15  2  0  0  0
 14 98  1  0  0  0
 15 99  1  0  0  0
 16 17  2  0  0  0
 16 21  1  0  0  0
 16 31  1  0  0  0
 17 18  1  0  0  0
 17100  1  0  0  0
 18 19  2  0  0  0
 18101  1  0  0  0
 19 20  1  0  0  0
 19 24  1  0  0  0
 20 21  2  0  0  0
 20102  1  0  0  0
 21 23  1  0  0  0
 22 28  1  0  0  0
 22 32  2  0  0  0
 26 27  1  0  0  0
 28103  1  0  0  0
 28104  1  0  0  0
 29105  1  0  0  0
 29106  1  0  0  0
 33 34  1  0  0  0
 33 66  1  0  0  0
 33 70  2  0  0  0
 34 36  1  0  0  0
 34 59  1  0  0  0
 34107  1  0  0  0
 35 44  2  0  0  0
 35 45  1  0  0  0
 35 68  1  0  0  0
 36 56  1  0  0  0
 36108  1  0  0  0
 37 39  1  0  0  0
 37 47  1  0  0  0
 37 66  1  0  0  0
 37109  1  0  0  0
 38 43  2  0  0  0
 38 46  1  0  0  0
 38 47  1  0  0  0
 39 64  1  0  0  0
 39 67  2  0  0  0
 40 52  1  0  0  0
 40 53  2  0  0  0
 40 58  1  0  0  0
 41110  1  0  0  0
 41111  1  0  0  0
 41112  1  0  0  0
 41 48  1  0  0  0
 42 43  1  0  0  0
 42 66  1  0  0  0
 42113  1  0  0  0
 42114  1  0  0  0
 43 44  1  0  0  0
 44115  1  0  0  0
 45 46  2  0  0  0
 45116  1  0  0  0
 46117  1  0  0  0
 47118  1  0  0  0
 47119  1  0  0  0
 48 56  1  0  0  0
 48 65  1  0  0  0
 48120  1  0  0  0
 49 50  1  0  0  0
 49 53  1  0  0  0
 49 64  1  0  0  0
 49121  1  0  0  0
 50 51  1  0  0  0
 50122  1  0  0  0
 50123  1  0  0  0
 51 52  1  0  0  0
 51124  1  0  0  0
 51125  1  0  0  0
 52126  1  0  0  0
 52127  1  0  0  0
 53 54  1  0  0  0
 54 55  2  0  0  0
 54128  1  0  0  0
 55 57  1  0  0  0
 55129  1  0  0  0
 56 69  2  0  0  0
 57 58  2  0  0  0
 57130  1  0  0  0
 58131  1  0  0  0
 59 60  1  0  0  0
 59 61  1  0  0  0
 59 62  1  0  0  0
 60132  1  0  0  0
 60133  1  0  0  0
 60134  1  0  0  0
 61135  1  0  0  0
 61136  1  0  0  0
 61137  1  0  0  0
 62138  1  0  0  0
 62139  1  0  0  0
 62140  1  0  0  0
 63 65  1  0  0  0
 63141  1  0  0  0
 63142  1  0  0  0
 63143  1  0  0  0
 64144  1  0  0  0
 65145  1  0  0  0
 68 82  1  0  0  0
 71 74  2  0  0  0
 71 75  1  0  0  0
 71146  1  0  0  0
 72 74  1  0  0  0
 72 76  2  0  0  0
 72147  1  0  0  0
 73 75  2  0  0  0
 73 76  1  0  0  0
 73148  1  0  0  0
 74 83  1  0  0  0
 75 85  1  0  0  0
 76 86  1  0  0  0
 77 80  1  0  0  0
 77 81  1  0  0  0
 77 84  2  0  0  0
 78149  1  0  0  0
 78150  1  0  0  0
 78151  1  0  0  0
 78 82  1  0  0  0
 79 82  1  0  0  0
 79152  1  0  0  0
 79153  1  0  0  0
 79154  1  0  0  0
 80 82  1  0  0  0
 80155  1  0  0  0
 80156  1  0  0  0
 81 85  1  0  0  0
 81157  1  0  0  0
 81158  1  0  0  0
 83159  1  0  0  0
M  ISO  4   1 100  68 101  82 101  83 100
M  END
> <chiral flag>
0

> <version>
0

> <s_m_source_file>
/data/baiqing/PycharmProjects/Reinvent-master-3.2/result/LINK_invent/BTK/process_docking_weight1_custom_product_contain_oxygen_bond_distance_aromatic_linkinvent_7_9_3/rearranged_h_0138.sdf

> <i_m_source_file_index>
20

> <r_mmod_Potential_Energy-OPLS-2005>
64.6280364990234

> <r_mmod_Stretch_Energy-OPLS-2005>
70.5650329589844

> <r_mmod_Bend_Energy-OPLS-2005>
143.45002746582

> <r_mmod_Torsional_Energy-OPLS-2005>
208.466217041016

> <r_mmod_Improper_Torsional_Energy-OPLS-2005>
3.98006510734558

> <r_mmod_Van_der_Waal_Energy-OPLS-2005>
161.43212890625

> <r_mmod_Electrostatic_Energy-OPLS-2005>
-329.585205078125

> <r_mmod_Solvation_Energy-OPLS-2005>
-224.229537963867

> <b_mmod_Minimization_Converged-OPLS-2005>
0

> <r_mmod_RMS_Derivative-OPLS-2005>
4.30348968505859

$$$$
20
                    3D
 Structure written by MMmdl.
171179  0  0  1  0            999 V2000
  -30.6056  -14.6600   20.4959 C   0  0  0  0  0  0
  -30.4447  -12.4052   19.4514 C   0  0  0  0  0  0
  -29.5098  -12.5108   18.2249 C   0  0  0  0  0  0
  -28.0329  -12.3424   18.6378 C   0  0  0  0  0  0
  -27.6532  -13.2144   19.8633 C   0  0  2  0  0  0
  -28.6998  -13.0713   20.9917 C   0  0  0  0  0  0
  -25.2558  -13.8154   20.5683 C   0  0  0  0  0  0
  -24.1828  -13.0423   20.9196 C   0  0  0  0  0  0
  -24.6398  -11.6898   20.8745 C   0  0  0  0  0  0
  -23.9064  -10.4284   21.0409 C   0  0  0  0  0  0
  -24.3615   -9.4199   21.9188 C   0  0  0  0  0  0
  -23.6288   -8.2236   22.0755 C   0  0  0  0  0  0
  -22.4272   -8.0278   21.3543 C   0  0  0  0  0  0
  -21.9907   -9.0253   20.4646 C   0  0  0  0  0  0
  -22.7238  -10.2129   20.3056 C   0  0  0  0  0  0
  -21.6851   -6.0735   22.5279 C   0  0  0  0  0  0
  -21.4013   -6.5640   23.8215 C   0  0  0  0  0  0
  -21.3659   -5.6793   24.9175 C   0  0  0  0  0  0
  -21.6044   -4.3056   24.7224 C   0  0  0  0  0  0
  -21.8820   -3.8147   23.4344 C   0  0  0  0  0  0
  -21.9191   -4.6963   22.3401 C   0  0  0  0  0  0
  -22.7850  -13.5221   21.1857 C   0  0  0  0  0  0
  -22.1659   -4.2150   21.0979 F   0  0  0  0  0  0
  -21.5627   -3.4538   25.7735 F   0  0  0  0  0  0
  -30.0134  -13.4243   20.4285 N   0  0  0  0  0  0
  -26.2990  -12.9334   20.3319 N   0  0  0  0  0  0
  -25.9325  -11.6494   20.5763 N   0  0  0  0  0  0
  -22.0489  -12.8213   22.0410 N   0  0  0  0  0  0
  -25.4248  -15.1874   20.4082 N   0  0  0  0  0  0
  -31.7741  -14.8344   20.1364 O   0  0  0  0  0  0
  -21.6634   -6.8876   21.4241 O   0  0  0  0  0  0
  -22.3541  -14.5534   20.6715 O   0  0  0  0  0  0
  -24.6266  -31.8587   23.2012 C   0  0  0  0  0  0
  -25.9113  -32.4772   23.8339 C   0  0  1  0  0  0
  -27.2254  -27.3145   20.1245 C   0  0  0  0  0  0
  -25.5934  -33.8573   24.2270 N   0  0  0  0  0  0
  -23.4210  -30.4812   21.5436 C   0  0  2  0  0  0
  -24.8691  -28.9344   20.1123 C   0  0  0  0  0  0
  -22.7477  -29.4617   22.4934 C   0  0  0  0  0  0
  -18.0286  -28.1385   22.8488 C   0  0  0  0  0  0
  -24.1492  -36.7287   23.2635 C   0  0  0  0  0  0
  -25.9617  -30.7890   21.3724 C   0  0  0  0  0  0
  -26.0381  -29.4147   20.7175 C   0  0  0  0  0  0
  -27.2217  -28.6171   20.7121 C   0  0  0  0  0  0
  -26.0384  -26.8905   19.4879 C   0  0  0  0  0  0
  -24.8713  -27.6777   19.4875 C   0  0  0  0  0  0
  -23.6364  -29.8139   20.1599 C   0  0  0  0  0  0
  -25.4114  -36.3078   24.0329 C   0  0  1  0  0  0
  -20.5887  -28.3687   23.1285 C   0  0  2  0  0  0
  -20.6779  -26.9412   22.5412 C   0  0  0  0  0  0
  -19.5758  -26.6388   21.5212 C   0  0  0  0  0  0
  -18.1935  -26.7931   22.1621 C   0  0  0  0  0  0
  -19.1539  -28.8852   23.2881 C   0  0  0  0  0  0
  -18.9460  -30.1458   23.8896 C   0  0  0  0  0  0
  -17.6461  -30.6588   24.0562 C   0  0  0  0  0  0
  -25.9053  -34.9451   23.5098 C   0  0  0  0  0  0
  -16.5351  -29.9087   23.6334 C   0  0  0  0  0  0
  -16.7274  -28.6504   23.0352 C   0  0  0  0  0  0
  -26.4500  -31.6578   25.0706 C   0  0  0  0  0  0
  -25.3736  -31.3715   26.1433 C   0  0  0  0  0  0
  -27.0339  -30.3004   24.6152 C   0  0  0  0  0  0
  -27.6057  -32.4309   25.7484 C   0  0  0  0  0  0
  -27.5585  -37.1789   24.8455 C   0  0  0  0  0  0
  -21.4189  -29.3040   22.3676 N   0  0  0  0  0  0
  -26.4283  -37.3779   23.9421 N   0  0  0  0  0  0
  -24.6885  -31.0595   22.0963 N   0  0  0  0  0  0
  -23.4198  -28.8159   23.3015 O   0  0  0  0  0  0
  -28.3315  -26.4525   20.1494 O   0  0  0  0  0  0
  -26.5617  -34.8924   22.4661 O   0  0  0  0  0  0
  -23.5429  -32.1385   23.7341 O   0  0  0  0  0  0
  -28.7365  -17.7760   19.9085 C   0  0  0  0  0  0
  -30.8216  -18.0058   21.0694 C   0  0  0  0  0  0
  -28.6643  -19.1890   19.7113 C   0  0  0  0  0  0
  -30.7555  -19.4292   20.9004 C   0  0  0  0  0  0
  -29.8172  -17.1381   20.5694 C   0  0  0  0  0  0
  -29.6662  -20.0649   20.2240 C   0  0  0  0  0  0
  -29.0424  -23.9236   20.0878 C   0  0  0  0  0  0
  -27.7492  -19.5112   17.3723 C   0  0  0  0  0  0
  -33.9932  -19.1527   20.6136 C   0  0  0  0  0  0
  -32.7879  -20.7794   19.1314 C   0  0  0  0  0  0
  -33.9996  -21.5915   21.1614 C   0  0  0  0  0  0
  -27.5110  -19.7188   18.8728 C   0  0  0  0  0  0
  -31.8838  -20.2768   21.4834 C   0  0  0  0  0  0
  -28.0709  -25.0593   20.6060 C   0  0  0  0  0  0
  -28.8765  -22.4370   20.6247 C   0  0  0  0  0  0
  -33.1479  -20.4414   20.5920 C   0  0  0  0  0  0
  -29.7606  -15.6944   20.8086 N   0  0  0  0  0  0
  -29.9267  -24.1942   19.2666 O   0  0  0  0  0  0
  -29.7013  -21.4450   19.9184 O   0  0  0  0  0  0
  -31.4837  -12.5435   19.1473 H   0  0  0  0  0  0
  -30.3917  -11.4095   19.8945 H   0  0  0  0  0  0
  -29.7770  -11.7592   17.4808 H   0  0  0  0  0  0
  -29.6451  -13.4802   17.7421 H   0  0  0  0  0  0
  -27.8748  -11.2891   18.8724 H   0  0  0  0  0  0
  -27.3765  -12.5672   17.7962 H   0  0  0  0  0  0
  -27.6684  -14.2483   19.5186 H   0  0  0  0  0  0
  -28.7172  -12.0482   21.3706 H   0  0  0  0  0  0
  -28.4434  -13.6982   21.8472 H   0  0  0  0  0  0
  -25.2760   -9.5672   22.4762 H   0  0  0  0  0  0
  -23.9995   -7.4626   22.7473 H   0  0  0  0  0  0
  -21.0838   -8.8772   19.8951 H   0  0  0  0  0  0
  -22.3701  -10.9668   19.6163 H   0  0  0  0  0  0
  -21.2007   -7.6151   23.9718 H   0  0  0  0  0  0
  -21.1479   -6.0522   25.9078 H   0  0  0  0  0  0
  -22.0600   -2.7611   23.2844 H   0  0  0  0  0  0
  -22.4097  -11.9861   22.4780 H   0  0  0  0  0  0
  -21.1112  -13.1247   22.2625 H   0  0  0  0  0  0
  -24.6521  -15.8359   20.5116 H   0  0  0  0  0  0
  -26.2647  -15.6271   20.0574 H   0  0  0  0  0  0
  -26.7178  -32.5445   23.1084 H   0  0  0  0  0  0
  -25.0095  -33.9713   25.0426 H   0  0  0  0  0  0
  -22.7158  -31.3021   21.3992 H   0  0  0  0  0  0
  -23.3766  -35.9604   23.3269 H   0  0  0  0  0  0
  -24.3592  -36.8935   22.2055 H   0  0  0  0  0  0
  -23.7230  -37.6477   23.6669 H   0  0  0  0  0  0
  -26.0913  -31.5511   20.6025 H   0  0  0  0  0  0
  -26.8428  -30.8399   22.0002 H   0  0  0  0  0  0
  -28.1192  -28.9813   21.1922 H   0  0  0  0  0  0
  -25.9993  -25.9351   18.9846 H   0  0  0  0  0  0
  -23.9783  -27.3070   19.0030 H   0  0  0  0  0  0
  -23.7540  -30.5888   19.4017 H   0  0  0  0  0  0
  -22.7573  -29.2412   19.8586 H   0  0  0  0  0  0
  -25.1292  -36.1917   25.0820 H   0  0  0  0  0  0
  -20.9976  -28.3257   24.1406 H   0  0  0  0  0  0
  -20.5690  -26.2293   23.3608 H   0  0  0  0  0  0
  -21.6644  -26.7450   22.1196 H   0  0  0  0  0  0
  -19.6920  -25.6301   21.1237 H   0  0  0  0  0  0
  -19.6699  -27.3202   20.6747 H   0  0  0  0  0  0
  -17.4209  -26.6685   21.4019 H   0  0  0  0  0  0
  -18.0330  -26.0068   22.9012 H   0  0  0  0  0  0
  -19.7938  -30.7274   24.2265 H   0  0  0  0  0  0
  -17.5017  -31.6270   24.5162 H   0  0  0  0  0  0
  -15.5354  -30.2987   23.7664 H   0  0  0  0  0  0
  -15.8673  -28.0826   22.7064 H   0  0  0  0  0  0
  -24.5919  -30.7053   25.7765 H   0  0  0  0  0  0
  -24.8918  -32.2879   26.4847 H   0  0  0  0  0  0
  -25.8065  -30.8905   27.0213 H   0  0  0  0  0  0
  -26.2903  -29.6757   24.1189 H   0  0  0  0  0  0
  -27.4056  -29.7256   25.4646 H   0  0  0  0  0  0
  -27.8767  -30.4293   23.9358 H   0  0  0  0  0  0
  -27.2668  -33.3618   26.2042 H   0  0  0  0  0  0
  -28.3882  -32.6851   25.0322 H   0  0  0  0  0  0
  -28.0704  -31.8440   26.5416 H   0  0  0  0  0  0
  -28.2560  -38.0129   24.7558 H   0  0  0  0  0  0
  -28.1123  -36.2662   24.6201 H   0  0  0  0  0  0
  -27.2314  -37.1337   25.8858 H   0  0  0  0  0  0
  -20.9367  -29.8760   21.6885 H   0  0  0  0  0  0
  -26.0160  -38.2843   24.1455 H   0  0  0  0  0  0
  -27.9413  -17.1636   19.5076 H   0  0  0  0  0  0
  -31.6546  -17.5790   21.6104 H   0  0  0  0  0  0
  -26.9082  -19.8881   16.7894 H   0  0  0  0  0  0
  -27.8723  -18.4549   17.1309 H   0  0  0  0  0  0
  -28.6452  -20.0374   17.0419 H   0  0  0  0  0  0
  -34.9274  -19.2799   20.0657 H   0  0  0  0  0  0
  -33.4663  -18.3159   20.1544 H   0  0  0  0  0  0
  -34.2514  -18.8594   21.6321 H   0  0  0  0  0  0
  -33.6827  -20.9405   18.5291 H   0  0  0  0  0  0
  -32.1896  -21.6893   19.0707 H   0  0  0  0  0  0
  -32.2205  -19.9793   18.6547 H   0  0  0  0  0  0
  -34.9179  -21.7329   20.5897 H   0  0  0  0  0  0
  -34.2869  -21.4001   22.1963 H   0  0  0  0  0  0
  -33.4581  -22.5383   21.1427 H   0  0  0  0  0  0
  -27.3381  -20.7748   19.0622 H   0  0  0  0  0  0
  -26.5936  -19.2103   19.1733 H   0  0  0  0  0  0
  -32.1625  -19.8657   22.4551 H   0  0  0  0  0  0
  -31.4735  -21.2610   21.7122 H   0  0  0  0  0  0
  -28.1173  -25.0576   21.6951 H   0  0  0  0  0  0
  -27.0609  -24.7401   20.3564 H   0  0  0  0  0  0
  -27.8236  -22.1646   20.5780 H   0  0  0  0  0  0
  -29.1503  -22.4244   21.6797 H   0  0  0  0  0  0
  -28.8373  -15.3523   21.0250 H   0  0  0  0  0  0
  1 25  1  0  0  0
  1 30  2  0  0  0
  1 87  1  0  0  0
  2  3  1  0  0  0
  2 25  1  0  0  0
  2 90  1  0  0  0
  2 91  1  0  0  0
  3  4  1  0  0  0
  3 92  1  0  0  0
  3 93  1  0  0  0
  4  5  1  0  0  0
  4 94  1  0  0  0
  4 95  1  0  0  0
  5  6  1  0  0  0
  5 26  1  0  0  0
  5 96  1  0  0  0
  6 25  1  0  0  0
  6 97  1  0  0  0
  6 98  1  0  0  0
  7  8  2  0  0  0
  7 26  1  0  0  0
  7 29  1  0  0  0
  8  9  1  0  0  0
  8 22  1  0  0  0
  9 10  1  0  0  0
  9 27  2  0  0  0
 10 11  2  0  0  0
 10 15  1  0  0  0
 11 12  1  0  0  0
 11 99  1  0  0  0
 12 13  2  0  0  0
 12100  1  0  0  0
 13 14  1  0  0  0
 13 31  1  0  0  0
 14 15  2  0  0  0
 14101  1  0  0  0
 15102  1  0  0  0
 16 17  2  0  0  0
 16 21  1  0  0  0
 16 31  1  0  0  0
 17 18  1  0  0  0
 17103  1  0  0  0
 18 19  2  0  0  0
 18104  1  0  0  0
 19 20  1  0  0  0
 19 24  1  0  0  0
 20 21  2  0  0  0
 20105  1  0  0  0
 21 23  1  0  0  0
 22 28  1  0  0  0
 22 32  2  0  0  0
 26 27  1  0  0  0
 28106  1  0  0  0
 28107  1  0  0  0
 29108  1  0  0  0
 29109  1  0  0  0
 33 34  1  0  0  0
 33 66  1  0  0  0
 33 70  2  0  0  0
 34 36  1  0  0  0
 34 59  1  0  0  0
 34110  1  0  0  0
 35 44  2  0  0  0
 35 45  1  0  0  0
 35 68  1  0  0  0
 36 56  1  0  0  0
 36111  1  0  0  0
 37 39  1  0  0  0
 37 47  1  0  0  0
 37 66  1  0  0  0
 37112  1  0  0  0
 38 43  2  0  0  0
 38 46  1  0  0  0
 38 47  1  0  0  0
 39 64  1  0  0  0
 39 67  2  0  0  0
 40 52  1  0  0  0
 40 53  2  0  0  0
 40 58  1  0  0  0
 41113  1  0  0  0
 41114  1  0  0  0
 41115  1  0  0  0
 41 48  1  0  0  0
 42 43  1  0  0  0
 42 66  1  0  0  0
 42116  1  0  0  0
 42117  1  0  0  0
 43 44  1  0  0  0
 44118  1  0  0  0
 45 46  2  0  0  0
 45119  1  0  0  0
 46120  1  0  0  0
 47121  1  0  0  0
 47122  1  0  0  0
 48 56  1  0  0  0
 48 65  1  0  0  0
 48123  1  0  0  0
 49 50  1  0  0  0
 49 53  1  0  0  0
 49 64  1  0  0  0
 49124  1  0  0  0
 50 51  1  0  0  0
 50125  1  0  0  0
 50126  1  0  0  0
 51 52  1  0  0  0
 51127  1  0  0  0
 51128  1  0  0  0
 52129  1  0  0  0
 52130  1  0  0  0
 53 54  1  0  0  0
 54 55  2  0  0  0
 54131  1  0  0  0
 55 57  1  0  0  0
 55132  1  0  0  0
 56 69  2  0  0  0
 57 58  2  0  0  0
 57133  1  0  0  0
 58134  1  0  0  0
 59 60  1  0  0  0
 59 61  1  0  0  0
 59 62  1  0  0  0
 60135  1  0  0  0
 60136  1  0  0  0
 60137  1  0  0  0
 61138  1  0  0  0
 61139  1  0  0  0
 61140  1  0  0  0
 62141  1  0  0  0
 62142  1  0  0  0
 62143  1  0  0  0
 63 65  1  0  0  0
 63144  1  0  0  0
 63145  1  0  0  0
 63146  1  0  0  0
 64147  1  0  0  0
 65148  1  0  0  0
 68 84  1  0  0  0
 71 73  2  0  0  0
 71 75  1  0  0  0
 71149  1  0  0  0
 72 74  1  0  0  0
 72 75  2  0  0  0
 72150  1  0  0  0
 73 76  1  0  0  0
 73 82  1  0  0  0
 74 76  2  0  0  0
 74 83  1  0  0  0
 75 87  1  0  0  0
 76 89  1  0  0  0
 77 84  1  0  0  0
 77 85  1  0  0  0
 77 88  2  0  0  0
 78 82  1  0  0  0
 78151  1  0  0  0
 78152  1  0  0  0
 78153  1  0  0  0
 79154  1  0  0  0
 79155  1  0  0  0
 79156  1  0  0  0
 79 86  1  0  0  0
 80 86  1  0  0  0
 80157  1  0  0  0
 80158  1  0  0  0
 80159  1  0  0  0
 81 86  1  0  0  0
 81160  1  0  0  0
 81161  1  0  0  0
 81162  1  0  0  0
 82163  1  0  0  0
 82164  1  0  0  0
 83 86  1  0  0  0
 83165  1  0  0  0
 83166  1  0  0  0
 84167  1  0  0  0
 84168  1  0  0  0
 85 89  1  0  0  0
 85169  1  0  0  0
 85170  1  0  0  0
 87171  1  0  0  0
M  ISO  4   1 100  68 101  84 101  87 100
M  END
> <chiral flag>
0

> <version>
0

> <s_m_source_file>
/data/baiqing/PycharmProjects/Reinvent-master-3.2/result/LINK_invent/BTK/process_docking_weight1_custom_product_contain_oxygen_bond_distance_aromatic_linkinvent_7_9_3/rearranged_h_0138.sdf

> <i_m_source_file_index>
21

> <r_mmod_Potential_Energy-OPLS-2005>
120.132339477539

> <r_mmod_Stretch_Energy-OPLS-2005>
84.9911117553711

> <r_mmod_Bend_Energy-OPLS-2005>
143.352783203125

> <r_mmod_Torsional_Energy-OPLS-2005>
277.738250732422

> <r_mmod_Improper_Torsional_Energy-OPLS-2005>
6.48892498016357

> <r_mmod_Van_der_Waal_Energy-OPLS-2005>
130.076751708984

> <r_mmod_Electrostatic_Energy-OPLS-2005>
-345.230621337891

> <r_mmod_Solvation_Energy-OPLS-2005>
-230.869689941406

> <b_mmod_Minimization_Converged-OPLS-2005>
0

> <r_mmod_RMS_Derivative-OPLS-2005>
0.604586780071259

$$$$
21
                    3D
 Structure written by MMmdl.
158167  0  0  1  0            999 V2000
  -30.5792  -14.6089   20.5462 C   0  0  0  0  0  0
  -30.4568  -12.3873   19.4169 C   0  0  0  0  0  0
  -29.5033  -12.5182   18.2049 C   0  0  0  0  0  0
  -28.0237  -12.3638   18.6180 C   0  0  0  0  0  0
  -27.6614  -13.2000   19.8735 C   0  0  2  0  0  0
  -28.7092  -12.9703   20.9850 C   0  0  0  0  0  0
  -25.2597  -13.8132   20.5679 C   0  0  0  0  0  0
  -24.1844  -13.0423   20.9182 C   0  0  0  0  0  0
  -24.6387  -11.6885   20.8724 C   0  0  0  0  0  0
  -23.9051  -10.4279   21.0396 C   0  0  0  0  0  0
  -24.3601   -9.4203   21.9176 C   0  0  0  0  0  0
  -23.6289   -8.2234   22.0752 C   0  0  0  0  0  0
  -22.4269   -8.0265   21.3543 C   0  0  0  0  0  0
  -21.9896   -9.0234   20.4644 C   0  0  0  0  0  0
  -22.7221  -10.2125   20.3054 C   0  0  0  0  0  0
  -21.6848   -6.0736   22.5280 C   0  0  0  0  0  0
  -21.4008   -6.5635   23.8221 C   0  0  0  0  0  0
  -21.3665   -5.6790   24.9174 C   0  0  0  0  0  0
  -21.6042   -4.3054   24.7227 C   0  0  0  0  0  0
  -21.8822   -3.8149   23.4344 C   0  0  0  0  0  0
  -21.9191   -4.6964   22.3404 C   0  0  0  0  0  0
  -22.7868  -13.5228   21.1842 C   0  0  0  0  0  0
  -22.1660   -4.2148   21.0985 F   0  0  0  0  0  0
  -21.5632   -3.4540   25.7742 F   0  0  0  0  0  0
  -30.0264  -13.3580   20.4420 N   0  0  0  0  0  0
  -26.3026  -12.9286   20.3369 N   0  0  0  0  0  0
  -25.9310  -11.6452   20.5755 N   0  0  0  0  0  0
  -22.0495  -12.8232   22.0408 N   0  0  0  0  0  0
  -25.4314  -15.1859   20.4100 N   0  0  0  0  0  0
  -31.6965  -14.8722   20.0854 O   0  0  0  0  0  0
  -21.6637   -6.8866   21.4245 O   0  0  0  0  0  0
  -22.3543  -14.5531   20.6686 O   0  0  0  0  0  0
  -24.6209  -31.8605   23.2003 C   0  0  0  0  0  0
  -25.9056  -32.4789   23.8338 C   0  0  1  0  0  0
  -27.2381  -27.3471   20.1173 C   0  0  0  0  0  0
  -25.5874  -33.8582   24.2258 N   0  0  0  0  0  0
  -23.4154  -30.4806   21.5407 C   0  0  2  0  0  0
  -24.8645  -28.9231   20.1206 C   0  0  0  0  0  0
  -22.7461  -29.4613   22.4925 C   0  0  0  0  0  0
  -18.0302  -28.1395   22.8467 C   0  0  0  0  0  0
  -24.1484  -36.7302   23.2645 C   0  0  0  0  0  0
  -25.9518  -30.7995   21.3633 C   0  0  0  0  0  0
  -26.0287  -29.4220   20.7188 C   0  0  0  0  0  0
  -27.2183  -28.6451   20.7055 C   0  0  0  0  0  0
  -26.0553  -26.8779   19.5134 C   0  0  0  0  0  0
  -24.8758  -27.6534   19.5144 C   0  0  0  0  0  0
  -23.6339  -29.8061   20.1597 C   0  0  0  0  0  0
  -25.4102  -36.3086   24.0343 C   0  0  1  0  0  0
  -20.5896  -28.3665   23.1301 C   0  0  2  0  0  0
  -20.6782  -26.9386   22.5430 C   0  0  0  0  0  0
  -19.5760  -26.6378   21.5229 C   0  0  0  0  0  0
  -18.1935  -26.7936   22.1628 C   0  0  0  0  0  0
  -19.1553  -28.8843   23.2883 C   0  0  0  0  0  0
  -18.9487  -30.1445   23.8897 C   0  0  0  0  0  0
  -17.6489  -30.6581   24.0561 C   0  0  0  0  0  0
  -25.9044  -34.9461   23.5111 C   0  0  0  0  0  0
  -16.5370  -29.9095   23.6332 C   0  0  0  0  0  0
  -16.7295  -28.6528   23.0323 C   0  0  0  0  0  0
  -26.4452  -31.6598   25.0703 C   0  0  0  0  0  0
  -25.3673  -31.3765   26.1426 C   0  0  0  0  0  0
  -27.0270  -30.3032   24.6099 C   0  0  0  0  0  0
  -27.6011  -32.4317   25.7482 C   0  0  0  0  0  0
  -27.5567  -37.1805   24.8467 C   0  0  0  0  0  0
  -21.4175  -29.3028   22.3696 N   0  0  0  0  0  0
  -26.4278  -37.3779   23.9415 N   0  0  0  0  0  0
  -24.6816  -31.0644   22.0926 N   0  0  0  0  0  0
  -23.4209  -28.8145   23.2981 O   0  0  0  0  0  0
  -28.4079  -26.5899   20.0617 O   0  0  0  0  0  0
  -26.5637  -34.8930   22.4689 O   0  0  0  0  0  0
  -23.5380  -32.1383   23.7354 O   0  0  0  0  0  0
  -27.6409  -19.9866   21.8293 C   0  0  0  0  0  0
  -27.8568  -21.2686   21.2665 C   0  0  0  0  0  0
  -28.4936  -17.4814   21.8517 C   0  0  0  0  0  0
  -29.6970  -20.3641   19.9599 C   0  0  0  0  0  0
  -28.4371  -18.8677   21.4801 C   0  0  0  0  0  0
  -28.8989  -21.4960   20.3401 C   0  0  0  0  0  0
  -29.4578  -19.0675   20.5233 C   0  0  0  0  0  0
  -29.4855  -16.8655   21.1182 C   0  0  0  0  0  0
  -27.7197  -25.1738   21.9672 C   0  0  0  0  0  0
  -30.0471  -25.2722   21.0372 C   0  0  0  0  0  0
  -28.2477  -23.9854   19.7508 C   0  0  0  0  0  0
  -28.5490  -25.2531   20.6715 C   0  0  0  0  0  0
  -29.1751  -22.8072   19.8493 N   0  0  0  0  0  0
  -29.7538  -15.5092   21.1553 N   0  0  0  0  0  0
  -30.1011  -17.8244   20.3004 O   0  0  0  0  0  0
  -31.4880  -12.5597   19.0992 H   0  0  0  0  0  0
  -30.4342  -11.3730   19.8186 H   0  0  0  0  0  0
  -29.7526  -11.7716   17.4498 H   0  0  0  0  0  0
  -29.6507  -13.4891   17.7300 H   0  0  0  0  0  0
  -27.8384  -11.3074   18.8146 H   0  0  0  0  0  0
  -27.3733  -12.6343   17.7850 H   0  0  0  0  0  0
  -27.7005  -14.2493   19.5769 H   0  0  0  0  0  0
  -28.7249  -11.9187   21.2721 H   0  0  0  0  0  0
  -28.4450  -13.5054   21.8974 H   0  0  0  0  0  0
  -25.2740   -9.5691   22.4754 H   0  0  0  0  0  0
  -24.0002   -7.4624   22.7462 H   0  0  0  0  0  0
  -21.0833   -8.8741   19.8940 H   0  0  0  0  0  0
  -22.3659  -10.9661   19.6166 H   0  0  0  0  0  0
  -21.1996   -7.6138   23.9724 H   0  0  0  0  0  0
  -21.1487   -6.0515   25.9082 H   0  0  0  0  0  0
  -22.0599   -2.7608   23.2849 H   0  0  0  0  0  0
  -22.4081  -11.9906   22.4836 H   0  0  0  0  0  0
  -21.1111  -13.1277   22.2588 H   0  0  0  0  0  0
  -24.6604  -15.8379   20.5026 H   0  0  0  0  0  0
  -26.2897  -15.6313   20.1113 H   0  0  0  0  0  0
  -26.7109  -32.5470   23.1082 H   0  0  0  0  0  0
  -24.9940  -33.9733   25.0346 H   0  0  0  0  0  0
  -22.7082  -31.2987   21.3903 H   0  0  0  0  0  0
  -23.3743  -35.9640   23.3317 H   0  0  0  0  0  0
  -24.3584  -36.8921   22.2058 H   0  0  0  0  0  0
  -23.7251  -37.6512   23.6664 H   0  0  0  0  0  0
  -26.0701  -31.5540   20.5846 H   0  0  0  0  0  0
  -26.8383  -30.8629   21.9824 H   0  0  0  0  0  0
  -28.1194  -29.0314   21.1613 H   0  0  0  0  0  0
  -26.0505  -25.9123   19.0302 H   0  0  0  0  0  0
  -23.9815  -27.2654   19.0467 H   0  0  0  0  0  0
  -23.7622  -30.5783   19.4010 H   0  0  0  0  0  0
  -22.7551  -29.2384   19.8500 H   0  0  0  0  0  0
  -25.1283  -36.1940   25.0841 H   0  0  0  0  0  0
  -20.9996  -28.3224   24.1416 H   0  0  0  0  0  0
  -20.5708  -26.2246   23.3613 H   0  0  0  0  0  0
  -21.6644  -26.7417   22.1197 H   0  0  0  0  0  0
  -19.6923  -25.6305   21.1238 H   0  0  0  0  0  0
  -19.6722  -27.3186   20.6761 H   0  0  0  0  0  0
  -17.4209  -26.6680   21.4031 H   0  0  0  0  0  0
  -18.0323  -26.0096   22.9040 H   0  0  0  0  0  0
  -19.7963  -30.7256   24.2256 H   0  0  0  0  0  0
  -17.5056  -31.6272   24.5147 H   0  0  0  0  0  0
  -15.5377  -30.3008   23.7654 H   0  0  0  0  0  0
  -15.8693  -28.0876   22.6995 H   0  0  0  0  0  0
  -24.5854  -30.7112   25.7766 H   0  0  0  0  0  0
  -24.8852  -32.2946   26.4779 H   0  0  0  0  0  0
  -25.7971  -30.8998   27.0236 H   0  0  0  0  0  0
  -26.2824  -29.6827   24.1102 H   0  0  0  0  0  0
  -27.3986  -29.7244   25.4560 H   0  0  0  0  0  0
  -27.8680  -30.4362   23.9294 H   0  0  0  0  0  0
  -27.2621  -33.3629   26.2021 H   0  0  0  0  0  0
  -28.3832  -32.6841   25.0319 H   0  0  0  0  0  0
  -28.0636  -31.8452   26.5427 H   0  0  0  0  0  0
  -28.2571  -38.0107   24.7482 H   0  0  0  0  0  0
  -28.1073  -36.2634   24.6311 H   0  0  0  0  0  0
  -27.2300  -37.1472   25.8877 H   0  0  0  0  0  0
  -20.9342  -29.8781   21.6942 H   0  0  0  0  0  0
  -26.0171  -38.2858   24.1427 H   0  0  0  0  0  0
  -26.8507  -19.8560   22.5544 H   0  0  0  0  0  0
  -27.2243  -22.0854   21.5872 H   0  0  0  0  0  0
  -27.8339  -17.0155   22.5718 H   0  0  0  0  0  0
  -30.4981  -20.4678   19.2419 H   0  0  0  0  0  0
  -27.9661  -24.2779   22.5362 H   0  0  0  0  0  0
  -26.6508  -25.1373   21.7513 H   0  0  0  0  0  0
  -27.8991  -26.0356   22.6109 H   0  0  0  0  0  0
  -30.3356  -24.3921   21.6144 H   0  0  0  0  0  0
  -30.3019  -26.1455   21.6381 H   0  0  0  0  0  0
  -30.6677  -25.2990   20.1402 H   0  0  0  0  0  0
  -28.3311  -24.3224   18.7168 H   0  0  0  0  0  0
  -27.2081  -23.6742   19.8532 H   0  0  0  0  0  0
  -30.0626  -22.9426   19.3734 H   0  0  0  0  0  0
  -29.0159  -14.9978   21.6127 H   0  0  0  0  0  0
  1 25  1  0  0  0
  1 30  2  0  0  0
  1 84  1  0  0  0
  2  3  1  0  0  0
  2 25  1  0  0  0
  2 86  1  0  0  0
  2 87  1  0  0  0
  3  4  1  0  0  0
  3 88  1  0  0  0
  3 89  1  0  0  0
  4  5  1  0  0  0
  4 90  1  0  0  0
  4 91  1  0  0  0
  5  6  1  0  0  0
  5 26  1  0  0  0
  5 92  1  0  0  0
  6 25  1  0  0  0
  6 93  1  0  0  0
  6 94  1  0  0  0
  7  8  2  0  0  0
  7 26  1  0  0  0
  7 29  1  0  0  0
  8  9  1  0  0  0
  8 22  1  0  0  0
  9 10  1  0  0  0
  9 27  2  0  0  0
 10 11  2  0  0  0
 10 15  1  0  0  0
 11 12  1  0  0  0
 11 95  1  0  0  0
 12 13  2  0  0  0
 12 96  1  0  0  0
 13 14  1  0  0  0
 13 31  1  0  0  0
 14 15  2  0  0  0
 14 97  1  0  0  0
 15 98  1  0  0  0
 16 17  2  0  0  0
 16 21  1  0  0  0
 16 31  1  0  0  0
 17 18  1  0  0  0
 17 99  1  0  0  0
 18 19  2  0  0  0
 18100  1  0  0  0
 19 20  1  0  0  0
 19 24  1  0  0  0
 20 21  2  0  0  0
 20101  1  0  0  0
 21 23  1  0  0  0
 22 28  1  0  0  0
 22 32  2  0  0  0
 26 27  1  0  0  0
 28102  1  0  0  0
 28103  1  0  0  0
 29104  1  0  0  0
 29105  1  0  0  0
 33 34  1  0  0  0
 33 66  1  0  0  0
 33 70  2  0  0  0
 34 36  1  0  0  0
 34 59  1  0  0  0
 34106  1  0  0  0
 35 44  2  0  0  0
 35 45  1  0  0  0
 35 68  1  0  0  0
 36 56  1  0  0  0
 36107  1  0  0  0
 37 39  1  0  0  0
 37 47  1  0  0  0
 37 66  1  0  0  0
 37108  1  0  0  0
 38 43  2  0  0  0
 38 46  1  0  0  0
 38 47  1  0  0  0
 39 64  1  0  0  0
 39 67  2  0  0  0
 40 52  1  0  0  0
 40 53  2  0  0  0
 40 58  1  0  0  0
 41109  1  0  0  0
 41110  1  0  0  0
 41111  1  0  0  0
 41 48  1  0  0  0
 42 43  1  0  0  0
 42 66  1  0  0  0
 42112  1  0  0  0
 42113  1  0  0  0
 43 44  1  0  0  0
 44114  1  0  0  0
 45 46  2  0  0  0
 45115  1  0  0  0
 46116  1  0  0  0
 47117  1  0  0  0
 47118  1  0  0  0
 48 56  1  0  0  0
 48 65  1  0  0  0
 48119  1  0  0  0
 49 50  1  0  0  0
 49 53  1  0  0  0
 49 64  1  0  0  0
 49120  1  0  0  0
 50 51  1  0  0  0
 50121  1  0  0  0
 50122  1  0  0  0
 51 52  1  0  0  0
 51123  1  0  0  0
 51124  1  0  0  0
 52125  1  0  0  0
 52126  1  0  0  0
 53 54  1  0  0  0
 54 55  2  0  0  0
 54127  1  0  0  0
 55 57  1  0  0  0
 55128  1  0  0  0
 56 69  2  0  0  0
 57 58  2  0  0  0
 57129  1  0  0  0
 58130  1  0  0  0
 59 60  1  0  0  0
 59 61  1  0  0  0
 59 62  1  0  0  0
 60131  1  0  0  0
 60132  1  0  0  0
 60133  1  0  0  0
 61134  1  0  0  0
 61135  1  0  0  0
 61136  1  0  0  0
 62137  1  0  0  0
 62138  1  0  0  0
 62139  1  0  0  0
 63 65  1  0  0  0
 63140  1  0  0  0
 63141  1  0  0  0
 63142  1  0  0  0
 64143  1  0  0  0
 65144  1  0  0  0
 68 82  1  0  0  0
 71 72  2  0  0  0
 71 75  1  0  0  0
 71145  1  0  0  0
 72 76  1  0  0  0
 72146  1  0  0  0
 73 75  1  0  0  0
 73 78  2  0  0  0
 73147  1  0  0  0
 74 76  2  0  0  0
 74 77  1  0  0  0
 74148  1  0  0  0
 75 77  2  0  0  0
 76 83  1  0  0  0
 77 85  1  0  0  0
 78 84  1  0  0  0
 78 85  1  0  0  0
 79149  1  0  0  0
 79150  1  0  0  0
 79151  1  0  0  0
 79 82  1  0  0  0
 80 82  1  0  0  0
 80152  1  0  0  0
 80153  1  0  0  0
 80154  1  0  0  0
 81 82  1  0  0  0
 81 83  1  0  0  0
 81155  1  0  0  0
 81156  1  0  0  0
 83157  1  0  0  0
 84158  1  0  0  0
M  ISO  4   1 100  68 101  82 101  84 100
M  END
> <chiral flag>
0

> <version>
0

> <s_m_source_file>
/data/baiqing/PycharmProjects/Reinvent-master-3.2/result/LINK_invent/BTK/process_docking_weight1_custom_product_contain_oxygen_bond_distance_aromatic_linkinvent_7_9_3/rearranged_h_0138.sdf

> <i_m_source_file_index>
22

> <r_mmod_Potential_Energy-OPLS-2005>
-11.9934740066528

> <r_mmod_Stretch_Energy-OPLS-2005>
69.8329772949219

> <r_mmod_Bend_Energy-OPLS-2005>
186.401596069336

> <r_mmod_Torsional_Energy-OPLS-2005>
236.34748840332

> <r_mmod_Improper_Torsional_Energy-OPLS-2005>
3.64146995544434

> <r_mmod_Van_der_Waal_Energy-OPLS-2005>
134.185470581055

> <r_mmod_Electrostatic_Energy-OPLS-2005>
-449.964141845703

> <r_mmod_Solvation_Energy-OPLS-2005>
-228.626846313477

> <b_mmod_Minimization_Converged-OPLS-2005>
0

> <r_mmod_RMS_Derivative-OPLS-2005>
2.82763767242432

$$$$
22
                    3D
 Structure written by MMmdl.
159168  0  0  1  0            999 V2000
  -30.7159  -14.5186   20.5667 C   0  0  0  0  0  0
  -30.4220  -12.3381   19.4329 C   0  0  0  0  0  0
  -29.4954  -12.5039   18.2114 C   0  0  0  0  0  0
  -28.0192  -12.3557   18.6271 C   0  0  0  0  0  0
  -27.6570  -13.2149   19.8681 C   0  0  2  0  0  0
  -28.7023  -13.0441   20.9943 C   0  0  0  0  0  0
  -25.2571  -13.8175   20.5688 C   0  0  0  0  0  0
  -24.1834  -13.0443   20.9192 C   0  0  0  0  0  0
  -24.6398  -11.6914   20.8742 C   0  0  0  0  0  0
  -23.9066  -10.4296   21.0405 C   0  0  0  0  0  0
  -24.3618   -9.4210   21.9182 C   0  0  0  0  0  0
  -23.6295   -8.2244   22.0752 C   0  0  0  0  0  0
  -22.4276   -8.0281   21.3544 C   0  0  0  0  0  0
  -21.9911   -9.0256   20.4647 C   0  0  0  0  0  0
  -22.7239  -10.2136   20.3055 C   0  0  0  0  0  0
  -21.6854   -6.0736   22.5280 C   0  0  0  0  0  0
  -21.4013   -6.5640   23.8213 C   0  0  0  0  0  0
  -21.3659   -5.6792   24.9175 C   0  0  0  0  0  0
  -21.6044   -4.3055   24.7226 C   0  0  0  0  0  0
  -21.8820   -3.8147   23.4346 C   0  0  0  0  0  0
  -21.9194   -4.6964   22.3403 C   0  0  0  0  0  0
  -22.7856  -13.5235   21.1855 C   0  0  0  0  0  0
  -22.1663   -4.2150   21.0981 F   0  0  0  0  0  0
  -21.5629   -3.4537   25.7737 F   0  0  0  0  0  0
  -30.0272  -13.3482   20.4308 N   0  0  0  0  0  0
  -26.3008  -12.9359   20.3349 N   0  0  0  0  0  0
  -25.9329  -11.6514   20.5772 N   0  0  0  0  0  0
  -22.0495  -12.8224   22.0405 N   0  0  0  0  0  0
  -25.4285  -15.1894   20.4086 N   0  0  0  0  0  0
  -31.8575  -14.6563   20.1195 O   0  0  0  0  0  0
  -21.6641   -6.8879   21.4241 O   0  0  0  0  0  0
  -22.3545  -14.5545   20.6707 O   0  0  0  0  0  0
  -24.6224  -31.8672   23.2142 C   0  0  0  0  0  0
  -25.9103  -32.4814   23.8428 C   0  0  1  0  0  0
  -27.2094  -27.3647   20.0821 C   0  0  0  0  0  0
  -25.5946  -33.8615   24.2346 N   0  0  0  0  0  0
  -23.4109  -30.5003   21.5572 C   0  0  2  0  0  0
  -24.8510  -28.9786   20.1115 C   0  0  0  0  0  0
  -22.7450  -29.4669   22.4966 C   0  0  0  0  0  0
  -18.0284  -28.1380   22.8488 C   0  0  0  0  0  0
  -24.1492  -36.7307   23.2635 C   0  0  0  0  0  0
  -25.9538  -30.8056   21.3880 C   0  0  0  0  0  0
  -26.0211  -29.4403   20.7264 C   0  0  0  0  0  0
  -27.1980  -28.6378   20.7225 C   0  0  0  0  0  0
  -26.0159  -26.9809   19.4115 C   0  0  0  0  0  0
  -24.8473  -27.7484   19.4524 C   0  0  0  0  0  0
  -23.6211  -29.8539   20.1668 C   0  0  0  0  0  0
  -25.4110  -36.3104   24.0337 C   0  0  1  0  0  0
  -20.5882  -28.3682   23.1288 C   0  0  2  0  0  0
  -20.6776  -26.9412   22.5402 C   0  0  0  0  0  0
  -19.5751  -26.6386   21.5206 C   0  0  0  0  0  0
  -18.1931  -26.7925   22.1622 C   0  0  0  0  0  0
  -19.1535  -28.8846   23.2887 C   0  0  0  0  0  0
  -18.9457  -30.1449   23.8901 C   0  0  0  0  0  0
  -17.6459  -30.6585   24.0563 C   0  0  0  0  0  0
  -25.9046  -34.9469   23.5131 C   0  0  0  0  0  0
  -16.5350  -29.9084   23.6327 C   0  0  0  0  0  0
  -16.7272  -28.6501   23.0349 C   0  0  0  0  0  0
  -26.4500  -31.6595   25.0769 C   0  0  0  0  0  0
  -25.3745  -31.3725   26.1503 C   0  0  0  0  0  0
  -27.0327  -30.3016   24.6201 C   0  0  0  0  0  0
  -27.6074  -32.4315   25.7528 C   0  0  0  0  0  0
  -27.5580  -37.1812   24.8466 C   0  0  0  0  0  0
  -21.4172  -29.3051   22.3695 N   0  0  0  0  0  0
  -26.4294  -37.3789   23.9407 N   0  0  0  0  0  0
  -24.6809  -31.0724   22.1091 N   0  0  0  0  0  0
  -23.4200  -28.8176   23.2998 O   0  0  0  0  0  0
  -28.3283  -26.5170   20.1361 O   0  0  0  0  0  0
  -26.5593  -34.8916   22.4682 O   0  0  0  0  0  0
  -23.5399  -32.1464   23.7489 O   0  0  0  0  0  0
  -32.2481  -18.4376   22.1315 C   0  0  0  0  0  0
  -31.3840  -19.5429   21.9975 C   0  0  0  0  0  0
  -31.8174  -17.1394   21.7955 C   0  0  0  0  0  0
  -29.6524  -18.0475   21.1565 C   0  0  0  0  0  0
  -30.0771  -19.3734   21.4907 C   0  0  0  0  0  0
  -30.5069  -16.9162   21.3097 C   0  0  0  0  0  0
  -28.4151  -22.8421   20.7171 C   0  0  0  0  0  0
  -29.1214  -20.5187   21.4143 C   0  0  0  0  0  0
  -30.4816  -23.8108   20.0439 C   0  0  0  0  0  0
  -30.6797  -22.3063   20.3975 C   0  0  0  0  0  0
  -28.9898  -23.8944   19.7622 C   0  0  2  0  0  0
  -28.1892  -25.2178   19.4753 C   0  0  0  0  0  0
  -29.3877  -21.7839   20.9233 N   0  0  0  0  0  0
  -30.0220  -15.5804   21.0489 N   0  0  0  0  0  0
  -27.8952  -20.2407   21.8686 N   0  3  0  0  0  0
  -27.2592  -22.8281   21.1564 O   0  0  0  0  0  0
  -31.4659  -12.4321   19.1289 H   0  0  0  0  0  0
  -30.3264  -11.3365   19.8552 H   0  0  0  0  0  0
  -29.7438  -11.7669   17.4464 H   0  0  0  0  0  0
  -29.6539  -13.4829   17.7562 H   0  0  0  0  0  0
  -27.8427  -11.3014   18.8436 H   0  0  0  0  0  0
  -27.3648  -12.6060   17.7913 H   0  0  0  0  0  0
  -27.6862  -14.2554   19.5440 H   0  0  0  0  0  0
  -28.6898  -12.0217   21.3751 H   0  0  0  0  0  0
  -28.4616  -13.6796   21.8478 H   0  0  0  0  0  0
  -25.2765   -9.5686   22.4753 H   0  0  0  0  0  0
  -24.0008   -7.4634   22.7468 H   0  0  0  0  0  0
  -21.0842   -8.8774   19.8952 H   0  0  0  0  0  0
  -22.3698  -10.9673   19.6162 H   0  0  0  0  0  0
  -21.2002   -7.6147   23.9717 H   0  0  0  0  0  0
  -21.1481   -6.0521   25.9079 H   0  0  0  0  0  0
  -22.0598   -2.7610   23.2846 H   0  0  0  0  0  0
  -22.4106  -11.9881   22.4791 H   0  0  0  0  0  0
  -21.1112  -13.1250   22.2611 H   0  0  0  0  0  0
  -24.6579  -15.8416   20.5068 H   0  0  0  0  0  0
  -26.2717  -15.6248   20.0572 H   0  0  0  0  0  0
  -26.7164  -32.5494   23.1175 H   0  0  0  0  0  0
  -25.0123  -33.9779   25.0508 H   0  0  0  0  0  0
  -22.7026  -31.3211   21.4264 H   0  0  0  0  0  0
  -23.3748  -35.9647   23.3311 H   0  0  0  0  0  0
  -24.3588  -36.8902   22.2046 H   0  0  0  0  0  0
  -23.7249  -37.6521   23.6634 H   0  0  0  0  0  0
  -26.0879  -31.5725   20.6239 H   0  0  0  0  0  0
  -26.8348  -30.8455   22.0167 H   0  0  0  0  0  0
  -28.0891  -28.9825   21.2282 H   0  0  0  0  0  0
  -25.9142  -26.0853   18.8212 H   0  0  0  0  0  0
  -23.9573  -27.3988   18.9470 H   0  0  0  0  0  0
  -23.7399  -30.6394   19.4195 H   0  0  0  0  0  0
  -22.7403  -29.2872   19.8592 H   0  0  0  0  0  0
  -25.1283  -36.1974   25.0831 H   0  0  0  0  0  0
  -20.9977  -28.3248   24.1408 H   0  0  0  0  0  0
  -20.5683  -26.2291   23.3596 H   0  0  0  0  0  0
  -21.6644  -26.7450   22.1190 H   0  0  0  0  0  0
  -19.6914  -25.6299   21.1231 H   0  0  0  0  0  0
  -19.6686  -27.3199   20.6737 H   0  0  0  0  0  0
  -17.4200  -26.6670   21.4026 H   0  0  0  0  0  0
  -18.0337  -26.0063   22.9016 H   0  0  0  0  0  0
  -19.7935  -30.7261   24.2271 H   0  0  0  0  0  0
  -17.5015  -31.6264   24.5165 H   0  0  0  0  0  0
  -15.5349  -30.2985   23.7650 H   0  0  0  0  0  0
  -15.8674  -28.0820   22.7060 H   0  0  0  0  0  0
  -24.5927  -30.7058   25.7845 H   0  0  0  0  0  0
  -24.8927  -32.2886   26.4927 H   0  0  0  0  0  0
  -25.8084  -30.8915   27.0278 H   0  0  0  0  0  0
  -26.2892  -29.6782   24.1219 H   0  0  0  0  0  0
  -27.4016  -29.7252   25.4696 H   0  0  0  0  0  0
  -27.8775  -30.4296   23.9429 H   0  0  0  0  0  0
  -27.2700  -33.3614   26.2116 H   0  0  0  0  0  0
  -28.3879  -32.6871   25.0349 H   0  0  0  0  0  0
  -28.0749  -31.8430   26.5433 H   0  0  0  0  0  0
  -28.2605  -38.0102   24.7499 H   0  0  0  0  0  0
  -28.1067  -36.2632   24.6305 H   0  0  0  0  0  0
  -27.2300  -37.1480   25.8870 H   0  0  0  0  0  0
  -20.9335  -29.8804   21.6943 H   0  0  0  0  0  0
  -26.0183  -38.2870   24.1395 H   0  0  0  0  0  0
  -33.2442  -18.5797   22.5267 H   0  0  0  0  0  0
  -31.7320  -20.5074   22.3341 H   0  0  0  0  0  0
  -32.5010  -16.3172   21.9495 H   0  0  0  0  0  0
  -28.6466  -17.8938   20.7904 H   0  0  0  0  0  0
  -31.0703  -24.0958   19.1715 H   0  0  0  0  0  0
  -30.7686  -24.4586   20.8730 H   0  0  0  0  0  0
  -31.4939  -22.2162   21.1134 H   0  0  0  0  0  0
  -30.9590  -21.7380   19.5084 H   0  0  0  0  0  0
  -28.8731  -23.3677   18.8129 H   0  0  0  0  0  0
  -27.1868  -24.8470   19.6618 H   0  0  0  0  0  0
  -28.2462  -25.4173   18.4038 H   0  0  0  0  0  0
  -29.0423  -15.4135   21.2175 H   0  0  0  0  0  0
  -27.7008  -19.3600   22.3172 H   0  0  0  0  0  0
  -27.1934  -20.9712   21.8551 H   0  0  0  0  0  0
  1 25  1  0  0  0
  1 30  2  0  0  0
  1 84  1  0  0  0
  2  3  1  0  0  0
  2 25  1  0  0  0
  2 87  1  0  0  0
  2 88  1  0  0  0
  3  4  1  0  0  0
  3 89  1  0  0  0
  3 90  1  0  0  0
  4  5  1  0  0  0
  4 91  1  0  0  0
  4 92  1  0  0  0
  5  6  1  0  0  0
  5 26  1  0  0  0
  5 93  1  0  0  0
  6 25  1  0  0  0
  6 94  1  0  0  0
  6 95  1  0  0  0
  7  8  2  0  0  0
  7 26  1  0  0  0
  7 29  1  0  0  0
  8  9  1  0  0  0
  8 22  1  0  0  0
  9 10  1  0  0  0
  9 27  2  0  0  0
 10 11  2  0  0  0
 10 15  1  0  0  0
 11 12  1  0  0  0
 11 96  1  0  0  0
 12 13  2  0  0  0
 12 97  1  0  0  0
 13 14  1  0  0  0
 13 31  1  0  0  0
 14 15  2  0  0  0
 14 98  1  0  0  0
 15 99  1  0  0  0
 16 17  2  0  0  0
 16 21  1  0  0  0
 16 31  1  0  0  0
 17 18  1  0  0  0
 17100  1  0  0  0
 18 19  2  0  0  0
 18101  1  0  0  0
 19 20  1  0  0  0
 19 24  1  0  0  0
 20 21  2  0  0  0
 20102  1  0  0  0
 21 23  1  0  0  0
 22 28  1  0  0  0
 22 32  2  0  0  0
 26 27  1  0  0  0
 28103  1  0  0  0
 28104  1  0  0  0
 29105  1  0  0  0
 29106  1  0  0  0
 33 34  1  0  0  0
 33 66  1  0  0  0
 33 70  2  0  0  0
 34 36  1  0  0  0
 34 59  1  0  0  0
 34107  1  0  0  0
 35 44  2  0  0  0
 35 45  1  0  0  0
 35 68  1  0  0  0
 36 56  1  0  0  0
 36108  1  0  0  0
 37 39  1  0  0  0
 37 47  1  0  0  0
 37 66  1  0  0  0
 37109  1  0  0  0
 38 43  2  0  0  0
 38 46  1  0  0  0
 38 47  1  0  0  0
 39 64  1  0  0  0
 39 67  2  0  0  0
 40 52  1  0  0  0
 40 53  2  0  0  0
 40 58  1  0  0  0
 41110  1  0  0  0
 41111  1  0  0  0
 41112  1  0  0  0
 41 48  1  0  0  0
 42 43  1  0  0  0
 42 66  1  0  0  0
 42113  1  0  0  0
 42114  1  0  0  0
 43 44  1  0  0  0
 44115  1  0  0  0
 45 46  2  0  0  0
 45116  1  0  0  0
 46117  1  0  0  0
 47118  1  0  0  0
 47119  1  0  0  0
 48 56  1  0  0  0
 48 65  1  0  0  0
 48120  1  0  0  0
 49 50  1  0  0  0
 49 53  1  0  0  0
 49 64  1  0  0  0
 49121  1  0  0  0
 50 51  1  0  0  0
 50122  1  0  0  0
 50123  1  0  0  0
 51 52  1  0  0  0
 51124  1  0  0  0
 51125  1  0  0  0
 52126  1  0  0  0
 52127  1  0  0  0
 53 54  1  0  0  0
 54 55  2  0  0  0
 54128  1  0  0  0
 55 57  1  0  0  0
 55129  1  0  0  0
 56 69  2  0  0  0
 57 58  2  0  0  0
 57130  1  0  0  0
 58131  1  0  0  0
 59 60  1  0  0  0
 59 61  1  0  0  0
 59 62  1  0  0  0
 60132  1  0  0  0
 60133  1  0  0  0
 60134  1  0  0  0
 61135  1  0  0  0
 61136  1  0  0  0
 61137  1  0  0  0
 62138  1  0  0  0
 62139  1  0  0  0
 62140  1  0  0  0
 63 65  1  0  0  0
 63141  1  0  0  0
 63142  1  0  0  0
 63143  1  0  0  0
 64144  1  0  0  0
 65145  1  0  0  0
 68 82  1  0  0  0
 71 72  2  0  0  0
 71 73  1  0  0  0
 71146  1  0  0  0
 72 75  1  0  0  0
 72147  1  0  0  0
 73 76  2  0  0  0
 73148  1  0  0  0
 74 75  2  0  0  0
 74 76  1  0  0  0
 74149  1  0  0  0
 75 78  1  0  0  0
 76 84  1  0  0  0
 77 81  1  0  0  0
 77 83  1  0  0  0
 77 86  2  0  0  0
 78 83  1  0  0  0
 78 85  2  0  0  0
 79 80  1  0  0  0
 79 81  1  0  0  0
 79150  1  0  0  0
 79151  1  0  0  0
 80 83  1  0  0  0
 80152  1  0  0  0
 80153  1  0  0  0
 81 82  1  0  0  0
 81154  1  0  0  0
 82155  1  0  0  0
 82156  1  0  0  0
 84157  1  0  0  0
 85158  1  0  0  0
 85159  1  0  0  0
M  CHG  1  85   1
M  ISO  4   1 100  68 101  82 101  84 100
M  END
> <chiral flag>
0

> <version>
0

> <s_m_source_file>
/data/baiqing/PycharmProjects/Reinvent-master-3.2/result/LINK_invent/BTK/process_docking_weight1_custom_product_contain_oxygen_bond_distance_aromatic_linkinvent_7_9_3/rearranged_h_0138.sdf

> <i_m_source_file_index>
23

> <r_mmod_Potential_Energy-OPLS-2005>
-101.739303588867

> <r_mmod_Stretch_Energy-OPLS-2005>
58.9005279541016

> <r_mmod_Bend_Energy-OPLS-2005>
200.220321655273

> <r_mmod_Torsional_Energy-OPLS-2005>
239.922653198242

> <r_mmod_Improper_Torsional_Energy-OPLS-2005>
5.45254993438721

> <r_mmod_Van_der_Waal_Energy-OPLS-2005>
183.956130981445

> <r_mmod_Electrostatic_Energy-OPLS-2005>
-402.845062255859

> <r_mmod_Solvation_Energy-OPLS-2005>
-416.982452392578

> <b_mmod_Minimization_Converged-OPLS-2005>
0

> <r_mmod_RMS_Derivative-OPLS-2005>
0.31896984577179

$$$$
23
                    3D
 Structure written by MMmdl.
159167  0  0  1  0            999 V2000
  -30.6914  -14.6420   20.6069 C   0  0  0  0  0  0
  -30.4102  -12.4254   19.4673 C   0  0  0  0  0  0
  -29.4934  -12.5227   18.2321 C   0  0  0  0  0  0
  -28.0234  -12.3453   18.6463 C   0  0  0  0  0  0
  -27.6435  -13.2297   19.8636 C   0  0  2  0  0  0
  -28.6811  -13.1174   21.0036 C   0  0  0  0  0  0
  -25.2527  -13.8169   20.5689 C   0  0  0  0  0  0
  -24.1783  -13.0408   20.9152 C   0  0  0  0  0  0
  -24.6396  -11.6892   20.8771 C   0  0  0  0  0  0
  -23.9087  -10.4286   21.0449 C   0  0  0  0  0  0
  -24.3645   -9.4187   21.9206 C   0  0  0  0  0  0
  -23.6311   -8.2223   22.0748 C   0  0  0  0  0  0
  -22.4303   -8.0293   21.3517 C   0  0  0  0  0  0
  -21.9948   -9.0278   20.4630 C   0  0  0  0  0  0
  -22.7292  -10.2154   20.3064 C   0  0  0  0  0  0
  -21.6863   -6.0766   22.5288 C   0  0  0  0  0  0
  -21.4010   -6.5656   23.8223 C   0  0  0  0  0  0
  -21.3633   -5.6807   24.9170 C   0  0  0  0  0  0
  -21.6031   -4.3064   24.7230 C   0  0  0  0  0  0
  -21.8809   -3.8159   23.4347 C   0  0  0  0  0  0
  -21.9184   -4.6975   22.3409 C   0  0  0  0  0  0
  -22.7824  -13.5231   21.1815 C   0  0  0  0  0  0
  -22.1658   -4.2143   21.0983 F   0  0  0  0  0  0
  -21.5624   -3.4567   25.7744 F   0  0  0  0  0  0
  -29.9960  -13.4641   20.4442 N   0  0  0  0  0  0
  -26.2922  -12.9367   20.3316 N   0  0  0  0  0  0
  -25.9323  -11.6495   20.5782 N   0  0  0  0  0  0
  -22.0485  -12.8231   22.0399 N   0  0  0  0  0  0
  -25.4340  -15.1895   20.4195 N   0  0  0  0  0  0
  -31.7392  -14.7977   19.9642 O   0  0  0  0  0  0
  -21.6640   -6.8910   21.4251 O   0  0  0  0  0  0
  -22.3502  -14.5547   20.6692 O   0  0  0  0  0  0
  -24.6241  -31.8566   23.1971 C   0  0  0  0  0  0
  -25.9076  -32.4766   23.8304 C   0  0  1  0  0  0
  -27.2242  -27.2984   20.1159 C   0  0  0  0  0  0
  -25.5869  -33.8563   24.2232 N   0  0  0  0  0  0
  -23.4146  -30.4778   21.5436 C   0  0  2  0  0  0
  -24.8597  -28.9200   20.1069 C   0  0  0  0  0  0
  -22.7414  -29.4614   22.4952 C   0  0  0  0  0  0
  -18.0276  -28.1399   22.8480 C   0  0  0  0  0  0
  -24.1489  -36.7300   23.2643 C   0  0  0  0  0  0
  -25.9530  -30.7794   21.3651 C   0  0  0  0  0  0
  -26.0250  -29.4028   20.7121 C   0  0  0  0  0  0
  -27.2037  -28.5996   20.7122 C   0  0  0  0  0  0
  -26.0395  -26.8662   19.4831 C   0  0  0  0  0  0
  -24.8690  -27.6563   19.4894 C   0  0  0  0  0  0
  -23.6261  -29.8022   20.1609 C   0  0  0  0  0  0
  -25.4116  -36.3079   24.0331 C   0  0  1  0  0  0
  -20.5867  -28.3678   23.1290 C   0  0  2  0  0  0
  -20.6767  -26.9418   22.5405 C   0  0  0  0  0  0
  -19.5740  -26.6429   21.5186 C   0  0  0  0  0  0
  -18.1927  -26.7952   22.1610 C   0  0  0  0  0  0
  -19.1529  -28.8836   23.2897 C   0  0  0  0  0  0
  -18.9455  -30.1442   23.8906 C   0  0  0  0  0  0
  -17.6455  -30.6558   24.0586 C   0  0  0  0  0  0
  -25.9045  -34.9449   23.5093 C   0  0  0  0  0  0
  -16.5342  -29.9067   23.6352 C   0  0  0  0  0  0
  -16.7258  -28.6498   23.0342 C   0  0  0  0  0  0
  -26.4455  -31.6587   25.0687 C   0  0  0  0  0  0
  -25.3680  -31.3726   26.1417 C   0  0  0  0  0  0
  -27.0284  -30.3016   24.6116 C   0  0  0  0  0  0
  -27.6012  -32.4341   25.7444 C   0  0  0  0  0  0
  -27.5581  -37.1810   24.8461 C   0  0  0  0  0  0
  -21.4152  -29.3018   22.3662 N   0  0  0  0  0  0
  -26.4283  -37.3786   23.9410 N   0  0  0  0  0  0
  -24.6834  -31.0567   22.0918 N   0  0  0  0  0  0
  -23.4111  -28.8196   23.3090 O   0  0  0  0  0  0
  -28.3603  -26.4771   20.2131 O   0  0  0  0  0  0
  -26.5637  -34.8911   22.4679 O   0  0  0  0  0  0
  -23.5413  -32.1336   23.7311 O   0  0  0  0  0  0
  -29.6289  -17.7030   19.9273 C   0  0  0  0  0  0
  -29.1623  -19.0315   19.6185 C   0  0  0  0  0  0
  -29.0130  -19.5104   21.9383 C   0  0  0  0  0  0
  -29.8150  -17.2091   21.2574 C   0  0  0  0  0  0
  -29.4801  -18.1968   22.2630 C   0  0  0  0  0  0
  -28.8422  -19.9890   20.6243 C   0  0  0  0  0  0
  -28.6960  -22.4421   20.2756 C   0  0  0  0  0  0
  -27.9601  -23.8525   20.3257 C   0  0  0  0  0  0
  -29.7010  -19.0550   24.7294 C   0  0  0  0  0  0
  -29.5752  -17.8624   23.7617 C   0  0  0  0  0  0
  -28.5194  -25.1368   19.5741 C   0  0  0  0  0  0
  -30.3788  -15.7824   21.6842 C   0  0  1  0  0  0
  -28.1656  -21.2506   20.4205 N   0  0  0  0  0  0
  -31.7054  -16.0350   22.2645 N   0  3  0  0  0  0
  -26.8839  -23.9594   20.9298 O   0  0  0  0  0  0
  -31.4584  -12.5063   19.1730 H   0  0  0  0  0  0
  -30.3234  -11.4373   19.9227 H   0  0  0  0  0  0
  -29.7683  -11.7670   17.4944 H   0  0  0  0  0  0
  -29.6316  -13.4918   17.7526 H   0  0  0  0  0  0
  -27.8703  -11.2924   18.8909 H   0  0  0  0  0  0
  -27.3650  -12.5548   17.8036 H   0  0  0  0  0  0
  -27.6558  -14.2619   19.5086 H   0  0  0  0  0  0
  -28.6941  -12.1009   21.4008 H   0  0  0  0  0  0
  -28.3951  -13.7635   21.8315 H   0  0  0  0  0  0
  -25.2801   -9.5630   22.4777 H   0  0  0  0  0  0
  -23.9982   -7.4612   22.7490 H   0  0  0  0  0  0
  -21.0860   -8.8857   19.8970 H   0  0  0  0  0  0
  -22.3789  -10.9706   19.6163 H   0  0  0  0  0  0
  -21.2028   -7.6164   23.9716 H   0  0  0  0  0  0
  -21.1457   -6.0547   25.9076 H   0  0  0  0  0  0
  -22.0613   -2.7630   23.2863 H   0  0  0  0  0  0
  -22.4164  -11.9861   22.4656 H   0  0  0  0  0  0
  -21.1108  -13.1204   22.2689 H   0  0  0  0  0  0
  -24.6800  -15.8565   20.5421 H   0  0  0  0  0  0
  -26.3030  -15.6270   20.1413 H   0  0  0  0  0  0
  -26.7131  -32.5431   23.1031 H   0  0  0  0  0  0
  -24.9951  -33.9701   25.0330 H   0  0  0  0  0  0
  -22.7122  -31.2999   21.3952 H   0  0  0  0  0  0
  -23.3752  -35.9637   23.3307 H   0  0  0  0  0  0
  -24.3568  -36.8922   22.2056 H   0  0  0  0  0  0
  -23.7231  -37.6505   23.6653 H   0  0  0  0  0  0
  -26.0723  -31.5384   20.5909 H   0  0  0  0  0  0
  -26.8415  -30.8422   21.9813 H   0  0  0  0  0  0
  -28.0946  -28.9603   21.2081 H   0  0  0  0  0  0
  -25.9873  -25.8926   19.0180 H   0  0  0  0  0  0
  -23.9684  -27.2690   19.0324 H   0  0  0  0  0  0
  -23.7381  -30.5700   19.3948 H   0  0  0  0  0  0
  -22.7462  -29.2248   19.8703 H   0  0  0  0  0  0
  -25.1306  -36.1948   25.0828 H   0  0  0  0  0  0
  -20.9953  -28.3260   24.1417 H   0  0  0  0  0  0
  -20.5655  -26.2303   23.3592 H   0  0  0  0  0  0
  -21.6644  -26.7446   22.1196 H   0  0  0  0  0  0
  -19.6906  -25.6372   21.1134 H   0  0  0  0  0  0
  -19.6666  -27.3280   20.6756 H   0  0  0  0  0  0
  -17.4219  -26.6718   21.3994 H   0  0  0  0  0  0
  -18.0318  -26.0098   22.8998 H   0  0  0  0  0  0
  -19.7923  -30.7253   24.2289 H   0  0  0  0  0  0
  -17.5020  -31.6233   24.5203 H   0  0  0  0  0  0
  -15.5350  -30.2985   23.7685 H   0  0  0  0  0  0
  -15.8668  -28.0840   22.7003 H   0  0  0  0  0  0
  -24.5847  -30.7085   25.7732 H   0  0  0  0  0  0
  -24.8858  -32.2895   26.4838 H   0  0  0  0  0  0
  -25.8002  -30.8893   27.0190 H   0  0  0  0  0  0
  -26.2821  -29.6788   24.1147 H   0  0  0  0  0  0
  -27.4007  -29.7276   25.4614 H   0  0  0  0  0  0
  -27.8698  -30.4340   23.9301 H   0  0  0  0  0  0
  -27.2602  -33.3638   26.2030 H   0  0  0  0  0  0
  -28.3790  -32.6921   25.0235 H   0  0  0  0  0  0
  -28.0701  -31.8450   26.5340 H   0  0  0  0  0  0
  -28.2617  -38.0093   24.7505 H   0  0  0  0  0  0
  -28.1062  -36.2625   24.6300 H   0  0  0  0  0  0
  -27.2291  -37.1489   25.8861 H   0  0  0  0  0  0
  -20.9354  -29.8608   21.6752 H   0  0  0  0  0  0
  -26.0183  -38.2877   24.1390 H   0  0  0  0  0  0
  -29.8333  -17.0352   19.0995 H   0  0  0  0  0  0
  -29.0137  -19.2926   18.5794 H   0  0  0  0  0  0
  -28.7136  -20.1772   22.7321 H   0  0  0  0  0  0
  -29.7770  -22.5057   20.1324 H   0  0  0  0  0  0
  -28.7514  -19.5778   24.8616 H   0  0  0  0  0  0
  -30.4442  -19.7814   24.3938 H   0  0  0  0  0  0
  -30.0107  -18.7093   25.7168 H   0  0  0  0  0  0
  -30.4300  -17.2317   23.9748 H   0  0  0  0  0  0
  -28.6980  -17.2766   24.0346 H   0  0  0  0  0  0
  -28.1025  -25.1662   18.5663 H   0  0  0  0  0  0
  -29.5940  -24.9858   19.4428 H   0  0  0  0  0  0
  -29.7488  -15.3634   22.4702 H   0  0  0  0  0  0
  -31.7282  -16.9036   22.7613 H   0  0  0  0  0  0
  -32.3430  -16.0623   21.4832 H   0  0  0  0  0  0
  -31.9795  -15.2727   22.8582 H   0  0  0  0  0  0
  1 25  1  0  0  0
  1 30  2  0  0  0
  1 82  1  0  0  0
  2  3  1  0  0  0
  2 25  1  0  0  0
  2 86  1  0  0  0
  2 87  1  0  0  0
  3  4  1  0  0  0
  3 88  1  0  0  0
  3 89  1  0  0  0
  4  5  1  0  0  0
  4 90  1  0  0  0
  4 91  1  0  0  0
  5  6  1  0  0  0
  5 26  1  0  0  0
  5 92  1  0  0  0
  6 25  1  0  0  0
  6 93  1  0  0  0
  6 94  1  0  0  0
  7  8  2  0  0  0
  7 26  1  0  0  0
  7 29  1  0  0  0
  8  9  1  0  0  0
  8 22  1  0  0  0
  9 10  1  0  0  0
  9 27  2  0  0  0
 10 11  2  0  0  0
 10 15  1  0  0  0
 11 12  1  0  0  0
 11 95  1  0  0  0
 12 13  2  0  0  0
 12 96  1  0  0  0
 13 14  1  0  0  0
 13 31  1  0  0  0
 14 15  2  0  0  0
 14 97  1  0  0  0
 15 98  1  0  0  0
 16 17  2  0  0  0
 16 21  1  0  0  0
 16 31  1  0  0  0
 17 18  1  0  0  0
 17 99  1  0  0  0
 18 19  2  0  0  0
 18100  1  0  0  0
 19 20  1  0  0  0
 19 24  1  0  0  0
 20 21  2  0  0  0
 20101  1  0  0  0
 21 23  1  0  0  0
 22 28  1  0  0  0
 22 32  2  0  0  0
 26 27  1  0  0  0
 28102  1  0  0  0
 28103  1  0  0  0
 29104  1  0  0  0
 29105  1  0  0  0
 33 34  1  0  0  0
 33 66  1  0  0  0
 33 70  2  0  0  0
 34 36  1  0  0  0
 34 59  1  0  0  0
 34106  1  0  0  0
 35 44  2  0  0  0
 35 45  1  0  0  0
 35 68  1  0  0  0
 36 56  1  0  0  0
 36107  1  0  0  0
 37 39  1  0  0  0
 37 47  1  0  0  0
 37 66  1  0  0  0
 37108  1  0  0  0
 38 43  2  0  0  0
 38 46  1  0  0  0
 38 47  1  0  0  0
 39 64  1  0  0  0
 39 67  2  0  0  0
 40 52  1  0  0  0
 40 53  2  0  0  0
 40 58  1  0  0  0
 41109  1  0  0  0
 41110  1  0  0  0
 41111  1  0  0  0
 41 48  1  0  0  0
 42 43  1  0  0  0
 42 66  1  0  0  0
 42112  1  0  0  0
 42113  1  0  0  0
 43 44  1  0  0  0
 44114  1  0  0  0
 45 46  2  0  0  0
 45115  1  0  0  0
 46116  1  0  0  0
 47117  1  0  0  0
 47118  1  0  0  0
 48 56  1  0  0  0
 48 65  1  0  0  0
 48119  1  0  0  0
 49 50  1  0  0  0
 49 53  1  0  0  0
 49 64  1  0  0  0
 49120  1  0  0  0
 50 51  1  0  0  0
 50121  1  0  0  0
 50122  1  0  0  0
 51 52  1  0  0  0
 51123  1  0  0  0
 51124  1  0  0  0
 52125  1  0  0  0
 52126  1  0  0  0
 53 54  1  0  0  0
 54 55  2  0  0  0
 54127  1  0  0  0
 55 57  1  0  0  0
 55128  1  0  0  0
 56 69  2  0  0  0
 57 58  2  0  0  0
 57129  1  0  0  0
 58130  1  0  0  0
 59 60  1  0  0  0
 59 61  1  0  0  0
 59 62  1  0  0  0
 60131  1  0  0  0
 60132  1  0  0  0
 60133  1  0  0  0
 61134  1  0  0  0
 61135  1  0  0  0
 61136  1  0  0  0
 62137  1  0  0  0
 62138  1  0  0  0
 62139  1  0  0  0
 63 65  1  0  0  0
 63140  1  0  0  0
 63141  1  0  0  0
 63142  1  0  0  0
 64143  1  0  0  0
 65144  1  0  0  0
 68 81  1  0  0  0
 71 72  2  0  0  0
 71 74  1  0  0  0
 71145  1  0  0  0
 72 76  1  0  0  0
 72146  1  0  0  0
 73 75  1  0  0  0
 73 76  2  0  0  0
 73147  1  0  0  0
 74 75  2  0  0  0
 74 82  1  0  0  0
 75 80  1  0  0  0
 76 83  1  0  0  0
 77 78  1  0  0  0
 77 83  2  0  0  0
 77148  1  0  0  0
 78 81  1  0  0  0
 78 85  2  0  0  0
 79 80  1  0  0  0
 79149  1  0  0  0
 79150  1  0  0  0
 79151  1  0  0  0
 80152  1  0  0  0
 80153  1  0  0  0
 81154  1  0  0  0
 81155  1  0  0  0
 82 84  1  0  0  0
 82156  1  0  0  0
 84157  1  0  0  0
 84158  1  0  0  0
 84159  1  0  0  0
M  CHG  1  84   1
M  ISO  4   1 100  68 101  81 101  82 100
M  END
> <chiral flag>
0

> <version>
0

> <s_m_source_file>
/data/baiqing/PycharmProjects/Reinvent-master-3.2/result/LINK_invent/BTK/process_docking_weight1_custom_product_contain_oxygen_bond_distance_aromatic_linkinvent_7_9_3/rearranged_h_0138.sdf

> <i_m_source_file_index>
24

> <r_mmod_Potential_Energy-OPLS-2005>
-81.0660629272461

> <r_mmod_Stretch_Energy-OPLS-2005>
116.643981933594

> <r_mmod_Bend_Energy-OPLS-2005>
219.3154296875

> <r_mmod_Torsional_Energy-OPLS-2005>
194.421737670898

> <r_mmod_Improper_Torsional_Energy-OPLS-2005>
4.85421371459961

> <r_mmod_Van_der_Waal_Energy-OPLS-2005>
149.158462524414

> <r_mmod_Electrostatic_Energy-OPLS-2005>
-321.835693359375

> <r_mmod_Solvation_Energy-OPLS-2005>
-497.705383300781

> <b_mmod_Minimization_Converged-OPLS-2005>
0

> <r_mmod_RMS_Derivative-OPLS-2005>
4.55182790756226

$$$$
24
                    3D
 Structure written by MMmdl.
166175  0  0  1  0            999 V2000
  -30.7162  -14.4781   20.5620 C   0  0  0  0  0  0
  -30.4201  -12.3027   19.4275 C   0  0  0  0  0  0
  -29.5039  -12.4953   18.2018 C   0  0  0  0  0  0
  -28.0228  -12.3611   18.6111 C   0  0  0  0  0  0
  -27.6593  -13.2108   19.8604 C   0  0  2  0  0  0
  -28.7006  -13.0166   20.9857 C   0  0  0  0  0  0
  -25.2565  -13.8167   20.5620 C   0  0  0  0  0  0
  -24.1813  -13.0449   20.9146 C   0  0  0  0  0  0
  -24.6373  -11.6916   20.8702 C   0  0  0  0  0  0
  -23.9023  -10.4307   21.0385 C   0  0  0  0  0  0
  -24.3585   -9.4222   21.9175 C   0  0  0  0  0  0
  -23.6257   -8.2242   22.0757 C   0  0  0  0  0  0
  -22.4235   -8.0277   21.3554 C   0  0  0  0  0  0
  -21.9850   -9.0247   20.4647 C   0  0  0  0  0  0
  -22.7189  -10.2129   20.3051 C   0  0  0  0  0  0
  -21.6850   -6.0712   22.5272 C   0  0  0  0  0  0
  -21.4023   -6.5624   23.8201 C   0  0  0  0  0  0
  -21.3661   -5.6779   24.9161 C   0  0  0  0  0  0
  -21.6026   -4.3037   24.7222 C   0  0  0  0  0  0
  -21.8816   -3.8134   23.4343 C   0  0  0  0  0  0
  -21.9187   -4.6942   22.3399 C   0  0  0  0  0  0
  -22.7826  -13.5244   21.1803 C   0  0  0  0  0  0
  -22.1652   -4.2139   21.0972 F   0  0  0  0  0  0
  -21.5638   -3.4520   25.7736 F   0  0  0  0  0  0
  -30.0302  -13.3096   20.4275 N   0  0  0  0  0  0
  -26.3003  -12.9356   20.3247 N   0  0  0  0  0  0
  -25.9291  -11.6513   20.5629 N   0  0  0  0  0  0
  -22.0452  -12.8279   22.0376 N   0  0  0  0  0  0
  -25.4294  -15.1883   20.4062 N   0  0  0  0  0  0
  -31.8674  -14.6221   20.1356 O   0  0  0  0  0  0
  -21.6624   -6.8857   21.4234 O   0  0  0  0  0  0
  -22.3500  -14.5533   20.6645 O   0  0  0  0  0  0
  -24.6123  -31.8669   23.2052 C   0  0  0  0  0  0
  -25.8970  -32.4845   23.8390 C   0  0  1  0  0  0
  -27.2439  -27.4072   20.1007 C   0  0  0  0  0  0
  -25.5781  -33.8649   24.2270 N   0  0  0  0  0  0
  -23.4056  -30.4850   21.5481 C   0  0  2  0  0  0
  -24.8588  -28.9548   20.1131 C   0  0  0  0  0  0
  -22.7433  -29.4608   22.4976 C   0  0  0  0  0  0
  -18.0255  -28.1381   22.8496 C   0  0  0  0  0  0
  -24.1470  -36.7336   23.2650 C   0  0  0  0  0  0
  -25.9401  -30.8219   21.3710 C   0  0  0  0  0  0
  -26.0192  -29.4581   20.7130 C   0  0  0  0  0  0
  -27.2139  -28.6917   20.7009 C   0  0  0  0  0  0
  -26.0586  -26.9367   19.4833 C   0  0  0  0  0  0
  -24.8762  -27.6972   19.4932 C   0  0  0  0  0  0
  -23.6173  -29.8170   20.1651 C   0  0  0  0  0  0
  -25.4100  -36.3130   24.0328 C   0  0  1  0  0  0
  -20.5853  -28.3637   23.1311 C   0  0  2  0  0  0
  -20.6714  -26.9364   22.5426 C   0  0  0  0  0  0
  -19.5696  -26.6370   21.5215 C   0  0  0  0  0  0
  -18.1879  -26.7917   22.1643 C   0  0  0  0  0  0
  -19.1505  -28.8830   23.2899 C   0  0  0  0  0  0
  -18.9456  -30.1433   23.8927 C   0  0  0  0  0  0
  -17.6463  -30.6595   24.0555 C   0  0  0  0  0  0
  -25.9026  -34.9492   23.5128 C   0  0  0  0  0  0
  -16.5351  -29.9105   23.6319 C   0  0  0  0  0  0
  -16.7246  -28.6504   23.0371 C   0  0  0  0  0  0
  -26.4378  -31.6652   25.0746 C   0  0  0  0  0  0
  -25.3602  -31.3803   26.1470 C   0  0  0  0  0  0
  -27.0167  -30.3060   24.6165 C   0  0  0  0  0  0
  -27.5941  -32.4406   25.7499 C   0  0  0  0  0  0
  -27.5577  -37.1815   24.8448 C   0  0  0  0  0  0
  -21.4145  -29.2996   22.3731 N   0  0  0  0  0  0
  -26.4283  -37.3804   23.9412 N   0  0  0  0  0  0
  -24.6701  -31.0738   22.0990 N   0  0  0  0  0  0
  -23.4200  -28.8165   23.3027 O   0  0  0  0  0  0
  -28.4078  -26.6454   20.1464 O   0  0  0  0  0  0
  -26.5664  -34.8930   22.4729 O   0  0  0  0  0  0
  -23.5287  -32.1452   23.7402 O   0  0  0  0  0  0
  -31.5307  -19.4315   21.8676 C   0  0  0  0  0  0
  -31.5944  -17.0071   22.1722 C   0  0  0  0  0  0
  -29.9547  -18.0068   20.6752 C   0  0  0  0  0  0
  -32.0830  -18.2870   22.4891 C   0  0  0  0  0  0
  -30.4707  -19.3102   20.9335 C   0  0  0  0  0  0
  -30.5237  -16.8474   21.2704 C   0  0  0  0  0  0
  -30.4715  -24.8207   21.1031 C   0  0  0  0  0  0
  -29.4520  -24.3384   20.3690 C   0  0  0  0  0  0
  -29.5681  -21.3181   17.9146 C   0  0  0  0  0  0
  -29.7740  -22.7500   18.4237 C   0  0  0  0  0  0
  -30.3063  -20.2923   18.7842 C   0  0  0  0  0  0
  -30.1525  -21.7955   20.7433 C   0  0  0  0  0  0
  -29.3657  -22.8653   19.9074 C   0  0  1  0  0  0
  -33.2080  -18.4121   23.4988 C   0  0  0  0  0  0
  -28.2678  -25.2215   19.9267 C   0  0  0  0  0  0
  -29.9723  -20.4271   20.2073 N   0  0  0  0  0  0
  -30.0081  -15.5367   21.0119 N   0  0  0  0  0  0
  -31.4732  -12.3734   19.1456 H   0  0  0  0  0  0
  -30.2936  -11.2990   19.8398 H   0  0  0  0  0  0
  -29.7438  -11.7672   17.4251 H   0  0  0  0  0  0
  -29.6855  -13.4780   17.7634 H   0  0  0  0  0  0
  -27.8250  -11.3084   18.8154 H   0  0  0  0  0  0
  -27.3791  -12.6314   17.7741 H   0  0  0  0  0  0
  -27.6935  -14.2534   19.5434 H   0  0  0  0  0  0
  -28.6740  -11.9883   21.3498 H   0  0  0  0  0  0
  -28.4698  -13.6417   21.8502 H   0  0  0  0  0  0
  -25.2737   -9.5706   22.4722 H   0  0  0  0  0  0
  -23.9984   -7.4622   22.7469 H   0  0  0  0  0  0
  -21.0772   -8.8726   19.8951 H   0  0  0  0  0  0
  -22.3618  -10.9639   19.6134 H   0  0  0  0  0  0
  -21.2034   -7.6140   23.9703 H   0  0  0  0  0  0
  -21.1478   -6.0509   25.9059 H   0  0  0  0  0  0
  -22.0604   -2.7597   23.2836 H   0  0  0  0  0  0
  -22.4017  -11.9988   22.4894 H   0  0  0  0  0  0
  -21.1078  -13.1353   22.2534 H   0  0  0  0  0  0
  -24.6633  -15.8453   20.5034 H   0  0  0  0  0  0
  -26.2786  -15.6229   20.0731 H   0  0  0  0  0  0
  -26.7059  -32.5527   23.1172 H   0  0  0  0  0  0
  -24.9702  -33.9822   25.0250 H   0  0  0  0  0  0
  -22.6898  -31.2969   21.4037 H   0  0  0  0  0  0
  -23.3722  -35.9676   23.3322 H   0  0  0  0  0  0
  -24.3551  -36.8960   22.2063 H   0  0  0  0  0  0
  -23.7233  -37.6534   23.6690 H   0  0  0  0  0  0
  -26.0630  -31.5866   20.6033 H   0  0  0  0  0  0
  -26.8229  -30.8739   21.9972 H   0  0  0  0  0  0
  -28.1078  -29.0710   21.1745 H   0  0  0  0  0  0
  -26.0186  -25.9762   18.9903 H   0  0  0  0  0  0
  -23.9843  -27.3056   19.0238 H   0  0  0  0  0  0
  -23.7208  -30.5875   19.4000 H   0  0  0  0  0  0
  -22.7433  -29.2292   19.8770 H   0  0  0  0  0  0
  -25.1277  -36.1994   25.0819 H   0  0  0  0  0  0
  -20.9935  -28.3196   24.1434 H   0  0  0  0  0  0
  -20.5556  -26.2258   23.3630 H   0  0  0  0  0  0
  -21.6586  -26.7356   22.1267 H   0  0  0  0  0  0
  -19.6841  -25.6280   21.1253 H   0  0  0  0  0  0
  -19.6629  -27.3167   20.6741 H   0  0  0  0  0  0
  -17.4130  -26.6653   21.4065 H   0  0  0  0  0  0
  -18.0280  -26.0077   22.9066 H   0  0  0  0  0  0
  -19.7932  -30.7214   24.2338 H   0  0  0  0  0  0
  -17.5032  -31.6287   24.5133 H   0  0  0  0  0  0
  -15.5354  -30.3047   23.7607 H   0  0  0  0  0  0
  -15.8634  -28.0830   22.7126 H   0  0  0  0  0  0
  -24.5743  -30.7194   25.7792 H   0  0  0  0  0  0
  -24.8814  -32.2979   26.4904 H   0  0  0  0  0  0
  -25.7888  -30.8966   27.0255 H   0  0  0  0  0  0
  -26.2727  -29.6937   24.1058 H   0  0  0  0  0  0
  -27.3679  -29.7204   25.4671 H   0  0  0  0  0  0
  -27.8683  -30.4322   23.9476 H   0  0  0  0  0  0
  -27.2514  -33.3691   26.2090 H   0  0  0  0  0  0
  -28.3707  -32.7033   25.0301 H   0  0  0  0  0  0
  -28.0658  -31.8553   26.5401 H   0  0  0  0  0  0
  -28.2590  -38.0116   24.7495 H   0  0  0  0  0  0
  -28.1075  -36.2646   24.6263 H   0  0  0  0  0  0
  -27.2304  -37.1455   25.8851 H   0  0  0  0  0  0
  -20.9315  -29.8749   21.6976 H   0  0  0  0  0  0
  -26.0171  -38.2873   24.1432 H   0  0  0  0  0  0
  -31.9565  -20.3963   22.1014 H   0  0  0  0  0  0
  -32.0436  -16.1372   22.6347 H   0  0  0  0  0  0
  -29.1346  -17.8979   19.9810 H   0  0  0  0  0  0
  -31.3038  -24.2039   21.4122 H   0  0  0  0  0  0
  -30.4944  -25.8554   21.4121 H   0  0  0  0  0  0
  -29.9358  -21.2484   16.8911 H   0  0  0  0  0  0
  -28.5025  -21.0768   17.8773 H   0  0  0  0  0  0
  -29.2086  -23.4344   17.7939 H   0  0  0  0  0  0
  -30.8217  -23.0360   18.3106 H   0  0  0  0  0  0
  -31.3855  -20.4131   18.6674 H   0  0  0  0  0  0
  -30.0695  -19.2973   18.4063 H   0  0  0  0  0  0
  -29.8175  -21.8207   21.7828 H   0  0  0  0  0  0
  -31.2162  -22.0450   20.7414 H   0  0  0  0  0  0
  -28.3096  -22.6024   19.9931 H   0  0  0  0  0  0
  -33.6932  -19.3866   23.4551 H   0  0  0  0  0  0
  -33.9666  -17.6480   23.3267 H   0  0  0  0  0  0
  -32.8158  -18.2674   24.5058 H   0  0  0  0  0  0
  -27.3930  -24.8514   20.4640 H   0  0  0  0  0  0
  -28.0918  -25.0570   18.8633 H   0  0  0  0  0  0
  -29.0190  -15.3900   21.1425 H   0  0  0  0  0  0
  1 25  1  0  0  0
  1 30  2  0  0  0
  1 87  1  0  0  0
  2  3  1  0  0  0
  2 25  1  0  0  0
  2 88  1  0  0  0
  2 89  1  0  0  0
  3  4  1  0  0  0
  3 90  1  0  0  0
  3 91  1  0  0  0
  4  5  1  0  0  0
  4 92  1  0  0  0
  4 93  1  0  0  0
  5  6  1  0  0  0
  5 26  1  0  0  0
  5 94  1  0  0  0
  6 25  1  0  0  0
  6 95  1  0  0  0
  6 96  1  0  0  0
  7  8  2  0  0  0
  7 26  1  0  0  0
  7 29  1  0  0  0
  8  9  1  0  0  0
  8 22  1  0  0  0
  9 10  1  0  0  0
  9 27  2  0  0  0
 10 11  2  0  0  0
 10 15  1  0  0  0
 11 12  1  0  0  0
 11 97  1  0  0  0
 12 13  2  0  0  0
 12 98  1  0  0  0
 13 14  1  0  0  0
 13 31  1  0  0  0
 14 15  2  0  0  0
 14 99  1  0  0  0
 15100  1  0  0  0
 16 17  2  0  0  0
 16 21  1  0  0  0
 16 31  1  0  0  0
 17 18  1  0  0  0
 17101  1  0  0  0
 18 19  2  0  0  0
 18102  1  0  0  0
 19 20  1  0  0  0
 19 24  1  0  0  0
 20 21  2  0  0  0
 20103  1  0  0  0
 21 23  1  0  0  0
 22 28  1  0  0  0
 22 32  2  0  0  0
 26 27  1  0  0  0
 28104  1  0  0  0
 28105  1  0  0  0
 29106  1  0  0  0
 29107  1  0  0  0
 33 34  1  0  0  0
 33 66  1  0  0  0
 33 70  2  0  0  0
 34 36  1  0  0  0
 34 59  1  0  0  0
 34108  1  0  0  0
 35 44  2  0  0  0
 35 45  1  0  0  0
 35 68  1  0  0  0
 36 56  1  0  0  0
 36109  1  0  0  0
 37 39  1  0  0  0
 37 47  1  0  0  0
 37 66  1  0  0  0
 37110  1  0  0  0
 38 43  2  0  0  0
 38 46  1  0  0  0
 38 47  1  0  0  0
 39 64  1  0  0  0
 39 67  2  0  0  0
 40 52  1  0  0  0
 40 53  2  0  0  0
 40 58  1  0  0  0
 41111  1  0  0  0
 41112  1  0  0  0
 41113  1  0  0  0
 41 48  1  0  0  0
 42 43  1  0  0  0
 42 66  1  0  0  0
 42114  1  0  0  0
 42115  1  0  0  0
 43 44  1  0  0  0
 44116  1  0  0  0
 45 46  2  0  0  0
 45117  1  0  0  0
 46118  1  0  0  0
 47119  1  0  0  0
 47120  1  0  0  0
 48 56  1  0  0  0
 48 65  1  0  0  0
 48121  1  0  0  0
 49 50  1  0  0  0
 49 53  1  0  0  0
 49 64  1  0  0  0
 49122  1  0  0  0
 50 51  1  0  0  0
 50123  1  0  0  0
 50124  1  0  0  0
 51 52  1  0  0  0
 51125  1  0  0  0
 51126  1  0  0  0
 52127  1  0  0  0
 52128  1  0  0  0
 53 54  1  0  0  0
 54 55  2  0  0  0
 54129  1  0  0  0
 55 57  1  0  0  0
 55130  1  0  0  0
 56 69  2  0  0  0
 57 58  2  0  0  0
 57131  1  0  0  0
 58132  1  0  0  0
 59 60  1  0  0  0
 59 61  1  0  0  0
 59 62  1  0  0  0
 60133  1  0  0  0
 60134  1  0  0  0
 60135  1  0  0  0
 61136  1  0  0  0
 61137  1  0  0  0
 61138  1  0  0  0
 62139  1  0  0  0
 62140  1  0  0  0
 62141  1  0  0  0
 63 65  1  0  0  0
 63142  1  0  0  0
 63143  1  0  0  0
 63144  1  0  0  0
 64145  1  0  0  0
 65146  1  0  0  0
 68 85  1  0  0  0
 71 74  2  0  0  0
 71 75  1  0  0  0
 71147  1  0  0  0
 72 74  1  0  0  0
 72 76  2  0  0  0
 72148  1  0  0  0
 73 75  2  0  0  0
 73 76  1  0  0  0
 73149  1  0  0  0
 74 84  1  0  0  0
 75 86  1  0  0  0
 76 87  1  0  0  0
 77 78  2  0  0  0
 77150  1  0  0  0
 77151  1  0  0  0
 78 85  1  0  0  0
 78 83  1  0  0  0
 79 80  1  0  0  0
 79 81  1  0  0  0
 79152  1  0  0  0
 79153  1  0  0  0
 80 83  1  0  0  0
 80154  1  0  0  0
 80155  1  0  0  0
 81 86  1  0  0  0
 81156  1  0  0  0
 81157  1  0  0  0
 82 83  1  0  0  0
 82 86  1  0  0  0
 82158  1  0  0  0
 82159  1  0  0  0
 83160  1  0  0  0
 84161  1  0  0  0
 84162  1  0  0  0
 84163  1  0  0  0
 85164  1  0  0  0
 85165  1  0  0  0
 87166  1  0  0  0
M  ISO  4   1 100  68 101  85 101  87 100
M  END
> <chiral flag>
0

> <version>
0

> <s_m_source_file>
/data/baiqing/PycharmProjects/Reinvent-master-3.2/result/LINK_invent/BTK/process_docking_weight1_custom_product_contain_oxygen_bond_distance_aromatic_linkinvent_7_9_3/rearranged_h_0138.sdf

> <i_m_source_file_index>
25

> <r_mmod_Potential_Energy-OPLS-2005>
46.8676300048828

> <r_mmod_Stretch_Energy-OPLS-2005>
48.538890838623

> <r_mmod_Bend_Energy-OPLS-2005>
106.510566711426

> <r_mmod_Torsional_Energy-OPLS-2005>
257.987640380859

> <r_mmod_Improper_Torsional_Energy-OPLS-2005>
8.47669982910156

> <r_mmod_Van_der_Waal_Energy-OPLS-2005>
165.680847167969

> <r_mmod_Electrostatic_Energy-OPLS-2005>
-340.483642578125

> <r_mmod_Solvation_Energy-OPLS-2005>
-217.89192199707

> <b_mmod_Minimization_Converged-OPLS-2005>
0

> <r_mmod_RMS_Derivative-OPLS-2005>
4.32892084121704

$$$$
25
                    3D
 Structure written by MMmdl.
156164  0  0  1  0            999 V2000
  -30.6454  -14.6114   20.5166 C   0  0  0  0  0  0
  -30.4354  -12.3783   19.4512 C   0  0  0  0  0  0
  -29.5062  -12.5181   18.2238 C   0  0  0  0  0  0
  -28.0287  -12.3614   18.6335 C   0  0  0  0  0  0
  -27.6589  -13.2186   19.8732 C   0  0  2  0  0  0
  -28.7039  -13.0553   21.0009 C   0  0  0  0  0  0
  -25.2574  -13.8170   20.5701 C   0  0  0  0  0  0
  -24.1838  -13.0438   20.9191 C   0  0  0  0  0  0
  -24.6404  -11.6908   20.8747 C   0  0  0  0  0  0
  -23.9072  -10.4294   21.0413 C   0  0  0  0  0  0
  -24.3634   -9.4203   21.9182 C   0  0  0  0  0  0
  -23.6302   -8.2244   22.0751 C   0  0  0  0  0  0
  -22.4278   -8.0286   21.3550 C   0  0  0  0  0  0
  -21.9922   -9.0255   20.4648 C   0  0  0  0  0  0
  -22.7252  -10.2129   20.3054 C   0  0  0  0  0  0
  -21.6841   -6.0747   22.5280 C   0  0  0  0  0  0
  -21.4019   -6.5652   23.8218 C   0  0  0  0  0  0
  -21.3655   -5.6801   24.9177 C   0  0  0  0  0  0
  -21.6048   -4.3067   24.7224 C   0  0  0  0  0  0
  -21.8820   -3.8156   23.4345 C   0  0  0  0  0  0
  -21.9194   -4.6977   22.3402 C   0  0  0  0  0  0
  -22.7859  -13.5212   21.1868 C   0  0  0  0  0  0
  -22.1671   -4.2155   21.0982 F   0  0  0  0  0  0
  -21.5620   -3.4556   25.7745 F   0  0  0  0  0  0
  -30.0247  -13.3922   20.4435 N   0  0  0  0  0  0
  -26.3014  -12.9369   20.3350 N   0  0  0  0  0  0
  -25.9342  -11.6516   20.5781 N   0  0  0  0  0  0
  -22.0535  -12.8167   22.0425 N   0  0  0  0  0  0
  -25.4294  -15.1892   20.4152 N   0  0  0  0  0  0
  -31.7808  -14.7875   20.0670 O   0  0  0  0  0  0
  -21.6632   -6.8888   21.4243 O   0  0  0  0  0  0
  -22.3532  -14.5522   20.6738 O   0  0  0  0  0  0
  -24.6223  -31.8613   23.2047 C   0  0  0  0  0  0
  -25.9077  -32.4779   23.8373 C   0  0  1  0  0  0
  -27.2307  -27.3409   20.1063 C   0  0  0  0  0  0
  -25.5906  -33.8582   24.2301 N   0  0  0  0  0  0
  -23.4154  -30.4838   21.5487 C   0  0  2  0  0  0
  -24.8612  -28.9410   20.1150 C   0  0  0  0  0  0
  -22.7453  -29.4627   22.4972 C   0  0  0  0  0  0
  -18.0281  -28.1368   22.8480 C   0  0  0  0  0  0
  -24.1488  -36.7315   23.2638 C   0  0  0  0  0  0
  -25.9548  -30.7973   21.3729 C   0  0  0  0  0  0
  -26.0303  -29.4275   20.7141 C   0  0  0  0  0  0
  -27.2172  -28.6391   20.6982 C   0  0  0  0  0  0
  -26.0337  -26.9007   19.4905 C   0  0  0  0  0  0
  -24.8637  -27.6815   19.4983 C   0  0  0  0  0  0
  -23.6261  -29.8164   20.1650 C   0  0  0  0  0  0
  -25.4109  -36.3088   24.0323 C   0  0  1  0  0  0
  -20.5875  -28.3670   23.1288 C   0  0  2  0  0  0
  -20.6767  -26.9398   22.5402 C   0  0  0  0  0  0
  -19.5748  -26.6372   21.5203 C   0  0  0  0  0  0
  -18.1932  -26.7918   22.1611 C   0  0  0  0  0  0
  -19.1529  -28.8839   23.2880 C   0  0  0  0  0  0
  -18.9449  -30.1457   23.8881 C   0  0  0  0  0  0
  -17.6443  -30.6574   24.0560 C   0  0  0  0  0  0
  -25.9027  -34.9448   23.5103 C   0  0  0  0  0  0
  -16.5335  -29.9058   23.6334 C   0  0  0  0  0  0
  -16.7274  -28.6477   23.0354 C   0  0  0  0  0  0
  -26.4482  -31.6583   25.0738 C   0  0  0  0  0  0
  -25.3736  -31.3702   26.1481 C   0  0  0  0  0  0
  -27.0340  -30.3009   24.6198 C   0  0  0  0  0  0
  -27.6043  -32.4335   25.7500 C   0  0  0  0  0  0
  -27.5593  -37.1810   24.8459 C   0  0  0  0  0  0
  -21.4168  -29.3036   22.3694 N   0  0  0  0  0  0
  -26.4301  -37.3776   23.9399 N   0  0  0  0  0  0
  -24.6832  -31.0635   22.0994 N   0  0  0  0  0  0
  -23.4193  -28.8174   23.3048 O   0  0  0  0  0  0
  -28.3629  -26.5145   20.1496 O   0  0  0  0  0  0
  -26.5605  -34.8897   22.4673 O   0  0  0  0  0  0
  -23.5386  -32.1408   23.7376 O   0  0  0  0  0  0
  -30.0094  -19.3340   21.9065 C   0  0  0  0  0  0
  -29.9781  -17.9158   22.0106 C   0  0  0  0  0  0
  -30.1023  -17.7415   19.6134 C   0  0  0  0  0  0
  -30.0720  -20.0091   20.6584 C   0  0  0  0  0  0
  -30.1126  -19.1690   19.5021 C   0  0  0  0  0  0
  -30.0441  -17.0813   20.8694 C   0  0  0  0  0  0
  -30.2320  -21.5332   20.6305 C   0  0  0  0  0  0
  -30.1983  -19.7802   18.1106 C   0  0  0  0  0  0
  -29.0504  -22.5144   20.3171 C   0  0  0  0  0  0
  -29.3514  -24.0825   20.3789 C   0  0  0  0  0  0
  -28.1607  -25.0596   20.0238 C   0  0  0  0  0  0
  -31.3654  -22.0284   20.8984 N   0  0  0  0  0  0
  -29.8998  -15.6399   21.0163 N   0  0  0  0  0  0
  -31.4790  -12.4884   19.1498 H   0  0  0  0  0  0
  -30.3569  -11.3787   19.8824 H   0  0  0  0  0  0
  -29.7634  -11.7770   17.4674 H   0  0  0  0  0  0
  -29.6525  -13.4931   17.7581 H   0  0  0  0  0  0
  -27.8528  -11.3073   18.8471 H   0  0  0  0  0  0
  -27.3750  -12.6150   17.7978 H   0  0  0  0  0  0
  -27.6834  -14.2579   19.5468 H   0  0  0  0  0  0
  -28.7084  -12.0305   21.3741 H   0  0  0  0  0  0
  -28.4503  -13.6768   21.8604 H   0  0  0  0  0  0
  -25.2801   -9.5657   22.4732 H   0  0  0  0  0  0
  -24.0014   -7.4627   22.7455 H   0  0  0  0  0  0
  -21.0863   -8.8780   19.8937 H   0  0  0  0  0  0
  -22.3737  -10.9671   19.6155 H   0  0  0  0  0  0
  -21.2023   -7.6163   23.9722 H   0  0  0  0  0  0
  -21.1473   -6.0536   25.9074 H   0  0  0  0  0  0
  -22.0603   -2.7616   23.2845 H   0  0  0  0  0  0
  -22.4199  -11.9806   22.4738 H   0  0  0  0  0  0
  -21.1158  -13.1145   22.2714 H   0  0  0  0  0  0
  -24.6649  -15.8457   20.5286 H   0  0  0  0  0  0
  -26.2860  -15.6293   20.1036 H   0  0  0  0  0  0
  -26.7145  -32.5455   23.1125 H   0  0  0  0  0  0
  -25.0060  -33.9729   25.0449 H   0  0  0  0  0  0
  -22.7082  -31.3041   21.4072 H   0  0  0  0  0  0
  -23.3732  -35.9673   23.3290 H   0  0  0  0  0  0
  -24.3570  -36.8948   22.2055 H   0  0  0  0  0  0
  -23.7255  -37.6516   23.6670 H   0  0  0  0  0  0
  -26.0793  -31.5606   20.6043 H   0  0  0  0  0  0
  -26.8371  -30.8439   22.0016 H   0  0  0  0  0  0
  -28.1176  -29.0096   21.1713 H   0  0  0  0  0  0
  -25.9707  -25.9374   19.0076 H   0  0  0  0  0  0
  -23.9658  -27.3033   19.0307 H   0  0  0  0  0  0
  -23.7336  -30.5908   19.4043 H   0  0  0  0  0  0
  -22.7478  -29.2369   19.8736 H   0  0  0  0  0  0
  -25.1279  -36.1944   25.0819 H   0  0  0  0  0  0
  -20.9955  -28.3236   24.1416 H   0  0  0  0  0  0
  -20.5668  -26.2280   23.3597 H   0  0  0  0  0  0
  -21.6639  -26.7435   22.1203 H   0  0  0  0  0  0
  -19.6907  -25.6279   21.1248 H   0  0  0  0  0  0
  -19.6689  -27.3160   20.6718 H   0  0  0  0  0  0
  -17.4203  -26.6670   21.4010 H   0  0  0  0  0  0
  -18.0333  -26.0048   22.8992 H   0  0  0  0  0  0
  -19.7923  -30.7295   24.2224 H   0  0  0  0  0  0
  -17.4991  -31.6257   24.5164 H   0  0  0  0  0  0
  -15.5332  -30.2951   23.7685 H   0  0  0  0  0  0
  -15.8675  -28.0805   22.7067 H   0  0  0  0  0  0
  -24.5908  -30.7040   25.7827 H   0  0  0  0  0  0
  -24.8921  -32.2845   26.4948 H   0  0  0  0  0  0
  -25.8077  -30.8863   27.0237 H   0  0  0  0  0  0
  -26.2923  -29.6730   24.1238 H   0  0  0  0  0  0
  -27.4049  -29.7280   25.4712 H   0  0  0  0  0  0
  -27.8784  -30.4289   23.9420 H   0  0  0  0  0  0
  -27.2656  -33.3629   26.2084 H   0  0  0  0  0  0
  -28.3842  -32.6903   25.0321 H   0  0  0  0  0  0
  -28.0731  -31.8465   26.5405 H   0  0  0  0  0  0
  -28.2597  -38.0126   24.7507 H   0  0  0  0  0  0
  -28.1100  -36.2642   24.6272 H   0  0  0  0  0  0
  -27.2306  -37.1446   25.8865 H   0  0  0  0  0  0
  -20.9348  -29.8767   21.6907 H   0  0  0  0  0  0
  -26.0175  -38.2859   24.1376 H   0  0  0  0  0  0
  -30.0013  -19.9153   22.8187 H   0  0  0  0  0  0
  -29.9130  -17.4694   22.9921 H   0  0  0  0  0  0
  -30.1211  -17.1427   18.7130 H   0  0  0  0  0  0
  -30.1265  -19.0200   17.3317 H   0  0  0  0  0  0
  -31.1451  -20.3075   17.9829 H   0  0  0  0  0  0
  -29.3867  -20.4894   17.9472 H   0  0  0  0  0  0
  -28.2449  -22.2896   21.0155 H   0  0  0  0  0  0
  -28.6599  -22.2711   19.3300 H   0  0  0  0  0  0
  -30.1798  -24.3044   19.7056 H   0  0  0  0  0  0
  -29.7099  -24.3287   21.3795 H   0  0  0  0  0  0
  -27.3179  -24.7793   20.6573 H   0  0  0  0  0  0
  -27.8674  -24.8452   18.9956 H   0  0  0  0  0  0
  -32.0452  -21.3009   21.0933 H   0  0  0  0  0  0
  -29.0688  -15.3402   21.5033 H   0  0  0  0  0  0
  1 25  1  0  0  0
  1 30  2  0  0  0
  1 83  1  0  0  0
  2  3  1  0  0  0
  2 25  1  0  0  0
  2 84  1  0  0  0
  2 85  1  0  0  0
  3  4  1  0  0  0
  3 86  1  0  0  0
  3 87  1  0  0  0
  4  5  1  0  0  0
  4 88  1  0  0  0
  4 89  1  0  0  0
  5  6  1  0  0  0
  5 26  1  0  0  0
  5 90  1  0  0  0
  6 25  1  0  0  0
  6 91  1  0  0  0
  6 92  1  0  0  0
  7  8  2  0  0  0
  7 26  1  0  0  0
  7 29  1  0  0  0
  8  9  1  0  0  0
  8 22  1  0  0  0
  9 10  1  0  0  0
  9 27  2  0  0  0
 10 11  2  0  0  0
 10 15  1  0  0  0
 11 12  1  0  0  0
 11 93  1  0  0  0
 12 13  2  0  0  0
 12 94  1  0  0  0
 13 14  1  0  0  0
 13 31  1  0  0  0
 14 15  2  0  0  0
 14 95  1  0  0  0
 15 96  1  0  0  0
 16 17  2  0  0  0
 16 21  1  0  0  0
 16 31  1  0  0  0
 17 18  1  0  0  0
 17 97  1  0  0  0
 18 19  2  0  0  0
 18 98  1  0  0  0
 19 20  1  0  0  0
 19 24  1  0  0  0
 20 21  2  0  0  0
 20 99  1  0  0  0
 21 23  1  0  0  0
 22 28  1  0  0  0
 22 32  2  0  0  0
 26 27  1  0  0  0
 28100  1  0  0  0
 28101  1  0  0  0
 29102  1  0  0  0
 29103  1  0  0  0
 33 34  1  0  0  0
 33 66  1  0  0  0
 33 70  2  0  0  0
 34 36  1  0  0  0
 34 59  1  0  0  0
 34104  1  0  0  0
 35 44  2  0  0  0
 35 45  1  0  0  0
 35 68  1  0  0  0
 36 56  1  0  0  0
 36105  1  0  0  0
 37 39  1  0  0  0
 37 47  1  0  0  0
 37 66  1  0  0  0
 37106  1  0  0  0
 38 43  2  0  0  0
 38 46  1  0  0  0
 38 47  1  0  0  0
 39 64  1  0  0  0
 39 67  2  0  0  0
 40 52  1  0  0  0
 40 53  2  0  0  0
 40 58  1  0  0  0
 41107  1  0  0  0
 41108  1  0  0  0
 41109  1  0  0  0
 41 48  1  0  0  0
 42 43  1  0  0  0
 42 66  1  0  0  0
 42110  1  0  0  0
 42111  1  0  0  0
 43 44  1  0  0  0
 44112  1  0  0  0
 45 46  2  0  0  0
 45113  1  0  0  0
 46114  1  0  0  0
 47115  1  0  0  0
 47116  1  0  0  0
 48 56  1  0  0  0
 48 65  1  0  0  0
 48117  1  0  0  0
 49 50  1  0  0  0
 49 53  1  0  0  0
 49 64  1  0  0  0
 49118  1  0  0  0
 50 51  1  0  0  0
 50119  1  0  0  0
 50120  1  0  0  0
 51 52  1  0  0  0
 51121  1  0  0  0
 51122  1  0  0  0
 52123  1  0  0  0
 52124  1  0  0  0
 53 54  1  0  0  0
 54 55  2  0  0  0
 54125  1  0  0  0
 55 57  1  0  0  0
 55126  1  0  0  0
 56 69  2  0  0  0
 57 58  2  0  0  0
 57127  1  0  0  0
 58128  1  0  0  0
 59 60  1  0  0  0
 59 61  1  0  0  0
 59 62  1  0  0  0
 60129  1  0  0  0
 60130  1  0  0  0
 60131  1  0  0  0
 61132  1  0  0  0
 61133  1  0  0  0
 61134  1  0  0  0
 62135  1  0  0  0
 62136  1  0  0  0
 62137  1  0  0  0
 63 65  1  0  0  0
 63138  1  0  0  0
 63139  1  0  0  0
 63140  1  0  0  0
 64141  1  0  0  0
 65142  1  0  0  0
 68 81  1  0  0  0
 71 72  2  0  0  0
 71 74  1  0  0  0
 71143  1  0  0  0
 72 76  1  0  0  0
 72144  1  0  0  0
 73 75  1  0  0  0
 73 76  2  0  0  0
 73145  1  0  0  0
 74 75  2  0  0  0
 74 77  1  0  0  0
 75 78  1  0  0  0
 76 83  1  0  0  0
 77 79  1  0  0  0
 77 82  2  0  0  0
 78146  1  0  0  0
 78147  1  0  0  0
 78148  1  0  0  0
 79 80  1  0  0  0
 79149  1  0  0  0
 79150  1  0  0  0
 80 81  1  0  0  0
 80151  1  0  0  0
 80152  1  0  0  0
 81153  1  0  0  0
 81154  1  0  0  0
 82155  1  0  0  0
 83156  1  0  0  0
M  ISO  4   1 100  68 101  81 101  83 100
M  END
> <chiral flag>
0

> <version>
0

> <s_m_source_file>
/data/baiqing/PycharmProjects/Reinvent-master-3.2/result/LINK_invent/BTK/process_docking_weight1_custom_product_contain_oxygen_bond_distance_aromatic_linkinvent_7_9_3/rearranged_h_0138.sdf

> <i_m_source_file_index>
26

> <r_mmod_Potential_Energy-OPLS-2005>
37.9582061767578

> <r_mmod_Stretch_Energy-OPLS-2005>
73.2979431152344

> <r_mmod_Bend_Energy-OPLS-2005>
122.015518188477

> <r_mmod_Torsional_Energy-OPLS-2005>
250.190948486328

> <r_mmod_Improper_Torsional_Energy-OPLS-2005>
3.82645177841187

> <r_mmod_Van_der_Waal_Energy-OPLS-2005>
145.012512207031

> <r_mmod_Electrostatic_Energy-OPLS-2005>
-377.066558837891

> <r_mmod_Solvation_Energy-OPLS-2005>
-217.654174804688

> <b_mmod_Minimization_Converged-OPLS-2005>
0

> <r_mmod_RMS_Derivative-OPLS-2005>
2.59548497200012

$$$$
26
                    3D
 Structure written by MMmdl.
157166  0  0  1  0            999 V2000
  -30.5360  -14.7898   20.4688 C   0  0  0  0  0  0
  -30.4572  -12.4852   19.4671 C   0  0  0  0  0  0
  -29.5195  -12.5273   18.2365 C   0  0  0  0  0  0
  -28.0455  -12.3357   18.6500 C   0  0  0  0  0  0
  -27.6498  -13.2216   19.8601 C   0  0  2  0  0  0
  -28.6974  -13.1175   20.9916 C   0  0  0  0  0  0
  -25.2548  -13.8170   20.5691 C   0  0  0  0  0  0
  -24.1824  -13.0433   20.9209 C   0  0  0  0  0  0
  -24.6399  -11.6904   20.8746 C   0  0  0  0  0  0
  -23.9064  -10.4288   21.0408 C   0  0  0  0  0  0
  -24.3615   -9.4204   21.9184 C   0  0  0  0  0  0
  -23.6288   -8.2239   22.0753 C   0  0  0  0  0  0
  -22.4269   -8.0279   21.3545 C   0  0  0  0  0  0
  -21.9905   -9.0254   20.4648 C   0  0  0  0  0  0
  -22.7236  -10.2132   20.3058 C   0  0  0  0  0  0
  -21.6852   -6.0733   22.5279 C   0  0  0  0  0  0
  -21.4015   -6.5636   23.8211 C   0  0  0  0  0  0
  -21.3659   -5.6789   24.9173 C   0  0  0  0  0  0
  -21.6046   -4.3053   24.7224 C   0  0  0  0  0  0
  -21.8819   -3.8144   23.4344 C   0  0  0  0  0  0
  -21.9191   -4.6962   22.3402 C   0  0  0  0  0  0
  -22.7845  -13.5226   21.1863 C   0  0  0  0  0  0
  -22.1660   -4.2147   21.0980 F   0  0  0  0  0  0
  -21.5627   -3.4538   25.7736 F   0  0  0  0  0  0
  -29.9960  -13.5182   20.4242 N   0  0  0  0  0  0
  -26.2977  -12.9352   20.3305 N   0  0  0  0  0  0
  -25.9331  -11.6506   20.5758 N   0  0  0  0  0  0
  -22.0481  -12.8223   22.0420 N   0  0  0  0  0  0
  -25.4244  -15.1894   20.4084 N   0  0  0  0  0  0
  -31.6983  -14.9824   20.0942 O   0  0  0  0  0  0
  -21.6634   -6.8876   21.4240 O   0  0  0  0  0  0
  -22.3534  -14.5536   20.6713 O   0  0  0  0  0  0
  -24.6333  -31.8514   23.1952 C   0  0  0  0  0  0
  -25.9146  -32.4735   23.8312 C   0  0  1  0  0  0
  -27.2276  -27.2322   20.1354 C   0  0  0  0  0  0
  -25.5929  -33.8541   24.2233 N   0  0  0  0  0  0
  -23.4326  -30.4733   21.5378 C   0  0  2  0  0  0
  -24.8831  -28.9139   20.1104 C   0  0  0  0  0  0
  -22.7514  -29.4575   22.4875 C   0  0  0  0  0  0
  -18.0298  -28.1391   22.8466 C   0  0  0  0  0  0
  -24.1488  -36.7275   23.2641 C   0  0  0  0  0  0
  -25.9817  -30.7561   21.3797 C   0  0  0  0  0  0
  -26.0560  -29.3763   20.7199 C   0  0  0  0  0  0
  -27.2304  -28.5503   20.7159 C   0  0  0  0  0  0
  -26.0273  -26.8418   19.5003 C   0  0  0  0  0  0
  -24.8758  -27.6563   19.4877 C   0  0  0  0  0  0
  -23.6546  -29.8053   20.1554 C   0  0  0  0  0  0
  -25.4115  -36.3052   24.0322 C   0  0  1  0  0  0
  -20.5903  -28.3700   23.1252 C   0  0  2  0  0  0
  -20.6784  -26.9412   22.5405 C   0  0  0  0  0  0
  -19.5766  -26.6379   21.5203 C   0  0  0  0  0  0
  -18.1940  -26.7932   22.1607 C   0  0  0  0  0  0
  -19.1553  -28.8861   23.2855 C   0  0  0  0  0  0
  -18.9479  -30.1460   23.8879 C   0  0  0  0  0  0
  -17.6481  -30.6590   24.0555 C   0  0  0  0  0  0
  -25.9057  -34.9427   23.5079 C   0  0  0  0  0  0
  -16.5369  -29.9082   23.6336 C   0  0  0  0  0  0
  -16.7283  -28.6505   23.0340 C   0  0  0  0  0  0
  -26.4509  -31.6580   25.0720 C   0  0  0  0  0  0
  -25.3715  -31.3754   26.1435 C   0  0  0  0  0  0
  -27.0364  -30.2986   24.6238 C   0  0  0  0  0  0
  -27.6056  -32.4340   25.7492 C   0  0  0  0  0  0
  -27.5580  -37.1788   24.8461 C   0  0  0  0  0  0
  -21.4215  -29.3043   22.3633 N   0  0  0  0  0  0
  -26.4288  -37.3753   23.9413 N   0  0  0  0  0  0
  -24.7014  -31.0455   22.0936 N   0  0  0  0  0  0
  -23.4203  -28.8106   23.2974 O   0  0  0  0  0  0
  -28.3248  -26.3281   20.1918 O   0  0  0  0  0  0
  -26.5630  -34.8905   22.4648 O   0  0  0  0  0  0
  -23.5478  -32.1346   23.7233 O   0  0  0  0  0  0
  -30.1819  -18.4264   20.1465 C   0  0  0  0  0  0
  -28.3919  -17.8879   21.3253 C   0  0  0  0  0  0
  -29.4869  -17.2924   20.7539 C   0  0  0  0  0  0
  -29.4544  -19.6195   20.3767 C   0  0  0  0  0  0
  -29.5155  -21.0985   19.9789 C   0  0  0  0  0  0
  -29.0119  -23.3509   22.7949 C   0  0  0  0  0  0
  -29.8858  -24.1295   21.7988 C   0  0  0  0  0  0
  -28.5542  -22.0865   22.0450 C   0  0  0  0  0  0
  -29.3088  -23.7565   20.4292 C   0  0  2  0  0  0
  -28.1041  -24.8234   20.1187 C   0  0  0  0  0  0
  -29.0497  -22.2381   20.6705 N   0  0  0  0  0  0
  -29.6515  -15.8027   20.8261 N   0  0  0  0  0  0
  -30.1108  -21.3279   18.7986 N   0  3  0  0  0  0
  -28.3554  -19.2491   21.1054 O   0  0  0  0  0  0
  -31.4908  -12.6521   19.1593 H   0  0  0  0  0  0
  -30.4394  -11.4990   19.9332 H   0  0  0  0  0  0
  -29.8080  -11.7617   17.5152 H   0  0  0  0  0  0
  -29.6315  -13.4846   17.7250 H   0  0  0  0  0  0
  -27.9078  -11.2840   18.9034 H   0  0  0  0  0  0
  -27.3854  -12.5329   17.8045 H   0  0  0  0  0  0
  -27.6511  -14.2488   19.4959 H   0  0  0  0  0  0
  -28.7482  -12.0976   21.3759 H   0  0  0  0  0  0
  -28.4192  -13.7395   21.8438 H   0  0  0  0  0  0
  -25.2759   -9.5675   22.4757 H   0  0  0  0  0  0
  -23.9996   -7.4629   22.7472 H   0  0  0  0  0  0
  -21.0835   -8.8776   19.8954 H   0  0  0  0  0  0
  -22.3695  -10.9672   19.6168 H   0  0  0  0  0  0
  -21.2010   -7.6144   23.9717 H   0  0  0  0  0  0
  -21.1482   -6.0517   25.9076 H   0  0  0  0  0  0
  -22.0599   -2.7606   23.2846 H   0  0  0  0  0  0
  -22.4081  -11.9878   22.4808 H   0  0  0  0  0  0
  -21.1105  -13.1262   22.2636 H   0  0  0  0  0  0
  -24.6451  -15.8329   20.4939 H   0  0  0  0  0  0
  -26.2519  -15.6221   20.0188 H   0  0  0  0  0  0
  -26.7206  -32.5379   23.1046 H   0  0  0  0  0  0
  -25.0081  -33.9676   25.0381 H   0  0  0  0  0  0
  -22.7309  -31.2962   21.3882 H   0  0  0  0  0  0
  -23.3754  -35.9603   23.3292 H   0  0  0  0  0  0
  -24.3571  -36.8911   22.2056 H   0  0  0  0  0  0
  -23.7244  -37.6469   23.6682 H   0  0  0  0  0  0
  -26.1250  -31.5165   20.6111 H   0  0  0  0  0  0
  -26.8573  -30.8034   22.0161 H   0  0  0  0  0  0
  -28.1286  -28.9005   21.2046 H   0  0  0  0  0  0
  -25.9503  -25.8796   19.0173 H   0  0  0  0  0  0
  -23.9791  -27.2962   19.0029 H   0  0  0  0  0  0
  -23.7826  -30.5821   19.4006 H   0  0  0  0  0  0
  -22.7723  -29.2412   19.8463 H   0  0  0  0  0  0
  -25.1298  -36.1891   25.0815 H   0  0  0  0  0  0
  -21.0004  -28.3293   24.1364 H   0  0  0  0  0  0
  -20.5662  -26.2311   23.3615 H   0  0  0  0  0  0
  -21.6654  -26.7410   22.1214 H   0  0  0  0  0  0
  -19.6929  -25.6279   21.1249 H   0  0  0  0  0  0
  -19.6727  -27.3175   20.6724 H   0  0  0  0  0  0
  -17.4213  -26.6679   21.4005 H   0  0  0  0  0  0
  -18.0334  -26.0072   22.9002 H   0  0  0  0  0  0
  -19.7956  -30.7275   24.2245 H   0  0  0  0  0  0
  -17.5035  -31.6266   24.5161 H   0  0  0  0  0  0
  -15.5367  -30.2980   23.7677 H   0  0  0  0  0  0
  -15.8678  -28.0829   22.7056 H   0  0  0  0  0  0
  -24.5916  -30.7067   25.7778 H   0  0  0  0  0  0
  -24.8880  -32.2931   26.4799 H   0  0  0  0  0  0
  -25.8022  -30.8992   27.0254 H   0  0  0  0  0  0
  -26.2956  -29.6725   24.1251 H   0  0  0  0  0  0
  -27.4012  -29.7264   25.4780 H   0  0  0  0  0  0
  -27.8846  -30.4244   23.9505 H   0  0  0  0  0  0
  -27.2662  -33.3662   26.2027 H   0  0  0  0  0  0
  -28.3890  -32.6873   25.0334 H   0  0  0  0  0  0
  -28.0701  -31.8496   26.5447 H   0  0  0  0  0  0
  -28.2581  -38.0098   24.7505 H   0  0  0  0  0  0
  -28.1093  -36.2627   24.6289 H   0  0  0  0  0  0
  -27.2301  -37.1432   25.8864 H   0  0  0  0  0  0
  -20.9402  -29.8776   21.6848 H   0  0  0  0  0  0
  -26.0163  -38.2821   24.1431 H   0  0  0  0  0  0
  -31.0950  -18.3768   19.5712 H   0  0  0  0  0  0
  -27.5489  -17.5091   21.8883 H   0  0  0  0  0  0
  -28.1437  -23.9409   23.0921 H   0  0  0  0  0  0
  -29.5659  -23.1091   23.7022 H   0  0  0  0  0  0
  -30.9246  -23.8023   21.8641 H   0  0  0  0  0  0
  -29.8719  -25.2019   21.9977 H   0  0  0  0  0  0
  -27.4705  -21.9691   22.0554 H   0  0  0  0  0  0
  -28.9997  -21.2086   22.5113 H   0  0  0  0  0  0
  -30.0831  -23.8798   19.6732 H   0  0  0  0  0  0
  -27.2647  -24.5847   20.7736 H   0  0  0  0  0  0
  -27.7569  -24.6013   19.1098 H   0  0  0  0  0  0
  -28.8194  -15.3613   21.1881 H   0  0  0  0  0  0
  -30.4580  -20.5526   18.2543 H   0  0  0  0  0  0
  -30.2115  -22.2532   18.4142 H   0  0  0  0  0  0
  1 25  1  0  0  0
  1 30  2  0  0  0
  1 82  1  0  0  0
  2  3  1  0  0  0
  2 25  1  0  0  0
  2 85  1  0  0  0
  2 86  1  0  0  0
  3  4  1  0  0  0
  3 87  1  0  0  0
  3 88  1  0  0  0
  4  5  1  0  0  0
  4 89  1  0  0  0
  4 90  1  0  0  0
  5  6  1  0  0  0
  5 26  1  0  0  0
  5 91  1  0  0  0
  6 25  1  0  0  0
  6 92  1  0  0  0
  6 93  1  0  0  0
  7  8  2  0  0  0
  7 26  1  0  0  0
  7 29  1  0  0  0
  8  9  1  0  0  0
  8 22  1  0  0  0
  9 10  1  0  0  0
  9 27  2  0  0  0
 10 11  2  0  0  0
 10 15  1  0  0  0
 11 12  1  0  0  0
 11 94  1  0  0  0
 12 13  2  0  0  0
 12 95  1  0  0  0
 13 14  1  0  0  0
 13 31  1  0  0  0
 14 15  2  0  0  0
 14 96  1  0  0  0
 15 97  1  0  0  0
 16 17  2  0  0  0
 16 21  1  0  0  0
 16 31  1  0  0  0
 17 18  1  0  0  0
 17 98  1  0  0  0
 18 19  2  0  0  0
 18 99  1  0  0  0
 19 20  1  0  0  0
 19 24  1  0  0  0
 20 21  2  0  0  0
 20100  1  0  0  0
 21 23  1  0  0  0
 22 28  1  0  0  0
 22 32  2  0  0  0
 26 27  1  0  0  0
 28101  1  0  0  0
 28102  1  0  0  0
 29103  1  0  0  0
 29104  1  0  0  0
 33 34  1  0  0  0
 33 66  1  0  0  0
 33 70  2  0  0  0
 34 36  1  0  0  0
 34 59  1  0  0  0
 34105  1  0  0  0
 35 44  2  0  0  0
 35 45  1  0  0  0
 35 68  1  0  0  0
 36 56  1  0  0  0
 36106  1  0  0  0
 37 39  1  0  0  0
 37 47  1  0  0  0
 37 66  1  0  0  0
 37107  1  0  0  0
 38 43  2  0  0  0
 38 46  1  0  0  0
 38 47  1  0  0  0
 39 64  1  0  0  0
 39 67  2  0  0  0
 40 52  1  0  0  0
 40 53  2  0  0  0
 40 58  1  0  0  0
 41108  1  0  0  0
 41109  1  0  0  0
 41110  1  0  0  0
 41 48  1  0  0  0
 42 43  1  0  0  0
 42 66  1  0  0  0
 42111  1  0  0  0
 42112  1  0  0  0
 43 44  1  0  0  0
 44113  1  0  0  0
 45 46  2  0  0  0
 45114  1  0  0  0
 46115  1  0  0  0
 47116  1  0  0  0
 47117  1  0  0  0
 48 56  1  0  0  0
 48 65  1  0  0  0
 48118  1  0  0  0
 49 50  1  0  0  0
 49 53  1  0  0  0
 49 64  1  0  0  0
 49119  1  0  0  0
 50 51  1  0  0  0
 50120  1  0  0  0
 50121  1  0  0  0
 51 52  1  0  0  0
 51122  1  0  0  0
 51123  1  0  0  0
 52124  1  0  0  0
 52125  1  0  0  0
 53 54  1  0  0  0
 54 55  2  0  0  0
 54126  1  0  0  0
 55 57  1  0  0  0
 55127  1  0  0  0
 56 69  2  0  0  0
 57 58  2  0  0  0
 57128  1  0  0  0
 58129  1  0  0  0
 59 60  1  0  0  0
 59 61  1  0  0  0
 59 62  1  0  0  0
 60130  1  0  0  0
 60131  1  0  0  0
 60132  1  0  0  0
 61133  1  0  0  0
 61134  1  0  0  0
 61135  1  0  0  0
 62136  1  0  0  0
 62137  1  0  0  0
 62138  1  0  0  0
 63 65  1  0  0  0
 63139  1  0  0  0
 63140  1  0  0  0
 63141  1  0  0  0
 64142  1  0  0  0
 65143  1  0  0  0
 68 80  1  0  0  0
 71 73  1  0  0  0
 71 74  2  0  0  0
 71144  1  0  0  0
 72 73  2  0  0  0
 72 84  1  0  0  0
 72145  1  0  0  0
 73 82  1  0  0  0
 74 75  1  0  0  0
 74 84  1  0  0  0
 75 81  1  0  0  0
 75 83  2  0  0  0
 76 77  1  0  0  0
 76 78  1  0  0  0
 76146  1  0  0  0
 76147  1  0  0  0
 77 79  1  0  0  0
 77148  1  0  0  0
 77149  1  0  0  0
 78 81  1  0  0  0
 78150  1  0  0  0
 78151  1  0  0  0
 79 80  1  0  0  0
 79 81  1  0  0  0
 79152  1  0  0  0
 80153  1  0  0  0
 80154  1  0  0  0
 82155  1  0  0  0
 83156  1  0  0  0
 83157  1  0  0  0
M  CHG  1  83   1
M  ISO  4   1 100  68 101  80 101  82 100
M  END
> <chiral flag>
0

> <version>
0

> <s_m_source_file>
/data/baiqing/PycharmProjects/Reinvent-master-3.2/result/LINK_invent/BTK/process_docking_weight1_custom_product_contain_oxygen_bond_distance_aromatic_linkinvent_7_9_3/rearranged_h_0138.sdf

> <i_m_source_file_index>
27

> <r_mmod_Potential_Energy-OPLS-2005>
223.004852294922

> <r_mmod_Stretch_Energy-OPLS-2005>
146.222259521484

> <r_mmod_Bend_Energy-OPLS-2005>
259.422119140625

> <r_mmod_Torsional_Energy-OPLS-2005>
286.422882080078

> <r_mmod_Improper_Torsional_Energy-OPLS-2005>
4.86960601806641

> <r_mmod_Van_der_Waal_Energy-OPLS-2005>
113.853324890137

> <r_mmod_Electrostatic_Energy-OPLS-2005>
-242.818435668945

> <r_mmod_Solvation_Energy-OPLS-2005>
-450.108215332031

> <b_mmod_Minimization_Converged-OPLS-2005>
0

> <r_mmod_RMS_Derivative-OPLS-2005>
1.1110919713974

$$$$
27
                    3D
 Structure written by MMmdl.
174182  0  0  1  0            999 V2000
  -30.5670  -14.8448   20.4241 C   0  0  0  0  0  0
  -30.4483  -12.5135   19.4732 C   0  0  0  0  0  0
  -29.5144  -12.5278   18.2386 C   0  0  0  0  0  0
  -28.0419  -12.3372   18.6508 C   0  0  0  0  0  0
  -27.6439  -13.2370   19.8488 C   0  0  2  0  0  0
  -28.6994  -13.1974   20.9782 C   0  0  0  0  0  0
  -25.2506  -13.8226   20.5662 C   0  0  0  0  0  0
  -24.1808  -13.0444   20.9193 C   0  0  0  0  0  0
  -24.6436  -11.6932   20.8767 C   0  0  0  0  0  0
  -23.9106  -10.4295   21.0425 C   0  0  0  0  0  0
  -24.3636   -9.4198   21.9194 C   0  0  0  0  0  0
  -23.6288   -8.2245   22.0778 C   0  0  0  0  0  0
  -22.4273   -8.0292   21.3562 C   0  0  0  0  0  0
  -21.9924   -9.0274   20.4660 C   0  0  0  0  0  0
  -22.7288  -10.2138   20.3060 C   0  0  0  0  0  0
  -21.6853   -6.0717   22.5265 C   0  0  0  0  0  0
  -21.4032   -6.5624   23.8193 C   0  0  0  0  0  0
  -21.3661   -5.6787   24.9161 C   0  0  0  0  0  0
  -21.6033   -4.3045   24.7232 C   0  0  0  0  0  0
  -21.8820   -3.8131   23.4358 C   0  0  0  0  0  0
  -21.9200   -4.6940   22.3404 C   0  0  0  0  0  0
  -22.7828  -13.5212   21.1815 C   0  0  0  0  0  0
  -22.1654   -4.2111   21.0990 F   0  0  0  0  0  0
  -21.5627   -3.4547   25.7756 F   0  0  0  0  0  0
  -29.9900  -13.5845   20.3895 N   0  0  0  0  0  0
  -26.2963  -12.9432   20.3297 N   0  0  0  0  0  0
  -25.9376  -11.6568   20.5795 N   0  0  0  0  0  0
  -22.0479  -12.8209   22.0387 N   0  0  0  0  0  0
  -25.4219  -15.1946   20.4023 N   0  0  0  0  0  0
  -31.7621  -14.9651   20.1326 O   0  0  0  0  0  0
  -21.6639   -6.8890   21.4238 O   0  0  0  0  0  0
  -22.3497  -14.5521   20.6684 O   0  0  0  0  0  0
  -24.6367  -31.8430   23.1885 C   0  0  0  0  0  0
  -25.9126  -32.4685   23.8255 C   0  0  1  0  0  0
  -27.2394  -27.1852   20.1408 C   0  0  0  0  0  0
  -25.5844  -33.8493   24.2147 N   0  0  0  0  0  0
  -23.4401  -30.4624   21.5338 C   0  0  2  0  0  0
  -24.8934  -28.8954   20.1025 C   0  0  0  0  0  0
  -22.7548  -29.4494   22.4828 C   0  0  0  0  0  0
  -18.0302  -28.1364   22.8400 C   0  0  0  0  0  0
  -24.1513  -36.7328   23.2660 C   0  0  0  0  0  0
  -25.9881  -30.7308   21.3804 C   0  0  0  0  0  0
  -26.0633  -29.3444   20.7276 C   0  0  0  0  0  0
  -27.2284  -28.4995   20.7385 C   0  0  0  0  0  0
  -26.0419  -26.8195   19.4785 C   0  0  0  0  0  0
  -24.8923  -27.6450   19.4646 C   0  0  0  0  0  0
  -23.6702  -29.8007   20.1493 C   0  0  0  0  0  0
  -25.4106  -36.3036   24.0354 C   0  0  1  0  0  0
  -20.5909  -28.3661   23.1198 C   0  0  2  0  0  0
  -20.6781  -26.9354   22.5380 C   0  0  0  0  0  0
  -19.5776  -26.6323   21.5177 C   0  0  0  0  0  0
  -18.1945  -26.7879   22.1587 C   0  0  0  0  0  0
  -19.1569  -28.8825   23.2768 C   0  0  0  0  0  0
  -18.9506  -30.1421   23.8784 C   0  0  0  0  0  0
  -17.6508  -30.6545   24.0538 C   0  0  0  0  0  0
  -25.9043  -34.9408   23.5085 C   0  0  0  0  0  0
  -16.5385  -29.9038   23.6323 C   0  0  0  0  0  0
  -16.7300  -28.6493   23.0263 C   0  0  0  0  0  0
  -26.4452  -31.6569   25.0706 C   0  0  0  0  0  0
  -25.3590  -31.3841   26.1398 C   0  0  0  0  0  0
  -27.0318  -30.2966   24.6264 C   0  0  0  0  0  0
  -27.5940  -32.4371   25.7460 C   0  0  0  0  0  0
  -27.5590  -37.1815   24.8461 C   0  0  0  0  0  0
  -21.4239  -29.3009   22.3614 N   0  0  0  0  0  0
  -26.4299  -37.3744   23.9416 N   0  0  0  0  0  0
  -24.7072  -31.0332   22.0913 N   0  0  0  0  0  0
  -23.4189  -28.7995   23.2937 O   0  0  0  0  0  0
  -28.3485  -26.2809   20.2397 O   0  0  0  0  0  0
  -26.5697  -34.8910   22.4707 O   0  0  0  0  0  0
  -23.5509  -32.1272   23.7188 O   0  0  0  0  0  0
  -28.6255  -18.2228   20.1763 C   0  0  0  0  0  0
  -30.9062  -18.2949   20.6718 C   0  0  0  0  0  0
  -28.5872  -19.6638   20.0611 C   0  0  0  0  0  0
  -30.9288  -19.7608   20.6311 C   0  0  0  0  0  0
  -29.7148  -20.5439   20.2919 C   0  0  0  0  0  0
  -29.7836  -17.4518   20.4587 C   0  0  0  0  0  0
  -27.2610  -20.2279   19.5764 C   0  0  0  0  0  0
  -32.7225  -18.7225   23.1312 C   0  0  0  0  0  0
  -32.6120  -21.8028   20.7208 C   0  0  0  0  0  0
  -33.4434  -19.6513   20.0756 C   0  0  0  0  0  0
  -28.2464  -23.1841   21.8845 C   0  0  0  0  0  0
  -30.3688  -24.2902   21.2517 C   0  0  0  0  0  0
  -29.5875  -22.1586   19.8647 C   0  0  0  0  0  0
  -32.6702  -20.1372   22.5141 C   0  0  0  0  0  0
  -28.3533  -24.7916   19.8374 C   0  0  0  0  0  0
  -32.3618  -20.3126   20.9805 C   0  0  0  0  0  0
  -29.1226  -23.5690   20.6814 C   0  0  0  0  0  0
  -29.7094  -15.9424   20.5701 N   0  0  0  0  0  0
  -31.4852  -12.6601   19.1642 H   0  0  0  0  0  0
  -30.4209  -11.5466   19.9778 H   0  0  0  0  0  0
  -29.8129  -11.7593   17.5240 H   0  0  0  0  0  0
  -29.6170  -13.4815   17.7187 H   0  0  0  0  0  0
  -27.8962  -11.2894   18.9083 H   0  0  0  0  0  0
  -27.3897  -12.5386   17.8010 H   0  0  0  0  0  0
  -27.6274  -14.2526   19.4534 H   0  0  0  0  0  0
  -28.7648  -12.2007   21.4182 H   0  0  0  0  0  0
  -28.4313  -13.8798   21.7867 H   0  0  0  0  0  0
  -25.2794   -9.5629   22.4753 H   0  0  0  0  0  0
  -23.9963   -7.4640   22.7522 H   0  0  0  0  0  0
  -21.0843   -8.8819   19.8985 H   0  0  0  0  0  0
  -22.3775  -10.9667   19.6137 H   0  0  0  0  0  0
  -21.2036   -7.6135   23.9691 H   0  0  0  0  0  0
  -21.1476   -6.0523   25.9060 H   0  0  0  0  0  0
  -22.0607   -2.7589   23.2882 H   0  0  0  0  0  0
  -22.4092  -11.9834   22.4704 H   0  0  0  0  0  0
  -21.1116  -13.1249   22.2659 H   0  0  0  0  0  0
  -24.6590  -15.8568   20.5092 H   0  0  0  0  0  0
  -26.2626  -15.6252   20.0438 H   0  0  0  0  0  0
  -26.7160  -32.5313   23.0939 H   0  0  0  0  0  0
  -24.9775  -33.9574   25.0143 H   0  0  0  0  0  0
  -22.7429  -31.2877   21.3834 H   0  0  0  0  0  0
  -23.3744  -35.9704   23.3294 H   0  0  0  0  0  0
  -24.3602  -36.9029   22.2094 H   0  0  0  0  0  0
  -23.7311  -37.6529   23.6721 H   0  0  0  0  0  0
  -26.1364  -31.4831   20.6057 H   0  0  0  0  0  0
  -26.8593  -30.7767   22.0212 H   0  0  0  0  0  0
  -28.1186  -28.8275   21.2612 H   0  0  0  0  0  0
  -25.9619  -25.8692   18.9737 H   0  0  0  0  0  0
  -24.0018  -27.3025   18.9526 H   0  0  0  0  0  0
  -23.8108  -30.5873   19.4060 H   0  0  0  0  0  0
  -22.7808  -29.2574   19.8292 H   0  0  0  0  0  0
  -25.1276  -36.1890   25.0853 H   0  0  0  0  0  0
  -20.9966  -28.3264   24.1326 H   0  0  0  0  0  0
  -20.5755  -26.2222   23.3583 H   0  0  0  0  0  0
  -21.6633  -26.7375   22.1150 H   0  0  0  0  0  0
  -19.6967  -25.6240   21.1205 H   0  0  0  0  0  0
  -19.6792  -27.3121   20.6700 H   0  0  0  0  0  0
  -17.4217  -26.6608   21.3984 H   0  0  0  0  0  0
  -18.0347  -26.0048   22.9018 H   0  0  0  0  0  0
  -19.8030  -30.7202   24.2124 H   0  0  0  0  0  0
  -17.5113  -31.6229   24.5135 H   0  0  0  0  0  0
  -15.5403  -30.2907   23.7710 H   0  0  0  0  0  0
  -15.8713  -28.0845   22.6912 H   0  0  0  0  0  0
  -24.5721  -30.7225   25.7759 H   0  0  0  0  0  0
  -24.8810  -32.3087   26.4657 H   0  0  0  0  0  0
  -25.7794  -30.9125   27.0286 H   0  0  0  0  0  0
  -26.2952  -29.6679   24.1253 H   0  0  0  0  0  0
  -27.3933  -29.7259   25.4826 H   0  0  0  0  0  0
  -27.8827  -30.4231   23.9566 H   0  0  0  0  0  0
  -27.2457  -33.3716   26.1856 H   0  0  0  0  0  0
  -28.3749  -32.6887   25.0266 H   0  0  0  0  0  0
  -28.0528  -31.8617   26.5517 H   0  0  0  0  0  0
  -28.2526  -38.0170   24.7404 H   0  0  0  0  0  0
  -28.1161  -36.2682   24.6328 H   0  0  0  0  0  0
  -27.2325  -37.1459   25.8872 H   0  0  0  0  0  0
  -20.9411  -29.8896   21.6978 H   0  0  0  0  0  0
  -26.0219  -38.2854   24.1338 H   0  0  0  0  0  0
  -27.7100  -17.6759   19.9946 H   0  0  0  0  0  0
  -31.8044  -17.7535   20.9117 H   0  0  0  0  0  0
  -26.4566  -19.4930   19.6380 H   0  0  0  0  0  0
  -27.3463  -20.5211   18.5296 H   0  0  0  0  0  0
  -26.9503  -21.0960   20.1545 H   0  0  0  0  0  0
  -33.1172  -18.7712   24.1469 H   0  0  0  0  0  0
  -33.3758  -18.0564   22.5703 H   0  0  0  0  0  0
  -31.7361  -18.2618   23.2162 H   0  0  0  0  0  0
  -32.5311  -22.0846   19.6728 H   0  0  0  0  0  0
  -33.6152  -22.1148   21.0308 H   0  0  0  0  0  0
  -31.9352  -22.3704   21.3294 H   0  0  0  0  0  0
  -33.2263  -19.8396   19.0210 H   0  0  0  0  0  0
  -33.5566  -18.5737   20.1839 H   0  0  0  0  0  0
  -34.4367  -20.0693   20.2608 H   0  0  0  0  0  0
  -28.7590  -22.4756   22.5389 H   0  0  0  0  0  0
  -27.3055  -22.7389   21.5733 H   0  0  0  0  0  0
  -27.9907  -24.0603   22.4815 H   0  0  0  0  0  0
  -30.6963  -23.8354   22.1879 H   0  0  0  0  0  0
  -30.1765  -25.3342   21.5031 H   0  0  0  0  0  0
  -31.1974  -24.3078   20.5399 H   0  0  0  0  0  0
  -28.8595  -22.1323   19.0553 H   0  0  0  0  0  0
  -30.4721  -22.4000   19.2878 H   0  0  0  0  0  0
  -33.6327  -20.6002   22.7450 H   0  0  0  0  0  0
  -31.9359  -20.7022   23.0940 H   0  0  0  0  0  0
  -27.3349  -24.4455   19.6832 H   0  0  0  0  0  0
  -28.7868  -24.8028   18.8361 H   0  0  0  0  0  0
  -28.7678  -15.6062   20.6998 H   0  0  0  0  0  0
  1 25  1  0  0  0
  1 30  2  0  0  0
  1 88  1  0  0  0
  2  3  1  0  0  0
  2 25  1  0  0  0
  2 89  1  0  0  0
  2 90  1  0  0  0
  3  4  1  0  0  0
  3 91  1  0  0  0
  3 92  1  0  0  0
  4  5  1  0  0  0
  4 93  1  0  0  0
  4 94  1  0  0  0
  5  6  1  0  0  0
  5 26  1  0  0  0
  5 95  1  0  0  0
  6 25  1  0  0  0
  6 96  1  0  0  0
  6 97  1  0  0  0
  7  8  2  0  0  0
  7 26  1  0  0  0
  7 29  1  0  0  0
  8  9  1  0  0  0
  8 22  1  0  0  0
  9 10  1  0  0  0
  9 27  2  0  0  0
 10 11  2  0  0  0
 10 15  1  0  0  0
 11 12  1  0  0  0
 11 98  1  0  0  0
 12 13  2  0  0  0
 12 99  1  0  0  0
 13 14  1  0  0  0
 13 31  1  0  0  0
 14 15  2  0  0  0
 14100  1  0  0  0
 15101  1  0  0  0
 16 17  2  0  0  0
 16 21  1  0  0  0
 16 31  1  0  0  0
 17 18  1  0  0  0
 17102  1  0  0  0
 18 19  2  0  0  0
 18103  1  0  0  0
 19 20  1  0  0  0
 19 24  1  0  0  0
 20 21  2  0  0  0
 20104  1  0  0  0
 21 23  1  0  0  0
 22 28  1  0  0  0
 22 32  2  0  0  0
 26 27  1  0  0  0
 28105  1  0  0  0
 28106  1  0  0  0
 29107  1  0  0  0
 29108  1  0  0  0
 33 34  1  0  0  0
 33 66  1  0  0  0
 33 70  2  0  0  0
 34 36  1  0  0  0
 34 59  1  0  0  0
 34109  1  0  0  0
 35 44  2  0  0  0
 35 45  1  0  0  0
 35 68  1  0  0  0
 36 56  1  0  0  0
 36110  1  0  0  0
 37 39  1  0  0  0
 37 47  1  0  0  0
 37 66  1  0  0  0
 37111  1  0  0  0
 38 43  2  0  0  0
 38 46  1  0  0  0
 38 47  1  0  0  0
 39 64  1  0  0  0
 39 67  2  0  0  0
 40 52  1  0  0  0
 40 53  2  0  0  0
 40 58  1  0  0  0
 41112  1  0  0  0
 41113  1  0  0  0
 41114  1  0  0  0
 41 48  1  0  0  0
 42 43  1  0  0  0
 42 66  1  0  0  0
 42115  1  0  0  0
 42116  1  0  0  0
 43 44  1  0  0  0
 44117  1  0  0  0
 45 46  2  0  0  0
 45118  1  0  0  0
 46119  1  0  0  0
 47120  1  0  0  0
 47121  1  0  0  0
 48 56  1  0  0  0
 48 65  1  0  0  0
 48122  1  0  0  0
 49 50  1  0  0  0
 49 53  1  0  0  0
 49 64  1  0  0  0
 49123  1  0  0  0
 50 51  1  0  0  0
 50124  1  0  0  0
 50125  1  0  0  0
 51 52  1  0  0  0
 51126  1  0  0  0
 51127  1  0  0  0
 52128  1  0  0  0
 52129  1  0  0  0
 53 54  1  0  0  0
 54 55  2  0  0  0
 54130  1  0  0  0
 55 57  1  0  0  0
 55131  1  0  0  0
 56 69  2  0  0  0
 57 58  2  0  0  0
 57132  1  0  0  0
 58133  1  0  0  0
 59 60  1  0  0  0
 59 61  1  0  0  0
 59 62  1  0  0  0
 60134  1  0  0  0
 60135  1  0  0  0
 60136  1  0  0  0
 61137  1  0  0  0
 61138  1  0  0  0
 61139  1  0  0  0
 62140  1  0  0  0
 62141  1  0  0  0
 62142  1  0  0  0
 63 65  1  0  0  0
 63143  1  0  0  0
 63144  1  0  0  0
 63145  1  0  0  0
 64146  1  0  0  0
 65147  1  0  0  0
 68 85  1  0  0  0
 71 73  2  0  0  0
 71 76  1  0  0  0
 71148  1  0  0  0
 72 74  1  0  0  0
 72 76  2  0  0  0
 72149  1  0  0  0
 73 75  1  0  0  0
 73 77  1  0  0  0
 74 75  2  0  0  0
 74 86  1  0  0  0
 75 83  1  0  0  0
 76 88  1  0  0  0
 77150  1  0  0  0
 77151  1  0  0  0
 77152  1  0  0  0
 78 84  1  0  0  0
 78153  1  0  0  0
 78154  1  0  0  0
 78155  1  0  0  0
 79156  1  0  0  0
 79157  1  0  0  0
 79158  1  0  0  0
 79 86  1  0  0  0
 80 86  1  0  0  0
 80159  1  0  0  0
 80160  1  0  0  0
 80161  1  0  0  0
 81162  1  0  0  0
 81163  1  0  0  0
 81164  1  0  0  0
 81 87  1  0  0  0
 82 87  1  0  0  0
 82165  1  0  0  0
 82166  1  0  0  0
 82167  1  0  0  0
 83 87  1  0  0  0
 83168  1  0  0  0
 83169  1  0  0  0
 84 86  1  0  0  0
 84170  1  0  0  0
 84171  1  0  0  0
 85 87  1  0  0  0
 85172  1  0  0  0
 85173  1  0  0  0
 88174  1  0  0  0
M  ISO  4   1 100  68 101  85 101  88 100
M  END
> <chiral flag>
0

> <version>
0

> <s_m_source_file>
/data/baiqing/PycharmProjects/Reinvent-master-3.2/result/LINK_invent/BTK/process_docking_weight1_custom_product_contain_oxygen_bond_distance_aromatic_linkinvent_7_9_3/rearranged_h_0138.sdf

> <i_m_source_file_index>
28

> <r_mmod_Potential_Energy-OPLS-2005>
488.795654296875

> <r_mmod_Stretch_Energy-OPLS-2005>
237.601440429688

> <r_mmod_Bend_Energy-OPLS-2005>
315.764434814453

> <r_mmod_Torsional_Energy-OPLS-2005>
237.098983764648

> <r_mmod_Improper_Torsional_Energy-OPLS-2005>
7.62891006469727

> <r_mmod_Van_der_Waal_Energy-OPLS-2005>
156.874237060547

> <r_mmod_Electrostatic_Energy-OPLS-2005>
-408.296661376953

> <r_mmod_Solvation_Energy-OPLS-2005>
-192.313522338867

> <b_mmod_Minimization_Converged-OPLS-2005>
0

> <r_mmod_RMS_Derivative-OPLS-2005>
6.20815324783325

$$$$
28
                    3D
 Structure written by MMmdl.
162170  0  0  1  0            999 V2000
  -30.5383  -14.9495   20.4500 C   0  0  0  0  0  0
  -30.4336  -12.5902   19.5092 C   0  0  0  0  0  0
  -29.5191  -12.5409   18.2663 C   0  0  0  0  0  0
  -28.0574  -12.3053   18.6852 C   0  0  0  0  0  0
  -27.6277  -13.2446   19.8442 C   0  0  2  0  0  0
  -28.6652  -13.2812   20.9871 C   0  0  0  0  0  0
  -25.2457  -13.8224   20.5665 C   0  0  0  0  0  0
  -24.1797  -13.0451   20.9211 C   0  0  0  0  0  0
  -24.6428  -11.6931   20.8776 C   0  0  0  0  0  0
  -23.9129  -10.4299   21.0443 C   0  0  0  0  0  0
  -24.3653   -9.4221   21.9221 C   0  0  0  0  0  0
  -23.6320   -8.2259   22.0778 C   0  0  0  0  0  0
  -22.4296   -8.0324   21.3562 C   0  0  0  0  0  0
  -21.9957   -9.0301   20.4641 C   0  0  0  0  0  0
  -22.7298  -10.2171   20.3081 C   0  0  0  0  0  0
  -21.6876   -6.0776   22.5288 C   0  0  0  0  0  0
  -21.4013   -6.5661   23.8228 C   0  0  0  0  0  0
  -21.3665   -5.6810   24.9191 C   0  0  0  0  0  0
  -21.6046   -4.3072   24.7233 C   0  0  0  0  0  0
  -21.8809   -3.8163   23.4342 C   0  0  0  0  0  0
  -21.9195   -4.6993   22.3405 C   0  0  0  0  0  0
  -22.7811  -13.5244   21.1864 C   0  0  0  0  0  0
  -22.1652   -4.2188   21.0970 F   0  0  0  0  0  0
  -21.5631   -3.4535   25.7724 F   0  0  0  0  0  0
  -29.9421  -13.6914   20.3896 N   0  0  0  0  0  0
  -26.2879  -12.9430   20.3257 N   0  0  0  0  0  0
  -25.9365  -11.6568   20.5784 N   0  0  0  0  0  0
  -22.0447  -12.8248   22.0394 N   0  0  0  0  0  0
  -25.4108  -15.1957   20.3935 N   0  0  0  0  0  0
  -31.7423  -14.9955   20.1717 O   0  0  0  0  0  0
  -21.6664   -6.8925   21.4257 O   0  0  0  0  0  0
  -22.3502  -14.5522   20.6702 O   0  0  0  0  0  0
  -24.6452  -31.8464   23.1801 C   0  0  0  0  0  0
  -25.9212  -32.4714   23.8234 C   0  0  1  0  0  0
  -27.2127  -27.1179   20.1859 C   0  0  0  0  0  0
  -25.5949  -33.8518   24.2168 N   0  0  0  0  0  0
  -23.4500  -30.4663   21.5233 C   0  0  2  0  0  0
  -24.8984  -28.8828   20.1089 C   0  0  0  0  0  0
  -22.7603  -29.4592   22.4784 C   0  0  0  0  0  0
  -18.0335  -28.1428   22.8474 C   0  0  0  0  0  0
  -24.1463  -36.7227   23.2662 C   0  0  0  0  0  0
  -26.0083  -30.7145   21.3811 C   0  0  0  0  0  0
  -26.0755  -29.3229   20.7278 C   0  0  0  0  0  0
  -27.2357  -28.4601   20.7418 C   0  0  0  0  0  0
  -26.0160  -26.7787   19.5179 C   0  0  0  0  0  0
  -24.8833  -27.6246   19.4867 C   0  0  0  0  0  0
  -23.6754  -29.7873   20.1456 C   0  0  0  0  0  0
  -25.4108  -36.3061   24.0349 C   0  0  1  0  0  0
  -20.5945  -28.3761   23.1190 C   0  0  2  0  0  0
  -20.6787  -26.9448   22.5385 C   0  0  0  0  0  0
  -19.5749  -26.6398   21.5219 C   0  0  0  0  0  0
  -18.1932  -26.7969   22.1630 C   0  0  0  0  0  0
  -19.1595  -28.8901   23.2834 C   0  0  0  0  0  0
  -18.9531  -30.1502   23.8863 C   0  0  0  0  0  0
  -17.6534  -30.6604   24.0585 C   0  0  0  0  0  0
  -25.9082  -34.9448   23.5074 C   0  0  0  0  0  0
  -16.5408  -29.9105   23.6355 C   0  0  0  0  0  0
  -16.7321  -28.6550   23.0348 C   0  0  0  0  0  0
  -26.4526  -31.6590   25.0669 C   0  0  0  0  0  0
  -25.3666  -31.3776   26.1316 C   0  0  0  0  0  0
  -27.0429  -30.3005   24.6251 C   0  0  0  0  0  0
  -27.6067  -32.4371   25.7422 C   0  0  0  0  0  0
  -27.5574  -37.1765   24.8497 C   0  0  0  0  0  0
  -21.4292  -29.3086   22.3556 N   0  0  0  0  0  0
  -26.4268  -37.3778   23.9457 N   0  0  0  0  0  0
  -24.7214  -31.0318   22.0828 N   0  0  0  0  0  0
  -23.4255  -28.8147   23.2942 O   0  0  0  0  0  0
  -28.2598  -26.1260   20.3002 O   0  0  0  0  0  0
  -26.5681  -34.8973   22.4660 O   0  0  0  0  0  0
  -23.5568  -32.1361   23.6989 O   0  0  0  0  0  0
  -31.7976  -19.3706   21.0465 C   0  0  0  0  0  0
  -30.8917  -20.4453   20.9435 C   0  0  0  0  0  0
  -31.4035  -18.0268   20.8863 C   0  0  0  0  0  0
  -29.5255  -20.2686   20.6479 C   0  0  0  0  0  0
  -29.1226  -18.8209   20.5692 C   0  0  0  0  0  0
  -30.0612  -17.6519   20.6623 C   0  0  0  0  0  0
  -27.0931  -18.6250   19.0159 C   0  0  0  0  0  0
  -29.1315  -23.4176   22.2122 C   0  0  0  0  0  0
  -30.3682  -23.6529   20.0262 C   0  0  0  0  0  0
  -28.6128  -21.6501   20.4204 C   0  0  0  0  0  0
  -27.6340  -18.4991   20.4410 C   0  0  0  0  0  0
  -27.9869  -24.5847   20.2216 C   0  0  0  0  0  0
  -29.0079  -23.3027   20.6816 C   0  0  0  0  0  0
  -29.7553  -16.1404   20.5969 N   0  0  0  0  0  0
  -31.4714  -12.7345   19.2071 H   0  0  0  0  0  0
  -30.4179  -11.6383   20.0406 H   0  0  0  0  0  0
  -29.8506  -11.7698   17.5703 H   0  0  0  0  0  0
  -29.5902  -13.4916   17.7329 H   0  0  0  0  0  0
  -27.9731  -11.2610   18.9986 H   0  0  0  0  0  0
  -27.3895  -12.4202   17.8297 H   0  0  0  0  0  0
  -27.5904  -14.2472   19.4119 H   0  0  0  0  0  0
  -28.7532  -12.3114   21.4835 H   0  0  0  0  0  0
  -28.3593  -13.9895   21.7582 H   0  0  0  0  0  0
  -25.2817   -9.5701   22.4793 H   0  0  0  0  0  0
  -24.0050   -7.4662   22.7500 H   0  0  0  0  0  0
  -21.0912   -8.8845   19.8916 H   0  0  0  0  0  0
  -22.3824  -10.9729   19.6178 H   0  0  0  0  0  0
  -21.2016   -7.6163   23.9753 H   0  0  0  0  0  0
  -21.1477   -6.0522   25.9103 H   0  0  0  0  0  0
  -22.0580   -2.7632   23.2824 H   0  0  0  0  0  0
  -22.4068  -11.9920   22.4792 H   0  0  0  0  0  0
  -21.1055  -13.1267   22.2555 H   0  0  0  0  0  0
  -24.6207  -15.8262   20.4579 H   0  0  0  0  0  0
  -26.2252  -15.6226   19.9748 H   0  0  0  0  0  0
  -26.7262  -32.5290   23.0950 H   0  0  0  0  0  0
  -25.0081  -33.9638   25.0308 H   0  0  0  0  0  0
  -22.7548  -31.2971   21.3628 H   0  0  0  0  0  0
  -23.3793  -35.9502   23.3346 H   0  0  0  0  0  0
  -24.3521  -36.8820   22.2071 H   0  0  0  0  0  0
  -23.7161  -37.6410   23.6661 H   0  0  0  0  0  0
  -26.1757  -31.4624   20.6043 H   0  0  0  0  0  0
  -26.8795  -30.7621   22.0218 H   0  0  0  0  0  0
  -28.1268  -28.7964   21.2492 H   0  0  0  0  0  0
  -25.9139  -25.8120   19.0445 H   0  0  0  0  0  0
  -23.9826  -27.2747   19.0007 H   0  0  0  0  0  0
  -23.8146  -30.5591   19.3867 H   0  0  0  0  0  0
  -22.7917  -29.2314   19.8294 H   0  0  0  0  0  0
  -25.1286  -36.1911   25.0844 H   0  0  0  0  0  0
  -21.0103  -28.3379   24.1286 H   0  0  0  0  0  0
  -20.5657  -26.2409   23.3641 H   0  0  0  0  0  0
  -21.6650  -26.7388   22.1203 H   0  0  0  0  0  0
  -19.6898  -25.6313   21.1241 H   0  0  0  0  0  0
  -19.6669  -27.3225   20.6763 H   0  0  0  0  0  0
  -17.4208  -26.6780   21.4022 H   0  0  0  0  0  0
  -18.0289  -26.0113   22.9018 H   0  0  0  0  0  0
  -19.8015  -30.7330   24.2211 H   0  0  0  0  0  0
  -17.5086  -31.6269   24.5219 H   0  0  0  0  0  0
  -15.5419  -30.3005   23.7691 H   0  0  0  0  0  0
  -15.8727  -28.0863   22.7039 H   0  0  0  0  0  0
  -24.5877  -30.7110   25.7581 H   0  0  0  0  0  0
  -24.8776  -32.2936   26.4641 H   0  0  0  0  0  0
  -25.7861  -30.8989   27.0159 H   0  0  0  0  0  0
  -26.3054  -29.6686   24.1260 H   0  0  0  0  0  0
  -27.4117  -29.7350   25.4825 H   0  0  0  0  0  0
  -27.8926  -30.4328   23.9544 H   0  0  0  0  0  0
  -27.2717  -33.3762   26.1853 H   0  0  0  0  0  0
  -28.3898  -32.6792   25.0219 H   0  0  0  0  0  0
  -28.0697  -31.8562   26.5415 H   0  0  0  0  0  0
  -28.2626  -38.0029   24.7545 H   0  0  0  0  0  0
  -28.1031  -36.2569   24.6315 H   0  0  0  0  0  0
  -27.2275  -37.1389   25.8894 H   0  0  0  0  0  0
  -20.9527  -29.8838   21.6747 H   0  0  0  0  0  0
  -26.0171  -38.2864   24.1447 H   0  0  0  0  0  0
  -32.8365  -19.5853   21.2649 H   0  0  0  0  0  0
  -31.2794  -21.4324   21.0992 H   0  0  0  0  0  0
  -32.1740  -17.2772   20.9654 H   0  0  0  0  0  0
  -27.2827  -19.6176   18.6080 H   0  0  0  0  0  0
  -26.0154  -18.4530   19.0003 H   0  0  0  0  0  0
  -27.5402  -17.8917   18.3470 H   0  0  0  0  0  0
  -29.8271  -22.6820   22.6194 H   0  0  0  0  0  0
  -28.1641  -23.2203   22.6749 H   0  0  0  0  0  0
  -29.4583  -24.4047   22.5389 H   0  0  0  0  0  0
  -31.2344  -23.4826   20.6678 H   0  0  0  0  0  0
  -30.4138  -24.7116   19.7683 H   0  0  0  0  0  0
  -30.5308  -23.1080   19.0959 H   0  0  0  0  0  0
  -27.6853  -21.4731   20.9623 H   0  0  0  0  0  0
  -28.3288  -21.5937   19.3708 H   0  0  0  0  0  0
  -27.0653  -19.1600   21.0952 H   0  0  0  0  0  0
  -27.4381  -17.4900   20.8131 H   0  0  0  0  0  0
  -27.0577  -24.4268   20.7693 H   0  0  0  0  0  0
  -27.7382  -24.3941   19.1777 H   0  0  0  0  0  0
  -28.7747  -15.9250   20.6756 H   0  0  0  0  0  0
  1 25  1  0  0  0
  1 30  2  0  0  0
  1 84  1  0  0  0
  2  3  1  0  0  0
  2 25  1  0  0  0
  2 85  1  0  0  0
  2 86  1  0  0  0
  3  4  1  0  0  0
  3 87  1  0  0  0
  3 88  1  0  0  0
  4  5  1  0  0  0
  4 89  1  0  0  0
  4 90  1  0  0  0
  5  6  1  0  0  0
  5 26  1  0  0  0
  5 91  1  0  0  0
  6 25  1  0  0  0
  6 92  1  0  0  0
  6 93  1  0  0  0
  7  8  2  0  0  0
  7 26  1  0  0  0
  7 29  1  0  0  0
  8  9  1  0  0  0
  8 22  1  0  0  0
  9 10  1  0  0  0
  9 27  2  0  0  0
 10 11  2  0  0  0
 10 15  1  0  0  0
 11 12  1  0  0  0
 11 94  1  0  0  0
 12 13  2  0  0  0
 12 95  1  0  0  0
 13 14  1  0  0  0
 13 31  1  0  0  0
 14 15  2  0  0  0
 14 96  1  0  0  0
 15 97  1  0  0  0
 16 17  2  0  0  0
 16 21  1  0  0  0
 16 31  1  0  0  0
 17 18  1  0  0  0
 17 98  1  0  0  0
 18 19  2  0  0  0
 18 99  1  0  0  0
 19 20  1  0  0  0
 19 24  1  0  0  0
 20 21  2  0  0  0
 20100  1  0  0  0
 21 23  1  0  0  0
 22 28  1  0  0  0
 22 32  2  0  0  0
 26 27  1  0  0  0
 28101  1  0  0  0
 28102  1  0  0  0
 29103  1  0  0  0
 29104  1  0  0  0
 33 34  1  0  0  0
 33 66  1  0  0  0
 33 70  2  0  0  0
 34 36  1  0  0  0
 34 59  1  0  0  0
 34105  1  0  0  0
 35 44  2  0  0  0
 35 45  1  0  0  0
 35 68  1  0  0  0
 36 56  1  0  0  0
 36106  1  0  0  0
 37 39  1  0  0  0
 37 47  1  0  0  0
 37 66  1  0  0  0
 37107  1  0  0  0
 38 43  2  0  0  0
 38 46  1  0  0  0
 38 47  1  0  0  0
 39 64  1  0  0  0
 39 67  2  0  0  0
 40 52  1  0  0  0
 40 53  2  0  0  0
 40 58  1  0  0  0
 41108  1  0  0  0
 41109  1  0  0  0
 41110  1  0  0  0
 41 48  1  0  0  0
 42 43  1  0  0  0
 42 66  1  0  0  0
 42111  1  0  0  0
 42112  1  0  0  0
 43 44  1  0  0  0
 44113  1  0  0  0
 45 46  2  0  0  0
 45114  1  0  0  0
 46115  1  0  0  0
 47116  1  0  0  0
 47117  1  0  0  0
 48 56  1  0  0  0
 48 65  1  0  0  0
 48118  1  0  0  0
 49 50  1  0  0  0
 49 53  1  0  0  0
 49 64  1  0  0  0
 49119  1  0  0  0
 50 51  1  0  0  0
 50120  1  0  0  0
 50121  1  0  0  0
 51 52  1  0  0  0
 51122  1  0  0  0
 51123  1  0  0  0
 52124  1  0  0  0
 52125  1  0  0  0
 53 54  1  0  0  0
 54 55  2  0  0  0
 54126  1  0  0  0
 55 57  1  0  0  0
 55127  1  0  0  0
 56 69  2  0  0  0
 57 58  2  0  0  0
 57128  1  0  0  0
 58129  1  0  0  0
 59 60  1  0  0  0
 59 61  1  0  0  0
 59 62  1  0  0  0
 60130  1  0  0  0
 60131  1  0  0  0
 60132  1  0  0  0
 61133  1  0  0  0
 61134  1  0  0  0
 61135  1  0  0  0
 62136  1  0  0  0
 62137  1  0  0  0
 62138  1  0  0  0
 63 65  1  0  0  0
 63139  1  0  0  0
 63140  1  0  0  0
 63141  1  0  0  0
 64142  1  0  0  0
 65143  1  0  0  0
 68 82  1  0  0  0
 71 72  2  0  0  0
 71 73  1  0  0  0
 71144  1  0  0  0
 72 74  1  0  0  0
 72145  1  0  0  0
 73 76  2  0  0  0
 73146  1  0  0  0
 74 75  2  0  0  0
 74 80  1  0  0  0
 75 76  1  0  0  0
 75 81  1  0  0  0
 76 84  1  0  0  0
 77 81  1  0  0  0
 77147  1  0  0  0
 77148  1  0  0  0
 77149  1  0  0  0
 78150  1  0  0  0
 78151  1  0  0  0
 78152  1  0  0  0
 78 83  1  0  0  0
 79 83  1  0  0  0
 79153  1  0  0  0
 79154  1  0  0  0
 79155  1  0  0  0
 80 83  1  0  0  0
 80156  1  0  0  0
 80157  1  0  0  0
 81158  1  0  0  0
 81159  1  0  0  0
 82 83  1  0  0  0
 82160  1  0  0  0
 82161  1  0  0  0
 84162  1  0  0  0
M  ISO  4   1 100  68 101  82 101  84 100
M  END
> <chiral flag>
0

> <version>
0

> <s_m_source_file>
/data/baiqing/PycharmProjects/Reinvent-master-3.2/result/LINK_invent/BTK/process_docking_weight1_custom_product_contain_oxygen_bond_distance_aromatic_linkinvent_7_9_3/rearranged_h_0138.sdf

> <i_m_source_file_index>
29

> <r_mmod_Potential_Energy-OPLS-2005>
554.929016113281

> <r_mmod_Stretch_Energy-OPLS-2005>
298.129943847656

> <r_mmod_Bend_Energy-OPLS-2005>
259.774841308594

> <r_mmod_Torsional_Energy-OPLS-2005>
230.095565795898

> <r_mmod_Improper_Torsional_Energy-OPLS-2005>
5.47907161712646

> <r_mmod_Van_der_Waal_Energy-OPLS-2005>
126.641265869141

> <r_mmod_Electrostatic_Energy-OPLS-2005>
-373.149627685547

> <r_mmod_Solvation_Energy-OPLS-2005>
-195.777984619141

> <b_mmod_Minimization_Converged-OPLS-2005>
0

> <r_mmod_RMS_Derivative-OPLS-2005>
5.62311887741089

$$$$
29
                    3D
 Structure written by MMmdl.
154162  0  0  1  0            999 V2000
  -30.6367  -14.6928   20.3623 C   0  0  0  0  0  0
  -30.4390  -12.3999   19.4527 C   0  0  0  0  0  0
  -29.5109  -12.4183   18.2191 C   0  0  0  0  0  0
  -28.0269  -12.3118   18.6343 C   0  0  0  0  0  0
  -27.6414  -13.2165   19.8406 C   0  0  2  0  0  0
  -28.6986  -13.1709   20.9640 C   0  0  0  0  0  0
  -25.2545  -13.8177   20.5697 C   0  0  0  0  0  0
  -24.1804  -13.0452   20.9213 C   0  0  0  0  0  0
  -24.6382  -11.6929   20.8772 C   0  0  0  0  0  0
  -23.9062  -10.4315   21.0446 C   0  0  0  0  0  0
  -24.3643   -9.4236   21.9200 C   0  0  0  0  0  0
  -23.6323   -8.2273   22.0764 C   0  0  0  0  0  0
  -22.4304   -8.0319   21.3552 C   0  0  0  0  0  0
  -21.9932   -9.0293   20.4655 C   0  0  0  0  0  0
  -22.7258  -10.2166   20.3071 C   0  0  0  0  0  0
  -21.6852   -6.0774   22.5289 C   0  0  0  0  0  0
  -21.4021   -6.5671   23.8226 C   0  0  0  0  0  0
  -21.3647   -5.6813   24.9178 C   0  0  0  0  0  0
  -21.6041   -4.3077   24.7222 C   0  0  0  0  0  0
  -21.8821   -3.8181   23.4338 C   0  0  0  0  0  0
  -21.9198   -4.7006   22.3402 C   0  0  0  0  0  0
  -22.7835  -13.5272   21.1851 C   0  0  0  0  0  0
  -22.1672   -4.2206   21.0972 F   0  0  0  0  0  0
  -21.5612   -3.4542   25.7719 F   0  0  0  0  0  0
  -29.9977  -13.4797   20.3538 N   0  0  0  0  0  0
  -26.2949  -12.9342   20.3277 N   0  0  0  0  0  0
  -25.9306  -11.6511   20.5775 N   0  0  0  0  0  0
  -22.0442  -12.8263   22.0387 N   0  0  0  0  0  0
  -25.4252  -15.1889   20.4145 N   0  0  0  0  0  0
  -31.8640  -14.7497   20.2509 O   0  0  0  0  0  0
  -21.6659   -6.8921   21.4257 O   0  0  0  0  0  0
  -22.3537  -14.5571   20.6682 O   0  0  0  0  0  0
  -24.6254  -31.8632   23.2047 C   0  0  0  0  0  0
  -25.9118  -32.4794   23.8372 C   0  0  1  0  0  0
  -27.2368  -27.3448   20.1218 C   0  0  0  0  0  0
  -25.5938  -33.8594   24.2304 N   0  0  0  0  0  0
  -23.4182  -30.4854   21.5456 C   0  0  2  0  0  0
  -24.8690  -28.9434   20.1114 C   0  0  0  0  0  0
  -22.7475  -29.4642   22.4952 C   0  0  0  0  0  0
  -18.0285  -28.1427   22.8497 C   0  0  0  0  0  0
  -24.1484  -36.7282   23.2643 C   0  0  0  0  0  0
  -25.9555  -30.8022   21.3723 C   0  0  0  0  0  0
  -26.0328  -29.4293   20.7206 C   0  0  0  0  0  0
  -27.2174  -28.6397   20.7214 C   0  0  0  0  0  0
  -26.0552  -26.9142   19.4736 C   0  0  0  0  0  0
  -24.8808  -27.6893   19.4792 C   0  0  0  0  0  0
  -23.6357  -29.8217   20.1592 C   0  0  0  0  0  0
  -25.4112  -36.3090   24.0335 C   0  0  1  0  0  0
  -20.5888  -28.3722   23.1307 C   0  0  2  0  0  0
  -20.6777  -26.9449   22.5427 C   0  0  0  0  0  0
  -19.5736  -26.6424   21.5242 C   0  0  0  0  0  0
  -18.1918  -26.7971   22.1652 C   0  0  0  0  0  0
  -19.1539  -28.8894   23.2891 C   0  0  0  0  0  0
  -18.9456  -30.1491   23.8912 C   0  0  0  0  0  0
  -17.6457  -30.6616   24.0596 C   0  0  0  0  0  0
  -25.9049  -34.9464   23.5113 C   0  0  0  0  0  0
  -16.5351  -29.9130   23.6346 C   0  0  0  0  0  0
  -16.7273  -28.6561   23.0347 C   0  0  0  0  0  0
  -26.4517  -31.6592   25.0723 C   0  0  0  0  0  0
  -25.3760  -31.3714   26.1448 C   0  0  0  0  0  0
  -27.0369  -30.3037   24.6140 C   0  0  0  0  0  0
  -27.6083  -32.4322   25.7486 C   0  0  0  0  0  0
  -27.5557  -37.1810   24.8478 C   0  0  0  0  0  0
  -21.4192  -29.3065   22.3692 N   0  0  0  0  0  0
  -26.4289  -37.3779   23.9396 N   0  0  0  0  0  0
  -24.6841  -31.0657   22.0989 N   0  0  0  0  0  0
  -23.4201  -28.8201   23.3049 O   0  0  0  0  0  0
  -28.3701  -26.5221   20.1886 O   0  0  0  0  0  0
  -26.5601  -34.8933   22.4671 O   0  0  0  0  0  0
  -23.5418  -32.1425   23.7395 O   0  0  0  0  0  0
  -28.7360  -17.8186   20.5620 C   0  0  0  0  0  0
  -30.5097  -19.1946   20.4666 C   0  0  0  0  0  0
  -29.1456  -19.1987   20.5869 C   0  0  0  0  0  0
  -29.8754  -17.0513   20.4263 C   0  0  0  0  0  0
  -28.2093  -21.6613   20.6614 C   0  0  0  0  0  0
  -29.7464  -15.8263   18.4411 C   0  0  0  0  0  0
  -29.4165  -22.5844   20.3386 C   0  0  0  0  0  0
  -29.2782  -24.1395   20.6931 C   0  0  0  0  0  0
  -28.2362  -25.0705   19.9525 C   0  0  0  0  0  0
  -28.2070  -20.2960   20.7020 N   0  0  0  0  0  0
  -29.8850  -15.7662   19.9113 N   0  0  0  0  0  0
  -27.1379  -22.2199   20.8938 O   0  0  0  0  0  0
  -30.9651  -17.8902   20.3524 O   0  0  0  0  0  0
  -31.4785  -12.5243   19.1413 H   0  0  0  0  0  0
  -30.3863  -11.4382   19.9626 H   0  0  0  0  0  0
  -29.7675  -11.5926   17.5543 H   0  0  0  0  0  0
  -29.6769  -13.3128   17.6257 H   0  0  0  0  0  0
  -27.8428  -11.2673   18.8895 H   0  0  0  0  0  0
  -27.3854  -12.5275   17.7797 H   0  0  0  0  0  0
  -27.6148  -14.2338   19.4630 H   0  0  0  0  0  0
  -28.7219  -12.1899   21.4422 H   0  0  0  0  0  0
  -28.4568  -13.9003   21.7399 H   0  0  0  0  0  0
  -25.2799   -9.5728   22.4758 H   0  0  0  0  0  0
  -24.0045   -7.4670   22.7488 H   0  0  0  0  0  0
  -21.0856   -8.8852   19.8957 H   0  0  0  0  0  0
  -22.3752  -10.9735   19.6191 H   0  0  0  0  0  0
  -21.2029   -7.6178   23.9755 H   0  0  0  0  0  0
  -21.1447   -6.0522   25.9073 H   0  0  0  0  0  0
  -22.0600   -2.7647   23.2814 H   0  0  0  0  0  0
  -22.4031  -11.9923   22.4796 H   0  0  0  0  0  0
  -21.1060  -13.1306   22.2571 H   0  0  0  0  0  0
  -24.6601  -15.8453   20.5304 H   0  0  0  0  0  0
  -26.2797  -15.6263   20.0935 H   0  0  0  0  0  0
  -26.7192  -32.5504   23.1127 H   0  0  0  0  0  0
  -25.0116  -33.9751   25.0469 H   0  0  0  0  0  0
  -22.7095  -31.3026   21.4015 H   0  0  0  0  0  0
  -23.3740  -35.9623   23.3364 H   0  0  0  0  0  0
  -24.3549  -36.8845   22.2040 H   0  0  0  0  0  0
  -23.7258  -37.6514   23.6626 H   0  0  0  0  0  0
  -26.0773  -31.5634   20.6002 H   0  0  0  0  0  0
  -26.8399  -30.8628   21.9936 H   0  0  0  0  0  0
  -28.1087  -29.0072   21.2134 H   0  0  0  0  0  0
  -26.0202  -25.9672   18.9553 H   0  0  0  0  0  0
  -23.9942  -27.3137   18.9869 H   0  0  0  0  0  0
  -23.7611  -30.6004   19.4063 H   0  0  0  0  0  0
  -22.7570  -29.2523   19.8509 H   0  0  0  0  0  0
  -25.1303  -36.1946   25.0827 H   0  0  0  0  0  0
  -20.9977  -28.3322   24.1437 H   0  0  0  0  0  0
  -20.5733  -26.2340   23.3638 H   0  0  0  0  0  0
  -21.6638  -26.7515   22.1188 H   0  0  0  0  0  0
  -19.6893  -25.6345   21.1260 H   0  0  0  0  0  0
  -19.6662  -27.3259   20.6797 H   0  0  0  0  0  0
  -17.4193  -26.6737   21.4053 H   0  0  0  0  0  0
  -18.0287  -26.0125   22.9056 H   0  0  0  0  0  0
  -19.7924  -30.7301   24.2292 H   0  0  0  0  0  0
  -17.5015  -31.6288   24.5199 H   0  0  0  0  0  0
  -15.5357  -30.3036   23.7655 H   0  0  0  0  0  0
  -15.8673  -28.0889   22.7037 H   0  0  0  0  0  0
  -24.5914  -30.7089   25.7767 H   0  0  0  0  0  0
  -24.8967  -32.2883   26.4900 H   0  0  0  0  0  0
  -25.8096  -30.8856   27.0202 H   0  0  0  0  0  0
  -26.2944  -29.6763   24.1189 H   0  0  0  0  0  0
  -27.4138  -29.7301   25.4617 H   0  0  0  0  0  0
  -27.8781  -30.4347   23.9325 H   0  0  0  0  0  0
  -27.2698  -33.3599   26.2114 H   0  0  0  0  0  0
  -28.3875  -32.6925   25.0307 H   0  0  0  0  0  0
  -28.0791  -31.8420   26.5355 H   0  0  0  0  0  0
  -28.2647  -38.0034   24.7452 H   0  0  0  0  0  0
  -28.0978  -36.2567   24.6424 H   0  0  0  0  0  0
  -27.2258  -37.1631   25.8879 H   0  0  0  0  0  0
  -20.9383  -29.8771   21.6870 H   0  0  0  0  0  0
  -26.0171  -38.2863   24.1371 H   0  0  0  0  0  0
  -27.7235  -17.4411   20.5555 H   0  0  0  0  0  0
  -31.2662  -19.9639   20.4066 H   0  0  0  0  0  0
  -29.6703  -16.8474   18.0608 H   0  0  0  0  0  0
  -28.8488  -15.3178   18.0962 H   0  0  0  0  0  0
  -30.6061  -15.3910   17.9284 H   0  0  0  0  0  0
  -29.6474  -22.4656   19.2805 H   0  0  0  0  0  0
  -30.2759  -22.1872   20.8808 H   0  0  0  0  0  0
  -30.2623  -24.5801   20.5379 H   0  0  0  0  0  0
  -29.1018  -24.2266   21.7656 H   0  0  0  0  0  0
  -28.3059  -24.8995   18.8779 H   0  0  0  0  0  0
  -27.2470  -24.7321   20.2613 H   0  0  0  0  0  0
  -27.2618  -19.9754   20.8588 H   0  0  0  0  0  0
  1 25  1  0  0  0
  1 30  2  0  0  0
  1 81  1  0  0  0
  2  3  1  0  0  0
  2 25  1  0  0  0
  2 84  1  0  0  0
  2 85  1  0  0  0
  3  4  1  0  0  0
  3 86  1  0  0  0
  3 87  1  0  0  0
  4  5  1  0  0  0
  4 88  1  0  0  0
  4 89  1  0  0  0
  5  6  1  0  0  0
  5 26  1  0  0  0
  5 90  1  0  0  0
  6 25  1  0  0  0
  6 91  1  0  0  0
  6 92  1  0  0  0
  7  8  2  0  0  0
  7 26  1  0  0  0
  7 29  1  0  0  0
  8  9  1  0  0  0
  8 22  1  0  0  0
  9 10  1  0  0  0
  9 27  2  0  0  0
 10 11  2  0  0  0
 10 15  1  0  0  0
 11 12  1  0  0  0
 11 93  1  0  0  0
 12 13  2  0  0  0
 12 94  1  0  0  0
 13 14  1  0  0  0
 13 31  1  0  0  0
 14 15  2  0  0  0
 14 95  1  0  0  0
 15 96  1  0  0  0
 16 17  2  0  0  0
 16 21  1  0  0  0
 16 31  1  0  0  0
 17 18  1  0  0  0
 17 97  1  0  0  0
 18 19  2  0  0  0
 18 98  1  0  0  0
 19 20  1  0  0  0
 19 24  1  0  0  0
 20 21  2  0  0  0
 20 99  1  0  0  0
 21 23  1  0  0  0
 22 28  1  0  0  0
 22 32  2  0  0  0
 26 27  1  0  0  0
 28100  1  0  0  0
 28101  1  0  0  0
 29102  1  0  0  0
 29103  1  0  0  0
 33 34  1  0  0  0
 33 66  1  0  0  0
 33 70  2  0  0  0
 34 36  1  0  0  0
 34 59  1  0  0  0
 34104  1  0  0  0
 35 44  2  0  0  0
 35 45  1  0  0  0
 35 68  1  0  0  0
 36 56  1  0  0  0
 36105  1  0  0  0
 37 39  1  0  0  0
 37 47  1  0  0  0
 37 66  1  0  0  0
 37106  1  0  0  0
 38 43  2  0  0  0
 38 46  1  0  0  0
 38 47  1  0  0  0
 39 64  1  0  0  0
 39 67  2  0  0  0
 40 52  1  0  0  0
 40 53  2  0  0  0
 40 58  1  0  0  0
 41107  1  0  0  0
 41108  1  0  0  0
 41109  1  0  0  0
 41 48  1  0  0  0
 42 43  1  0  0  0
 42 66  1  0  0  0
 42110  1  0  0  0
 42111  1  0  0  0
 43 44  1  0  0  0
 44112  1  0  0  0
 45 46  2  0  0  0
 45113  1  0  0  0
 46114  1  0  0  0
 47115  1  0  0  0
 47116  1  0  0  0
 48 56  1  0  0  0
 48 65  1  0  0  0
 48117  1  0  0  0
 49 50  1  0  0  0
 49 53  1  0  0  0
 49 64  1  0  0  0
 49118  1  0  0  0
 50 51  1  0  0  0
 50119  1  0  0  0
 50120  1  0  0  0
 51 52  1  0  0  0
 51121  1  0  0  0
 51122  1  0  0  0
 52123  1  0  0  0
 52124  1  0  0  0
 53 54  1  0  0  0
 54 55  2  0  0  0
 54125  1  0  0  0
 55 57  1  0  0  0
 55126  1  0  0  0
 56 69  2  0  0  0
 57 58  2  0  0  0
 57127  1  0  0  0
 58128  1  0  0  0
 59 60  1  0  0  0
 59 61  1  0  0  0
 59 62  1  0  0  0
 60129  1  0  0  0
 60130  1  0  0  0
 60131  1  0  0  0
 61132  1  0  0  0
 61133  1  0  0  0
 61134  1  0  0  0
 62135  1  0  0  0
 62136  1  0  0  0
 62137  1  0  0  0
 63 65  1  0  0  0
 63138  1  0  0  0
 63139  1  0  0  0
 63140  1  0  0  0
 64141  1  0  0  0
 65142  1  0  0  0
 68 79  1  0  0  0
 71 73  1  0  0  0
 71 74  2  0  0  0
 71143  1  0  0  0
 72 73  2  0  0  0
 72 83  1  0  0  0
 72144  1  0  0  0
 73 80  1  0  0  0
 74 81  1  0  0  0
 74 83  1  0  0  0
 75 77  1  0  0  0
 75 80  1  0  0  0
 75 82  2  0  0  0
 76 81  1  0  0  0
 76145  1  0  0  0
 76146  1  0  0  0
 76147  1  0  0  0
 77 78  1  0  0  0
 77148  1  0  0  0
 77149  1  0  0  0
 78 79  1  0  0  0
 78150  1  0  0  0
 78151  1  0  0  0
 79152  1  0  0  0
 79153  1  0  0  0
 80154  1  0  0  0
M  ISO  4   1 100  68 101  79 101  81 100
M  END
> <chiral flag>
0

> <version>
0

> <s_m_source_file>
/data/baiqing/PycharmProjects/Reinvent-master-3.2/result/LINK_invent/BTK/process_docking_weight1_custom_product_contain_oxygen_bond_distance_aromatic_linkinvent_7_9_3/rearranged_h_0138.sdf

> <i_m_source_file_index>
30

> <r_mmod_Potential_Energy-OPLS-2005>
225.885360717773

> <r_mmod_Stretch_Energy-OPLS-2005>
68.9561386108398

> <r_mmod_Bend_Energy-OPLS-2005>
191.880981445312

> <r_mmod_Torsional_Energy-OPLS-2005>
324.206390380859

> <r_mmod_Improper_Torsional_Energy-OPLS-2005>
28.3591079711914

> <r_mmod_Van_der_Waal_Energy-OPLS-2005>
124.305839538574

> <r_mmod_Electrostatic_Energy-OPLS-2005>
-358.961853027344

> <r_mmod_Solvation_Energy-OPLS-2005>
-219.16487121582

> <b_mmod_Minimization_Converged-OPLS-2005>
0

> <r_mmod_RMS_Derivative-OPLS-2005>
3.0785391330719

$$$$
30
                    3D
 Structure written by MMmdl.
157165  0  0  1  0            999 V2000
  -30.7320  -14.4734   20.5715 C   0  0  0  0  0  0
  -30.4115  -12.3082   19.4293 C   0  0  0  0  0  0
  -29.4915  -12.4988   18.2081 C   0  0  0  0  0  0
  -28.0137  -12.3636   18.6211 C   0  0  0  0  0  0
  -27.6578  -13.2136   19.8706 C   0  0  2  0  0  0
  -28.7009  -13.0258   20.9959 C   0  0  0  0  0  0
  -25.2569  -13.8178   20.5683 C   0  0  0  0  0  0
  -24.1832  -13.0446   20.9185 C   0  0  0  0  0  0
  -24.6395  -11.6913   20.8740 C   0  0  0  0  0  0
  -23.9065  -10.4296   21.0408 C   0  0  0  0  0  0
  -24.3615   -9.4210   21.9189 C   0  0  0  0  0  0
  -23.6289   -8.2247   22.0757 C   0  0  0  0  0  0
  -22.4272   -8.0286   21.3546 C   0  0  0  0  0  0
  -21.9914   -9.0258   20.4644 C   0  0  0  0  0  0
  -22.7241  -10.2138   20.3053 C   0  0  0  0  0  0
  -21.6852   -6.0737   22.5278 C   0  0  0  0  0  0
  -21.4010   -6.5639   23.8212 C   0  0  0  0  0  0
  -21.3657   -5.6794   24.9174 C   0  0  0  0  0  0
  -21.6049   -4.3058   24.7225 C   0  0  0  0  0  0
  -21.8819   -3.8149   23.4347 C   0  0  0  0  0  0
  -21.9191   -4.6965   22.3402 C   0  0  0  0  0  0
  -22.7858  -13.5239   21.1854 C   0  0  0  0  0  0
  -22.1661   -4.2150   21.0980 F   0  0  0  0  0  0
  -21.5632   -3.4543   25.7739 F   0  0  0  0  0  0
  -30.0291  -13.3152   20.4331 N   0  0  0  0  0  0
  -26.3008  -12.9359   20.3356 N   0  0  0  0  0  0
  -25.9323  -11.6513   20.5767 N   0  0  0  0  0  0
  -22.0505  -12.8216   22.0404 N   0  0  0  0  0  0
  -25.4284  -15.1898   20.4076 N   0  0  0  0  0  0
  -31.8633  -14.6102   20.0980 O   0  0  0  0  0  0
  -21.6637   -6.8881   21.4241 O   0  0  0  0  0  0
  -22.3541  -14.5551   20.6714 O   0  0  0  0  0  0
  -24.6175  -31.8680   23.2114 C   0  0  0  0  0  0
  -25.9067  -32.4819   23.8407 C   0  0  1  0  0  0
  -27.2220  -27.4099   20.0939 C   0  0  0  0  0  0
  -25.5917  -33.8619   24.2333 N   0  0  0  0  0  0
  -23.4048  -30.4949   21.5536 C   0  0  2  0  0  0
  -24.8476  -28.9668   20.1109 C   0  0  0  0  0  0
  -22.7424  -29.4660   22.4987 C   0  0  0  0  0  0
  -18.0274  -28.1379   22.8499 C   0  0  0  0  0  0
  -24.1485  -36.7305   23.2641 C   0  0  0  0  0  0
  -25.9386  -30.8252   21.3703 C   0  0  0  0  0  0
  -26.0125  -29.4617   20.7107 C   0  0  0  0  0  0
  -27.2024  -28.6917   20.6991 C   0  0  0  0  0  0
  -26.0369  -26.9521   19.4665 C   0  0  0  0  0  0
  -24.8566  -27.7124   19.4843 C   0  0  0  0  0  0
  -23.6118  -29.8356   20.1661 C   0  0  0  0  0  0
  -25.4112  -36.3111   24.0337 C   0  0  1  0  0  0
  -20.5868  -28.3670   23.1314 C   0  0  2  0  0  0
  -20.6764  -26.9406   22.5415 C   0  0  0  0  0  0
  -19.5735  -26.6382   21.5216 C   0  0  0  0  0  0
  -18.1917  -26.7926   22.1629 C   0  0  0  0  0  0
  -19.1526  -28.8844   23.2897 C   0  0  0  0  0  0
  -18.9453  -30.1452   23.8899 C   0  0  0  0  0  0
  -17.6456  -30.6589   24.0564 C   0  0  0  0  0  0
  -25.9040  -34.9476   23.5130 C   0  0  0  0  0  0
  -16.5345  -29.9087   23.6334 C   0  0  0  0  0  0
  -16.7262  -28.6504   23.0353 C   0  0  0  0  0  0
  -26.4485  -31.6599   25.0739 C   0  0  0  0  0  0
  -25.3741  -31.3672   26.1467 C   0  0  0  0  0  0
  -27.0351  -30.3056   24.6128 C   0  0  0  0  0  0
  -27.6048  -32.4328   25.7514 C   0  0  0  0  0  0
  -27.5579  -37.1808   24.8470 C   0  0  0  0  0  0
  -21.4150  -29.3037   22.3722 N   0  0  0  0  0  0
  -26.4297  -37.3797   23.9410 N   0  0  0  0  0  0
  -24.6721  -31.0766   22.1030 N   0  0  0  0  0  0
  -23.4190  -28.8191   23.3025 O   0  0  0  0  0  0
  -28.3669  -26.6258   20.1435 O   0  0  0  0  0  0
  -26.5594  -34.8926   22.4688 O   0  0  0  0  0  0
  -23.5361  -32.1443   23.7496 O   0  0  0  0  0  0
  -31.7376  -19.3947   21.8193 C   0  0  0  0  0  0
  -31.8960  -16.9648   21.9476 C   0  0  0  0  0  0
  -29.8960  -18.0103   21.0234 C   0  0  0  0  0  0
  -32.4526  -18.2358   22.1772 C   0  0  0  0  0  0
  -30.4456  -19.3069   21.2428 C   0  0  0  0  0  0
  -30.6221  -16.8310   21.3501 C   0  0  0  0  0  0
  -29.9210  -21.7880   21.0438 C   0  0  0  0  0  0
  -33.8320  -18.3508   22.7966 C   0  0  0  0  0  0
  -28.9226  -22.7782   20.4100 C   0  0  0  0  0  0
  -29.2767  -24.2930   20.5529 C   0  0  0  0  0  0
  -28.1698  -25.2032   19.9732 C   0  0  0  0  0  0
  -29.6894  -20.4662   20.8413 N   0  0  0  0  0  0
  -30.0730  -15.5264   21.1066 N   0  0  0  0  0  0
  -30.8559  -22.2341   21.7115 O   0  0  0  0  0  0
  -31.4580  -12.3828   19.1297 H   0  0  0  0  0  0
  -30.2945  -11.3054   19.8433 H   0  0  0  0  0  0
  -29.7312  -11.7647   17.4376 H   0  0  0  0  0  0
  -29.6640  -13.4800   17.7627 H   0  0  0  0  0  0
  -27.8234  -11.3090   18.8247 H   0  0  0  0  0  0
  -27.3640  -12.6321   17.7873 H   0  0  0  0  0  0
  -27.6936  -14.2572   19.5571 H   0  0  0  0  0  0
  -28.6776  -12.0020   21.3723 H   0  0  0  0  0  0
  -28.4672  -13.6590   21.8532 H   0  0  0  0  0  0
  -25.2757   -9.5692   22.4767 H   0  0  0  0  0  0
  -23.9999   -7.4641   22.7478 H   0  0  0  0  0  0
  -21.0851   -8.8777   19.8942 H   0  0  0  0  0  0
  -22.3703  -10.9678   19.6160 H   0  0  0  0  0  0
  -21.1998   -7.6148   23.9714 H   0  0  0  0  0  0
  -21.1482   -6.0525   25.9078 H   0  0  0  0  0  0
  -22.0600   -2.7613   23.2848 H   0  0  0  0  0  0
  -22.4117  -11.9853   22.4756 H   0  0  0  0  0  0
  -21.1127  -13.1240   22.2632 H   0  0  0  0  0  0
  -24.6622  -15.8461   20.5118 H   0  0  0  0  0  0
  -26.2794  -15.6262   20.0764 H   0  0  0  0  0  0
  -26.7133  -32.5526   23.1163 H   0  0  0  0  0  0
  -25.0083  -33.9780   25.0488 H   0  0  0  0  0  0
  -22.6940  -31.3131   21.4190 H   0  0  0  0  0  0
  -23.3761  -35.9624   23.3306 H   0  0  0  0  0  0
  -24.3567  -36.8927   22.2055 H   0  0  0  0  0  0
  -23.7226  -37.6503   23.6662 H   0  0  0  0  0  0
  -26.0596  -31.5945   20.6061 H   0  0  0  0  0  0
  -26.8235  -30.8708   21.9935 H   0  0  0  0  0  0
  -28.0973  -29.0659   21.1765 H   0  0  0  0  0  0
  -25.9931  -26.0004   18.9578 H   0  0  0  0  0  0
  -23.9643  -27.3285   19.0087 H   0  0  0  0  0  0
  -23.7200  -30.6146   19.4107 H   0  0  0  0  0  0
  -22.7332  -29.2593   19.8695 H   0  0  0  0  0  0
  -25.1285  -36.1977   25.0830 H   0  0  0  0  0  0
  -20.9956  -28.3241   24.1435 H   0  0  0  0  0  0
  -20.5692  -26.2270   23.3601 H   0  0  0  0  0  0
  -21.6632  -26.7462   22.1192 H   0  0  0  0  0  0
  -19.6897  -25.6299   21.1233 H   0  0  0  0  0  0
  -19.6672  -27.3198   20.6756 H   0  0  0  0  0  0
  -17.4191  -26.6699   21.4022 H   0  0  0  0  0  0
  -18.0297  -26.0064   22.9016 H   0  0  0  0  0  0
  -19.7931  -30.7272   24.2256 H   0  0  0  0  0  0
  -17.5015  -31.6267   24.5170 H   0  0  0  0  0  0
  -15.5345  -30.2988   23.7662 H   0  0  0  0  0  0
  -15.8664  -28.0825   22.7063 H   0  0  0  0  0  0
  -24.5927  -30.7019   25.7776 H   0  0  0  0  0  0
  -24.8914  -32.2809   26.4942 H   0  0  0  0  0  0
  -25.8091  -30.8811   27.0210 H   0  0  0  0  0  0
  -26.2916  -29.6782   24.1199 H   0  0  0  0  0  0
  -27.4157  -29.7319   25.4590 H   0  0  0  0  0  0
  -27.8726  -30.4396   23.9276 H   0  0  0  0  0  0
  -27.2660  -33.3618   26.2113 H   0  0  0  0  0  0
  -28.3850  -32.6906   25.0339 H   0  0  0  0  0  0
  -28.0727  -31.8443   26.5415 H   0  0  0  0  0  0
  -28.2597  -38.0107   24.7541 H   0  0  0  0  0  0
  -28.1079  -36.2639   24.6287 H   0  0  0  0  0  0
  -27.2285  -37.1450   25.8869 H   0  0  0  0  0  0
  -20.9305  -29.8765   21.6952 H   0  0  0  0  0  0
  -26.0188  -38.2875   24.1420 H   0  0  0  0  0  0
  -32.2161  -20.3455   21.9922 H   0  0  0  0  0  0
  -32.4641  -16.0874   22.2255 H   0  0  0  0  0  0
  -28.9164  -17.9178   20.5750 H   0  0  0  0  0  0
  -34.0383  -19.3678   23.1322 H   0  0  0  0  0  0
  -34.5969  -18.0718   22.0711 H   0  0  0  0  0  0
  -33.9224  -17.6899   23.6594 H   0  0  0  0  0  0
  -27.9484  -22.5928   20.8639 H   0  0  0  0  0  0
  -28.8220  -22.5306   19.3526 H   0  0  0  0  0  0
  -30.2238  -24.5024   20.0547 H   0  0  0  0  0  0
  -29.4192  -24.5370   21.6064 H   0  0  0  0  0  0
  -27.2446  -24.8989   20.4667 H   0  0  0  0  0  0
  -28.0543  -24.9893   18.9092 H   0  0  0  0  0  0
  -28.8474  -20.2697   20.3172 H   0  0  0  0  0  0
  -29.0893  -15.3938   21.2878 H   0  0  0  0  0  0
  1 25  1  0  0  0
  1 30  2  0  0  0
  1 83  1  0  0  0
  2  3  1  0  0  0
  2 25  1  0  0  0
  2 85  1  0  0  0
  2 86  1  0  0  0
  3  4  1  0  0  0
  3 87  1  0  0  0
  3 88  1  0  0  0
  4  5  1  0  0  0
  4 89  1  0  0  0
  4 90  1  0  0  0
  5  6  1  0  0  0
  5 26  1  0  0  0
  5 91  1  0  0  0
  6 25  1  0  0  0
  6 92  1  0  0  0
  6 93  1  0  0  0
  7  8  2  0  0  0
  7 26  1  0  0  0
  7 29  1  0  0  0
  8  9  1  0  0  0
  8 22  1  0  0  0
  9 10  1  0  0  0
  9 27  2  0  0  0
 10 11  2  0  0  0
 10 15  1  0  0  0
 11 12  1  0  0  0
 11 94  1  0  0  0
 12 13  2  0  0  0
 12 95  1  0  0  0
 13 14  1  0  0  0
 13 31  1  0  0  0
 14 15  2  0  0  0
 14 96  1  0  0  0
 15 97  1  0  0  0
 16 17  2  0  0  0
 16 21  1  0  0  0
 16 31  1  0  0  0
 17 18  1  0  0  0
 17 98  1  0  0  0
 18 19  2  0  0  0
 18 99  1  0  0  0
 19 20  1  0  0  0
 19 24  1  0  0  0
 20 21  2  0  0  0
 20100  1  0  0  0
 21 23  1  0  0  0
 22 28  1  0  0  0
 22 32  2  0  0  0
 26 27  1  0  0  0
 28101  1  0  0  0
 28102  1  0  0  0
 29103  1  0  0  0
 29104  1  0  0  0
 33 34  1  0  0  0
 33 66  1  0  0  0
 33 70  2  0  0  0
 34 36  1  0  0  0
 34 59  1  0  0  0
 34105  1  0  0  0
 35 44  2  0  0  0
 35 45  1  0  0  0
 35 68  1  0  0  0
 36 56  1  0  0  0
 36106  1  0  0  0
 37 39  1  0  0  0
 37 47  1  0  0  0
 37 66  1  0  0  0
 37107  1  0  0  0
 38 43  2  0  0  0
 38 46  1  0  0  0
 38 47  1  0  0  0
 39 64  1  0  0  0
 39 67  2  0  0  0
 40 52  1  0  0  0
 40 53  2  0  0  0
 40 58  1  0  0  0
 41108  1  0  0  0
 41109  1  0  0  0
 41110  1  0  0  0
 41 48  1  0  0  0
 42 43  1  0  0  0
 42 66  1  0  0  0
 42111  1  0  0  0
 42112  1  0  0  0
 43 44  1  0  0  0
 44113  1  0  0  0
 45 46  2  0  0  0
 45114  1  0  0  0
 46115  1  0  0  0
 47116  1  0  0  0
 47117  1  0  0  0
 48 56  1  0  0  0
 48 65  1  0  0  0
 48118  1  0  0  0
 49 50  1  0  0  0
 49 53  1  0  0  0
 49 64  1  0  0  0
 49119  1  0  0  0
 50 51  1  0  0  0
 50120  1  0  0  0
 50121  1  0  0  0
 51 52  1  0  0  0
 51122  1  0  0  0
 51123  1  0  0  0
 52124  1  0  0  0
 52125  1  0  0  0
 53 54  1  0  0  0
 54 55  2  0  0  0
 54126  1  0  0  0
 55 57  1  0  0  0
 55127  1  0  0  0
 56 69  2  0  0  0
 57 58  2  0  0  0
 57128  1  0  0  0
 58129  1  0  0  0
 59 60  1  0  0  0
 59 61  1  0  0  0
 59 62  1  0  0  0
 60130  1  0  0  0
 60131  1  0  0  0
 60132  1  0  0  0
 61133  1  0  0  0
 61134  1  0  0  0
 61135  1  0  0  0
 62136  1  0  0  0
 62137  1  0  0  0
 62138  1  0  0  0
 63 65  1  0  0  0
 63139  1  0  0  0
 63140  1  0  0  0
 63141  1  0  0  0
 64142  1  0  0  0
 65143  1  0  0  0
 68 81  1  0  0  0
 71 74  2  0  0  0
 71 75  1  0  0  0
 71144  1  0  0  0
 72 74  1  0  0  0
 72 76  2  0  0  0
 72145  1  0  0  0
 73 75  2  0  0  0
 73 76  1  0  0  0
 73146  1  0  0  0
 74 78  1  0  0  0
 75 82  1  0  0  0
 76 83  1  0  0  0
 77 79  1  0  0  0
 77 82  1  0  0  0
 77 84  2  0  0  0
 78147  1  0  0  0
 78148  1  0  0  0
 78149  1  0  0  0
 79 80  1  0  0  0
 79150  1  0  0  0
 79151  1  0  0  0
 80 81  1  0  0  0
 80152  1  0  0  0
 80153  1  0  0  0
 81154  1  0  0  0
 81155  1  0  0  0
 82156  1  0  0  0
 83157  1  0  0  0
M  ISO  4   1 100  68 101  81 101  83 100
M  END
> <chiral flag>
0

> <version>
0

> <s_m_source_file>
/data/baiqing/PycharmProjects/Reinvent-master-3.2/result/LINK_invent/BTK/process_docking_weight1_custom_product_contain_oxygen_bond_distance_aromatic_linkinvent_7_9_3/rearranged_h_0138.sdf

> <i_m_source_file_index>
31

> <r_mmod_Potential_Energy-OPLS-2005>
-75.9528503417969

> <r_mmod_Stretch_Energy-OPLS-2005>
43.5529899597168

> <r_mmod_Bend_Energy-OPLS-2005>
102.220924377441

> <r_mmod_Torsional_Energy-OPLS-2005>
222.655029296875

> <r_mmod_Improper_Torsional_Energy-OPLS-2005>
3.52967357635498

> <r_mmod_Van_der_Waal_Energy-OPLS-2005>
167.605407714844

> <r_mmod_Electrostatic_Energy-OPLS-2005>
-396.611022949219

> <r_mmod_Solvation_Energy-OPLS-2005>
-236.575576782227

> <b_mmod_Minimization_Converged-OPLS-2005>
0

> <r_mmod_RMS_Derivative-OPLS-2005>
0.693717777729034

$$$$
31
                    3D
 Structure written by MMmdl.
162170  0  0  1  0            999 V2000
  -30.6115  -14.7128   20.3983 C   0  0  0  0  0  0
  -30.4238  -12.4124   19.4795 C   0  0  0  0  0  0
  -29.5138  -12.4880   18.2346 C   0  0  0  0  0  0
  -28.0317  -12.3284   18.6367 C   0  0  0  0  0  0
  -27.6388  -13.2266   19.8427 C   0  0  2  0  0  0
  -28.6827  -13.1484   20.9774 C   0  0  0  0  0  0
  -25.2509  -13.8188   20.5674 C   0  0  0  0  0  0
  -24.1803  -13.0437   20.9202 C   0  0  0  0  0  0
  -24.6377  -11.6912   20.8741 C   0  0  0  0  0  0
  -23.9049  -10.4294   21.0416 C   0  0  0  0  0  0
  -24.3626   -9.4205   21.9159 C   0  0  0  0  0  0
  -23.6311   -8.2233   22.0711 C   0  0  0  0  0  0
  -22.4282   -8.0258   21.3516 C   0  0  0  0  0  0
  -21.9928   -9.0227   20.4609 C   0  0  0  0  0  0
  -22.7253  -10.2111   20.3028 C   0  0  0  0  0  0
  -21.6858   -6.0733   22.5291 C   0  0  0  0  0  0
  -21.4018   -6.5636   23.8224 C   0  0  0  0  0  0
  -21.3677   -5.6775   24.9174 C   0  0  0  0  0  0
  -21.6043   -4.3038   24.7229 C   0  0  0  0  0  0
  -21.8831   -3.8143   23.4349 C   0  0  0  0  0  0
  -21.9205   -4.6965   22.3414 C   0  0  0  0  0  0
  -22.7835  -13.5218   21.1900 C   0  0  0  0  0  0
  -22.1656   -4.2153   21.0990 F   0  0  0  0  0  0
  -21.5650   -3.4515   25.7739 F   0  0  0  0  0  0
  -29.9892  -13.4868   20.3961 N   0  0  0  0  0  0
  -26.2917  -12.9384   20.3247 N   0  0  0  0  0  0
  -25.9304  -11.6522   20.5734 N   0  0  0  0  0  0
  -22.0491  -12.8161   22.0453 N   0  0  0  0  0  0
  -25.4252  -15.1906   20.4112 N   0  0  0  0  0  0
  -31.8169  -14.7787   20.1363 O   0  0  0  0  0  0
  -21.6640   -6.8858   21.4235 O   0  0  0  0  0  0
  -22.3524  -14.5530   20.6743 O   0  0  0  0  0  0
  -24.6271  -31.8541   23.1968 C   0  0  0  0  0  0
  -25.9095  -32.4737   23.8306 C   0  0  1  0  0  0
  -27.2175  -27.2895   20.1132 C   0  0  0  0  0  0
  -25.5849  -33.8520   24.2201 N   0  0  0  0  0  0
  -23.4187  -30.4725   21.5461 C   0  0  2  0  0  0
  -24.8608  -28.9112   20.1212 C   0  0  0  0  0  0
  -22.7431  -29.4601   22.5005 C   0  0  0  0  0  0
  -18.0264  -28.1417   22.8510 C   0  0  0  0  0  0
  -24.1477  -36.7275   23.2659 C   0  0  0  0  0  0
  -25.9620  -30.7706   21.3766 C   0  0  0  0  0  0
  -26.0323  -29.3933   20.7213 C   0  0  0  0  0  0
  -27.2174  -28.5961   20.7035 C   0  0  0  0  0  0
  -26.0234  -26.8514   19.5136 C   0  0  0  0  0  0
  -24.8572  -27.6444   19.5148 C   0  0  0  0  0  0
  -23.6276  -29.7916   20.1659 C   0  0  0  0  0  0
  -25.4109  -36.3028   24.0328 C   0  0  1  0  0  0
  -20.5859  -28.3694   23.1317 C   0  0  2  0  0  0
  -20.6762  -26.9438   22.5437 C   0  0  0  0  0  0
  -19.5732  -26.6416   21.5239 C   0  0  0  0  0  0
  -18.1907  -26.7973   22.1622 C   0  0  0  0  0  0
  -19.1518  -28.8881   23.2899 C   0  0  0  0  0  0
  -18.9455  -30.1503   23.8898 C   0  0  0  0  0  0
  -17.6450  -30.6627   24.0604 C   0  0  0  0  0  0
  -25.9040  -34.9413   23.5086 C   0  0  0  0  0  0
  -16.5342  -29.9133   23.6358 C   0  0  0  0  0  0
  -16.7245  -28.6546   23.0369 C   0  0  0  0  0  0
  -26.4440  -31.6592   25.0736 C   0  0  0  0  0  0
  -25.3625  -31.3820   26.1444 C   0  0  0  0  0  0
  -27.0320  -30.3001   24.6285 C   0  0  0  0  0  0
  -27.5972  -32.4382   25.7483 C   0  0  0  0  0  0
  -27.5559  -37.1778   24.8447 C   0  0  0  0  0  0
  -21.4167  -29.3031   22.3729 N   0  0  0  0  0  0
  -26.4260  -37.3752   23.9398 N   0  0  0  0  0  0
  -24.6878  -31.0512   22.0939 N   0  0  0  0  0  0
  -23.4152  -28.8171   23.3101 O   0  0  0  0  0  0
  -28.3557  -26.4712   20.0314 O   0  0  0  0  0  0
  -26.5668  -34.8903   22.4688 O   0  0  0  0  0  0
  -23.5438  -32.1344   23.7283 O   0  0  0  0  0  0
  -30.4718  -19.9046   18.9654 C   0  0  0  0  0  0
  -29.1888  -18.3701   20.3518 C   0  0  0  0  0  0
  -31.1087  -17.5370   19.1254 C   0  0  0  0  0  0
  -29.3777  -19.7196   19.8363 C   0  0  0  0  0  0
  -31.3018  -18.8299   18.5864 C   0  0  0  0  0  0
  -30.0515  -17.2464   20.0278 C   0  0  0  0  0  0
  -28.4181  -20.9205   20.0238 C   0  0  0  0  0  0
  -32.3763  -19.0484   17.5324 C   0  0  0  0  0  0
  -29.9636  -25.1572   21.0492 C   0  0  0  0  0  0
  -27.6365  -25.1123   21.9565 C   0  0  0  0  0  0
  -28.9096  -22.3813   20.4255 C   0  0  0  0  0  0
  -28.2334  -23.7441   19.8430 C   0  0  0  0  0  0
  -28.4747  -25.1209   20.6649 C   0  0  0  0  0  0
  -27.1750  -20.7418   19.8679 N   0  0  0  0  0  0
  -29.8229  -15.8512   20.4933 N   0  0  0  0  0  0
  -31.4730  -12.5141   19.1936 H   0  0  0  0  0  0
  -30.3379  -11.4410   19.9663 H   0  0  0  0  0  0
  -29.7968  -11.7153   17.5170 H   0  0  0  0  0  0
  -29.6609  -13.4442   17.7305 H   0  0  0  0  0  0
  -27.8747  -11.2790   18.8891 H   0  0  0  0  0  0
  -27.3837  -12.5368   17.7831 H   0  0  0  0  0  0
  -27.6339  -14.2486   19.4664 H   0  0  0  0  0  0
  -28.7078  -12.1447   21.4048 H   0  0  0  0  0  0
  -28.4255  -13.8263   21.7918 H   0  0  0  0  0  0
  -25.2770   -9.5702   22.4732 H   0  0  0  0  0  0
  -24.0051   -7.4622   22.7408 H   0  0  0  0  0  0
  -21.0869   -8.8722   19.8913 H   0  0  0  0  0  0
  -22.3686  -10.9635   19.6136 H   0  0  0  0  0  0
  -21.1973   -7.6132   23.9738 H   0  0  0  0  0  0
  -21.1507   -6.0480   25.9070 H   0  0  0  0  0  0
  -22.0603   -2.7599   23.2851 H   0  0  0  0  0  0
  -22.4115  -11.9814   22.4824 H   0  0  0  0  0  0
  -21.1083  -13.1152   22.2630 H   0  0  0  0  0  0
  -24.6637  -15.8542   20.5165 H   0  0  0  0  0  0
  -26.2769  -15.6265   20.0817 H   0  0  0  0  0  0
  -26.7153  -32.5380   23.1043 H   0  0  0  0  0  0
  -24.9829  -33.9626   25.0233 H   0  0  0  0  0  0
  -22.7203  -31.2989   21.4026 H   0  0  0  0  0  0
  -23.3698  -35.9637   23.3301 H   0  0  0  0  0  0
  -24.3600  -36.8921   22.2082 H   0  0  0  0  0  0
  -23.7250  -37.6481   23.6713 H   0  0  0  0  0  0
  -26.1101  -31.5367   20.6156 H   0  0  0  0  0  0
  -26.8359  -30.8118   22.0156 H   0  0  0  0  0  0
  -28.1238  -28.9625   21.1668 H   0  0  0  0  0  0
  -25.9980  -25.8853   19.0301 H   0  0  0  0  0  0
  -23.9582  -27.2639   19.0515 H   0  0  0  0  0  0
  -23.7389  -30.5571   19.3981 H   0  0  0  0  0  0
  -22.7438  -29.2147   19.8780 H   0  0  0  0  0  0
  -25.1323  -36.1859   25.0825 H   0  0  0  0  0  0
  -20.9951  -28.3275   24.1418 H   0  0  0  0  0  0
  -20.5709  -26.2306   23.3632 H   0  0  0  0  0  0
  -21.6636  -26.7524   22.1224 H   0  0  0  0  0  0
  -19.6913  -25.6329   21.1265 H   0  0  0  0  0  0
  -19.6671  -27.3246   20.6806 H   0  0  0  0  0  0
  -17.4192  -26.6722   21.4007 H   0  0  0  0  0  0
  -18.0298  -26.0128   22.9028 H   0  0  0  0  0  0
  -19.7934  -30.7328   24.2251 H   0  0  0  0  0  0
  -17.5004  -31.6318   24.5212 H   0  0  0  0  0  0
  -15.5349  -30.3030   23.7727 H   0  0  0  0  0  0
  -15.8621  -28.0891   22.7070 H   0  0  0  0  0  0
  -24.5710  -30.7287   25.7739 H   0  0  0  0  0  0
  -24.8930  -32.3060   26.4867 H   0  0  0  0  0  0
  -25.7895  -30.8936   27.0221 H   0  0  0  0  0  0
  -26.2957  -29.6735   24.1227 H   0  0  0  0  0  0
  -27.3895  -29.7311   25.4882 H   0  0  0  0  0  0
  -27.8882  -30.4280   23.9643 H   0  0  0  0  0  0
  -27.2532  -33.3670   26.2060 H   0  0  0  0  0  0
  -28.3759  -32.6970   25.0282 H   0  0  0  0  0  0
  -28.0659  -31.8513   26.5384 H   0  0  0  0  0  0
  -28.2569  -38.0079   24.7510 H   0  0  0  0  0  0
  -28.1087  -36.2621   24.6282 H   0  0  0  0  0  0
  -27.2319  -37.1453   25.8862 H   0  0  0  0  0  0
  -20.9367  -29.8676   21.6870 H   0  0  0  0  0  0
  -26.0123  -38.2824   24.1399 H   0  0  0  0  0  0
  -30.6370  -20.8809   18.5238 H   0  0  0  0  0  0
  -28.3420  -18.1969   20.9994 H   0  0  0  0  0  0
  -31.7688  -16.7577   18.7776 H   0  0  0  0  0  0
  -32.1647  -19.9317   16.9282 H   0  0  0  0  0  0
  -32.4287  -18.1966   16.8506 H   0  0  0  0  0  0
  -33.3580  -19.1820   17.9898 H   0  0  0  0  0  0
  -30.2439  -24.3297   21.7037 H   0  0  0  0  0  0
  -30.2307  -26.0813   21.5617 H   0  0  0  0  0  0
  -30.5968  -25.0854   20.1633 H   0  0  0  0  0  0
  -27.8876  -24.2659   22.5939 H   0  0  0  0  0  0
  -26.5699  -25.0475   21.7360 H   0  0  0  0  0  0
  -27.7913  -26.0130   22.5517 H   0  0  0  0  0  0
  -29.9798  -22.4337   20.2247 H   0  0  0  0  0  0
  -28.8285  -22.4215   21.5087 H   0  0  0  0  0  0
  -27.1584  -23.5967   19.7331 H   0  0  0  0  0  0
  -28.5919  -23.8865   18.8231 H   0  0  0  0  0  0
  -26.6426  -21.5970   19.9975 H   0  0  0  0  0  0
  -28.8792  -15.6597   20.7944 H   0  0  0  0  0  0
  1 25  1  0  0  0
  1 30  2  0  0  0
  1 85  1  0  0  0
  2  3  1  0  0  0
  2 25  1  0  0  0
  2 86  1  0  0  0
  2 87  1  0  0  0
  3  4  1  0  0  0
  3 88  1  0  0  0
  3 89  1  0  0  0
  4  5  1  0  0  0
  4 90  1  0  0  0
  4 91  1  0  0  0
  5  6  1  0  0  0
  5 26  1  0  0  0
  5 92  1  0  0  0
  6 25  1  0  0  0
  6 93  1  0  0  0
  6 94  1  0  0  0
  7  8  2  0  0  0
  7 26  1  0  0  0
  7 29  1  0  0  0
  8  9  1  0  0  0
  8 22  1  0  0  0
  9 10  1  0  0  0
  9 27  2  0  0  0
 10 11  2  0  0  0
 10 15  1  0  0  0
 11 12  1  0  0  0
 11 95  1  0  0  0
 12 13  2  0  0  0
 12 96  1  0  0  0
 13 14  1  0  0  0
 13 31  1  0  0  0
 14 15  2  0  0  0
 14 97  1  0  0  0
 15 98  1  0  0  0
 16 17  2  0  0  0
 16 21  1  0  0  0
 16 31  1  0  0  0
 17 18  1  0  0  0
 17 99  1  0  0  0
 18 19  2  0  0  0
 18100  1  0  0  0
 19 20  1  0  0  0
 19 24  1  0  0  0
 20 21  2  0  0  0
 20101  1  0  0  0
 21 23  1  0  0  0
 22 28  1  0  0  0
 22 32  2  0  0  0
 26 27  1  0  0  0
 28102  1  0  0  0
 28103  1  0  0  0
 29104  1  0  0  0
 29105  1  0  0  0
 33 34  1  0  0  0
 33 66  1  0  0  0
 33 70  2  0  0  0
 34 36  1  0  0  0
 34 59  1  0  0  0
 34106  1  0  0  0
 35 44  2  0  0  0
 35 45  1  0  0  0
 35 68  1  0  0  0
 36 56  1  0  0  0
 36107  1  0  0  0
 37 39  1  0  0  0
 37 47  1  0  0  0
 37 66  1  0  0  0
 37108  1  0  0  0
 38 43  2  0  0  0
 38 46  1  0  0  0
 38 47  1  0  0  0
 39 64  1  0  0  0
 39 67  2  0  0  0
 40 52  1  0  0  0
 40 53  2  0  0  0
 40 58  1  0  0  0
 41109  1  0  0  0
 41110  1  0  0  0
 41111  1  0  0  0
 41 48  1  0  0  0
 42 43  1  0  0  0
 42 66  1  0  0  0
 42112  1  0  0  0
 42113  1  0  0  0
 43 44  1  0  0  0
 44114  1  0  0  0
 45 46  2  0  0  0
 45115  1  0  0  0
 46116  1  0  0  0
 47117  1  0  0  0
 47118  1  0  0  0
 48 56  1  0  0  0
 48 65  1  0  0  0
 48119  1  0  0  0
 49 50  1  0  0  0
 49 53  1  0  0  0
 49 64  1  0  0  0
 49120  1  0  0  0
 50 51  1  0  0  0
 50121  1  0  0  0
 50122  1  0  0  0
 51 52  1  0  0  0
 51123  1  0  0  0
 51124  1  0  0  0
 52125  1  0  0  0
 52126  1  0  0  0
 53 54  1  0  0  0
 54 55  2  0  0  0
 54127  1  0  0  0
 55 57  1  0  0  0
 55128  1  0  0  0
 56 69  2  0  0  0
 57 58  2  0  0  0
 57129  1  0  0  0
 58130  1  0  0  0
 59 60  1  0  0  0
 59 61  1  0  0  0
 59 62  1  0  0  0
 60131  1  0  0  0
 60132  1  0  0  0
 60133  1  0  0  0
 61134  1  0  0  0
 61135  1  0  0  0
 61136  1  0  0  0
 62137  1  0  0  0
 62138  1  0  0  0
 62139  1  0  0  0
 63 65  1  0  0  0
 63140  1  0  0  0
 63141  1  0  0  0
 63142  1  0  0  0
 64143  1  0  0  0
 65144  1  0  0  0
 68 83  1  0  0  0
 71 74  2  0  0  0
 71 75  1  0  0  0
 71145  1  0  0  0
 72 74  1  0  0  0
 72 76  2  0  0  0
 72146  1  0  0  0
 73 75  2  0  0  0
 73 76  1  0  0  0
 73147  1  0  0  0
 74 77  1  0  0  0
 75 78  1  0  0  0
 76 85  1  0  0  0
 77 81  1  0  0  0
 77 84  2  0  0  0
 78148  1  0  0  0
 78149  1  0  0  0
 78150  1  0  0  0
 79151  1  0  0  0
 79152  1  0  0  0
 79153  1  0  0  0
 79 83  1  0  0  0
 80 83  1  0  0  0
 80154  1  0  0  0
 80155  1  0  0  0
 80156  1  0  0  0
 81 82  1  0  0  0
 81157  1  0  0  0
 81158  1  0  0  0
 82 83  1  0  0  0
 82159  1  0  0  0
 82160  1  0  0  0
 84161  1  0  0  0
 85162  1  0  0  0
M  ISO  4   1 100  68 101  83 101  85 100
M  END
> <chiral flag>
0

> <version>
0

> <s_m_source_file>
/data/baiqing/PycharmProjects/Reinvent-master-3.2/result/LINK_invent/BTK/process_docking_weight1_custom_product_contain_oxygen_bond_distance_aromatic_linkinvent_7_9_3/rearranged_h_0138.sdf

> <i_m_source_file_index>
32

> <r_mmod_Potential_Energy-OPLS-2005>
127.488662719727

> <r_mmod_Stretch_Energy-OPLS-2005>
116.78434753418

> <r_mmod_Bend_Energy-OPLS-2005>
172.471939086914

> <r_mmod_Torsional_Energy-OPLS-2005>
257.106292724609

> <r_mmod_Improper_Torsional_Energy-OPLS-2005>
5.98796224594116

> <r_mmod_Van_der_Waal_Energy-OPLS-2005>
138.510971069336

> <r_mmod_Electrostatic_Energy-OPLS-2005>
-425.398254394531

> <r_mmod_Solvation_Energy-OPLS-2005>
-206.169815063477

> <b_mmod_Minimization_Converged-OPLS-2005>
0

> <r_mmod_RMS_Derivative-OPLS-2005>
5.48513555526733

$$$$
32
                    3D
 Structure written by MMmdl.
165174  0  0  1  0            999 V2000
  -30.6618  -14.7214   20.4677 C   0  0  0  0  0  0
  -30.4286  -12.4475   19.4586 C   0  0  0  0  0  0
  -29.5036  -12.5126   18.2246 C   0  0  0  0  0  0
  -28.0305  -12.3353   18.6432 C   0  0  0  0  0  0
  -27.6359  -13.2362   19.8446 C   0  0  2  0  0  0
  -28.6916  -13.1842   20.9738 C   0  0  0  0  0  0
  -25.2345  -13.8057   20.5703 C   0  0  0  0  0  0
  -24.1703  -13.0293   20.9243 C   0  0  0  0  0  0
  -24.6375  -11.6825   20.8763 C   0  0  0  0  0  0
  -23.9063  -10.4219   21.0408 C   0  0  0  0  0  0
  -24.3606   -9.4149   21.9191 C   0  0  0  0  0  0
  -23.6274   -8.2194   22.0758 C   0  0  0  0  0  0
  -22.4254   -8.0248   21.3542 C   0  0  0  0  0  0
  -21.9896   -9.0215   20.4644 C   0  0  0  0  0  0
  -22.7235  -10.2083   20.3044 C   0  0  0  0  0  0
  -21.6839   -6.0709   22.5274 C   0  0  0  0  0  0
  -21.4014   -6.5621   23.8206 C   0  0  0  0  0  0
  -21.3663   -5.6777   24.9175 C   0  0  0  0  0  0
  -21.6039   -4.3036   24.7229 C   0  0  0  0  0  0
  -21.8824   -3.8124   23.4356 C   0  0  0  0  0  0
  -21.9193   -4.6939   22.3408 C   0  0  0  0  0  0
  -22.7727  -13.5086   21.1880 C   0  0  0  0  0  0
  -22.1664   -4.2128   21.0991 F   0  0  0  0  0  0
  -21.5631   -3.4529   25.7747 F   0  0  0  0  0  0
  -29.9947  -13.5194   20.3804 N   0  0  0  0  0  0
  -26.2887  -12.9386   20.3287 N   0  0  0  0  0  0
  -25.9321  -11.6510   20.5757 N   0  0  0  0  0  0
  -22.0386  -12.8113   22.0468 N   0  0  0  0  0  0
  -25.3623  -15.1746   20.4094 N   0  0  0  0  0  0
  -31.8617  -14.7789   20.1904 O   0  0  0  0  0  0
  -21.6615   -6.8850   21.4235 O   0  0  0  0  0  0
  -22.3415  -14.5391   20.6715 O   0  0  0  0  0  0
  -24.6287  -31.8580   23.2017 C   0  0  0  0  0  0
  -25.9124  -32.4773   23.8350 C   0  0  1  0  0  0
  -27.2256  -27.2867   20.1159 C   0  0  0  0  0  0
  -25.5929  -33.8574   24.2275 N   0  0  0  0  0  0
  -23.4243  -30.4820   21.5444 C   0  0  2  0  0  0
  -24.8723  -28.9357   20.1090 C   0  0  0  0  0  0
  -22.7493  -29.4611   22.4923 C   0  0  0  0  0  0
  -18.0291  -28.1381   22.8485 C   0  0  0  0  0  0
  -24.1489  -36.7292   23.2637 C   0  0  0  0  0  0
  -25.9688  -30.7757   21.3822 C   0  0  0  0  0  0
  -26.0407  -29.4009   20.7232 C   0  0  0  0  0  0
  -27.2148  -28.5855   20.7232 C   0  0  0  0  0  0
  -26.0343  -26.8940   19.4590 C   0  0  0  0  0  0
  -24.8730  -27.6888   19.4696 C   0  0  0  0  0  0
  -23.6419  -29.8186   20.1591 C   0  0  0  0  0  0
  -25.4115  -36.3086   24.0330 C   0  0  1  0  0  0
  -20.5892  -28.3688   23.1277 C   0  0  2  0  0  0
  -20.6776  -26.9407   22.5407 C   0  0  0  0  0  0
  -19.5751  -26.6380   21.5208 C   0  0  0  0  0  0
  -18.1936  -26.7924   22.1622 C   0  0  0  0  0  0
  -19.1544  -28.8852   23.2880 C   0  0  0  0  0  0
  -18.9464  -30.1454   23.8896 C   0  0  0  0  0  0
  -17.6463  -30.6587   24.0560 C   0  0  0  0  0  0
  -25.9051  -34.9453   23.5102 C   0  0  0  0  0  0
  -16.5354  -29.9081   23.6330 C   0  0  0  0  0  0
  -16.7278  -28.6499   23.0351 C   0  0  0  0  0  0
  -26.4491  -31.6592   25.0736 C   0  0  0  0  0  0
  -25.3712  -31.3740   26.1457 C   0  0  0  0  0  0
  -27.0339  -30.3009   24.6220 C   0  0  0  0  0  0
  -27.6051  -32.4329   25.7507 C   0  0  0  0  0  0
  -27.5583  -37.1804   24.8464 C   0  0  0  0  0  0
  -21.4201  -29.3043   22.3672 N   0  0  0  0  0  0
  -26.4294  -37.3782   23.9409 N   0  0  0  0  0  0
  -24.6927  -31.0559   22.0991 N   0  0  0  0  0  0
  -23.4204  -28.8147   23.3009 O   0  0  0  0  0  0
  -28.3408  -26.4235   20.1993 O   0  0  0  0  0  0
  -26.5618  -34.8920   22.4669 O   0  0  0  0  0  0
  -23.5441  -32.1397   23.7317 O   0  0  0  0  0  0
  -31.8326  -18.7928   22.0591 C   0  0  0  0  0  0
  -31.0534  -19.9187   21.7416 C   0  0  0  0  0  0
  -31.4551  -17.5043   21.6409 C   0  0  0  0  0  0
  -29.5321  -18.4811   20.4796 C   0  0  0  0  0  0
  -29.8863  -19.8141   20.9572 C   0  0  0  0  0  0
  -30.2987  -17.2883   20.8570 C   0  0  0  0  0  0
  -28.9444  -23.8644   20.5685 C   0  0  0  0  0  0
  -26.9466  -18.6265   19.9316 C   0  0  0  0  0  0
  -27.3987  -17.2524   19.5235 C   0  0  0  0  0  0
  -28.3825  -18.3870   19.5120 C   0  0  0  0  0  0
  -30.8696  -22.4806   19.6709 C   0  0  0  0  0  0
  -28.6321  -22.2351   18.5969 C   0  0  0  0  0  0
  -28.9944  -21.1355   20.8513 C   0  0  0  0  0  0
  -28.2741  -25.0154   19.6937 C   0  0  0  0  0  0
  -29.3533  -22.4321   19.9491 C   0  0  0  0  0  0
  -29.9126  -15.8805   20.5784 N   0  0  0  0  0  0
  -29.1768  -24.0857   21.7608 O   0  0  0  0  0  0
  -31.4711  -12.5587   19.1541 H   0  0  0  0  0  0
  -30.3612  -11.4733   19.9457 H   0  0  0  0  0  0
  -29.7839  -11.7477   17.4996 H   0  0  0  0  0  0
  -29.6285  -13.4725   17.7194 H   0  0  0  0  0  0
  -27.8886  -11.2865   18.9078 H   0  0  0  0  0  0
  -27.3709  -12.5277   17.7963 H   0  0  0  0  0  0
  -27.6195  -14.2537   19.4558 H   0  0  0  0  0  0
  -28.7254  -12.1944   21.4321 H   0  0  0  0  0  0
  -28.4362  -13.8844   21.7709 H   0  0  0  0  0  0
  -25.2758   -9.5625   22.4758 H   0  0  0  0  0  0
  -23.9977   -7.4580   22.7469 H   0  0  0  0  0  0
  -21.0832   -8.8731   19.8943 H   0  0  0  0  0  0
  -22.3706  -10.9618   19.6139 H   0  0  0  0  0  0
  -21.2006   -7.6134   23.9709 H   0  0  0  0  0  0
  -21.1483   -6.0509   25.9076 H   0  0  0  0  0  0
  -22.0602   -2.7589   23.2857 H   0  0  0  0  0  0
  -22.4012  -11.9801   22.4896 H   0  0  0  0  0  0
  -21.0998  -13.1128   22.2666 H   0  0  0  0  0  0
  -24.5629  -15.7909   20.5011 H   0  0  0  0  0  0
  -26.1747  -15.6409   20.0323 H   0  0  0  0  0  0
  -26.7193  -32.5427   23.1095 H   0  0  0  0  0  0
  -25.0076  -33.9715   25.0422 H   0  0  0  0  0  0
  -22.7194  -31.3035   21.4000 H   0  0  0  0  0  0
  -23.3756  -35.9619   23.3299 H   0  0  0  0  0  0
  -24.3586  -36.8915   22.2053 H   0  0  0  0  0  0
  -23.7233  -37.6490   23.6661 H   0  0  0  0  0  0
  -26.1064  -31.5391   20.6152 H   0  0  0  0  0  0
  -26.8471  -30.8230   22.0144 H   0  0  0  0  0  0
  -28.1064  -28.9330   21.2254 H   0  0  0  0  0  0
  -25.9488  -25.9605   18.9279 H   0  0  0  0  0  0
  -23.9794  -27.3320   18.9760 H   0  0  0  0  0  0
  -23.7654  -30.5954   19.4038 H   0  0  0  0  0  0
  -22.7613  -29.2507   19.8542 H   0  0  0  0  0  0
  -25.1293  -36.1937   25.0821 H   0  0  0  0  0  0
  -20.9986  -28.3261   24.1397 H   0  0  0  0  0  0
  -20.5676  -26.2293   23.3609 H   0  0  0  0  0  0
  -21.6649  -26.7433   22.1207 H   0  0  0  0  0  0
  -19.6911  -25.6290   21.1246 H   0  0  0  0  0  0
  -19.6688  -27.3184   20.6736 H   0  0  0  0  0  0
  -17.4204  -26.6676   21.4028 H   0  0  0  0  0  0
  -18.0332  -26.0068   22.9018 H   0  0  0  0  0  0
  -19.7941  -30.7271   24.2265 H   0  0  0  0  0  0
  -17.5017  -31.6267   24.5158 H   0  0  0  0  0  0
  -15.5353  -30.2973   23.7661 H   0  0  0  0  0  0
  -15.8683  -28.0815   22.7058 H   0  0  0  0  0  0
  -24.5885  -30.7092   25.7784 H   0  0  0  0  0  0
  -24.8898  -32.2906   26.4874 H   0  0  0  0  0  0
  -25.8022  -30.8921   27.0241 H   0  0  0  0  0  0
  -26.2925  -29.6760   24.1230 H   0  0  0  0  0  0
  -27.4004  -29.7272   25.4742 H   0  0  0  0  0  0
  -27.8809  -30.4286   23.9478 H   0  0  0  0  0  0
  -27.2664  -33.3629   26.2084 H   0  0  0  0  0  0
  -28.3858  -32.6889   25.0335 H   0  0  0  0  0  0
  -28.0723  -31.8455   26.5423 H   0  0  0  0  0  0
  -28.2599  -38.0103   24.7525 H   0  0  0  0  0  0
  -28.1082  -36.2639   24.6274 H   0  0  0  0  0  0
  -27.2309  -37.1437   25.8868 H   0  0  0  0  0  0
  -20.9378  -29.8771   21.6889 H   0  0  0  0  0  0
  -26.0176  -38.2859   24.1404 H   0  0  0  0  0  0
  -32.7145  -18.9142   22.6733 H   0  0  0  0  0  0
  -31.3468  -20.8792   22.1440 H   0  0  0  0  0  0
  -32.0640  -16.6724   21.9645 H   0  0  0  0  0  0
  -26.7357  -18.7809   20.9880 H   0  0  0  0  0  0
  -26.2953  -19.1569   19.2400 H   0  0  0  0  0  0
  -27.0475  -16.8743   18.5648 H   0  0  0  0  0  0
  -27.4767  -16.5320   20.3289 H   0  0  0  0  0  0
  -28.6872  -18.7645   18.5369 H   0  0  0  0  0  0
  -31.1300  -23.3129   19.0158 H   0  0  0  0  0  0
  -31.2195  -21.5689   19.1857 H   0  0  0  0  0  0
  -31.4398  -22.6071   20.5912 H   0  0  0  0  0  0
  -28.9320  -22.9733   17.8528 H   0  0  0  0  0  0
  -27.5477  -22.2895   18.7040 H   0  0  0  0  0  0
  -28.8642  -21.2581   18.1715 H   0  0  0  0  0  0
  -28.9318  -21.4827   21.8829 H   0  0  0  0  0  0
  -27.9652  -20.8558   20.6460 H   0  0  0  0  0  0
  -27.2488  -24.6751   19.5920 H   0  0  0  0  0  0
  -28.7117  -25.0030   18.6960 H   0  0  0  0  0  0
  -28.9204  -15.7259   20.5020 H   0  0  0  0  0  0
  1 25  1  0  0  0
  1 30  2  0  0  0
  1 86  1  0  0  0
  2  3  1  0  0  0
  2 25  1  0  0  0
  2 88  1  0  0  0
  2 89  1  0  0  0
  3  4  1  0  0  0
  3 90  1  0  0  0
  3 91  1  0  0  0
  4  5  1  0  0  0
  4 92  1  0  0  0
  4 93  1  0  0  0
  5  6  1  0  0  0
  5 26  1  0  0  0
  5 94  1  0  0  0
  6 25  1  0  0  0
  6 95  1  0  0  0
  6 96  1  0  0  0
  7  8  2  0  0  0
  7 26  1  0  0  0
  7 29  1  0  0  0
  8  9  1  0  0  0
  8 22  1  0  0  0
  9 10  1  0  0  0
  9 27  2  0  0  0
 10 11  2  0  0  0
 10 15  1  0  0  0
 11 12  1  0  0  0
 11 97  1  0  0  0
 12 13  2  0  0  0
 12 98  1  0  0  0
 13 14  1  0  0  0
 13 31  1  0  0  0
 14 15  2  0  0  0
 14 99  1  0  0  0
 15100  1  0  0  0
 16 17  2  0  0  0
 16 21  1  0  0  0
 16 31  1  0  0  0
 17 18  1  0  0  0
 17101  1  0  0  0
 18 19  2  0  0  0
 18102  1  0  0  0
 19 20  1  0  0  0
 19 24  1  0  0  0
 20 21  2  0  0  0
 20103  1  0  0  0
 21 23  1  0  0  0
 22 28  1  0  0  0
 22 32  2  0  0  0
 26 27  1  0  0  0
 28104  1  0  0  0
 28105  1  0  0  0
 29106  1  0  0  0
 29107  1  0  0  0
 33 34  1  0  0  0
 33 66  1  0  0  0
 33 70  2  0  0  0
 34 36  1  0  0  0
 34 59  1  0  0  0
 34108  1  0  0  0
 35 44  2  0  0  0
 35 45  1  0  0  0
 35 68  1  0  0  0
 36 56  1  0  0  0
 36109  1  0  0  0
 37 39  1  0  0  0
 37 47  1  0  0  0
 37 66  1  0  0  0
 37110  1  0  0  0
 38 43  2  0  0  0
 38 46  1  0  0  0
 38 47  1  0  0  0
 39 64  1  0  0  0
 39 67  2  0  0  0
 40 52  1  0  0  0
 40 53  2  0  0  0
 40 58  1  0  0  0
 41111  1  0  0  0
 41112  1  0  0  0
 41113  1  0  0  0
 41 48  1  0  0  0
 42 43  1  0  0  0
 42 66  1  0  0  0
 42114  1  0  0  0
 42115  1  0  0  0
 43 44  1  0  0  0
 44116  1  0  0  0
 45 46  2  0  0  0
 45117  1  0  0  0
 46118  1  0  0  0
 47119  1  0  0  0
 47120  1  0  0  0
 48 56  1  0  0  0
 48 65  1  0  0  0
 48121  1  0  0  0
 49 50  1  0  0  0
 49 53  1  0  0  0
 49 64  1  0  0  0
 49122  1  0  0  0
 50 51  1  0  0  0
 50123  1  0  0  0
 50124  1  0  0  0
 51 52  1  0  0  0
 51125  1  0  0  0
 51126  1  0  0  0
 52127  1  0  0  0
 52128  1  0  0  0
 53 54  1  0  0  0
 54 55  2  0  0  0
 54129  1  0  0  0
 55 57  1  0  0  0
 55130  1  0  0  0
 56 69  2  0  0  0
 57 58  2  0  0  0
 57131  1  0  0  0
 58132  1  0  0  0
 59 60  1  0  0  0
 59 61  1  0  0  0
 59 62  1  0  0  0
 60133  1  0  0  0
 60134  1  0  0  0
 60135  1  0  0  0
 61136  1  0  0  0
 61137  1  0  0  0
 61138  1  0  0  0
 62139  1  0  0  0
 62140  1  0  0  0
 62141  1  0  0  0
 63 65  1  0  0  0
 63142  1  0  0  0
 63143  1  0  0  0
 63144  1  0  0  0
 64145  1  0  0  0
 65146  1  0  0  0
 68 84  1  0  0  0
 71 72  2  0  0  0
 71 73  1  0  0  0
 71147  1  0  0  0
 72 75  1  0  0  0
 72148  1  0  0  0
 73 76  2  0  0  0
 73149  1  0  0  0
 74 75  2  0  0  0
 74 76  1  0  0  0
 74 80  1  0  0  0
 75 83  1  0  0  0
 76 86  1  0  0  0
 77 84  1  0  0  0
 77 85  1  0  0  0
 77 87  2  0  0  0
 78 79  1  0  0  0
 78 80  1  0  0  0
 78150  1  0  0  0
 78151  1  0  0  0
 79 80  1  0  0  0
 79152  1  0  0  0
 79153  1  0  0  0
 80154  1  0  0  0
 81155  1  0  0  0
 81156  1  0  0  0
 81157  1  0  0  0
 81 85  1  0  0  0
 82 85  1  0  0  0
 82158  1  0  0  0
 82159  1  0  0  0
 82160  1  0  0  0
 83 85  1  0  0  0
 83161  1  0  0  0
 83162  1  0  0  0
 84163  1  0  0  0
 84164  1  0  0  0
 86165  1  0  0  0
M  ISO  4   1 100  68 101  84 101  86 100
M  END
> <chiral flag>
0

> <version>
0

> <s_m_source_file>
/data/baiqing/PycharmProjects/Reinvent-master-3.2/result/LINK_invent/BTK/process_docking_weight1_custom_product_contain_oxygen_bond_distance_aromatic_linkinvent_7_9_3/rearranged_h_0138.sdf

> <i_m_source_file_index>
33

> <r_mmod_Potential_Energy-OPLS-2005>
255.758010864258

> <r_mmod_Stretch_Energy-OPLS-2005>
121.667533874512

> <r_mmod_Bend_Energy-OPLS-2005>
169.713287353516

> <r_mmod_Torsional_Energy-OPLS-2005>
271.967681884766

> <r_mmod_Improper_Torsional_Energy-OPLS-2005>
8.29366493225098

> <r_mmod_Van_der_Waal_Energy-OPLS-2005>
147.204849243164

> <r_mmod_Electrostatic_Energy-OPLS-2005>
-321.115600585938

> <r_mmod_Solvation_Energy-OPLS-2005>
-218.400527954102

> <b_mmod_Minimization_Converged-OPLS-2005>
0

> <r_mmod_RMS_Derivative-OPLS-2005>
1.34819746017456

$$$$
33
                    3D
 Structure written by MMmdl.
155163  0  0  1  0            999 V2000
  -30.6760  -14.4764   20.5626 C   0  0  0  0  0  0
  -30.4289  -12.3020   19.4238 C   0  0  0  0  0  0
  -29.4984  -12.5008   18.2075 C   0  0  0  0  0  0
  -28.0170  -12.3632   18.6174 C   0  0  0  0  0  0
  -27.6621  -13.2012   19.8743 C   0  0  2  0  0  0
  -28.7024  -12.9656   20.9939 C   0  0  0  0  0  0
  -25.2600  -13.8146   20.5669 C   0  0  0  0  0  0
  -24.1837  -13.0435   20.9164 C   0  0  0  0  0  0
  -24.6381  -11.6893   20.8726 C   0  0  0  0  0  0
  -23.9047  -10.4283   21.0399 C   0  0  0  0  0  0
  -24.3607   -9.4205   21.9178 C   0  0  0  0  0  0
  -23.6287   -8.2238   22.0747 C   0  0  0  0  0  0
  -22.4267   -8.0274   21.3545 C   0  0  0  0  0  0
  -21.9899   -9.0239   20.4637 C   0  0  0  0  0  0
  -22.7222  -10.2121   20.3046 C   0  0  0  0  0  0
  -21.6852   -6.0730   22.5288 C   0  0  0  0  0  0
  -21.4002   -6.5638   23.8215 C   0  0  0  0  0  0
  -21.3652   -5.6794   24.9178 C   0  0  0  0  0  0
  -21.6052   -4.3054   24.7228 C   0  0  0  0  0  0
  -21.8818   -3.8140   23.4352 C   0  0  0  0  0  0
  -21.9191   -4.6959   22.3410 C   0  0  0  0  0  0
  -22.7859  -13.5239   21.1850 C   0  0  0  0  0  0
  -22.1660   -4.2142   21.0988 F   0  0  0  0  0  0
  -21.5634   -3.4544   25.7748 F   0  0  0  0  0  0
  -30.0359  -13.2799   20.4496 N   0  0  0  0  0  0
  -26.3022  -12.9299   20.3343 N   0  0  0  0  0  0
  -25.9308  -11.6466   20.5744 N   0  0  0  0  0  0
  -22.0512  -12.8221   22.0411 N   0  0  0  0  0  0
  -25.4369  -15.1861   20.4076 N   0  0  0  0  0  0
  -31.8017  -14.6754   20.0957 O   0  0  0  0  0  0
  -21.6641   -6.8866   21.4242 O   0  0  0  0  0  0
  -22.3541  -14.5562   20.6731 O   0  0  0  0  0  0
  -24.6160  -31.8681   23.2118 C   0  0  0  0  0  0
  -25.9061  -32.4813   23.8401 C   0  0  1  0  0  0
  -27.2191  -27.4251   20.0996 C   0  0  0  0  0  0
  -25.5929  -33.8612   24.2338 N   0  0  0  0  0  0
  -23.4024  -30.4932   21.5526 C   0  0  2  0  0  0
  -24.8475  -28.9649   20.1073 C   0  0  0  0  0  0
  -22.7415  -29.4664   22.4997 C   0  0  0  0  0  0
  -18.0277  -28.1377   22.8492 C   0  0  0  0  0  0
  -24.1479  -36.7278   23.2642 C   0  0  0  0  0  0
  -25.9343  -30.8260   21.3725 C   0  0  0  0  0  0
  -26.0081  -29.4643   20.7137 C   0  0  0  0  0  0
  -27.1995  -28.7015   20.7092 C   0  0  0  0  0  0
  -26.0491  -26.9544   19.4652 C   0  0  0  0  0  0
  -24.8637  -27.7109   19.4759 C   0  0  0  0  0  0
  -23.6079  -29.8290   20.1646 C   0  0  0  0  0  0
  -25.4101  -36.3100   24.0350 C   0  0  1  0  0  0
  -20.5867  -28.3668   23.1316 C   0  0  2  0  0  0
  -20.6776  -26.9400   22.5419 C   0  0  0  0  0  0
  -19.5751  -26.6378   21.5222 C   0  0  0  0  0  0
  -18.1924  -26.7931   22.1611 C   0  0  0  0  0  0
  -19.1527  -28.8838   23.2902 C   0  0  0  0  0  0
  -18.9453  -30.1448   23.8904 C   0  0  0  0  0  0
  -17.6457  -30.6590   24.0567 C   0  0  0  0  0  0
  -25.9038  -34.9466   23.5137 C   0  0  0  0  0  0
  -16.5350  -29.9084   23.6344 C   0  0  0  0  0  0
  -16.7264  -28.6502   23.0362 C   0  0  0  0  0  0
  -26.4487  -31.6593   25.0732 C   0  0  0  0  0  0
  -25.3759  -31.3682   26.1480 C   0  0  0  0  0  0
  -27.0330  -30.3038   24.6119 C   0  0  0  0  0  0
  -27.6066  -32.4317   25.7485 C   0  0  0  0  0  0
  -27.5580  -37.1779   24.8468 C   0  0  0  0  0  0
  -21.4142  -29.3037   22.3730 N   0  0  0  0  0  0
  -26.4285  -37.3788   23.9433 N   0  0  0  0  0  0
  -24.6688  -31.0770   22.1030 N   0  0  0  0  0  0
  -23.4187  -28.8221   23.3051 O   0  0  0  0  0  0
  -28.3470  -26.6310   20.1331 O   0  0  0  0  0  0
  -26.5584  -34.8917   22.4689 O   0  0  0  0  0  0
  -23.5357  -32.1446   23.7511 O   0  0  0  0  0  0
  -29.1276  -17.6973   21.4274 C   0  0  0  0  0  0
  -29.5564  -18.9863   20.9775 C   0  0  0  0  0  0
  -30.7228  -18.7631   20.2766 C   0  0  0  0  0  0
  -30.0412  -16.7980   20.9579 C   0  0  0  0  0  0
  -28.8760  -20.3005   21.2005 C   0  0  0  0  0  0
  -31.6943  -19.6291   19.5380 C   0  0  0  0  0  0
  -29.4869  -21.6228   20.6760 C   0  0  0  0  0  0
  -28.6256  -22.8770   21.0030 C   0  0  0  0  0  0
  -29.0760  -24.2278   20.3810 C   0  0  0  0  0  0
  -28.1350  -25.3771   20.8146 C   0  0  0  0  0  0
  -29.9339  -15.4515   21.1226 N   0  0  0  0  0  0
  -27.8060  -20.3292   21.8168 O   0  0  0  0  0  0
  -31.0256  -17.4248   20.2602 O   0  0  0  0  0  0
  -31.4738  -12.4081   19.1259 H   0  0  0  0  0  0
  -30.3352  -11.2887   19.8175 H   0  0  0  0  0  0
  -29.7370  -11.7756   17.4281 H   0  0  0  0  0  0
  -29.6684  -13.4855   17.7697 H   0  0  0  0  0  0
  -27.8246  -11.3072   18.8128 H   0  0  0  0  0  0
  -27.3683  -12.6391   17.7849 H   0  0  0  0  0  0
  -27.7093  -14.2493   19.5785 H   0  0  0  0  0  0
  -28.6782  -11.9238   21.3165 H   0  0  0  0  0  0
  -28.4594  -13.5440   21.8867 H   0  0  0  0  0  0
  -25.2748   -9.5695   22.4750 H   0  0  0  0  0  0
  -24.0006   -7.4636   22.7466 H   0  0  0  0  0  0
  -21.0832   -8.8748   19.8943 H   0  0  0  0  0  0
  -22.3679  -10.9654   19.6150 H   0  0  0  0  0  0
  -21.1984   -7.6144   23.9717 H   0  0  0  0  0  0
  -21.1476   -6.0520   25.9079 H   0  0  0  0  0  0
  -22.0602   -2.7602   23.2862 H   0  0  0  0  0  0
  -22.4128  -11.9864   22.4763 H   0  0  0  0  0  0
  -21.1136  -13.1236   22.2648 H   0  0  0  0  0  0
  -24.6755  -15.8477   20.5133 H   0  0  0  0  0  0
  -26.2926  -15.6187   20.0822 H   0  0  0  0  0  0
  -26.7124  -32.5506   23.1146 H   0  0  0  0  0  0
  -25.0149  -33.9779   25.0534 H   0  0  0  0  0  0
  -22.6915  -31.3110   21.4169 H   0  0  0  0  0  0
  -23.3764  -35.9588   23.3297 H   0  0  0  0  0  0
  -24.3575  -36.8891   22.2056 H   0  0  0  0  0  0
  -23.7191  -37.6465   23.6654 H   0  0  0  0  0  0
  -26.0600  -31.5940   20.6084 H   0  0  0  0  0  0
  -26.8180  -30.8682   21.9973 H   0  0  0  0  0  0
  -28.0909  -29.0735   21.1942 H   0  0  0  0  0  0
  -26.0464  -25.9948   18.9675 H   0  0  0  0  0  0
  -23.9761  -27.3271   18.9914 H   0  0  0  0  0  0
  -23.7058  -30.6059   19.4052 H   0  0  0  0  0  0
  -22.7325  -29.2454   19.8736 H   0  0  0  0  0  0
  -25.1274  -36.1959   25.0844 H   0  0  0  0  0  0
  -20.9947  -28.3227   24.1442 H   0  0  0  0  0  0
  -20.5703  -26.2267   23.3604 H   0  0  0  0  0  0
  -21.6641  -26.7464   22.1187 H   0  0  0  0  0  0
  -19.6913  -25.6293   21.1244 H   0  0  0  0  0  0
  -19.6707  -27.3201   20.6768 H   0  0  0  0  0  0
  -17.4208  -26.6717   21.3995 H   0  0  0  0  0  0
  -18.0290  -26.0060   22.8983 H   0  0  0  0  0  0
  -19.7939  -30.7271   24.2258 H   0  0  0  0  0  0
  -17.5019  -31.6280   24.5153 H   0  0  0  0  0  0
  -15.5352  -30.2986   23.7682 H   0  0  0  0  0  0
  -15.8660  -28.0831   22.7074 H   0  0  0  0  0  0
  -24.5955  -30.7002   25.7812 H   0  0  0  0  0  0
  -24.8930  -32.2830   26.4933 H   0  0  0  0  0  0
  -25.8118  -30.8848   27.0233 H   0  0  0  0  0  0
  -26.2870  -29.6768   24.1218 H   0  0  0  0  0  0
  -27.4157  -29.7299   25.4569 H   0  0  0  0  0  0
  -27.8683  -30.4362   23.9237 H   0  0  0  0  0  0
  -27.2698  -33.3615   26.2078 H   0  0  0  0  0  0
  -28.3863  -32.6871   25.0297 H   0  0  0  0  0  0
  -28.0752  -31.8438   26.5385 H   0  0  0  0  0  0
  -28.2581  -38.0097   24.7566 H   0  0  0  0  0  0
  -28.1094  -36.2628   24.6233 H   0  0  0  0  0  0
  -27.2309  -37.1354   25.8876 H   0  0  0  0  0  0
  -20.9313  -29.8713   21.6906 H   0  0  0  0  0  0
  -26.0167  -38.2861   24.1476 H   0  0  0  0  0  0
  -28.2411  -17.4722   22.0056 H   0  0  0  0  0  0
  -31.2324  -20.0695   18.6535 H   0  0  0  0  0  0
  -32.5629  -19.0595   19.2070 H   0  0  0  0  0  0
  -32.0610  -20.4347   20.1728 H   0  0  0  0  0  0
  -29.6230  -21.5347   19.5982 H   0  0  0  0  0  0
  -30.4755  -21.7438   21.1162 H   0  0  0  0  0  0
  -28.5795  -22.9908   22.0874 H   0  0  0  0  0  0
  -27.5995  -22.6888   20.6823 H   0  0  0  0  0  0
  -29.0677  -24.1455   19.2945 H   0  0  0  0  0  0
  -30.1015  -24.4624   20.6691 H   0  0  0  0  0  0
  -28.2552  -25.5526   21.8839 H   0  0  0  0  0  0
  -27.1122  -25.0159   20.6984 H   0  0  0  0  0  0
  -29.0724  -15.1294   21.5344 H   0  0  0  0  0  0
  1 25  1  0  0  0
  1 30  2  0  0  0
  1 81  1  0  0  0
  2  3  1  0  0  0
  2 25  1  0  0  0
  2 84  1  0  0  0
  2 85  1  0  0  0
  3  4  1  0  0  0
  3 86  1  0  0  0
  3 87  1  0  0  0
  4  5  1  0  0  0
  4 88  1  0  0  0
  4 89  1  0  0  0
  5  6  1  0  0  0
  5 26  1  0  0  0
  5 90  1  0  0  0
  6 25  1  0  0  0
  6 91  1  0  0  0
  6 92  1  0  0  0
  7  8  2  0  0  0
  7 26  1  0  0  0
  7 29  1  0  0  0
  8  9  1  0  0  0
  8 22  1  0  0  0
  9 10  1  0  0  0
  9 27  2  0  0  0
 10 11  2  0  0  0
 10 15  1  0  0  0
 11 12  1  0  0  0
 11 93  1  0  0  0
 12 13  2  0  0  0
 12 94  1  0  0  0
 13 14  1  0  0  0
 13 31  1  0  0  0
 14 15  2  0  0  0
 14 95  1  0  0  0
 15 96  1  0  0  0
 16 17  2  0  0  0
 16 21  1  0  0  0
 16 31  1  0  0  0
 17 18  1  0  0  0
 17 97  1  0  0  0
 18 19  2  0  0  0
 18 98  1  0  0  0
 19 20  1  0  0  0
 19 24  1  0  0  0
 20 21  2  0  0  0
 20 99  1  0  0  0
 21 23  1  0  0  0
 22 28  1  0  0  0
 22 32  2  0  0  0
 26 27  1  0  0  0
 28100  1  0  0  0
 28101  1  0  0  0
 29102  1  0  0  0
 29103  1  0  0  0
 33 34  1  0  0  0
 33 66  1  0  0  0
 33 70  2  0  0  0
 34 36  1  0  0  0
 34 59  1  0  0  0
 34104  1  0  0  0
 35 44  2  0  0  0
 35 45  1  0  0  0
 35 68  1  0  0  0
 36 56  1  0  0  0
 36105  1  0  0  0
 37 39  1  0  0  0
 37 47  1  0  0  0
 37 66  1  0  0  0
 37106  1  0  0  0
 38 43  2  0  0  0
 38 46  1  0  0  0
 38 47  1  0  0  0
 39 64  1  0  0  0
 39 67  2  0  0  0
 40 52  1  0  0  0
 40 53  2  0  0  0
 40 58  1  0  0  0
 41107  1  0  0  0
 41108  1  0  0  0
 41109  1  0  0  0
 41 48  1  0  0  0
 42 43  1  0  0  0
 42 66  1  0  0  0
 42110  1  0  0  0
 42111  1  0  0  0
 43 44  1  0  0  0
 44112  1  0  0  0
 45 46  2  0  0  0
 45113  1  0  0  0
 46114  1  0  0  0
 47115  1  0  0  0
 47116  1  0  0  0
 48 56  1  0  0  0
 48 65  1  0  0  0
 48117  1  0  0  0
 49 50  1  0  0  0
 49 53  1  0  0  0
 49 64  1  0  0  0
 49118  1  0  0  0
 50 51  1  0  0  0
 50119  1  0  0  0
 50120  1  0  0  0
 51 52  1  0  0  0
 51121  1  0  0  0
 51122  1  0  0  0
 52123  1  0  0  0
 52124  1  0  0  0
 53 54  1  0  0  0
 54 55  2  0  0  0
 54125  1  0  0  0
 55 57  1  0  0  0
 55126  1  0  0  0
 56 69  2  0  0  0
 57 58  2  0  0  0
 57127  1  0  0  0
 58128  1  0  0  0
 59 60  1  0  0  0
 59 61  1  0  0  0
 59 62  1  0  0  0
 60129  1  0  0  0
 60130  1  0  0  0
 60131  1  0  0  0
 61132  1  0  0  0
 61133  1  0  0  0
 61134  1  0  0  0
 62135  1  0  0  0
 62136  1  0  0  0
 62137  1  0  0  0
 63 65  1  0  0  0
 63138  1  0  0  0
 63139  1  0  0  0
 63140  1  0  0  0
 64141  1  0  0  0
 65142  1  0  0  0
 68 80  1  0  0  0
 71 72  1  0  0  0
 71 74  2  0  0  0
 71143  1  0  0  0
 72 73  2  0  0  0
 72 75  1  0  0  0
 73 76  1  0  0  0
 73 83  1  0  0  0
 74 81  1  0  0  0
 74 83  1  0  0  0
 75 77  1  0  0  0
 75 82  2  0  0  0
 76144  1  0  0  0
 76145  1  0  0  0
 76146  1  0  0  0
 77 78  1  0  0  0
 77147  1  0  0  0
 77148  1  0  0  0
 78 79  1  0  0  0
 78149  1  0  0  0
 78150  1  0  0  0
 79 80  1  0  0  0
 79151  1  0  0  0
 79152  1  0  0  0
 80153  1  0  0  0
 80154  1  0  0  0
 81155  1  0  0  0
M  ISO  4   1 100  68 101  80 101  81 100
M  END
> <chiral flag>
0

> <version>
0

> <s_m_source_file>
/data/baiqing/PycharmProjects/Reinvent-master-3.2/result/LINK_invent/BTK/process_docking_weight1_custom_product_contain_oxygen_bond_distance_aromatic_linkinvent_7_9_3/rearranged_h_0138.sdf

> <i_m_source_file_index>
34

> <r_mmod_Potential_Energy-OPLS-2005>
-57.570182800293

> <r_mmod_Stretch_Energy-OPLS-2005>
36.703067779541

> <r_mmod_Bend_Energy-OPLS-2005>
103.265182495117

> <r_mmod_Torsional_Energy-OPLS-2005>
238.163452148438

> <r_mmod_Improper_Torsional_Energy-OPLS-2005>
3.57174134254456

> <r_mmod_Van_der_Waal_Energy-OPLS-2005>
134.457458496094

> <r_mmod_Electrostatic_Energy-OPLS-2005>
-368.453674316406

> <r_mmod_Solvation_Energy-OPLS-2005>
-220.772094726562

> <b_mmod_Minimization_Converged-OPLS-2005>
0

> <r_mmod_RMS_Derivative-OPLS-2005>
1.93274307250977

$$$$
34
                    3D
 Structure written by MMmdl.
151159  0  0  1  0            999 V2000
  -30.6240  -14.7128   20.4559 C   0  0  0  0  0  0
  -30.4260  -12.4287   19.4809 C   0  0  0  0  0  0
  -29.5114  -12.5211   18.2394 C   0  0  0  0  0  0
  -28.0342  -12.3558   18.6424 C   0  0  0  0  0  0
  -27.6473  -13.2367   19.8603 C   0  0  2  0  0  0
  -28.6895  -13.1460   20.9987 C   0  0  0  0  0  0
  -25.2522  -13.8215   20.5686 C   0  0  0  0  0  0
  -24.1813  -13.0453   20.9196 C   0  0  0  0  0  0
  -24.6407  -11.6933   20.8734 C   0  0  0  0  0  0
  -23.9079  -10.4307   21.0389 C   0  0  0  0  0  0
  -24.3630   -9.4223   21.9169 C   0  0  0  0  0  0
  -23.6304   -8.2260   22.0746 C   0  0  0  0  0  0
  -22.4283   -8.0295   21.3542 C   0  0  0  0  0  0
  -21.9919   -9.0266   20.4639 C   0  0  0  0  0  0
  -22.7248  -10.2144   20.3044 C   0  0  0  0  0  0
  -21.6862   -6.0743   22.5271 C   0  0  0  0  0  0
  -21.4023   -6.5641   23.8207 C   0  0  0  0  0  0
  -21.3662   -5.6790   24.9168 C   0  0  0  0  0  0
  -21.6044   -4.3052   24.7212 C   0  0  0  0  0  0
  -21.8822   -3.8147   23.4331 C   0  0  0  0  0  0
  -21.9198   -4.6970   22.3394 C   0  0  0  0  0  0
  -22.7830  -13.5230   21.1851 C   0  0  0  0  0  0
  -22.1659   -4.2157   21.0969 F   0  0  0  0  0  0
  -21.5631   -3.4532   25.7720 F   0  0  0  0  0  0
  -30.0014  -13.4846   20.4312 N   0  0  0  0  0  0
  -26.2963  -12.9431   20.3308 N   0  0  0  0  0  0
  -25.9343  -11.6566   20.5756 N   0  0  0  0  0  0
  -22.0480  -12.8229   22.0416 N   0  0  0  0  0  0
  -25.4209  -15.1945   20.4101 N   0  0  0  0  0  0
  -31.7921  -14.8162   20.0689 O   0  0  0  0  0  0
  -21.6649   -6.8888   21.4236 O   0  0  0  0  0  0
  -22.3506  -14.5529   20.6690 O   0  0  0  0  0  0
  -24.6307  -31.8560   23.2001 C   0  0  0  0  0  0
  -25.9132  -32.4765   23.8337 C   0  0  1  0  0  0
  -27.2211  -27.2639   20.1238 C   0  0  0  0  0  0
  -25.5936  -33.8566   24.2266 N   0  0  0  0  0  0
  -23.4275  -30.4802   21.5432 C   0  0  2  0  0  0
  -24.8757  -28.9316   20.1076 C   0  0  0  0  0  0
  -22.7498  -29.4610   22.4907 C   0  0  0  0  0  0
  -18.0299  -28.1380   22.8484 C   0  0  0  0  0  0
  -24.1497  -36.7288   23.2634 C   0  0  0  0  0  0
  -25.9738  -30.7680   21.3829 C   0  0  0  0  0  0
  -26.0457  -29.3913   20.7242 C   0  0  0  0  0  0
  -27.2173  -28.5674   20.7279 C   0  0  0  0  0  0
  -26.0333  -26.8880   19.4534 C   0  0  0  0  0  0
  -24.8752  -27.6874   19.4616 C   0  0  0  0  0  0
  -23.6461  -29.8179   20.1579 C   0  0  0  0  0  0
  -25.4120  -36.3083   24.0330 C   0  0  1  0  0  0
  -20.5902  -28.3701   23.1266 C   0  0  2  0  0  0
  -20.6789  -26.9414   22.5410 C   0  0  0  0  0  0
  -19.5767  -26.6374   21.5215 C   0  0  0  0  0  0
  -18.1945  -26.7924   22.1620 C   0  0  0  0  0  0
  -19.1547  -28.8855   23.2876 C   0  0  0  0  0  0
  -18.9465  -30.1456   23.8894 C   0  0  0  0  0  0
  -17.6462  -30.6581   24.0562 C   0  0  0  0  0  0
  -25.9057  -34.9450   23.5103 C   0  0  0  0  0  0
  -16.5357  -29.9076   23.6325 C   0  0  0  0  0  0
  -16.7284  -28.6493   23.0350 C   0  0  0  0  0  0
  -26.4496  -31.6580   25.0718 C   0  0  0  0  0  0
  -25.3714  -31.3721   26.1433 C   0  0  0  0  0  0
  -27.0337  -30.2998   24.6193 C   0  0  0  0  0  0
  -27.6054  -32.4312   25.7488 C   0  0  0  0  0  0
  -27.5600  -37.1790   24.8451 C   0  0  0  0  0  0
  -21.4206  -29.3050   22.3650 N   0  0  0  0  0  0
  -26.4296  -37.3784   23.9420 N   0  0  0  0  0  0
  -24.6963  -31.0530   22.0981 N   0  0  0  0  0  0
  -23.4196  -28.8150   23.3008 O   0  0  0  0  0  0
  -28.3135  -26.3643   20.2130 O   0  0  0  0  0  0
  -26.5617  -34.8923   22.4665 O   0  0  0  0  0  0
  -23.5459  -32.1386   23.7296 O   0  0  0  0  0  0
  -29.9215  -18.4009   17.9838 C   0  0  0  0  0  0
  -30.0436  -17.2015   18.7101 C   0  0  0  0  0  0
  -29.6505  -19.6289   18.6192 C   0  0  0  0  0  0
  -29.6150  -18.4578   20.7475 C   0  0  0  0  0  0
  -29.8832  -17.1718   20.1126 C   0  0  0  0  0  0
  -29.5061  -19.7228   20.0242 C   0  0  0  0  0  0
  -28.9583  -23.7015   20.5590 C   0  0  0  0  0  0
  -28.1390  -24.9094   19.8603 C   0  0  0  0  0  0
  -28.9051  -22.2244   19.8922 C   0  0  0  0  0  0
  -29.8887  -15.8432   20.7781 N   0  0  0  0  0  0
  -29.2917  -20.9914   20.6527 O   0  0  0  0  0  0
  -31.4711  -12.5289   19.1850 H   0  0  0  0  0  0
  -30.3434  -11.4441   19.9445 H   0  0  0  0  0  0
  -29.7878  -11.7633   17.5056 H   0  0  0  0  0  0
  -29.6521  -13.4855   17.7487 H   0  0  0  0  0  0
  -27.8736  -11.3035   18.8783 H   0  0  0  0  0  0
  -27.3839  -12.5778   17.7944 H   0  0  0  0  0  0
  -27.6497  -14.2659   19.5014 H   0  0  0  0  0  0
  -28.7085  -12.1426   21.4259 H   0  0  0  0  0  0
  -28.4261  -13.8197   21.8158 H   0  0  0  0  0  0
  -25.2776   -9.5703   22.4741 H   0  0  0  0  0  0
  -24.0011   -7.4656   22.7465 H   0  0  0  0  0  0
  -21.0850   -8.8788   19.8956 H   0  0  0  0  0  0
  -22.3695  -10.9685   19.6157 H   0  0  0  0  0  0
  -21.2016   -7.6148   23.9717 H   0  0  0  0  0  0
  -21.1482   -6.0514   25.9073 H   0  0  0  0  0  0
  -22.0598   -2.7610   23.2826 H   0  0  0  0  0  0
  -22.4088  -11.9897   22.4822 H   0  0  0  0  0  0
  -21.1095  -13.1252   22.2608 H   0  0  0  0  0  0
  -24.6539  -15.8493   20.5182 H   0  0  0  0  0  0
  -26.2720  -15.6335   20.0812 H   0  0  0  0  0  0
  -26.7194  -32.5423   23.1073 H   0  0  0  0  0  0
  -25.0108  -33.9697   25.0431 H   0  0  0  0  0  0
  -22.7246  -31.3034   21.3992 H   0  0  0  0  0  0
  -23.3787  -35.9590   23.3251 H   0  0  0  0  0  0
  -24.3611  -36.8955   22.2062 H   0  0  0  0  0  0
  -23.7209  -37.6460   23.6678 H   0  0  0  0  0  0
  -26.1139  -31.5300   20.6151 H   0  0  0  0  0  0
  -26.8505  -30.8151   22.0170 H   0  0  0  0  0  0
  -28.1074  -28.9110   21.2363 H   0  0  0  0  0  0
  -25.9612  -25.9548   18.9169 H   0  0  0  0  0  0
  -23.9851  -27.3344   18.9594 H   0  0  0  0  0  0
  -23.7705  -30.5966   19.4044 H   0  0  0  0  0  0
  -22.7642  -29.2517   19.8525 H   0  0  0  0  0  0
  -25.1302  -36.1934   25.0823 H   0  0  0  0  0  0
  -21.0005  -28.3286   24.1384 H   0  0  0  0  0  0
  -20.5701  -26.2309   23.3617 H   0  0  0  0  0  0
  -21.6657  -26.7444   22.1198 H   0  0  0  0  0  0
  -19.6930  -25.6282   21.1255 H   0  0  0  0  0  0
  -19.6711  -27.3176   20.6741 H   0  0  0  0  0  0
  -17.4222  -26.6685   21.4013 H   0  0  0  0  0  0
  -18.0335  -26.0059   22.9007 H   0  0  0  0  0  0
  -19.7940  -30.7272   24.2264 H   0  0  0  0  0  0
  -17.5014  -31.6263   24.5158 H   0  0  0  0  0  0
  -15.5354  -30.2972   23.7645 H   0  0  0  0  0  0
  -15.8690  -28.0806   22.7061 H   0  0  0  0  0  0
  -24.5890  -30.7073   25.7749 H   0  0  0  0  0  0
  -24.8896  -32.2885   26.4853 H   0  0  0  0  0  0
  -25.8022  -30.8890   27.0213 H   0  0  0  0  0  0
  -26.2909  -29.6744   24.1224 H   0  0  0  0  0  0
  -27.4035  -29.7261   25.4703 H   0  0  0  0  0  0
  -27.8786  -30.4282   23.9422 H   0  0  0  0  0  0
  -27.2666  -33.3615   26.2063 H   0  0  0  0  0  0
  -28.3860  -32.6868   25.0307 H   0  0  0  0  0  0
  -28.0720  -31.8431   26.5404 H   0  0  0  0  0  0
  -28.2567  -38.0141   24.7588 H   0  0  0  0  0  0
  -28.1152  -36.2679   24.6168 H   0  0  0  0  0  0
  -27.2330  -37.1304   25.8852 H   0  0  0  0  0  0
  -20.9380  -29.8783   21.6870 H   0  0  0  0  0  0
  -26.0183  -38.2854   24.1457 H   0  0  0  0  0  0
  -30.0301  -18.3759   16.9078 H   0  0  0  0  0  0
  -30.2300  -16.2897   18.1602 H   0  0  0  0  0  0
  -29.5703  -20.4951   17.9815 H   0  0  0  0  0  0
  -29.4868  -18.4791   21.8197 H   0  0  0  0  0  0
  -28.6090  -23.6198   21.5884 H   0  0  0  0  0  0
  -30.0060  -23.9934   20.6347 H   0  0  0  0  0  0
  -27.1028  -24.6222   20.0292 H   0  0  0  0  0  0
  -28.2986  -24.8394   18.7838 H   0  0  0  0  0  0
  -29.5254  -22.3041   19.0017 H   0  0  0  0  0  0
  -27.8886  -22.0526   19.5364 H   0  0  0  0  0  0
  -29.0753  -15.6548   21.3447 H   0  0  0  0  0  0
  1 25  1  0  0  0
  1 30  2  0  0  0
  1 80  1  0  0  0
  2  3  1  0  0  0
  2 25  1  0  0  0
  2 82  1  0  0  0
  2 83  1  0  0  0
  3  4  1  0  0  0
  3 84  1  0  0  0
  3 85  1  0  0  0
  4  5  1  0  0  0
  4 86  1  0  0  0
  4 87  1  0  0  0
  5  6  1  0  0  0
  5 26  1  0  0  0
  5 88  1  0  0  0
  6 25  1  0  0  0
  6 89  1  0  0  0
  6 90  1  0  0  0
  7  8  2  0  0  0
  7 26  1  0  0  0
  7 29  1  0  0  0
  8  9  1  0  0  0
  8 22  1  0  0  0
  9 10  1  0  0  0
  9 27  2  0  0  0
 10 11  2  0  0  0
 10 15  1  0  0  0
 11 12  1  0  0  0
 11 91  1  0  0  0
 12 13  2  0  0  0
 12 92  1  0  0  0
 13 14  1  0  0  0
 13 31  1  0  0  0
 14 15  2  0  0  0
 14 93  1  0  0  0
 15 94  1  0  0  0
 16 17  2  0  0  0
 16 21  1  0  0  0
 16 31  1  0  0  0
 17 18  1  0  0  0
 17 95  1  0  0  0
 18 19  2  0  0  0
 18 96  1  0  0  0
 19 20  1  0  0  0
 19 24  1  0  0  0
 20 21  2  0  0  0
 20 97  1  0  0  0
 21 23  1  0  0  0
 22 28  1  0  0  0
 22 32  2  0  0  0
 26 27  1  0  0  0
 28 98  1  0  0  0
 28 99  1  0  0  0
 29100  1  0  0  0
 29101  1  0  0  0
 33 34  1  0  0  0
 33 66  1  0  0  0
 33 70  2  0  0  0
 34 36  1  0  0  0
 34 59  1  0  0  0
 34102  1  0  0  0
 35 44  2  0  0  0
 35 45  1  0  0  0
 35 68  1  0  0  0
 36 56  1  0  0  0
 36103  1  0  0  0
 37 39  1  0  0  0
 37 47  1  0  0  0
 37 66  1  0  0  0
 37104  1  0  0  0
 38 43  2  0  0  0
 38 46  1  0  0  0
 38 47  1  0  0  0
 39 64  1  0  0  0
 39 67  2  0  0  0
 40 52  1  0  0  0
 40 53  2  0  0  0
 40 58  1  0  0  0
 41105  1  0  0  0
 41106  1  0  0  0
 41107  1  0  0  0
 41 48  1  0  0  0
 42 43  1  0  0  0
 42 66  1  0  0  0
 42108  1  0  0  0
 42109  1  0  0  0
 43 44  1  0  0  0
 44110  1  0  0  0
 45 46  2  0  0  0
 45111  1  0  0  0
 46112  1  0  0  0
 47113  1  0  0  0
 47114  1  0  0  0
 48 56  1  0  0  0
 48 65  1  0  0  0
 48115  1  0  0  0
 49 50  1  0  0  0
 49 53  1  0  0  0
 49 64  1  0  0  0
 49116  1  0  0  0
 50 51  1  0  0  0
 50117  1  0  0  0
 50118  1  0  0  0
 51 52  1  0  0  0
 51119  1  0  0  0
 51120  1  0  0  0
 52121  1  0  0  0
 52122  1  0  0  0
 53 54  1  0  0  0
 54 55  2  0  0  0
 54123  1  0  0  0
 55 57  1  0  0  0
 55124  1  0  0  0
 56 69  2  0  0  0
 57 58  2  0  0  0
 57125  1  0  0  0
 58126  1  0  0  0
 59 60  1  0  0  0
 59 61  1  0  0  0
 59 62  1  0  0  0
 60127  1  0  0  0
 60128  1  0  0  0
 60129  1  0  0  0
 61130  1  0  0  0
 61131  1  0  0  0
 61132  1  0  0  0
 62133  1  0  0  0
 62134  1  0  0  0
 62135  1  0  0  0
 63 65  1  0  0  0
 63136  1  0  0  0
 63137  1  0  0  0
 63138  1  0  0  0
 64139  1  0  0  0
 65140  1  0  0  0
 68 78  1  0  0  0
 71 72  2  0  0  0
 71 73  1  0  0  0
 71141  1  0  0  0
 72 75  1  0  0  0
 72142  1  0  0  0
 73 76  2  0  0  0
 73143  1  0  0  0
 74 75  2  0  0  0
 74 76  1  0  0  0
 74144  1  0  0  0
 75 80  1  0  0  0
 76 81  1  0  0  0
 77 78  1  0  0  0
 77 79  1  0  0  0
 77145  1  0  0  0
 77146  1  0  0  0
 78147  1  0  0  0
 78148  1  0  0  0
 79 81  1  0  0  0
 79149  1  0  0  0
 79150  1  0  0  0
 80151  1  0  0  0
M  ISO  4   1 100  68 101  78 101  80 100
M  END
> <chiral flag>
0

> <version>
0

> <s_m_source_file>
/data/baiqing/PycharmProjects/Reinvent-master-3.2/result/LINK_invent/BTK/process_docking_weight1_custom_product_contain_oxygen_bond_distance_aromatic_linkinvent_7_9_3/rearranged_h_0138.sdf

> <i_m_source_file_index>
35

> <r_mmod_Potential_Energy-OPLS-2005>
185.519424438477

> <r_mmod_Stretch_Energy-OPLS-2005>
124.80167388916

> <r_mmod_Bend_Energy-OPLS-2005>
166.076385498047

> <r_mmod_Torsional_Energy-OPLS-2005>
237.988235473633

> <r_mmod_Improper_Torsional_Energy-OPLS-2005>
4.65315580368042

> <r_mmod_Van_der_Waal_Energy-OPLS-2005>
146.747375488281

> <r_mmod_Electrostatic_Energy-OPLS-2005>
-355.506103515625

> <r_mmod_Solvation_Energy-OPLS-2005>
-217.155700683594

> <b_mmod_Minimization_Converged-OPLS-2005>
0

> <r_mmod_RMS_Derivative-OPLS-2005>
1.40038752555847

$$$$
35
                    3D
 Structure written by MMmdl.
162170  0  0  1  0            999 V2000
  -30.6242  -14.6863   20.4779 C   0  0  0  0  0  0
  -30.4391  -12.4141   19.4795 C   0  0  0  0  0  0
  -29.5198  -12.5000   18.2410 C   0  0  0  0  0  0
  -28.0408  -12.3351   18.6435 C   0  0  0  0  0  0
  -27.6532  -13.2237   19.8572 C   0  0  2  0  0  0
  -28.6916  -13.1173   20.9958 C   0  0  0  0  0  0
  -25.2583  -13.8184   20.5667 C   0  0  0  0  0  0
  -24.1848  -13.0449   20.9175 C   0  0  0  0  0  0
  -24.6423  -11.6914   20.8695 C   0  0  0  0  0  0
  -23.9085  -10.4292   21.0375 C   0  0  0  0  0  0
  -24.3627   -9.4213   21.9160 C   0  0  0  0  0  0
  -23.6299   -8.2249   22.0732 C   0  0  0  0  0  0
  -22.4281   -8.0271   21.3523 C   0  0  0  0  0  0
  -21.9913   -9.0236   20.4629 C   0  0  0  0  0  0
  -22.7242  -10.2128   20.3039 C   0  0  0  0  0  0
  -21.6866   -6.0740   22.5282 C   0  0  0  0  0  0
  -21.4003   -6.5635   23.8213 C   0  0  0  0  0  0
  -21.3659   -5.6780   24.9175 C   0  0  0  0  0  0
  -21.6050   -4.3043   24.7228 C   0  0  0  0  0  0
  -21.8819   -3.8144   23.4347 C   0  0  0  0  0  0
  -21.9192   -4.6965   22.3401 C   0  0  0  0  0  0
  -22.7864  -13.5229   21.1844 C   0  0  0  0  0  0
  -22.1655   -4.2149   21.0983 F   0  0  0  0  0  0
  -21.5656   -3.4527   25.7748 F   0  0  0  0  0  0
  -30.0080  -13.4584   20.4378 N   0  0  0  0  0  0
  -26.3006  -12.9388   20.3281 N   0  0  0  0  0  0
  -25.9358  -11.6527   20.5722 N   0  0  0  0  0  0
  -22.0487  -12.8210   22.0400 N   0  0  0  0  0  0
  -25.4308  -15.1892   20.4088 N   0  0  0  0  0  0
  -31.7773  -14.8205   20.0579 O   0  0  0  0  0  0
  -21.6642   -6.8868   21.4238 O   0  0  0  0  0  0
  -22.3528  -14.5508   20.6656 O   0  0  0  0  0  0
  -24.6286  -31.8606   23.1988 C   0  0  0  0  0  0
  -25.9141  -32.4784   23.8314 C   0  0  1  0  0  0
  -27.2085  -27.2931   20.1169 C   0  0  0  0  0  0
  -25.5952  -33.8584   24.2259 N   0  0  0  0  0  0
  -23.4218  -30.4844   21.5437 C   0  0  2  0  0  0
  -24.8645  -28.9402   20.1063 C   0  0  0  0  0  0
  -22.7483  -29.4638   22.4931 C   0  0  0  0  0  0
  -18.0286  -28.1399   22.8477 C   0  0  0  0  0  0
  -24.1498  -36.7283   23.2621 C   0  0  0  0  0  0
  -25.9631  -30.7845   21.3718 C   0  0  0  0  0  0
  -26.0360  -29.4110   20.7136 C   0  0  0  0  0  0
  -27.2110  -28.5970   20.7123 C   0  0  0  0  0  0
  -26.0174  -26.8938   19.4675 C   0  0  0  0  0  0
  -24.8578  -27.6884   19.4762 C   0  0  0  0  0  0
  -23.6346  -29.8224   20.1571 C   0  0  0  0  0  0
  -25.4129  -36.3092   24.0320 C   0  0  1  0  0  0
  -20.5894  -28.3700   23.1277 C   0  0  2  0  0  0
  -20.6789  -26.9425   22.5409 C   0  0  0  0  0  0
  -19.5771  -26.6393   21.5214 C   0  0  0  0  0  0
  -18.1941  -26.7936   22.1609 C   0  0  0  0  0  0
  -19.1541  -28.8865   23.2868 C   0  0  0  0  0  0
  -18.9463  -30.1457   23.8901 C   0  0  0  0  0  0
  -17.6464  -30.6600   24.0564 C   0  0  0  0  0  0
  -25.9072  -34.9467   23.5090 C   0  0  0  0  0  0
  -16.5355  -29.9100   23.6322 C   0  0  0  0  0  0
  -16.7267  -28.6515   23.0341 C   0  0  0  0  0  0
  -26.4502  -31.6571   25.0682 C   0  0  0  0  0  0
  -25.3703  -31.3741   26.1384 C   0  0  0  0  0  0
  -27.0298  -30.2978   24.6120 C   0  0  0  0  0  0
  -27.6070  -32.4268   25.7475 C   0  0  0  0  0  0
  -27.5609  -37.1785   24.8453 C   0  0  0  0  0  0
  -21.4193  -29.3058   22.3683 N   0  0  0  0  0  0
  -26.4302  -37.3797   23.9422 N   0  0  0  0  0  0
  -24.6908  -31.0580   22.0963 N   0  0  0  0  0  0
  -23.4199  -28.8180   23.3025 O   0  0  0  0  0  0
  -28.3040  -26.4088   20.1914 O   0  0  0  0  0  0
  -26.5630  -34.8950   22.4654 O   0  0  0  0  0  0
  -23.5452  -32.1427   23.7302 O   0  0  0  0  0  0
  -29.0664  -19.4488   18.7093 C   0  0  0  0  0  0
  -29.3396  -17.0097   18.8125 C   0  0  0  0  0  0
  -29.7198  -18.3743   20.7915 C   0  0  0  0  0  0
  -29.0071  -18.1786   18.0923 C   0  0  0  0  0  0
  -29.4250  -19.5970   20.0669 C   0  0  0  0  0  0
  -29.7028  -17.0595   20.1768 C   0  0  0  0  0  0
  -28.5584  -18.0724   16.6427 C   0  0  0  0  0  0
  -30.4877  -24.2510   20.0674 C   0  0  0  0  0  0
  -28.9915  -23.8851   22.0574 C   0  0  0  0  0  0
  -29.5323  -21.0524   20.6959 C   0  0  0  0  0  0
  -28.7883  -22.3220   20.0270 C   0  0  0  0  0  0
  -28.0740  -24.9534   19.9406 C   0  0  0  0  0  0
  -29.0764  -23.8385   20.5192 C   0  0  0  0  0  0
  -29.8900  -15.7815   20.8838 N   0  0  0  0  0  0
  -31.4828  -12.5317   19.1793 H   0  0  0  0  0  0
  -30.3713  -11.4263   19.9395 H   0  0  0  0  0  0
  -29.7923  -11.7312   17.5162 H   0  0  0  0  0  0
  -29.6647  -13.4591   17.7462 H   0  0  0  0  0  0
  -27.8822  -11.2831   18.8841 H   0  0  0  0  0  0
  -27.3928  -12.5471   17.7923 H   0  0  0  0  0  0
  -27.6604  -14.2526   19.4939 H   0  0  0  0  0  0
  -28.7138  -12.1052   21.4026 H   0  0  0  0  0  0
  -28.4261  -13.7758   21.8230 H   0  0  0  0  0  0
  -25.2770   -9.5695   22.4736 H   0  0  0  0  0  0
  -24.0019   -7.4638   22.7435 H   0  0  0  0  0  0
  -21.0858   -8.8732   19.8917 H   0  0  0  0  0  0
  -22.3676  -10.9651   19.6150 H   0  0  0  0  0  0
  -21.1961   -7.6135   23.9715 H   0  0  0  0  0  0
  -21.1497   -6.0515   25.9079 H   0  0  0  0  0  0
  -22.0598   -2.7613   23.2858 H   0  0  0  0  0  0
  -22.4116  -11.9950   22.4901 H   0  0  0  0  0  0
  -21.1061  -13.1192   22.2491 H   0  0  0  0  0  0
  -24.6710  -15.8488   20.5292 H   0  0  0  0  0  0
  -26.2911  -15.6288   20.1071 H   0  0  0  0  0  0
  -26.7217  -32.5453   23.1060 H   0  0  0  0  0  0
  -25.0104  -33.9714   25.0413 H   0  0  0  0  0  0
  -22.7169  -31.3061   21.4014 H   0  0  0  0  0  0
  -23.3802  -35.9565   23.3230 H   0  0  0  0  0  0
  -24.3604  -36.8967   22.2051 H   0  0  0  0  0  0
  -23.7198  -37.6448   23.6667 H   0  0  0  0  0  0
  -26.0942  -31.5522   20.6067 H   0  0  0  0  0  0
  -26.8453  -30.8329   21.9992 H   0  0  0  0  0  0
  -28.1038  -28.9473   21.2088 H   0  0  0  0  0  0
  -25.9445  -25.9447   18.9577 H   0  0  0  0  0  0
  -23.9596  -27.3222   18.9976 H   0  0  0  0  0  0
  -23.7543  -30.6013   19.4019 H   0  0  0  0  0  0
  -22.7534  -29.2542   19.8510 H   0  0  0  0  0  0
  -25.1314  -36.1936   25.0811 H   0  0  0  0  0  0
  -20.9953  -28.3276   24.1411 H   0  0  0  0  0  0
  -20.5700  -26.2315   23.3612 H   0  0  0  0  0  0
  -21.6654  -26.7479   22.1199 H   0  0  0  0  0  0
  -19.6926  -25.6300   21.1266 H   0  0  0  0  0  0
  -19.6714  -27.3199   20.6748 H   0  0  0  0  0  0
  -17.4212  -26.6679   21.4009 H   0  0  0  0  0  0
  -18.0318  -26.0091   22.9020 H   0  0  0  0  0  0
  -19.7944  -30.7265   24.2281 H   0  0  0  0  0  0
  -17.5027  -31.6274   24.5162 H   0  0  0  0  0  0
  -15.5362  -30.3006   23.7651 H   0  0  0  0  0  0
  -15.8662  -28.0844   22.7049 H   0  0  0  0  0  0
  -24.5881  -30.7091   25.7700 H   0  0  0  0  0  0
  -24.8888  -32.2930   26.4744 H   0  0  0  0  0  0
  -25.7996  -30.8952   27.0193 H   0  0  0  0  0  0
  -26.2844  -29.6769   24.1126 H   0  0  0  0  0  0
  -27.3972  -29.7200   25.4614 H   0  0  0  0  0  0
  -27.8745  -30.4245   23.9337 H   0  0  0  0  0  0
  -27.2677  -33.3560   26.2065 H   0  0  0  0  0  0
  -28.3890  -32.6828   25.0310 H   0  0  0  0  0  0
  -28.0701  -31.8357   26.5385 H   0  0  0  0  0  0
  -28.2572  -38.0135   24.7602 H   0  0  0  0  0  0
  -28.1165  -36.2681   24.6161 H   0  0  0  0  0  0
  -27.2334  -37.1307   25.8850 H   0  0  0  0  0  0
  -20.9366  -29.8778   21.6903 H   0  0  0  0  0  0
  -26.0188  -38.2863   24.1478 H   0  0  0  0  0  0
  -28.8249  -20.3189   18.1145 H   0  0  0  0  0  0
  -29.2777  -16.0530   18.3127 H   0  0  0  0  0  0
  -29.9726  -18.4539   21.8388 H   0  0  0  0  0  0
  -27.6104  -18.5917   16.4876 H   0  0  0  0  0  0
  -28.4115  -17.0338   16.3454 H   0  0  0  0  0  0
  -29.2977  -18.5101   15.9713 H   0  0  0  0  0  0
  -31.2597  -23.5893   20.4590 H   0  0  0  0  0  0
  -30.7201  -25.2654   20.3950 H   0  0  0  0  0  0
  -30.5611  -24.2458   18.9792 H   0  0  0  0  0  0
  -29.7178  -23.2208   22.5253 H   0  0  0  0  0  0
  -28.0009  -23.5924   22.4093 H   0  0  0  0  0  0
  -29.1854  -24.8890   22.4373 H   0  0  0  0  0  0
  -30.5959  -21.2807   20.7518 H   0  0  0  0  0  0
  -29.2041  -20.9791   21.7314 H   0  0  0  0  0  0
  -27.7150  -22.1413   20.0898 H   0  0  0  0  0  0
  -29.0104  -22.3092   18.9614 H   0  0  0  0  0  0
  -27.0906  -24.6821   20.3284 H   0  0  0  0  0  0
  -28.0205  -24.8278   18.8573 H   0  0  0  0  0  0
  -29.1284  -15.5424   21.5023 H   0  0  0  0  0  0
  1 25  1  0  0  0
  1 30  2  0  0  0
  1 84  1  0  0  0
  2  3  1  0  0  0
  2 25  1  0  0  0
  2 85  1  0  0  0
  2 86  1  0  0  0
  3  4  1  0  0  0
  3 87  1  0  0  0
  3 88  1  0  0  0
  4  5  1  0  0  0
  4 89  1  0  0  0
  4 90  1  0  0  0
  5  6  1  0  0  0
  5 26  1  0  0  0
  5 91  1  0  0  0
  6 25  1  0  0  0
  6 92  1  0  0  0
  6 93  1  0  0  0
  7  8  2  0  0  0
  7 26  1  0  0  0
  7 29  1  0  0  0
  8  9  1  0  0  0
  8 22  1  0  0  0
  9 10  1  0  0  0
  9 27  2  0  0  0
 10 11  2  0  0  0
 10 15  1  0  0  0
 11 12  1  0  0  0
 11 94  1  0  0  0
 12 13  2  0  0  0
 12 95  1  0  0  0
 13 14  1  0  0  0
 13 31  1  0  0  0
 14 15  2  0  0  0
 14 96  1  0  0  0
 15 97  1  0  0  0
 16 17  2  0  0  0
 16 21  1  0  0  0
 16 31  1  0  0  0
 17 18  1  0  0  0
 17 98  1  0  0  0
 18 19  2  0  0  0
 18 99  1  0  0  0
 19 20  1  0  0  0
 19 24  1  0  0  0
 20 21  2  0  0  0
 20100  1  0  0  0
 21 23  1  0  0  0
 22 28  1  0  0  0
 22 32  2  0  0  0
 26 27  1  0  0  0
 28101  1  0  0  0
 28102  1  0  0  0
 29103  1  0  0  0
 29104  1  0  0  0
 33 34  1  0  0  0
 33 66  1  0  0  0
 33 70  2  0  0  0
 34 36  1  0  0  0
 34 59  1  0  0  0
 34105  1  0  0  0
 35 44  2  0  0  0
 35 45  1  0  0  0
 35 68  1  0  0  0
 36 56  1  0  0  0
 36106  1  0  0  0
 37 39  1  0  0  0
 37 47  1  0  0  0
 37 66  1  0  0  0
 37107  1  0  0  0
 38 43  2  0  0  0
 38 46  1  0  0  0
 38 47  1  0  0  0
 39 64  1  0  0  0
 39 67  2  0  0  0
 40 52  1  0  0  0
 40 53  2  0  0  0
 40 58  1  0  0  0
 41108  1  0  0  0
 41109  1  0  0  0
 41110  1  0  0  0
 41 48  1  0  0  0
 42 43  1  0  0  0
 42 66  1  0  0  0
 42111  1  0  0  0
 42112  1  0  0  0
 43 44  1  0  0  0
 44113  1  0  0  0
 45 46  2  0  0  0
 45114  1  0  0  0
 46115  1  0  0  0
 47116  1  0  0  0
 47117  1  0  0  0
 48 56  1  0  0  0
 48 65  1  0  0  0
 48118  1  0  0  0
 49 50  1  0  0  0
 49 53  1  0  0  0
 49 64  1  0  0  0
 49119  1  0  0  0
 50 51  1  0  0  0
 50120  1  0  0  0
 50121  1  0  0  0
 51 52  1  0  0  0
 51122  1  0  0  0
 51123  1  0  0  0
 52124  1  0  0  0
 52125  1  0  0  0
 53 54  1  0  0  0
 54 55  2  0  0  0
 54126  1  0  0  0
 55 57  1  0  0  0
 55127  1  0  0  0
 56 69  2  0  0  0
 57 58  2  0  0  0
 57128  1  0  0  0
 58129  1  0  0  0
 59 60  1  0  0  0
 59 61  1  0  0  0
 59 62  1  0  0  0
 60130  1  0  0  0
 60131  1  0  0  0
 60132  1  0  0  0
 61133  1  0  0  0
 61134  1  0  0  0
 61135  1  0  0  0
 62136  1  0  0  0
 62137  1  0  0  0
 62138  1  0  0  0
 63 65  1  0  0  0
 63139  1  0  0  0
 63140  1  0  0  0
 63141  1  0  0  0
 64142  1  0  0  0
 65143  1  0  0  0
 68 82  1  0  0  0
 71 74  2  0  0  0
 71 75  1  0  0  0
 71144  1  0  0  0
 72 74  1  0  0  0
 72 76  2  0  0  0
 72145  1  0  0  0
 73 75  2  0  0  0
 73 76  1  0  0  0
 73146  1  0  0  0
 74 77  1  0  0  0
 75 80  1  0  0  0
 76 84  1  0  0  0
 77147  1  0  0  0
 77148  1  0  0  0
 77149  1  0  0  0
 78150  1  0  0  0
 78151  1  0  0  0
 78152  1  0  0  0
 78 83  1  0  0  0
 79 83  1  0  0  0
 79153  1  0  0  0
 79154  1  0  0  0
 79155  1  0  0  0
 80 81  1  0  0  0
 80156  1  0  0  0
 80157  1  0  0  0
 81 83  1  0  0  0
 81158  1  0  0  0
 81159  1  0  0  0
 82 83  1  0  0  0
 82160  1  0  0  0
 82161  1  0  0  0
 84162  1  0  0  0
M  ISO  4   1 100  68 101  82 101  84 100
M  END
> <chiral flag>
0

> <version>
0

> <s_m_source_file>
/data/baiqing/PycharmProjects/Reinvent-master-3.2/result/LINK_invent/BTK/process_docking_weight1_custom_product_contain_oxygen_bond_distance_aromatic_linkinvent_7_9_3/rearranged_h_0138.sdf

> <i_m_source_file_index>
36

> <r_mmod_Potential_Energy-OPLS-2005>
149.668838500977

> <r_mmod_Stretch_Energy-OPLS-2005>
106.21174621582

> <r_mmod_Bend_Energy-OPLS-2005>
145.256240844727

> <r_mmod_Torsional_Energy-OPLS-2005>
255.195159912109

> <r_mmod_Improper_Torsional_Energy-OPLS-2005>
5.10372686386108

> <r_mmod_Van_der_Waal_Energy-OPLS-2005>
137.035079956055

> <r_mmod_Electrostatic_Energy-OPLS-2005>
-366.044464111328

> <r_mmod_Solvation_Energy-OPLS-2005>
-198.314376831055

> <b_mmod_Minimization_Converged-OPLS-2005>
0

> <r_mmod_RMS_Derivative-OPLS-2005>
3.56095004081726

$$$$
36
                    3D
 Structure written by MMmdl.
157166  0  0  1  0            999 V2000
  -30.6654  -14.5740   20.5380 C   0  0  0  0  0  0
  -30.4305  -12.3637   19.4385 C   0  0  0  0  0  0
  -29.5026  -12.5042   18.2134 C   0  0  0  0  0  0
  -28.0255  -12.3457   18.6283 C   0  0  0  0  0  0
  -27.6537  -13.2137   19.8611 C   0  0  2  0  0  0
  -28.6970  -13.0535   20.9890 C   0  0  0  0  0  0
  -25.2575  -13.8173   20.5672 C   0  0  0  0  0  0
  -24.1839  -13.0446   20.9179 C   0  0  0  0  0  0
  -24.6394  -11.6912   20.8734 C   0  0  0  0  0  0
  -23.9056  -10.4300   21.0400 C   0  0  0  0  0  0
  -24.3608   -9.4215   21.9176 C   0  0  0  0  0  0
  -23.6287   -8.2246   22.0755 C   0  0  0  0  0  0
  -22.4271   -8.0280   21.3548 C   0  0  0  0  0  0
  -21.9904   -9.0250   20.4646 C   0  0  0  0  0  0
  -22.7227  -10.2133   20.3051 C   0  0  0  0  0  0
  -21.6858   -6.0732   22.5275 C   0  0  0  0  0  0
  -21.4013   -6.5632   23.8207 C   0  0  0  0  0  0
  -21.3666   -5.6789   24.9170 C   0  0  0  0  0  0
  -21.6046   -4.3049   24.7224 C   0  0  0  0  0  0
  -21.8815   -3.8142   23.4347 C   0  0  0  0  0  0
  -21.9193   -4.6962   22.3404 C   0  0  0  0  0  0
  -22.7862  -13.5237   21.1836 C   0  0  0  0  0  0
  -22.1663   -4.2143   21.0984 F   0  0  0  0  0  0
  -21.5635   -3.4537   25.7739 F   0  0  0  0  0  0
  -30.0149  -13.3781   20.4230 N   0  0  0  0  0  0
  -26.2990  -12.9344   20.3299 N   0  0  0  0  0  0
  -25.9317  -11.6502   20.5739 N   0  0  0  0  0  0
  -22.0501  -12.8245   22.0404 N   0  0  0  0  0  0
  -25.4314  -15.1892   20.4087 N   0  0  0  0  0  0
  -31.8258  -14.7240   20.1473 O   0  0  0  0  0  0
  -21.6645   -6.8873   21.4236 O   0  0  0  0  0  0
  -22.3549  -14.5538   20.6677 O   0  0  0  0  0  0
  -24.6207  -31.8627   23.2051 C   0  0  0  0  0  0
  -25.9077  -32.4795   23.8364 C   0  0  1  0  0  0
  -27.2305  -27.3719   20.1131 C   0  0  0  0  0  0
  -25.5915  -33.8592   24.2298 N   0  0  0  0  0  0
  -23.4135  -30.4850   21.5460 C   0  0  2  0  0  0
  -24.8634  -28.9428   20.1136 C   0  0  0  0  0  0
  -22.7446  -29.4641   22.4957 C   0  0  0  0  0  0
  -18.0283  -28.1381   22.8488 C   0  0  0  0  0  0
  -24.1492  -36.7303   23.2640 C   0  0  0  0  0  0
  -25.9488  -30.8091   21.3693 C   0  0  0  0  0  0
  -26.0276  -29.4379   20.7178 C   0  0  0  0  0  0
  -27.2179  -28.6600   20.7157 C   0  0  0  0  0  0
  -26.0529  -26.9097   19.4945 C   0  0  0  0  0  0
  -24.8743  -27.6807   19.4950 C   0  0  0  0  0  0
  -23.6268  -29.8161   20.1621 C   0  0  0  0  0  0
  -25.4115  -36.3090   24.0332 C   0  0  1  0  0  0
  -20.5876  -28.3681   23.1294 C   0  0  2  0  0  0
  -20.6773  -26.9411   22.5416 C   0  0  0  0  0  0
  -19.5756  -26.6386   21.5213 C   0  0  0  0  0  0
  -18.1929  -26.7928   22.1616 C   0  0  0  0  0  0
  -19.1530  -28.8849   23.2887 C   0  0  0  0  0  0
  -18.9458  -30.1453   23.8902 C   0  0  0  0  0  0
  -17.6457  -30.6584   24.0567 C   0  0  0  0  0  0
  -25.9048  -34.9460   23.5115 C   0  0  0  0  0  0
  -16.5349  -29.9081   23.6334 C   0  0  0  0  0  0
  -16.7271  -28.6498   23.0356 C   0  0  0  0  0  0
  -26.4485  -31.6586   25.0710 C   0  0  0  0  0  0
  -25.3738  -31.3706   26.1450 C   0  0  0  0  0  0
  -27.0332  -30.3023   24.6128 C   0  0  0  0  0  0
  -27.6054  -32.4314   25.7471 C   0  0  0  0  0  0
  -27.5586  -37.1802   24.8465 C   0  0  0  0  0  0
  -21.4168  -29.3033   22.3685 N   0  0  0  0  0  0
  -26.4298  -37.3781   23.9409 N   0  0  0  0  0  0
  -24.6792  -31.0680   22.0977 N   0  0  0  0  0  0
  -23.4181  -28.8197   23.3040 O   0  0  0  0  0  0
  -28.3288  -26.5229   20.1057 O   0  0  0  0  0  0
  -26.5610  -34.8922   22.4678 O   0  0  0  0  0  0
  -23.5384  -32.1410   23.7406 O   0  0  0  0  0  0
  -28.8963  -19.1539   18.4047 C   0  0  0  0  0  0
  -29.3480  -18.0442   19.1486 C   0  0  0  0  0  0
  -28.8697  -20.4497   18.9662 C   0  0  0  0  0  0
  -29.7442  -19.5332   21.0332 C   0  0  0  0  0  0
  -29.7901  -18.2139   20.4761 C   0  0  0  0  0  0
  -29.2828  -20.6763   20.2975 C   0  0  0  0  0  0
  -28.6888  -24.3317   21.2557 C   0  0  0  0  0  0
  -28.4508  -25.6793   21.1996 C   0  0  0  0  0  0
  -28.8095  -23.6110   22.5824 C   0  0  0  0  0  0
  -28.8678  -23.2620   20.1648 C   0  0  0  0  0  0
  -29.3615  -22.2072   22.2891 C   0  0  0  0  0  0
  -30.3787  -17.0164   21.2746 C   0  0  0  0  0  0
  -29.2289  -21.9955   20.8550 N   0  0  0  0  0  0
  -29.9216  -15.6303   20.9623 N   0  0  0  0  0  0
  -31.4739  -12.4770   19.1386 H   0  0  0  0  0  0
  -30.3499  -11.3657   19.8720 H   0  0  0  0  0  0
  -29.7619  -11.7626   17.4563 H   0  0  0  0  0  0
  -29.6518  -13.4807   17.7493 H   0  0  0  0  0  0
  -27.8587  -11.2919   18.8552 H   0  0  0  0  0  0
  -27.3714  -12.5808   17.7885 H   0  0  0  0  0  0
  -27.6771  -14.2515   19.5268 H   0  0  0  0  0  0
  -28.6981  -12.0303   21.3673 H   0  0  0  0  0  0
  -28.4485  -13.6842   21.8444 H   0  0  0  0  0  0
  -25.2758   -9.5689   22.4743 H   0  0  0  0  0  0
  -24.0005   -7.4638   22.7471 H   0  0  0  0  0  0
  -21.0838   -8.8754   19.8954 H   0  0  0  0  0  0
  -22.3677  -10.9663   19.6157 H   0  0  0  0  0  0
  -21.1996   -7.6139   23.9701 H   0  0  0  0  0  0
  -21.1501   -6.0527   25.9071 H   0  0  0  0  0  0
  -22.0591   -2.7603   23.2848 H   0  0  0  0  0  0
  -22.4114  -11.9913   22.4817 H   0  0  0  0  0  0
  -21.1104  -13.1262   22.2577 H   0  0  0  0  0  0
  -24.6672  -15.8474   20.5143 H   0  0  0  0  0  0
  -26.2834  -15.6247   20.0792 H   0  0  0  0  0  0
  -26.7148  -32.5491   23.1121 H   0  0  0  0  0  0
  -25.0063  -33.9743   25.0441 H   0  0  0  0  0  0
  -22.7059  -31.3042   21.4042 H   0  0  0  0  0  0
  -23.3752  -35.9641   23.3306 H   0  0  0  0  0  0
  -24.3589  -36.8920   22.2057 H   0  0  0  0  0  0
  -23.7251  -37.6507   23.6658 H   0  0  0  0  0  0
  -26.0711  -31.5725   20.5990 H   0  0  0  0  0  0
  -26.8319  -30.8612   21.9944 H   0  0  0  0  0  0
  -28.1154  -29.0323   21.1891 H   0  0  0  0  0  0
  -26.0482  -25.9351   19.0255 H   0  0  0  0  0  0
  -23.9821  -27.2960   19.0215 H   0  0  0  0  0  0
  -23.7362  -30.5907   19.4021 H   0  0  0  0  0  0
  -22.7494  -29.2378   19.8667 H   0  0  0  0  0  0
  -25.1297  -36.1944   25.0826 H   0  0  0  0  0  0
  -20.9976  -28.3259   24.1412 H   0  0  0  0  0  0
  -20.5685  -26.2292   23.3608 H   0  0  0  0  0  0
  -21.6642  -26.7450   22.1209 H   0  0  0  0  0  0
  -19.6920  -25.6298   21.1240 H   0  0  0  0  0  0
  -19.6698  -27.3198   20.6744 H   0  0  0  0  0  0
  -17.4208  -26.6695   21.4005 H   0  0  0  0  0  0
  -18.0318  -26.0059   22.8997 H   0  0  0  0  0  0
  -19.7935  -30.7270   24.2270 H   0  0  0  0  0  0
  -17.5014  -31.6269   24.5163 H   0  0  0  0  0  0
  -15.5350  -30.2988   23.7654 H   0  0  0  0  0  0
  -15.8672  -28.0821   22.7067 H   0  0  0  0  0  0
  -24.5893  -30.7085   25.7771 H   0  0  0  0  0  0
  -24.8956  -32.2872   26.4914 H   0  0  0  0  0  0
  -25.8071  -30.8843   27.0200 H   0  0  0  0  0  0
  -26.2897  -29.6760   24.1189 H   0  0  0  0  0  0
  -27.4100  -29.7280   25.4603 H   0  0  0  0  0  0
  -27.8729  -30.4336   23.9300 H   0  0  0  0  0  0
  -27.2667  -33.3595   26.2088 H   0  0  0  0  0  0
  -28.3831  -32.6912   25.0275 H   0  0  0  0  0  0
  -28.0764  -31.8421   26.5349 H   0  0  0  0  0  0
  -28.2601  -38.0101   24.7509 H   0  0  0  0  0  0
  -28.1081  -36.2630   24.6285 H   0  0  0  0  0  0
  -27.2308  -37.1451   25.8869 H   0  0  0  0  0  0
  -20.9340  -29.8722   21.6870 H   0  0  0  0  0  0
  -26.0181  -38.2858   24.1400 H   0  0  0  0  0  0
  -28.5723  -19.0142   17.3829 H   0  0  0  0  0  0
  -29.3744  -17.0675   18.6846 H   0  0  0  0  0  0
  -28.5183  -21.2669   18.3537 H   0  0  0  0  0  0
  -30.0911  -19.6590   22.0490 H   0  0  0  0  0  0
  -28.3465  -26.2441   22.1163 H   0  0  0  0  0  0
  -27.8135  -23.5297   23.0200 H   0  0  0  0  0  0
  -29.4371  -24.1603   23.2861 H   0  0  0  0  0  0
  -29.6496  -23.5646   19.4661 H   0  0  0  0  0  0
  -27.9347  -23.1477   19.6110 H   0  0  0  0  0  0
  -28.8143  -21.4538   22.8579 H   0  0  0  0  0  0
  -30.4135  -22.1373   22.5701 H   0  0  0  0  0  0
  -30.1696  -17.1848   22.3318 H   0  0  0  0  0  0
  -31.4650  -17.0747   21.1869 H   0  0  0  0  0  0
  -28.9634  -15.4207   21.1967 H   0  0  0  0  0  0
  1 25  1  0  0  0
  1 30  2  0  0  0
  1 84  1  0  0  0
  2  3  1  0  0  0
  2 25  1  0  0  0
  2 85  1  0  0  0
  2 86  1  0  0  0
  3  4  1  0  0  0
  3 87  1  0  0  0
  3 88  1  0  0  0
  4  5  1  0  0  0
  4 89  1  0  0  0
  4 90  1  0  0  0
  5  6  1  0  0  0
  5 26  1  0  0  0
  5 91  1  0  0  0
  6 25  1  0  0  0
  6 92  1  0  0  0
  6 93  1  0  0  0
  7  8  2  0  0  0
  7 26  1  0  0  0
  7 29  1  0  0  0
  8  9  1  0  0  0
  8 22  1  0  0  0
  9 10  1  0  0  0
  9 27  2  0  0  0
 10 11  2  0  0  0
 10 15  1  0  0  0
 11 12  1  0  0  0
 11 94  1  0  0  0
 12 13  2  0  0  0
 12 95  1  0  0  0
 13 14  1  0  0  0
 13 31  1  0  0  0
 14 15  2  0  0  0
 14 96  1  0  0  0
 15 97  1  0  0  0
 16 17  2  0  0  0
 16 21  1  0  0  0
 16 31  1  0  0  0
 17 18  1  0  0  0
 17 98  1  0  0  0
 18 19  2  0  0  0
 18 99  1  0  0  0
 19 20  1  0  0  0
 19 24  1  0  0  0
 20 21  2  0  0  0
 20100  1  0  0  0
 21 23  1  0  0  0
 22 28  1  0  0  0
 22 32  2  0  0  0
 26 27  1  0  0  0
 28101  1  0  0  0
 28102  1  0  0  0
 29103  1  0  0  0
 29104  1  0  0  0
 33 34  1  0  0  0
 33 66  1  0  0  0
 33 70  2  0  0  0
 34 36  1  0  0  0
 34 59  1  0  0  0
 34105  1  0  0  0
 35 44  2  0  0  0
 35 45  1  0  0  0
 35 68  1  0  0  0
 36 56  1  0  0  0
 36106  1  0  0  0
 37 39  1  0  0  0
 37 47  1  0  0  0
 37 66  1  0  0  0
 37107  1  0  0  0
 38 43  2  0  0  0
 38 46  1  0  0  0
 38 47  1  0  0  0
 39 64  1  0  0  0
 39 67  2  0  0  0
 40 52  1  0  0  0
 40 53  2  0  0  0
 40 58  1  0  0  0
 41108  1  0  0  0
 41109  1  0  0  0
 41110  1  0  0  0
 41 48  1  0  0  0
 42 43  1  0  0  0
 42 66  1  0  0  0
 42111  1  0  0  0
 42112  1  0  0  0
 43 44  1  0  0  0
 44113  1  0  0  0
 45 46  2  0  0  0
 45114  1  0  0  0
 46115  1  0  0  0
 47116  1  0  0  0
 47117  1  0  0  0
 48 56  1  0  0  0
 48 65  1  0  0  0
 48118  1  0  0  0
 49 50  1  0  0  0
 49 53  1  0  0  0
 49 64  1  0  0  0
 49119  1  0  0  0
 50 51  1  0  0  0
 50120  1  0  0  0
 50121  1  0  0  0
 51 52  1  0  0  0
 51122  1  0  0  0
 51123  1  0  0  0
 52124  1  0  0  0
 52125  1  0  0  0
 53 54  1  0  0  0
 54 55  2  0  0  0
 54126  1  0  0  0
 55 57  1  0  0  0
 55127  1  0  0  0
 56 69  2  0  0  0
 57 58  2  0  0  0
 57128  1  0  0  0
 58129  1  0  0  0
 59 60  1  0  0  0
 59 61  1  0  0  0
 59 62  1  0  0  0
 60130  1  0  0  0
 60131  1  0  0  0
 60132  1  0  0  0
 61133  1  0  0  0
 61134  1  0  0  0
 61135  1  0  0  0
 62136  1  0  0  0
 62137  1  0  0  0
 62138  1  0  0  0
 63 65  1  0  0  0
 63139  1  0  0  0
 63140  1  0  0  0
 63141  1  0  0  0
 64142  1  0  0  0
 65143  1  0  0  0
 68 78  1  0  0  0
 71 72  2  0  0  0
 71 73  1  0  0  0
 71144  1  0  0  0
 72 75  1  0  0  0
 72145  1  0  0  0
 73 76  2  0  0  0
 73146  1  0  0  0
 74 75  2  0  0  0
 74 76  1  0  0  0
 74147  1  0  0  0
 75 82  1  0  0  0
 76 83  1  0  0  0
 77 78  2  0  0  0
 77 79  1  0  0  0
 77 80  1  0  0  0
 78148  1  0  0  0
 79 81  1  0  0  0
 79149  1  0  0  0
 79150  1  0  0  0
 80 83  1  0  0  0
 80151  1  0  0  0
 80152  1  0  0  0
 81 83  1  0  0  0
 81153  1  0  0  0
 81154  1  0  0  0
 82 84  1  0  0  0
 82155  1  0  0  0
 82156  1  0  0  0
 84157  1  0  0  0
M  ISO  4   1 100  68 101  78 101  84 100
M  END
> <chiral flag>
0

> <version>
0

> <s_m_source_file>
/data/baiqing/PycharmProjects/Reinvent-master-3.2/result/LINK_invent/BTK/process_docking_weight1_custom_product_contain_oxygen_bond_distance_aromatic_linkinvent_7_9_3/rearranged_h_0138.sdf

> <i_m_source_file_index>
37

> <r_mmod_Potential_Energy-OPLS-2005>
-24.4748802185059

> <r_mmod_Stretch_Energy-OPLS-2005>
54.9409523010254

> <r_mmod_Bend_Energy-OPLS-2005>
160.006576538086

> <r_mmod_Torsional_Energy-OPLS-2005>
224.774780273438

> <r_mmod_Improper_Torsional_Energy-OPLS-2005>
3.68377351760864

> <r_mmod_Van_der_Waal_Energy-OPLS-2005>
137.758285522461

> <r_mmod_Electrostatic_Energy-OPLS-2005>
-408.834564208984

> <r_mmod_Solvation_Energy-OPLS-2005>
-228.031005859375

> <b_mmod_Minimization_Converged-OPLS-2005>
0

> <r_mmod_RMS_Derivative-OPLS-2005>
1.20920896530151

$$$$
37
                    3D
 Structure written by MMmdl.
164172  0  0  1  0            999 V2000
  -30.6549  -14.5606   20.5124 C   0  0  0  0  0  0
  -30.4327  -12.3634   19.4027 C   0  0  0  0  0  0
  -29.4811  -12.5079   18.1984 C   0  0  0  0  0  0
  -28.0143  -12.3446   18.6392 C   0  0  0  0  0  0
  -27.6545  -13.2099   19.8717 C   0  0  2  0  0  0
  -28.7066  -13.0597   20.9902 C   0  0  0  0  0  0
  -25.2581  -13.8147   20.5698 C   0  0  0  0  0  0
  -24.1865  -13.0459   20.9233 C   0  0  0  0  0  0
  -24.6440  -11.6898   20.8827 C   0  0  0  0  0  0
  -23.9136  -10.4312   21.0490 C   0  0  0  0  0  0
  -24.3678   -9.4214   21.9244 C   0  0  0  0  0  0
  -23.6339   -8.2256   22.0769 C   0  0  0  0  0  0
  -22.4305   -8.0303   21.3563 C   0  0  0  0  0  0
  -21.9983   -9.0317   20.4679 C   0  0  0  0  0  0
  -22.7331  -10.2187   20.3128 C   0  0  0  0  0  0
  -21.6855   -6.0786   22.5280 C   0  0  0  0  0  0
  -21.4011   -6.5697   23.8220 C   0  0  0  0  0  0
  -21.3645   -5.6846   24.9175 C   0  0  0  0  0  0
  -21.6043   -4.3109   24.7228 C   0  0  0  0  0  0
  -21.8820   -3.8191   23.4350 C   0  0  0  0  0  0
  -21.9207   -4.7008   22.3400 C   0  0  0  0  0  0
  -22.7869  -13.5210   21.1899 C   0  0  0  0  0  0
  -22.1673   -4.2196   21.0981 F   0  0  0  0  0  0
  -21.5635   -3.4578   25.7736 F   0  0  0  0  0  0
  -30.0168  -13.3679   20.3944 N   0  0  0  0  0  0
  -26.3034  -12.9338   20.3432 N   0  0  0  0  0  0
  -25.9393  -11.6504   20.5928 N   0  0  0  0  0  0
  -22.0545  -12.8192   22.0436 N   0  0  0  0  0  0
  -25.4353  -15.1873   20.3960 N   0  0  0  0  0  0
  -31.8218  -14.7317   20.1509 O   0  0  0  0  0  0
  -21.6652   -6.8913   21.4232 O   0  0  0  0  0  0
  -22.3572  -14.5507   20.6678 O   0  0  0  0  0  0
  -24.6169  -31.8679   23.2157 C   0  0  0  0  0  0
  -25.9070  -32.4810   23.8390 C   0  0  1  0  0  0
  -27.1877  -27.3745   20.0730 C   0  0  0  0  0  0
  -25.5932  -33.8630   24.2315 N   0  0  0  0  0  0
  -23.3991  -30.4998   21.5662 C   0  0  2  0  0  0
  -24.8321  -28.9713   20.1088 C   0  0  0  0  0  0
  -22.7377  -29.4632   22.5040 C   0  0  0  0  0  0
  -18.0199  -28.1285   22.8451 C   0  0  0  0  0  0
  -24.1496  -36.7329   23.2642 C   0  0  0  0  0  0
  -25.9394  -30.8062   21.3816 C   0  0  0  0  0  0
  -26.0023  -29.4436   20.7120 C   0  0  0  0  0  0
  -27.1803  -28.6545   20.6966 C   0  0  0  0  0  0
  -25.9976  -26.9516   19.4356 C   0  0  0  0  0  0
  -24.8271  -27.7255   19.4649 C   0  0  0  0  0  0
  -23.6006  -29.8517   20.1736 C   0  0  0  0  0  0
  -25.4122  -36.3142   24.0334 C   0  0  1  0  0  0
  -20.5804  -28.3582   23.1276 C   0  0  2  0  0  0
  -20.6681  -26.9304   22.5354 C   0  0  0  0  0  0
  -19.5632  -26.6271   21.5139 C   0  0  0  0  0  0
  -18.1835  -26.7800   22.1594 C   0  0  0  0  0  0
  -19.1479  -28.8731   23.2834 C   0  0  0  0  0  0
  -18.9458  -30.1327   23.8855 C   0  0  0  0  0  0
  -17.6487  -30.6573   24.0476 C   0  0  0  0  0  0
  -25.9049  -34.9484   23.5126 C   0  0  0  0  0  0
  -16.5380  -29.9051   23.6276 C   0  0  0  0  0  0
  -16.7226  -28.6410   23.0340 C   0  0  0  0  0  0
  -26.4470  -31.6607   25.0747 C   0  0  0  0  0  0
  -25.3724  -31.3722   26.1485 C   0  0  0  0  0  0
  -27.0311  -30.3033   24.6198 C   0  0  0  0  0  0
  -27.6045  -32.4326   25.7529 C   0  0  0  0  0  0
  -27.5583  -37.1846   24.8462 C   0  0  0  0  0  0
  -21.4082  -29.3002   22.3755 N   0  0  0  0  0  0
  -26.4300  -37.3837   23.9402 N   0  0  0  0  0  0
  -24.6718  -31.0711   22.1122 N   0  0  0  0  0  0
  -23.4115  -28.8116   23.3038 O   0  0  0  0  0  0
  -28.3159  -26.5614   20.1070 O   0  0  0  0  0  0
  -26.5620  -34.8934   22.4691 O   0  0  0  0  0  0
  -23.5361  -32.1471   23.7531 O   0  0  0  0  0  0
  -30.2775  -15.8644   23.1703 C   0  0  0  0  0  0
  -30.2596  -16.5856   24.3710 C   0  0  0  0  0  0
  -29.7481  -18.6094   23.1222 C   0  0  0  0  0  0
  -29.7677  -17.9180   21.8846 C   0  0  0  0  0  0
  -30.0157  -16.4937   21.9250 C   0  0  0  0  0  0
  -29.9782  -17.9547   24.3462 C   0  0  0  0  0  0
  -29.0961  -24.1972   20.5211 C   0  0  0  0  0  0
  -27.8072  -21.6027   21.4293 C   0  0  0  0  0  0
  -27.9773  -21.1314   18.9713 C   0  0  0  0  0  0
  -29.4801  -18.7303   20.5872 C   0  0  0  0  0  0
  -29.5413  -22.8212   19.9233 C   0  0  0  0  0  0
  -28.1586  -25.1542   19.7222 C   0  0  0  0  0  0
  -29.8353  -20.2878   20.5500 C   0  0  0  0  0  0
  -28.7860  -21.4518   20.2455 C   0  0  0  0  0  0
  -29.8511  -15.6179   20.8062 N   0  0  0  0  0  0
  -29.5160  -24.5354   21.6325 O   0  0  0  0  0  0
  -29.9207  -18.6421   25.5100 F   0  0  0  0  0  0
  -31.4675  -12.5036   19.0781 H   0  0  0  0  0  0
  -30.3745  -11.3624   19.8355 H   0  0  0  0  0  0
  -29.7182  -11.7813   17.4217 H   0  0  0  0  0  0
  -29.6178  -13.4885   17.7384 H   0  0  0  0  0  0
  -27.8552  -11.2922   18.8739 H   0  0  0  0  0  0
  -27.3424  -12.5736   17.8128 H   0  0  0  0  0  0
  -27.6712  -14.2464   19.5337 H   0  0  0  0  0  0
  -28.7115  -12.0585   21.4196 H   0  0  0  0  0  0
  -28.4749  -13.7246   21.8219 H   0  0  0  0  0  0
  -25.2826   -9.5667   22.4836 H   0  0  0  0  0  0
  -24.0039   -7.4654   22.7497 H   0  0  0  0  0  0
  -21.0931   -8.8925   19.8977 H   0  0  0  0  0  0
  -22.3857  -10.9778   19.6262 H   0  0  0  0  0  0
  -21.1976   -7.6203   23.9717 H   0  0  0  0  0  0
  -21.1455   -6.0586   25.9089 H   0  0  0  0  0  0
  -22.0591   -2.7656   23.2847 H   0  0  0  0  0  0
  -22.4112  -11.9768   22.4715 H   0  0  0  0  0  0
  -21.1221  -13.1263   22.2746 H   0  0  0  0  0  0
  -24.6746  -15.8503   20.4773 H   0  0  0  0  0  0
  -26.2715  -15.6022   20.0075 H   0  0  0  0  0  0
  -26.7130  -32.5428   23.1119 H   0  0  0  0  0  0
  -25.0101  -33.9808   25.0475 H   0  0  0  0  0  0
  -22.6879  -31.3173   21.4508 H   0  0  0  0  0  0
  -23.3768  -35.9658   23.3332 H   0  0  0  0  0  0
  -24.3563  -36.8913   22.2048 H   0  0  0  0  0  0
  -23.7239  -37.6544   23.6623 H   0  0  0  0  0  0
  -26.0707  -31.5797   20.6214 H   0  0  0  0  0  0
  -26.8216  -30.8352   22.0097 H   0  0  0  0  0  0
  -28.0737  -29.0202   21.1816 H   0  0  0  0  0  0
  -25.9305  -26.0157   18.9019 H   0  0  0  0  0  0
  -23.9285  -27.3680   18.9791 H   0  0  0  0  0  0
  -23.7094  -30.6474   19.4361 H   0  0  0  0  0  0
  -22.7133  -29.2948   19.8653 H   0  0  0  0  0  0
  -25.1314  -36.2028   25.0833 H   0  0  0  0  0  0
  -20.9828  -28.3165   24.1420 H   0  0  0  0  0  0
  -20.5474  -26.2220   23.3582 H   0  0  0  0  0  0
  -21.6575  -26.7256   22.1211 H   0  0  0  0  0  0
  -19.6818  -25.6174   21.1212 H   0  0  0  0  0  0
  -19.6509  -27.3066   20.6656 H   0  0  0  0  0  0
  -17.4085  -26.6321   21.4026 H   0  0  0  0  0  0
  -18.0380  -25.9979   22.9023 H   0  0  0  0  0  0
  -19.8012  -30.7033   24.2209 H   0  0  0  0  0  0
  -17.5137  -31.6258   24.5057 H   0  0  0  0  0  0
  -15.5398  -30.2991   23.7506 H   0  0  0  0  0  0
  -15.8618  -28.0727   22.7118 H   0  0  0  0  0  0
  -24.5899  -30.7080   25.7786 H   0  0  0  0  0  0
  -24.8921  -32.2902   26.4904 H   0  0  0  0  0  0
  -25.8041  -30.8884   27.0262 H   0  0  0  0  0  0
  -26.2888  -29.6807   24.1196 H   0  0  0  0  0  0
  -27.3990  -29.7234   25.4670 H   0  0  0  0  0  0
  -27.8759  -30.4316   23.9423 H   0  0  0  0  0  0
  -27.2660  -33.3608   26.2148 H   0  0  0  0  0  0
  -28.3847  -32.6919   25.0359 H   0  0  0  0  0  0
  -28.0747  -31.8438   26.5431 H   0  0  0  0  0  0
  -28.2651  -38.0102   24.7517 H   0  0  0  0  0  0
  -28.1033  -36.2648   24.6298 H   0  0  0  0  0  0
  -27.2290  -37.1522   25.8860 H   0  0  0  0  0  0
  -20.9270  -29.8825   21.7051 H   0  0  0  0  0  0
  -26.0191  -38.2924   24.1391 H   0  0  0  0  0  0
  -30.4440  -14.7991   23.2405 H   0  0  0  0  0  0
  -30.4195  -16.0868   25.3177 H   0  0  0  0  0  0
  -29.5346  -19.6655   23.1635 H   0  0  0  0  0  0
  -27.0299  -22.3382   21.2129 H   0  0  0  0  0  0
  -28.3197  -21.9138   22.3425 H   0  0  0  0  0  0
  -27.2895  -20.6639   21.6427 H   0  0  0  0  0  0
  -27.3692  -21.9925   18.6875 H   0  0  0  0  0  0
  -27.3041  -20.2826   19.1006 H   0  0  0  0  0  0
  -28.6393  -20.9150   18.1294 H   0  0  0  0  0  0
  -30.0893  -18.2533   19.8153 H   0  0  0  0  0  0
  -28.4548  -18.5511   20.2810 H   0  0  0  0  0  0
  -30.5916  -22.7065   20.2041 H   0  0  0  0  0  0
  -29.5654  -22.9621   18.8424 H   0  0  0  0  0  0
  -27.1513  -24.7970   19.9432 H   0  0  0  0  0  0
  -28.3110  -25.0503   18.6440 H   0  0  0  0  0  0
  -30.5832  -20.3709   19.7620 H   0  0  0  0  0  0
  -30.3895  -20.5617   21.4455 H   0  0  0  0  0  0
  -28.8816  -15.3821   20.6467 H   0  0  0  0  0  0
  1 25  1  0  0  0
  1 30  2  0  0  0
  1 85  1  0  0  0
  2  3  1  0  0  0
  2 25  1  0  0  0
  2 88  1  0  0  0
  2 89  1  0  0  0
  3  4  1  0  0  0
  3 90  1  0  0  0
  3 91  1  0  0  0
  4  5  1  0  0  0
  4 92  1  0  0  0
  4 93  1  0  0  0
  5  6  1  0  0  0
  5 26  1  0  0  0
  5 94  1  0  0  0
  6 25  1  0  0  0
  6 95  1  0  0  0
  6 96  1  0  0  0
  7  8  2  0  0  0
  7 26  1  0  0  0
  7 29  1  0  0  0
  8  9  1  0  0  0
  8 22  1  0  0  0
  9 10  1  0  0  0
  9 27  2  0  0  0
 10 11  2  0  0  0
 10 15  1  0  0  0
 11 12  1  0  0  0
 11 97  1  0  0  0
 12 13  2  0  0  0
 12 98  1  0  0  0
 13 14  1  0  0  0
 13 31  1  0  0  0
 14 15  2  0  0  0
 14 99  1  0  0  0
 15100  1  0  0  0
 16 17  2  0  0  0
 16 21  1  0  0  0
 16 31  1  0  0  0
 17 18  1  0  0  0
 17101  1  0  0  0
 18 19  2  0  0  0
 18102  1  0  0  0
 19 20  1  0  0  0
 19 24  1  0  0  0
 20 21  2  0  0  0
 20103  1  0  0  0
 21 23  1  0  0  0
 22 28  1  0  0  0
 22 32  2  0  0  0
 26 27  1  0  0  0
 28104  1  0  0  0
 28105  1  0  0  0
 29106  1  0  0  0
 29107  1  0  0  0
 33 34  1  0  0  0
 33 66  1  0  0  0
 33 70  2  0  0  0
 34 36  1  0  0  0
 34 59  1  0  0  0
 34108  1  0  0  0
 35 44  2  0  0  0
 35 45  1  0  0  0
 35 68  1  0  0  0
 36 56  1  0  0  0
 36109  1  0  0  0
 37 39  1  0  0  0
 37 47  1  0  0  0
 37 66  1  0  0  0
 37110  1  0  0  0
 38 43  2  0  0  0
 38 46  1  0  0  0
 38 47  1  0  0  0
 39 64  1  0  0  0
 39 67  2  0  0  0
 40 52  1  0  0  0
 40 53  2  0  0  0
 40 58  1  0  0  0
 41111  1  0  0  0
 41112  1  0  0  0
 41113  1  0  0  0
 41 48  1  0  0  0
 42 43  1  0  0  0
 42 66  1  0  0  0
 42114  1  0  0  0
 42115  1  0  0  0
 43 44  1  0  0  0
 44116  1  0  0  0
 45 46  2  0  0  0
 45117  1  0  0  0
 46118  1  0  0  0
 47119  1  0  0  0
 47120  1  0  0  0
 48 56  1  0  0  0
 48 65  1  0  0  0
 48121  1  0  0  0
 49 50  1  0  0  0
 49 53  1  0  0  0
 49 64  1  0  0  0
 49122  1  0  0  0
 50 51  1  0  0  0
 50123  1  0  0  0
 50124  1  0  0  0
 51 52  1  0  0  0
 51125  1  0  0  0
 51126  1  0  0  0
 52127  1  0  0  0
 52128  1  0  0  0
 53 54  1  0  0  0
 54 55  2  0  0  0
 54129  1  0  0  0
 55 57  1  0  0  0
 55130  1  0  0  0
 56 69  2  0  0  0
 57 58  2  0  0  0
 57131  1  0  0  0
 58132  1  0  0  0
 59 60  1  0  0  0
 59 61  1  0  0  0
 59 62  1  0  0  0
 60133  1  0  0  0
 60134  1  0  0  0
 60135  1  0  0  0
 61136  1  0  0  0
 61137  1  0  0  0
 61138  1  0  0  0
 62139  1  0  0  0
 62140  1  0  0  0
 62141  1  0  0  0
 63 65  1  0  0  0
 63142  1  0  0  0
 63143  1  0  0  0
 63144  1  0  0  0
 64145  1  0  0  0
 65146  1  0  0  0
 68 82  1  0  0  0
 71 72  2  0  0  0
 71 75  1  0  0  0
 71147  1  0  0  0
 72 76  1  0  0  0
 72148  1  0  0  0
 73 74  1  0  0  0
 73 76  2  0  0  0
 73149  1  0  0  0
 74 75  2  0  0  0
 74 80  1  0  0  0
 75 85  1  0  0  0
 76 87  1  0  0  0
 77 81  1  0  0  0
 77 82  1  0  0  0
 77 86  2  0  0  0
 78150  1  0  0  0
 78151  1  0  0  0
 78152  1  0  0  0
 78 84  1  0  0  0
 79 84  1  0  0  0
 79153  1  0  0  0
 79154  1  0  0  0
 79155  1  0  0  0
 80 83  1  0  0  0
 80156  1  0  0  0
 80157  1  0  0  0
 81 84  1  0  0  0
 81158  1  0  0  0
 81159  1  0  0  0
 82160  1  0  0  0
 82161  1  0  0  0
 83 84  1  0  0  0
 83162  1  0  0  0
 83163  1  0  0  0
 85164  1  0  0  0
M  ISO  4   1 100  68 101  82 101  85 100
M  END
> <chiral flag>
0

> <version>
0

> <s_m_source_file>
/data/baiqing/PycharmProjects/Reinvent-master-3.2/result/LINK_invent/BTK/process_docking_weight1_custom_product_contain_oxygen_bond_distance_aromatic_linkinvent_7_9_3/rearranged_h_0138.sdf

> <i_m_source_file_index>
38

> <r_mmod_Potential_Energy-OPLS-2005>
122.255905151367

> <r_mmod_Stretch_Energy-OPLS-2005>
67.1315231323242

> <r_mmod_Bend_Energy-OPLS-2005>
144.774841308594

> <r_mmod_Torsional_Energy-OPLS-2005>
270.712127685547

> <r_mmod_Improper_Torsional_Energy-OPLS-2005>
10.261004447937

> <r_mmod_Van_der_Waal_Energy-OPLS-2005>
155.349655151367

> <r_mmod_Electrostatic_Energy-OPLS-2005>
-337.235565185547

> <r_mmod_Solvation_Energy-OPLS-2005>
-221.316177368164

> <b_mmod_Minimization_Converged-OPLS-2005>
0

> <r_mmod_RMS_Derivative-OPLS-2005>
7.95109510421753

$$$$
38
                    3D
 Structure written by MMmdl.
171180  0  0  1  0            999 V2000
  -30.5668  -14.5583   20.6285 C   0  0  0  0  0  0
  -30.4538  -12.3915   19.4003 C   0  0  0  0  0  0
  -29.4955  -12.5653   18.1985 C   0  0  0  0  0  0
  -28.0193  -12.3867   18.6134 C   0  0  0  0  0  0
  -27.6664  -13.1909   19.8923 C   0  0  2  0  0  0
  -28.7084  -12.8977   20.9916 C   0  0  0  0  0  0
  -25.2640  -13.8111   20.5677 C   0  0  0  0  0  0
  -24.1851  -13.0421   20.9140 C   0  0  0  0  0  0
  -24.6373  -11.6880   20.8728 C   0  0  0  0  0  0
  -23.9022  -10.4274   21.0407 C   0  0  0  0  0  0
  -24.3564   -9.4211   21.9196 C   0  0  0  0  0  0
  -23.6267   -8.2231   22.0771 C   0  0  0  0  0  0
  -22.4265   -8.0255   21.3524 C   0  0  0  0  0  0
  -21.9872   -9.0234   20.4629 C   0  0  0  0  0  0
  -22.7202  -10.2118   20.3050 C   0  0  0  0  0  0
  -21.6844   -6.0715   22.5294 C   0  0  0  0  0  0
  -21.3998   -6.5618   23.8220 C   0  0  0  0  0  0
  -21.3656   -5.6776   24.9178 C   0  0  0  0  0  0
  -21.6053   -4.3041   24.7244 C   0  0  0  0  0  0
  -21.8822   -3.8135   23.4355 C   0  0  0  0  0  0
  -21.9188   -4.6943   22.3409 C   0  0  0  0  0  0
  -22.7883  -13.5250   21.1841 C   0  0  0  0  0  0
  -22.1670   -4.2124   21.0986 F   0  0  0  0  0  0
  -21.5621   -3.4538   25.7754 F   0  0  0  0  0  0
  -30.0263  -13.3112   20.4700 N   0  0  0  0  0  0
  -26.3056  -12.9233   20.3420 N   0  0  0  0  0  0
  -25.9287  -11.6402   20.5746 N   0  0  0  0  0  0
  -22.0501  -12.8213   22.0353 N   0  0  0  0  0  0
  -25.4439  -15.1822   20.4110 N   0  0  0  0  0  0
  -31.6395  -14.8850   20.1040 O   0  0  0  0  0  0
  -21.6634   -6.8865   21.4244 O   0  0  0  0  0  0
  -22.3576  -14.5593   20.6757 O   0  0  0  0  0  0
  -24.6119  -31.8648   23.2079 C   0  0  0  0  0  0
  -25.9013  -32.4785   23.8382 C   0  0  1  0  0  0
  -27.2483  -27.3874   20.0983 C   0  0  0  0  0  0
  -25.5897  -33.8595   24.2338 N   0  0  0  0  0  0
  -23.4001  -30.4829   21.5494 C   0  0  2  0  0  0
  -24.8541  -28.9395   20.1174 C   0  0  0  0  0  0
  -22.7360  -29.4621   22.4978 C   0  0  0  0  0  0
  -18.0254  -28.1312   22.8467 C   0  0  0  0  0  0
  -24.1466  -36.7281   23.2618 C   0  0  0  0  0  0
  -25.9303  -30.8151   21.3628 C   0  0  0  0  0  0
  -26.0148  -29.4411   20.7176 C   0  0  0  0  0  0
  -27.2071  -28.6703   20.7094 C   0  0  0  0  0  0
  -26.0610  -26.9093   19.4961 C   0  0  0  0  0  0
  -24.8764  -27.6733   19.5077 C   0  0  0  0  0  0
  -23.6144  -29.8070   20.1688 C   0  0  0  0  0  0
  -25.4090  -36.3082   24.0322 C   0  0  1  0  0  0
  -20.5831  -28.3609   23.1321 C   0  0  2  0  0  0
  -20.6756  -26.9338   22.5418 C   0  0  0  0  0  0
  -19.5758  -26.6364   21.5154 C   0  0  0  0  0  0
  -18.1903  -26.7869   22.1534 C   0  0  0  0  0  0
  -19.1497  -28.8767   23.2881 C   0  0  0  0  0  0
  -18.9445  -30.1372   23.8891 C   0  0  0  0  0  0
  -17.6467  -30.6534   24.0536 C   0  0  0  0  0  0
  -25.9023  -34.9446   23.5128 C   0  0  0  0  0  0
  -16.5362  -29.9022   23.6333 C   0  0  0  0  0  0
  -16.7244  -28.6433   23.0354 C   0  0  0  0  0  0
  -26.4447  -31.6574   25.0710 C   0  0  0  0  0  0
  -25.3722  -31.3541   26.1460 C   0  0  0  0  0  0
  -27.0311  -30.3067   24.6021 C   0  0  0  0  0  0
  -27.6042  -32.4269   25.7480 C   0  0  0  0  0  0
  -27.5544  -37.1790   24.8432 C   0  0  0  0  0  0
  -21.4080  -29.3016   22.3748 N   0  0  0  0  0  0
  -26.4249  -37.3801   23.9401 N   0  0  0  0  0  0
  -24.6672  -31.0669   22.1012 N   0  0  0  0  0  0
  -23.4125  -28.8134   23.2996 O   0  0  0  0  0  0
  -28.4271  -26.6481   20.1362 O   0  0  0  0  0  0
  -26.5564  -34.8907   22.4693 O   0  0  0  0  0  0
  -23.5330  -32.1442   23.7498 O   0  0  0  0  0  0
  -28.7515  -19.4879   22.0132 C   0  0  0  0  0  0
  -28.5598  -17.1114   22.4986 C   0  0  0  0  0  0
  -30.0804  -17.8639   20.7464 C   0  0  0  0  0  0
  -28.1929  -18.4451   22.7695 C   0  0  0  0  0  0
  -29.6753  -19.2236   20.9844 C   0  0  0  0  0  0
  -29.5268  -16.7878   21.5140 C   0  0  0  0  0  0
  -29.5005  -23.0009   20.1175 C   0  0  0  0  0  0
  -28.7472  -20.2523   15.9833 C   0  0  0  0  0  0
  -28.1956  -21.6816   15.9088 C   0  0  0  0  0  0
  -29.1807  -20.0413   17.4489 C   0  0  0  0  0  0
  -28.0699  -22.1352   17.3671 C   0  0  0  0  0  0
  -29.2476  -21.4460   18.0784 C   0  0  0  0  0  0
  -27.2173  -18.7688   23.8893 C   0  0  0  0  0  0
  -30.2709  -20.4635   20.2708 C   0  0  0  0  0  0
  -28.3404  -24.0488   20.1502 C   0  0  0  0  0  0
  -28.5998  -25.4068   19.3932 C   0  0  0  0  0  0
  -29.2502  -21.5170   19.6444 C   0  0  1  0  0  0
  -29.8104  -15.3695   21.4163 N   0  0  0  0  0  0
  -30.6293  -23.3566   20.4683 O   0  0  0  0  0  0
  -31.4843  -12.5799   19.0924 H   0  0  0  0  0  0
  -30.4343  -11.3607   19.7528 H   0  0  0  0  0  0
  -29.7451  -11.8597   17.4042 H   0  0  0  0  0  0
  -29.6308  -13.5602   17.7714 H   0  0  0  0  0  0
  -27.8453  -11.3246   18.7833 H   0  0  0  0  0  0
  -27.3593  -12.6780   17.7958 H   0  0  0  0  0  0
  -27.7264  -14.2502   19.6416 H   0  0  0  0  0  0
  -28.7196  -11.8276   21.2089 H   0  0  0  0  0  0
  -28.4383  -13.3634   21.9422 H   0  0  0  0  0  0
  -25.2694   -9.5698   22.4792 H   0  0  0  0  0  0
  -23.9980   -7.4620   22.7483 H   0  0  0  0  0  0
  -21.0812   -8.8734   19.8920 H   0  0  0  0  0  0
  -22.3666  -10.9645   19.6156 H   0  0  0  0  0  0
  -21.1993   -7.6131   23.9710 H   0  0  0  0  0  0
  -21.1472   -6.0513   25.9075 H   0  0  0  0  0  0
  -22.0604   -2.7600   23.2883 H   0  0  0  0  0  0
  -22.4048  -11.9794   22.4652 H   0  0  0  0  0  0
  -21.1153  -13.1268   22.2624 H   0  0  0  0  0  0
  -24.6874  -15.8504   20.5059 H   0  0  0  0  0  0
  -26.3175  -15.6113   20.1325 H   0  0  0  0  0  0
  -26.7064  -32.5514   23.1135 H   0  0  0  0  0  0
  -25.0091  -33.9798   25.0504 H   0  0  0  0  0  0
  -22.6881  -31.3000   21.4075 H   0  0  0  0  0  0
  -23.3758  -35.9577   23.3286 H   0  0  0  0  0  0
  -24.3511  -36.8954   22.2021 H   0  0  0  0  0  0
  -23.7281  -37.6497   23.6687 H   0  0  0  0  0  0
  -26.0190  -31.5678   20.5805 H   0  0  0  0  0  0
  -26.8268  -30.8970   21.9662 H   0  0  0  0  0  0
  -28.0984  -29.0553   21.1848 H   0  0  0  0  0  0
  -26.0278  -25.9341   19.0387 H   0  0  0  0  0  0
  -23.9752  -27.2803   19.0539 H   0  0  0  0  0  0
  -23.7123  -30.5835   19.4100 H   0  0  0  0  0  0
  -22.7380  -29.2243   19.8723 H   0  0  0  0  0  0
  -25.1277  -36.1906   25.0812 H   0  0  0  0  0  0
  -20.9864  -28.3196   24.1451 H   0  0  0  0  0  0
  -20.5592  -26.2173   23.3573 H   0  0  0  0  0  0
  -21.6639  -26.7306   22.1254 H   0  0  0  0  0  0
  -19.6909  -25.6264   21.1195 H   0  0  0  0  0  0
  -19.6769  -27.3164   20.6688 H   0  0  0  0  0  0
  -17.4180  -26.6619   21.3924 H   0  0  0  0  0  0
  -18.0308  -25.9949   22.8857 H   0  0  0  0  0  0
  -19.7936  -30.7182   24.2249 H   0  0  0  0  0  0
  -17.5038  -31.6212   24.5120 H   0  0  0  0  0  0
  -15.5364  -30.2949   23.7679 H   0  0  0  0  0  0
  -15.8623  -28.0804   22.7064 H   0  0  0  0  0  0
  -24.6155  -30.6559   25.7866 H   0  0  0  0  0  0
  -24.8526  -32.2537   26.4734 H   0  0  0  0  0  0
  -25.8157  -30.8982   27.0325 H   0  0  0  0  0  0
  -26.2850  -29.6805   24.1130 H   0  0  0  0  0  0
  -27.4250  -29.7288   25.4396 H   0  0  0  0  0  0
  -27.8565  -30.4462   23.9046 H   0  0  0  0  0  0
  -27.2793  -33.3713   26.1843 H   0  0  0  0  0  0
  -28.3983  -32.6593   25.0366 H   0  0  0  0  0  0
  -28.0524  -31.8472   26.5566 H   0  0  0  0  0  0
  -28.2517  -38.0108   24.7578 H   0  0  0  0  0  0
  -28.1126  -36.2691   24.6212 H   0  0  0  0  0  0
  -27.2239  -37.1364   25.8813 H   0  0  0  0  0  0
  -20.9235  -29.8802   21.7048 H   0  0  0  0  0  0
  -26.0123  -38.2851   24.1548 H   0  0  0  0  0  0
  -28.4875  -20.5104   22.2446 H   0  0  0  0  0  0
  -28.0923  -16.3290   23.0831 H   0  0  0  0  0  0
  -30.8198  -17.6489   19.9906 H   0  0  0  0  0  0
  -29.5861  -20.1416   15.2944 H   0  0  0  0  0  0
  -27.9902  -19.5218   15.6898 H   0  0  0  0  0  0
  -27.2509  -21.7420   15.3638 H   0  0  0  0  0  0
  -28.9152  -22.3167   15.3856 H   0  0  0  0  0  0
  -30.1293  -19.5077   17.5127 H   0  0  0  0  0  0
  -28.4324  -19.4364   17.9638 H   0  0  0  0  0  0
  -27.1254  -21.7706   17.7773 H   0  0  0  0  0  0
  -28.0722  -23.2207   17.4477 H   0  0  0  0  0  0
  -30.1704  -21.9103   17.7235 H   0  0  0  0  0  0
  -27.3156  -19.8061   24.2091 H   0  0  0  0  0  0
  -27.4055  -18.1464   24.7643 H   0  0  0  0  0  0
  -26.1865  -18.6103   23.5705 H   0  0  0  0  0  0
  -31.0142  -20.1429   19.5417 H   0  0  0  0  0  0
  -30.8667  -20.9474   21.0470 H   0  0  0  0  0  0
  -28.1529  -24.2790   21.1962 H   0  0  0  0  0  0
  -27.4280  -23.5795   19.7863 H   0  0  0  0  0  0
  -28.0554  -25.4332   18.4515 H   0  0  0  0  0  0
  -29.6421  -25.4228   19.0758 H   0  0  0  0  0  0
  -28.2554  -21.2575   20.0019 H   0  0  0  0  0  0
  -29.1428  -14.8124   21.9316 H   0  0  0  0  0  0
  1 25  1  0  0  0
  1 30  2  0  0  0
  1 88  1  0  0  0
  2  3  1  0  0  0
  2 25  1  0  0  0
  2 90  1  0  0  0
  2 91  1  0  0  0
  3  4  1  0  0  0
  3 92  1  0  0  0
  3 93  1  0  0  0
  4  5  1  0  0  0
  4 94  1  0  0  0
  4 95  1  0  0  0
  5  6  1  0  0  0
  5 26  1  0  0  0
  5 96  1  0  0  0
  6 25  1  0  0  0
  6 97  1  0  0  0
  6 98  1  0  0  0
  7  8  2  0  0  0
  7 26  1  0  0  0
  7 29  1  0  0  0
  8  9  1  0  0  0
  8 22  1  0  0  0
  9 10  1  0  0  0
  9 27  2  0  0  0
 10 11  2  0  0  0
 10 15  1  0  0  0
 11 12  1  0  0  0
 11 99  1  0  0  0
 12 13  2  0  0  0
 12100  1  0  0  0
 13 14  1  0  0  0
 13 31  1  0  0  0
 14 15  2  0  0  0
 14101  1  0  0  0
 15102  1  0  0  0
 16 17  2  0  0  0
 16 21  1  0  0  0
 16 31  1  0  0  0
 17 18  1  0  0  0
 17103  1  0  0  0
 18 19  2  0  0  0
 18104  1  0  0  0
 19 20  1  0  0  0
 19 24  1  0  0  0
 20 21  2  0  0  0
 20105  1  0  0  0
 21 23  1  0  0  0
 22 28  1  0  0  0
 22 32  2  0  0  0
 26 27  1  0  0  0
 28106  1  0  0  0
 28107  1  0  0  0
 29108  1  0  0  0
 29109  1  0  0  0
 33 34  1  0  0  0
 33 66  1  0  0  0
 33 70  2  0  0  0
 34 36  1  0  0  0
 34 59  1  0  0  0
 34110  1  0  0  0
 35 44  2  0  0  0
 35 45  1  0  0  0
 35 68  1  0  0  0
 36 56  1  0  0  0
 36111  1  0  0  0
 37 39  1  0  0  0
 37 47  1  0  0  0
 37 66  1  0  0  0
 37112  1  0  0  0
 38 43  2  0  0  0
 38 46  1  0  0  0
 38 47  1  0  0  0
 39 64  1  0  0  0
 39 67  2  0  0  0
 40 52  1  0  0  0
 40 53  2  0  0  0
 40 58  1  0  0  0
 41113  1  0  0  0
 41114  1  0  0  0
 41115  1  0  0  0
 41 48  1  0  0  0
 42 43  1  0  0  0
 42 66  1  0  0  0
 42116  1  0  0  0
 42117  1  0  0  0
 43 44  1  0  0  0
 44118  1  0  0  0
 45 46  2  0  0  0
 45119  1  0  0  0
 46120  1  0  0  0
 47121  1  0  0  0
 47122  1  0  0  0
 48 56  1  0  0  0
 48 65  1  0  0  0
 48123  1  0  0  0
 49 50  1  0  0  0
 49 53  1  0  0  0
 49 64  1  0  0  0
 49124  1  0  0  0
 50 51  1  0  0  0
 50125  1  0  0  0
 50126  1  0  0  0
 51 52  1  0  0  0
 51127  1  0  0  0
 51128  1  0  0  0
 52129  1  0  0  0
 52130  1  0  0  0
 53 54  1  0  0  0
 54 55  2  0  0  0
 54131  1  0  0  0
 55 57  1  0  0  0
 55132  1  0  0  0
 56 69  2  0  0  0
 57 58  2  0  0  0
 57133  1  0  0  0
 58134  1  0  0  0
 59 60  1  0  0  0
 59 61  1  0  0  0
 59 62  1  0  0  0
 60135  1  0  0  0
 60136  1  0  0  0
 60137  1  0  0  0
 61138  1  0  0  0
 61139  1  0  0  0
 61140  1  0  0  0
 62141  1  0  0  0
 62142  1  0  0  0
 62143  1  0  0  0
 63 65  1  0  0  0
 63144  1  0  0  0
 63145  1  0  0  0
 63146  1  0  0  0
 64147  1  0  0  0
 65148  1  0  0  0
 68 86  1  0  0  0
 71 74  2  0  0  0
 71 75  1  0  0  0
 71149  1  0  0  0
 72 74  1  0  0  0
 72 76  2  0  0  0
 72150  1  0  0  0
 73 75  2  0  0  0
 73 76  1  0  0  0
 73151  1  0  0  0
 74 83  1  0  0  0
 75 84  1  0  0  0
 76 88  1  0  0  0
 77 85  1  0  0  0
 77 87  1  0  0  0
 77 89  2  0  0  0
 78 79  1  0  0  0
 78 80  1  0  0  0
 78152  1  0  0  0
 78153  1  0  0  0
 79 81  1  0  0  0
 79154  1  0  0  0
 79155  1  0  0  0
 80156  1  0  0  0
 80157  1  0  0  0
 80 82  1  0  0  0
 81 82  1  0  0  0
 81158  1  0  0  0
 81159  1  0  0  0
 82 87  1  0  0  0
 82160  1  0  0  0
 83161  1  0  0  0
 83162  1  0  0  0
 83163  1  0  0  0
 84164  1  0  0  0
 84165  1  0  0  0
 84 87  1  0  0  0
 85 86  1  0  0  0
 85166  1  0  0  0
 85167  1  0  0  0
 86168  1  0  0  0
 86169  1  0  0  0
 87170  1  0  0  0
 88171  1  0  0  0
M  ISO  4   1 100  68 101  86 101  88 100
M  END
> <chiral flag>
0

> <version>
0

> <s_m_source_file>
/data/baiqing/PycharmProjects/Reinvent-master-3.2/result/LINK_invent/BTK/process_docking_weight1_custom_product_contain_oxygen_bond_distance_aromatic_linkinvent_7_9_3/rearranged_h_0138.sdf

> <i_m_source_file_index>
39

> <r_mmod_Potential_Energy-OPLS-2005>
123.615562438965

> <r_mmod_Stretch_Energy-OPLS-2005>
65.5824203491211

> <r_mmod_Bend_Energy-OPLS-2005>
186.233169555664

> <r_mmod_Torsional_Energy-OPLS-2005>
271.405487060547

> <r_mmod_Improper_Torsional_Energy-OPLS-2005>
3.13421511650085

> <r_mmod_Van_der_Waal_Energy-OPLS-2005>
138.140884399414

> <r_mmod_Electrostatic_Energy-OPLS-2005>
-356.244598388672

> <r_mmod_Solvation_Energy-OPLS-2005>
-215.007858276367

> <b_mmod_Minimization_Converged-OPLS-2005>
0

> <r_mmod_RMS_Derivative-OPLS-2005>
5.84722661972046

$$$$
39
                    3D
 Structure written by MMmdl.
160169  0  0  1  0            999 V2000
  -30.6234  -14.7161   20.4260 C   0  0  0  0  0  0
  -30.4390  -12.4362   19.4304 C   0  0  0  0  0  0
  -29.4982  -12.4819   18.2092 C   0  0  0  0  0  0
  -28.0358  -12.2827   18.6533 C   0  0  0  0  0  0
  -27.6395  -13.2139   19.8310 C   0  0  2  0  0  0
  -28.6943  -13.1709   20.9569 C   0  0  0  0  0  0
  -25.2579  -13.8175   20.5757 C   0  0  0  0  0  0
  -24.1819  -13.0452   20.9231 C   0  0  0  0  0  0
  -24.6395  -11.6921   20.8773 C   0  0  0  0  0  0
  -23.9077  -10.4290   21.0405 C   0  0  0  0  0  0
  -24.3621   -9.4218   21.9185 C   0  0  0  0  0  0
  -23.6293   -8.2241   22.0739 C   0  0  0  0  0  0
  -22.4275   -8.0274   21.3535 C   0  0  0  0  0  0
  -21.9920   -9.0259   20.4644 C   0  0  0  0  0  0
  -22.7244  -10.2145   20.3060 C   0  0  0  0  0  0
  -21.6865   -6.0729   22.5292 C   0  0  0  0  0  0
  -21.4024   -6.5654   23.8229 C   0  0  0  0  0  0
  -21.3665   -5.6802   24.9190 C   0  0  0  0  0  0
  -21.6035   -4.3047   24.7223 C   0  0  0  0  0  0
  -21.8818   -3.8143   23.4351 C   0  0  0  0  0  0
  -21.9225   -4.6958   22.3406 C   0  0  0  0  0  0
  -22.7850  -13.5268   21.1866 C   0  0  0  0  0  0
  -22.1647   -4.2188   21.0977 F   0  0  0  0  0  0
  -21.5652   -3.4527   25.7714 F   0  0  0  0  0  0
  -29.9897  -13.5011   20.3474 N   0  0  0  0  0  0
  -26.2957  -12.9345   20.3259 N   0  0  0  0  0  0
  -25.9319  -11.6526   20.5766 N   0  0  0  0  0  0
  -22.0421  -12.8300   22.0389 N   0  0  0  0  0  0
  -25.4419  -15.1903   20.4297 N   0  0  0  0  0  0
  -31.8421  -14.7968   20.2657 O   0  0  0  0  0  0
  -21.6651   -6.8860   21.4235 O   0  0  0  0  0  0
  -22.3553  -14.5570   20.6669 O   0  0  0  0  0  0
  -24.6254  -31.8569   23.1931 C   0  0  0  0  0  0
  -25.9074  -32.4779   23.8286 C   0  0  1  0  0  0
  -27.2137  -27.2730   20.1461 C   0  0  0  0  0  0
  -25.5882  -33.8588   24.2198 N   0  0  0  0  0  0
  -23.4182  -30.4742   21.5429 C   0  0  2  0  0  0
  -24.8697  -28.9181   20.1139 C   0  0  0  0  0  0
  -22.7469  -29.4574   22.4955 C   0  0  0  0  0  0
  -18.0284  -28.1354   22.8477 C   0  0  0  0  0  0
  -24.1491  -36.7289   23.2622 C   0  0  0  0  0  0
  -25.9601  -30.7813   21.3623 C   0  0  0  0  0  0
  -26.0411  -29.3973   20.7188 C   0  0  0  0  0  0
  -27.2193  -28.5878   20.7177 C   0  0  0  0  0  0
  -26.0215  -26.8503   19.5219 C   0  0  0  0  0  0
  -24.8651  -27.6539   19.5039 C   0  0  0  0  0  0
  -23.6324  -29.8005   20.1619 C   0  0  0  0  0  0
  -25.4119  -36.3087   24.0303 C   0  0  1  0  0  0
  -20.5887  -28.3642   23.1313 C   0  0  2  0  0  0
  -20.6787  -26.9377   22.5423 C   0  0  0  0  0  0
  -19.5757  -26.6374   21.5228 C   0  0  0  0  0  0
  -18.1926  -26.7907   22.1619 C   0  0  0  0  0  0
  -19.1528  -28.8809   23.2895 C   0  0  0  0  0  0
  -18.9445  -30.1421   23.8898 C   0  0  0  0  0  0
  -17.6447  -30.6570   24.0540 C   0  0  0  0  0  0
  -25.9060  -34.9464   23.5060 C   0  0  0  0  0  0
  -16.5345  -29.9056   23.6320 C   0  0  0  0  0  0
  -16.7272  -28.6473   23.0338 C   0  0  0  0  0  0
  -26.4442  -31.6591   25.0661 C   0  0  0  0  0  0
  -25.3651  -31.3774   26.1373 C   0  0  0  0  0  0
  -27.0234  -30.3000   24.6099 C   0  0  0  0  0  0
  -27.5989  -32.4305   25.7475 C   0  0  0  0  0  0
  -27.5577  -37.1797   24.8439 C   0  0  0  0  0  0
  -21.4174  -29.3007   22.3731 N   0  0  0  0  0  0
  -26.4278  -37.3789   23.9411 N   0  0  0  0  0  0
  -24.6884  -31.0554   22.0906 N   0  0  0  0  0  0
  -23.4199  -28.8168   23.3056 O   0  0  0  0  0  0
  -28.3095  -26.3907   20.1464 O   0  0  0  0  0  0
  -26.5663  -34.8930   22.4647 O   0  0  0  0  0  0
  -23.5410  -32.1378   23.7257 O   0  0  0  0  0  0
  -29.9675  -19.7417   22.1622 C   0  0  0  0  0  0
  -29.5751  -18.4337   20.1535 C   0  0  0  0  0  0
  -30.3968  -17.3247   22.1663 C   0  0  0  0  0  0
  -29.5952  -19.7401   20.7965 C   0  0  0  0  0  0
  -30.3720  -18.5649   22.8329 C   0  0  0  0  0  0
  -29.9705  -17.2037   20.8294 C   0  0  0  0  0  0
  -28.1526  -21.3581   19.1623 C   0  0  0  0  0  0
  -27.9427  -22.9070   18.9827 C   0  0  0  0  0  0
  -29.2135  -22.4741   20.9751 C   0  0  0  0  0  0
  -29.3641  -21.1592   20.0942 C   0  0  1  0  0  0
  -28.7825  -23.6816   20.0415 C   0  0  2  0  0  0
  -30.7726  -18.6262   24.2970 C   0  0  0  0  0  0
  -28.1198  -25.0105   20.6992 C   0  0  0  0  0  0
  -29.8326  -15.8439   20.2841 N   0  0  0  0  0  0
  -31.4712  -12.5765   19.1055 H   0  0  0  0  0  0
  -30.3921  -11.4573   19.9117 H   0  0  0  0  0  0
  -29.7725  -11.7149   17.4830 H   0  0  0  0  0  0
  -29.6058  -13.4392   17.6955 H   0  0  0  0  0  0
  -27.9363  -11.2385   18.9622 H   0  0  0  0  0  0
  -27.3584  -12.4137   17.8058 H   0  0  0  0  0  0
  -27.6255  -14.2264   19.4270 H   0  0  0  0  0  0
  -28.7264  -12.1820   21.4190 H   0  0  0  0  0  0
  -28.4383  -13.8858   21.7410 H   0  0  0  0  0  0
  -25.2761   -9.5750   22.4757 H   0  0  0  0  0  0
  -24.0072   -7.4645   22.7458 H   0  0  0  0  0  0
  -21.0870   -8.8747   19.8957 H   0  0  0  0  0  0
  -22.3656  -10.9684   19.6174 H   0  0  0  0  0  0
  -21.1943   -7.6158   23.9759 H   0  0  0  0  0  0
  -21.1516   -6.0494   25.9108 H   0  0  0  0  0  0
  -22.0590   -2.7604   23.2829 H   0  0  0  0  0  0
  -22.3997  -12.0025   22.4924 H   0  0  0  0  0  0
  -21.1007  -13.1351   22.2413 H   0  0  0  0  0  0
  -24.6999  -15.8603   20.5929 H   0  0  0  0  0  0
  -26.3254  -15.6337   20.2174 H   0  0  0  0  0  0
  -26.7161  -32.5429   23.1059 H   0  0  0  0  0  0
  -24.9968  -33.9775   25.0295 H   0  0  0  0  0  0
  -22.7086  -31.2909   21.3965 H   0  0  0  0  0  0
  -23.3762  -35.9604   23.3251 H   0  0  0  0  0  0
  -24.3582  -36.8954   22.2041 H   0  0  0  0  0  0
  -23.7250  -37.6476   23.6674 H   0  0  0  0  0  0
  -26.0705  -31.5343   20.5803 H   0  0  0  0  0  0
  -26.8452  -30.8571   21.9817 H   0  0  0  0  0  0
  -28.1235  -28.9453   21.1911 H   0  0  0  0  0  0
  -25.9728  -25.8756   19.0586 H   0  0  0  0  0  0
  -23.9684  -27.2810   19.0307 H   0  0  0  0  0  0
  -23.7351  -30.5683   19.3940 H   0  0  0  0  0  0
  -22.7513  -29.2231   19.8743 H   0  0  0  0  0  0
  -25.1331  -36.1903   25.0796 H   0  0  0  0  0  0
  -20.9968  -28.3198   24.1438 H   0  0  0  0  0  0
  -20.5719  -26.2237   23.3608 H   0  0  0  0  0  0
  -21.6650  -26.7443   22.1187 H   0  0  0  0  0  0
  -19.6932  -25.6293   21.1229 H   0  0  0  0  0  0
  -19.6717  -27.3215   20.6782 H   0  0  0  0  0  0
  -17.4227  -26.6647   21.4000 H   0  0  0  0  0  0
  -18.0306  -26.0045   22.8999 H   0  0  0  0  0  0
  -19.7924  -30.7247   24.2272 H   0  0  0  0  0  0
  -17.4991  -31.6275   24.5092 H   0  0  0  0  0  0
  -15.5331  -30.2948   23.7648 H   0  0  0  0  0  0
  -15.8655  -28.0802   22.7030 H   0  0  0  0  0  0
  -24.5810  -30.7164   25.7671 H   0  0  0  0  0  0
  -24.8871  -32.2977   26.4743 H   0  0  0  0  0  0
  -25.7933  -30.8958   27.0173 H   0  0  0  0  0  0
  -26.2795  -29.6838   24.1044 H   0  0  0  0  0  0
  -27.3820  -29.7196   25.4603 H   0  0  0  0  0  0
  -27.8709  -30.4253   23.9364 H   0  0  0  0  0  0
  -27.2555  -33.3533   26.2162 H   0  0  0  0  0  0
  -28.3767  -32.6986   25.0317 H   0  0  0  0  0  0
  -28.0685  -31.8359   26.5321 H   0  0  0  0  0  0
  -28.2563  -38.0123   24.7533 H   0  0  0  0  0  0
  -28.1115  -36.2665   24.6210 H   0  0  0  0  0  0
  -27.2298  -37.1374   25.8836 H   0  0  0  0  0  0
  -20.9327  -29.8736   21.6971 H   0  0  0  0  0  0
  -26.0140  -38.2836   24.1477 H   0  0  0  0  0  0
  -29.9757  -20.6652   22.7184 H   0  0  0  0  0  0
  -29.2666  -18.3751   19.1182 H   0  0  0  0  0  0
  -30.7014  -16.4431   22.7128 H   0  0  0  0  0  0
  -28.2778  -20.8505   18.2016 H   0  0  0  0  0  0
  -27.2658  -20.9325   19.6347 H   0  0  0  0  0  0
  -26.8788  -23.1487   19.0449 H   0  0  0  0  0  0
  -28.2577  -23.2168   17.9848 H   0  0  0  0  0  0
  -30.1337  -22.7048   21.5141 H   0  0  0  0  0  0
  -28.4432  -22.3072   21.7296 H   0  0  0  0  0  0
  -30.2506  -21.3006   19.4712 H   0  0  0  0  0  0
  -29.7038  -24.0053   19.5538 H   0  0  0  0  0  0
  -31.5618  -19.3616   24.4658 H   0  0  0  0  0  0
  -31.1450  -17.6630   24.6458 H   0  0  0  0  0  0
  -29.9124  -18.8863   24.9160 H   0  0  0  0  0  0
  -28.5618  -25.0858   21.6931 H   0  0  0  0  0  0
  -27.0642  -24.8213   20.9068 H   0  0  0  0  0  0
  -28.9375  -15.6544   19.8686 H   0  0  0  0  0  0
  1 25  1  0  0  0
  1 30  2  0  0  0
  1 84  1  0  0  0
  2  3  1  0  0  0
  2 25  1  0  0  0
  2 85  1  0  0  0
  2 86  1  0  0  0
  3  4  1  0  0  0
  3 87  1  0  0  0
  3 88  1  0  0  0
  4  5  1  0  0  0
  4 89  1  0  0  0
  4 90  1  0  0  0
  5  6  1  0  0  0
  5 26  1  0  0  0
  5 91  1  0  0  0
  6 25  1  0  0  0
  6 92  1  0  0  0
  6 93  1  0  0  0
  7  8  2  0  0  0
  7 26  1  0  0  0
  7 29  1  0  0  0
  8  9  1  0  0  0
  8 22  1  0  0  0
  9 10  1  0  0  0
  9 27  2  0  0  0
 10 11  2  0  0  0
 10 15  1  0  0  0
 11 12  1  0  0  0
 11 94  1  0  0  0
 12 13  2  0  0  0
 12 95  1  0  0  0
 13 14  1  0  0  0
 13 31  1  0  0  0
 14 15  2  0  0  0
 14 96  1  0  0  0
 15 97  1  0  0  0
 16 17  2  0  0  0
 16 21  1  0  0  0
 16 31  1  0  0  0
 17 18  1  0  0  0
 17 98  1  0  0  0
 18 19  2  0  0  0
 18 99  1  0  0  0
 19 20  1  0  0  0
 19 24  1  0  0  0
 20 21  2  0  0  0
 20100  1  0  0  0
 21 23  1  0  0  0
 22 28  1  0  0  0
 22 32  2  0  0  0
 26 27  1  0  0  0
 28101  1  0  0  0
 28102  1  0  0  0
 29103  1  0  0  0
 29104  1  0  0  0
 33 34  1  0  0  0
 33 66  1  0  0  0
 33 70  2  0  0  0
 34 36  1  0  0  0
 34 59  1  0  0  0
 34105  1  0  0  0
 35 44  2  0  0  0
 35 45  1  0  0  0
 35 68  1  0  0  0
 36 56  1  0  0  0
 36106  1  0  0  0
 37 39  1  0  0  0
 37 47  1  0  0  0
 37 66  1  0  0  0
 37107  1  0  0  0
 38 43  2  0  0  0
 38 46  1  0  0  0
 38 47  1  0  0  0
 39 64  1  0  0  0
 39 67  2  0  0  0
 40 52  1  0  0  0
 40 53  2  0  0  0
 40 58  1  0  0  0
 41108  1  0  0  0
 41109  1  0  0  0
 41110  1  0  0  0
 41 48  1  0  0  0
 42 43  1  0  0  0
 42 66  1  0  0  0
 42111  1  0  0  0
 42112  1  0  0  0
 43 44  1  0  0  0
 44113  1  0  0  0
 45 46  2  0  0  0
 45114  1  0  0  0
 46115  1  0  0  0
 47116  1  0  0  0
 47117  1  0  0  0
 48 56  1  0  0  0
 48 65  1  0  0  0
 48118  1  0  0  0
 49 50  1  0  0  0
 49 53  1  0  0  0
 49 64  1  0  0  0
 49119  1  0  0  0
 50 51  1  0  0  0
 50120  1  0  0  0
 50121  1  0  0  0
 51 52  1  0  0  0
 51122  1  0  0  0
 51123  1  0  0  0
 52124  1  0  0  0
 52125  1  0  0  0
 53 54  1  0  0  0
 54 55  2  0  0  0
 54126  1  0  0  0
 55 57  1  0  0  0
 55127  1  0  0  0
 56 69  2  0  0  0
 57 58  2  0  0  0
 57128  1  0  0  0
 58129  1  0  0  0
 59 60  1  0  0  0
 59 61  1  0  0  0
 59 62  1  0  0  0
 60130  1  0  0  0
 60131  1  0  0  0
 60132  1  0  0  0
 61133  1  0  0  0
 61134  1  0  0  0
 61135  1  0  0  0
 62136  1  0  0  0
 62137  1  0  0  0
 62138  1  0  0  0
 63 65  1  0  0  0
 63139  1  0  0  0
 63140  1  0  0  0
 63141  1  0  0  0
 64142  1  0  0  0
 65143  1  0  0  0
 68 83  1  0  0  0
 71 74  2  0  0  0
 71 75  1  0  0  0
 71144  1  0  0  0
 72 74  1  0  0  0
 72 76  2  0  0  0
 72145  1  0  0  0
 73 75  2  0  0  0
 73 76  1  0  0  0
 73146  1  0  0  0
 74 80  1  0  0  0
 75 82  1  0  0  0
 76 84  1  0  0  0
 77 78  1  0  0  0
 77 80  1  0  0  0
 77147  1  0  0  0
 77148  1  0  0  0
 78 81  1  0  0  0
 78149  1  0  0  0
 78150  1  0  0  0
 79 80  1  0  0  0
 79 81  1  0  0  0
 79151  1  0  0  0
 79152  1  0  0  0
 80153  1  0  0  0
 81 83  1  0  0  0
 81154  1  0  0  0
 82155  1  0  0  0
 82156  1  0  0  0
 82157  1  0  0  0
 83158  1  0  0  0
 83159  1  0  0  0
 84160  1  0  0  0
M  ISO  4   1 100  68 101  83 101  84 100
M  END
> <chiral flag>
0

> <version>
0

> <s_m_source_file>
/data/baiqing/PycharmProjects/Reinvent-master-3.2/result/LINK_invent/BTK/process_docking_weight1_custom_product_contain_oxygen_bond_distance_aromatic_linkinvent_7_9_3/rearranged_h_0138.sdf

> <i_m_source_file_index>
40

> <r_mmod_Potential_Energy-OPLS-2005>
271.968109130859

> <r_mmod_Stretch_Energy-OPLS-2005>
107.752372741699

> <r_mmod_Bend_Energy-OPLS-2005>
184.620178222656

> <r_mmod_Torsional_Energy-OPLS-2005>
317.562530517578

> <r_mmod_Improper_Torsional_Energy-OPLS-2005>
11.7376461029053

> <r_mmod_Van_der_Waal_Energy-OPLS-2005>
128.578918457031

> <r_mmod_Electrostatic_Energy-OPLS-2005>
-359.362274169922

> <r_mmod_Solvation_Energy-OPLS-2005>
-201.623779296875

> <b_mmod_Minimization_Converged-OPLS-2005>
0

> <r_mmod_RMS_Derivative-OPLS-2005>
5.76272106170654

$$$$
40
                    3D
 Structure written by MMmdl.
162170  0  0  1  0            999 V2000
  -30.5332  -14.8696   20.4531 C   0  0  0  0  0  0
  -30.4616  -12.5367   19.4932 C   0  0  0  0  0  0
  -29.5347  -12.5185   18.2552 C   0  0  0  0  0  0
  -28.0611  -12.3193   18.6654 C   0  0  0  0  0  0
  -27.6439  -13.2324   19.8480 C   0  0  2  0  0  0
  -28.6869  -13.1906   20.9851 C   0  0  0  0  0  0
  -25.2513  -13.8178   20.5663 C   0  0  0  0  0  0
  -24.1818  -13.0422   20.9217 C   0  0  0  0  0  0
  -24.6411  -11.6900   20.8748 C   0  0  0  0  0  0
  -23.9081  -10.4274   21.0394 C   0  0  0  0  0  0
  -24.3624   -9.4189   21.9176 C   0  0  0  0  0  0
  -23.6295   -8.2224   22.0748 C   0  0  0  0  0  0
  -22.4275   -8.0265   21.3533 C   0  0  0  0  0  0
  -21.9910   -9.0242   20.4633 C   0  0  0  0  0  0
  -22.7251  -10.2115   20.3045 C   0  0  0  0  0  0
  -21.6847   -6.0731   22.5275 C   0  0  0  0  0  0
  -21.4013   -6.5633   23.8214 C   0  0  0  0  0  0
  -21.3660   -5.6781   24.9175 C   0  0  0  0  0  0
  -21.6048   -4.3045   24.7220 C   0  0  0  0  0  0
  -21.8826   -3.8140   23.4340 C   0  0  0  0  0  0
  -21.9195   -4.6958   22.3398 C   0  0  0  0  0  0
  -22.7830  -13.5189   21.1886 C   0  0  0  0  0  0
  -22.1663   -4.2144   21.0975 F   0  0  0  0  0  0
  -21.5635   -3.4529   25.7736 F   0  0  0  0  0  0
  -29.9767  -13.5981   20.4100 N   0  0  0  0  0  0
  -26.2942  -12.9384   20.3226 N   0  0  0  0  0  0
  -25.9340  -11.6524   20.5725 N   0  0  0  0  0  0
  -22.0486  -12.8162   22.0436 N   0  0  0  0  0  0
  -25.4173  -15.1895   20.4018 N   0  0  0  0  0  0
  -31.7196  -15.0092   20.1394 O   0  0  0  0  0  0
  -21.6634   -6.8863   21.4232 O   0  0  0  0  0  0
  -22.3498  -14.5491   20.6737 O   0  0  0  0  0  0
  -24.6375  -31.8484   23.1932 C   0  0  0  0  0  0
  -25.9166  -32.4711   23.8286 C   0  0  1  0  0  0
  -27.2180  -27.1892   20.1333 C   0  0  0  0  0  0
  -25.5941  -33.8515   24.2211 N   0  0  0  0  0  0
  -23.4393  -30.4708   21.5359 C   0  0  2  0  0  0
  -24.8878  -28.9096   20.1041 C   0  0  0  0  0  0
  -22.7545  -29.4561   22.4847 C   0  0  0  0  0  0
  -18.0317  -28.1389   22.8466 C   0  0  0  0  0  0
  -24.1525  -36.7269   23.2644 C   0  0  0  0  0  0
  -25.9913  -30.7340   21.3901 C   0  0  0  0  0  0
  -26.0603  -29.3525   20.7286 C   0  0  0  0  0  0
  -27.2219  -28.5023   20.7373 C   0  0  0  0  0  0
  -26.0259  -26.8461   19.4552 C   0  0  0  0  0  0
  -24.8802  -27.6672   19.4562 C   0  0  0  0  0  0
  -23.6627  -29.8046   20.1536 C   0  0  0  0  0  0
  -25.4139  -36.3027   24.0328 C   0  0  1  0  0  0
  -20.5924  -28.3702   23.1232 C   0  0  2  0  0  0
  -20.6809  -26.9408   22.5387 C   0  0  0  0  0  0
  -19.5780  -26.6365   21.5203 C   0  0  0  0  0  0
  -18.1954  -26.7926   22.1609 C   0  0  0  0  0  0
  -19.1572  -28.8856   23.2846 C   0  0  0  0  0  0
  -18.9488  -30.1459   23.8853 C   0  0  0  0  0  0
  -17.6484  -30.6572   24.0567 C   0  0  0  0  0  0
  -25.9069  -34.9402   23.5070 C   0  0  0  0  0  0
  -16.5370  -29.9069   23.6342 C   0  0  0  0  0  0
  -16.7303  -28.6504   23.0337 C   0  0  0  0  0  0
  -26.4510  -31.6553   25.0696 C   0  0  0  0  0  0
  -25.3709  -31.3728   26.1408 C   0  0  0  0  0  0
  -27.0392  -30.2952   24.6252 C   0  0  0  0  0  0
  -27.6050  -32.4318   25.7464 C   0  0  0  0  0  0
  -27.5602  -37.1791   24.8467 C   0  0  0  0  0  0
  -21.4239  -29.3062   22.3617 N   0  0  0  0  0  0
  -26.4308  -37.3733   23.9408 N   0  0  0  0  0  0
  -24.7086  -31.0397   22.0934 N   0  0  0  0  0  0
  -23.4218  -28.8072   23.2943 O   0  0  0  0  0  0
  -28.2959  -26.2517   20.2340 O   0  0  0  0  0  0
  -26.5657  -34.8879   22.4651 O   0  0  0  0  0  0
  -23.5507  -32.1336   23.7186 O   0  0  0  0  0  0
  -28.2077  -19.5499   20.1977 C   0  0  0  0  0  0
  -28.3778  -18.1257   20.3492 C   0  0  0  0  0  0
  -30.7076  -18.4133   20.6201 C   0  0  0  0  0  0
  -29.2698  -20.5025   20.2337 C   0  0  0  0  0  0
  -30.5424  -19.8597   20.4868 C   0  0  0  0  0  0
  -29.6342  -17.4640   20.5320 C   0  0  0  0  0  0
  -32.2690  -20.8230   22.0762 C   0  0  0  0  0  0
  -27.8810  -23.1742   21.7549 C   0  0  0  0  0  0
  -30.1981  -23.8910   21.1431 C   0  0  0  0  0  0
  -29.0328  -22.0493   19.7308 C   0  0  0  0  0  0
  -31.7975  -20.7131   20.6194 C   0  0  0  0  0  0
  -28.2162  -24.7837   19.7819 C   0  0  0  0  0  0
  -28.8316  -23.4637   20.5838 C   0  0  0  0  0  0
  -29.6601  -15.9504   20.6793 N   0  0  0  0  0  0
  -31.4935  -12.7083   19.1852 H   0  0  0  0  0  0
  -30.4590  -11.5708   19.9997 H   0  0  0  0  0  0
  -29.8422  -11.7266   17.5715 H   0  0  0  0  0  0
  -29.6388  -13.4544   17.7056 H   0  0  0  0  0  0
  -27.9385  -11.2738   18.9520 H   0  0  0  0  0  0
  -27.4028  -12.4790   17.8108 H   0  0  0  0  0  0
  -27.6295  -14.2479   19.4513 H   0  0  0  0  0  0
  -28.7516  -12.1876   21.4096 H   0  0  0  0  0  0
  -28.3936  -13.8486   21.8045 H   0  0  0  0  0  0
  -25.2780   -9.5652   22.4736 H   0  0  0  0  0  0
  -24.0008   -7.4606   22.7458 H   0  0  0  0  0  0
  -21.0849   -8.8754   19.8927 H   0  0  0  0  0  0
  -22.3724  -10.9644   19.6137 H   0  0  0  0  0  0
  -21.2001   -7.6140   23.9713 H   0  0  0  0  0  0
  -21.1480   -6.0511   25.9075 H   0  0  0  0  0  0
  -22.0608   -2.7601   23.2845 H   0  0  0  0  0  0
  -22.4128  -11.9833   22.4816 H   0  0  0  0  0  0
  -21.1087  -13.1129   22.2650 H   0  0  0  0  0  0
  -24.6359  -15.8305   20.4856 H   0  0  0  0  0  0
  -26.2308  -15.6099   19.9744 H   0  0  0  0  0  0
  -26.7235  -32.5309   23.1012 H   0  0  0  0  0  0
  -25.0047  -33.9623   25.0338 H   0  0  0  0  0  0
  -22.7380  -31.2938   21.3846 H   0  0  0  0  0  0
  -23.3763  -35.9623   23.3287 H   0  0  0  0  0  0
  -24.3613  -36.8911   22.2058 H   0  0  0  0  0  0
  -23.7311  -37.6477   23.6693 H   0  0  0  0  0  0
  -26.1510  -31.4942   20.6242 H   0  0  0  0  0  0
  -26.8588  -30.7748   22.0352 H   0  0  0  0  0  0
  -28.1115  -28.8281   21.2590 H   0  0  0  0  0  0
  -25.9314  -25.9171   18.9187 H   0  0  0  0  0  0
  -23.9903  -27.3290   18.9425 H   0  0  0  0  0  0
  -23.7952  -30.5835   19.4021 H   0  0  0  0  0  0
  -22.7796  -29.2434   19.8409 H   0  0  0  0  0  0
  -25.1329  -36.1856   25.0820 H   0  0  0  0  0  0
  -21.0024  -28.3301   24.1357 H   0  0  0  0  0  0
  -20.5746  -26.2294   23.3593 H   0  0  0  0  0  0
  -21.6664  -26.7448   22.1147 H   0  0  0  0  0  0
  -19.6941  -25.6270   21.1253 H   0  0  0  0  0  0
  -19.6738  -27.3153   20.6710 H   0  0  0  0  0  0
  -17.4234  -26.6683   21.3998 H   0  0  0  0  0  0
  -18.0352  -26.0059   22.8992 H   0  0  0  0  0  0
  -19.7971  -30.7300   24.2175 H   0  0  0  0  0  0
  -17.5049  -31.6261   24.5174 H   0  0  0  0  0  0
  -15.5372  -30.2966   23.7703 H   0  0  0  0  0  0
  -15.8696  -28.0839   22.7029 H   0  0  0  0  0  0
  -24.5901  -30.7057   25.7747 H   0  0  0  0  0  0
  -24.8862  -32.2891   26.4773 H   0  0  0  0  0  0
  -25.7999  -30.8968   27.0231 H   0  0  0  0  0  0
  -26.3010  -29.6639   24.1288 H   0  0  0  0  0  0
  -27.4054  -29.7280   25.4821 H   0  0  0  0  0  0
  -27.8899  -30.4194   23.9534 H   0  0  0  0  0  0
  -27.2662  -33.3645   26.1987 H   0  0  0  0  0  0
  -28.3879  -32.6811   25.0289 H   0  0  0  0  0  0
  -28.0697  -31.8463   26.5405 H   0  0  0  0  0  0
  -28.2576  -38.0135   24.7508 H   0  0  0  0  0  0
  -28.1136  -36.2634   24.6297 H   0  0  0  0  0  0
  -27.2296  -37.1425   25.8869 H   0  0  0  0  0  0
  -20.9418  -29.8866   21.6894 H   0  0  0  0  0  0
  -26.0172  -38.2802   24.1411 H   0  0  0  0  0  0
  -27.2096  -19.9143   19.9955 H   0  0  0  0  0  0
  -27.4841  -17.5214   20.2884 H   0  0  0  0  0  0
  -31.7026  -18.0305   20.8056 H   0  0  0  0  0  0
  -33.1073  -21.5162   22.1648 H   0  0  0  0  0  0
  -32.6014  -19.8582   22.4580 H   0  0  0  0  0  0
  -31.4726  -21.1814   22.7296 H   0  0  0  0  0  0
  -28.2670  -22.3857   22.3998 H   0  0  0  0  0  0
  -26.9079  -22.8483   21.3850 H   0  0  0  0  0  0
  -27.7178  -24.0621   22.3677 H   0  0  0  0  0  0
  -30.5912  -23.1537   21.8399 H   0  0  0  0  0  0
  -30.1312  -24.8390   21.6807 H   0  0  0  0  0  0
  -30.9298  -24.0179   20.3465 H   0  0  0  0  0  0
  -28.1304  -21.9768   19.1210 H   0  0  0  0  0  0
  -29.8053  -22.2351   18.9844 H   0  0  0  0  0  0
  -31.6336  -21.7104   20.2153 H   0  0  0  0  0  0
  -32.5967  -20.2895   20.0109 H   0  0  0  0  0  0
  -28.6673  -24.7863   18.7892 H   0  0  0  0  0  0
  -27.1824  -24.5036   19.6057 H   0  0  0  0  0  0
  -28.7444  -15.5794   20.8783 H   0  0  0  0  0  0
  1 25  1  0  0  0
  1 30  2  0  0  0
  1 84  1  0  0  0
  2  3  1  0  0  0
  2 25  1  0  0  0
  2 85  1  0  0  0
  2 86  1  0  0  0
  3  4  1  0  0  0
  3 87  1  0  0  0
  3 88  1  0  0  0
  4  5  1  0  0  0
  4 89  1  0  0  0
  4 90  1  0  0  0
  5  6  1  0  0  0
  5 26  1  0  0  0
  5 91  1  0  0  0
  6 25  1  0  0  0
  6 92  1  0  0  0
  6 93  1  0  0  0
  7  8  2  0  0  0
  7 26  1  0  0  0
  7 29  1  0  0  0
  8  9  1  0  0  0
  8 22  1  0  0  0
  9 10  1  0  0  0
  9 27  2  0  0  0
 10 11  2  0  0  0
 10 15  1  0  0  0
 11 12  1  0  0  0
 11 94  1  0  0  0
 12 13  2  0  0  0
 12 95  1  0  0  0
 13 14  1  0  0  0
 13 31  1  0  0  0
 14 15  2  0  0  0
 14 96  1  0  0  0
 15 97  1  0  0  0
 16 17  2  0  0  0
 16 21  1  0  0  0
 16 31  1  0  0  0
 17 18  1  0  0  0
 17 98  1  0  0  0
 18 19  2  0  0  0
 18 99  1  0  0  0
 19 20  1  0  0  0
 19 24  1  0  0  0
 20 21  2  0  0  0
 20100  1  0  0  0
 21 23  1  0  0  0
 22 28  1  0  0  0
 22 32  2  0  0  0
 26 27  1  0  0  0
 28101  1  0  0  0
 28102  1  0  0  0
 29103  1  0  0  0
 29104  1  0  0  0
 33 34  1  0  0  0
 33 66  1  0  0  0
 33 70  2  0  0  0
 34 36  1  0  0  0
 34 59  1  0  0  0
 34105  1  0  0  0
 35 44  2  0  0  0
 35 45  1  0  0  0
 35 68  1  0  0  0
 36 56  1  0  0  0
 36106  1  0  0  0
 37 39  1  0  0  0
 37 47  1  0  0  0
 37 66  1  0  0  0
 37107  1  0  0  0
 38 43  2  0  0  0
 38 46  1  0  0  0
 38 47  1  0  0  0
 39 64  1  0  0  0
 39 67  2  0  0  0
 40 52  1  0  0  0
 40 53  2  0  0  0
 40 58  1  0  0  0
 41108  1  0  0  0
 41109  1  0  0  0
 41110  1  0  0  0
 41 48  1  0  0  0
 42 43  1  0  0  0
 42 66  1  0  0  0
 42111  1  0  0  0
 42112  1  0  0  0
 43 44  1  0  0  0
 44113  1  0  0  0
 45 46  2  0  0  0
 45114  1  0  0  0
 46115  1  0  0  0
 47116  1  0  0  0
 47117  1  0  0  0
 48 56  1  0  0  0
 48 65  1  0  0  0
 48118  1  0  0  0
 49 50  1  0  0  0
 49 53  1  0  0  0
 49 64  1  0  0  0
 49119  1  0  0  0
 50 51  1  0  0  0
 50120  1  0  0  0
 50121  1  0  0  0
 51 52  1  0  0  0
 51122  1  0  0  0
 51123  1  0  0  0
 52124  1  0  0  0
 52125  1  0  0  0
 53 54  1  0  0  0
 54 55  2  0  0  0
 54126  1  0  0  0
 55 57  1  0  0  0
 55127  1  0  0  0
 56 69  2  0  0  0
 57 58  2  0  0  0
 57128  1  0  0  0
 58129  1  0  0  0
 59 60  1  0  0  0
 59 61  1  0  0  0
 59 62  1  0  0  0
 60130  1  0  0  0
 60131  1  0  0  0
 60132  1  0  0  0
 61133  1  0  0  0
 61134  1  0  0  0
 61135  1  0  0  0
 62136  1  0  0  0
 62137  1  0  0  0
 62138  1  0  0  0
 63 65  1  0  0  0
 63139  1  0  0  0
 63140  1  0  0  0
 63141  1  0  0  0
 64142  1  0  0  0
 65143  1  0  0  0
 68 82  1  0  0  0
 71 72  2  0  0  0
 71 74  1  0  0  0
 71144  1  0  0  0
 72 76  1  0  0  0
 72145  1  0  0  0
 73 75  1  0  0  0
 73 76  2  0  0  0
 73146  1  0  0  0
 74 75  2  0  0  0
 74 80  1  0  0  0
 75 81  1  0  0  0
 76 84  1  0  0  0
 77 81  1  0  0  0
 77147  1  0  0  0
 77148  1  0  0  0
 77149  1  0  0  0
 78150  1  0  0  0
 78151  1  0  0  0
 78152  1  0  0  0
 78 83  1  0  0  0
 79 83  1  0  0  0
 79153  1  0  0  0
 79154  1  0  0  0
 79155  1  0  0  0
 80 83  1  0  0  0
 80156  1  0  0  0
 80157  1  0  0  0
 81158  1  0  0  0
 81159  1  0  0  0
 82 83  1  0  0  0
 82160  1  0  0  0
 82161  1  0  0  0
 84162  1  0  0  0
M  ISO  4   1 100  68 101  82 101  84 100
M  END
> <chiral flag>
0

> <version>
0

> <s_m_source_file>
/data/baiqing/PycharmProjects/Reinvent-master-3.2/result/LINK_invent/BTK/process_docking_weight1_custom_product_contain_oxygen_bond_distance_aromatic_linkinvent_7_9_3/rearranged_h_0138.sdf

> <i_m_source_file_index>
41

> <r_mmod_Potential_Energy-OPLS-2005>
382.452178955078

> <r_mmod_Stretch_Energy-OPLS-2005>
192.241912841797

> <r_mmod_Bend_Energy-OPLS-2005>
250.709838867188

> <r_mmod_Torsional_Energy-OPLS-2005>
229.888519287109

> <r_mmod_Improper_Torsional_Energy-OPLS-2005>
6.76963710784912

> <r_mmod_Van_der_Waal_Energy-OPLS-2005>
129.432678222656

> <r_mmod_Electrostatic_Energy-OPLS-2005>
-372.438323974609

> <r_mmod_Solvation_Energy-OPLS-2005>
-199.213516235352

> <b_mmod_Minimization_Converged-OPLS-2005>
0

> <r_mmod_RMS_Derivative-OPLS-2005>
2.89971590042114

$$$$
41
                    3D
 Structure written by MMmdl.
157165  0  0  1  0            999 V2000
  -30.5964  -14.7593   20.5492 C   0  0  0  0  0  0
  -30.4438  -12.4780   19.4855 C   0  0  0  0  0  0
  -29.5290  -12.4884   18.2390 C   0  0  0  0  0  0
  -28.0527  -12.3016   18.6472 C   0  0  0  0  0  0
  -27.6386  -13.2222   19.8258 C   0  0  2  0  0  0
  -28.6675  -13.1612   20.9718 C   0  0  0  0  0  0
  -25.2531  -13.8185   20.5571 C   0  0  0  0  0  0
  -24.1808  -13.0438   20.9136 C   0  0  0  0  0  0
  -24.6413  -11.6915   20.8701 C   0  0  0  0  0  0
  -23.9074  -10.4298   21.0407 C   0  0  0  0  0  0
  -24.3640   -9.4205   21.9171 C   0  0  0  0  0  0
  -23.6301   -8.2254   22.0749 C   0  0  0  0  0  0
  -22.4276   -8.0304   21.3545 C   0  0  0  0  0  0
  -21.9914   -9.0274   20.4637 C   0  0  0  0  0  0
  -22.7260  -10.2144   20.3047 C   0  0  0  0  0  0
  -21.6855   -6.0758   22.5266 C   0  0  0  0  0  0
  -21.4014   -6.5639   23.8202 C   0  0  0  0  0  0
  -21.3644   -5.6785   24.9150 C   0  0  0  0  0  0
  -21.6051   -4.3047   24.7196 C   0  0  0  0  0  0
  -21.8823   -3.8152   23.4310 C   0  0  0  0  0  0
  -21.9195   -4.6985   22.3378 C   0  0  0  0  0  0
  -22.7869  -13.5230   21.1825 C   0  0  0  0  0  0
  -22.1669   -4.2177   21.0953 F   0  0  0  0  0  0
  -21.5615   -3.4521   25.7706 F   0  0  0  0  0  0
  -29.9704  -13.5349   20.4097 N   0  0  0  0  0  0
  -26.2904  -12.9364   20.3058 N   0  0  0  0  0  0
  -25.9303  -11.6518   20.5602 N   0  0  0  0  0  0
  -22.0513  -12.8220   22.0392 N   0  0  0  0  0  0
  -25.4202  -15.1900   20.4039 N   0  0  0  0  0  0
  -31.7859  -14.8746   20.2539 O   0  0  0  0  0  0
  -21.6632   -6.8907   21.4240 O   0  0  0  0  0  0
  -22.3549  -14.5554   20.6702 O   0  0  0  0  0  0
  -24.6339  -31.8489   23.1975 C   0  0  0  0  0  0
  -25.9157  -32.4723   23.8285 C   0  0  1  0  0  0
  -27.1890  -27.2430   20.1666 C   0  0  0  0  0  0
  -25.5930  -33.8509   24.2193 N   0  0  0  0  0  0
  -23.4289  -30.4729   21.5469 C   0  0  2  0  0  0
  -24.8632  -28.9182   20.1058 C   0  0  0  0  0  0
  -22.7448  -29.4510   22.4865 C   0  0  0  0  0  0
  -18.0239  -28.1275   22.8413 C   0  0  0  0  0  0
  -24.1488  -36.7320   23.2626 C   0  0  0  0  0  0
  -25.9687  -30.7619   21.3649 C   0  0  0  0  0  0
  -26.0348  -29.3808   20.7185 C   0  0  0  0  0  0
  -27.2078  -28.5656   20.7209 C   0  0  0  0  0  0
  -26.0035  -26.8385   19.5206 C   0  0  0  0  0  0
  -24.8560  -27.6580   19.4805 C   0  0  0  0  0  0
  -23.6419  -29.8222   20.1575 C   0  0  0  0  0  0
  -25.4103  -36.3025   24.0286 C   0  0  1  0  0  0
  -20.5840  -28.3599   23.1172 C   0  0  2  0  0  0
  -20.6724  -26.9302   22.5350 C   0  0  0  0  0  0
  -19.5746  -26.6280   21.5101 C   0  0  0  0  0  0
  -18.1912  -26.7781   22.1529 C   0  0  0  0  0  0
  -19.1511  -28.8733   23.2788 C   0  0  0  0  0  0
  -18.9472  -30.1307   23.8840 C   0  0  0  0  0  0
  -17.6503  -30.6509   24.0481 C   0  0  0  0  0  0
  -25.9034  -34.9411   23.5034 C   0  0  0  0  0  0
  -16.5363  -29.9013   23.6303 C   0  0  0  0  0  0
  -16.7229  -28.6415   23.0333 C   0  0  0  0  0  0
  -26.4534  -31.6565   25.0682 C   0  0  0  0  0  0
  -25.3790  -31.3760   26.1452 C   0  0  0  0  0  0
  -27.0376  -30.2985   24.6143 C   0  0  0  0  0  0
  -27.6028  -32.4350   25.7514 C   0  0  0  0  0  0
  -27.5556  -37.1797   24.8443 C   0  0  0  0  0  0
  -21.4138  -29.3002   22.3606 N   0  0  0  0  0  0
  -26.4261  -37.3731   23.9403 N   0  0  0  0  0  0
  -24.6983  -31.0433   22.0972 N   0  0  0  0  0  0
  -23.4135  -28.7991   23.2916 O   0  0  0  0  0  0
  -28.2703  -26.3444   20.1936 O   0  0  0  0  0  0
  -26.5609  -34.8908   22.4616 O   0  0  0  0  0  0
  -23.5507  -32.1288   23.7312 O   0  0  0  0  0  0
  -30.4524  -18.7391   23.1926 C   0  0  0  0  0  0
  -29.9490  -19.8684   22.5131 C   0  0  0  0  0  0
  -29.4735  -18.4506   20.6027 C   0  0  0  0  0  0
  -30.4520  -17.4516   22.6050 C   0  0  0  0  0  0
  -29.9623  -17.2501   21.2811 C   0  0  0  0  0  0
  -29.4601  -19.7863   21.1942 C   0  0  0  0  0  0
  -29.7897  -15.5021   24.1204 C   0  0  0  0  0  0
  -30.9366  -16.3021   23.4765 C   0  0  0  0  0  0
  -28.4967  -23.6045   20.2451 C   0  0  0  0  0  0
  -28.1236  -25.0422   20.9241 C   0  0  0  0  0  0
  -28.9752  -22.3323   21.1360 C   0  0  0  0  0  0
  -29.7689  -15.8619   20.7631 N   0  0  0  0  0  0
  -28.9742  -20.9575   20.5290 O   0  0  0  0  0  0
  -31.4858  -12.6179   19.1921 H   0  0  0  0  0  0
  -30.4086  -11.5020   19.9728 H   0  0  0  0  0  0
  -29.8229  -11.6883   17.5526 H   0  0  0  0  0  0
  -29.6584  -13.4238   17.6910 H   0  0  0  0  0  0
  -27.9330  -11.2583   18.9430 H   0  0  0  0  0  0
  -27.3973  -12.4488   17.7862 H   0  0  0  0  0  0
  -27.6306  -14.2371   19.4262 H   0  0  0  0  0  0
  -28.6959  -12.1633   21.4145 H   0  0  0  0  0  0
  -28.3659  -13.8364   21.7740 H   0  0  0  0  0  0
  -25.2794   -9.5668   22.4732 H   0  0  0  0  0  0
  -24.0007   -7.4638   22.7469 H   0  0  0  0  0  0
  -21.0833   -8.8806   19.8954 H   0  0  0  0  0  0
  -22.3720  -10.9691   19.6158 H   0  0  0  0  0  0
  -21.2019   -7.6147   23.9702 H   0  0  0  0  0  0
  -21.1453   -6.0512   25.9053 H   0  0  0  0  0  0
  -22.0623   -2.7627   23.2786 H   0  0  0  0  0  0
  -22.4183  -11.9885   22.4757 H   0  0  0  0  0  0
  -21.1131  -13.1248   22.2589 H   0  0  0  0  0  0
  -24.6532  -15.8398   20.5293 H   0  0  0  0  0  0
  -26.2600  -15.6369   20.0606 H   0  0  0  0  0  0
  -26.7137  -32.5421   23.0944 H   0  0  0  0  0  0
  -25.0068  -33.9639   25.0338 H   0  0  0  0  0  0
  -22.7272  -31.2989   21.4187 H   0  0  0  0  0  0
  -23.3685  -35.9707   23.3276 H   0  0  0  0  0  0
  -24.3542  -36.9018   22.2043 H   0  0  0  0  0  0
  -23.7355  -37.6551   23.6706 H   0  0  0  0  0  0
  -26.0799  -31.5083   20.5746 H   0  0  0  0  0  0
  -26.8555  -30.8141   21.9856 H   0  0  0  0  0  0
  -28.1102  -28.9299   21.1871 H   0  0  0  0  0  0
  -25.9728  -25.8652   19.0500 H   0  0  0  0  0  0
  -23.9748  -27.3095   18.9570 H   0  0  0  0  0  0
  -23.7707  -30.6256   19.4272 H   0  0  0  0  0  0
  -22.7516  -29.2772   19.8453 H   0  0  0  0  0  0
  -25.1296  -36.1770   25.0768 H   0  0  0  0  0  0
  -20.9887  -28.3166   24.1316 H   0  0  0  0  0  0
  -20.5448  -26.2222   23.3568 H   0  0  0  0  0  0
  -21.6610  -26.7202   22.1274 H   0  0  0  0  0  0
  -19.6927  -25.6182   21.1178 H   0  0  0  0  0  0
  -19.6727  -27.3029   20.6590 H   0  0  0  0  0  0
  -17.4162  -26.6401   21.3973 H   0  0  0  0  0  0
  -18.0391  -25.9889   22.8924 H   0  0  0  0  0  0
  -19.7998  -30.7039   24.2242 H   0  0  0  0  0  0
  -17.5124  -31.6224   24.5038 H   0  0  0  0  0  0
  -15.5382  -30.2945   23.7670 H   0  0  0  0  0  0
  -15.8586  -28.0759   22.7097 H   0  0  0  0  0  0
  -24.5905  -30.7116   25.7929 H   0  0  0  0  0  0
  -24.9044  -32.2966   26.4854 H   0  0  0  0  0  0
  -25.8145  -30.9023   27.0254 H   0  0  0  0  0  0
  -26.2933  -29.6697   24.1225 H   0  0  0  0  0  0
  -27.4159  -29.7238   25.4610 H   0  0  0  0  0  0
  -27.8749  -30.4291   23.9260 H   0  0  0  0  0  0
  -27.2516  -33.3623   26.2046 H   0  0  0  0  0  0
  -28.3884  -32.6971   25.0420 H   0  0  0  0  0  0
  -28.0591  -31.8503   26.5512 H   0  0  0  0  0  0
  -28.2531  -38.0127   24.7451 H   0  0  0  0  0  0
  -28.1069  -36.2631   24.6255 H   0  0  0  0  0  0
  -27.2249  -37.1478   25.8842 H   0  0  0  0  0  0
  -20.9183  -29.8920   21.7076 H   0  0  0  0  0  0
  -26.0083  -38.2762   24.1488 H   0  0  0  0  0  0
  -30.8098  -18.8584   24.2086 H   0  0  0  0  0  0
  -29.9261  -20.8212   23.0185 H   0  0  0  0  0  0
  -29.0774  -18.3475   19.5993 H   0  0  0  0  0  0
  -30.1702  -14.5899   24.5798 H   0  0  0  0  0  0
  -29.0337  -15.2136   23.3899 H   0  0  0  0  0  0
  -29.2912  -16.0683   24.9085 H   0  0  0  0  0  0
  -31.5875  -16.6908   24.2613 H   0  0  0  0  0  0
  -31.5872  -15.6491   22.9025 H   0  0  0  0  0  0
  -29.1928  -23.7788   19.4193 H   0  0  0  0  0  0
  -27.6082  -23.2373   19.7369 H   0  0  0  0  0  0
  -28.7380  -25.1898   21.8157 H   0  0  0  0  0  0
  -27.1080  -24.9697   21.3189 H   0  0  0  0  0  0
  -28.3463  -22.2863   22.0273 H   0  0  0  0  0  0
  -29.9818  -22.5544   21.4867 H   0  0  0  0  0  0
  -28.8028  -15.5965   20.7124 H   0  0  0  0  0  0
  1 25  1  0  0  0
  1 30  2  0  0  0
  1 82  1  0  0  0
  2  3  1  0  0  0
  2 25  1  0  0  0
  2 84  1  0  0  0
  2 85  1  0  0  0
  3  4  1  0  0  0
  3 86  1  0  0  0
  3 87  1  0  0  0
  4  5  1  0  0  0
  4 88  1  0  0  0
  4 89  1  0  0  0
  5  6  1  0  0  0
  5 26  1  0  0  0
  5 90  1  0  0  0
  6 25  1  0  0  0
  6 91  1  0  0  0
  6 92  1  0  0  0
  7  8  2  0  0  0
  7 26  1  0  0  0
  7 29  1  0  0  0
  8  9  1  0  0  0
  8 22  1  0  0  0
  9 10  1  0  0  0
  9 27  2  0  0  0
 10 11  2  0  0  0
 10 15  1  0  0  0
 11 12  1  0  0  0
 11 93  1  0  0  0
 12 13  2  0  0  0
 12 94  1  0  0  0
 13 14  1  0  0  0
 13 31  1  0  0  0
 14 15  2  0  0  0
 14 95  1  0  0  0
 15 96  1  0  0  0
 16 17  2  0  0  0
 16 21  1  0  0  0
 16 31  1  0  0  0
 17 18  1  0  0  0
 17 97  1  0  0  0
 18 19  2  0  0  0
 18 98  1  0  0  0
 19 20  1  0  0  0
 19 24  1  0  0  0
 20 21  2  0  0  0
 20 99  1  0  0  0
 21 23  1  0  0  0
 22 28  1  0  0  0
 22 32  2  0  0  0
 26 27  1  0  0  0
 28100  1  0  0  0
 28101  1  0  0  0
 29102  1  0  0  0
 29103  1  0  0  0
 33 34  1  0  0  0
 33 66  1  0  0  0
 33 70  2  0  0  0
 34 36  1  0  0  0
 34 59  1  0  0  0
 34104  1  0  0  0
 35 44  2  0  0  0
 35 45  1  0  0  0
 35 68  1  0  0  0
 36 56  1  0  0  0
 36105  1  0  0  0
 37 39  1  0  0  0
 37 47  1  0  0  0
 37 66  1  0  0  0
 37106  1  0  0  0
 38 43  2  0  0  0
 38 46  1  0  0  0
 38 47  1  0  0  0
 39 64  1  0  0  0
 39 67  2  0  0  0
 40 52  1  0  0  0
 40 53  2  0  0  0
 40 58  1  0  0  0
 41107  1  0  0  0
 41108  1  0  0  0
 41109  1  0  0  0
 41 48  1  0  0  0
 42 43  1  0  0  0
 42 66  1  0  0  0
 42110  1  0  0  0
 42111  1  0  0  0
 43 44  1  0  0  0
 44112  1  0  0  0
 45 46  2  0  0  0
 45113  1  0  0  0
 46114  1  0  0  0
 47115  1  0  0  0
 47116  1  0  0  0
 48 56  1  0  0  0
 48 65  1  0  0  0
 48117  1  0  0  0
 49 50  1  0  0  0
 49 53  1  0  0  0
 49 64  1  0  0  0
 49118  1  0  0  0
 50 51  1  0  0  0
 50119  1  0  0  0
 50120  1  0  0  0
 51 52  1  0  0  0
 51121  1  0  0  0
 51122  1  0  0  0
 52123  1  0  0  0
 52124  1  0  0  0
 53 54  1  0  0  0
 54 55  2  0  0  0
 54125  1  0  0  0
 55 57  1  0  0  0
 55126  1  0  0  0
 56 69  2  0  0  0
 57 58  2  0  0  0
 57127  1  0  0  0
 58128  1  0  0  0
 59 60  1  0  0  0
 59 61  1  0  0  0
 59 62  1  0  0  0
 60129  1  0  0  0
 60130  1  0  0  0
 60131  1  0  0  0
 61132  1  0  0  0
 61133  1  0  0  0
 61134  1  0  0  0
 62135  1  0  0  0
 62136  1  0  0  0
 62137  1  0  0  0
 63 65  1  0  0  0
 63138  1  0  0  0
 63139  1  0  0  0
 63140  1  0  0  0
 64141  1  0  0  0
 65142  1  0  0  0
 68 80  1  0  0  0
 71 72  2  0  0  0
 71 74  1  0  0  0
 71143  1  0  0  0
 72 76  1  0  0  0
 72144  1  0  0  0
 73 75  1  0  0  0
 73 76  2  0  0  0
 73145  1  0  0  0
 74 75  2  0  0  0
 74 78  1  0  0  0
 75 82  1  0  0  0
 76 83  1  0  0  0
 77 78  1  0  0  0
 77146  1  0  0  0
 77147  1  0  0  0
 77148  1  0  0  0
 78149  1  0  0  0
 78150  1  0  0  0
 79 80  1  0  0  0
 79 81  1  0  0  0
 79151  1  0  0  0
 79152  1  0  0  0
 80153  1  0  0  0
 80154  1  0  0  0
 81 83  1  0  0  0
 81155  1  0  0  0
 81156  1  0  0  0
 82157  1  0  0  0
M  ISO  4   1 100  68 101  80 101  82 100
M  END
> <chiral flag>
0

> <version>
0

> <s_m_source_file>
/data/baiqing/PycharmProjects/Reinvent-master-3.2/result/LINK_invent/BTK/process_docking_weight1_custom_product_contain_oxygen_bond_distance_aromatic_linkinvent_7_9_3/rearranged_h_0138.sdf

> <i_m_source_file_index>
42

> <r_mmod_Potential_Energy-OPLS-2005>
230.822937011719

> <r_mmod_Stretch_Energy-OPLS-2005>
131.579483032227

> <r_mmod_Bend_Energy-OPLS-2005>
173.651031494141

> <r_mmod_Torsional_Energy-OPLS-2005>
266.398529052734

> <r_mmod_Improper_Torsional_Energy-OPLS-2005>
7.67518901824951

> <r_mmod_Van_der_Waal_Energy-OPLS-2005>
132.84521484375

> <r_mmod_Electrostatic_Energy-OPLS-2005>
-372.466094970703

> <r_mmod_Solvation_Energy-OPLS-2005>
-207.079696655273

> <b_mmod_Minimization_Converged-OPLS-2005>
0

> <r_mmod_RMS_Derivative-OPLS-2005>
10.2601871490479

$$$$
42
                    3D
 Structure written by MMmdl.
170179  0  0  1  0            999 V2000
  -30.5905  -14.7945   20.4530 C   0  0  0  0  0  0
  -30.4347  -12.4822   19.4923 C   0  0  0  0  0  0
  -29.5150  -12.5184   18.2502 C   0  0  0  0  0  0
  -28.0417  -12.3388   18.6585 C   0  0  0  0  0  0
  -27.6422  -13.2381   19.8583 C   0  0  2  0  0  0
  -28.6838  -13.1784   20.9973 C   0  0  0  0  0  0
  -25.2512  -13.8211   20.5721 C   0  0  0  0  0  0
  -24.1804  -13.0445   20.9208 C   0  0  0  0  0  0
  -24.6404  -11.6927   20.8750 C   0  0  0  0  0  0
  -23.9078  -10.4292   21.0404 C   0  0  0  0  0  0
  -24.3625   -9.4204   21.9179 C   0  0  0  0  0  0
  -23.6288   -8.2244   22.0751 C   0  0  0  0  0  0
  -22.4273   -8.0279   21.3540 C   0  0  0  0  0  0
  -21.9912   -9.0265   20.4655 C   0  0  0  0  0  0
  -22.7247  -10.2143   20.3058 C   0  0  0  0  0  0
  -21.6854   -6.0733   22.5278 C   0  0  0  0  0  0
  -21.4025   -6.5646   23.8210 C   0  0  0  0  0  0
  -21.3659   -5.6799   24.9170 C   0  0  0  0  0  0
  -21.6038   -4.3059   24.7223 C   0  0  0  0  0  0
  -21.8823   -3.8146   23.4343 C   0  0  0  0  0  0
  -21.9197   -4.6958   22.3397 C   0  0  0  0  0  0
  -22.7829  -13.5222   21.1860 C   0  0  0  0  0  0
  -22.1660   -4.2137   21.0974 F   0  0  0  0  0  0
  -21.5618   -3.4545   25.7730 F   0  0  0  0  0  0
  -29.9858  -13.5490   20.4254 N   0  0  0  0  0  0
  -26.2946  -12.9429   20.3317 N   0  0  0  0  0  0
  -25.9340  -11.6562   20.5763 N   0  0  0  0  0  0
  -22.0476  -12.8220   22.0428 N   0  0  0  0  0  0
  -25.4204  -15.1934   20.4170 N   0  0  0  0  0  0
  -31.7574  -14.8962   20.0633 O   0  0  0  0  0  0
  -21.6636   -6.8881   21.4239 O   0  0  0  0  0  0
  -22.3521  -14.5527   20.6702 O   0  0  0  0  0  0
  -24.6359  -31.8524   23.1968 C   0  0  0  0  0  0
  -25.9166  -32.4747   23.8327 C   0  0  1  0  0  0
  -27.2142  -27.2145   20.1329 C   0  0  0  0  0  0
  -25.5936  -33.8550   24.2243 N   0  0  0  0  0  0
  -23.4357  -30.4774   21.5398 C   0  0  2  0  0  0
  -24.8844  -28.9267   20.1061 C   0  0  0  0  0  0
  -22.7533  -29.4593   22.4873 C   0  0  0  0  0  0
  -18.0301  -28.1391   22.8483 C   0  0  0  0  0  0
  -24.1484  -36.7281   23.2639 C   0  0  0  0  0  0
  -25.9877  -30.7495   21.3877 C   0  0  0  0  0  0
  -26.0586  -29.3697   20.7269 C   0  0  0  0  0  0
  -27.2246  -28.5265   20.7327 C   0  0  0  0  0  0
  -26.0181  -26.8711   19.4560 C   0  0  0  0  0  0
  -24.8733  -27.6871   19.4557 C   0  0  0  0  0  0
  -23.6588  -29.8198   20.1538 C   0  0  0  0  0  0
  -25.4112  -36.3064   24.0319 C   0  0  1  0  0  0
  -20.5911  -28.3713   23.1247 C   0  0  2  0  0  0
  -20.6782  -26.9422   22.5407 C   0  0  0  0  0  0
  -19.5758  -26.6381   21.5210 C   0  0  0  0  0  0
  -18.1942  -26.7927   22.1631 C   0  0  0  0  0  0
  -19.1558  -28.8866   23.2862 C   0  0  0  0  0  0
  -18.9474  -30.1458   23.8898 C   0  0  0  0  0  0
  -17.6474  -30.6587   24.0570 C   0  0  0  0  0  0
  -25.9062  -34.9436   23.5085 C   0  0  0  0  0  0
  -16.5366  -29.9089   23.6328 C   0  0  0  0  0  0
  -16.7289  -28.6505   23.0351 C   0  0  0  0  0  0
  -26.4509  -31.6584   25.0730 C   0  0  0  0  0  0
  -25.3715  -31.3754   26.1438 C   0  0  0  0  0  0
  -27.0354  -30.2990   24.6250 C   0  0  0  0  0  0
  -27.6056  -32.4332   25.7498 C   0  0  0  0  0  0
  -27.5576  -37.1794   24.8463 C   0  0  0  0  0  0
  -21.4235  -29.3048   22.3615 N   0  0  0  0  0  0
  -26.4284  -37.3767   23.9406 N   0  0  0  0  0  0
  -24.7058  -31.0449   22.0975 N   0  0  0  0  0  0
  -23.4214  -28.8133   23.2986 O   0  0  0  0  0  0
  -28.2671  -26.2502   20.2203 O   0  0  0  0  0  0
  -26.5646  -34.8915   22.4662 O   0  0  0  0  0  0
  -23.5496  -32.1367   23.7230 O   0  0  0  0  0  0
  -29.6927  -18.4788   21.0173 C   0  0  0  0  0  0
  -29.8055  -19.6140   20.0788 C   0  0  0  0  0  0
  -29.9803  -18.9140   18.8880 C   0  0  0  0  0  0
  -29.9066  -17.2542   20.3619 C   0  0  0  0  0  0
  -28.7821  -23.4912   20.3301 C   0  0  0  0  0  0
  -29.0382  -22.3390   19.6137 C   0  0  0  0  0  0
  -29.2512  -23.2435   21.7469 C   0  0  0  0  0  0
  -29.6850  -21.7274   21.7806 C   0  0  0  0  0  0
  -29.9481  -21.2389   20.3205 C   0  0  1  0  0  0
  -28.5076  -22.0906   18.2186 C   0  0  0  0  0  0
  -29.0539  -18.8350   16.5362 C   0  0  0  0  0  0
  -31.9531  -23.0019   20.0277 C   0  0  0  0  0  0
  -32.5017  -20.6378   20.6398 C   0  0  0  0  0  0
  -30.1968  -19.2885   17.4546 C   0  0  0  0  0  0
  -27.9215  -24.7961   19.9234 C   0  0  0  0  0  0
  -31.4590  -21.5406   19.9363 C   0  0  0  0  0  0
  -29.8527  -15.9209   20.8282 N   0  0  0  0  0  0
  -30.0560  -17.5429   19.0532 O   0  0  0  0  0  0
  -31.4756  -12.6087   19.1881 H   0  0  0  0  0  0
  -30.3876  -11.5076   19.9811 H   0  0  0  0  0  0
  -29.8017  -11.7379   17.5446 H   0  0  0  0  0  0
  -29.6412  -13.4660   17.7238 H   0  0  0  0  0  0
  -27.9054  -11.2901   18.9208 H   0  0  0  0  0  0
  -27.3870  -12.5265   17.8074 H   0  0  0  0  0  0
  -27.6334  -14.2593   19.4789 H   0  0  0  0  0  0
  -28.7275  -12.1770   21.4271 H   0  0  0  0  0  0
  -28.4059  -13.8489   21.8127 H   0  0  0  0  0  0
  -25.2771   -9.5661   22.4763 H   0  0  0  0  0  0
  -23.9981   -7.4646   22.7489 H   0  0  0  0  0  0
  -21.0833   -8.8804   19.8985 H   0  0  0  0  0  0
  -22.3701  -10.9690   19.6175 H   0  0  0  0  0  0
  -21.2027   -7.6153   23.9715 H   0  0  0  0  0  0
  -21.1476   -6.0521   25.9072 H   0  0  0  0  0  0
  -22.0598   -2.7603   23.2847 H   0  0  0  0  0  0
  -22.4089  -11.9875   22.4798 H   0  0  0  0  0  0
  -21.1106  -13.1261   22.2654 H   0  0  0  0  0  0
  -24.6568  -15.8486   20.5427 H   0  0  0  0  0  0
  -26.2676  -15.6371   20.0860 H   0  0  0  0  0  0
  -26.7233  -32.5391   23.1067 H   0  0  0  0  0  0
  -25.0055  -33.9686   25.0368 H   0  0  0  0  0  0
  -22.7350  -31.3021   21.3945 H   0  0  0  0  0  0
  -23.3745  -35.9615   23.3301 H   0  0  0  0  0  0
  -24.3575  -36.8906   22.2055 H   0  0  0  0  0  0
  -23.7237  -37.6477   23.6671 H   0  0  0  0  0  0
  -26.1357  -31.5093   20.6190 H   0  0  0  0  0  0
  -26.8620  -30.7973   22.0249 H   0  0  0  0  0  0
  -28.1152  -28.8570   21.2487 H   0  0  0  0  0  0
  -25.9199  -25.9364   18.9269 H   0  0  0  0  0  0
  -23.9815  -27.3478   18.9472 H   0  0  0  0  0  0
  -23.7925  -30.6019   19.4047 H   0  0  0  0  0  0
  -22.7755  -29.2606   19.8411 H   0  0  0  0  0  0
  -25.1297  -36.1903   25.0812 H   0  0  0  0  0  0
  -21.0018  -28.3297   24.1361 H   0  0  0  0  0  0
  -20.5649  -26.2338   23.3626 H   0  0  0  0  0  0
  -21.6652  -26.7405   22.1227 H   0  0  0  0  0  0
  -19.6919  -25.6287   21.1248 H   0  0  0  0  0  0
  -19.6693  -27.3187   20.6733 H   0  0  0  0  0  0
  -17.4206  -26.6665   21.4039 H   0  0  0  0  0  0
  -18.0353  -26.0073   22.9037 H   0  0  0  0  0  0
  -19.7951  -30.7262   24.2283 H   0  0  0  0  0  0
  -17.5029  -31.6265   24.5185 H   0  0  0  0  0  0
  -15.5366  -30.2993   23.7637 H   0  0  0  0  0  0
  -15.8695  -28.0819   22.7063 H   0  0  0  0  0  0
  -24.5890  -30.7108   25.7756 H   0  0  0  0  0  0
  -24.8913  -32.2937   26.4829 H   0  0  0  0  0  0
  -25.8016  -30.8944   27.0233 H   0  0  0  0  0  0
  -26.2947  -29.6732   24.1255 H   0  0  0  0  0  0
  -27.3991  -29.7257   25.4786 H   0  0  0  0  0  0
  -27.8849  -30.4239   23.9532 H   0  0  0  0  0  0
  -27.2660  -33.3641   26.2047 H   0  0  0  0  0  0
  -28.3874  -32.6879   25.0332 H   0  0  0  0  0  0
  -28.0713  -31.8477   26.5432 H   0  0  0  0  0  0
  -28.2595  -38.0091   24.7504 H   0  0  0  0  0  0
  -28.1068  -36.2620   24.6291 H   0  0  0  0  0  0
  -27.2305  -37.1448   25.8870 H   0  0  0  0  0  0
  -20.9422  -29.8785   21.6831 H   0  0  0  0  0  0
  -26.0158  -38.2833   24.1422 H   0  0  0  0  0  0
  -29.5440  -18.5682   22.0838 H   0  0  0  0  0  0
  -28.4445  -23.4317   22.4556 H   0  0  0  0  0  0
  -30.0675  -23.9220   21.9922 H   0  0  0  0  0  0
  -28.8470  -21.1552   22.1813 H   0  0  0  0  0  0
  -30.5179  -21.5533   22.4601 H   0  0  0  0  0  0
  -27.7097  -22.7809   17.9527 H   0  0  0  0  0  0
  -28.0813  -21.0911   18.1653 H   0  0  0  0  0  0
  -29.2971  -22.2027   17.4779 H   0  0  0  0  0  0
  -29.2559  -19.1093   15.5002 H   0  0  0  0  0  0
  -28.1040  -19.2875   16.8182 H   0  0  0  0  0  0
  -28.9255  -17.7533   16.5747 H   0  0  0  0  0  0
  -31.3392  -23.6912   19.4502 H   0  0  0  0  0  0
  -32.9617  -23.0918   19.6218 H   0  0  0  0  0  0
  -32.0002  -23.3538   21.0565 H   0  0  0  0  0  0
  -32.3580  -19.5785   20.4291 H   0  0  0  0  0  0
  -32.4892  -20.7675   21.7216 H   0  0  0  0  0  0
  -33.5117  -20.8727   20.3007 H   0  0  0  0  0  0
  -31.1225  -18.8271   17.1092 H   0  0  0  0  0  0
  -30.3584  -20.3537   17.3410 H   0  0  0  0  0  0
  -26.9509  -24.5943   20.3780 H   0  0  0  0  0  0
  -27.7748  -24.7486   18.8459 H   0  0  0  0  0  0
  -31.5542  -21.3104   18.8781 H   0  0  0  0  0  0
  -29.0177  -15.7010   21.3485 H   0  0  0  0  0  0
  1 25  1  0  0  0
  1 30  2  0  0  0
  1 87  1  0  0  0
  2  3  1  0  0  0
  2 25  1  0  0  0
  2 89  1  0  0  0
  2 90  1  0  0  0
  3  4  1  0  0  0
  3 91  1  0  0  0
  3 92  1  0  0  0
  4  5  1  0  0  0
  4 93  1  0  0  0
  4 94  1  0  0  0
  5  6  1  0  0  0
  5 26  1  0  0  0
  5 95  1  0  0  0
  6 25  1  0  0  0
  6 96  1  0  0  0
  6 97  1  0  0  0
  7  8  2  0  0  0
  7 26  1  0  0  0
  7 29  1  0  0  0
  8  9  1  0  0  0
  8 22  1  0  0  0
  9 10  1  0  0  0
  9 27  2  0  0  0
 10 11  2  0  0  0
 10 15  1  0  0  0
 11 12  1  0  0  0
 11 98  1  0  0  0
 12 13  2  0  0  0
 12 99  1  0  0  0
 13 14  1  0  0  0
 13 31  1  0  0  0
 14 15  2  0  0  0
 14100  1  0  0  0
 15101  1  0  0  0
 16 17  2  0  0  0
 16 21  1  0  0  0
 16 31  1  0  0  0
 17 18  1  0  0  0
 17102  1  0  0  0
 18 19  2  0  0  0
 18103  1  0  0  0
 19 20  1  0  0  0
 19 24  1  0  0  0
 20 21  2  0  0  0
 20104  1  0  0  0
 21 23  1  0  0  0
 22 28  1  0  0  0
 22 32  2  0  0  0
 26 27  1  0  0  0
 28105  1  0  0  0
 28106  1  0  0  0
 29107  1  0  0  0
 29108  1  0  0  0
 33 34  1  0  0  0
 33 66  1  0  0  0
 33 70  2  0  0  0
 34 36  1  0  0  0
 34 59  1  0  0  0
 34109  1  0  0  0
 35 44  2  0  0  0
 35 45  1  0  0  0
 35 68  1  0  0  0
 36 56  1  0  0  0
 36110  1  0  0  0
 37 39  1  0  0  0
 37 47  1  0  0  0
 37 66  1  0  0  0
 37111  1  0  0  0
 38 43  2  0  0  0
 38 46  1  0  0  0
 38 47  1  0  0  0
 39 64  1  0  0  0
 39 67  2  0  0  0
 40 52  1  0  0  0
 40 53  2  0  0  0
 40 58  1  0  0  0
 41112  1  0  0  0
 41113  1  0  0  0
 41114  1  0  0  0
 41 48  1  0  0  0
 42 43  1  0  0  0
 42 66  1  0  0  0
 42115  1  0  0  0
 42116  1  0  0  0
 43 44  1  0  0  0
 44117  1  0  0  0
 45 46  2  0  0  0
 45118  1  0  0  0
 46119  1  0  0  0
 47120  1  0  0  0
 47121  1  0  0  0
 48 56  1  0  0  0
 48 65  1  0  0  0
 48122  1  0  0  0
 49 50  1  0  0  0
 49 53  1  0  0  0
 49 64  1  0  0  0
 49123  1  0  0  0
 50 51  1  0  0  0
 50124  1  0  0  0
 50125  1  0  0  0
 51 52  1  0  0  0
 51126  1  0  0  0
 51127  1  0  0  0
 52128  1  0  0  0
 52129  1  0  0  0
 53 54  1  0  0  0
 54 55  2  0  0  0
 54130  1  0  0  0
 55 57  1  0  0  0
 55131  1  0  0  0
 56 69  2  0  0  0
 57 58  2  0  0  0
 57132  1  0  0  0
 58133  1  0  0  0
 59 60  1  0  0  0
 59 61  1  0  0  0
 59 62  1  0  0  0
 60134  1  0  0  0
 60135  1  0  0  0
 60136  1  0  0  0
 61137  1  0  0  0
 61138  1  0  0  0
 61139  1  0  0  0
 62140  1  0  0  0
 62141  1  0  0  0
 62142  1  0  0  0
 63 65  1  0  0  0
 63143  1  0  0  0
 63144  1  0  0  0
 63145  1  0  0  0
 64146  1  0  0  0
 65147  1  0  0  0
 68 85  1  0  0  0
 71 72  1  0  0  0
 71 74  2  0  0  0
 71148  1  0  0  0
 72 73  2  0  0  0
 72 79  1  0  0  0
 73 84  1  0  0  0
 73 88  1  0  0  0
 74 87  1  0  0  0
 74 88  1  0  0  0
 75 76  2  0  0  0
 75 77  1  0  0  0
 75 85  1  0  0  0
 76 79  1  0  0  0
 76 80  1  0  0  0
 77 78  1  0  0  0
 77149  1  0  0  0
 77150  1  0  0  0
 78 79  1  0  0  0
 78151  1  0  0  0
 78152  1  0  0  0
 79 86  1  0  0  0
 80153  1  0  0  0
 80154  1  0  0  0
 80155  1  0  0  0
 81 84  1  0  0  0
 81156  1  0  0  0
 81157  1  0  0  0
 81158  1  0  0  0
 82159  1  0  0  0
 82160  1  0  0  0
 82161  1  0  0  0
 82 86  1  0  0  0
 83 86  1  0  0  0
 83162  1  0  0  0
 83163  1  0  0  0
 83164  1  0  0  0
 84165  1  0  0  0
 84166  1  0  0  0
 85167  1  0  0  0
 85168  1  0  0  0
 86169  1  0  0  0
 87170  1  0  0  0
M  ISO  4   1 100  68 101  85 101  87 100
M  END
> <chiral flag>
0

> <version>
0

> <s_m_source_file>
/data/baiqing/PycharmProjects/Reinvent-master-3.2/result/LINK_invent/BTK/process_docking_weight1_custom_product_contain_oxygen_bond_distance_aromatic_linkinvent_7_9_3/rearranged_h_0138.sdf

> <i_m_source_file_index>
43

> <r_mmod_Potential_Energy-OPLS-2005>
347.571258544922

> <r_mmod_Stretch_Energy-OPLS-2005>
158.934112548828

> <r_mmod_Bend_Energy-OPLS-2005>
267.723022460938

> <r_mmod_Torsional_Energy-OPLS-2005>
263.301879882812

> <r_mmod_Improper_Torsional_Energy-OPLS-2005>
5.45180654525757

> <r_mmod_Van_der_Waal_Energy-OPLS-2005>
127.334426879883

> <r_mmod_Electrostatic_Energy-OPLS-2005>
-391.719787597656

> <r_mmod_Solvation_Energy-OPLS-2005>
-198.841339111328

> <b_mmod_Minimization_Converged-OPLS-2005>
0

> <r_mmod_RMS_Derivative-OPLS-2005>
2.1577844619751

$$$$
43
                    3D
 Structure written by MMmdl.
153161  0  0  1  0            999 V2000
  -30.4111  -15.2851   20.3706 C   0  0  0  0  0  0
  -30.4488  -12.8222   19.5192 C   0  0  0  0  0  0
  -29.5391  -12.5820   18.2859 C   0  0  0  0  0  0
  -28.0904  -12.2932   18.7191 C   0  0  0  0  0  0
  -27.6139  -13.2720   19.8213 C   0  0  2  0  0  0
  -28.6495  -13.4462   20.9532 C   0  0  0  0  0  0
  -25.2400  -13.8238   20.5738 C   0  0  0  0  0  0
  -24.1754  -13.0430   20.9264 C   0  0  0  0  0  0
  -24.6408  -11.6926   20.8760 C   0  0  0  0  0  0
  -23.9101  -10.4287   21.0408 C   0  0  0  0  0  0
  -24.3643   -9.4203   21.9188 C   0  0  0  0  0  0
  -23.6306   -8.2247   22.0754 C   0  0  0  0  0  0
  -22.4290   -8.0287   21.3546 C   0  0  0  0  0  0
  -21.9935   -9.0265   20.4649 C   0  0  0  0  0  0
  -22.7269  -10.2136   20.3053 C   0  0  0  0  0  0
  -21.6852   -6.0745   22.5282 C   0  0  0  0  0  0
  -21.4022   -6.5649   23.8221 C   0  0  0  0  0  0
  -21.3658   -5.6792   24.9180 C   0  0  0  0  0  0
  -21.6036   -4.3056   24.7225 C   0  0  0  0  0  0
  -21.8815   -3.8153   23.4343 C   0  0  0  0  0  0
  -21.9195   -4.6973   22.3404 C   0  0  0  0  0  0
  -22.7772  -13.5186   21.1904 C   0  0  0  0  0  0
  -22.1657   -4.2158   21.0977 F   0  0  0  0  0  0
  -21.5622   -3.4538   25.7735 F   0  0  0  0  0  0
  -29.8805  -13.9622   20.3278 N   0  0  0  0  0  0
  -26.2832  -12.9511   20.3211 N   0  0  0  0  0  0
  -25.9345  -11.6620   20.5726 N   0  0  0  0  0  0
  -22.0431  -12.8175   22.0461 N   0  0  0  0  0  0
  -25.4006  -15.1974   20.4138 N   0  0  0  0  0  0
  -31.6344  -15.3217   20.1663 O   0  0  0  0  0  0
  -21.6641   -6.8895   21.4247 O   0  0  0  0  0  0
  -22.3456  -14.5486   20.6732 O   0  0  0  0  0  0
  -24.6651  -31.8215   23.1710 C   0  0  0  0  0  0
  -25.9319  -32.4583   23.8172 C   0  0  1  0  0  0
  -27.2152  -26.8999   20.1704 C   0  0  0  0  0  0
  -25.5980  -33.8396   24.2056 N   0  0  0  0  0  0
  -23.4813  -30.4376   21.5209 C   0  0  2  0  0  0
  -24.9339  -28.8298   20.1089 C   0  0  0  0  0  0
  -22.7685  -29.4440   22.4765 C   0  0  0  0  0  0
  -18.0323  -28.1412   22.8471 C   0  0  0  0  0  0
  -24.1488  -36.7191   23.2647 C   0  0  0  0  0  0
  -26.0550  -30.6200   21.4072 C   0  0  0  0  0  0
  -26.1201  -29.2097   20.7463 C   0  0  0  0  0  0
  -27.2524  -28.2688   20.7534 C   0  0  0  0  0  0
  -25.9948  -26.6960   19.4802 C   0  0  0  0  0  0
  -24.8980  -27.5916   19.4561 C   0  0  0  0  0  0
  -23.7231  -29.7609   20.1450 C   0  0  0  0  0  0
  -25.4128  -36.2954   24.0304 C   0  0  1  0  0  0
  -20.5962  -28.3757   23.1179 C   0  0  2  0  0  0
  -20.6810  -26.9442   22.5388 C   0  0  0  0  0  0
  -19.5780  -26.6367   21.5213 C   0  0  0  0  0  0
  -18.1959  -26.7946   22.1617 C   0  0  0  0  0  0
  -19.1595  -28.8902   23.2818 C   0  0  0  0  0  0
  -18.9508  -30.1492   23.8856 C   0  0  0  0  0  0
  -17.6500  -30.6601   24.0560 C   0  0  0  0  0  0
  -25.9092  -34.9343   23.4993 C   0  0  0  0  0  0
  -16.5388  -29.9096   23.6346 C   0  0  0  0  0  0
  -16.7307  -28.6514   23.0370 C   0  0  0  0  0  0
  -26.4553  -31.6543   25.0710 C   0  0  0  0  0  0
  -25.3662  -31.3818   26.1357 C   0  0  0  0  0  0
  -27.0457  -30.2900   24.6463 C   0  0  0  0  0  0
  -27.6023  -32.4387   25.7499 C   0  0  0  0  0  0
  -27.5560  -37.1749   24.8466 C   0  0  0  0  0  0
  -21.4352  -29.3052   22.3532 N   0  0  0  0  0  0
  -26.4256  -37.3697   23.9430 N   0  0  0  0  0  0
  -24.7558  -30.9865   22.0858 N   0  0  0  0  0  0
  -23.4232  -28.7990   23.2992 O   0  0  0  0  0  0
  -28.2197  -25.7782   20.2616 O   0  0  0  0  0  0
  -26.5703  -34.8889   22.4586 O   0  0  0  0  0  0
  -23.5715  -32.1186   23.6781 O   0  0  0  0  0  0
  -28.5824  -20.1750   21.5329 C   0  0  0  0  0  0
  -28.7853  -18.6848   21.5846 C   0  0  0  0  0  0
  -29.0703  -20.9628   20.4847 C   0  0  0  0  0  0
  -29.4904  -18.0022   20.5745 C   0  0  0  0  0  0
  -28.2123  -17.9164   22.7414 C   0  0  0  0  0  0
  -26.7644  -23.7114   20.7510 C   0  0  0  0  0  0
  -27.9291  -24.0135   18.4989 C   0  0  0  0  0  0
  -29.1630  -22.7221   20.3714 C   0  0  0  0  0  0
  -28.0640  -24.1228   20.0333 C   0  0  0  0  0  0
  -29.5528  -16.4971   20.4224 N   0  0  0  0  0  0
  -29.8642  -19.5316   19.5138 S   0  0  0  0  0  0
  -31.4629  -13.0448   19.1829 H   0  0  0  0  0  0
  -30.5319  -11.9190   20.1259 H   0  0  0  0  0  0
  -29.9245  -11.7590   17.6821 H   0  0  0  0  0  0
  -29.5564  -13.4678   17.6485 H   0  0  0  0  0  0
  -28.0563  -11.2712   19.0997 H   0  0  0  0  0  0
  -27.4186  -12.3226   17.8598 H   0  0  0  0  0  0
  -27.5277  -14.2365   19.3194 H   0  0  0  0  0  0
  -28.8234  -12.5097   21.4844 H   0  0  0  0  0  0
  -28.2840  -14.1597   21.6934 H   0  0  0  0  0  0
  -25.2794   -9.5669   22.4763 H   0  0  0  0  0  0
  -24.0008   -7.4636   22.7471 H   0  0  0  0  0  0
  -21.0871   -8.8798   19.8954 H   0  0  0  0  0  0
  -22.3748  -10.9679   19.6158 H   0  0  0  0  0  0
  -21.2024   -7.6158   23.9732 H   0  0  0  0  0  0
  -21.1475   -6.0521   25.9082 H   0  0  0  0  0  0
  -22.0594   -2.7617   23.2839 H   0  0  0  0  0  0
  -22.4062  -11.9847   22.4851 H   0  0  0  0  0  0
  -21.1037  -13.1186   22.2658 H   0  0  0  0  0  0
  -24.6166  -15.8339   20.5049 H   0  0  0  0  0  0
  -26.2239  -15.6423   20.0316 H   0  0  0  0  0  0
  -26.7390  -32.5097   23.0890 H   0  0  0  0  0  0
  -25.0146  -33.9492   25.0225 H   0  0  0  0  0  0
  -22.7936  -31.2699   21.3537 H   0  0  0  0  0  0
  -23.3762  -35.9510   23.3281 H   0  0  0  0  0  0
  -24.3565  -36.8849   22.2060 H   0  0  0  0  0  0
  -23.7235  -37.6364   23.6723 H   0  0  0  0  0  0
  -26.2417  -31.3621   20.6298 H   0  0  0  0  0  0
  -26.9129  -30.6720   22.0666 H   0  0  0  0  0  0
  -28.1458  -28.5588   21.2886 H   0  0  0  0  0  0
  -25.8102  -25.7688   18.9694 H   0  0  0  0  0  0
  -23.9992  -27.2907   18.9363 H   0  0  0  0  0  0
  -23.8808  -30.5348   19.3923 H   0  0  0  0  0  0
  -22.8301  -29.2213   19.8230 H   0  0  0  0  0  0
  -25.1337  -36.1721   25.0799 H   0  0  0  0  0  0
  -21.0062  -28.3339   24.1294 H   0  0  0  0  0  0
  -20.5692  -26.2375   23.3629 H   0  0  0  0  0  0
  -21.6674  -26.7410   22.1196 H   0  0  0  0  0  0
  -19.6954  -25.6261   21.1274 H   0  0  0  0  0  0
  -19.6723  -27.3153   20.6734 H   0  0  0  0  0  0
  -17.4235  -26.6690   21.4013 H   0  0  0  0  0  0
  -18.0350  -26.0099   22.9025 H   0  0  0  0  0  0
  -19.7988  -30.7317   24.2200 H   0  0  0  0  0  0
  -17.5060  -31.6284   24.5165 H   0  0  0  0  0  0
  -15.5389  -30.2996   23.7701 H   0  0  0  0  0  0
  -15.8703  -28.0820   22.7129 H   0  0  0  0  0  0
  -24.5862  -30.7153   25.7663 H   0  0  0  0  0  0
  -24.8837  -32.3029   26.4620 H   0  0  0  0  0  0
  -25.7866  -30.9073   27.0232 H   0  0  0  0  0  0
  -26.3126  -29.6562   24.1443 H   0  0  0  0  0  0
  -27.3959  -29.7280   25.5132 H   0  0  0  0  0  0
  -27.9090  -30.4082   23.9911 H   0  0  0  0  0  0
  -27.2571  -33.3761   26.1886 H   0  0  0  0  0  0
  -28.3906  -32.6834   25.0369 H   0  0  0  0  0  0
  -28.0619  -31.8643   26.5551 H   0  0  0  0  0  0
  -28.2547  -38.0072   24.7524 H   0  0  0  0  0  0
  -28.1079  -36.2589   24.6275 H   0  0  0  0  0  0
  -27.2281  -37.1370   25.8870 H   0  0  0  0  0  0
  -20.9589  -29.8759   21.6688 H   0  0  0  0  0  0
  -26.0083  -38.2742   24.1471 H   0  0  0  0  0  0
  -28.0645  -20.6421   22.3603 H   0  0  0  0  0  0
  -28.0181  -18.5633   23.5976 H   0  0  0  0  0  0
  -28.8942  -17.1384   23.0879 H   0  0  0  0  0  0
  -27.2701  -17.4362   22.4738 H   0  0  0  0  0  0
  -26.5593  -22.6517   20.5996 H   0  0  0  0  0  0
  -25.8784  -24.2396   20.4143 H   0  0  0  0  0  0
  -26.8500  -23.8731   21.8252 H   0  0  0  0  0  0
  -27.5360  -23.0410   18.2028 H   0  0  0  0  0  0
  -28.9061  -24.1180   18.0266 H   0  0  0  0  0  0
  -27.3014  -24.7682   18.0388 H   0  0  0  0  0  0
  -30.0312  -22.9041   19.7377 H   0  0  0  0  0  0
  -29.5414  -22.9943   21.3563 H   0  0  0  0  0  0
  -28.6183  -16.1318   20.5194 H   0  0  0  0  0  0
  1 25  1  0  0  0
  1 30  2  0  0  0
  1 80  1  0  0  0
  2  3  1  0  0  0
  2 25  1  0  0  0
  2 82  1  0  0  0
  2 83  1  0  0  0
  3  4  1  0  0  0
  3 84  1  0  0  0
  3 85  1  0  0  0
  4  5  1  0  0  0
  4 86  1  0  0  0
  4 87  1  0  0  0
  5  6  1  0  0  0
  5 26  1  0  0  0
  5 88  1  0  0  0
  6 25  1  0  0  0
  6 89  1  0  0  0
  6 90  1  0  0  0
  7  8  2  0  0  0
  7 26  1  0  0  0
  7 29  1  0  0  0
  8  9  1  0  0  0
  8 22  1  0  0  0
  9 10  1  0  0  0
  9 27  2  0  0  0
 10 11  2  0  0  0
 10 15  1  0  0  0
 11 12  1  0  0  0
 11 91  1  0  0  0
 12 13  2  0  0  0
 12 92  1  0  0  0
 13 14  1  0  0  0
 13 31  1  0  0  0
 14 15  2  0  0  0
 14 93  1  0  0  0
 15 94  1  0  0  0
 16 17  2  0  0  0
 16 21  1  0  0  0
 16 31  1  0  0  0
 17 18  1  0  0  0
 17 95  1  0  0  0
 18 19  2  0  0  0
 18 96  1  0  0  0
 19 20  1  0  0  0
 19 24  1  0  0  0
 20 21  2  0  0  0
 20 97  1  0  0  0
 21 23  1  0  0  0
 22 28  1  0  0  0
 22 32  2  0  0  0
 26 27  1  0  0  0
 28 98  1  0  0  0
 28 99  1  0  0  0
 29100  1  0  0  0
 29101  1  0  0  0
 33 34  1  0  0  0
 33 66  1  0  0  0
 33 70  2  0  0  0
 34 36  1  0  0  0
 34 59  1  0  0  0
 34102  1  0  0  0
 35 44  2  0  0  0
 35 45  1  0  0  0
 35 68  1  0  0  0
 36 56  1  0  0  0
 36103  1  0  0  0
 37 39  1  0  0  0
 37 47  1  0  0  0
 37 66  1  0  0  0
 37104  1  0  0  0
 38 43  2  0  0  0
 38 46  1  0  0  0
 38 47  1  0  0  0
 39 64  1  0  0  0
 39 67  2  0  0  0
 40 52  1  0  0  0
 40 53  2  0  0  0
 40 58  1  0  0  0
 41105  1  0  0  0
 41106  1  0  0  0
 41107  1  0  0  0
 41 48  1  0  0  0
 42 43  1  0  0  0
 42 66  1  0  0  0
 42108  1  0  0  0
 42109  1  0  0  0
 43 44  1  0  0  0
 44110  1  0  0  0
 45 46  2  0  0  0
 45111  1  0  0  0
 46112  1  0  0  0
 47113  1  0  0  0
 47114  1  0  0  0
 48 56  1  0  0  0
 48 65  1  0  0  0
 48115  1  0  0  0
 49 50  1  0  0  0
 49 53  1  0  0  0
 49 64  1  0  0  0
 49116  1  0  0  0
 50 51  1  0  0  0
 50117  1  0  0  0
 50118  1  0  0  0
 51 52  1  0  0  0
 51119  1  0  0  0
 51120  1  0  0  0
 52121  1  0  0  0
 52122  1  0  0  0
 53 54  1  0  0  0
 54 55  2  0  0  0
 54123  1  0  0  0
 55 57  1  0  0  0
 55124  1  0  0  0
 56 69  2  0  0  0
 57 58  2  0  0  0
 57125  1  0  0  0
 58126  1  0  0  0
 59 60  1  0  0  0
 59 61  1  0  0  0
 59 62  1  0  0  0
 60127  1  0  0  0
 60128  1  0  0  0
 60129  1  0  0  0
 61130  1  0  0  0
 61131  1  0  0  0
 61132  1  0  0  0
 62133  1  0  0  0
 62134  1  0  0  0
 62135  1  0  0  0
 63 65  1  0  0  0
 63136  1  0  0  0
 63137  1  0  0  0
 63138  1  0  0  0
 64139  1  0  0  0
 65140  1  0  0  0
 68 79  1  0  0  0
 71 72  1  0  0  0
 71 73  2  0  0  0
 71141  1  0  0  0
 72 74  2  0  0  0
 72 75  1  0  0  0
 73 78  1  0  0  0
 73 81  1  0  0  0
 74 80  1  0  0  0
 74 81  1  0  0  0
 75142  1  0  0  0
 75143  1  0  0  0
 75144  1  0  0  0
 76145  1  0  0  0
 76146  1  0  0  0
 76147  1  0  0  0
 76 79  1  0  0  0
 77 79  1  0  0  0
 77148  1  0  0  0
 77149  1  0  0  0
 77150  1  0  0  0
 78 79  1  0  0  0
 78151  1  0  0  0
 78152  1  0  0  0
 80153  1  0  0  0
M  ISO  4   1 100  68 101  79 101  80 100
M  END
> <chiral flag>
0

> <version>
0

> <s_m_source_file>
/data/baiqing/PycharmProjects/Reinvent-master-3.2/result/LINK_invent/BTK/process_docking_weight1_custom_product_contain_oxygen_bond_distance_aromatic_linkinvent_7_9_3/rearranged_h_0138.sdf

> <i_m_source_file_index>
44

> <r_mmod_Potential_Energy-OPLS-2005>
1325.39074707031

> <r_mmod_Stretch_Energy-OPLS-2005>
579.237731933594

> <r_mmod_Bend_Energy-OPLS-2005>
510.208679199219

> <r_mmod_Torsional_Energy-OPLS-2005>
224.05729675293

> <r_mmod_Improper_Torsional_Energy-OPLS-2005>
8.36459255218506

> <r_mmod_Van_der_Waal_Energy-OPLS-2005>
109.579002380371

> <r_mmod_Electrostatic_Energy-OPLS-2005>
-389.408569335938

> <r_mmod_Solvation_Energy-OPLS-2005>
-205.325561523438

> <b_mmod_Minimization_Converged-OPLS-2005>
0

> <r_mmod_RMS_Derivative-OPLS-2005>
1.99187743663788

$$$$
44
                    3D
 Structure written by MMmdl.
158166  0  0  1  0            999 V2000
  -30.6139  -14.7049   20.4324 C   0  0  0  0  0  0
  -30.4360  -12.4093   19.4855 C   0  0  0  0  0  0
  -29.5161  -12.4404   18.2439 C   0  0  0  0  0  0
  -28.0325  -12.3238   18.6466 C   0  0  0  0  0  0
  -27.6466  -13.2235   19.8518 C   0  0  2  0  0  0
  -28.6897  -13.1419   20.9881 C   0  0  0  0  0  0
  -25.2542  -13.8184   20.5693 C   0  0  0  0  0  0
  -24.1818  -13.0442   20.9201 C   0  0  0  0  0  0
  -24.6391  -11.6913   20.8752 C   0  0  0  0  0  0
  -23.9058  -10.4292   21.0412 C   0  0  0  0  0  0
  -24.3608   -9.4207   21.9192 C   0  0  0  0  0  0
  -23.6290   -8.2240   22.0756 C   0  0  0  0  0  0
  -22.4275   -8.0276   21.3542 C   0  0  0  0  0  0
  -21.9906   -9.0248   20.4646 C   0  0  0  0  0  0
  -22.7228  -10.2131   20.3062 C   0  0  0  0  0  0
  -21.6850   -6.0732   22.5276 C   0  0  0  0  0  0
  -21.4013   -6.5637   23.8209 C   0  0  0  0  0  0
  -21.3662   -5.6791   24.9171 C   0  0  0  0  0  0
  -21.6047   -4.3055   24.7220 C   0  0  0  0  0  0
  -21.8821   -3.8143   23.4341 C   0  0  0  0  0  0
  -21.9188   -4.6959   22.3396 C   0  0  0  0  0  0
  -22.7838  -13.5233   21.1853 C   0  0  0  0  0  0
  -22.1657   -4.2143   21.0975 F   0  0  0  0  0  0
  -21.5633   -3.4542   25.7736 F   0  0  0  0  0  0
  -29.9976  -13.4769   20.4122 N   0  0  0  0  0  0
  -26.2963  -12.9377   20.3287 N   0  0  0  0  0  0
  -25.9321  -11.6527   20.5768 N   0  0  0  0  0  0
  -22.0475  -12.8235   22.0410 N   0  0  0  0  0  0
  -25.4260  -15.1908   20.4106 N   0  0  0  0  0  0
  -31.7988  -14.8106   20.1028 O   0  0  0  0  0  0
  -21.6639   -6.8874   21.4240 O   0  0  0  0  0  0
  -22.3524  -14.5535   20.6693 O   0  0  0  0  0  0
  -24.6293  -31.8586   23.2032 C   0  0  0  0  0  0
  -25.9127  -32.4774   23.8369 C   0  0  1  0  0  0
  -27.2186  -27.2924   20.1249 C   0  0  0  0  0  0
  -25.5932  -33.8578   24.2294 N   0  0  0  0  0  0
  -23.4249  -30.4834   21.5457 C   0  0  2  0  0  0
  -24.8719  -28.9426   20.1075 C   0  0  0  0  0  0
  -22.7499  -29.4615   22.4925 C   0  0  0  0  0  0
  -18.0292  -28.1386   22.8483 C   0  0  0  0  0  0
  -24.1484  -36.7291   23.2641 C   0  0  0  0  0  0
  -25.9696  -30.7806   21.3816 C   0  0  0  0  0  0
  -26.0421  -29.4079   20.7207 C   0  0  0  0  0  0
  -27.2177  -28.5940   20.7230 C   0  0  0  0  0  0
  -26.0285  -26.9023   19.4633 C   0  0  0  0  0  0
  -24.8694  -27.6967   19.4671 C   0  0  0  0  0  0
  -23.6414  -29.8248   20.1590 C   0  0  0  0  0  0
  -25.4113  -36.3086   24.0332 C   0  0  1  0  0  0
  -20.5891  -28.3697   23.1280 C   0  0  2  0  0  0
  -20.6784  -26.9414   22.5418 C   0  0  0  0  0  0
  -19.5763  -26.6377   21.5221 C   0  0  0  0  0  0
  -18.1943  -26.7924   22.1630 C   0  0  0  0  0  0
  -19.1542  -28.8862   23.2873 C   0  0  0  0  0  0
  -18.9465  -30.1466   23.8883 C   0  0  0  0  0  0
  -17.6463  -30.6589   24.0557 C   0  0  0  0  0  0
  -25.9051  -34.9451   23.5115 C   0  0  0  0  0  0
  -16.5355  -29.9085   23.6327 C   0  0  0  0  0  0
  -16.7280  -28.6502   23.0351 C   0  0  0  0  0  0
  -26.4505  -31.6587   25.0740 C   0  0  0  0  0  0
  -25.3731  -31.3716   26.1459 C   0  0  0  0  0  0
  -27.0356  -30.3010   24.6209 C   0  0  0  0  0  0
  -27.6062  -32.4327   25.7507 C   0  0  0  0  0  0
  -27.5578  -37.1801   24.8465 C   0  0  0  0  0  0
  -21.4206  -29.3045   22.3672 N   0  0  0  0  0  0
  -26.4293  -37.3777   23.9404 N   0  0  0  0  0  0
  -24.6932  -31.0580   22.0995 N   0  0  0  0  0  0
  -23.4213  -28.8147   23.3009 O   0  0  0  0  0  0
  -28.3052  -26.3963   20.2137 O   0  0  0  0  0  0
  -26.5612  -34.8915   22.4676 O   0  0  0  0  0  0
  -23.5448  -32.1395   23.7343 O   0  0  0  0  0  0
  -29.7926  -19.7120   18.6572 C   0  0  0  0  0  0
  -29.9006  -18.5145   17.9352 C   0  0  0  0  0  0
  -29.7132  -18.4110   20.7116 C   0  0  0  0  0  0
  -29.6674  -19.7084   20.0578 C   0  0  0  0  0  0
  -29.9102  -17.2562   18.5726 C   0  0  0  0  0  0
  -29.8656  -17.1546   19.9953 C   0  0  0  0  0  0
  -28.9423  -23.8194   20.5385 C   0  0  0  0  0  0
  -29.8889  -16.0441   17.6605 C   0  0  0  0  0  0
  -27.2073  -21.9376   20.1879 C   0  0  0  0  0  0
  -29.5703  -21.1168   20.7776 C   0  0  0  0  0  0
  -28.0127  -24.9579   19.9346 C   0  0  0  0  0  0
  -28.7032  -22.2990   20.1016 C   0  0  2  0  0  0
  -29.8319  -15.8251   20.6514 N   0  0  0  0  0  0
  -29.8445  -24.1047   21.3313 O   0  0  0  0  0  0
  -31.4785  -12.5245   19.1842 H   0  0  0  0  0  0
  -30.3754  -11.4383   19.9799 H   0  0  0  0  0  0
  -29.7762  -11.6230   17.5708 H   0  0  0  0  0  0
  -29.6852  -13.3463   17.6695 H   0  0  0  0  0  0
  -27.8535  -11.2782   18.9002 H   0  0  0  0  0  0
  -27.3898  -12.5397   17.7924 H   0  0  0  0  0  0
  -27.6465  -14.2471   19.4787 H   0  0  0  0  0  0
  -28.7127  -12.1421   21.4234 H   0  0  0  0  0  0
  -28.4306  -13.8212   21.8009 H   0  0  0  0  0  0
  -25.2753   -9.5686   22.4769 H   0  0  0  0  0  0
  -23.9997   -7.4632   22.7477 H   0  0  0  0  0  0
  -21.0838   -8.8757   19.8952 H   0  0  0  0  0  0
  -22.3681  -10.9667   19.6171 H   0  0  0  0  0  0
  -21.2009   -7.6147   23.9709 H   0  0  0  0  0  0
  -21.1488   -6.0523   25.9075 H   0  0  0  0  0  0
  -22.0600   -2.7605   23.2840 H   0  0  0  0  0  0
  -22.4092  -11.9913   22.4830 H   0  0  0  0  0  0
  -21.1092  -13.1266   22.2597 H   0  0  0  0  0  0
  -24.6632  -15.8486   20.5265 H   0  0  0  0  0  0
  -26.2751  -15.6267   20.0738 H   0  0  0  0  0  0
  -26.7199  -32.5435   23.1119 H   0  0  0  0  0  0
  -25.0079  -33.9730   25.0441 H   0  0  0  0  0  0
  -22.7195  -31.3051   21.4046 H   0  0  0  0  0  0
  -23.3752  -35.9618   23.3308 H   0  0  0  0  0  0
  -24.3576  -36.8908   22.2054 H   0  0  0  0  0  0
  -23.7229  -37.6491   23.6659 H   0  0  0  0  0  0
  -26.1094  -31.5436   20.6150 H   0  0  0  0  0  0
  -26.8469  -30.8257   22.0147 H   0  0  0  0  0  0
  -28.1093  -28.9421   21.2255 H   0  0  0  0  0  0
  -25.9520  -25.9592   18.9432 H   0  0  0  0  0  0
  -23.9765  -27.3399   18.9721 H   0  0  0  0  0  0
  -23.7654  -30.6042   19.4066 H   0  0  0  0  0  0
  -22.7609  -29.2579   19.8517 H   0  0  0  0  0  0
  -25.1295  -36.1948   25.0825 H   0  0  0  0  0  0
  -20.9979  -28.3281   24.1403 H   0  0  0  0  0  0
  -20.5681  -26.2309   23.3628 H   0  0  0  0  0  0
  -21.6653  -26.7440   22.1215 H   0  0  0  0  0  0
  -19.6926  -25.6280   21.1274 H   0  0  0  0  0  0
  -19.6702  -27.3171   20.6741 H   0  0  0  0  0  0
  -17.4215  -26.6658   21.4033 H   0  0  0  0  0  0
  -18.0353  -26.0072   22.9036 H   0  0  0  0  0  0
  -19.7940  -30.7286   24.2247 H   0  0  0  0  0  0
  -17.5016  -31.6269   24.5160 H   0  0  0  0  0  0
  -15.5354  -30.2986   23.7650 H   0  0  0  0  0  0
  -15.8680  -28.0816   22.7077 H   0  0  0  0  0  0
  -24.5917  -30.7057   25.7775 H   0  0  0  0  0  0
  -24.8910  -32.2875   26.4883 H   0  0  0  0  0  0
  -25.8054  -30.8890   27.0232 H   0  0  0  0  0  0
  -26.2943  -29.6753   24.1224 H   0  0  0  0  0  0
  -27.4041  -29.7271   25.4720 H   0  0  0  0  0  0
  -27.8819  -30.4301   23.9459 H   0  0  0  0  0  0
  -27.2678  -33.3637   26.2070 H   0  0  0  0  0  0
  -28.3874  -32.6872   25.0329 H   0  0  0  0  0  0
  -28.0727  -31.8458   26.5428 H   0  0  0  0  0  0
  -28.2599  -38.0097   24.7519 H   0  0  0  0  0  0
  -28.1076  -36.2626   24.6297 H   0  0  0  0  0  0
  -27.2291  -37.1458   25.8868 H   0  0  0  0  0  0
  -20.9389  -29.8789   21.6895 H   0  0  0  0  0  0
  -26.0179  -38.2854   24.1408 H   0  0  0  0  0  0
  -29.8002  -20.6412   18.1064 H   0  0  0  0  0  0
  -29.9543  -18.5741   16.8562 H   0  0  0  0  0  0
  -29.6355  -18.3808   21.7892 H   0  0  0  0  0  0
  -29.0408  -15.4128   17.9186 H   0  0  0  0  0  0
  -30.8146  -15.4754   17.7317 H   0  0  0  0  0  0
  -29.7643  -16.3261   16.6146 H   0  0  0  0  0  0
  -26.5813  -22.6174   19.6098 H   0  0  0  0  0  0
  -26.8568  -21.9525   21.2206 H   0  0  0  0  0  0
  -27.0258  -20.9370   19.7943 H   0  0  0  0  0  0
  -30.5958  -21.4716   20.8904 H   0  0  0  0  0  0
  -29.2127  -20.9517   21.7943 H   0  0  0  0  0  0
  -27.0220  -24.7325   20.3281 H   0  0  0  0  0  0
  -27.9688  -24.8143   18.8554 H   0  0  0  0  0  0
  -28.9658  -22.3217   19.0458 H   0  0  0  0  0  0
  -28.9757  -15.6288   21.1483 H   0  0  0  0  0  0
  1 25  1  0  0  0
  1 30  2  0  0  0
  1 83  1  0  0  0
  2  3  1  0  0  0
  2 25  1  0  0  0
  2 85  1  0  0  0
  2 86  1  0  0  0
  3  4  1  0  0  0
  3 87  1  0  0  0
  3 88  1  0  0  0
  4  5  1  0  0  0
  4 89  1  0  0  0
  4 90  1  0  0  0
  5  6  1  0  0  0
  5 26  1  0  0  0
  5 91  1  0  0  0
  6 25  1  0  0  0
  6 92  1  0  0  0
  6 93  1  0  0  0
  7  8  2  0  0  0
  7 26  1  0  0  0
  7 29  1  0  0  0
  8  9  1  0  0  0
  8 22  1  0  0  0
  9 10  1  0  0  0
  9 27  2  0  0  0
 10 11  2  0  0  0
 10 15  1  0  0  0
 11 12  1  0  0  0
 11 94  1  0  0  0
 12 13  2  0  0  0
 12 95  1  0  0  0
 13 14  1  0  0  0
 13 31  1  0  0  0
 14 15  2  0  0  0
 14 96  1  0  0  0
 15 97  1  0  0  0
 16 17  2  0  0  0
 16 21  1  0  0  0
 16 31  1  0  0  0
 17 18  1  0  0  0
 17 98  1  0  0  0
 18 19  2  0  0  0
 18 99  1  0  0  0
 19 20  1  0  0  0
 19 24  1  0  0  0
 20 21  2  0  0  0
 20100  1  0  0  0
 21 23  1  0  0  0
 22 28  1  0  0  0
 22 32  2  0  0  0
 26 27  1  0  0  0
 28101  1  0  0  0
 28102  1  0  0  0
 29103  1  0  0  0
 29104  1  0  0  0
 33 34  1  0  0  0
 33 66  1  0  0  0
 33 70  2  0  0  0
 34 36  1  0  0  0
 34 59  1  0  0  0
 34105  1  0  0  0
 35 44  2  0  0  0
 35 45  1  0  0  0
 35 68  1  0  0  0
 36 56  1  0  0  0
 36106  1  0  0  0
 37 39  1  0  0  0
 37 47  1  0  0  0
 37 66  1  0  0  0
 37107  1  0  0  0
 38 43  2  0  0  0
 38 46  1  0  0  0
 38 47  1  0  0  0
 39 64  1  0  0  0
 39 67  2  0  0  0
 40 52  1  0  0  0
 40 53  2  0  0  0
 40 58  1  0  0  0
 41108  1  0  0  0
 41109  1  0  0  0
 41110  1  0  0  0
 41 48  1  0  0  0
 42 43  1  0  0  0
 42 66  1  0  0  0
 42111  1  0  0  0
 42112  1  0  0  0
 43 44  1  0  0  0
 44113  1  0  0  0
 45 46  2  0  0  0
 45114  1  0  0  0
 46115  1  0  0  0
 47116  1  0  0  0
 47117  1  0  0  0
 48 56  1  0  0  0
 48 65  1  0  0  0
 48118  1  0  0  0
 49 50  1  0  0  0
 49 53  1  0  0  0
 49 64  1  0  0  0
 49119  1  0  0  0
 50 51  1  0  0  0
 50120  1  0  0  0
 50121  1  0  0  0
 51 52  1  0  0  0
 51122  1  0  0  0
 51123  1  0  0  0
 52124  1  0  0  0
 52125  1  0  0  0
 53 54  1  0  0  0
 54 55  2  0  0  0
 54126  1  0  0  0
 55 57  1  0  0  0
 55127  1  0  0  0
 56 69  2  0  0  0
 57 58  2  0  0  0
 57128  1  0  0  0
 58129  1  0  0  0
 59 60  1  0  0  0
 59 61  1  0  0  0
 59 62  1  0  0  0
 60130  1  0  0  0
 60131  1  0  0  0
 60132  1  0  0  0
 61133  1  0  0  0
 61134  1  0  0  0
 61135  1  0  0  0
 62136  1  0  0  0
 62137  1  0  0  0
 62138  1  0  0  0
 63 65  1  0  0  0
 63139  1  0  0  0
 63140  1  0  0  0
 63141  1  0  0  0
 64142  1  0  0  0
 65143  1  0  0  0
 68 81  1  0  0  0
 71 72  2  0  0  0
 71 74  1  0  0  0
 71144  1  0  0  0
 72 75  1  0  0  0
 72145  1  0  0  0
 73 74  2  0  0  0
 73 76  1  0  0  0
 73146  1  0  0  0
 74 80  1  0  0  0
 75 76  2  0  0  0
 75 78  1  0  0  0
 76 83  1  0  0  0
 77 81  1  0  0  0
 77 82  1  0  0  0
 77 84  2  0  0  0
 78147  1  0  0  0
 78148  1  0  0  0
 78149  1  0  0  0
 79150  1  0  0  0
 79151  1  0  0  0
 79152  1  0  0  0
 79 82  1  0  0  0
 80 82  1  0  0  0
 80153  1  0  0  0
 80154  1  0  0  0
 81155  1  0  0  0
 81156  1  0  0  0
 82157  1  0  0  0
 83158  1  0  0  0
M  ISO  4   1 100  68 101  81 101  83 100
M  END
> <chiral flag>
0

> <version>
0

> <s_m_source_file>
/data/baiqing/PycharmProjects/Reinvent-master-3.2/result/LINK_invent/BTK/process_docking_weight1_custom_product_contain_oxygen_bond_distance_aromatic_linkinvent_7_9_3/rearranged_h_0138.sdf

> <i_m_source_file_index>
45

> <r_mmod_Potential_Energy-OPLS-2005>
147.227081298828

> <r_mmod_Stretch_Energy-OPLS-2005>
106.936637878418

> <r_mmod_Bend_Energy-OPLS-2005>
145.010498046875

> <r_mmod_Torsional_Energy-OPLS-2005>
249.714614868164

> <r_mmod_Improper_Torsional_Energy-OPLS-2005>
5.48905944824219

> <r_mmod_Van_der_Waal_Energy-OPLS-2005>
145.738388061523

> <r_mmod_Electrostatic_Energy-OPLS-2005>
-350.81982421875

> <r_mmod_Solvation_Energy-OPLS-2005>
-228.25163269043

> <b_mmod_Minimization_Converged-OPLS-2005>
0

> <r_mmod_RMS_Derivative-OPLS-2005>
0.977686703205109

$$$$
45
                    3D
 Structure written by MMmdl.
169178  0  0  1  0            999 V2000
  -30.6387  -14.5693   20.4427 C   0  0  0  0  0  0
  -30.4208  -12.3231   19.4691 C   0  0  0  0  0  0
  -29.5187  -12.5000   18.2251 C   0  0  0  0  0  0
  -28.0257  -12.3990   18.6020 C   0  0  0  0  0  0
  -27.6564  -13.2261   19.8617 C   0  0  2  0  0  0
  -28.6931  -13.0588   20.9989 C   0  0  0  0  0  0
  -25.2557  -13.8192   20.5646 C   0  0  0  0  0  0
  -24.1831  -13.0472   20.9183 C   0  0  0  0  0  0
  -24.6384  -11.6930   20.8669 C   0  0  0  0  0  0
  -23.9030  -10.4309   21.0350 C   0  0  0  0  0  0
  -24.3597   -9.4256   21.9153 C   0  0  0  0  0  0
  -23.6280   -8.2267   22.0734 C   0  0  0  0  0  0
  -22.4268   -8.0301   21.3516 C   0  0  0  0  0  0
  -21.9891   -9.0251   20.4632 C   0  0  0  0  0  0
  -22.7194  -10.2144   20.3020 C   0  0  0  0  0  0
  -21.6860   -6.0742   22.5229 C   0  0  0  0  0  0
  -21.4024   -6.5623   23.8176 C   0  0  0  0  0  0
  -21.3677   -5.6781   24.9127 C   0  0  0  0  0  0
  -21.6046   -4.3033   24.7177 C   0  0  0  0  0  0
  -21.8817   -3.8152   23.4273 C   0  0  0  0  0  0
  -21.9205   -4.6967   22.3357 C   0  0  0  0  0  0
  -22.7839  -13.5258   21.1833 C   0  0  0  0  0  0
  -22.1669   -4.2167   21.0909 F   0  0  0  0  0  0
  -21.5646   -3.4531   25.7680 F   0  0  0  0  0  0
  -30.0237  -13.3538   20.4461 N   0  0  0  0  0  0
  -26.2993  -12.9391   20.3236 N   0  0  0  0  0  0
  -25.9311  -11.6537   20.5628 N   0  0  0  0  0  0
  -22.0447  -12.8257   22.0362 N   0  0  0  0  0  0
  -25.4298  -15.1889   20.4040 N   0  0  0  0  0  0
  -31.8020  -14.7212   20.0564 O   0  0  0  0  0  0
  -21.6632   -6.8899   21.4204 O   0  0  0  0  0  0
  -22.3516  -14.5571   20.6705 O   0  0  0  0  0  0
  -24.6157  -31.8657   23.2006 C   0  0  0  0  0  0
  -25.9056  -32.4794   23.8335 C   0  0  1  0  0  0
  -27.2508  -27.4218   20.1293 C   0  0  0  0  0  0
  -25.5903  -33.8583   24.2291 N   0  0  0  0  0  0
  -23.3998  -30.4826   21.5439 C   0  0  2  0  0  0
  -24.8501  -28.9386   20.1101 C   0  0  0  0  0  0
  -22.7398  -29.4651   22.5007 C   0  0  0  0  0  0
  -18.0270  -28.1400   22.8487 C   0  0  0  0  0  0
  -24.1475  -36.7305   23.2647 C   0  0  0  0  0  0
  -25.9219  -30.8326   21.3431 C   0  0  0  0  0  0
  -25.9989  -29.4576   20.7136 C   0  0  0  0  0  0
  -27.1923  -28.7028   20.7260 C   0  0  0  0  0  0
  -26.0883  -26.9161   19.5062 C   0  0  0  0  0  0
  -24.8902  -27.6693   19.4980 C   0  0  0  0  0  0
  -23.6024  -29.7981   20.1607 C   0  0  0  0  0  0
  -25.4086  -36.3092   24.0353 C   0  0  1  0  0  0
  -20.5863  -28.3678   23.1336 C   0  0  2  0  0  0
  -20.6750  -26.9413   22.5443 C   0  0  0  0  0  0
  -19.5724  -26.6409   21.5233 C   0  0  0  0  0  0
  -18.1897  -26.7937   22.1628 C   0  0  0  0  0  0
  -19.1524  -28.8849   23.2894 C   0  0  0  0  0  0
  -18.9451  -30.1469   23.8892 C   0  0  0  0  0  0
  -17.6460  -30.6589   24.0583 C   0  0  0  0  0  0
  -25.9019  -34.9466   23.5113 C   0  0  0  0  0  0
  -16.5345  -29.9095   23.6366 C   0  0  0  0  0  0
  -16.7268  -28.6523   23.0349 C   0  0  0  0  0  0
  -26.4466  -31.6568   25.0679 C   0  0  0  0  0  0
  -25.3739  -31.3729   26.1465 C   0  0  0  0  0  0
  -27.0291  -30.3013   24.6028 C   0  0  0  0  0  0
  -27.6082  -32.4257   25.7414 C   0  0  0  0  0  0
  -27.5560  -37.1797   24.8464 C   0  0  0  0  0  0
  -21.4133  -29.3025   22.3737 N   0  0  0  0  0  0
  -26.4261  -37.3793   23.9428 N   0  0  0  0  0  0
  -24.6647  -31.0763   22.0890 N   0  0  0  0  0  0
  -23.4168  -28.8242   23.3075 O   0  0  0  0  0  0
  -28.4543  -26.7431   20.2170 O   0  0  0  0  0  0
  -26.5589  -34.8930   22.4684 O   0  0  0  0  0  0
  -23.5354  -32.1431   23.7427 O   0  0  0  0  0  0
  -29.5965  -19.2399   18.3620 C   0  0  0  0  0  0
  -29.8492  -18.1363   20.5298 C   0  0  0  0  0  0
  -29.6092  -16.7953   18.5101 C   0  0  0  0  0  0
  -29.7740  -19.3410   19.7638 C   0  0  0  0  0  0
  -29.5376  -17.9740   17.7323 C   0  0  0  0  0  0
  -29.7825  -16.8547   19.9170 C   0  0  0  0  0  0
  -30.0934  -20.6614   20.3776 C   0  0  0  0  0  0
  -27.4739  -23.2286   20.1109 C   0  0  0  0  0  0
  -28.0900  -21.9291   19.5417 C   0  0  0  0  0  0
  -29.8889  -23.2612   20.2362 C   0  0  1  0  0  0
  -28.6428  -24.1777   20.5013 C   0  0  2  0  0  0
  -29.4575  -17.8689   16.2125 C   0  0  0  0  0  0
  -31.1315  -23.5872   21.0955 C   0  0  0  0  0  0
  -28.5247  -24.5614   22.0011 C   0  0  0  0  0  0
  -28.7063  -25.4719   19.5976 C   0  0  0  0  0  0
  -29.4132  -21.8403   20.1754 N   0  0  0  0  0  0
  -29.8451  -15.6435   20.7006 N   0  0  0  0  0  0
  -31.1724  -20.6730   21.1536 N   0  3  0  0  0  0
  -31.4762  -12.4026   19.2003 H   0  0  0  0  0  0
  -30.2965  -11.3260   19.8953 H   0  0  0  0  0  0
  -29.7647  -11.7499   17.4732 H   0  0  0  0  0  0
  -29.7132  -13.4656   17.7594 H   0  0  0  0  0  0
  -27.7842  -11.3486   18.7505 H   0  0  0  0  0  0
  -27.4155  -12.7314   17.7595 H   0  0  0  0  0  0
  -27.6789  -14.2690   19.5413 H   0  0  0  0  0  0
  -28.6692  -12.0438   21.3957 H   0  0  0  0  0  0
  -28.4492  -13.7081   21.8416 H   0  0  0  0  0  0
  -25.2753   -9.5800   22.4730 H   0  0  0  0  0  0
  -24.0048   -7.4693   22.7458 H   0  0  0  0  0  0
  -21.0834   -8.8763   19.8932 H   0  0  0  0  0  0
  -22.3649  -10.9679   19.6140 H   0  0  0  0  0  0
  -21.2019   -7.6142   23.9673 H   0  0  0  0  0  0
  -21.1500   -6.0495   25.9038 H   0  0  0  0  0  0
  -22.0601   -2.7624   23.2702 H   0  0  0  0  0  0
  -22.4108  -11.9978   22.4817 H   0  0  0  0  0  0
  -21.1075  -13.1321   22.2539 H   0  0  0  0  0  0
  -24.6641  -15.8463   20.5235 H   0  0  0  0  0  0
  -26.2621  -15.6136   20.0118 H   0  0  0  0  0  0
  -26.7137  -32.5510   23.1112 H   0  0  0  0  0  0
  -25.0082  -33.9688   25.0451 H   0  0  0  0  0  0
  -22.6894  -31.2997   21.4039 H   0  0  0  0  0  0
  -23.3713  -35.9657   23.3304 H   0  0  0  0  0  0
  -24.3593  -36.8917   22.2062 H   0  0  0  0  0  0
  -23.7224  -37.6517   23.6648 H   0  0  0  0  0  0
  -26.0114  -31.5800   20.5529 H   0  0  0  0  0  0
  -26.8177  -30.9114   21.9446 H   0  0  0  0  0  0
  -28.0704  -29.0983   21.2132 H   0  0  0  0  0  0
  -26.0871  -25.9434   19.0364 H   0  0  0  0  0  0
  -24.0128  -27.2593   19.0213 H   0  0  0  0  0  0
  -23.6831  -30.5616   19.3855 H   0  0  0  0  0  0
  -22.7262  -29.2024   19.8958 H   0  0  0  0  0  0
  -25.1243  -36.1960   25.0842 H   0  0  0  0  0  0
  -20.9950  -28.3246   24.1460 H   0  0  0  0  0  0
  -20.5683  -26.2270   23.3624 H   0  0  0  0  0  0
  -21.6619  -26.7475   22.1240 H   0  0  0  0  0  0
  -19.6872  -25.6328   21.1250 H   0  0  0  0  0  0
  -19.6656  -27.3228   20.6762 H   0  0  0  0  0  0
  -17.4192  -26.6753   21.3995 H   0  0  0  0  0  0
  -18.0233  -26.0082   22.9018 H   0  0  0  0  0  0
  -19.7933  -30.7299   24.2217 H   0  0  0  0  0  0
  -17.5024  -31.6262   24.5190 H   0  0  0  0  0  0
  -15.5345  -30.2995   23.7675 H   0  0  0  0  0  0
  -15.8675  -28.0863   22.7025 H   0  0  0  0  0  0
  -24.5839  -30.7137   25.7839 H   0  0  0  0  0  0
  -24.9020  -32.2922   26.4950 H   0  0  0  0  0  0
  -25.8114  -30.8879   27.0199 H   0  0  0  0  0  0
  -26.2822  -29.6735   24.1168 H   0  0  0  0  0  0
  -27.4157  -29.7285   25.4458 H   0  0  0  0  0  0
  -27.8596  -30.4328   23.9093 H   0  0  0  0  0  0
  -27.2772  -33.3597   26.1956 H   0  0  0  0  0  0
  -28.3910  -32.6724   25.0233 H   0  0  0  0  0  0
  -28.0714  -31.8380   26.5342 H   0  0  0  0  0  0
  -28.2612  -38.0062   24.7498 H   0  0  0  0  0  0
  -28.1014  -36.2599   24.6283 H   0  0  0  0  0  0
  -27.2317  -37.1486   25.8882 H   0  0  0  0  0  0
  -20.9289  -29.8703   21.6942 H   0  0  0  0  0  0
  -26.0142  -38.2879   24.1403 H   0  0  0  0  0  0
  -29.5695  -20.1338   17.7525 H   0  0  0  0  0  0
  -30.0052  -18.1923   21.5996 H   0  0  0  0  0  0
  -29.5380  -15.8412   18.0117 H   0  0  0  0  0  0
  -26.8633  -22.9782   20.9787 H   0  0  0  0  0  0
  -26.7938  -23.6882   19.3968 H   0  0  0  0  0  0
  -28.2234  -22.0188   18.4608 H   0  0  0  0  0  0
  -27.4588  -21.0598   19.7335 H   0  0  0  0  0  0
  -30.2077  -23.4498   19.2091 H   0  0  0  0  0  0
  -30.3902  -18.2120   15.7578 H   0  0  0  0  0  0
  -28.6303  -18.4528   15.8020 H   0  0  0  0  0  0
  -29.3113  -16.8376   15.8895 H   0  0  0  0  0  0
  -30.9877  -23.3791   22.1552 H   0  0  0  0  0  0
  -31.3757  -24.6450   21.0030 H   0  0  0  0  0  0
  -32.0115  -23.0547   20.7435 H   0  0  0  0  0  0
  -28.5763  -23.6839   22.6510 H   0  0  0  0  0  0
  -27.5779  -25.0629   22.2082 H   0  0  0  0  0  0
  -29.3261  -25.2423   22.3059 H   0  0  0  0  0  0
  -28.1856  -25.3473   18.6486 H   0  0  0  0  0  0
  -29.7446  -25.5990   19.2924 H   0  0  0  0  0  0
  -29.0208  -15.4472   21.2474 H   0  0  0  0  0  0
  -31.7499  -19.8450   21.2016 H   0  0  0  0  0  0
  -31.4264  -21.4837   21.6897 H   0  0  0  0  0  0
  1 25  1  0  0  0
  1 30  2  0  0  0
  1 87  1  0  0  0
  2  3  1  0  0  0
  2 25  1  0  0  0
  2 89  1  0  0  0
  2 90  1  0  0  0
  3  4  1  0  0  0
  3 91  1  0  0  0
  3 92  1  0  0  0
  4  5  1  0  0  0
  4 93  1  0  0  0
  4 94  1  0  0  0
  5  6  1  0  0  0
  5 26  1  0  0  0
  5 95  1  0  0  0
  6 25  1  0  0  0
  6 96  1  0  0  0
  6 97  1  0  0  0
  7  8  2  0  0  0
  7 26  1  0  0  0
  7 29  1  0  0  0
  8  9  1  0  0  0
  8 22  1  0  0  0
  9 10  1  0  0  0
  9 27  2  0  0  0
 10 11  2  0  0  0
 10 15  1  0  0  0
 11 12  1  0  0  0
 11 98  1  0  0  0
 12 13  2  0  0  0
 12 99  1  0  0  0
 13 14  1  0  0  0
 13 31  1  0  0  0
 14 15  2  0  0  0
 14100  1  0  0  0
 15101  1  0  0  0
 16 17  2  0  0  0
 16 21  1  0  0  0
 16 31  1  0  0  0
 17 18  1  0  0  0
 17102  1  0  0  0
 18 19  2  0  0  0
 18103  1  0  0  0
 19 20  1  0  0  0
 19 24  1  0  0  0
 20 21  2  0  0  0
 20104  1  0  0  0
 21 23  1  0  0  0
 22 28  1  0  0  0
 22 32  2  0  0  0
 26 27  1  0  0  0
 28105  1  0  0  0
 28106  1  0  0  0
 29107  1  0  0  0
 29108  1  0  0  0
 33 34  1  0  0  0
 33 66  1  0  0  0
 33 70  2  0  0  0
 34 36  1  0  0  0
 34 59  1  0  0  0
 34109  1  0  0  0
 35 44  2  0  0  0
 35 45  1  0  0  0
 35 68  1  0  0  0
 36 56  1  0  0  0
 36110  1  0  0  0
 37 39  1  0  0  0
 37 47  1  0  0  0
 37 66  1  0  0  0
 37111  1  0  0  0
 38 43  2  0  0  0
 38 46  1  0  0  0
 38 47  1  0  0  0
 39 64  1  0  0  0
 39 67  2  0  0  0
 40 52  1  0  0  0
 40 53  2  0  0  0
 40 58  1  0  0  0
 41112  1  0  0  0
 41113  1  0  0  0
 41114  1  0  0  0
 41 48  1  0  0  0
 42 43  1  0  0  0
 42 66  1  0  0  0
 42115  1  0  0  0
 42116  1  0  0  0
 43 44  1  0  0  0
 44117  1  0  0  0
 45 46  2  0  0  0
 45118  1  0  0  0
 46119  1  0  0  0
 47120  1  0  0  0
 47121  1  0  0  0
 48 56  1  0  0  0
 48 65  1  0  0  0
 48122  1  0  0  0
 49 50  1  0  0  0
 49 53  1  0  0  0
 49 64  1  0  0  0
 49123  1  0  0  0
 50 51  1  0  0  0
 50124  1  0  0  0
 50125  1  0  0  0
 51 52  1  0  0  0
 51126  1  0  0  0
 51127  1  0  0  0
 52128  1  0  0  0
 52129  1  0  0  0
 53 54  1  0  0  0
 54 55  2  0  0  0
 54130  1  0  0  0
 55 57  1  0  0  0
 55131  1  0  0  0
 56 69  2  0  0  0
 57 58  2  0  0  0
 57132  1  0  0  0
 58133  1  0  0  0
 59 60  1  0  0  0
 59 61  1  0  0  0
 59 62  1  0  0  0
 60134  1  0  0  0
 60135  1  0  0  0
 60136  1  0  0  0
 61137  1  0  0  0
 61138  1  0  0  0
 61139  1  0  0  0
 62140  1  0  0  0
 62141  1  0  0  0
 62142  1  0  0  0
 63 65  1  0  0  0
 63143  1  0  0  0
 63144  1  0  0  0
 63145  1  0  0  0
 64146  1  0  0  0
 65147  1  0  0  0
 68 85  1  0  0  0
 71 74  2  0  0  0
 71 75  1  0  0  0
 71148  1  0  0  0
 72 74  1  0  0  0
 72 76  2  0  0  0
 72149  1  0  0  0
 73 75  2  0  0  0
 73 76  1  0  0  0
 73150  1  0  0  0
 74 77  1  0  0  0
 75 82  1  0  0  0
 76 87  1  0  0  0
 77 86  1  0  0  0
 77 88  2  0  0  0
 78 79  1  0  0  0
 78 81  1  0  0  0
 78151  1  0  0  0
 78152  1  0  0  0
 79 86  1  0  0  0
 79153  1  0  0  0
 79154  1  0  0  0
 80 81  1  0  0  0
 80 83  1  0  0  0
 80 86  1  0  0  0
 80155  1  0  0  0
 81 84  1  0  0  0
 81 85  1  0  0  0
 82156  1  0  0  0
 82157  1  0  0  0
 82158  1  0  0  0
 83159  1  0  0  0
 83160  1  0  0  0
 83161  1  0  0  0
 84162  1  0  0  0
 84163  1  0  0  0
 84164  1  0  0  0
 85165  1  0  0  0
 85166  1  0  0  0
 87167  1  0  0  0
 88168  1  0  0  0
 88169  1  0  0  0
M  CHG  1  88   1
M  ISO  4   1 100  68 101  85 101  87 100
M  END
> <chiral flag>
0

> <version>
0

> <s_m_source_file>
/data/baiqing/PycharmProjects/Reinvent-master-3.2/result/LINK_invent/BTK/process_docking_weight1_custom_product_contain_oxygen_bond_distance_aromatic_linkinvent_7_9_3/rearranged_h_0138.sdf

> <i_m_source_file_index>
46

> <r_mmod_Potential_Energy-OPLS-2005>
5.83386707305908

> <r_mmod_Stretch_Energy-OPLS-2005>
55.4485282897949

> <r_mmod_Bend_Energy-OPLS-2005>
177.453475952148

> <r_mmod_Torsional_Energy-OPLS-2005>
371.950317382812

> <r_mmod_Improper_Torsional_Energy-OPLS-2005>
8.19505786895752

> <r_mmod_Van_der_Waal_Energy-OPLS-2005>
148.98454284668

> <r_mmod_Electrostatic_Energy-OPLS-2005>
-396.024871826172

> <r_mmod_Solvation_Energy-OPLS-2005>
-388.499267578125

> <b_mmod_Minimization_Converged-OPLS-2005>
0

> <r_mmod_RMS_Derivative-OPLS-2005>
6.65394306182861

$$$$
46
                    3D
 Structure written by MMmdl.
165174  0  0  1  0            999 V2000
  -30.6236  -14.6560   20.4583 C   0  0  0  0  0  0
  -30.4278  -12.3841   19.4793 C   0  0  0  0  0  0
  -29.5174  -12.5039   18.2365 C   0  0  0  0  0  0
  -28.0328  -12.3666   18.6315 C   0  0  0  0  0  0
  -27.6514  -13.2302   19.8639 C   0  0  2  0  0  0
  -28.6910  -13.1030   21.0003 C   0  0  0  0  0  0
  -25.2534  -13.8200   20.5686 C   0  0  0  0  0  0
  -24.1805  -13.0455   20.9182 C   0  0  0  0  0  0
  -24.6397  -11.6930   20.8746 C   0  0  0  0  0  0
  -23.9087  -10.4304   21.0428 C   0  0  0  0  0  0
  -24.3628   -9.4211   21.9203 C   0  0  0  0  0  0
  -23.6292   -8.2251   22.0760 C   0  0  0  0  0  0
  -22.4275   -8.0295   21.3550 C   0  0  0  0  0  0
  -21.9922   -9.0282   20.4657 C   0  0  0  0  0  0
  -22.7266  -10.2147   20.3074 C   0  0  0  0  0  0
  -21.6852   -6.0739   22.5277 C   0  0  0  0  0  0
  -21.4013   -6.5637   23.8207 C   0  0  0  0  0  0
  -21.3649   -5.6784   24.9168 C   0  0  0  0  0  0
  -21.6040   -4.3049   24.7207 C   0  0  0  0  0  0
  -21.8817   -3.8150   23.4329 C   0  0  0  0  0  0
  -21.9192   -4.6975   22.3389 C   0  0  0  0  0  0
  -22.7828  -13.5251   21.1843 C   0  0  0  0  0  0
  -22.1662   -4.2167   21.0965 F   0  0  0  0  0  0
  -21.5631   -3.4526   25.7718 F   0  0  0  0  0  0
  -30.0094  -13.4290   20.4385 N   0  0  0  0  0  0
  -26.2968  -12.9405   20.3305 N   0  0  0  0  0  0
  -25.9330  -11.6553   20.5751 N   0  0  0  0  0  0
  -22.0451  -12.8267   22.0410 N   0  0  0  0  0  0
  -25.4267  -15.1919   20.4123 N   0  0  0  0  0  0
  -31.7879  -14.7867   20.0677 O   0  0  0  0  0  0
  -21.6639   -6.8891   21.4240 O   0  0  0  0  0  0
  -22.3526  -14.5570   20.6700 O   0  0  0  0  0  0
  -24.6279  -31.8584   23.2034 C   0  0  0  0  0  0
  -25.9128  -32.4764   23.8362 C   0  0  1  0  0  0
  -27.2204  -27.3132   20.1101 C   0  0  0  0  0  0
  -25.5935  -33.8564   24.2274 N   0  0  0  0  0  0
  -23.4211  -30.4838   21.5457 C   0  0  2  0  0  0
  -24.8667  -28.9423   20.1078 C   0  0  0  0  0  0
  -22.7481  -29.4613   22.4932 C   0  0  0  0  0  0
  -18.0290  -28.1385   22.8483 C   0  0  0  0  0  0
  -24.1482  -36.7281   23.2638 C   0  0  0  0  0  0
  -25.9637  -30.7872   21.3764 C   0  0  0  0  0  0
  -26.0370  -29.4156   20.7147 C   0  0  0  0  0  0
  -27.2171  -28.6122   20.7071 C   0  0  0  0  0  0
  -26.0298  -26.9027   19.4679 C   0  0  0  0  0  0
  -24.8659  -27.6914   19.4743 C   0  0  0  0  0  0
  -23.6353  -29.8217   20.1598 C   0  0  0  0  0  0
  -25.4105  -36.3057   24.0320 C   0  0  1  0  0  0
  -20.5888  -28.3684   23.1278 C   0  0  2  0  0  0
  -20.6776  -26.9407   22.5402 C   0  0  0  0  0  0
  -19.5749  -26.6385   21.5207 C   0  0  0  0  0  0
  -18.1932  -26.7936   22.1618 C   0  0  0  0  0  0
  -19.1546  -28.8854   23.2878 C   0  0  0  0  0  0
  -18.9464  -30.1461   23.8896 C   0  0  0  0  0  0
  -17.6465  -30.6587   24.0561 C   0  0  0  0  0  0
  -25.9048  -34.9434   23.5090 C   0  0  0  0  0  0
  -16.5355  -29.9082   23.6335 C   0  0  0  0  0  0
  -16.7277  -28.6499   23.0354 C   0  0  0  0  0  0
  -26.4517  -31.6581   25.0737 C   0  0  0  0  0  0
  -25.3761  -31.3722   26.1470 C   0  0  0  0  0  0
  -27.0361  -30.3000   24.6203 C   0  0  0  0  0  0
  -27.6069  -32.4324   25.7510 C   0  0  0  0  0  0
  -27.5562  -37.1793   24.8462 C   0  0  0  0  0  0
  -21.4190  -29.3038   22.3668 N   0  0  0  0  0  0
  -26.4273  -37.3758   23.9405 N   0  0  0  0  0  0
  -24.6895  -31.0603   22.0979 N   0  0  0  0  0  0
  -23.4203  -28.8147   23.3007 O   0  0  0  0  0  0
  -28.3256  -26.4454   20.1669 O   0  0  0  0  0  0
  -26.5612  -34.8903   22.4653 O   0  0  0  0  0  0
  -23.5443  -32.1379   23.7365 O   0  0  0  0  0  0
  -29.1199  -19.2326   18.3157 C   0  0  0  0  0  0
  -29.4235  -16.8220   18.6028 C   0  0  0  0  0  0
  -29.6572  -18.3317   20.5068 C   0  0  0  0  0  0
  -29.1258  -17.9276   17.7835 C   0  0  0  0  0  0
  -29.3973  -19.4921   19.6787 C   0  0  0  0  0  0
  -29.6956  -16.9803   19.9804 C   0  0  0  0  0  0
  -28.3964  -22.7324   21.5173 C   0  0  0  0  0  0
  -30.1490  -23.2976   19.7976 C   0  0  0  0  0  0
  -28.1887  -21.3635   20.7781 C   0  0  0  0  0  0
  -29.8290  -21.9007   19.1664 C   0  0  0  0  0  0
  -29.0874  -23.9380   20.7588 C   0  0  0  0  0  0
  -28.7797  -17.7257   16.3211 C   0  0  0  0  0  0
  -29.8509  -24.7592   21.8236 C   0  0  0  0  0  0
  -28.0727  -24.9792   20.0798 C   0  0  0  0  0  0
  -29.4131  -20.8641   20.1391 N   0  0  0  0  0  0
  -29.8594  -15.7548   20.7736 N   0  0  0  0  0  0
  -31.4775  -12.4755   19.1950 H   0  0  0  0  0  0
  -30.3284  -11.3966   19.9318 H   0  0  0  0  0  0
  -29.7798  -11.7456   17.4978 H   0  0  0  0  0  0
  -29.6833  -13.4664   17.7506 H   0  0  0  0  0  0
  -27.8405  -11.3132   18.8402 H   0  0  0  0  0  0
  -27.3984  -12.6275   17.7834 H   0  0  0  0  0  0
  -27.6662  -14.2664   19.5267 H   0  0  0  0  0  0
  -28.6916  -12.0906   21.4043 H   0  0  0  0  0  0
  -28.4387  -13.7575   21.8363 H   0  0  0  0  0  0
  -25.2761   -9.5670   22.4795 H   0  0  0  0  0  0
  -23.9983   -7.4626   22.7466 H   0  0  0  0  0  0
  -21.0850   -8.8833   19.8953 H   0  0  0  0  0  0
  -22.3748  -10.9704   19.6189 H   0  0  0  0  0  0
  -21.2013   -7.6144   23.9708 H   0  0  0  0  0  0
  -21.1475   -6.0519   25.9068 H   0  0  0  0  0  0
  -22.0614   -2.7613   23.2826 H   0  0  0  0  0  0
  -22.4034  -11.9920   22.4804 H   0  0  0  0  0  0
  -21.1085  -13.1341   22.2628 H   0  0  0  0  0  0
  -24.6599  -15.8480   20.5121 H   0  0  0  0  0  0
  -26.2788  -15.6290   20.0855 H   0  0  0  0  0  0
  -26.7195  -32.5430   23.1111 H   0  0  0  0  0  0
  -25.0091  -33.9715   25.0422 H   0  0  0  0  0  0
  -22.7151  -31.3046   21.4043 H   0  0  0  0  0  0
  -23.3731  -35.9628   23.3308 H   0  0  0  0  0  0
  -24.3571  -36.8903   22.2051 H   0  0  0  0  0  0
  -23.7265  -37.6491   23.6670 H   0  0  0  0  0  0
  -26.0999  -31.5541   20.6127 H   0  0  0  0  0  0
  -26.8413  -30.8319   22.0094 H   0  0  0  0  0  0
  -28.1122  -28.9678   21.1974 H   0  0  0  0  0  0
  -25.9725  -25.9517   18.9611 H   0  0  0  0  0  0
  -23.9713  -27.3264   18.9883 H   0  0  0  0  0  0
  -23.7536  -30.5993   19.4039 H   0  0  0  0  0  0
  -22.7554  -29.2508   19.8570 H   0  0  0  0  0  0
  -25.1289  -36.1890   25.0813 H   0  0  0  0  0  0
  -20.9988  -28.3260   24.1395 H   0  0  0  0  0  0
  -20.5675  -26.2292   23.3598 H   0  0  0  0  0  0
  -21.6646  -26.7436   22.1200 H   0  0  0  0  0  0
  -19.6906  -25.6297   21.1240 H   0  0  0  0  0  0
  -19.6688  -27.3191   20.6735 H   0  0  0  0  0  0
  -17.4197  -26.6685   21.4022 H   0  0  0  0  0  0
  -18.0326  -26.0080   22.9013 H   0  0  0  0  0  0
  -19.7941  -30.7279   24.2258 H   0  0  0  0  0  0
  -17.5018  -31.6273   24.5158 H   0  0  0  0  0  0
  -15.5355  -30.2977   23.7670 H   0  0  0  0  0  0
  -15.8678  -28.0818   22.7071 H   0  0  0  0  0  0
  -24.5929  -30.7073   25.7811 H   0  0  0  0  0  0
  -24.8974  -32.2895   26.4910 H   0  0  0  0  0  0
  -25.8107  -30.8895   27.0235 H   0  0  0  0  0  0
  -26.2934  -29.6743   24.1238 H   0  0  0  0  0  0
  -27.4058  -29.7265   25.4715 H   0  0  0  0  0  0
  -27.8810  -30.4270   23.9429 H   0  0  0  0  0  0
  -27.2662  -33.3610   26.2101 H   0  0  0  0  0  0
  -28.3878  -32.6908   25.0345 H   0  0  0  0  0  0
  -28.0743  -31.8453   26.5425 H   0  0  0  0  0  0
  -28.2582  -38.0082   24.7487 H   0  0  0  0  0  0
  -28.1052  -36.2618   24.6304 H   0  0  0  0  0  0
  -27.2287  -37.1467   25.8866 H   0  0  0  0  0  0
  -20.9361  -29.8761   21.6884 H   0  0  0  0  0  0
  -26.0141  -38.2822   24.1420 H   0  0  0  0  0  0
  -28.8811  -20.0387   17.6371 H   0  0  0  0  0  0
  -29.4013  -15.8322   18.1684 H   0  0  0  0  0  0
  -29.8423  -18.4837   21.5605 H   0  0  0  0  0  0
  -28.9990  -22.4867   22.3930 H   0  0  0  0  0  0
  -27.4431  -23.0564   21.9363 H   0  0  0  0  0  0
  -30.3842  -24.0047   19.0013 H   0  0  0  0  0  0
  -31.0861  -23.1717   20.3405 H   0  0  0  0  0  0
  -27.4069  -21.4741   20.0232 H   0  0  0  0  0  0
  -27.8209  -20.6189   21.4868 H   0  0  0  0  0  0
  -30.7081  -21.5528   18.6206 H   0  0  0  0  0  0
  -29.0443  -22.0418   18.4210 H   0  0  0  0  0  0
  -29.3873  -18.3729   15.6872 H   0  0  0  0  0  0
  -27.7309  -17.9712   16.1485 H   0  0  0  0  0  0
  -28.9414  -16.6962   16.0000 H   0  0  0  0  0  0
  -30.5495  -24.1449   22.3930 H   0  0  0  0  0  0
  -29.1660  -25.2175   22.5385 H   0  0  0  0  0  0
  -30.4356  -25.5579   21.3658 H   0  0  0  0  0  0
  -27.1078  -24.7984   20.5530 H   0  0  0  0  0  0
  -27.9351  -24.7107   19.0323 H   0  0  0  0  0  0
  -29.0503  -15.5245   21.3305 H   0  0  0  0  0  0
  1 25  1  0  0  0
  1 30  2  0  0  0
  1 86  1  0  0  0
  2  3  1  0  0  0
  2 25  1  0  0  0
  2 87  1  0  0  0
  2 88  1  0  0  0
  3  4  1  0  0  0
  3 89  1  0  0  0
  3 90  1  0  0  0
  4  5  1  0  0  0
  4 91  1  0  0  0
  4 92  1  0  0  0
  5  6  1  0  0  0
  5 26  1  0  0  0
  5 93  1  0  0  0
  6 25  1  0  0  0
  6 94  1  0  0  0
  6 95  1  0  0  0
  7  8  2  0  0  0
  7 26  1  0  0  0
  7 29  1  0  0  0
  8  9  1  0  0  0
  8 22  1  0  0  0
  9 10  1  0  0  0
  9 27  2  0  0  0
 10 11  2  0  0  0
 10 15  1  0  0  0
 11 12  1  0  0  0
 11 96  1  0  0  0
 12 13  2  0  0  0
 12 97  1  0  0  0
 13 14  1  0  0  0
 13 31  1  0  0  0
 14 15  2  0  0  0
 14 98  1  0  0  0
 15 99  1  0  0  0
 16 17  2  0  0  0
 16 21  1  0  0  0
 16 31  1  0  0  0
 17 18  1  0  0  0
 17100  1  0  0  0
 18 19  2  0  0  0
 18101  1  0  0  0
 19 20  1  0  0  0
 19 24  1  0  0  0
 20 21  2  0  0  0
 20102  1  0  0  0
 21 23  1  0  0  0
 22 28  1  0  0  0
 22 32  2  0  0  0
 26 27  1  0  0  0
 28103  1  0  0  0
 28104  1  0  0  0
 29105  1  0  0  0
 29106  1  0  0  0
 33 34  1  0  0  0
 33 66  1  0  0  0
 33 70  2  0  0  0
 34 36  1  0  0  0
 34 59  1  0  0  0
 34107  1  0  0  0
 35 44  2  0  0  0
 35 45  1  0  0  0
 35 68  1  0  0  0
 36 56  1  0  0  0
 36108  1  0  0  0
 37 39  1  0  0  0
 37 47  1  0  0  0
 37 66  1  0  0  0
 37109  1  0  0  0
 38 43  2  0  0  0
 38 46  1  0  0  0
 38 47  1  0  0  0
 39 64  1  0  0  0
 39 67  2  0  0  0
 40 52  1  0  0  0
 40 53  2  0  0  0
 40 58  1  0  0  0
 41110  1  0  0  0
 41111  1  0  0  0
 41112  1  0  0  0
 41 48  1  0  0  0
 42 43  1  0  0  0
 42 66  1  0  0  0
 42113  1  0  0  0
 42114  1  0  0  0
 43 44  1  0  0  0
 44115  1  0  0  0
 45 46  2  0  0  0
 45116  1  0  0  0
 46117  1  0  0  0
 47118  1  0  0  0
 47119  1  0  0  0
 48 56  1  0  0  0
 48 65  1  0  0  0
 48120  1  0  0  0
 49 50  1  0  0  0
 49 53  1  0  0  0
 49 64  1  0  0  0
 49121  1  0  0  0
 50 51  1  0  0  0
 50122  1  0  0  0
 50123  1  0  0  0
 51 52  1  0  0  0
 51124  1  0  0  0
 51125  1  0  0  0
 52126  1  0  0  0
 52127  1  0  0  0
 53 54  1  0  0  0
 54 55  2  0  0  0
 54128  1  0  0  0
 55 57  1  0  0  0
 55129  1  0  0  0
 56 69  2  0  0  0
 57 58  2  0  0  0
 57130  1  0  0  0
 58131  1  0  0  0
 59 60  1  0  0  0
 59 61  1  0  0  0
 59 62  1  0  0  0
 60132  1  0  0  0
 60133  1  0  0  0
 60134  1  0  0  0
 61135  1  0  0  0
 61136  1  0  0  0
 61137  1  0  0  0
 62138  1  0  0  0
 62139  1  0  0  0
 62140  1  0  0  0
 63 65  1  0  0  0
 63141  1  0  0  0
 63142  1  0  0  0
 63143  1  0  0  0
 64144  1  0  0  0
 65145  1  0  0  0
 68 84  1  0  0  0
 71 74  2  0  0  0
 71 75  1  0  0  0
 71146  1  0  0  0
 72 74  1  0  0  0
 72 76  2  0  0  0
 72147  1  0  0  0
 73 75  2  0  0  0
 73 76  1  0  0  0
 73148  1  0  0  0
 74 82  1  0  0  0
 75 85  1  0  0  0
 76 86  1  0  0  0
 77 79  1  0  0  0
 77 81  1  0  0  0
 77149  1  0  0  0
 77150  1  0  0  0
 78 80  1  0  0  0
 78 81  1  0  0  0
 78151  1  0  0  0
 78152  1  0  0  0
 79 85  1  0  0  0
 79153  1  0  0  0
 79154  1  0  0  0
 80 85  1  0  0  0
 80155  1  0  0  0
 80156  1  0  0  0
 81 83  1  0  0  0
 81 84  1  0  0  0
 82157  1  0  0  0
 82158  1  0  0  0
 82159  1  0  0  0
 83160  1  0  0  0
 83161  1  0  0  0
 83162  1  0  0  0
 84163  1  0  0  0
 84164  1  0  0  0
 86165  1  0  0  0
M  ISO  4   1 100  68 101  84 101  86 100
M  END
> <chiral flag>
0

> <version>
0

> <s_m_source_file>
/data/baiqing/PycharmProjects/Reinvent-master-3.2/result/LINK_invent/BTK/process_docking_weight1_custom_product_contain_oxygen_bond_distance_aromatic_linkinvent_7_9_3/rearranged_h_0138.sdf

> <i_m_source_file_index>
47

> <r_mmod_Potential_Energy-OPLS-2005>
213.985321044922

> <r_mmod_Stretch_Energy-OPLS-2005>
90.9838943481445

> <r_mmod_Bend_Energy-OPLS-2005>
151.637405395508

> <r_mmod_Torsional_Energy-OPLS-2005>
320.032501220703

> <r_mmod_Improper_Torsional_Energy-OPLS-2005>
11.4445352554321

> <r_mmod_Van_der_Waal_Energy-OPLS-2005>
153.851654052734

> <r_mmod_Electrostatic_Energy-OPLS-2005>
-345.831359863281

> <r_mmod_Solvation_Energy-OPLS-2005>
-222.698623657227

> <b_mmod_Minimization_Converged-OPLS-2005>
0

> <r_mmod_RMS_Derivative-OPLS-2005>
2.1479868888855

$$$$
47
                    3D
 Structure written by MMmdl.
160168  0  0  1  0            999 V2000
  -30.6369  -14.6312   20.4919 C   0  0  0  0  0  0
  -30.4304  -12.3816   19.4649 C   0  0  0  0  0  0
  -29.5074  -12.5051   18.2323 C   0  0  0  0  0  0
  -28.0302  -12.3445   18.6405 C   0  0  0  0  0  0
  -27.6534  -13.2121   19.8707 C   0  0  2  0  0  0
  -28.6969  -13.0803   21.0039 C   0  0  0  0  0  0
  -25.2566  -13.8159   20.5709 C   0  0  0  0  0  0
  -24.1823  -13.0430   20.9191 C   0  0  0  0  0  0
  -24.6387  -11.6900   20.8749 C   0  0  0  0  0  0
  -23.9054  -10.4290   21.0412 C   0  0  0  0  0  0
  -24.3607   -9.4205   21.9188 C   0  0  0  0  0  0
  -23.6287   -8.2238   22.0753 C   0  0  0  0  0  0
  -22.4267   -8.0281   21.3545 C   0  0  0  0  0  0
  -21.9906   -9.0252   20.4643 C   0  0  0  0  0  0
  -22.7231  -10.2133   20.3055 C   0  0  0  0  0  0
  -21.6848   -6.0739   22.5280 C   0  0  0  0  0  0
  -21.4011   -6.5641   23.8216 C   0  0  0  0  0  0
  -21.3659   -5.6791   24.9176 C   0  0  0  0  0  0
  -21.6045   -4.3054   24.7228 C   0  0  0  0  0  0
  -21.8819   -3.8149   23.4348 C   0  0  0  0  0  0
  -21.9190   -4.6966   22.3406 C   0  0  0  0  0  0
  -22.7847  -13.5230   21.1850 C   0  0  0  0  0  0
  -22.1658   -4.2154   21.0982 F   0  0  0  0  0  0
  -21.5631   -3.4537   25.7740 F   0  0  0  0  0  0
  -30.0165  -13.4095   20.4433 N   0  0  0  0  0  0
  -26.2990  -12.9328   20.3367 N   0  0  0  0  0  0
  -25.9317  -11.6486   20.5784 N   0  0  0  0  0  0
  -22.0484  -12.8224   22.0403 N   0  0  0  0  0  0
  -25.4296  -15.1881   20.4151 N   0  0  0  0  0  0
  -31.7767  -14.7884   20.0435 O   0  0  0  0  0  0
  -21.6631   -6.8879   21.4240 O   0  0  0  0  0  0
  -22.3538  -14.5540   20.6699 O   0  0  0  0  0  0
  -24.6239  -31.8592   23.2027 C   0  0  0  0  0  0
  -25.9097  -32.4772   23.8351 C   0  0  1  0  0  0
  -27.2363  -27.3416   20.1071 C   0  0  0  0  0  0
  -25.5926  -33.8575   24.2286 N   0  0  0  0  0  0
  -23.4162  -30.4806   21.5434 C   0  0  2  0  0  0
  -24.8645  -28.9321   20.1077 C   0  0  0  0  0  0
  -22.7454  -29.4619   22.4943 C   0  0  0  0  0  0
  -18.0278  -28.1382   22.8486 C   0  0  0  0  0  0
  -24.1486  -36.7288   23.2638 C   0  0  0  0  0  0
  -25.9525  -30.7942   21.3702 C   0  0  0  0  0  0
  -26.0267  -29.4213   20.7156 C   0  0  0  0  0  0
  -27.2090  -28.6312   20.7148 C   0  0  0  0  0  0
  -26.0537  -26.8915   19.4801 C   0  0  0  0  0  0
  -24.8780  -27.6708   19.4857 C   0  0  0  0  0  0
  -23.6296  -29.8089   20.1592 C   0  0  0  0  0  0
  -25.4113  -36.3083   24.0331 C   0  0  1  0  0  0
  -20.5874  -28.3683   23.1285 C   0  0  2  0  0  0
  -20.6764  -26.9406   22.5411 C   0  0  0  0  0  0
  -19.5742  -26.6380   21.5210 C   0  0  0  0  0  0
  -18.1922  -26.7925   22.1622 C   0  0  0  0  0  0
  -19.1529  -28.8851   23.2878 C   0  0  0  0  0  0
  -18.9459  -30.1456   23.8889 C   0  0  0  0  0  0
  -17.6459  -30.6584   24.0564 C   0  0  0  0  0  0
  -25.9049  -34.9451   23.5110 C   0  0  0  0  0  0
  -16.5350  -29.9084   23.6330 C   0  0  0  0  0  0
  -16.7267  -28.6504   23.0347 C   0  0  0  0  0  0
  -26.4498  -31.6580   25.0717 C   0  0  0  0  0  0
  -25.3742  -31.3700   26.1451 C   0  0  0  0  0  0
  -27.0349  -30.3014   24.6154 C   0  0  0  0  0  0
  -27.6063  -32.4311   25.7483 C   0  0  0  0  0  0
  -27.5577  -37.1797   24.8466 C   0  0  0  0  0  0
  -21.4170  -29.3035   22.3681 N   0  0  0  0  0  0
  -26.4289  -37.3782   23.9412 N   0  0  0  0  0  0
  -24.6825  -31.0614   22.0964 N   0  0  0  0  0  0
  -23.4182  -28.8171   23.3028 O   0  0  0  0  0  0
  -28.3831  -26.5471   20.1910 O   0  0  0  0  0  0
  -26.5607  -34.8919   22.4670 O   0  0  0  0  0  0
  -23.5410  -32.1382   23.7373 O   0  0  0  0  0  0
  -29.7936  -18.2141   20.5940 C   0  0  0  0  0  0
  -29.1699  -19.1812   19.6813 C   0  0  0  0  0  0
  -28.4973  -18.4869   18.6939 C   0  0  0  0  0  0
  -29.6068  -16.8594   20.2849 C   0  0  0  0  0  0
  -28.7462  -23.0240   20.8303 C   0  0  0  0  0  0
  -29.2107  -21.7243   20.7994 C   0  0  0  0  0  0
  -27.6995  -19.0319   17.5497 C   0  0  0  0  0  0
  -29.8271  -21.1462   22.0589 C   0  0  0  0  0  0
  -30.4216  -21.1314   18.7001 C   0  0  0  0  0  0
  -28.0119  -23.9057   19.7805 C   0  0  0  0  0  0
  -28.5852  -25.3356   19.3893 C   0  0  0  0  0  0
  -29.2167  -20.7554   19.5774 C   0  0  1  0  0  0
  -29.9180  -15.6938   20.9684 N   0  0  0  0  0  0
  -28.6693  -16.7564   18.8246 S   0  0  0  0  0  0
  -31.4751  -12.4875   19.1670 H   0  0  0  0  0  0
  -30.3490  -11.3871   19.9066 H   0  0  0  0  0  0
  -29.7711  -11.7536   17.4872 H   0  0  0  0  0  0
  -29.6559  -13.4750   17.7546 H   0  0  0  0  0  0
  -27.8644  -11.2907   18.8673 H   0  0  0  0  0  0
  -27.3777  -12.5788   17.7985 H   0  0  0  0  0  0
  -27.6648  -14.2433   19.5291 H   0  0  0  0  0  0
  -28.7033  -12.0651   21.4032 H   0  0  0  0  0  0
  -28.4399  -13.7276   21.8437 H   0  0  0  0  0  0
  -25.2753   -9.5681   22.4759 H   0  0  0  0  0  0
  -24.0000   -7.4628   22.7467 H   0  0  0  0  0  0
  -21.0840   -8.8768   19.8949 H   0  0  0  0  0  0
  -22.3692  -10.9670   19.6161 H   0  0  0  0  0  0
  -21.1999   -7.6148   23.9722 H   0  0  0  0  0  0
  -21.1483   -6.0521   25.9078 H   0  0  0  0  0  0
  -22.0598   -2.7611   23.2847 H   0  0  0  0  0  0
  -22.4089  -11.9878   22.4787 H   0  0  0  0  0  0
  -21.1101  -13.1257   22.2607 H   0  0  0  0  0  0
  -24.6662  -15.8454   20.5320 H   0  0  0  0  0  0
  -26.2876  -15.6296   20.1106 H   0  0  0  0  0  0
  -26.7163  -32.5450   23.1098 H   0  0  0  0  0  0
  -25.0109  -33.9723   25.0454 H   0  0  0  0  0  0
  -22.7097  -31.3004   21.3984 H   0  0  0  0  0  0
  -23.3755  -35.9612   23.3301 H   0  0  0  0  0  0
  -24.3576  -36.8909   22.2052 H   0  0  0  0  0  0
  -23.7233  -37.6489   23.6658 H   0  0  0  0  0  0
  -26.0783  -31.5567   20.6002 H   0  0  0  0  0  0
  -26.8349  -30.8462   21.9964 H   0  0  0  0  0  0
  -28.1006  -28.9996   21.2031 H   0  0  0  0  0  0
  -26.0148  -25.9211   19.0083 H   0  0  0  0  0  0
  -23.9843  -27.2863   19.0138 H   0  0  0  0  0  0
  -23.7433  -30.5824   19.3989 H   0  0  0  0  0  0
  -22.7507  -29.2336   19.8624 H   0  0  0  0  0  0
  -25.1291  -36.1935   25.0825 H   0  0  0  0  0  0
  -20.9964  -28.3261   24.1405 H   0  0  0  0  0  0
  -20.5661  -26.2295   23.3613 H   0  0  0  0  0  0
  -21.6636  -26.7432   22.1209 H   0  0  0  0  0  0
  -19.6906  -25.6291   21.1237 H   0  0  0  0  0  0
  -19.6682  -27.3192   20.6742 H   0  0  0  0  0  0
  -17.4192  -26.6676   21.4022 H   0  0  0  0  0  0
  -18.0320  -26.0061   22.9013 H   0  0  0  0  0  0
  -19.7939  -30.7276   24.2246 H   0  0  0  0  0  0
  -17.5015  -31.6261   24.5173 H   0  0  0  0  0  0
  -15.5351  -30.2984   23.7659 H   0  0  0  0  0  0
  -15.8667  -28.0827   22.7056 H   0  0  0  0  0  0
  -24.5947  -30.7008   25.7792 H   0  0  0  0  0  0
  -24.8894  -32.2850   26.4862 H   0  0  0  0  0  0
  -25.8088  -30.8910   27.0236 H   0  0  0  0  0  0
  -26.2920  -29.6750   24.1202 H   0  0  0  0  0  0
  -27.4089  -29.7283   25.4650 H   0  0  0  0  0  0
  -27.8766  -30.4317   23.9349 H   0  0  0  0  0  0
  -27.2690  -33.3625   26.2046 H   0  0  0  0  0  0
  -28.3883  -32.6844   25.0310 H   0  0  0  0  0  0
  -28.0719  -31.8439   26.5410 H   0  0  0  0  0  0
  -28.2592  -38.0097   24.7525 H   0  0  0  0  0  0
  -28.1078  -36.2630   24.6283 H   0  0  0  0  0  0
  -27.2291  -37.1435   25.8867 H   0  0  0  0  0  0
  -20.9348  -29.8755   21.6888 H   0  0  0  0  0  0
  -26.0170  -38.2856   24.1425 H   0  0  0  0  0  0
  -30.3656  -18.5407   21.4493 H   0  0  0  0  0  0
  -28.8669  -23.5543   21.7645 H   0  0  0  0  0  0
  -28.3156  -19.6482   16.8952 H   0  0  0  0  0  0
  -26.8666  -19.6387   17.9061 H   0  0  0  0  0  0
  -27.2783  -18.2305   16.9415 H   0  0  0  0  0  0
  -29.8817  -21.8807   22.8630 H   0  0  0  0  0  0
  -30.8423  -20.8037   21.8584 H   0  0  0  0  0  0
  -29.2322  -20.3092   22.4239 H   0  0  0  0  0  0
  -30.3834  -20.6312   17.7323 H   0  0  0  0  0  0
  -31.3578  -20.8469   19.1813 H   0  0  0  0  0  0
  -30.4596  -22.2044   18.5086 H   0  0  0  0  0  0
  -26.9798  -24.0202   20.1116 H   0  0  0  0  0  0
  -27.9567  -23.3202   18.8632 H   0  0  0  0  0  0
  -28.2388  -25.5673   18.3811 H   0  0  0  0  0  0
  -29.6640  -25.2292   19.2736 H   0  0  0  0  0  0
  -28.3357  -21.0760   19.0245 H   0  0  0  0  0  0
  -29.1563  -15.3752   21.5487 H   0  0  0  0  0  0
  1 25  1  0  0  0
  1 30  2  0  0  0
  1 83  1  0  0  0
  2  3  1  0  0  0
  2 25  1  0  0  0
  2 85  1  0  0  0
  2 86  1  0  0  0
  3  4  1  0  0  0
  3 87  1  0  0  0
  3 88  1  0  0  0
  4  5  1  0  0  0
  4 89  1  0  0  0
  4 90  1  0  0  0
  5  6  1  0  0  0
  5 26  1  0  0  0
  5 91  1  0  0  0
  6 25  1  0  0  0
  6 92  1  0  0  0
  6 93  1  0  0  0
  7  8  2  0  0  0
  7 26  1  0  0  0
  7 29  1  0  0  0
  8  9  1  0  0  0
  8 22  1  0  0  0
  9 10  1  0  0  0
  9 27  2  0  0  0
 10 11  2  0  0  0
 10 15  1  0  0  0
 11 12  1  0  0  0
 11 94  1  0  0  0
 12 13  2  0  0  0
 12 95  1  0  0  0
 13 14  1  0  0  0
 13 31  1  0  0  0
 14 15  2  0  0  0
 14 96  1  0  0  0
 15 97  1  0  0  0
 16 17  2  0  0  0
 16 21  1  0  0  0
 16 31  1  0  0  0
 17 18  1  0  0  0
 17 98  1  0  0  0
 18 19  2  0  0  0
 18 99  1  0  0  0
 19 20  1  0  0  0
 19 24  1  0  0  0
 20 21  2  0  0  0
 20100  1  0  0  0
 21 23  1  0  0  0
 22 28  1  0  0  0
 22 32  2  0  0  0
 26 27  1  0  0  0
 28101  1  0  0  0
 28102  1  0  0  0
 29103  1  0  0  0
 29104  1  0  0  0
 33 34  1  0  0  0
 33 66  1  0  0  0
 33 70  2  0  0  0
 34 36  1  0  0  0
 34 59  1  0  0  0
 34105  1  0  0  0
 35 44  2  0  0  0
 35 45  1  0  0  0
 35 68  1  0  0  0
 36 56  1  0  0  0
 36106  1  0  0  0
 37 39  1  0  0  0
 37 47  1  0  0  0
 37 66  1  0  0  0
 37107  1  0  0  0
 38 43  2  0  0  0
 38 46  1  0  0  0
 38 47  1  0  0  0
 39 64  1  0  0  0
 39 67  2  0  0  0
 40 52  1  0  0  0
 40 53  2  0  0  0
 40 58  1  0  0  0
 41108  1  0  0  0
 41109  1  0  0  0
 41110  1  0  0  0
 41 48  1  0  0  0
 42 43  1  0  0  0
 42 66  1  0  0  0
 42111  1  0  0  0
 42112  1  0  0  0
 43 44  1  0  0  0
 44113  1  0  0  0
 45 46  2  0  0  0
 45114  1  0  0  0
 46115  1  0  0  0
 47116  1  0  0  0
 47117  1  0  0  0
 48 56  1  0  0  0
 48 65  1  0  0  0
 48118  1  0  0  0
 49 50  1  0  0  0
 49 53  1  0  0  0
 49 64  1  0  0  0
 49119  1  0  0  0
 50 51  1  0  0  0
 50120  1  0  0  0
 50121  1  0  0  0
 51 52  1  0  0  0
 51122  1  0  0  0
 51123  1  0  0  0
 52124  1  0  0  0
 52125  1  0  0  0
 53 54  1  0  0  0
 54 55  2  0  0  0
 54126  1  0  0  0
 55 57  1  0  0  0
 55127  1  0  0  0
 56 69  2  0  0  0
 57 58  2  0  0  0
 57128  1  0  0  0
 58129  1  0  0  0
 59 60  1  0  0  0
 59 61  1  0  0  0
 59 62  1  0  0  0
 60130  1  0  0  0
 60131  1  0  0  0
 60132  1  0  0  0
 61133  1  0  0  0
 61134  1  0  0  0
 61135  1  0  0  0
 62136  1  0  0  0
 62137  1  0  0  0
 62138  1  0  0  0
 63 65  1  0  0  0
 63139  1  0  0  0
 63140  1  0  0  0
 63141  1  0  0  0
 64142  1  0  0  0
 65143  1  0  0  0
 68 81  1  0  0  0
 71 72  1  0  0  0
 71 74  2  0  0  0
 71144  1  0  0  0
 72 73  2  0  0  0
 72 82  1  0  0  0
 73 77  1  0  0  0
 73 84  1  0  0  0
 74 83  1  0  0  0
 74 84  1  0  0  0
 75 76  2  0  0  0
 75 80  1  0  0  0
 75145  1  0  0  0
 76 78  1  0  0  0
 76 82  1  0  0  0
 77146  1  0  0  0
 77147  1  0  0  0
 77148  1  0  0  0
 78149  1  0  0  0
 78150  1  0  0  0
 78151  1  0  0  0
 79152  1  0  0  0
 79153  1  0  0  0
 79154  1  0  0  0
 79 82  1  0  0  0
 80 81  1  0  0  0
 80155  1  0  0  0
 80156  1  0  0  0
 81157  1  0  0  0
 81158  1  0  0  0
 82159  1  0  0  0
 83160  1  0  0  0
M  ISO  4   1 100  68 101  81 101  83 100
M  END
> <chiral flag>
0

> <version>
0

> <s_m_source_file>
/data/baiqing/PycharmProjects/Reinvent-master-3.2/result/LINK_invent/BTK/process_docking_weight1_custom_product_contain_oxygen_bond_distance_aromatic_linkinvent_7_9_3/rearranged_h_0138.sdf

> <i_m_source_file_index>
48

> <r_mmod_Potential_Energy-OPLS-2005>
89.165397644043

> <r_mmod_Stretch_Energy-OPLS-2005>
74.3258590698242

> <r_mmod_Bend_Energy-OPLS-2005>
185.921432495117

> <r_mmod_Torsional_Energy-OPLS-2005>
245.026062011719

> <r_mmod_Improper_Torsional_Energy-OPLS-2005>
6.69352245330811

> <r_mmod_Van_der_Waal_Energy-OPLS-2005>
114.279808044434

> <r_mmod_Electrostatic_Energy-OPLS-2005>
-381.998352050781

> <r_mmod_Solvation_Energy-OPLS-2005>
-197.5615234375

> <b_mmod_Minimization_Converged-OPLS-2005>
0

> <r_mmod_RMS_Derivative-OPLS-2005>
0.665906071662903

$$$$
48
                    3D
 Structure written by MMmdl.
154163  0  0  1  0            999 V2000
  -30.6243  -14.6799   20.4691 C   0  0  0  0  0  0
  -30.4372  -12.4110   19.4557 C   0  0  0  0  0  0
  -29.5063  -12.5029   18.2248 C   0  0  0  0  0  0
  -28.0294  -12.3380   18.6347 C   0  0  0  0  0  0
  -27.6492  -13.2193   19.8543 C   0  0  2  0  0  0
  -28.6981  -13.1065   20.9847 C   0  0  0  0  0  0
  -25.2557  -13.8189   20.5713 C   0  0  0  0  0  0
  -24.1820  -13.0456   20.9219 C   0  0  0  0  0  0
  -24.6386  -11.6927   20.8751 C   0  0  0  0  0  0
  -23.9051  -10.4317   21.0422 C   0  0  0  0  0  0
  -24.3611   -9.4236   21.9196 C   0  0  0  0  0  0
  -23.6308   -8.2251   22.0754 C   0  0  0  0  0  0
  -22.4285   -8.0288   21.3549 C   0  0  0  0  0  0
  -21.9913   -9.0253   20.4639 C   0  0  0  0  0  0
  -22.7230  -10.2147   20.3060 C   0  0  0  0  0  0
  -21.6856   -6.0745   22.5290 C   0  0  0  0  0  0
  -21.4003   -6.5646   23.8226 C   0  0  0  0  0  0
  -21.3663   -5.6794   24.9188 C   0  0  0  0  0  0
  -21.6048   -4.3055   24.7233 C   0  0  0  0  0  0
  -21.8819   -3.8150   23.4349 C   0  0  0  0  0  0
  -21.9190   -4.6971   22.3407 C   0  0  0  0  0  0
  -22.7846  -13.5250   21.1872 C   0  0  0  0  0  0
  -22.1665   -4.2163   21.0984 F   0  0  0  0  0  0
  -21.5637   -3.4531   25.7740 F   0  0  0  0  0  0
  -30.0108  -13.4514   20.4136 N   0  0  0  0  0  0
  -26.2967  -12.9356   20.3282 N   0  0  0  0  0  0
  -25.9310  -11.6517   20.5739 N   0  0  0  0  0  0
  -22.0467  -12.8234   22.0402 N   0  0  0  0  0  0
  -25.4262  -15.1906   20.4186 N   0  0  0  0  0  0
  -31.7990  -14.8196   20.1198 O   0  0  0  0  0  0
  -21.6646   -6.8884   21.4251 O   0  0  0  0  0  0
  -22.3543  -14.5568   20.6742 O   0  0  0  0  0  0
  -24.6300  -31.8573   23.2030 C   0  0  0  0  0  0
  -25.9143  -32.4762   23.8348 C   0  0  1  0  0  0
  -27.2377  -27.3077   20.1194 C   0  0  0  0  0  0
  -25.5957  -33.8559   24.2273 N   0  0  0  0  0  0
  -23.4253  -30.4840   21.5439 C   0  0  2  0  0  0
  -24.8749  -28.9384   20.1122 C   0  0  0  0  0  0
  -22.7493  -29.4631   22.4910 C   0  0  0  0  0  0
  -18.0305  -28.1399   22.8500 C   0  0  0  0  0  0
  -24.1498  -36.7266   23.2638 C   0  0  0  0  0  0
  -25.9698  -30.7860   21.3786 C   0  0  0  0  0  0
  -26.0459  -29.4147   20.7155 C   0  0  0  0  0  0
  -27.2278  -28.6149   20.7038 C   0  0  0  0  0  0
  -26.0328  -26.8838   19.5040 C   0  0  0  0  0  0
  -24.8706  -27.6781   19.4982 C   0  0  0  0  0  0
  -23.6434  -29.8188   20.1605 C   0  0  0  0  0  0
  -25.4123  -36.3064   24.0331 C   0  0  1  0  0  0
  -20.5906  -28.3702   23.1285 C   0  0  2  0  0  0
  -20.6804  -26.9425   22.5412 C   0  0  0  0  0  0
  -19.5773  -26.6401   21.5227 C   0  0  0  0  0  0
  -18.1949  -26.7958   22.1628 C   0  0  0  0  0  0
  -19.1557  -28.8870   23.2892 C   0  0  0  0  0  0
  -18.9473  -30.1486   23.8896 C   0  0  0  0  0  0
  -17.6462  -30.6595   24.0577 C   0  0  0  0  0  0
  -25.9065  -34.9434   23.5097 C   0  0  0  0  0  0
  -16.5355  -29.9088   23.6350 C   0  0  0  0  0  0
  -16.7286  -28.6516   23.0349 C   0  0  0  0  0  0
  -26.4527  -31.6585   25.0724 C   0  0  0  0  0  0
  -25.3748  -31.3721   26.1435 C   0  0  0  0  0  0
  -27.0378  -30.2999   24.6215 C   0  0  0  0  0  0
  -27.6079  -32.4327   25.7504 C   0  0  0  0  0  0
  -27.5580  -37.1794   24.8457 C   0  0  0  0  0  0
  -21.4200  -29.3039   22.3649 N   0  0  0  0  0  0
  -26.4287  -37.3770   23.9413 N   0  0  0  0  0  0
  -24.6938  -31.0586   22.0979 N   0  0  0  0  0  0
  -23.4206  -28.8167   23.2993 O   0  0  0  0  0  0
  -28.3633  -26.4556   20.1696 O   0  0  0  0  0  0
  -26.5614  -34.8907   22.4653 O   0  0  0  0  0  0
  -23.5457  -32.1364   23.7351 O   0  0  0  0  0  0
  -31.0466  -17.9368   20.1093 C   0  0  0  0  0  0
  -28.8447  -18.0367   21.0456 C   0  0  0  0  0  0
  -29.9514  -20.1797   20.4242 C   0  0  0  0  0  0
  -29.9351  -17.2185   20.6320 C   0  0  0  0  0  0
  -31.0512  -19.3680   20.0067 C   0  0  0  0  0  0
  -28.8464  -19.4625   20.9493 C   0  0  0  0  0  0
  -29.2923  -22.8080   21.2686 C   0  0  0  0  0  0
  -29.3535  -22.6356   19.2135 C   0  0  0  0  0  0
  -29.9969  -21.7661   20.3337 C   0  0  2  0  0  0
  -29.3045  -23.9030   20.1404 C   0  0  1  0  0  0
  -28.1604  -25.0002   19.9350 C   0  0  0  0  0  0
  -29.8054  -15.7507   20.7485 N   0  0  0  0  0  0
  -32.1528  -19.9661   19.4917 F   0  0  0  0  0  0
  -27.7557  -20.1410   21.3761 F   0  0  0  0  0  0
  -31.4780  -12.5326   19.1505 H   0  0  0  0  0  0
  -30.3734  -11.4245   19.9182 H   0  0  0  0  0  0
  -29.7780  -11.7436   17.4902 H   0  0  0  0  0  0
  -29.6389  -13.4672   17.7320 H   0  0  0  0  0  0
  -27.8652  -11.2857   18.8686 H   0  0  0  0  0  0
  -27.3759  -12.5644   17.7902 H   0  0  0  0  0  0
  -27.6571  -14.2489   19.4969 H   0  0  0  0  0  0
  -28.7173  -12.0949   21.3915 H   0  0  0  0  0  0
  -28.4395  -13.7606   21.8188 H   0  0  0  0  0  0
  -25.2766   -9.5721   22.4758 H   0  0  0  0  0  0
  -24.0046   -7.4631   22.7455 H   0  0  0  0  0  0
  -21.0853   -8.8758   19.8927 H   0  0  0  0  0  0
  -22.3697  -10.9680   19.6155 H   0  0  0  0  0  0
  -21.1981   -7.6152   23.9741 H   0  0  0  0  0  0
  -21.1491   -6.0518   25.9098 H   0  0  0  0  0  0
  -22.0589   -2.7614   23.2841 H   0  0  0  0  0  0
  -22.4090  -11.9898   22.4783 H   0  0  0  0  0  0
  -21.1070  -13.1242   22.2578 H   0  0  0  0  0  0
  -24.6591  -15.8415   20.5500 H   0  0  0  0  0  0
  -26.2640  -15.6332   20.0631 H   0  0  0  0  0  0
  -26.7192  -32.5440   23.1078 H   0  0  0  0  0  0
  -25.0143  -33.9687   25.0446 H   0  0  0  0  0  0
  -22.7199  -31.3051   21.3991 H   0  0  0  0  0  0
  -23.3770  -35.9587   23.3285 H   0  0  0  0  0  0
  -24.3593  -36.8900   22.2054 H   0  0  0  0  0  0
  -23.7232  -37.6460   23.6661 H   0  0  0  0  0  0
  -26.1118  -31.5539   20.6172 H   0  0  0  0  0  0
  -26.8447  -30.8246   22.0163 H   0  0  0  0  0  0
  -28.1257  -28.9858   21.1785 H   0  0  0  0  0  0
  -25.9500  -25.9174   19.0312 H   0  0  0  0  0  0
  -23.9700  -27.3077   19.0271 H   0  0  0  0  0  0
  -23.7618  -30.5950   19.4032 H   0  0  0  0  0  0
  -22.7640  -29.2461   19.8623 H   0  0  0  0  0  0
  -25.1312  -36.1897   25.0822 H   0  0  0  0  0  0
  -21.0023  -28.3285   24.1398 H   0  0  0  0  0  0
  -20.5759  -26.2296   23.3604 H   0  0  0  0  0  0
  -21.6662  -26.7486   22.1162 H   0  0  0  0  0  0
  -19.6933  -25.6316   21.1252 H   0  0  0  0  0  0
  -19.6726  -27.3223   20.6771 H   0  0  0  0  0  0
  -17.4233  -26.6741   21.4004 H   0  0  0  0  0  0
  -18.0317  -26.0092   22.9011 H   0  0  0  0  0  0
  -19.7940  -30.7329   24.2227 H   0  0  0  0  0  0
  -17.5006  -31.6281   24.5182 H   0  0  0  0  0  0
  -15.5348  -30.2971   23.7696 H   0  0  0  0  0  0
  -15.8697  -28.0846   22.7017 H   0  0  0  0  0  0
  -24.5912  -30.7098   25.7733 H   0  0  0  0  0  0
  -24.8957  -32.2890   26.4879 H   0  0  0  0  0  0
  -25.8059  -30.8852   27.0192 H   0  0  0  0  0  0
  -26.2961  -29.6728   24.1250 H   0  0  0  0  0  0
  -27.4059  -29.7283   25.4747 H   0  0  0  0  0  0
  -27.8846  -30.4258   23.9462 H   0  0  0  0  0  0
  -27.2682  -33.3615   26.2100 H   0  0  0  0  0  0
  -28.3898  -32.6912   25.0348 H   0  0  0  0  0  0
  -28.0752  -31.8443   26.5413 H   0  0  0  0  0  0
  -28.2588  -38.0104   24.7537 H   0  0  0  0  0  0
  -28.1090  -36.2639   24.6246 H   0  0  0  0  0  0
  -27.2296  -37.1395   25.8857 H   0  0  0  0  0  0
  -20.9369  -29.8684   21.6803 H   0  0  0  0  0  0
  -26.0159  -38.2840   24.1420 H   0  0  0  0  0  0
  -31.9222  -17.4044   19.7656 H   0  0  0  0  0  0
  -27.9615  -17.5730   21.4585 H   0  0  0  0  0  0
  -29.8619  -23.0570   22.1652 H   0  0  0  0  0  0
  -28.2779  -22.5128   21.5372 H   0  0  0  0  0  0
  -28.3535  -22.2831   18.9503 H   0  0  0  0  0  0
  -29.9636  -22.7418   18.3156 H   0  0  0  0  0  0
  -31.0626  -22.0038   20.3547 H   0  0  0  0  0  0
  -30.2863  -24.3819   20.1135 H   0  0  0  0  0  0
  -27.2954  -24.6939   20.5253 H   0  0  0  0  0  0
  -27.8499  -24.9142   18.8929 H   0  0  0  0  0  0
  -28.8821  -15.4441   21.0114 H   0  0  0  0  0  0
  1 25  1  0  0  0
  1 30  2  0  0  0
  1 82  1  0  0  0
  2  3  1  0  0  0
  2 25  1  0  0  0
  2 85  1  0  0  0
  2 86  1  0  0  0
  3  4  1  0  0  0
  3 87  1  0  0  0
  3 88  1  0  0  0
  4  5  1  0  0  0
  4 89  1  0  0  0
  4 90  1  0  0  0
  5  6  1  0  0  0
  5 26  1  0  0  0
  5 91  1  0  0  0
  6 25  1  0  0  0
  6 92  1  0  0  0
  6 93  1  0  0  0
  7  8  2  0  0  0
  7 26  1  0  0  0
  7 29  1  0  0  0
  8  9  1  0  0  0
  8 22  1  0  0  0
  9 10  1  0  0  0
  9 27  2  0  0  0
 10 11  2  0  0  0
 10 15  1  0  0  0
 11 12  1  0  0  0
 11 94  1  0  0  0
 12 13  2  0  0  0
 12 95  1  0  0  0
 13 14  1  0  0  0
 13 31  1  0  0  0
 14 15  2  0  0  0
 14 96  1  0  0  0
 15 97  1  0  0  0
 16 17  2  0  0  0
 16 21  1  0  0  0
 16 31  1  0  0  0
 17 18  1  0  0  0
 17 98  1  0  0  0
 18 19  2  0  0  0
 18 99  1  0  0  0
 19 20  1  0  0  0
 19 24  1  0  0  0
 20 21  2  0  0  0
 20100  1  0  0  0
 21 23  1  0  0  0
 22 28  1  0  0  0
 22 32  2  0  0  0
 26 27  1  0  0  0
 28101  1  0  0  0
 28102  1  0  0  0
 29103  1  0  0  0
 29104  1  0  0  0
 33 34  1  0  0  0
 33 66  1  0  0  0
 33 70  2  0  0  0
 34 36  1  0  0  0
 34 59  1  0  0  0
 34105  1  0  0  0
 35 44  2  0  0  0
 35 45  1  0  0  0
 35 68  1  0  0  0
 36 56  1  0  0  0
 36106  1  0  0  0
 37 39  1  0  0  0
 37 47  1  0  0  0
 37 66  1  0  0  0
 37107  1  0  0  0
 38 43  2  0  0  0
 38 46  1  0  0  0
 38 47  1  0  0  0
 39 64  1  0  0  0
 39 67  2  0  0  0
 40 52  1  0  0  0
 40 53  2  0  0  0
 40 58  1  0  0  0
 41108  1  0  0  0
 41109  1  0  0  0
 41110  1  0  0  0
 41 48  1  0  0  0
 42 43  1  0  0  0
 42 66  1  0  0  0
 42111  1  0  0  0
 42112  1  0  0  0
 43 44  1  0  0  0
 44113  1  0  0  0
 45 46  2  0  0  0
 45114  1  0  0  0
 46115  1  0  0  0
 47116  1  0  0  0
 47117  1  0  0  0
 48 56  1  0  0  0
 48 65  1  0  0  0
 48118  1  0  0  0
 49 50  1  0  0  0
 49 53  1  0  0  0
 49 64  1  0  0  0
 49119  1  0  0  0
 50 51  1  0  0  0
 50120  1  0  0  0
 50121  1  0  0  0
 51 52  1  0  0  0
 51122  1  0  0  0
 51123  1  0  0  0
 52124  1  0  0  0
 52125  1  0  0  0
 53 54  1  0  0  0
 54 55  2  0  0  0
 54126  1  0  0  0
 55 57  1  0  0  0
 55127  1  0  0  0
 56 69  2  0  0  0
 57 58  2  0  0  0
 57128  1  0  0  0
 58129  1  0  0  0
 59 60  1  0  0  0
 59 61  1  0  0  0
 59 62  1  0  0  0
 60130  1  0  0  0
 60131  1  0  0  0
 60132  1  0  0  0
 61133  1  0  0  0
 61134  1  0  0  0
 61135  1  0  0  0
 62136  1  0  0  0
 62137  1  0  0  0
 62138  1  0  0  0
 63 65  1  0  0  0
 63139  1  0  0  0
 63140  1  0  0  0
 63141  1  0  0  0
 64142  1  0  0  0
 65143  1  0  0  0
 68 81  1  0  0  0
 71 74  2  0  0  0
 71 75  1  0  0  0
 71144  1  0  0  0
 72 74  1  0  0  0
 72 76  2  0  0  0
 72145  1  0  0  0
 73 75  2  0  0  0
 73 76  1  0  0  0
 73 79  1  0  0  0
 74 82  1  0  0  0
 75 83  1  0  0  0
 76 84  1  0  0  0
 77 79  1  0  0  0
 77 80  1  0  0  0
 77146  1  0  0  0
 77147  1  0  0  0
 78 79  1  0  0  0
 78 80  1  0  0  0
 78148  1  0  0  0
 78149  1  0  0  0
 79150  1  0  0  0
 80 81  1  0  0  0
 80151  1  0  0  0
 81152  1  0  0  0
 81153  1  0  0  0
 82154  1  0  0  0
M  ISO  4   1 100  68 101  81 101  82 100
M  END
> <chiral flag>
0

> <version>
0

> <s_m_source_file>
/data/baiqing/PycharmProjects/Reinvent-master-3.2/result/LINK_invent/BTK/process_docking_weight1_custom_product_contain_oxygen_bond_distance_aromatic_linkinvent_7_9_3/rearranged_h_0138.sdf

> <i_m_source_file_index>
49

> <r_mmod_Potential_Energy-OPLS-2005>
161.450927734375

> <r_mmod_Stretch_Energy-OPLS-2005>
90.8050689697266

> <r_mmod_Bend_Energy-OPLS-2005>
168.280746459961

> <r_mmod_Torsional_Energy-OPLS-2005>
226.065063476562

> <r_mmod_Improper_Torsional_Energy-OPLS-2005>
4.32603454589844

> <r_mmod_Van_der_Waal_Energy-OPLS-2005>
144.42561340332

> <r_mmod_Electrostatic_Energy-OPLS-2005>
-331.376312255859

> <r_mmod_Solvation_Energy-OPLS-2005>
-199.483627319336

> <b_mmod_Minimization_Converged-OPLS-2005>
0

> <r_mmod_RMS_Derivative-OPLS-2005>
2.4826991558075

$$$$
49
                    3D
 Structure written by MMmdl.
165173  0  0  1  0            999 V2000
  -30.5384  -14.8624   20.4473 C   0  0  0  0  0  0
  -30.4525  -12.5325   19.4870 C   0  0  0  0  0  0
  -29.5259  -12.5326   18.2479 C   0  0  0  0  0  0
  -28.0531  -12.3345   18.6593 C   0  0  0  0  0  0
  -27.6442  -13.2369   19.8536 C   0  0  2  0  0  0
  -28.6890  -13.1933   20.9913 C   0  0  0  0  0  0
  -25.2532  -13.8189   20.5699 C   0  0  0  0  0  0
  -24.1823  -13.0441   20.9221 C   0  0  0  0  0  0
  -24.6408  -11.6921   20.8732 C   0  0  0  0  0  0
  -23.9073  -10.4299   21.0394 C   0  0  0  0  0  0
  -24.3624   -9.4222   21.9173 C   0  0  0  0  0  0
  -23.6305   -8.2250   22.0751 C   0  0  0  0  0  0
  -22.4287   -8.0277   21.3540 C   0  0  0  0  0  0
  -21.9914   -9.0247   20.4644 C   0  0  0  0  0  0
  -22.7236  -10.2132   20.3055 C   0  0  0  0  0  0
  -21.6869   -6.0736   22.5266 C   0  0  0  0  0  0
  -21.4018   -6.5641   23.8194 C   0  0  0  0  0  0
  -21.3666   -5.6794   24.9157 C   0  0  0  0  0  0
  -21.6047   -4.3058   24.7216 C   0  0  0  0  0  0
  -21.8822   -3.8150   23.4338 C   0  0  0  0  0  0
  -21.9204   -4.6963   22.3394 C   0  0  0  0  0  0
  -22.7848  -13.5235   21.1882 C   0  0  0  0  0  0
  -22.1681   -4.2154   21.0973 F   0  0  0  0  0  0
  -21.5623   -3.4541   25.7728 F   0  0  0  0  0  0
  -29.9802  -13.5929   20.4129 N   0  0  0  0  0  0
  -26.2960  -12.9401   20.3280 N   0  0  0  0  0  0
  -25.9346  -11.6540   20.5737 N   0  0  0  0  0  0
  -22.0498  -12.8210   22.0423 N   0  0  0  0  0  0
  -25.4219  -15.1902   20.4084 N   0  0  0  0  0  0
  -31.7198  -15.0054   20.1173 O   0  0  0  0  0  0
  -21.6652   -6.8873   21.4228 O   0  0  0  0  0  0
  -22.3544  -14.5547   20.6738 O   0  0  0  0  0  0
  -24.6373  -31.8461   23.1922 C   0  0  0  0  0  0
  -25.9168  -32.4708   23.8283 C   0  0  1  0  0  0
  -27.2253  -27.1852   20.1316 C   0  0  0  0  0  0
  -25.5950  -33.8521   24.2189 N   0  0  0  0  0  0
  -23.4392  -30.4652   21.5367 C   0  0  2  0  0  0
  -24.8895  -28.9034   20.1080 C   0  0  0  0  0  0
  -22.7548  -29.4520   22.4872 C   0  0  0  0  0  0
  -18.0296  -28.1379   22.8484 C   0  0  0  0  0  0
  -24.1495  -36.7258   23.2639 C   0  0  0  0  0  0
  -25.9917  -30.7328   21.3880 C   0  0  0  0  0  0
  -26.0621  -29.3497   20.7287 C   0  0  0  0  0  0
  -27.2260  -28.5020   20.7313 C   0  0  0  0  0  0
  -26.0278  -26.8366   19.4630 C   0  0  0  0  0  0
  -24.8825  -27.6587   19.4640 C   0  0  0  0  0  0
  -23.6639  -29.7984   20.1535 C   0  0  0  0  0  0
  -25.4132  -36.3036   24.0302 C   0  0  1  0  0  0
  -20.5908  -28.3683   23.1268 C   0  0  2  0  0  0
  -20.6779  -26.9391   22.5416 C   0  0  0  0  0  0
  -19.5752  -26.6367   21.5223 C   0  0  0  0  0  0
  -18.1929  -26.7920   22.1626 C   0  0  0  0  0  0
  -19.1555  -28.8851   23.2864 C   0  0  0  0  0  0
  -18.9474  -30.1456   23.8872 C   0  0  0  0  0  0
  -17.6472  -30.6577   24.0556 C   0  0  0  0  0  0
  -25.9079  -34.9414   23.5049 C   0  0  0  0  0  0
  -16.5361  -29.9067   23.6343 C   0  0  0  0  0  0
  -16.7285  -28.6491   23.0354 C   0  0  0  0  0  0
  -26.4515  -31.6583   25.0715 C   0  0  0  0  0  0
  -25.3723  -31.3762   26.1425 C   0  0  0  0  0  0
  -27.0375  -30.2987   24.6272 C   0  0  0  0  0  0
  -27.6040  -32.4353   25.7509 C   0  0  0  0  0  0
  -27.5572  -37.1783   24.8460 C   0  0  0  0  0  0
  -21.4241  -29.3014   22.3648 N   0  0  0  0  0  0
  -26.4286  -37.3754   23.9404 N   0  0  0  0  0  0
  -24.7089  -31.0338   22.0950 N   0  0  0  0  0  0
  -23.4218  -28.8061   23.2989 O   0  0  0  0  0  0
  -28.3127  -26.2542   20.2300 O   0  0  0  0  0  0
  -26.5650  -34.8908   22.4619 O   0  0  0  0  0  0
  -23.5501  -32.1320   23.7162 O   0  0  0  0  0  0
  -30.7130  -18.3625   20.3128 C   0  0  0  0  0  0
  -28.3807  -18.1251   20.5782 C   0  0  0  0  0  0
  -30.5381  -19.8004   20.1480 C   0  0  0  0  0  0
  -28.1856  -19.5475   20.4044 C   0  0  0  0  0  0
  -29.2580  -20.4778   20.1762 C   0  0  0  0  0  0
  -29.6365  -17.4448   20.5224 C   0  0  0  0  0  0
  -31.7923  -20.6076   19.8656 C   0  0  0  0  0  0
  -26.1247  -19.8645   18.9794 C   0  0  0  0  0  0
  -28.0344  -23.2289   21.7890 C   0  0  0  0  0  0
  -30.3163  -23.8294   20.9950 C   0  0  0  0  0  0
  -26.7443  -20.0269   20.3743 C   0  0  0  0  0  0
  -29.0146  -22.0335   19.6815 C   0  0  0  0  0  0
  -28.2672  -24.7899   19.7563 C   0  0  0  0  0  0
  -28.8955  -23.4585   20.5382 C   0  0  0  0  0  0
  -29.6704  -15.9390   20.6939 N   0  0  0  0  0  0
  -31.4867  -12.6962   19.1811 H   0  0  0  0  0  0
  -30.4371  -11.5619   19.9837 H   0  0  0  0  0  0
  -29.8289  -11.7522   17.5484 H   0  0  0  0  0  0
  -29.6328  -13.4777   17.7132 H   0  0  0  0  0  0
  -27.9249  -11.2855   18.9287 H   0  0  0  0  0  0
  -27.3947  -12.5141   17.8086 H   0  0  0  0  0  0
  -27.6280  -14.2552   19.4639 H   0  0  0  0  0  0
  -28.7545  -12.1968   21.4302 H   0  0  0  0  0  0
  -28.4010  -13.8619   21.8041 H   0  0  0  0  0  0
  -25.2768   -9.5709   22.4747 H   0  0  0  0  0  0
  -24.0023   -7.4647   22.7475 H   0  0  0  0  0  0
  -21.0843   -8.8757   19.8950 H   0  0  0  0  0  0
  -22.3681  -10.9668   19.6168 H   0  0  0  0  0  0
  -21.2003   -7.6148   23.9691 H   0  0  0  0  0  0
  -21.1495   -6.0530   25.9056 H   0  0  0  0  0  0
  -22.0600   -2.7616   23.2832 H   0  0  0  0  0  0
  -22.4159  -11.9886   22.4795 H   0  0  0  0  0  0
  -21.1108  -13.1205   22.2632 H   0  0  0  0  0  0
  -24.6370  -15.8289   20.4777 H   0  0  0  0  0  0
  -26.2379  -15.6101   19.9848 H   0  0  0  0  0  0
  -26.7219  -32.5319   23.1001 H   0  0  0  0  0  0
  -25.0117  -33.9650   25.0351 H   0  0  0  0  0  0
  -22.7390  -31.2885   21.3840 H   0  0  0  0  0  0
  -23.3757  -35.9585   23.3301 H   0  0  0  0  0  0
  -24.3579  -36.8895   22.2052 H   0  0  0  0  0  0
  -23.7252  -37.6451   23.6690 H   0  0  0  0  0  0
  -26.1437  -31.4905   20.6183 H   0  0  0  0  0  0
  -26.8639  -30.7794   22.0281 H   0  0  0  0  0  0
  -28.1196  -28.8335   21.2424 H   0  0  0  0  0  0
  -25.9231  -25.9018   18.9388 H   0  0  0  0  0  0
  -23.9890  -27.3182   18.9586 H   0  0  0  0  0  0
  -23.7947  -30.5727   19.3965 H   0  0  0  0  0  0
  -22.7822  -29.2332   19.8468 H   0  0  0  0  0  0
  -25.1328  -36.1848   25.0787 H   0  0  0  0  0  0
  -20.9998  -28.3244   24.1389 H   0  0  0  0  0  0
  -20.5676  -26.2278   23.3614 H   0  0  0  0  0  0
  -21.6641  -26.7391   22.1205 H   0  0  0  0  0  0
  -19.6908  -25.6278   21.1244 H   0  0  0  0  0  0
  -19.6697  -27.3185   20.6759 H   0  0  0  0  0  0
  -17.4205  -26.6685   21.4019 H   0  0  0  0  0  0
  -18.0306  -26.0064   22.9020 H   0  0  0  0  0  0
  -19.7951  -30.7283   24.2220 H   0  0  0  0  0  0
  -17.5023  -31.6262   24.5145 H   0  0  0  0  0  0
  -15.5356  -30.2950   23.7687 H   0  0  0  0  0  0
  -15.8692  -28.0803   22.7070 H   0  0  0  0  0  0
  -24.5905  -30.7100   25.7762 H   0  0  0  0  0  0
  -24.8908  -32.2940   26.4812 H   0  0  0  0  0  0
  -25.8024  -30.8971   27.0226 H   0  0  0  0  0  0
  -26.2974  -29.6726   24.1269 H   0  0  0  0  0  0
  -27.3997  -29.7268   25.4822 H   0  0  0  0  0  0
  -27.8887  -30.4243   23.9575 H   0  0  0  0  0  0
  -27.2627  -33.3675   26.2028 H   0  0  0  0  0  0
  -28.3896  -32.6881   25.0375 H   0  0  0  0  0  0
  -28.0666  -31.8520   26.5480 H   0  0  0  0  0  0
  -28.2574  -38.0096   24.7520 H   0  0  0  0  0  0
  -28.1079  -36.2618   24.6279 H   0  0  0  0  0  0
  -27.2283  -37.1427   25.8862 H   0  0  0  0  0  0
  -20.9427  -29.8752   21.6869 H   0  0  0  0  0  0
  -26.0139  -38.2803   24.1449 H   0  0  0  0  0  0
  -31.7115  -17.9523   20.2536 H   0  0  0  0  0  0
  -27.4953  -17.5217   20.7217 H   0  0  0  0  0  0
  -31.8723  -20.8285   18.8005 H   0  0  0  0  0  0
  -32.6908  -20.0662   20.1650 H   0  0  0  0  0  0
  -31.7876  -21.5438   20.4182 H   0  0  0  0  0  0
  -25.1031  -20.2430   18.9572 H   0  0  0  0  0  0
  -26.0937  -18.8155   18.6856 H   0  0  0  0  0  0
  -26.6963  -20.4054   18.2235 H   0  0  0  0  0  0
  -28.3485  -22.3479   22.3488 H   0  0  0  0  0  0
  -26.9847  -23.1029   21.5269 H   0  0  0  0  0  0
  -28.0882  -24.0844   22.4617 H   0  0  0  0  0  0
  -30.7039  -23.0919   21.6975 H   0  0  0  0  0  0
  -30.3368  -24.7944   21.5008 H   0  0  0  0  0  0
  -31.0043  -23.8891   20.1507 H   0  0  0  0  0  0
  -26.6836  -21.0617   20.6983 H   0  0  0  0  0  0
  -26.1580  -19.4665   21.1043 H   0  0  0  0  0  0
  -28.0984  -21.9964   19.0957 H   0  0  0  0  0  0
  -29.7610  -22.2117   18.9079 H   0  0  0  0  0  0
  -28.7550  -24.8195   18.7817 H   0  0  0  0  0  0
  -27.2452  -24.5037   19.5306 H   0  0  0  0  0  0
  -28.7713  -15.5704   20.9633 H   0  0  0  0  0  0
  1 25  1  0  0  0
  1 30  2  0  0  0
  1 85  1  0  0  0
  2  3  1  0  0  0
  2 25  1  0  0  0
  2 86  1  0  0  0
  2 87  1  0  0  0
  3  4  1  0  0  0
  3 88  1  0  0  0
  3 89  1  0  0  0
  4  5  1  0  0  0
  4 90  1  0  0  0
  4 91  1  0  0  0
  5  6  1  0  0  0
  5 26  1  0  0  0
  5 92  1  0  0  0
  6 25  1  0  0  0
  6 93  1  0  0  0
  6 94  1  0  0  0
  7  8  2  0  0  0
  7 26  1  0  0  0
  7 29  1  0  0  0
  8  9  1  0  0  0
  8 22  1  0  0  0
  9 10  1  0  0  0
  9 27  2  0  0  0
 10 11  2  0  0  0
 10 15  1  0  0  0
 11 12  1  0  0  0
 11 95  1  0  0  0
 12 13  2  0  0  0
 12 96  1  0  0  0
 13 14  1  0  0  0
 13 31  1  0  0  0
 14 15  2  0  0  0
 14 97  1  0  0  0
 15 98  1  0  0  0
 16 17  2  0  0  0
 16 21  1  0  0  0
 16 31  1  0  0  0
 17 18  1  0  0  0
 17 99  1  0  0  0
 18 19  2  0  0  0
 18100  1  0  0  0
 19 20  1  0  0  0
 19 24  1  0  0  0
 20 21  2  0  0  0
 20101  1  0  0  0
 21 23  1  0  0  0
 22 28  1  0  0  0
 22 32  2  0  0  0
 26 27  1  0  0  0
 28102  1  0  0  0
 28103  1  0  0  0
 29104  1  0  0  0
 29105  1  0  0  0
 33 34  1  0  0  0
 33 66  1  0  0  0
 33 70  2  0  0  0
 34 36  1  0  0  0
 34 59  1  0  0  0
 34106  1  0  0  0
 35 44  2  0  0  0
 35 45  1  0  0  0
 35 68  1  0  0  0
 36 56  1  0  0  0
 36107  1  0  0  0
 37 39  1  0  0  0
 37 47  1  0  0  0
 37 66  1  0  0  0
 37108  1  0  0  0
 38 43  2  0  0  0
 38 46  1  0  0  0
 38 47  1  0  0  0
 39 64  1  0  0  0
 39 67  2  0  0  0
 40 52  1  0  0  0
 40 53  2  0  0  0
 40 58  1  0  0  0
 41109  1  0  0  0
 41110  1  0  0  0
 41111  1  0  0  0
 41 48  1  0  0  0
 42 43  1  0  0  0
 42 66  1  0  0  0
 42112  1  0  0  0
 42113  1  0  0  0
 43 44  1  0  0  0
 44114  1  0  0  0
 45 46  2  0  0  0
 45115  1  0  0  0
 46116  1  0  0  0
 47117  1  0  0  0
 47118  1  0  0  0
 48 56  1  0  0  0
 48 65  1  0  0  0
 48119  1  0  0  0
 49 50  1  0  0  0
 49 53  1  0  0  0
 49 64  1  0  0  0
 49120  1  0  0  0
 50 51  1  0  0  0
 50121  1  0  0  0
 50122  1  0  0  0
 51 52  1  0  0  0
 51123  1  0  0  0
 51124  1  0  0  0
 52125  1  0  0  0
 52126  1  0  0  0
 53 54  1  0  0  0
 54 55  2  0  0  0
 54127  1  0  0  0
 55 57  1  0  0  0
 55128  1  0  0  0
 56 69  2  0  0  0
 57 58  2  0  0  0
 57129  1  0  0  0
 58130  1  0  0  0
 59 60  1  0  0  0
 59 61  1  0  0  0
 59 62  1  0  0  0
 60131  1  0  0  0
 60132  1  0  0  0
 60133  1  0  0  0
 61134  1  0  0  0
 61135  1  0  0  0
 61136  1  0  0  0
 62137  1  0  0  0
 62138  1  0  0  0
 62139  1  0  0  0
 63 65  1  0  0  0
 63140  1  0  0  0
 63141  1  0  0  0
 63142  1  0  0  0
 64143  1  0  0  0
 65144  1  0  0  0
 68 83  1  0  0  0
 71 73  2  0  0  0
 71 76  1  0  0  0
 71145  1  0  0  0
 72 74  1  0  0  0
 72 76  2  0  0  0
 72146  1  0  0  0
 73 75  1  0  0  0
 73 77  1  0  0  0
 74 75  2  0  0  0
 74 81  1  0  0  0
 75 82  1  0  0  0
 76 85  1  0  0  0
 77147  1  0  0  0
 77148  1  0  0  0
 77149  1  0  0  0
 78 81  1  0  0  0
 78150  1  0  0  0
 78151  1  0  0  0
 78152  1  0  0  0
 79153  1  0  0  0
 79154  1  0  0  0
 79155  1  0  0  0
 79 84  1  0  0  0
 80 84  1  0  0  0
 80156  1  0  0  0
 80157  1  0  0  0
 80158  1  0  0  0
 81159  1  0  0  0
 81160  1  0  0  0
 82 84  1  0  0  0
 82161  1  0  0  0
 82162  1  0  0  0
 83 84  1  0  0  0
 83163  1  0  0  0
 83164  1  0  0  0
 85165  1  0  0  0
M  ISO  4   1 100  68 101  83 101  85 100
M  END
> <chiral flag>
0

> <version>
0

> <s_m_source_file>
/data/baiqing/PycharmProjects/Reinvent-master-3.2/result/LINK_invent/BTK/process_docking_weight1_custom_product_contain_oxygen_bond_distance_aromatic_linkinvent_7_9_3/rearranged_h_0138.sdf

> <i_m_source_file_index>
50

> <r_mmod_Potential_Energy-OPLS-2005>
374.4736328125

> <r_mmod_Stretch_Energy-OPLS-2005>
196.255798339844

> <r_mmod_Bend_Energy-OPLS-2005>
251.620407104492

> <r_mmod_Torsional_Energy-OPLS-2005>
224.077377319336

> <r_mmod_Improper_Torsional_Energy-OPLS-2005>
6.88955783843994

> <r_mmod_Van_der_Waal_Energy-OPLS-2005>
130.227828979492

> <r_mmod_Electrostatic_Energy-OPLS-2005>
-379.628112792969

> <r_mmod_Solvation_Energy-OPLS-2005>
-197.202926635742

> <b_mmod_Minimization_Converged-OPLS-2005>
0

> <r_mmod_RMS_Derivative-OPLS-2005>
2.18094277381897

$$$$
50
                    3D
 Structure written by MMmdl.
168176  0  0  1  0            999 V2000
  -30.7508  -14.4210   20.5023 C   0  0  0  0  0  0
  -30.4020  -12.2616   19.4356 C   0  0  0  0  0  0
  -29.4903  -12.4776   18.2112 C   0  0  0  0  0  0
  -28.0147  -12.3401   18.6256 C   0  0  0  0  0  0
  -27.6574  -13.2077   19.8621 C   0  0  2  0  0  0
  -28.6976  -13.0388   20.9942 C   0  0  0  0  0  0
  -25.2572  -13.8165   20.5647 C   0  0  0  0  0  0
  -24.1823  -13.0447   20.9163 C   0  0  0  0  0  0
  -24.6375  -11.6910   20.8721 C   0  0  0  0  0  0
  -23.9041  -10.4298   21.0410 C   0  0  0  0  0  0
  -24.3606   -9.4202   21.9182 C   0  0  0  0  0  0
  -23.6295   -8.2236   22.0744 C   0  0  0  0  0  0
  -22.4268   -8.0282   21.3536 C   0  0  0  0  0  0
  -21.9902   -9.0255   20.4647 C   0  0  0  0  0  0
  -22.7217  -10.2135   20.3058 C   0  0  0  0  0  0
  -21.6848   -6.0734   22.5269 C   0  0  0  0  0  0
  -21.4016   -6.5630   23.8203 C   0  0  0  0  0  0
  -21.3656   -5.6785   24.9167 C   0  0  0  0  0  0
  -21.6035   -4.3040   24.7214 C   0  0  0  0  0  0
  -21.8816   -3.8141   23.4338 C   0  0  0  0  0  0
  -21.9188   -4.6965   22.3392 C   0  0  0  0  0  0
  -22.7840  -13.5252   21.1832 C   0  0  0  0  0  0
  -22.1658   -4.2151   21.0967 F   0  0  0  0  0  0
  -21.5642   -3.4523   25.7727 F   0  0  0  0  0  0
  -30.0340  -13.2748   20.4324 N   0  0  0  0  0  0
  -26.2995  -12.9335   20.3309 N   0  0  0  0  0  0
  -25.9292  -11.6492   20.5749 N   0  0  0  0  0  0
  -22.0478  -12.8269   22.0412 N   0  0  0  0  0  0
  -25.4325  -15.1883   20.4008 N   0  0  0  0  0  0
  -31.9554  -14.4704   20.2455 O   0  0  0  0  0  0
  -21.6624   -6.8885   21.4240 O   0  0  0  0  0  0
  -22.3509  -14.5546   20.6668 O   0  0  0  0  0  0
  -24.6135  -31.8719   23.2118 C   0  0  0  0  0  0
  -25.9051  -32.4838   23.8391 C   0  0  1  0  0  0
  -27.2224  -27.4587   20.1011 C   0  0  0  0  0  0
  -25.5915  -33.8626   24.2335 N   0  0  0  0  0  0
  -23.3951  -30.4992   21.5528 C   0  0  2  0  0  0
  -24.8338  -28.9685   20.1147 C   0  0  0  0  0  0
  -22.7387  -29.4700   22.4999 C   0  0  0  0  0  0
  -18.0272  -28.1374   22.8500 C   0  0  0  0  0  0
  -24.1486  -36.7329   23.2633 C   0  0  0  0  0  0
  -25.9194  -30.8498   21.3539 C   0  0  0  0  0  0
  -25.9937  -29.4848   20.7047 C   0  0  0  0  0  0
  -27.1916  -28.7404   20.6891 C   0  0  0  0  0  0
  -26.0429  -26.9464   19.5166 C   0  0  0  0  0  0
  -24.8525  -27.6968   19.5162 C   0  0  0  0  0  0
  -23.5960  -29.8351   20.1649 C   0  0  0  0  0  0
  -25.4099  -36.3112   24.0337 C   0  0  1  0  0  0
  -20.5862  -28.3664   23.1322 C   0  0  2  0  0  0
  -20.6760  -26.9403   22.5422 C   0  0  0  0  0  0
  -19.5740  -26.6390   21.5213 C   0  0  0  0  0  0
  -18.1914  -26.7930   22.1617 C   0  0  0  0  0  0
  -19.1520  -28.8832   23.2914 C   0  0  0  0  0  0
  -18.9453  -30.1432   23.8930 C   0  0  0  0  0  0
  -17.6459  -30.6589   24.0566 C   0  0  0  0  0  0
  -25.9037  -34.9490   23.5128 C   0  0  0  0  0  0
  -16.5349  -29.9092   23.6326 C   0  0  0  0  0  0
  -16.7262  -28.6504   23.0357 C   0  0  0  0  0  0
  -26.4482  -31.6600   25.0711 C   0  0  0  0  0  0
  -25.3768  -31.3716   26.1481 C   0  0  0  0  0  0
  -27.0283  -30.3043   24.6050 C   0  0  0  0  0  0
  -27.6082  -32.4296   25.7460 C   0  0  0  0  0  0
  -27.5582  -37.1798   24.8457 C   0  0  0  0  0  0
  -21.4123  -29.3044   22.3734 N   0  0  0  0  0  0
  -26.4279  -37.3807   23.9425 N   0  0  0  0  0  0
  -24.6614  -31.0862   22.0987 N   0  0  0  0  0  0
  -23.4180  -28.8251   23.3028 O   0  0  0  0  0  0
  -28.4095  -26.7650   20.0847 O   0  0  0  0  0  0
  -26.5604  -34.8939   22.4692 O   0  0  0  0  0  0
  -23.5345  -32.1453   23.7550 O   0  0  0  0  0  0
  -29.8681  -17.9974   20.2318 C   0  0  0  0  0  0
  -31.0117  -19.0646   18.3664 C   0  0  0  0  0  0
  -31.1027  -16.6581   18.6124 C   0  0  0  0  0  0
  -30.1837  -19.1790   19.5137 C   0  0  0  0  0  0
  -30.3438  -16.7336   19.8105 C   0  0  0  0  0  0
  -31.4534  -17.8168   17.9107 C   0  0  0  0  0  0
  -31.3673  -22.1262   19.2305 C   0  0  0  0  0  0
  -29.2550  -21.6436   17.7789 C   0  0  0  0  0  0
  -28.0765  -24.5668   18.0628 C   0  0  0  0  0  0
  -30.3648  -25.0501   18.9337 C   0  0  0  0  0  0
  -29.6205  -20.5200   20.0339 C   0  0  0  0  0  0
  -29.0632  -23.0057   19.9041 C   0  0  0  0  0  0
  -28.3765  -25.3720   20.4183 C   0  0  0  0  0  0
  -29.8408  -21.8292   19.2032 C   0  0  0  0  0  0
  -28.9858  -24.4689   19.3085 C   0  0  0  0  0  0
  -30.0371  -15.5579   20.5708 N   0  0  0  0  0  0
  -32.2125  -17.7317   16.7922 F   0  0  0  0  0  0
  -31.4533  -12.3110   19.1487 H   0  0  0  0  0  0
  -30.2566  -11.2628   19.8510 H   0  0  0  0  0  0
  -29.7299  -11.7556   17.4293 H   0  0  0  0  0  0
  -29.6591  -13.4671   17.7810 H   0  0  0  0  0  0
  -27.8375  -11.2884   18.8539 H   0  0  0  0  0  0
  -27.3587  -12.5808   17.7893 H   0  0  0  0  0  0
  -27.6934  -14.2448   19.5270 H   0  0  0  0  0  0
  -28.6503  -12.0304   21.4082 H   0  0  0  0  0  0
  -28.4835  -13.7187   21.8201 H   0  0  0  0  0  0
  -25.2772   -9.5669   22.4720 H   0  0  0  0  0  0
  -24.0005   -7.4618   22.7436 H   0  0  0  0  0  0
  -21.0836   -8.8764   19.8951 H   0  0  0  0  0  0
  -22.3688  -10.9664   19.6142 H   0  0  0  0  0  0
  -21.2013   -7.6139   23.9714 H   0  0  0  0  0  0
  -21.1484   -6.0506   25.9066 H   0  0  0  0  0  0
  -22.0608   -2.7608   23.2816 H   0  0  0  0  0  0
  -22.4123  -11.9962   22.4845 H   0  0  0  0  0  0
  -21.1088  -13.1272   22.2595 H   0  0  0  0  0  0
  -24.6704  -15.8496   20.5008 H   0  0  0  0  0  0
  -26.2869  -15.6156   20.0663 H   0  0  0  0  0  0
  -26.7132  -32.5559   23.1163 H   0  0  0  0  0  0
  -25.0045  -33.9786   25.0463 H   0  0  0  0  0  0
  -22.6818  -31.3153   21.4224 H   0  0  0  0  0  0
  -23.3754  -35.9655   23.3272 H   0  0  0  0  0  0
  -24.3593  -36.8976   22.2056 H   0  0  0  0  0  0
  -23.7229  -37.6519   23.6666 H   0  0  0  0  0  0
  -26.0227  -31.6169   20.5847 H   0  0  0  0  0  0
  -26.8112  -30.9034   21.9662 H   0  0  0  0  0  0
  -28.0893  -29.1421   21.1371 H   0  0  0  0  0  0
  -26.0324  -25.9744   19.0504 H   0  0  0  0  0  0
  -23.9609  -27.2928   19.0558 H   0  0  0  0  0  0
  -23.6967  -30.6137   19.4073 H   0  0  0  0  0  0
  -22.7184  -29.2554   19.8727 H   0  0  0  0  0  0
  -25.1264  -36.1970   25.0828 H   0  0  0  0  0  0
  -20.9956  -28.3239   24.1440 H   0  0  0  0  0  0
  -20.5646  -26.2286   23.3613 H   0  0  0  0  0  0
  -21.6637  -26.7438   22.1232 H   0  0  0  0  0  0
  -19.6903  -25.6305   21.1233 H   0  0  0  0  0  0
  -19.6678  -27.3210   20.6750 H   0  0  0  0  0  0
  -17.4188  -26.6696   21.4008 H   0  0  0  0  0  0
  -18.0300  -26.0053   22.8992 H   0  0  0  0  0  0
  -19.7931  -30.7233   24.2322 H   0  0  0  0  0  0
  -17.5021  -31.6275   24.5157 H   0  0  0  0  0  0
  -15.5349  -30.3006   23.7631 H   0  0  0  0  0  0
  -15.8664  -28.0827   22.7064 H   0  0  0  0  0  0
  -24.5938  -30.7051   25.7845 H   0  0  0  0  0  0
  -24.8963  -32.2877   26.4922 H   0  0  0  0  0  0
  -25.8142  -30.8905   27.0239 H   0  0  0  0  0  0
  -26.2788  -29.6811   24.1160 H   0  0  0  0  0  0
  -27.4125  -29.7263   25.4463 H   0  0  0  0  0  0
  -27.8595  -30.4359   23.9122 H   0  0  0  0  0  0
  -27.2739  -33.3608   26.2039 H   0  0  0  0  0  0
  -28.3890  -32.6827   25.0277 H   0  0  0  0  0  0
  -28.0752  -31.8415   26.5369 H   0  0  0  0  0  0
  -28.2588  -38.0105   24.7529 H   0  0  0  0  0  0
  -28.1077  -36.2642   24.6225 H   0  0  0  0  0  0
  -27.2322  -37.1405   25.8863 H   0  0  0  0  0  0
  -20.9265  -29.8780   21.6985 H   0  0  0  0  0  0
  -26.0171  -38.2878   24.1447 H   0  0  0  0  0  0
  -29.2646  -18.0753   21.1249 H   0  0  0  0  0  0
  -31.3194  -19.9155   17.7787 H   0  0  0  0  0  0
  -31.4559  -15.7171   18.2173 H   0  0  0  0  0  0
  -31.7156  -22.6521   18.3449 H   0  0  0  0  0  0
  -31.9917  -21.2401   19.3155 H   0  0  0  0  0  0
  -31.6387  -22.7151   20.1075 H   0  0  0  0  0  0
  -29.3870  -20.6629   17.3357 H   0  0  0  0  0  0
  -29.6868  -22.3496   17.0743 H   0  0  0  0  0  0
  -28.1738  -21.7865   17.7848 H   0  0  0  0  0  0
  -28.5199  -24.1293   17.1737 H   0  0  0  0  0  0
  -27.8968  -25.6063   17.7920 H   0  0  0  0  0  0
  -27.1081  -24.0919   18.2224 H   0  0  0  0  0  0
  -30.7972  -24.5447   18.0741 H   0  0  0  0  0  0
  -31.0664  -24.9948   19.7649 H   0  0  0  0  0  0
  -30.2940  -26.0977   18.6413 H   0  0  0  0  0  0
  -30.0305  -20.6728   21.0341 H   0  0  0  0  0  0
  -28.5492  -20.3741   20.1840 H   0  0  0  0  0  0
  -29.4677  -23.0805   20.9159 H   0  0  0  0  0  0
  -28.0323  -22.6752   20.0534 H   0  0  0  0  0  0
  -28.9741  -25.2755   21.3255 H   0  0  0  0  0  0
  -27.3820  -25.0272   20.7041 H   0  0  0  0  0  0
  -29.1252  -15.5088   20.9988 H   0  0  0  0  0  0
  1 25  1  0  0  0
  1 30  2  0  0  0
  1 86  1  0  0  0
  2  3  1  0  0  0
  2 25  1  0  0  0
  2 88  1  0  0  0
  2 89  1  0  0  0
  3  4  1  0  0  0
  3 90  1  0  0  0
  3 91  1  0  0  0
  4  5  1  0  0  0
  4 92  1  0  0  0
  4 93  1  0  0  0
  5  6  1  0  0  0
  5 26  1  0  0  0
  5 94  1  0  0  0
  6 25  1  0  0  0
  6 95  1  0  0  0
  6 96  1  0  0  0
  7  8  2  0  0  0
  7 26  1  0  0  0
  7 29  1  0  0  0
  8  9  1  0  0  0
  8 22  1  0  0  0
  9 10  1  0  0  0
  9 27  2  0  0  0
 10 11  2  0  0  0
 10 15  1  0  0  0
 11 12  1  0  0  0
 11 97  1  0  0  0
 12 13  2  0  0  0
 12 98  1  0  0  0
 13 14  1  0  0  0
 13 31  1  0  0  0
 14 15  2  0  0  0
 14 99  1  0  0  0
 15100  1  0  0  0
 16 17  2  0  0  0
 16 21  1  0  0  0
 16 31  1  0  0  0
 17 18  1  0  0  0
 17101  1  0  0  0
 18 19  2  0  0  0
 18102  1  0  0  0
 19 20  1  0  0  0
 19 24  1  0  0  0
 20 21  2  0  0  0
 20103  1  0  0  0
 21 23  1  0  0  0
 22 28  1  0  0  0
 22 32  2  0  0  0
 26 27  1  0  0  0
 28104  1  0  0  0
 28105  1  0  0  0
 29106  1  0  0  0
 29107  1  0  0  0
 33 34  1  0  0  0
 33 66  1  0  0  0
 33 70  2  0  0  0
 34 36  1  0  0  0
 34 59  1  0  0  0
 34108  1  0  0  0
 35 44  2  0  0  0
 35 45  1  0  0  0
 35 68  1  0  0  0
 36 56  1  0  0  0
 36109  1  0  0  0
 37 39  1  0  0  0
 37 47  1  0  0  0
 37 66  1  0  0  0
 37110  1  0  0  0
 38 43  2  0  0  0
 38 46  1  0  0  0
 38 47  1  0  0  0
 39 64  1  0  0  0
 39 67  2  0  0  0
 40 52  1  0  0  0
 40 53  2  0  0  0
 40 58  1  0  0  0
 41111  1  0  0  0
 41112  1  0  0  0
 41113  1  0  0  0
 41 48  1  0  0  0
 42 43  1  0  0  0
 42 66  1  0  0  0
 42114  1  0  0  0
 42115  1  0  0  0
 43 44  1  0  0  0
 44116  1  0  0  0
 45 46  2  0  0  0
 45117  1  0  0  0
 46118  1  0  0  0
 47119  1  0  0  0
 47120  1  0  0  0
 48 56  1  0  0  0
 48 65  1  0  0  0
 48121  1  0  0  0
 49 50  1  0  0  0
 49 53  1  0  0  0
 49 64  1  0  0  0
 49122  1  0  0  0
 50 51  1  0  0  0
 50123  1  0  0  0
 50124  1  0  0  0
 51 52  1  0  0  0
 51125  1  0  0  0
 51126  1  0  0  0
 52127  1  0  0  0
 52128  1  0  0  0
 53 54  1  0  0  0
 54 55  2  0  0  0
 54129  1  0  0  0
 55 57  1  0  0  0
 55130  1  0  0  0
 56 69  2  0  0  0
 57 58  2  0  0  0
 57131  1  0  0  0
 58132  1  0  0  0
 59 60  1  0  0  0
 59 61  1  0  0  0
 59 62  1  0  0  0
 60133  1  0  0  0
 60134  1  0  0  0
 60135  1  0  0  0
 61136  1  0  0  0
 61137  1  0  0  0
 61138  1  0  0  0
 62139  1  0  0  0
 62140  1  0  0  0
 62141  1  0  0  0
 63 65  1  0  0  0
 63142  1  0  0  0
 63143  1  0  0  0
 63144  1  0  0  0
 64145  1  0  0  0
 65146  1  0  0  0
 68 83  1  0  0  0
 71 74  2  0  0  0
 71 75  1  0  0  0
 71147  1  0  0  0
 72 74  1  0  0  0
 72 76  2  0  0  0
 72148  1  0  0  0
 73 75  2  0  0  0
 73 76  1  0  0  0
 73149  1  0  0  0
 74 81  1  0  0  0
 75 86  1  0  0  0
 76 87  1  0  0  0
 77150  1  0  0  0
 77151  1  0  0  0
 77152  1  0  0  0
 77 84  1  0  0  0
 78 84  1  0  0  0
 78153  1  0  0  0
 78154  1  0  0  0
 78155  1  0  0  0
 79156  1  0  0  0
 79157  1  0  0  0
 79158  1  0  0  0
 79 85  1  0  0  0
 80 85  1  0  0  0
 80159  1  0  0  0
 80160  1  0  0  0
 80161  1  0  0  0
 81 84  1  0  0  0
 81162  1  0  0  0
 81163  1  0  0  0
 82 84  1  0  0  0
 82 85  1  0  0  0
 82164  1  0  0  0
 82165  1  0  0  0
 83 85  1  0  0  0
 83166  1  0  0  0
 83167  1  0  0  0
 86168  1  0  0  0
M  ISO  4   1 100  68 101  83 101  86 100
M  END
> <chiral flag>
0

> <version>
0

> <s_m_source_file>
/data/baiqing/PycharmProjects/Reinvent-master-3.2/result/LINK_invent/BTK/process_docking_weight1_custom_product_contain_oxygen_bond_distance_aromatic_linkinvent_7_9_3/rearranged_h_0138.sdf

> <i_m_source_file_index>
51

> <r_mmod_Potential_Energy-OPLS-2005>
130.248840332031

> <r_mmod_Stretch_Energy-OPLS-2005>
43.7114562988281

> <r_mmod_Bend_Energy-OPLS-2005>
128.749221801758

> <r_mmod_Torsional_Energy-OPLS-2005>
275.964630126953

> <r_mmod_Improper_Torsional_Energy-OPLS-2005>
7.82944583892822

> <r_mmod_Van_der_Waal_Energy-OPLS-2005>
189.025146484375

> <r_mmod_Electrostatic_Energy-OPLS-2005>
-350.0654296875

> <r_mmod_Solvation_Energy-OPLS-2005>
-188.003799438477

> <b_mmod_Minimization_Converged-OPLS-2005>
0

> <r_mmod_RMS_Derivative-OPLS-2005>
3.25407600402832

$$$$
51
                    3D
 Structure written by MMmdl.
159168  0  0  1  0            999 V2000
  -30.5298  -14.9547   20.3802 C   0  0  0  0  0  0
  -30.4436  -12.5845   19.4840 C   0  0  0  0  0  0
  -29.5196  -12.5164   18.2464 C   0  0  0  0  0  0
  -28.0543  -12.2988   18.6726 C   0  0  0  0  0  0
  -27.6288  -13.2314   19.8363 C   0  0  2  0  0  0
  -28.6775  -13.2794   20.9666 C   0  0  0  0  0  0
  -25.2495  -13.8168   20.5753 C   0  0  0  0  0  0
  -24.1779  -13.0417   20.9216 C   0  0  0  0  0  0
  -24.6374  -11.6890   20.8753 C   0  0  0  0  0  0
  -23.9049  -10.4275   21.0404 C   0  0  0  0  0  0
  -24.3609   -9.4195   21.9184 C   0  0  0  0  0  0
  -23.6281   -8.2228   22.0753 C   0  0  0  0  0  0
  -22.4262   -8.0270   21.3549 C   0  0  0  0  0  0
  -21.9890   -9.0238   20.4654 C   0  0  0  0  0  0
  -22.7214  -10.2117   20.3055 C   0  0  0  0  0  0
  -21.6845   -6.0725   22.5272 C   0  0  0  0  0  0
  -21.4017   -6.5631   23.8205 C   0  0  0  0  0  0
  -21.3661   -5.6785   24.9168 C   0  0  0  0  0  0
  -21.6035   -4.3046   24.7219 C   0  0  0  0  0  0
  -21.8822   -3.8145   23.4347 C   0  0  0  0  0  0
  -21.9195   -4.6954   22.3400 C   0  0  0  0  0  0
  -22.7809  -13.5213   21.1861 C   0  0  0  0  0  0
  -22.1665   -4.2146   21.0977 F   0  0  0  0  0  0
  -21.5631   -3.4530   25.7735 F   0  0  0  0  0  0
  -29.9457  -13.6891   20.3509 N   0  0  0  0  0  0
  -26.2895  -12.9359   20.3281 N   0  0  0  0  0  0
  -25.9306  -11.6505   20.5745 N   0  0  0  0  0  0
  -22.0445  -12.8220   22.0426 N   0  0  0  0  0  0
  -25.4217  -15.1894   20.4250 N   0  0  0  0  0  0
  -31.7502  -15.0130   20.1854 O   0  0  0  0  0  0
  -21.6634   -6.8863   21.4231 O   0  0  0  0  0  0
  -22.3509  -14.5517   20.6705 O   0  0  0  0  0  0
  -24.6460  -31.8426   23.1878 C   0  0  0  0  0  0
  -25.9227  -32.4685   23.8270 C   0  0  1  0  0  0
  -27.2117  -27.1198   20.1272 C   0  0  0  0  0  0
  -25.5967  -33.8497   24.2186 N   0  0  0  0  0  0
  -23.4480  -30.4655   21.5340 C   0  0  2  0  0  0
  -24.8904  -28.8905   20.1095 C   0  0  0  0  0  0
  -22.7571  -29.4550   22.4841 C   0  0  0  0  0  0
  -18.0309  -28.1399   22.8472 C   0  0  0  0  0  0
  -24.1494  -36.7253   23.2640 C   0  0  0  0  0  0
  -26.0068  -30.7104   21.3874 C   0  0  0  0  0  0
  -26.0723  -29.3238   20.7205 C   0  0  0  0  0  0
  -27.2290  -28.4551   20.7095 C   0  0  0  0  0  0
  -25.9843  -26.7804   19.5181 C   0  0  0  0  0  0
  -24.8586  -27.6301   19.4987 C   0  0  0  0  0  0
  -23.6735  -29.8001   20.1515 C   0  0  0  0  0  0
  -25.4124  -36.3029   24.0313 C   0  0  1  0  0  0
  -20.5925  -28.3734   23.1223 C   0  0  2  0  0  0
  -20.6797  -26.9433   22.5400 C   0  0  0  0  0  0
  -19.5764  -26.6384   21.5210 C   0  0  0  0  0  0
  -18.1946  -26.7936   22.1621 C   0  0  0  0  0  0
  -19.1565  -28.8879   23.2842 C   0  0  0  0  0  0
  -18.9486  -30.1477   23.8872 C   0  0  0  0  0  0
  -17.6482  -30.6593   24.0562 C   0  0  0  0  0  0
  -25.9076  -34.9403   23.5054 C   0  0  0  0  0  0
  -16.5372  -29.9087   23.6338 C   0  0  0  0  0  0
  -16.7294  -28.6506   23.0355 C   0  0  0  0  0  0
  -26.4534  -31.6569   25.0732 C   0  0  0  0  0  0
  -25.3709  -31.3790   26.1424 C   0  0  0  0  0  0
  -27.0403  -30.2957   24.6349 C   0  0  0  0  0  0
  -27.6056  -32.4347   25.7517 C   0  0  0  0  0  0
  -27.5580  -37.1781   24.8458 C   0  0  0  0  0  0
  -21.4261  -29.3063   22.3592 N   0  0  0  0  0  0
  -26.4286  -37.3748   23.9410 N   0  0  0  0  0  0
  -24.7207  -31.0282   22.0915 N   0  0  0  0  0  0
  -23.4208  -28.8091   23.2988 O   0  0  0  0  0  0
  -28.3039  -26.1724   20.2131 O   0  0  0  0  0  0
  -26.5661  -34.8905   22.4632 O   0  0  0  0  0  0
  -23.5577  -32.1313   23.7093 O   0  0  0  0  0  0
  -28.8139  -19.4109   19.1407 C   0  0  0  0  0  0
  -29.7860  -19.9985   21.2813 C   0  0  0  0  0  0
  -29.1544  -18.0437   19.4513 C   0  0  0  0  0  0
  -30.1409  -18.6005   21.5801 C   0  0  0  0  0  0
  -29.8136  -17.5827   20.6377 C   0  0  0  0  0  0
  -29.1237  -20.4833   20.0767 C   0  0  0  0  0  0
  -29.0504  -16.5865   18.9865 C   0  0  0  0  0  0
  -30.8202  -18.2362   22.8815 C   0  0  0  0  0  0
  -29.9978  -24.9109   19.2590 C   0  0  0  0  0  0
  -27.7708  -24.5046   18.3039 C   0  0  0  0  0  0
  -28.5135  -23.2406   20.4630 C   0  0  0  0  0  0
  -28.5186  -24.7222   19.6351 C   0  0  0  0  0  0
  -29.7137  -16.1229   20.2834 N   0  0  0  0  0  0
  -28.8178  -21.8994   19.7193 N   0  0  0  0  0  0
  -31.4768  -12.7448   19.1701 H   0  0  0  0  0  0
  -30.4406  -11.6373   20.0264 H   0  0  0  0  0  0
  -29.8396  -11.7178   17.5756 H   0  0  0  0  0  0
  -29.6012  -13.4437   17.6750 H   0  0  0  0  0  0
  -27.9542  -11.2584   18.9830 H   0  0  0  0  0  0
  -27.3890  -12.4286   17.8180 H   0  0  0  0  0  0
  -27.5812  -14.2222   19.3963 H   0  0  0  0  0  0
  -28.7740  -12.3131   21.4647 H   0  0  0  0  0  0
  -28.3835  -13.9993   21.7328 H   0  0  0  0  0  0
  -25.2748   -9.5678   22.4760 H   0  0  0  0  0  0
  -23.9990   -7.4621   22.7473 H   0  0  0  0  0  0
  -21.0822   -8.8761   19.8963 H   0  0  0  0  0  0
  -22.3671  -10.9663   19.6176 H   0  0  0  0  0  0
  -21.2012   -7.6137   23.9708 H   0  0  0  0  0  0
  -21.1482   -6.0516   25.9069 H   0  0  0  0  0  0
  -22.0604   -2.7603   23.2844 H   0  0  0  0  0  0
  -22.4067  -11.9888   22.4825 H   0  0  0  0  0  0
  -21.1069  -13.1273   22.2630 H   0  0  0  0  0  0
  -24.6614  -15.8464   20.5603 H   0  0  0  0  0  0
  -26.2908  -15.6374   20.1671 H   0  0  0  0  0  0
  -26.7293  -32.5275   23.0993 H   0  0  0  0  0  0
  -25.0099  -33.9613   25.0325 H   0  0  0  0  0  0
  -22.7524  -31.2934   21.3825 H   0  0  0  0  0  0
  -23.3767  -35.9572   23.3272 H   0  0  0  0  0  0
  -24.3586  -36.8919   22.2061 H   0  0  0  0  0  0
  -23.7238  -37.6434   23.6701 H   0  0  0  0  0  0
  -26.1723  -31.4696   20.6216 H   0  0  0  0  0  0
  -26.8733  -30.7516   22.0363 H   0  0  0  0  0  0
  -28.1331  -28.7857   21.2016 H   0  0  0  0  0  0
  -25.8247  -25.8088   19.0938 H   0  0  0  0  0  0
  -23.9466  -27.2810   19.0352 H   0  0  0  0  0  0
  -23.8225  -30.5791   19.4025 H   0  0  0  0  0  0
  -22.7842  -29.2538   19.8326 H   0  0  0  0  0  0
  -25.1310  -36.1845   25.0805 H   0  0  0  0  0  0
  -21.0022  -28.3333   24.1341 H   0  0  0  0  0  0
  -20.5695  -26.2346   23.3626 H   0  0  0  0  0  0
  -21.6664  -26.7442   22.1196 H   0  0  0  0  0  0
  -19.6931  -25.6284   21.1263 H   0  0  0  0  0  0
  -19.6701  -27.3177   20.6723 H   0  0  0  0  0  0
  -17.4216  -26.6681   21.4026 H   0  0  0  0  0  0
  -18.0350  -26.0086   22.9026 H   0  0  0  0  0  0
  -19.7961  -30.7300   24.2231 H   0  0  0  0  0  0
  -17.5036  -31.6275   24.5167 H   0  0  0  0  0  0
  -15.5371  -30.2983   23.7679 H   0  0  0  0  0  0
  -15.8695  -28.0822   22.7081 H   0  0  0  0  0  0
  -24.5851  -30.7183   25.7748 H   0  0  0  0  0  0
  -24.8946  -32.2993   26.4817 H   0  0  0  0  0  0
  -25.7970  -30.8967   27.0230 H   0  0  0  0  0  0
  -26.3038  -29.6669   24.1337 H   0  0  0  0  0  0
  -27.3973  -29.7276   25.4951 H   0  0  0  0  0  0
  -27.8964  -30.4179   23.9710 H   0  0  0  0  0  0
  -27.2634  -33.3653   26.2057 H   0  0  0  0  0  0
  -28.3883  -32.6901   25.0362 H   0  0  0  0  0  0
  -28.0710  -31.8506   26.5467 H   0  0  0  0  0  0
  -28.2569  -38.0106   24.7529 H   0  0  0  0  0  0
  -28.1104  -36.2634   24.6243 H   0  0  0  0  0  0
  -27.2307  -37.1381   25.8864 H   0  0  0  0  0  0
  -20.9464  -29.8774   21.6776 H   0  0  0  0  0  0
  -26.0142  -38.2810   24.1430 H   0  0  0  0  0  0
  -28.3121  -19.6226   18.2076 H   0  0  0  0  0  0
  -30.0548  -20.7403   22.0191 H   0  0  0  0  0  0
  -29.6290  -16.3874   18.0824 H   0  0  0  0  0  0
  -28.0079  -16.2932   18.8694 H   0  0  0  0  0  0
  -31.4587  -19.0499   23.2248 H   0  0  0  0  0  0
  -31.4436  -17.3497   22.7618 H   0  0  0  0  0  0
  -30.0782  -18.0322   23.6526 H   0  0  0  0  0  0
  -30.4001  -24.0391   18.7402 H   0  0  0  0  0  0
  -30.6073  -25.0667   20.1491 H   0  0  0  0  0  0
  -30.1399  -25.7728   18.6051 H   0  0  0  0  0  0
  -28.2923  -23.7865   17.6701 H   0  0  0  0  0  0
  -27.6846  -25.4232   17.7229 H   0  0  0  0  0  0
  -26.7795  -24.0833   18.4637 H   0  0  0  0  0  0
  -27.5189  -23.1214   20.8962 H   0  0  0  0  0  0
  -29.1874  -23.3099   21.3172 H   0  0  0  0  0  0
  -28.5869  -21.9965   18.7342 H   0  0  0  0  0  0
  1 25  1  0  0  0
  1 30  2  0  0  0
  1 83  1  0  0  0
  2  3  1  0  0  0
  2 25  1  0  0  0
  2 85  1  0  0  0
  2 86  1  0  0  0
  3  4  1  0  0  0
  3 87  1  0  0  0
  3 88  1  0  0  0
  4  5  1  0  0  0
  4 89  1  0  0  0
  4 90  1  0  0  0
  5  6  1  0  0  0
  5 26  1  0  0  0
  5 91  1  0  0  0
  6 25  1  0  0  0
  6 92  1  0  0  0
  6 93  1  0  0  0
  7  8  2  0  0  0
  7 26  1  0  0  0
  7 29  1  0  0  0
  8  9  1  0  0  0
  8 22  1  0  0  0
  9 10  1  0  0  0
  9 27  2  0  0  0
 10 11  2  0  0  0
 10 15  1  0  0  0
 11 12  1  0  0  0
 11 94  1  0  0  0
 12 13  2  0  0  0
 12 95  1  0  0  0
 13 14  1  0  0  0
 13 31  1  0  0  0
 14 15  2  0  0  0
 14 96  1  0  0  0
 15 97  1  0  0  0
 16 17  2  0  0  0
 16 21  1  0  0  0
 16 31  1  0  0  0
 17 18  1  0  0  0
 17 98  1  0  0  0
 18 19  2  0  0  0
 18 99  1  0  0  0
 19 20  1  0  0  0
 19 24  1  0  0  0
 20 21  2  0  0  0
 20100  1  0  0  0
 21 23  1  0  0  0
 22 28  1  0  0  0
 22 32  2  0  0  0
 26 27  1  0  0  0
 28101  1  0  0  0
 28102  1  0  0  0
 29103  1  0  0  0
 29104  1  0  0  0
 33 34  1  0  0  0
 33 66  1  0  0  0
 33 70  2  0  0  0
 34 36  1  0  0  0
 34 59  1  0  0  0
 34105  1  0  0  0
 35 44  2  0  0  0
 35 45  1  0  0  0
 35 68  1  0  0  0
 36 56  1  0  0  0
 36106  1  0  0  0
 37 39  1  0  0  0
 37 47  1  0  0  0
 37 66  1  0  0  0
 37107  1  0  0  0
 38 43  2  0  0  0
 38 46  1  0  0  0
 38 47  1  0  0  0
 39 64  1  0  0  0
 39 67  2  0  0  0
 40 52  1  0  0  0
 40 53  2  0  0  0
 40 58  1  0  0  0
 41108  1  0  0  0
 41109  1  0  0  0
 41110  1  0  0  0
 41 48  1  0  0  0
 42 43  1  0  0  0
 42 66  1  0  0  0
 42111  1  0  0  0
 42112  1  0  0  0
 43 44  1  0  0  0
 44113  1  0  0  0
 45 46  2  0  0  0
 45114  1  0  0  0
 46115  1  0  0  0
 47116  1  0  0  0
 47117  1  0  0  0
 48 56  1  0  0  0
 48 65  1  0  0  0
 48118  1  0  0  0
 49 50  1  0  0  0
 49 53  1  0  0  0
 49 64  1  0  0  0
 49119  1  0  0  0
 50 51  1  0  0  0
 50120  1  0  0  0
 50121  1  0  0  0
 51 52  1  0  0  0
 51122  1  0  0  0
 51123  1  0  0  0
 52124  1  0  0  0
 52125  1  0  0  0
 53 54  1  0  0  0
 54 55  2  0  0  0
 54126  1  0  0  0
 55 57  1  0  0  0
 55127  1  0  0  0
 56 69  2  0  0  0
 57 58  2  0  0  0
 57128  1  0  0  0
 58129  1  0  0  0
 59 60  1  0  0  0
 59 61  1  0  0  0
 59 62  1  0  0  0
 60130  1  0  0  0
 60131  1  0  0  0
 60132  1  0  0  0
 61133  1  0  0  0
 61134  1  0  0  0
 61135  1  0  0  0
 62136  1  0  0  0
 62137  1  0  0  0
 62138  1  0  0  0
 63 65  1  0  0  0
 63139  1  0  0  0
 63140  1  0  0  0
 63141  1  0  0  0
 64142  1  0  0  0
 65143  1  0  0  0
 68 82  1  0  0  0
 71 73  2  0  0  0
 71 76  1  0  0  0
 71144  1  0  0  0
 72 74  1  0  0  0
 72 76  2  0  0  0
 72145  1  0  0  0
 73 75  1  0  0  0
 73 77  1  0  0  0
 74 75  2  0  0  0
 74 78  1  0  0  0
 75 83  1  0  0  0
 76 84  1  0  0  0
 77 83  1  0  0  0
 77146  1  0  0  0
 77147  1  0  0  0
 78148  1  0  0  0
 78149  1  0  0  0
 78150  1  0  0  0
 79151  1  0  0  0
 79152  1  0  0  0
 79153  1  0  0  0
 79 82  1  0  0  0
 80 82  1  0  0  0
 80154  1  0  0  0
 80155  1  0  0  0
 80156  1  0  0  0
 81 82  1  0  0  0
 81 84  1  0  0  0
 81157  1  0  0  0
 81158  1  0  0  0
 84159  1  0  0  0
M  ISO  4   1 100  68 101  82 101  83 100
M  END
> <chiral flag>
0

> <version>
0

> <s_m_source_file>
/data/baiqing/PycharmProjects/Reinvent-master-3.2/result/LINK_invent/BTK/process_docking_weight1_custom_product_contain_oxygen_bond_distance_aromatic_linkinvent_7_9_3/rearranged_h_0138.sdf

> <i_m_source_file_index>
52

> <r_mmod_Potential_Energy-OPLS-2005>
1005.18377685547

> <r_mmod_Stretch_Energy-OPLS-2005>
251.684066772461

> <r_mmod_Bend_Energy-OPLS-2005>
731.761413574219

> <r_mmod_Torsional_Energy-OPLS-2005>
289.227294921875

> <r_mmod_Improper_Torsional_Energy-OPLS-2005>
15.3080158233643

> <r_mmod_Van_der_Waal_Energy-OPLS-2005>
124.399436950684

> <r_mmod_Electrostatic_Energy-OPLS-2005>
-404.537353515625

> <r_mmod_Solvation_Energy-OPLS-2005>
-200.447647094727

> <b_mmod_Minimization_Converged-OPLS-2005>
0

> <r_mmod_RMS_Derivative-OPLS-2005>
2.17697024345398

$$$$
52
                    3D
 Structure written by MMmdl.
163172  0  0  1  0            999 V2000
  -30.6527  -14.4951   20.5983 C   0  0  0  0  0  0
  -30.4339  -12.3317   19.4111 C   0  0  0  0  0  0
  -29.4899  -12.5155   18.2033 C   0  0  0  0  0  0
  -28.0137  -12.3591   18.6214 C   0  0  0  0  0  0
  -27.6600  -13.1958   19.8794 C   0  0  2  0  0  0
  -28.7009  -12.9535   20.9945 C   0  0  0  0  0  0
  -25.2577  -13.8138   20.5682 C   0  0  0  0  0  0
  -24.1815  -13.0424   20.9181 C   0  0  0  0  0  0
  -24.6365  -11.6894   20.8746 C   0  0  0  0  0  0
  -23.9032  -10.4291   21.0413 C   0  0  0  0  0  0
  -24.3589   -9.4216   21.9196 C   0  0  0  0  0  0
  -23.6273   -8.2245   22.0765 C   0  0  0  0  0  0
  -22.4261   -8.0271   21.3545 C   0  0  0  0  0  0
  -21.9893   -9.0239   20.4641 C   0  0  0  0  0  0
  -22.7210  -10.2127   20.3059 C   0  0  0  0  0  0
  -21.6846   -6.0724   22.5276 C   0  0  0  0  0  0
  -21.4006   -6.5636   23.8206 C   0  0  0  0  0  0
  -21.3664   -5.6795   24.9173 C   0  0  0  0  0  0
  -21.6046   -4.3056   24.7222 C   0  0  0  0  0  0
  -21.8816   -3.8140   23.4346 C   0  0  0  0  0  0
  -21.9187   -4.6953   22.3401 C   0  0  0  0  0  0
  -22.7844  -13.5232   21.1832 C   0  0  0  0  0  0
  -22.1656   -4.2141   21.0978 F   0  0  0  0  0  0
  -21.5638   -3.4544   25.7738 F   0  0  0  0  0  0
  -30.0295  -13.2920   20.4496 N   0  0  0  0  0  0
  -26.3003  -12.9284   20.3380 N   0  0  0  0  0  0
  -25.9287  -11.6459   20.5779 N   0  0  0  0  0  0
  -22.0483  -12.8222   22.0388 N   0  0  0  0  0  0
  -25.4276  -15.1856   20.4086 N   0  0  0  0  0  0
  -31.7784  -14.7306   20.1457 O   0  0  0  0  0  0
  -21.6631   -6.8862   21.4235 O   0  0  0  0  0  0
  -22.3548  -14.5544   20.6685 O   0  0  0  0  0  0
  -24.6150  -31.8686   23.2086 C   0  0  0  0  0  0
  -25.9049  -32.4822   23.8390 C   0  0  1  0  0  0
  -27.2350  -27.4204   20.0927 C   0  0  0  0  0  0
  -25.5905  -33.8619   24.2314 N   0  0  0  0  0  0
  -23.4025  -30.4930   21.5500 C   0  0  2  0  0  0
  -24.8485  -28.9613   20.1131 C   0  0  0  0  0  0
  -22.7390  -29.4683   22.4977 C   0  0  0  0  0  0
  -18.0275  -28.1380   22.8506 C   0  0  0  0  0  0
  -24.1481  -36.7297   23.2635 C   0  0  0  0  0  0
  -25.9342  -30.8312   21.3632 C   0  0  0  0  0  0
  -26.0118  -29.4657   20.7070 C   0  0  0  0  0  0
  -27.2066  -28.7049   20.6910 C   0  0  0  0  0  0
  -26.0448  -26.9373   19.4943 C   0  0  0  0  0  0
  -24.8614  -27.6970   19.5043 C   0  0  0  0  0  0
  -23.6095  -29.8264   20.1647 C   0  0  0  0  0  0
  -25.4107  -36.3106   24.0328 C   0  0  1  0  0  0
  -20.5867  -28.3677   23.1295 C   0  0  2  0  0  0
  -20.6770  -26.9412   22.5391 C   0  0  0  0  0  0
  -19.5738  -26.6396   21.5191 C   0  0  0  0  0  0
  -18.1923  -26.7934   22.1617 C   0  0  0  0  0  0
  -19.1529  -28.8839   23.2904 C   0  0  0  0  0  0
  -18.9459  -30.1446   23.8912 C   0  0  0  0  0  0
  -17.6463  -30.6595   24.0565 C   0  0  0  0  0  0
  -25.9049  -34.9475   23.5120 C   0  0  0  0  0  0
  -16.5350  -29.9101   23.6329 C   0  0  0  0  0  0
  -16.7265  -28.6509   23.0369 C   0  0  0  0  0  0
  -26.4469  -31.6601   25.0722 C   0  0  0  0  0  0
  -25.3718  -31.3634   26.1439 C   0  0  0  0  0  0
  -27.0360  -30.3078   24.6091 C   0  0  0  0  0  0
  -27.6030  -32.4322   25.7511 C   0  0  0  0  0  0
  -27.5574  -37.1806   24.8456 C   0  0  0  0  0  0
  -21.4119  -29.3054   22.3698 N   0  0  0  0  0  0
  -26.4282  -37.3798   23.9409 N   0  0  0  0  0  0
  -24.6692  -31.0776   22.0995 N   0  0  0  0  0  0
  -23.4156  -28.8240   23.3040 O   0  0  0  0  0  0
  -28.4083  -26.6789   20.1156 O   0  0  0  0  0  0
  -26.5616  -34.8924   22.4686 O   0  0  0  0  0  0
  -23.5343  -32.1453   23.7472 O   0  0  0  0  0  0
  -28.9881  -17.6578   20.6342 C   0  0  0  0  0  0
  -31.0495  -17.4903   21.9042 C   0  0  0  0  0  0
  -28.9808  -19.0670   20.7789 C   0  0  0  0  0  0
  -31.0460  -18.8958   22.0767 C   0  0  0  0  0  0
  -30.0133  -16.8583   21.1879 C   0  0  0  0  0  0
  -30.0291  -19.7002   21.5010 C   0  0  0  0  0  0
  -29.6106  -23.3758   21.0791 C   0  0  0  0  0  0
  -26.9192  -20.6473   21.1341 C   0  0  0  0  0  0
  -26.3856  -19.4212   20.4354 C   0  0  0  0  0  0
  -27.8212  -19.8483   20.2207 C   0  0  0  0  0  0
  -32.1198  -19.5366   22.9368 C   0  0  0  0  0  0
  -29.6475  -24.4927   20.0155 C   0  0  0  0  0  0
  -30.1655  -21.9814   20.6963 C   0  0  0  0  0  0
  -28.3172  -25.2688   19.8222 C   0  0  0  0  0  0
  -29.8703  -15.4392   21.1636 N   0  0  0  0  0  0
  -29.1739  -23.6041   22.2128 O   0  0  0  0  0  0
  -30.0160  -21.0548   21.7855 O   0  0  0  0  0  0
  -31.4715  -12.4703   19.1026 H   0  0  0  0  0  0
  -30.3680  -11.3137   19.7984 H   0  0  0  0  0  0
  -29.7332  -11.7965   17.4204 H   0  0  0  0  0  0
  -29.6393  -13.5048   17.7676 H   0  0  0  0  0  0
  -27.8340  -11.3015   18.8199 H   0  0  0  0  0  0
  -27.3553  -12.6262   17.7939 H   0  0  0  0  0  0
  -27.7080  -14.2446   19.5873 H   0  0  0  0  0  0
  -28.6903  -11.9066   21.3020 H   0  0  0  0  0  0
  -28.4504  -13.5122   21.8980 H   0  0  0  0  0  0
  -25.2727   -9.5702   22.4785 H   0  0  0  0  0  0
  -23.9975   -7.4643   22.7505 H   0  0  0  0  0  0
  -21.0826   -8.8743   19.8949 H   0  0  0  0  0  0
  -22.3651  -10.9664   19.6169 H   0  0  0  0  0  0
  -21.1998   -7.6148   23.9700 H   0  0  0  0  0  0
  -21.1494   -6.0533   25.9073 H   0  0  0  0  0  0
  -22.0592   -2.7606   23.2847 H   0  0  0  0  0  0
  -22.4090  -11.9864   22.4749 H   0  0  0  0  0  0
  -21.1100  -13.1243   22.2593 H   0  0  0  0  0  0
  -24.6542  -15.8328   20.5124 H   0  0  0  0  0  0
  -26.2706  -15.6278   20.0670 H   0  0  0  0  0  0
  -26.7126  -32.5523   23.1158 H   0  0  0  0  0  0
  -25.0047  -33.9784   25.0452 H   0  0  0  0  0  0
  -22.6924  -31.3108   21.4094 H   0  0  0  0  0  0
  -23.3766  -35.9604   23.3271 H   0  0  0  0  0  0
  -24.3571  -36.8957   22.2055 H   0  0  0  0  0  0
  -23.7212  -37.6472   23.6690 H   0  0  0  0  0  0
  -26.0482  -31.5992   20.5960 H   0  0  0  0  0  0
  -26.8208  -30.8829   21.9832 H   0  0  0  0  0  0
  -28.1035  -29.0940   21.1529 H   0  0  0  0  0  0
  -25.9988  -25.9730   19.0114 H   0  0  0  0  0  0
  -23.9674  -27.3008   19.0430 H   0  0  0  0  0  0
  -23.7090  -30.6009   19.4033 H   0  0  0  0  0  0
  -22.7344  -29.2429   19.8726 H   0  0  0  0  0  0
  -25.1278  -36.1966   25.0817 H   0  0  0  0  0  0
  -20.9978  -28.3258   24.1406 H   0  0  0  0  0  0
  -20.5693  -26.2269   23.3571 H   0  0  0  0  0  0
  -21.6634  -26.7468   22.1161 H   0  0  0  0  0  0
  -19.6891  -25.6317   21.1202 H   0  0  0  0  0  0
  -19.6670  -27.3214   20.6728 H   0  0  0  0  0  0
  -17.4183  -26.6701   21.4024 H   0  0  0  0  0  0
  -18.0327  -26.0056   22.8994 H   0  0  0  0  0  0
  -19.7936  -30.7256   24.2287 H   0  0  0  0  0  0
  -17.5028  -31.6281   24.5164 H   0  0  0  0  0  0
  -15.5359  -30.3018   23.7632 H   0  0  0  0  0  0
  -15.8666  -28.0823   22.7100 H   0  0  0  0  0  0
  -24.5921  -30.6978   25.7716 H   0  0  0  0  0  0
  -24.8864  -32.2748   26.4935 H   0  0  0  0  0  0
  -25.8059  -30.8747   27.0171 H   0  0  0  0  0  0
  -26.2934  -29.6799   24.1154 H   0  0  0  0  0  0
  -27.4186  -29.7346   25.4547 H   0  0  0  0  0  0
  -27.8725  -30.4447   23.9232 H   0  0  0  0  0  0
  -27.2663  -33.3639   26.2068 H   0  0  0  0  0  0
  -28.3868  -32.6850   25.0357 H   0  0  0  0  0  0
  -28.0666  -31.8448   26.5445 H   0  0  0  0  0  0
  -28.2543  -38.0157   24.7597 H   0  0  0  0  0  0
  -28.1132  -36.2690   24.6197 H   0  0  0  0  0  0
  -27.2280  -37.1335   25.8852 H   0  0  0  0  0  0
  -20.9268  -29.8781   21.6927 H   0  0  0  0  0  0
  -26.0161  -38.2859   24.1469 H   0  0  0  0  0  0
  -28.1651  -17.1824   20.1201 H   0  0  0  0  0  0
  -31.8128  -16.8900   22.3799 H   0  0  0  0  0  0
  -27.0850  -20.5744   22.2076 H   0  0  0  0  0  0
  -26.5680  -21.6149   20.7801 H   0  0  0  0  0  0
  -25.6740  -19.5967   19.6296 H   0  0  0  0  0  0
  -26.1936  -18.5401   21.0448 H   0  0  0  0  0  0
  -28.0568  -20.2582   19.2408 H   0  0  0  0  0  0
  -32.7174  -18.7866   23.4567 H   0  0  0  0  0  0
  -31.6655  -20.1768   23.6946 H   0  0  0  0  0  0
  -32.7891  -20.1433   22.3267 H   0  0  0  0  0  0
  -29.9376  -24.0420   19.0661 H   0  0  0  0  0  0
  -30.4441  -25.1889   20.2735 H   0  0  0  0  0  0
  -31.2260  -22.0819   20.4633 H   0  0  0  0  0  0
  -29.6762  -21.6340   19.7897 H   0  0  0  0  0  0
  -27.5259  -24.8218   20.4277 H   0  0  0  0  0  0
  -28.0227  -25.1422   18.7806 H   0  0  0  0  0  0
  -28.9531  -15.0964   21.4046 H   0  0  0  0  0  0
  1 25  1  0  0  0
  1 30  2  0  0  0
  1 85  1  0  0  0
  2  3  1  0  0  0
  2 25  1  0  0  0
  2 88  1  0  0  0
  2 89  1  0  0  0
  3  4  1  0  0  0
  3 90  1  0  0  0
  3 91  1  0  0  0
  4  5  1  0  0  0
  4 92  1  0  0  0
  4 93  1  0  0  0
  5  6  1  0  0  0
  5 26  1  0  0  0
  5 94  1  0  0  0
  6 25  1  0  0  0
  6 95  1  0  0  0
  6 96  1  0  0  0
  7  8  2  0  0  0
  7 26  1  0  0  0
  7 29  1  0  0  0
  8  9  1  0  0  0
  8 22  1  0  0  0
  9 10  1  0  0  0
  9 27  2  0  0  0
 10 11  2  0  0  0
 10 15  1  0  0  0
 11 12  1  0  0  0
 11 97  1  0  0  0
 12 13  2  0  0  0
 12 98  1  0  0  0
 13 14  1  0  0  0
 13 31  1  0  0  0
 14 15  2  0  0  0
 14 99  1  0  0  0
 15100  1  0  0  0
 16 17  2  0  0  0
 16 21  1  0  0  0
 16 31  1  0  0  0
 17 18  1  0  0  0
 17101  1  0  0  0
 18 19  2  0  0  0
 18102  1  0  0  0
 19 20  1  0  0  0
 19 24  1  0  0  0
 20 21  2  0  0  0
 20103  1  0  0  0
 21 23  1  0  0  0
 22 28  1  0  0  0
 22 32  2  0  0  0
 26 27  1  0  0  0
 28104  1  0  0  0
 28105  1  0  0  0
 29106  1  0  0  0
 29107  1  0  0  0
 33 34  1  0  0  0
 33 66  1  0  0  0
 33 70  2  0  0  0
 34 36  1  0  0  0
 34 59  1  0  0  0
 34108  1  0  0  0
 35 44  2  0  0  0
 35 45  1  0  0  0
 35 68  1  0  0  0
 36 56  1  0  0  0
 36109  1  0  0  0
 37 39  1  0  0  0
 37 47  1  0  0  0
 37 66  1  0  0  0
 37110  1  0  0  0
 38 43  2  0  0  0
 38 46  1  0  0  0
 38 47  1  0  0  0
 39 64  1  0  0  0
 39 67  2  0  0  0
 40 52  1  0  0  0
 40 53  2  0  0  0
 40 58  1  0  0  0
 41111  1  0  0  0
 41112  1  0  0  0
 41113  1  0  0  0
 41 48  1  0  0  0
 42 43  1  0  0  0
 42 66  1  0  0  0
 42114  1  0  0  0
 42115  1  0  0  0
 43 44  1  0  0  0
 44116  1  0  0  0
 45 46  2  0  0  0
 45117  1  0  0  0
 46118  1  0  0  0
 47119  1  0  0  0
 47120  1  0  0  0
 48 56  1  0  0  0
 48 65  1  0  0  0
 48121  1  0  0  0
 49 50  1  0  0  0
 49 53  1  0  0  0
 49 64  1  0  0  0
 49122  1  0  0  0
 50 51  1  0  0  0
 50123  1  0  0  0
 50124  1  0  0  0
 51 52  1  0  0  0
 51125  1  0  0  0
 51126  1  0  0  0
 52127  1  0  0  0
 52128  1  0  0  0
 53 54  1  0  0  0
 54 55  2  0  0  0
 54129  1  0  0  0
 55 57  1  0  0  0
 55130  1  0  0  0
 56 69  2  0  0  0
 57 58  2  0  0  0
 57131  1  0  0  0
 58132  1  0  0  0
 59 60  1  0  0  0
 59 61  1  0  0  0
 59 62  1  0  0  0
 60133  1  0  0  0
 60134  1  0  0  0
 60135  1  0  0  0
 61136  1  0  0  0
 61137  1  0  0  0
 61138  1  0  0  0
 62139  1  0  0  0
 62140  1  0  0  0
 62141  1  0  0  0
 63 65  1  0  0  0
 63142  1  0  0  0
 63143  1  0  0  0
 63144  1  0  0  0
 64145  1  0  0  0
 65146  1  0  0  0
 68 84  1  0  0  0
 71 73  2  0  0  0
 71 75  1  0  0  0
 71147  1  0  0  0
 72 74  1  0  0  0
 72 75  2  0  0  0
 72148  1  0  0  0
 73 76  1  0  0  0
 73 80  1  0  0  0
 74 76  2  0  0  0
 74 81  1  0  0  0
 75 85  1  0  0  0
 76 87  1  0  0  0
 77 82  1  0  0  0
 77 83  1  0  0  0
 77 86  2  0  0  0
 78 79  1  0  0  0
 78 80  1  0  0  0
 78149  1  0  0  0
 78150  1  0  0  0
 79 80  1  0  0  0
 79151  1  0  0  0
 79152  1  0  0  0
 80153  1  0  0  0
 81154  1  0  0  0
 81155  1  0  0  0
 81156  1  0  0  0
 82 84  1  0  0  0
 82157  1  0  0  0
 82158  1  0  0  0
 83 87  1  0  0  0
 83159  1  0  0  0
 83160  1  0  0  0
 84161  1  0  0  0
 84162  1  0  0  0
 85163  1  0  0  0
M  ISO  4   1 100  68 101  84 101  85 100
M  END
> <chiral flag>
0

> <version>
0

> <s_m_source_file>
/data/baiqing/PycharmProjects/Reinvent-master-3.2/result/LINK_invent/BTK/process_docking_weight1_custom_product_contain_oxygen_bond_distance_aromatic_linkinvent_7_9_3/rearranged_h_0138.sdf

> <i_m_source_file_index>
53

> <r_mmod_Potential_Energy-OPLS-2005>
-16.9353713989258

> <r_mmod_Stretch_Energy-OPLS-2005>
41.5170593261719

> <r_mmod_Bend_Energy-OPLS-2005>
102.755989074707

> <r_mmod_Torsional_Energy-OPLS-2005>
287.064056396484

> <r_mmod_Improper_Torsional_Energy-OPLS-2005>
5.40570306777954

> <r_mmod_Van_der_Waal_Energy-OPLS-2005>
144.628692626953

> <r_mmod_Electrostatic_Energy-OPLS-2005>
-378.643005371094

> <r_mmod_Solvation_Energy-OPLS-2005>
-235.03288269043

> <b_mmod_Minimization_Converged-OPLS-2005>
0

> <r_mmod_RMS_Derivative-OPLS-2005>
1.93308627605438

$$$$
53
                    3D
 Structure written by MMmdl.
168176  0  0  1  0            999 V2000
  -30.7603  -14.5031   20.6245 C   0  0  0  0  0  0
  -30.4114  -12.3524   19.4337 C   0  0  0  0  0  0
  -29.4845  -12.5130   18.2126 C   0  0  0  0  0  0
  -28.0126  -12.3490   18.6285 C   0  0  0  0  0  0
  -27.6548  -13.2075   19.8679 C   0  0  2  0  0  0
  -28.7027  -13.0416   20.9983 C   0  0  0  0  0  0
  -25.2439  -13.8036   20.5528 C   0  0  0  0  0  0
  -24.1770  -13.0320   20.9200 C   0  0  0  0  0  0
  -24.6402  -11.6834   20.8793 C   0  0  0  0  0  0
  -23.9063  -10.4231   21.0429 C   0  0  0  0  0  0
  -24.3611   -9.4154   21.9210 C   0  0  0  0  0  0
  -23.6277   -8.2199   22.0755 C   0  0  0  0  0  0
  -22.4259   -8.0265   21.3546 C   0  0  0  0  0  0
  -21.9912   -9.0233   20.4639 C   0  0  0  0  0  0
  -22.7242  -10.2104   20.3060 C   0  0  0  0  0  0
  -21.6845   -6.0730   22.5280 C   0  0  0  0  0  0
  -21.4008   -6.5639   23.8212 C   0  0  0  0  0  0
  -21.3663   -5.6790   24.9181 C   0  0  0  0  0  0
  -21.6051   -4.3054   24.7230 C   0  0  0  0  0  0
  -21.8813   -3.8144   23.4350 C   0  0  0  0  0  0
  -21.9185   -4.6959   22.3407 C   0  0  0  0  0  0
  -22.7799  -13.5143   21.1855 C   0  0  0  0  0  0
  -22.1655   -4.2144   21.0985 F   0  0  0  0  0  0
  -21.5651   -3.4537   25.7744 F   0  0  0  0  0  0
  -30.0264  -13.3602   20.4453 N   0  0  0  0  0  0
  -26.2981  -12.9291   20.3359 N   0  0  0  0  0  0
  -25.9347  -11.6452   20.5871 N   0  0  0  0  0  0
  -22.0439  -12.8162   22.0441 N   0  0  0  0  0  0
  -25.3812  -15.1698   20.3602 N   0  0  0  0  0  0
  -31.8366  -14.6626   20.0500 O   0  0  0  0  0  0
  -21.6635   -6.8868   21.4238 O   0  0  0  0  0  0
  -22.3483  -14.5443   20.6693 O   0  0  0  0  0  0
  -24.6156  -31.8658   23.2112 C   0  0  0  0  0  0
  -25.9035  -32.4814   23.8406 C   0  0  1  0  0  0
  -27.2344  -27.4028   20.1070 C   0  0  0  0  0  0
  -25.5867  -33.8616   24.2326 N   0  0  0  0  0  0
  -23.4093  -30.4896   21.5501 C   0  0  2  0  0  0
  -24.8610  -28.9573   20.1122 C   0  0  0  0  0  0
  -22.7441  -29.4634   22.4969 C   0  0  0  0  0  0
  -18.0280  -28.1384   22.8489 C   0  0  0  0  0  0
  -24.1481  -36.7316   23.2646 C   0  0  0  0  0  0
  -25.9434  -30.8131   21.3814 C   0  0  0  0  0  0
  -26.0193  -29.4452   20.7332 C   0  0  0  0  0  0
  -27.2066  -28.6684   20.7452 C   0  0  0  0  0  0
  -26.0776  -26.9699   19.4292 C   0  0  0  0  0  0
  -24.8859  -27.7158   19.4584 C   0  0  0  0  0  0
  -23.6238  -29.8269   20.1625 C   0  0  0  0  0  0
  -25.4101  -36.3118   24.0342 C   0  0  1  0  0  0
  -20.5880  -28.3645   23.1301 C   0  0  2  0  0  0
  -20.6767  -26.9372   22.5413 C   0  0  0  0  0  0
  -19.5732  -26.6372   21.5221 C   0  0  0  0  0  0
  -18.1913  -26.7930   22.1631 C   0  0  0  0  0  0
  -19.1537  -28.8836   23.2897 C   0  0  0  0  0  0
  -18.9463  -30.1449   23.8895 C   0  0  0  0  0  0
  -17.6460  -30.6585   24.0566 C   0  0  0  0  0  0
  -25.9019  -34.9475   23.5141 C   0  0  0  0  0  0
  -16.5351  -29.9075   23.6343 C   0  0  0  0  0  0
  -16.7269  -28.6504   23.0351 C   0  0  0  0  0  0
  -26.4456  -31.6599   25.0743 C   0  0  0  0  0  0
  -25.3736  -31.3682   26.1503 C   0  0  0  0  0  0
  -27.0288  -30.3037   24.6128 C   0  0  0  0  0  0
  -27.6025  -32.4329   25.7495 C   0  0  0  0  0  0
  -27.5583  -37.1816   24.8475 C   0  0  0  0  0  0
  -21.4168  -29.3008   22.3701 N   0  0  0  0  0  0
  -26.4297  -37.3798   23.9411 N   0  0  0  0  0  0
  -24.6740  -31.0712   22.1043 N   0  0  0  0  0  0
  -23.4201  -28.8180   23.3022 O   0  0  0  0  0  0
  -28.3577  -26.5909   20.0808 O   0  0  0  0  0  0
  -26.5609  -34.8923   22.4719 O   0  0  0  0  0  0
  -23.5334  -32.1424   23.7468 O   0  0  0  0  0  0
  -27.4322  -17.6625   20.9413 C   0  0  0  0  0  0
  -28.0029  -18.9398   20.9031 C   0  0  0  0  0  0
  -28.2347  -16.5297   21.1323 C   0  0  0  0  0  0
  -29.3921  -19.1307   21.0795 C   0  0  0  0  0  0
  -30.2116  -17.9573   21.2557 C   0  0  0  0  0  0
  -29.6290  -16.6393   21.2557 C   0  0  0  0  0  0
  -32.4919  -18.0813   20.1382 C   0  0  0  0  0  0
  -27.0006  -24.0342   20.4241 C   0  0  0  0  0  0
  -27.6629  -24.1053   22.8142 C   0  0  0  0  0  0
  -29.9475  -20.5912   21.0961 C   0  0  0  0  0  0
  -31.7166  -18.1112   21.4594 C   0  0  0  0  0  0
  -28.8890  -21.7505   20.9794 C   0  0  0  0  0  0
  -29.3391  -23.2570   21.1024 C   0  0  0  0  0  0
  -28.6431  -25.8294   21.2816 C   0  0  0  0  0  0
  -28.1830  -24.3093   21.3715 C   0  0  0  0  0  0
  -30.3728  -15.4345   21.5294 N   0  0  0  0  0  0
  -31.4543  -12.4373   19.1244 H   0  0  0  0  0  0
  -30.3148  -11.3481   19.8507 H   0  0  0  0  0  0
  -29.7356  -11.7785   17.4461 H   0  0  0  0  0  0
  -29.6315  -13.4949   17.7603 H   0  0  0  0  0  0
  -27.8437  -11.2939   18.8454 H   0  0  0  0  0  0
  -27.3473  -12.5954   17.7996 H   0  0  0  0  0  0
  -27.6808  -14.2388   19.5219 H   0  0  0  0  0  0
  -28.6998  -12.0121   21.3580 H   0  0  0  0  0  0
  -28.4613  -13.6484   21.8702 H   0  0  0  0  0  0
  -25.2733   -9.5633   22.4821 H   0  0  0  0  0  0
  -23.9972   -7.4585   22.7466 H   0  0  0  0  0  0
  -21.0850   -8.8742   19.8940 H   0  0  0  0  0  0
  -22.3682  -10.9664   19.6193 H   0  0  0  0  0  0
  -21.1985   -7.6143   23.9725 H   0  0  0  0  0  0
  -21.1507   -6.0517   25.9088 H   0  0  0  0  0  0
  -22.0588   -2.7605   23.2843 H   0  0  0  0  0  0
  -22.4029  -11.9839   22.4873 H   0  0  0  0  0  0
  -21.1067  -13.1216   22.2644 H   0  0  0  0  0  0
  -24.5838  -15.7922   20.4247 H   0  0  0  0  0  0
  -26.2081  -15.6170   19.9869 H   0  0  0  0  0  0
  -26.7110  -32.5522   23.1171 H   0  0  0  0  0  0
  -25.0031  -33.9784   25.0479 H   0  0  0  0  0  0
  -22.7025  -31.3108   21.4124 H   0  0  0  0  0  0
  -23.3743  -35.9651   23.3331 H   0  0  0  0  0  0
  -24.3581  -36.8906   22.2059 H   0  0  0  0  0  0
  -23.7236  -37.6527   23.6643 H   0  0  0  0  0  0
  -26.0728  -31.5750   20.6111 H   0  0  0  0  0  0
  -26.8257  -30.8624   22.0073 H   0  0  0  0  0  0
  -28.0969  -29.0348   21.2376 H   0  0  0  0  0  0
  -26.0904  -26.0447   18.8727 H   0  0  0  0  0  0
  -24.0062  -27.3447   18.9508 H   0  0  0  0  0  0
  -23.7388  -30.6067   19.4088 H   0  0  0  0  0  0
  -22.7475  -29.2498   19.8593 H   0  0  0  0  0  0
  -25.1287  -36.2001   25.0837 H   0  0  0  0  0  0
  -20.9982  -28.3200   24.1417 H   0  0  0  0  0  0
  -20.5678  -26.2243   23.3597 H   0  0  0  0  0  0
  -21.6635  -26.7415   22.1195 H   0  0  0  0  0  0
  -19.6885  -25.6292   21.1218 H   0  0  0  0  0  0
  -19.6683  -27.3215   20.6776 H   0  0  0  0  0  0
  -17.4195  -26.6683   21.4019 H   0  0  0  0  0  0
  -18.0299  -26.0080   22.9030 H   0  0  0  0  0  0
  -19.7935  -30.7276   24.2244 H   0  0  0  0  0  0
  -17.5012  -31.6263   24.5165 H   0  0  0  0  0  0
  -15.5349  -30.2979   23.7667 H   0  0  0  0  0  0
  -15.8669  -28.0825   22.7061 H   0  0  0  0  0  0
  -24.5917  -30.7015   25.7849 H   0  0  0  0  0  0
  -24.8921  -32.2823   26.4983 H   0  0  0  0  0  0
  -25.8110  -30.8842   27.0248 H   0  0  0  0  0  0
  -26.2823  -29.6791   24.1206 H   0  0  0  0  0  0
  -27.4092  -29.7269   25.4569 H   0  0  0  0  0  0
  -27.8651  -30.4355   23.9260 H   0  0  0  0  0  0
  -27.2636  -33.3622   26.2082 H   0  0  0  0  0  0
  -28.3810  -32.6900   25.0303 H   0  0  0  0  0  0
  -28.0718  -31.8460   26.5398 H   0  0  0  0  0  0
  -28.2623  -38.0097   24.7527 H   0  0  0  0  0  0
  -28.1056  -36.2629   24.6301 H   0  0  0  0  0  0
  -27.2308  -37.1498   25.8883 H   0  0  0  0  0  0
  -20.9328  -29.8748   21.6940 H   0  0  0  0  0  0
  -26.0189  -38.2877   24.1403 H   0  0  0  0  0  0
  -26.3604  -17.5621   20.8562 H   0  0  0  0  0  0
  -27.3259  -19.7689   20.7658 H   0  0  0  0  0  0
  -27.7567  -15.5748   21.2369 H   0  0  0  0  0  0
  -32.3758  -17.1254   19.6309 H   0  0  0  0  0  0
  -33.5560  -18.2351   20.3144 H   0  0  0  0  0  0
  -32.1551  -18.8587   19.4538 H   0  0  0  0  0  0
  -26.6235  -23.0164   20.5160 H   0  0  0  0  0  0
  -27.2797  -24.1914   19.3812 H   0  0  0  0  0  0
  -26.1522  -24.6734   20.6634 H   0  0  0  0  0  0
  -28.4488  -24.2745   23.5523 H   0  0  0  0  0  0
  -27.2637  -23.1064   22.9838 H   0  0  0  0  0  0
  -26.8511  -24.7994   23.0410 H   0  0  0  0  0  0
  -30.6859  -20.6892   20.2999 H   0  0  0  0  0  0
  -30.4846  -20.7297   22.0337 H   0  0  0  0  0  0
  -32.0895  -17.3273   22.1191 H   0  0  0  0  0  0
  -31.9360  -19.0392   21.9837 H   0  0  0  0  0  0
  -28.1472  -21.5711   21.7524 H   0  0  0  0  0  0
  -28.3720  -21.6391   20.0259 H   0  0  0  0  0  0
  -29.8749  -23.5377   20.1932 H   0  0  0  0  0  0
  -30.0749  -23.3349   21.9047 H   0  0  0  0  0  0
  -29.7230  -25.8691   21.4326 H   0  0  0  0  0  0
  -28.2429  -26.3923   22.1281 H   0  0  0  0  0  0
  -31.2080  -15.6861   22.0352 H   0  0  0  0  0  0
  1 25  1  0  0  0
  1 30  2  0  0  0
  1 86  1  0  0  0
  2  3  1  0  0  0
  2 25  1  0  0  0
  2 87  1  0  0  0
  2 88  1  0  0  0
  3  4  1  0  0  0
  3 89  1  0  0  0
  3 90  1  0  0  0
  4  5  1  0  0  0
  4 91  1  0  0  0
  4 92  1  0  0  0
  5  6  1  0  0  0
  5 26  1  0  0  0
  5 93  1  0  0  0
  6 25  1  0  0  0
  6 94  1  0  0  0
  6 95  1  0  0  0
  7  8  2  0  0  0
  7 26  1  0  0  0
  7 29  1  0  0  0
  8  9  1  0  0  0
  8 22  1  0  0  0
  9 10  1  0  0  0
  9 27  2  0  0  0
 10 11  2  0  0  0
 10 15  1  0  0  0
 11 12  1  0  0  0
 11 96  1  0  0  0
 12 13  2  0  0  0
 12 97  1  0  0  0
 13 14  1  0  0  0
 13 31  1  0  0  0
 14 15  2  0  0  0
 14 98  1  0  0  0
 15 99  1  0  0  0
 16 17  2  0  0  0
 16 21  1  0  0  0
 16 31  1  0  0  0
 17 18  1  0  0  0
 17100  1  0  0  0
 18 19  2  0  0  0
 18101  1  0  0  0
 19 20  1  0  0  0
 19 24  1  0  0  0
 20 21  2  0  0  0
 20102  1  0  0  0
 21 23  1  0  0  0
 22 28  1  0  0  0
 22 32  2  0  0  0
 26 27  1  0  0  0
 28103  1  0  0  0
 28104  1  0  0  0
 29105  1  0  0  0
 29106  1  0  0  0
 33 34  1  0  0  0
 33 66  1  0  0  0
 33 70  2  0  0  0
 34 36  1  0  0  0
 34 59  1  0  0  0
 34107  1  0  0  0
 35 44  2  0  0  0
 35 45  1  0  0  0
 35 68  1  0  0  0
 36 56  1  0  0  0
 36108  1  0  0  0
 37 39  1  0  0  0
 37 47  1  0  0  0
 37 66  1  0  0  0
 37109  1  0  0  0
 38 43  2  0  0  0
 38 46  1  0  0  0
 38 47  1  0  0  0
 39 64  1  0  0  0
 39 67  2  0  0  0
 40 52  1  0  0  0
 40 53  2  0  0  0
 40 58  1  0  0  0
 41110  1  0  0  0
 41111  1  0  0  0
 41112  1  0  0  0
 41 48  1  0  0  0
 42 43  1  0  0  0
 42 66  1  0  0  0
 42113  1  0  0  0
 42114  1  0  0  0
 43 44  1  0  0  0
 44115  1  0  0  0
 45 46  2  0  0  0
 45116  1  0  0  0
 46117  1  0  0  0
 47118  1  0  0  0
 47119  1  0  0  0
 48 56  1  0  0  0
 48 65  1  0  0  0
 48120  1  0  0  0
 49 50  1  0  0  0
 49 53  1  0  0  0
 49 64  1  0  0  0
 49121  1  0  0  0
 50 51  1  0  0  0
 50122  1  0  0  0
 50123  1  0  0  0
 51 52  1  0  0  0
 51124  1  0  0  0
 51125  1  0  0  0
 52126  1  0  0  0
 52127  1  0  0  0
 53 54  1  0  0  0
 54 55  2  0  0  0
 54128  1  0  0  0
 55 57  1  0  0  0
 55129  1  0  0  0
 56 69  2  0  0  0
 57 58  2  0  0  0
 57130  1  0  0  0
 58131  1  0  0  0
 59 60  1  0  0  0
 59 61  1  0  0  0
 59 62  1  0  0  0
 60132  1  0  0  0
 60133  1  0  0  0
 60134  1  0  0  0
 61135  1  0  0  0
 61136  1  0  0  0
 61137  1  0  0  0
 62138  1  0  0  0
 62139  1  0  0  0
 62140  1  0  0  0
 63 65  1  0  0  0
 63141  1  0  0  0
 63142  1  0  0  0
 63143  1  0  0  0
 64144  1  0  0  0
 65145  1  0  0  0
 68 84  1  0  0  0
 71 72  2  0  0  0
 71 73  1  0  0  0
 71146  1  0  0  0
 72 74  1  0  0  0
 72147  1  0  0  0
 73 76  2  0  0  0
 73148  1  0  0  0
 74 75  2  0  0  0
 74 80  1  0  0  0
 75 76  1  0  0  0
 75 81  1  0  0  0
 76 86  1  0  0  0
 77 81  1  0  0  0
 77149  1  0  0  0
 77150  1  0  0  0
 77151  1  0  0  0
 78152  1  0  0  0
 78153  1  0  0  0
 78154  1  0  0  0
 78 85  1  0  0  0
 79 85  1  0  0  0
 79155  1  0  0  0
 79156  1  0  0  0
 79157  1  0  0  0
 80 82  1  0  0  0
 80158  1  0  0  0
 80159  1  0  0  0
 81160  1  0  0  0
 81161  1  0  0  0
 82 83  1  0  0  0
 82162  1  0  0  0
 82163  1  0  0  0
 83 85  1  0  0  0
 83164  1  0  0  0
 83165  1  0  0  0
 84 85  1  0  0  0
 84166  1  0  0  0
 84167  1  0  0  0
 86168  1  0  0  0
M  ISO  4   1 100  68 101  84 101  86 100
M  END
> <chiral flag>
0

> <version>
0

> <s_m_source_file>
/data/baiqing/PycharmProjects/Reinvent-master-3.2/result/LINK_invent/BTK/process_docking_weight1_custom_product_contain_oxygen_bond_distance_aromatic_linkinvent_7_9_3/rearranged_h_0138.sdf

> <i_m_source_file_index>
54

> <r_mmod_Potential_Energy-OPLS-2005>
112.808166503906

> <r_mmod_Stretch_Energy-OPLS-2005>
61.6396141052246

> <r_mmod_Bend_Energy-OPLS-2005>
142.507308959961

> <r_mmod_Torsional_Energy-OPLS-2005>
300.183166503906

> <r_mmod_Improper_Torsional_Energy-OPLS-2005>
8.59380722045898

> <r_mmod_Van_der_Waal_Energy-OPLS-2005>
155.821914672852

> <r_mmod_Electrostatic_Energy-OPLS-2005>
-402.419036865234

> <r_mmod_Solvation_Energy-OPLS-2005>
-173.885543823242

> <b_mmod_Minimization_Converged-OPLS-2005>
0

> <r_mmod_RMS_Derivative-OPLS-2005>
2.655277967453

$$$$
54
                    3D
 Structure written by MMmdl.
162170  0  0  1  0            999 V2000
  -30.6201  -14.7065   20.4916 C   0  0  0  0  0  0
  -30.4482  -12.4368   19.4644 C   0  0  0  0  0  0
  -29.5107  -12.4808   18.2366 C   0  0  0  0  0  0
  -28.0424  -12.2977   18.6623 C   0  0  0  0  0  0
  -27.6476  -13.2131   19.8486 C   0  0  2  0  0  0
  -28.6932  -13.1430   20.9837 C   0  0  0  0  0  0
  -25.2568  -13.8144   20.5690 C   0  0  0  0  0  0
  -24.1814  -13.0444   20.9167 C   0  0  0  0  0  0
  -24.6344  -11.6911   20.8712 C   0  0  0  0  0  0
  -23.9013  -10.4300   21.0415 C   0  0  0  0  0  0
  -24.3575   -9.4231   21.9192 C   0  0  0  0  0  0
  -23.6253   -8.2274   22.0763 C   0  0  0  0  0  0
  -22.4229   -8.0289   21.3561 C   0  0  0  0  0  0
  -21.9850   -9.0263   20.4670 C   0  0  0  0  0  0
  -22.7181  -10.2140   20.3077 C   0  0  0  0  0  0
  -21.6864   -6.0724   22.5282 C   0  0  0  0  0  0
  -21.4042   -6.5628   23.8212 C   0  0  0  0  0  0
  -21.3637   -5.6785   24.9166 C   0  0  0  0  0  0
  -21.6035   -4.3049   24.7224 C   0  0  0  0  0  0
  -21.8820   -3.8134   23.4348 C   0  0  0  0  0  0
  -21.9194   -4.6962   22.3407 C   0  0  0  0  0  0
  -22.7843  -13.5291   21.1799 C   0  0  0  0  0  0
  -22.1681   -4.2159   21.0984 F   0  0  0  0  0  0
  -21.5600   -3.4521   25.7728 F   0  0  0  0  0  0
  -29.9954  -13.4872   20.3960 N   0  0  0  0  0  0
  -26.2954  -12.9319   20.3237 N   0  0  0  0  0  0
  -25.9257  -11.6490   20.5700 N   0  0  0  0  0  0
  -22.0424  -12.8361   22.0360 N   0  0  0  0  0  0
  -25.4282  -15.1859   20.4213 N   0  0  0  0  0  0
  -31.8163  -14.8299   20.2181 O   0  0  0  0  0  0
  -21.6639   -6.8855   21.4237 O   0  0  0  0  0  0
  -22.3581  -14.5594   20.6613 O   0  0  0  0  0  0
  -24.6268  -31.8558   23.2007 C   0  0  0  0  0  0
  -25.9064  -32.4786   23.8377 C   0  0  1  0  0  0
  -27.2292  -27.2897   20.1270 C   0  0  0  0  0  0
  -25.5830  -33.8595   24.2254 N   0  0  0  0  0  0
  -23.4269  -30.4777   21.5433 C   0  0  2  0  0  0
  -24.8778  -28.9286   20.1187 C   0  0  0  0  0  0
  -22.7500  -29.4573   22.4922 C   0  0  0  0  0  0
  -18.0265  -28.1416   22.8470 C   0  0  0  0  0  0
  -24.1467  -36.7313   23.2635 C   0  0  0  0  0  0
  -25.9717  -30.7826   21.3783 C   0  0  0  0  0  0
  -26.0490  -29.4071   20.7191 C   0  0  0  0  0  0
  -27.2307  -28.6012   20.7056 C   0  0  0  0  0  0
  -26.0341  -26.8741   19.4977 C   0  0  0  0  0  0
  -24.8737  -27.6720   19.4973 C   0  0  0  0  0  0
  -23.6484  -29.8134   20.1602 C   0  0  0  0  0  0
  -25.4083  -36.3093   24.0324 C   0  0  1  0  0  0
  -20.5873  -28.3694   23.1275 C   0  0  2  0  0  0
  -20.6750  -26.9411   22.5409 C   0  0  0  0  0  0
  -19.5737  -26.6389   21.5205 C   0  0  0  0  0  0
  -18.1913  -26.7947   22.1625 C   0  0  0  0  0  0
  -19.1524  -28.8872   23.2870 C   0  0  0  0  0  0
  -18.9461  -30.1465   23.8907 C   0  0  0  0  0  0
  -17.6474  -30.6622   24.0553 C   0  0  0  0  0  0
  -25.9022  -34.9464   23.5109 C   0  0  0  0  0  0
  -16.5357  -29.9130   23.6331 C   0  0  0  0  0  0
  -16.7253  -28.6542   23.0354 C   0  0  0  0  0  0
  -26.4406  -31.6650   25.0803 C   0  0  0  0  0  0
  -25.3590  -31.3909   26.1522 C   0  0  0  0  0  0
  -27.0201  -30.3021   24.6366 C   0  0  0  0  0  0
  -27.5968  -32.4396   25.7559 C   0  0  0  0  0  0
  -27.5573  -37.1792   24.8433 C   0  0  0  0  0  0
  -21.4197  -29.3046   22.3676 N   0  0  0  0  0  0
  -26.4251  -37.3789   23.9433 N   0  0  0  0  0  0
  -24.6934  -31.0551   22.0977 N   0  0  0  0  0  0
  -23.4201  -28.8088   23.2988 O   0  0  0  0  0  0
  -28.3394  -26.4222   20.1389 O   0  0  0  0  0  0
  -26.5650  -34.8928   22.4716 O   0  0  0  0  0  0
  -23.5407  -32.1352   23.7313 O   0  0  0  0  0  0
  -30.1788  -19.7714   22.3385 C   0  0  0  0  0  0
  -30.3793  -18.5974   23.0973 C   0  0  0  0  0  0
  -29.8077  -18.3833   20.3812 C   0  0  0  0  0  0
  -29.8736  -19.7128   20.9633 C   0  0  0  0  0  0
  -30.2907  -17.3121   22.5236 C   0  0  0  0  0  0
  -30.0249  -17.1612   21.1386 C   0  0  0  0  0  0
  -30.4374  -16.1041   23.4458 C   0  0  0  0  0  0
  -29.0364  -23.7316   18.5090 C   0  0  0  0  0  0
  -30.5777  -24.3013   20.3999 C   0  0  0  0  0  0
  -29.7769  -21.0742   20.1470 C   0  0  0  0  0  0
  -28.9054  -22.3434   20.6526 C   0  0  0  0  0  0
  -28.1406  -24.9915   20.5404 C   0  0  0  0  0  0
  -29.1530  -23.8324   20.0417 C   0  0  0  0  0  0
  -29.7948  -15.8084   20.6092 N   0  0  0  0  0  0
  -31.4869  -12.5797   19.1580 H   0  0  0  0  0  0
  -30.4124  -11.4635   19.9548 H   0  0  0  0  0  0
  -29.7933  -11.7042   17.5235 H   0  0  0  0  0  0
  -29.6272  -13.4304   17.7118 H   0  0  0  0  0  0
  -27.9105  -11.2518   18.9470 H   0  0  0  0  0  0
  -27.3797  -12.4704   17.8148 H   0  0  0  0  0  0
  -27.6423  -14.2279   19.4523 H   0  0  0  0  0  0
  -28.7209  -12.1492   21.4330 H   0  0  0  0  0  0
  -28.4297  -13.8284   21.7912 H   0  0  0  0  0  0
  -25.2717   -9.5742   22.4758 H   0  0  0  0  0  0
  -23.9974   -7.4680   22.7492 H   0  0  0  0  0  0
  -21.0774   -8.8773   19.8969 H   0  0  0  0  0  0
  -22.3622  -10.9678   19.6193 H   0  0  0  0  0  0
  -21.2063   -7.6151   23.9727 H   0  0  0  0  0  0
  -21.1439   -6.0508   25.9070 H   0  0  0  0  0  0
  -22.0601   -2.7608   23.2850 H   0  0  0  0  0  0
  -22.4020  -12.0089   22.4886 H   0  0  0  0  0  0
  -21.1054  -13.1476   22.2502 H   0  0  0  0  0  0
  -24.6570  -15.8303   20.5488 H   0  0  0  0  0  0
  -26.2740  -15.6366   20.0947 H   0  0  0  0  0  0
  -26.7166  -32.5449   23.1161 H   0  0  0  0  0  0
  -24.9796  -33.9757   25.0268 H   0  0  0  0  0  0
  -22.7209  -31.2976   21.3974 H   0  0  0  0  0  0
  -23.3728  -35.9640   23.3252 H   0  0  0  0  0  0
  -24.3547  -36.8997   22.2054 H   0  0  0  0  0  0
  -23.7239  -37.6505   23.6695 H   0  0  0  0  0  0
  -26.1068  -31.5484   20.6130 H   0  0  0  0  0  0
  -26.8473  -30.8310   22.0149 H   0  0  0  0  0  0
  -28.1378  -28.9661   21.1698 H   0  0  0  0  0  0
  -25.9824  -25.9188   18.9984 H   0  0  0  0  0  0
  -23.9749  -27.3072   19.0201 H   0  0  0  0  0  0
  -23.7795  -30.5905   19.4057 H   0  0  0  0  0  0
  -22.7697  -29.2462   19.8489 H   0  0  0  0  0  0
  -25.1261  -36.1911   25.0810 H   0  0  0  0  0  0
  -20.9948  -28.3269   24.1397 H   0  0  0  0  0  0
  -20.5605  -26.2308   23.3610 H   0  0  0  0  0  0
  -21.6623  -26.7408   22.1235 H   0  0  0  0  0  0
  -19.6873  -25.6280   21.1276 H   0  0  0  0  0  0
  -19.6692  -27.3162   20.6706 H   0  0  0  0  0  0
  -17.4155  -26.6645   21.4056 H   0  0  0  0  0  0
  -18.0337  -26.0120   22.9060 H   0  0  0  0  0  0
  -19.7931  -30.7254   24.2318 H   0  0  0  0  0  0
  -17.5031  -31.6303   24.5150 H   0  0  0  0  0  0
  -15.5359  -30.3057   23.7655 H   0  0  0  0  0  0
  -15.8637  -28.0873   22.7108 H   0  0  0  0  0  0
  -24.5715  -30.7301   25.7876 H   0  0  0  0  0  0
  -24.8825  -32.3134   26.4852 H   0  0  0  0  0  0
  -25.7829  -30.9148   27.0370 H   0  0  0  0  0  0
  -26.2820  -29.6879   24.1194 H   0  0  0  0  0  0
  -27.3559  -29.7220   25.4971 H   0  0  0  0  0  0
  -27.8835  -30.4217   23.9822 H   0  0  0  0  0  0
  -27.2547  -33.3666   26.2178 H   0  0  0  0  0  0
  -28.3729  -32.7034   25.0361 H   0  0  0  0  0  0
  -28.0683  -31.8518   26.5447 H   0  0  0  0  0  0
  -28.2544  -38.0138   24.7526 H   0  0  0  0  0  0
  -28.1124  -36.2672   24.6157 H   0  0  0  0  0  0
  -27.2321  -37.1331   25.8846 H   0  0  0  0  0  0
  -20.9365  -29.8836   21.6954 H   0  0  0  0  0  0
  -26.0121  -38.2839   24.1517 H   0  0  0  0  0  0
  -30.2826  -20.7281   22.8304 H   0  0  0  0  0  0
  -30.5902  -18.6950   24.1530 H   0  0  0  0  0  0
  -29.5882  -18.2982   19.3283 H   0  0  0  0  0  0
  -30.5048  -16.4009   24.4940 H   0  0  0  0  0  0
  -31.3406  -15.5392   23.2135 H   0  0  0  0  0  0
  -29.5807  -15.4343   23.3558 H   0  0  0  0  0  0
  -29.8634  -23.1594   18.0861 H   0  0  0  0  0  0
  -29.0480  -24.7176   18.0405 H   0  0  0  0  0  0
  -28.1107  -23.2369   18.2122 H   0  0  0  0  0  0
  -31.3404  -23.6153   20.0359 H   0  0  0  0  0  0
  -30.7105  -24.4028   21.4780 H   0  0  0  0  0  0
  -30.7951  -25.2748   19.9547 H   0  0  0  0  0  0
  -29.4778  -20.8338   19.1265 H   0  0  0  0  0  0
  -30.8115  -21.4077   20.0656 H   0  0  0  0  0  0
  -29.0005  -22.4158   21.7340 H   0  0  0  0  0  0
  -27.8591  -22.0857   20.4908 H   0  0  0  0  0  0
  -28.1628  -25.0012   21.6316 H   0  0  0  0  0  0
  -27.1321  -24.6590   20.3015 H   0  0  0  0  0  0
  -28.8197  -15.5602   20.5548 H   0  0  0  0  0  0
  1 25  1  0  0  0
  1 30  2  0  0  0
  1 84  1  0  0  0
  2  3  1  0  0  0
  2 25  1  0  0  0
  2 85  1  0  0  0
  2 86  1  0  0  0
  3  4  1  0  0  0
  3 87  1  0  0  0
  3 88  1  0  0  0
  4  5  1  0  0  0
  4 89  1  0  0  0
  4 90  1  0  0  0
  5  6  1  0  0  0
  5 26  1  0  0  0
  5 91  1  0  0  0
  6 25  1  0  0  0
  6 92  1  0  0  0
  6 93  1  0  0  0
  7  8  2  0  0  0
  7 26  1  0  0  0
  7 29  1  0  0  0
  8  9  1  0  0  0
  8 22  1  0  0  0
  9 10  1  0  0  0
  9 27  2  0  0  0
 10 11  2  0  0  0
 10 15  1  0  0  0
 11 12  1  0  0  0
 11 94  1  0  0  0
 12 13  2  0  0  0
 12 95  1  0  0  0
 13 14  1  0  0  0
 13 31  1  0  0  0
 14 15  2  0  0  0
 14 96  1  0  0  0
 15 97  1  0  0  0
 16 17  2  0  0  0
 16 21  1  0  0  0
 16 31  1  0  0  0
 17 18  1  0  0  0
 17 98  1  0  0  0
 18 19  2  0  0  0
 18 99  1  0  0  0
 19 20  1  0  0  0
 19 24  1  0  0  0
 20 21  2  0  0  0
 20100  1  0  0  0
 21 23  1  0  0  0
 22 28  1  0  0  0
 22 32  2  0  0  0
 26 27  1  0  0  0
 28101  1  0  0  0
 28102  1  0  0  0
 29103  1  0  0  0
 29104  1  0  0  0
 33 34  1  0  0  0
 33 66  1  0  0  0
 33 70  2  0  0  0
 34 36  1  0  0  0
 34 59  1  0  0  0
 34105  1  0  0  0
 35 44  2  0  0  0
 35 45  1  0  0  0
 35 68  1  0  0  0
 36 56  1  0  0  0
 36106  1  0  0  0
 37 39  1  0  0  0
 37 47  1  0  0  0
 37 66  1  0  0  0
 37107  1  0  0  0
 38 43  2  0  0  0
 38 46  1  0  0  0
 38 47  1  0  0  0
 39 64  1  0  0  0
 39 67  2  0  0  0
 40 52  1  0  0  0
 40 53  2  0  0  0
 40 58  1  0  0  0
 41108  1  0  0  0
 41109  1  0  0  0
 41110  1  0  0  0
 41 48  1  0  0  0
 42 43  1  0  0  0
 42 66  1  0  0  0
 42111  1  0  0  0
 42112  1  0  0  0
 43 44  1  0  0  0
 44113  1  0  0  0
 45 46  2  0  0  0
 45114  1  0  0  0
 46115  1  0  0  0
 47116  1  0  0  0
 47117  1  0  0  0
 48 56  1  0  0  0
 48 65  1  0  0  0
 48118  1  0  0  0
 49 50  1  0  0  0
 49 53  1  0  0  0
 49 64  1  0  0  0
 49119  1  0  0  0
 50 51  1  0  0  0
 50120  1  0  0  0
 50121  1  0  0  0
 51 52  1  0  0  0
 51122  1  0  0  0
 51123  1  0  0  0
 52124  1  0  0  0
 52125  1  0  0  0
 53 54  1  0  0  0
 54 55  2  0  0  0
 54126  1  0  0  0
 55 57  1  0  0  0
 55127  1  0  0  0
 56 69  2  0  0  0
 57 58  2  0  0  0
 57128  1  0  0  0
 58129  1  0  0  0
 59 60  1  0  0  0
 59 61  1  0  0  0
 59 62  1  0  0  0
 60130  1  0  0  0
 60131  1  0  0  0
 60132  1  0  0  0
 61133  1  0  0  0
 61134  1  0  0  0
 61135  1  0  0  0
 62136  1  0  0  0
 62137  1  0  0  0
 62138  1  0  0  0
 63 65  1  0  0  0
 63139  1  0  0  0
 63140  1  0  0  0
 63141  1  0  0  0
 64142  1  0  0  0
 65143  1  0  0  0
 68 82  1  0  0  0
 71 72  2  0  0  0
 71 74  1  0  0  0
 71144  1  0  0  0
 72 75  1  0  0  0
 72145  1  0  0  0
 73 74  2  0  0  0
 73 76  1  0  0  0
 73146  1  0  0  0
 74 80  1  0  0  0
 75 76  2  0  0  0
 75 77  1  0  0  0
 76 84  1  0  0  0
 77147  1  0  0  0
 77148  1  0  0  0
 77149  1  0  0  0
 78150  1  0  0  0
 78151  1  0  0  0
 78152  1  0  0  0
 78 83  1  0  0  0
 79 83  1  0  0  0
 79153  1  0  0  0
 79154  1  0  0  0
 79155  1  0  0  0
 80 81  1  0  0  0
 80156  1  0  0  0
 80157  1  0  0  0
 81 83  1  0  0  0
 81158  1  0  0  0
 81159  1  0  0  0
 82 83  1  0  0  0
 82160  1  0  0  0
 82161  1  0  0  0
 84162  1  0  0  0
M  ISO  4   1 100  68 101  82 101  84 100
M  END
> <chiral flag>
0

> <version>
0

> <s_m_source_file>
/data/baiqing/PycharmProjects/Reinvent-master-3.2/result/LINK_invent/BTK/process_docking_weight1_custom_product_contain_oxygen_bond_distance_aromatic_linkinvent_7_9_3/rearranged_h_0138.sdf

> <i_m_source_file_index>
55

> <r_mmod_Potential_Energy-OPLS-2005>
164.450424194336

> <r_mmod_Stretch_Energy-OPLS-2005>
112.34693145752

> <r_mmod_Bend_Energy-OPLS-2005>
152.161178588867

> <r_mmod_Torsional_Energy-OPLS-2005>
267.224243164062

> <r_mmod_Improper_Torsional_Energy-OPLS-2005>
9.07799816131592

> <r_mmod_Van_der_Waal_Energy-OPLS-2005>
134.015930175781

> <r_mmod_Electrostatic_Energy-OPLS-2005>
-386.710815429688

> <r_mmod_Solvation_Energy-OPLS-2005>
-195.256378173828

> <b_mmod_Minimization_Converged-OPLS-2005>
0

> <r_mmod_RMS_Derivative-OPLS-2005>
4.81595277786255

$$$$
55
                    3D
 Structure written by MMmdl.
165173  0  0  1  0            999 V2000
  -30.6701  -14.5417   20.5336 C   0  0  0  0  0  0
  -30.4284  -12.3415   19.4330 C   0  0  0  0  0  0
  -29.4947  -12.4946   18.2138 C   0  0  0  0  0  0
  -28.0193  -12.3432   18.6331 C   0  0  0  0  0  0
  -27.6548  -13.2062   19.8697 C   0  0  2  0  0  0
  -28.7005  -13.0324   20.9951 C   0  0  0  0  0  0
  -25.2547  -13.8121   20.5659 C   0  0  0  0  0  0
  -24.1814  -13.0404   20.9212 C   0  0  0  0  0  0
  -24.6379  -11.6884   20.8771 C   0  0  0  0  0  0
  -23.9044  -10.4281   21.0419 C   0  0  0  0  0  0
  -24.3603   -9.4200   21.9194 C   0  0  0  0  0  0
  -23.6283   -8.2231   22.0759 C   0  0  0  0  0  0
  -22.4268   -8.0272   21.3544 C   0  0  0  0  0  0
  -21.9899   -9.0247   20.4656 C   0  0  0  0  0  0
  -22.7219  -10.2128   20.3074 C   0  0  0  0  0  0
  -21.6853   -6.0727   22.5272 C   0  0  0  0  0  0
  -21.4011   -6.5637   23.8203 C   0  0  0  0  0  0
  -21.3657   -5.6791   24.9166 C   0  0  0  0  0  0
  -21.6047   -4.3054   24.7219 C   0  0  0  0  0  0
  -21.8821   -3.8143   23.4343 C   0  0  0  0  0  0
  -21.9195   -4.6957   22.3397 C   0  0  0  0  0  0
  -22.7848  -13.5236   21.1854 C   0  0  0  0  0  0
  -22.1667   -4.2144   21.0974 F   0  0  0  0  0  0
  -21.5628   -3.4542   25.7732 F   0  0  0  0  0  0
  -30.0210  -13.3471   20.4287 N   0  0  0  0  0  0
  -26.2987  -12.9299   20.3360 N   0  0  0  0  0  0
  -25.9309  -11.6471   20.5808 N   0  0  0  0  0  0
  -22.0476  -12.8242   22.0415 N   0  0  0  0  0  0
  -25.4203  -15.1806   20.3929 N   0  0  0  0  0  0
  -31.8262  -14.6927   20.1300 O   0  0  0  0  0  0
  -21.6640   -6.8861   21.4232 O   0  0  0  0  0  0
  -22.3544  -14.5539   20.6690 O   0  0  0  0  0  0
  -24.6168  -31.8655   23.2107 C   0  0  0  0  0  0
  -25.9057  -32.4794   23.8415 C   0  0  1  0  0  0
  -27.2235  -27.3843   20.0952 C   0  0  0  0  0  0
  -25.5913  -33.8602   24.2324 N   0  0  0  0  0  0
  -23.4035  -30.4892   21.5520 C   0  0  2  0  0  0
  -24.8445  -28.9508   20.1159 C   0  0  0  0  0  0
  -22.7416  -29.4636   22.5017 C   0  0  0  0  0  0
  -18.0247  -28.1372   22.8494 C   0  0  0  0  0  0
  -24.1476  -36.7304   23.2644 C   0  0  0  0  0  0
  -25.9369  -30.8151   21.3682 C   0  0  0  0  0  0
  -26.0078  -29.4466   20.7131 C   0  0  0  0  0  0
  -27.1947  -28.6715   20.6973 C   0  0  0  0  0  0
  -26.0242  -26.9050   19.5218 C   0  0  0  0  0  0
  -24.8508  -27.6813   19.5166 C   0  0  0  0  0  0
  -23.6105  -29.8234   20.1663 C   0  0  0  0  0  0
  -25.4091  -36.3094   24.0344 C   0  0  1  0  0  0
  -20.5841  -28.3635   23.1333 C   0  0  2  0  0  0
  -20.6738  -26.9371   22.5430 C   0  0  0  0  0  0
  -19.5725  -26.6379   21.5213 C   0  0  0  0  0  0
  -18.1895  -26.7924   22.1613 C   0  0  0  0  0  0
  -19.1502  -28.8820   23.2915 C   0  0  0  0  0  0
  -18.9445  -30.1436   23.8907 C   0  0  0  0  0  0
  -17.6454  -30.6592   24.0556 C   0  0  0  0  0  0
  -25.9036  -34.9464   23.5129 C   0  0  0  0  0  0
  -16.5337  -29.9091   23.6342 C   0  0  0  0  0  0
  -16.7239  -28.6510   23.0351 C   0  0  0  0  0  0
  -26.4472  -31.6582   25.0761 C   0  0  0  0  0  0
  -25.3771  -31.3728   26.1549 C   0  0  0  0  0  0
  -27.0262  -30.3000   24.6169 C   0  0  0  0  0  0
  -27.6065  -32.4280   25.7518 C   0  0  0  0  0  0
  -27.5569  -37.1807   24.8456 C   0  0  0  0  0  0
  -21.4137  -29.3025   22.3774 N   0  0  0  0  0  0
  -26.4267  -37.3789   23.9420 N   0  0  0  0  0  0
  -24.6707  -31.0732   22.1010 N   0  0  0  0  0  0
  -23.4186  -28.8166   23.3053 O   0  0  0  0  0  0
  -28.4169  -26.6661   20.1128 O   0  0  0  0  0  0
  -26.5607  -34.8923   22.4695 O   0  0  0  0  0  0
  -23.5354  -32.1426   23.7484 O   0  0  0  0  0  0
  -31.5157  -17.3912   21.4594 C   0  0  0  0  0  0
  -30.9481  -19.7510   21.1915 C   0  0  0  0  0  0
  -29.3122  -18.0302   20.6223 C   0  0  0  0  0  0
  -30.2466  -16.9996   20.9780 C   0  0  0  0  0  0
  -29.6611  -19.4184   20.7064 C   0  0  0  0  0  0
  -31.8597  -18.7495   21.5682 C   0  0  0  0  0  0
  -28.0064  -22.7247   19.8226 C   0  0  0  0  0  0
  -27.8700  -17.3015   18.6534 C   0  0  0  0  0  0
  -30.1250  -25.1192   19.7955 C   0  0  0  0  0  0
  -28.4263  -25.3568   18.0112 C   0  0  0  0  0  0
  -27.9147  -17.6574   20.1455 C   0  0  0  0  0  0
  -27.8394  -24.1959   20.3102 C   0  0  0  0  0  0
  -29.0741  -21.8018   20.4726 C   0  0  0  0  0  0
  -28.6204  -25.3342   19.5490 C   0  0  0  0  0  0
  -29.8999  -15.5953   20.9154 N   0  0  0  0  0  0
  -27.2662  -22.2900   18.9336 O   0  0  0  0  0  0
  -28.7456  -20.3975   20.3128 O   0  0  0  0  0  0
  -33.0790  -19.0973   22.0447 F   0  0  0  0  0  0
  -31.4696  -12.4549   19.1259 H   0  0  0  0  0  0
  -30.3521  -11.3391   19.8569 H   0  0  0  0  0  0
  -29.7434  -11.7515   17.4550 H   0  0  0  0  0  0
  -29.6481  -13.4696   17.7485 H   0  0  0  0  0  0
  -27.8500  -11.2899   18.8591 H   0  0  0  0  0  0
  -27.3613  -12.5838   17.7980 H   0  0  0  0  0  0
  -27.6839  -14.2461   19.5444 H   0  0  0  0  0  0
  -28.6946  -12.0091   21.3720 H   0  0  0  0  0  0
  -28.4618  -13.6615   21.8541 H   0  0  0  0  0  0
  -25.2740   -9.5681   22.4784 H   0  0  0  0  0  0
  -23.9995   -7.4619   22.7477 H   0  0  0  0  0  0
  -21.0831   -8.8758   19.8962 H   0  0  0  0  0  0
  -22.3665  -10.9672   19.6204 H   0  0  0  0  0  0
  -21.2002   -7.6147   23.9699 H   0  0  0  0  0  0
  -21.1480   -6.0527   25.9067 H   0  0  0  0  0  0
  -22.0606   -2.7609   23.2841 H   0  0  0  0  0  0
  -22.4072  -11.9898   22.4805 H   0  0  0  0  0  0
  -21.1117  -13.1303   22.2633 H   0  0  0  0  0  0
  -24.6383  -15.8224   20.4655 H   0  0  0  0  0  0
  -26.2331  -15.5945   19.9574 H   0  0  0  0  0  0
  -26.7130  -32.5459   23.1176 H   0  0  0  0  0  0
  -25.0047  -33.9776   25.0458 H   0  0  0  0  0  0
  -22.6913  -31.3053   21.4138 H   0  0  0  0  0  0
  -23.3725  -35.9653   23.3295 H   0  0  0  0  0  0
  -24.3565  -36.8935   22.2063 H   0  0  0  0  0  0
  -23.7265  -37.6521   23.6661 H   0  0  0  0  0  0
  -26.0577  -31.5768   20.5966 H   0  0  0  0  0  0
  -26.8226  -30.8673   21.9903 H   0  0  0  0  0  0
  -28.0893  -29.0536   21.1669 H   0  0  0  0  0  0
  -25.9522  -25.9236   19.0868 H   0  0  0  0  0  0
  -23.9538  -27.2883   19.0585 H   0  0  0  0  0  0
  -23.7155  -30.5953   19.4031 H   0  0  0  0  0  0
  -22.7339  -29.2439   19.8744 H   0  0  0  0  0  0
  -25.1277  -36.1942   25.0844 H   0  0  0  0  0  0
  -20.9924  -28.3179   24.1459 H   0  0  0  0  0  0
  -20.5576  -26.2257   23.3621 H   0  0  0  0  0  0
  -21.6622  -26.7384   22.1259 H   0  0  0  0  0  0
  -19.6883  -25.6297   21.1234 H   0  0  0  0  0  0
  -19.6677  -27.3204   20.6755 H   0  0  0  0  0  0
  -17.4177  -26.6658   21.4011 H   0  0  0  0  0  0
  -18.0274  -26.0062   22.8999 H   0  0  0  0  0  0
  -19.7924  -30.7238   24.2288 H   0  0  0  0  0  0
  -17.5017  -31.6279   24.5145 H   0  0  0  0  0  0
  -15.5346  -30.2993   23.7703 H   0  0  0  0  0  0
  -15.8621  -28.0855   22.7056 H   0  0  0  0  0  0
  -24.6025  -30.6915   25.8008 H   0  0  0  0  0  0
  -24.8851  -32.2874   26.4875 H   0  0  0  0  0  0
  -25.8210  -30.9104   27.0377 H   0  0  0  0  0  0
  -26.2806  -29.6799   24.1178 H   0  0  0  0  0  0
  -27.3940  -29.7213   25.4652 H   0  0  0  0  0  0
  -27.8686  -30.4255   23.9363 H   0  0  0  0  0  0
  -27.2706  -33.3591   26.2087 H   0  0  0  0  0  0
  -28.3897  -32.6802   25.0359 H   0  0  0  0  0  0
  -28.0687  -31.8392   26.5454 H   0  0  0  0  0  0
  -28.2594  -38.0094   24.7484 H   0  0  0  0  0  0
  -28.1056  -36.2637   24.6263 H   0  0  0  0  0  0
  -27.2308  -37.1453   25.8866 H   0  0  0  0  0  0
  -20.9282  -29.8817   21.7067 H   0  0  0  0  0  0
  -26.0131  -38.2858   24.1442 H   0  0  0  0  0  0
  -32.2416  -16.6541   21.7694 H   0  0  0  0  0  0
  -31.2701  -20.7757   21.2933 H   0  0  0  0  0  0
  -26.8462  -17.1073   18.3316 H   0  0  0  0  0  0
  -28.4636  -16.4146   18.4356 H   0  0  0  0  0  0
  -28.2550  -18.1196   18.0440 H   0  0  0  0  0  0
  -30.3468  -25.0450   20.8608 H   0  0  0  0  0  0
  -30.4870  -24.2108   19.3133 H   0  0  0  0  0  0
  -30.7169  -25.9426   19.3942 H   0  0  0  0  0  0
  -27.4096  -25.5484   17.6794 H   0  0  0  0  0  0
  -28.7208  -24.4098   17.5596 H   0  0  0  0  0  0
  -29.0489  -26.1278   17.5559 H   0  0  0  0  0  0
  -27.2228  -18.4768   20.3443 H   0  0  0  0  0  0
  -27.5439  -16.8298   20.7478 H   0  0  0  0  0  0
  -28.1181  -24.2238   21.3633 H   0  0  0  0  0  0
  -26.7721  -24.4059   20.2934 H   0  0  0  0  0  0
  -29.1758  -22.0437   21.5311 H   0  0  0  0  0  0
  -30.0258  -22.0109   19.9851 H   0  0  0  0  0  0
  -28.9332  -15.3663   21.0835 H   0  0  0  0  0  0
  1 25  1  0  0  0
  1 30  2  0  0  0
  1 85  1  0  0  0
  2  3  1  0  0  0
  2 25  1  0  0  0
  2 89  1  0  0  0
  2 90  1  0  0  0
  3  4  1  0  0  0
  3 91  1  0  0  0
  3 92  1  0  0  0
  4  5  1  0  0  0
  4 93  1  0  0  0
  4 94  1  0  0  0
  5  6  1  0  0  0
  5 26  1  0  0  0
  5 95  1  0  0  0
  6 25  1  0  0  0
  6 96  1  0  0  0
  6 97  1  0  0  0
  7  8  2  0  0  0
  7 26  1  0  0  0
  7 29  1  0  0  0
  8  9  1  0  0  0
  8 22  1  0  0  0
  9 10  1  0  0  0
  9 27  2  0  0  0
 10 11  2  0  0  0
 10 15  1  0  0  0
 11 12  1  0  0  0
 11 98  1  0  0  0
 12 13  2  0  0  0
 12 99  1  0  0  0
 13 14  1  0  0  0
 13 31  1  0  0  0
 14 15  2  0  0  0
 14100  1  0  0  0
 15101  1  0  0  0
 16 17  2  0  0  0
 16 21  1  0  0  0
 16 31  1  0  0  0
 17 18  1  0  0  0
 17102  1  0  0  0
 18 19  2  0  0  0
 18103  1  0  0  0
 19 20  1  0  0  0
 19 24  1  0  0  0
 20 21  2  0  0  0
 20104  1  0  0  0
 21 23  1  0  0  0
 22 28  1  0  0  0
 22 32  2  0  0  0
 26 27  1  0  0  0
 28105  1  0  0  0
 28106  1  0  0  0
 29107  1  0  0  0
 29108  1  0  0  0
 33 34  1  0  0  0
 33 66  1  0  0  0
 33 70  2  0  0  0
 34 36  1  0  0  0
 34 59  1  0  0  0
 34109  1  0  0  0
 35 44  2  0  0  0
 35 45  1  0  0  0
 35 68  1  0  0  0
 36 56  1  0  0  0
 36110  1  0  0  0
 37 39  1  0  0  0
 37 47  1  0  0  0
 37 66  1  0  0  0
 37111  1  0  0  0
 38 43  2  0  0  0
 38 46  1  0  0  0
 38 47  1  0  0  0
 39 64  1  0  0  0
 39 67  2  0  0  0
 40 52  1  0  0  0
 40 53  2  0  0  0
 40 58  1  0  0  0
 41112  1  0  0  0
 41113  1  0  0  0
 41114  1  0  0  0
 41 48  1  0  0  0
 42 43  1  0  0  0
 42 66  1  0  0  0
 42115  1  0  0  0
 42116  1  0  0  0
 43 44  1  0  0  0
 44117  1  0  0  0
 45 46  2  0  0  0
 45118  1  0  0  0
 46119  1  0  0  0
 47120  1  0  0  0
 47121  1  0  0  0
 48 56  1  0  0  0
 48 65  1  0  0  0
 48122  1  0  0  0
 49 50  1  0  0  0
 49 53  1  0  0  0
 49 64  1  0  0  0
 49123  1  0  0  0
 50 51  1  0  0  0
 50124  1  0  0  0
 50125  1  0  0  0
 51 52  1  0  0  0
 51126  1  0  0  0
 51127  1  0  0  0
 52128  1  0  0  0
 52129  1  0  0  0
 53 54  1  0  0  0
 54 55  2  0  0  0
 54130  1  0  0  0
 55 57  1  0  0  0
 55131  1  0  0  0
 56 69  2  0  0  0
 57 58  2  0  0  0
 57132  1  0  0  0
 58133  1  0  0  0
 59 60  1  0  0  0
 59 61  1  0  0  0
 59 62  1  0  0  0
 60134  1  0  0  0
 60135  1  0  0  0
 60136  1  0  0  0
 61137  1  0  0  0
 61138  1  0  0  0
 61139  1  0  0  0
 62140  1  0  0  0
 62141  1  0  0  0
 62142  1  0  0  0
 63 65  1  0  0  0
 63143  1  0  0  0
 63144  1  0  0  0
 63145  1  0  0  0
 64146  1  0  0  0
 65147  1  0  0  0
 68 84  1  0  0  0
 71 74  2  0  0  0
 71 76  1  0  0  0
 71148  1  0  0  0
 72 75  1  0  0  0
 72 76  2  0  0  0
 72149  1  0  0  0
 73 74  1  0  0  0
 73 75  2  0  0  0
 73 81  1  0  0  0
 74 85  1  0  0  0
 75 87  1  0  0  0
 76 88  1  0  0  0
 77 82  1  0  0  0
 77 83  1  0  0  0
 77 86  2  0  0  0
 78 81  1  0  0  0
 78150  1  0  0  0
 78151  1  0  0  0
 78152  1  0  0  0
 79153  1  0  0  0
 79154  1  0  0  0
 79155  1  0  0  0
 79 84  1  0  0  0
 80 84  1  0  0  0
 80156  1  0  0  0
 80157  1  0  0  0
 80158  1  0  0  0
 81159  1  0  0  0
 81160  1  0  0  0
 82 84  1  0  0  0
 82161  1  0  0  0
 82162  1  0  0  0
 83 87  1  0  0  0
 83163  1  0  0  0
 83164  1  0  0  0
 85165  1  0  0  0
M  ISO  4   1 100  68 101  84 101  85 100
M  END
> <chiral flag>
0

> <version>
0

> <s_m_source_file>
/data/baiqing/PycharmProjects/Reinvent-master-3.2/result/LINK_invent/BTK/process_docking_weight1_custom_product_contain_oxygen_bond_distance_aromatic_linkinvent_7_9_3/rearranged_h_0138.sdf

> <i_m_source_file_index>
56

> <r_mmod_Potential_Energy-OPLS-2005>
2.67429661750793

> <r_mmod_Stretch_Energy-OPLS-2005>
56.3960990905762

> <r_mmod_Bend_Energy-OPLS-2005>
136.03742980957

> <r_mmod_Torsional_Energy-OPLS-2005>
194.881042480469

> <r_mmod_Improper_Torsional_Energy-OPLS-2005>
5.28430461883545

> <r_mmod_Van_der_Waal_Energy-OPLS-2005>
148.276626586914

> <r_mmod_Electrostatic_Energy-OPLS-2005>
-346.753997802734

> <r_mmod_Solvation_Energy-OPLS-2005>
-214.140609741211

> <b_mmod_Minimization_Converged-OPLS-2005>
0

> <r_mmod_RMS_Derivative-OPLS-2005>
2.33270049095154

$$$$
56
                    3D
 Structure written by MMmdl.
170179  0  0  1  0            999 V2000
  -30.6822  -14.4295   20.5873 C   0  0  0  0  0  0
  -30.4224  -12.2846   19.4164 C   0  0  0  0  0  0
  -29.4942  -12.5109   18.2045 C   0  0  0  0  0  0
  -28.0128  -12.3790   18.6107 C   0  0  0  0  0  0
  -27.6631  -13.2001   19.8808 C   0  0  2  0  0  0
  -28.6972  -12.9397   20.9980 C   0  0  0  0  0  0
  -25.2590  -13.8147   20.5676 C   0  0  0  0  0  0
  -24.1835  -13.0444   20.9159 C   0  0  0  0  0  0
  -24.6379  -11.6896   20.8725 C   0  0  0  0  0  0
  -23.9043  -10.4293   21.0401 C   0  0  0  0  0  0
  -24.3603   -9.4213   21.9184 C   0  0  0  0  0  0
  -23.6285   -8.2247   22.0756 C   0  0  0  0  0  0
  -22.4266   -8.0280   21.3547 C   0  0  0  0  0  0
  -21.9894   -9.0250   20.4651 C   0  0  0  0  0  0
  -22.7217  -10.2130   20.3057 C   0  0  0  0  0  0
  -21.6853   -6.0732   22.5280 C   0  0  0  0  0  0
  -21.4015   -6.5638   23.8210 C   0  0  0  0  0  0
  -21.3659   -5.6793   24.9179 C   0  0  0  0  0  0
  -21.6040   -4.3055   24.7227 C   0  0  0  0  0  0
  -21.8819   -3.8144   23.4355 C   0  0  0  0  0  0
  -21.9195   -4.6960   22.3404 C   0  0  0  0  0  0
  -22.7860  -13.5247   21.1829 C   0  0  0  0  0  0
  -22.1661   -4.2147   21.0983 F   0  0  0  0  0  0
  -21.5629   -3.4538   25.7740 F   0  0  0  0  0  0
  -30.0351  -13.2430   20.4616 N   0  0  0  0  0  0
  -26.3019  -12.9311   20.3369 N   0  0  0  0  0  0
  -25.9300  -11.6472   20.5750 N   0  0  0  0  0  0
  -22.0496  -12.8249   22.0391 N   0  0  0  0  0  0
  -25.4337  -15.1874   20.4078 N   0  0  0  0  0  0
  -31.8029  -14.6378   20.1101 O   0  0  0  0  0  0
  -21.6636   -6.8875   21.4237 O   0  0  0  0  0  0
  -22.3552  -14.5563   20.6687 O   0  0  0  0  0  0
  -24.6096  -31.8705   23.2168 C   0  0  0  0  0  0
  -25.9009  -32.4829   23.8454 C   0  0  1  0  0  0
  -27.2486  -27.4762   20.0906 C   0  0  0  0  0  0
  -25.5887  -33.8628   24.2375 N   0  0  0  0  0  0
  -23.3972  -30.4959   21.5509 C   0  0  2  0  0  0
  -24.8486  -28.9673   20.1124 C   0  0  0  0  0  0
  -22.7383  -29.4670   22.4980 C   0  0  0  0  0  0
  -18.0268  -28.1386   22.8481 C   0  0  0  0  0  0
  -24.1478  -36.7345   23.2637 C   0  0  0  0  0  0
  -25.9222  -30.8486   21.3674 C   0  0  0  0  0  0
  -26.0009  -29.4847   20.7167 C   0  0  0  0  0  0
  -27.2009  -28.7449   20.7142 C   0  0  0  0  0  0
  -26.0844  -26.9707   19.4759 C   0  0  0  0  0  0
  -24.8820  -27.7066   19.4905 C   0  0  0  0  0  0
  -23.6061  -29.8290   20.1636 C   0  0  0  0  0  0
  -25.4087  -36.3118   24.0339 C   0  0  1  0  0  0
  -20.5856  -28.3666   23.1299 C   0  0  2  0  0  0
  -20.6759  -26.9400   22.5412 C   0  0  0  0  0  0
  -19.5742  -26.6382   21.5209 C   0  0  0  0  0  0
  -18.1920  -26.7924   22.1619 C   0  0  0  0  0  0
  -19.1527  -28.8842   23.2883 C   0  0  0  0  0  0
  -18.9455  -30.1447   23.8906 C   0  0  0  0  0  0
  -17.6461  -30.6583   24.0572 C   0  0  0  0  0  0
  -25.9019  -34.9471   23.5158 C   0  0  0  0  0  0
  -16.5350  -29.9104   23.6315 C   0  0  0  0  0  0
  -16.7263  -28.6523   23.0328 C   0  0  0  0  0  0
  -26.4447  -31.6600   25.0768 C   0  0  0  0  0  0
  -25.3721  -31.3731   26.1543 C   0  0  0  0  0  0
  -27.0304  -30.3043   24.6146 C   0  0  0  0  0  0
  -27.6020  -32.4343   25.7522 C   0  0  0  0  0  0
  -27.5579  -37.1815   24.8453 C   0  0  0  0  0  0
  -21.4117  -29.3048   22.3716 N   0  0  0  0  0  0
  -26.4285  -37.3796   23.9402 N   0  0  0  0  0  0
  -24.6600  -31.0843   22.1041 N   0  0  0  0  0  0
  -23.4163  -28.8187   23.2992 O   0  0  0  0  0  0
  -28.3827  -26.6978   20.0388 O   0  0  0  0  0  0
  -26.5569  -34.8904   22.4713 O   0  0  0  0  0  0
  -23.5292  -32.1476   23.7568 O   0  0  0  0  0  0
  -30.5555  -18.7030   19.5081 C   0  0  0  0  0  0
  -30.5313  -17.3187   19.7214 C   0  0  0  0  0  0
  -29.4360  -17.6908   21.8532 C   0  0  0  0  0  0
  -30.0427  -19.6117   20.4586 C   0  0  0  0  0  0
  -29.4488  -19.0968   21.6601 C   0  0  0  0  0  0
  -29.9998  -16.7964   20.9175 C   0  0  0  0  0  0
  -28.5776  -23.6061   23.0019 C   0  0  0  0  0  0
  -29.1922  -24.8005   22.8930 C   0  0  0  0  0  0
  -27.1568  -23.2790   22.5886 C   0  0  0  0  0  0
  -29.2491  -22.3169   23.4118 C   0  0  0  0  0  0
  -27.1296  -21.7399   22.5584 C   0  0  0  0  0  0
  -31.5708  -21.6304   20.6310 C   0  0  0  0  0  0
  -30.2409  -21.0838   20.0946 C   0  0  0  0  0  0
  -28.8584  -19.9098   22.8318 C   0  0  0  0  0  0
  -28.5446  -26.0887   22.4105 C   0  0  0  0  0  0
  -29.2447  -26.7022   21.1752 C   0  0  0  0  0  0
  -29.9640  -15.3976   21.1879 N   0  0  0  0  0  0
  -28.5533  -21.3309   22.5623 N   0  3  2  0  0  0
  -31.4677  -12.3899   19.1191 H   0  0  0  0  0  0
  -30.3222  -11.2656   19.7933 H   0  0  0  0  0  0
  -29.7285  -11.7989   17.4127 H   0  0  0  0  0  0
  -29.6718  -13.5026   17.7870 H   0  0  0  0  0  0
  -27.8065  -11.3227   18.7838 H   0  0  0  0  0  0
  -27.3690  -12.6799   17.7837 H   0  0  0  0  0  0
  -27.7205  -14.2542   19.6084 H   0  0  0  0  0  0
  -28.6639  -11.8940   21.3069 H   0  0  0  0  0  0
  -28.4576  -13.5091   21.8975 H   0  0  0  0  0  0
  -25.2749   -9.5692   22.4754 H   0  0  0  0  0  0
  -23.9997   -7.4639   22.7475 H   0  0  0  0  0  0
  -21.0826   -8.8768   19.8959 H   0  0  0  0  0  0
  -22.3676  -10.9669   19.6166 H   0  0  0  0  0  0
  -21.2006   -7.6148   23.9716 H   0  0  0  0  0  0
  -21.1478   -6.0523   25.9079 H   0  0  0  0  0  0
  -22.0600   -2.7607   23.2852 H   0  0  0  0  0  0
  -22.4097  -11.9898   22.4771 H   0  0  0  0  0  0
  -21.1121  -13.1287   22.2608 H   0  0  0  0  0  0
  -24.6682  -15.8444   20.5117 H   0  0  0  0  0  0
  -26.2909  -15.6227   20.0912 H   0  0  0  0  0  0
  -26.7092  -32.5550   23.1242 H   0  0  0  0  0  0
  -25.0027  -33.9803   25.0514 H   0  0  0  0  0  0
  -22.6870  -31.3133   21.4125 H   0  0  0  0  0  0
  -23.3709  -35.9717   23.3318 H   0  0  0  0  0  0
  -24.3587  -36.8953   22.2054 H   0  0  0  0  0  0
  -23.7269  -37.6563   23.6650 H   0  0  0  0  0  0
  -26.0404  -31.6163   20.6010 H   0  0  0  0  0  0
  -26.8075  -30.8967   21.9891 H   0  0  0  0  0  0
  -28.0775  -29.1715   21.1775 H   0  0  0  0  0  0
  -26.1064  -26.0036   18.9935 H   0  0  0  0  0  0
  -23.9986  -27.3084   19.0117 H   0  0  0  0  0  0
  -23.7098  -30.6067   19.4055 H   0  0  0  0  0  0
  -22.7323  -29.2463   19.8658 H   0  0  0  0  0  0
  -25.1259  -36.2007   25.0836 H   0  0  0  0  0  0
  -20.9962  -28.3262   24.1412 H   0  0  0  0  0  0
  -20.5655  -26.2296   23.3603 H   0  0  0  0  0  0
  -21.6625  -26.7439   22.1208 H   0  0  0  0  0  0
  -19.6897  -25.6295   21.1236 H   0  0  0  0  0  0
  -19.6678  -27.3193   20.6726 H   0  0  0  0  0  0
  -17.4178  -26.6658   21.4029 H   0  0  0  0  0  0
  -18.0318  -26.0081   22.9029 H   0  0  0  0  0  0
  -19.7945  -30.7238   24.2289 H   0  0  0  0  0  0
  -17.5032  -31.6256   24.5186 H   0  0  0  0  0  0
  -15.5362  -30.3011   23.7632 H   0  0  0  0  0  0
  -15.8652  -28.0853   22.7019 H   0  0  0  0  0  0
  -24.5841  -30.7139   25.7913 H   0  0  0  0  0  0
  -24.8977  -32.2907   26.5025 H   0  0  0  0  0  0
  -25.8071  -30.8876   27.0297 H   0  0  0  0  0  0
  -26.2899  -29.6807   24.1136 H   0  0  0  0  0  0
  -27.4004  -29.7252   25.4622 H   0  0  0  0  0  0
  -27.8752  -30.4370   23.9383 H   0  0  0  0  0  0
  -27.2604  -33.3612   26.2141 H   0  0  0  0  0  0
  -28.3778  -32.6965   25.0325 H   0  0  0  0  0  0
  -28.0739  -31.8467   26.5401 H   0  0  0  0  0  0
  -28.2571  -38.0128   24.7483 H   0  0  0  0  0  0
  -28.1082  -36.2649   24.6277 H   0  0  0  0  0  0
  -27.2297  -37.1479   25.8855 H   0  0  0  0  0  0
  -20.9281  -29.8814   21.6983 H   0  0  0  0  0  0
  -26.0172  -38.2880   24.1403 H   0  0  0  0  0  0
  -31.0032  -19.0690   18.5935 H   0  0  0  0  0  0
  -30.9382  -16.6767   18.9525 H   0  0  0  0  0  0
  -29.0075  -17.2942   22.7642 H   0  0  0  0  0  0
  -30.2342  -24.8789   23.1726 H   0  0  0  0  0  0
  -26.9496  -23.6947   21.6009 H   0  0  0  0  0  0
  -26.4299  -23.6863   23.2950 H   0  0  0  0  0  0
  -29.0521  -22.1189   24.4678 H   0  0  0  0  0  0
  -30.3269  -22.3348   23.2608 H   0  0  0  0  0  0
  -26.5888  -21.3501   21.6957 H   0  0  0  0  0  0
  -26.6366  -21.3670   23.4575 H   0  0  0  0  0  0
  -31.6970  -22.6837   20.3789 H   0  0  0  0  0  0
  -32.4112  -21.0869   20.1988 H   0  0  0  0  0  0
  -31.6571  -21.5258   21.7096 H   0  0  0  0  0  0
  -29.4000  -21.7235   20.3368 H   0  0  0  0  0  0
  -30.2759  -21.1658   19.0067 H   0  0  0  0  0  0
  -29.5555  -19.8326   23.6652 H   0  0  0  0  0  0
  -27.9433  -19.4137   23.1641 H   0  0  0  0  0  0
  -28.5665  -26.8097   23.2261 H   0  0  0  0  0  0
  -27.4889  -25.9112   22.2105 H   0  0  0  0  0  0
  -30.1296  -26.1196   20.9127 H   0  0  0  0  0  0
  -29.6246  -27.7001   21.3883 H   0  0  0  0  0  0
  -29.1730  -15.0721   21.7216 H   0  0  0  0  0  0
  -28.8877  -21.4865   21.6258 H   0  0  0  0  0  0
  1 25  1  0  0  0
  1 30  2  0  0  0
  1 87  1  0  0  0
  2  3  1  0  0  0
  2 25  1  0  0  0
  2 89  1  0  0  0
  2 90  1  0  0  0
  3  4  1  0  0  0
  3 91  1  0  0  0
  3 92  1  0  0  0
  4  5  1  0  0  0
  4 93  1  0  0  0
  4 94  1  0  0  0
  5  6  1  0  0  0
  5 26  1  0  0  0
  5 95  1  0  0  0
  6 25  1  0  0  0
  6 96  1  0  0  0
  6 97  1  0  0  0
  7  8  2  0  0  0
  7 26  1  0  0  0
  7 29  1  0  0  0
  8  9  1  0  0  0
  8 22  1  0  0  0
  9 10  1  0  0  0
  9 27  2  0  0  0
 10 11  2  0  0  0
 10 15  1  0  0  0
 11 12  1  0  0  0
 11 98  1  0  0  0
 12 13  2  0  0  0
 12 99  1  0  0  0
 13 14  1  0  0  0
 13 31  1  0  0  0
 14 15  2  0  0  0
 14100  1  0  0  0
 15101  1  0  0  0
 16 17  2  0  0  0
 16 21  1  0  0  0
 16 31  1  0  0  0
 17 18  1  0  0  0
 17102  1  0  0  0
 18 19  2  0  0  0
 18103  1  0  0  0
 19 20  1  0  0  0
 19 24  1  0  0  0
 20 21  2  0  0  0
 20104  1  0  0  0
 21 23  1  0  0  0
 22 28  1  0  0  0
 22 32  2  0  0  0
 26 27  1  0  0  0
 28105  1  0  0  0
 28106  1  0  0  0
 29107  1  0  0  0
 29108  1  0  0  0
 33 34  1  0  0  0
 33 66  1  0  0  0
 33 70  2  0  0  0
 34 36  1  0  0  0
 34 59  1  0  0  0
 34109  1  0  0  0
 35 44  2  0  0  0
 35 45  1  0  0  0
 35 68  1  0  0  0
 36 56  1  0  0  0
 36110  1  0  0  0
 37 39  1  0  0  0
 37 47  1  0  0  0
 37 66  1  0  0  0
 37111  1  0  0  0
 38 43  2  0  0  0
 38 46  1  0  0  0
 38 47  1  0  0  0
 39 64  1  0  0  0
 39 67  2  0  0  0
 40 52  1  0  0  0
 40 53  2  0  0  0
 40 58  1  0  0  0
 41112  1  0  0  0
 41113  1  0  0  0
 41114  1  0  0  0
 41 48  1  0  0  0
 42 43  1  0  0  0
 42 66  1  0  0  0
 42115  1  0  0  0
 42116  1  0  0  0
 43 44  1  0  0  0
 44117  1  0  0  0
 45 46  2  0  0  0
 45118  1  0  0  0
 46119  1  0  0  0
 47120  1  0  0  0
 47121  1  0  0  0
 48 56  1  0  0  0
 48 65  1  0  0  0
 48122  1  0  0  0
 49 50  1  0  0  0
 49 53  1  0  0  0
 49 64  1  0  0  0
 49123  1  0  0  0
 50 51  1  0  0  0
 50124  1  0  0  0
 50125  1  0  0  0
 51 52  1  0  0  0
 51126  1  0  0  0
 51127  1  0  0  0
 52128  1  0  0  0
 52129  1  0  0  0
 53 54  1  0  0  0
 54 55  2  0  0  0
 54130  1  0  0  0
 55 57  1  0  0  0
 55131  1  0  0  0
 56 69  2  0  0  0
 57 58  2  0  0  0
 57132  1  0  0  0
 58133  1  0  0  0
 59 60  1  0  0  0
 59 61  1  0  0  0
 59 62  1  0  0  0
 60134  1  0  0  0
 60135  1  0  0  0
 60136  1  0  0  0
 61137  1  0  0  0
 61138  1  0  0  0
 61139  1  0  0  0
 62140  1  0  0  0
 62141  1  0  0  0
 62142  1  0  0  0
 63 65  1  0  0  0
 63143  1  0  0  0
 63144  1  0  0  0
 63145  1  0  0  0
 64146  1  0  0  0
 65147  1  0  0  0
 68 86  1  0  0  0
 71 72  2  0  0  0
 71 74  1  0  0  0
 71148  1  0  0  0
 72 76  1  0  0  0
 72149  1  0  0  0
 73 75  1  0  0  0
 73 76  2  0  0  0
 73150  1  0  0  0
 74 75  2  0  0  0
 74 83  1  0  0  0
 75 84  1  0  0  0
 76 87  1  0  0  0
 77 78  2  0  0  0
 77 79  1  0  0  0
 77 80  1  0  0  0
 78 85  1  0  0  0
 78151  1  0  0  0
 79 81  1  0  0  0
 79152  1  0  0  0
 79153  1  0  0  0
 80 88  1  0  0  0
 80154  1  0  0  0
 80155  1  0  0  0
 81 88  1  0  0  0
 81156  1  0  0  0
 81157  1  0  0  0
 82 83  1  0  0  0
 82158  1  0  0  0
 82159  1  0  0  0
 82160  1  0  0  0
 83161  1  0  0  0
 83162  1  0  0  0
 84163  1  0  0  0
 84164  1  0  0  0
 84 88  1  0  0  0
 85 86  1  0  0  0
 85165  1  0  0  0
 85166  1  0  0  0
 86167  1  0  0  0
 86168  1  0  0  0
 87169  1  0  0  0
 88170  1  0  0  0
M  CHG  1  88   1
M  ISO  4   1 100  68 101  86 101  87 100
M  END
> <chiral flag>
0

> <version>
0

> <s_m_source_file>
/data/baiqing/PycharmProjects/Reinvent-master-3.2/result/LINK_invent/BTK/process_docking_weight1_custom_product_contain_oxygen_bond_distance_aromatic_linkinvent_7_9_3/rearranged_h_0138.sdf

> <i_m_source_file_index>
57

> <r_mmod_Potential_Energy-OPLS-2005>
-100.196487426758

> <r_mmod_Stretch_Energy-OPLS-2005>
37.2369499206543

> <r_mmod_Bend_Energy-OPLS-2005>
149.158538818359

> <r_mmod_Torsional_Energy-OPLS-2005>
266.780212402344

> <r_mmod_Improper_Torsional_Energy-OPLS-2005>
3.72112202644348

> <r_mmod_Van_der_Waal_Energy-OPLS-2005>
157.419326782227

> <r_mmod_Electrostatic_Energy-OPLS-2005>
-289.811462402344

> <r_mmod_Solvation_Energy-OPLS-2005>
-433.375030517578

> <b_mmod_Minimization_Converged-OPLS-2005>
0

> <r_mmod_RMS_Derivative-OPLS-2005>
2.69757747650146

$$$$
57
                    3D
 Structure written by MMmdl.
151160  0  0  1  0            999 V2000
  -30.3326  -15.5541   20.3430 C   0  0  0  0  0  0
  -30.4284  -13.0260   19.5216 C   0  0  0  0  0  0
  -29.5440  -12.6303   18.3073 C   0  0  0  0  0  0
  -28.1132  -12.2909   18.7542 C   0  0  0  0  0  0
  -27.5966  -13.2968   19.8086 C   0  0  2  0  0  0
  -28.6206  -13.6016   20.9246 C   0  0  0  0  0  0
  -25.2339  -13.8265   20.5790 C   0  0  0  0  0  0
  -24.1717  -13.0427   20.9286 C   0  0  0  0  0  0
  -24.6404  -11.6934   20.8765 C   0  0  0  0  0  0
  -23.9107  -10.4287   21.0400 C   0  0  0  0  0  0
  -24.3645   -9.4202   21.9181 C   0  0  0  0  0  0
  -23.6308   -8.2242   22.0754 C   0  0  0  0  0  0
  -22.4288   -8.0284   21.3545 C   0  0  0  0  0  0
  -21.9933   -9.0259   20.4645 C   0  0  0  0  0  0
  -22.7274  -10.2131   20.3050 C   0  0  0  0  0  0
  -21.6857   -6.0739   22.5280 C   0  0  0  0  0  0
  -21.4018   -6.5642   23.8214 C   0  0  0  0  0  0
  -21.3660   -5.6794   24.9175 C   0  0  0  0  0  0
  -21.6043   -4.3057   24.7225 C   0  0  0  0  0  0
  -21.8819   -3.8149   23.4346 C   0  0  0  0  0  0
  -21.9194   -4.6967   22.3402 C   0  0  0  0  0  0
  -22.7732  -13.5166   21.1922 C   0  0  0  0  0  0
  -22.1661   -4.2152   21.0980 F   0  0  0  0  0  0
  -21.5626   -3.4540   25.7738 F   0  0  0  0  0  0
  -29.7987  -14.2035   20.2619 N   0  0  0  0  0  0
  -26.2773  -12.9575   20.3217 N   0  0  0  0  0  0
  -25.9346  -11.6658   20.5699 N   0  0  0  0  0  0
  -22.0394  -12.8145   22.0474 N   0  0  0  0  0  0
  -25.3942  -15.2006   20.4250 N   0  0  0  0  0  0
  -31.5719  -15.4948   20.2316 O   0  0  0  0  0  0
  -21.6644   -6.8885   21.4243 O   0  0  0  0  0  0
  -22.3409  -14.5464   20.6757 O   0  0  0  0  0  0
  -24.6801  -31.8038   23.1542 C   0  0  0  0  0  0
  -25.9402  -32.4486   23.8073 C   0  0  1  0  0  0
  -27.2254  -26.7429   20.2156 C   0  0  0  0  0  0
  -25.5996  -33.8308   24.1971 N   0  0  0  0  0  0
  -23.5032  -30.4068   21.5081 C   0  0  2  0  0  0
  -24.9581  -28.7510   20.1223 C   0  0  0  0  0  0
  -22.7743  -29.4337   22.4733 C   0  0  0  0  0  0
  -18.0334  -28.1419   22.8456 C   0  0  0  0  0  0
  -24.1493  -36.7160   23.2651 C   0  0  0  0  0  0
  -26.0813  -30.5515   21.4096 C   0  0  0  0  0  0
  -26.1477  -29.1191   20.7622 C   0  0  0  0  0  0
  -27.2697  -28.1437   20.7706 C   0  0  0  0  0  0
  -25.9995  -26.5671   19.5281 C   0  0  0  0  0  0
  -24.9198  -27.4992   19.4826 C   0  0  0  0  0  0
  -23.7541  -29.7034   20.1434 C   0  0  0  0  0  0
  -25.4142  -36.2907   24.0285 C   0  0  1  0  0  0
  -20.5966  -28.3773   23.1152 C   0  0  2  0  0  0
  -20.6801  -26.9436   22.5404 C   0  0  0  0  0  0
  -19.5779  -26.6371   21.5214 C   0  0  0  0  0  0
  -18.1960  -26.7947   22.1619 C   0  0  0  0  0  0
  -19.1599  -28.8921   23.2785 C   0  0  0  0  0  0
  -18.9506  -30.1506   23.8827 C   0  0  0  0  0  0
  -17.6497  -30.6603   24.0551 C   0  0  0  0  0  0
  -25.9119  -34.9295   23.4963 C   0  0  0  0  0  0
  -16.5386  -29.9085   23.6348 C   0  0  0  0  0  0
  -16.7314  -28.6509   23.0363 C   0  0  0  0  0  0
  -26.4595  -31.6503   25.0677 C   0  0  0  0  0  0
  -25.3676  -31.3816   26.1308 C   0  0  0  0  0  0
  -27.0518  -30.2845   24.6540 C   0  0  0  0  0  0
  -27.6050  -32.4353   25.7497 C   0  0  0  0  0  0
  -27.5564  -37.1738   24.8467 C   0  0  0  0  0  0
  -21.4396  -29.3027   22.3478 N   0  0  0  0  0  0
  -26.4272  -37.3664   23.9408 N   0  0  0  0  0  0
  -24.7781  -30.9525   22.0771 N   0  0  0  0  0  0
  -23.4204  -28.7937   23.3063 O   0  0  0  0  0  0
  -28.2345  -25.5778   20.2388 O   0  0  0  0  0  0
  -26.5752  -34.8866   22.4574 O   0  0  0  0  0  0
  -23.5830  -32.1094   23.6526 O   0  0  0  0  0  0
  -30.9953  -18.8723   21.0933 C   0  0  0  0  0  0
  -29.1001  -20.0841   20.2969 C   0  0  0  0  0  0
  -29.7925  -18.5717   20.4958 C   0  0  0  0  0  0
  -29.7974  -21.2256   20.8009 C   0  0  0  0  0  0
  -27.8196  -20.8923   19.7315 C   0  0  0  0  0  0
  -29.5462  -22.8990   20.8758 C   0  0  0  0  0  0
  -27.7653  -22.5974   19.4199 C   0  0  0  0  0  0
  -28.1915  -23.8403   20.4515 C   0  0  2  0  0  0
  -27.2187  -23.7761   21.6372 C   0  0  0  0  0  0
  -29.5682  -16.9018   20.3049 N   0  0  0  0  0  0
  -31.2963  -20.5886   21.4552 S   0  0  0  0  0  0
  -31.4230  -13.2847   19.1565 H   0  0  0  0  0  0
  -30.5798  -12.1748   20.1876 H   0  0  0  0  0  0
  -29.9824  -11.7869   17.7720 H   0  0  0  0  0  0
  -29.5151  -13.4609   17.6006 H   0  0  0  0  0  0
  -28.1297  -11.2896   19.1862 H   0  0  0  0  0  0
  -27.4411  -12.2462   17.8964 H   0  0  0  0  0  0
  -27.4666  -14.2248   19.2502 H   0  0  0  0  0  0
  -28.8688  -12.7105   21.5032 H   0  0  0  0  0  0
  -28.2039  -14.3222   21.6302 H   0  0  0  0  0  0
  -25.2785   -9.5676   22.4765 H   0  0  0  0  0  0
  -24.0011   -7.4633   22.7476 H   0  0  0  0  0  0
  -21.0864   -8.8785   19.8950 H   0  0  0  0  0  0
  -22.3733  -10.9673   19.6163 H   0  0  0  0  0  0
  -21.2014   -7.6151   23.9718 H   0  0  0  0  0  0
  -21.1480   -6.0524   25.9078 H   0  0  0  0  0  0
  -22.0596   -2.7611   23.2847 H   0  0  0  0  0  0
  -22.4034  -11.9823   22.4875 H   0  0  0  0  0  0
  -21.0999  -13.1141   22.2666 H   0  0  0  0  0  0
  -24.6236  -15.8492   20.5460 H   0  0  0  0  0  0
  -26.2371  -15.6467   20.0897 H   0  0  0  0  0  0
  -26.7480  -32.4976   23.0785 H   0  0  0  0  0  0
  -25.0070  -33.9350   25.0075 H   0  0  0  0  0  0
  -22.8263  -31.2429   21.3203 H   0  0  0  0  0  0
  -23.3772  -35.9472   23.3269 H   0  0  0  0  0  0
  -24.3559  -36.8861   22.2073 H   0  0  0  0  0  0
  -23.7235  -37.6322   23.6750 H   0  0  0  0  0  0
  -26.2767  -31.2780   20.6197 H   0  0  0  0  0  0
  -26.9351  -30.6201   22.0716 H   0  0  0  0  0  0
  -28.1733  -28.4360   21.2870 H   0  0  0  0  0  0
  -25.8465  -25.6182   19.0333 H   0  0  0  0  0  0
  -24.0198  -27.2082   18.9581 H   0  0  0  0  0  0
  -23.9278  -30.4627   19.3801 H   0  0  0  0  0  0
  -22.8589  -29.1685   19.8213 H   0  0  0  0  0  0
  -25.1347  -36.1676   25.0775 H   0  0  0  0  0  0
  -21.0048  -28.3397   24.1278 H   0  0  0  0  0  0
  -20.5662  -26.2395   23.3662 H   0  0  0  0  0  0
  -21.6663  -26.7382   22.1224 H   0  0  0  0  0  0
  -19.6932  -25.6264   21.1288 H   0  0  0  0  0  0
  -19.6723  -27.3143   20.6714 H   0  0  0  0  0  0
  -17.4228  -26.6686   21.4024 H   0  0  0  0  0  0
  -18.0352  -26.0109   22.9035 H   0  0  0  0  0  0
  -19.7981  -30.7341   24.2164 H   0  0  0  0  0  0
  -17.5047  -31.6276   24.5167 H   0  0  0  0  0  0
  -15.5383  -30.2964   23.7714 H   0  0  0  0  0  0
  -15.8715  -28.0805   22.7114 H   0  0  0  0  0  0
  -24.5877  -30.7144   25.7620 H   0  0  0  0  0  0
  -24.8851  -32.3040   26.4549 H   0  0  0  0  0  0
  -25.7870  -30.9106   27.0208 H   0  0  0  0  0  0
  -26.3226  -29.6474   24.1526 H   0  0  0  0  0  0
  -27.3956  -29.7273   25.5264 H   0  0  0  0  0  0
  -27.9199  -30.3979   24.0047 H   0  0  0  0  0  0
  -27.2593  -33.3716   26.1889 H   0  0  0  0  0  0
  -28.3962  -32.6813   25.0401 H   0  0  0  0  0  0
  -28.0609  -31.8605   26.5570 H   0  0  0  0  0  0
  -28.2556  -38.0056   24.7508 H   0  0  0  0  0  0
  -28.1085  -36.2578   24.6303 H   0  0  0  0  0  0
  -27.2277  -37.1386   25.8868 H   0  0  0  0  0  0
  -20.9692  -29.8684   21.6551 H   0  0  0  0  0  0
  -26.0104  -38.2712   24.1421 H   0  0  0  0  0  0
  -31.7608  -18.1638   21.3882 H   0  0  0  0  0  0
  -26.9935  -20.6887   20.4132 H   0  0  0  0  0  0
  -27.5156  -20.4049   18.8050 H   0  0  0  0  0  0
  -30.3497  -23.3197   20.2707 H   0  0  0  0  0  0
  -29.8198  -23.2070   21.8853 H   0  0  0  0  0  0
  -26.7547  -22.8149   19.0734 H   0  0  0  0  0  0
  -28.3797  -22.7427   18.5303 H   0  0  0  0  0  0
  -27.0985  -22.7573   22.0066 H   0  0  0  0  0  0
  -26.2312  -24.1417   21.3552 H   0  0  0  0  0  0
  -27.5738  -24.3855   22.4684 H   0  0  0  0  0  0
  -28.5915  -16.6930   20.1569 H   0  0  0  0  0  0
  1 25  1  0  0  0
  1 30  2  0  0  0
  1 80  1  0  0  0
  2  3  1  0  0  0
  2 25  1  0  0  0
  2 82  1  0  0  0
  2 83  1  0  0  0
  3  4  1  0  0  0
  3 84  1  0  0  0
  3 85  1  0  0  0
  4  5  1  0  0  0
  4 86  1  0  0  0
  4 87  1  0  0  0
  5  6  1  0  0  0
  5 26  1  0  0  0
  5 88  1  0  0  0
  6 25  1  0  0  0
  6 89  1  0  0  0
  6 90  1  0  0  0
  7  8  2  0  0  0
  7 26  1  0  0  0
  7 29  1  0  0  0
  8  9  1  0  0  0
  8 22  1  0  0  0
  9 10  1  0  0  0
  9 27  2  0  0  0
 10 11  2  0  0  0
 10 15  1  0  0  0
 11 12  1  0  0  0
 11 91  1  0  0  0
 12 13  2  0  0  0
 12 92  1  0  0  0
 13 14  1  0  0  0
 13 31  1  0  0  0
 14 15  2  0  0  0
 14 93  1  0  0  0
 15 94  1  0  0  0
 16 17  2  0  0  0
 16 21  1  0  0  0
 16 31  1  0  0  0
 17 18  1  0  0  0
 17 95  1  0  0  0
 18 19  2  0  0  0
 18 96  1  0  0  0
 19 20  1  0  0  0
 19 24  1  0  0  0
 20 21  2  0  0  0
 20 97  1  0  0  0
 21 23  1  0  0  0
 22 28  1  0  0  0
 22 32  2  0  0  0
 26 27  1  0  0  0
 28 98  1  0  0  0
 28 99  1  0  0  0
 29100  1  0  0  0
 29101  1  0  0  0
 33 34  1  0  0  0
 33 66  1  0  0  0
 33 70  2  0  0  0
 34 36  1  0  0  0
 34 59  1  0  0  0
 34102  1  0  0  0
 35 44  2  0  0  0
 35 45  1  0  0  0
 35 68  1  0  0  0
 36 56  1  0  0  0
 36103  1  0  0  0
 37 39  1  0  0  0
 37 47  1  0  0  0
 37 66  1  0  0  0
 37104  1  0  0  0
 38 43  2  0  0  0
 38 46  1  0  0  0
 38 47  1  0  0  0
 39 64  1  0  0  0
 39 67  2  0  0  0
 40 52  1  0  0  0
 40 53  2  0  0  0
 40 58  1  0  0  0
 41105  1  0  0  0
 41106  1  0  0  0
 41107  1  0  0  0
 41 48  1  0  0  0
 42 43  1  0  0  0
 42 66  1  0  0  0
 42108  1  0  0  0
 42109  1  0  0  0
 43 44  1  0  0  0
 44110  1  0  0  0
 45 46  2  0  0  0
 45111  1  0  0  0
 46112  1  0  0  0
 47113  1  0  0  0
 47114  1  0  0  0
 48 56  1  0  0  0
 48 65  1  0  0  0
 48115  1  0  0  0
 49 50  1  0  0  0
 49 53  1  0  0  0
 49 64  1  0  0  0
 49116  1  0  0  0
 50 51  1  0  0  0
 50117  1  0  0  0
 50118  1  0  0  0
 51 52  1  0  0  0
 51119  1  0  0  0
 51120  1  0  0  0
 52121  1  0  0  0
 52122  1  0  0  0
 53 54  1  0  0  0
 54 55  2  0  0  0
 54123  1  0  0  0
 55 57  1  0  0  0
 55124  1  0  0  0
 56 69  2  0  0  0
 57 58  2  0  0  0
 57125  1  0  0  0
 58126  1  0  0  0
 59 60  1  0  0  0
 59 61  1  0  0  0
 59 62  1  0  0  0
 60127  1  0  0  0
 60128  1  0  0  0
 60129  1  0  0  0
 61130  1  0  0  0
 61131  1  0  0  0
 61132  1  0  0  0
 62133  1  0  0  0
 62134  1  0  0  0
 62135  1  0  0  0
 63 65  1  0  0  0
 63136  1  0  0  0
 63137  1  0  0  0
 63138  1  0  0  0
 64139  1  0  0  0
 65140  1  0  0  0
 68 78  1  0  0  0
 71 73  2  0  0  0
 71 81  1  0  0  0
 71141  1  0  0  0
 72 73  1  0  0  0
 72 74  2  0  0  0
 72 75  1  0  0  0
 73 80  1  0  0  0
 74 76  1  0  0  0
 74 81  1  0  0  0
 75 77  1  0  0  0
 75142  1  0  0  0
 75143  1  0  0  0
 76 78  1  0  0  0
 76144  1  0  0  0
 76145  1  0  0  0
 77 78  1  0  0  0
 77146  1  0  0  0
 77147  1  0  0  0
 78 79  1  0  0  0
 79148  1  0  0  0
 79149  1  0  0  0
 79150  1  0  0  0
 80151  1  0  0  0
M  ISO  4   1 100  68 101  78 101  80 100
M  END
> <chiral flag>
0

> <version>
0

> <s_m_source_file>
/data/baiqing/PycharmProjects/Reinvent-master-3.2/result/LINK_invent/BTK/process_docking_weight1_custom_product_contain_oxygen_bond_distance_aromatic_linkinvent_7_9_3/rearranged_h_0138.sdf

> <i_m_source_file_index>
58

> <r_mmod_Potential_Energy-OPLS-2005>
2070.015625

> <r_mmod_Stretch_Energy-OPLS-2005>
845.422546386719

> <r_mmod_Bend_Energy-OPLS-2005>
676.029846191406

> <r_mmod_Torsional_Energy-OPLS-2005>
231.699096679688

> <r_mmod_Improper_Torsional_Energy-OPLS-2005>
5.56440448760986

> <r_mmod_Van_der_Waal_Energy-OPLS-2005>
109.547630310059

> <r_mmod_Electrostatic_Energy-OPLS-2005>
-377.572875976562

> <r_mmod_Solvation_Energy-OPLS-2005>
-210.674240112305

> <b_mmod_Minimization_Converged-OPLS-2005>
0

> <r_mmod_RMS_Derivative-OPLS-2005>
0.417206823825836

$$$$
58
                    3D
 Structure written by MMmdl.
161170  0  0  1  0            999 V2000
  -30.6726  -14.5855   20.5163 C   0  0  0  0  0  0
  -30.4238  -12.3648   19.4438 C   0  0  0  0  0  0
  -29.4982  -12.4962   18.2164 C   0  0  0  0  0  0
  -28.0214  -12.3441   18.6313 C   0  0  0  0  0  0
  -27.6495  -13.2178   19.8598 C   0  0  2  0  0  0
  -28.6954  -13.0802   20.9887 C   0  0  0  0  0  0
  -25.2539  -13.8177   20.5687 C   0  0  0  0  0  0
  -24.1815  -13.0437   20.9202 C   0  0  0  0  0  0
  -24.6388  -11.6911   20.8751 C   0  0  0  0  0  0
  -23.9062  -10.4291   21.0410 C   0  0  0  0  0  0
  -24.3616   -9.4205   21.9185 C   0  0  0  0  0  0
  -23.6292   -8.2240   22.0754 C   0  0  0  0  0  0
  -22.4273   -8.0279   21.3546 C   0  0  0  0  0  0
  -21.9909   -9.0252   20.4647 C   0  0  0  0  0  0
  -22.7237  -10.2132   20.3057 C   0  0  0  0  0  0
  -21.6851   -6.0733   22.5279 C   0  0  0  0  0  0
  -21.4014   -6.5638   23.8213 C   0  0  0  0  0  0
  -21.3660   -5.6791   24.9175 C   0  0  0  0  0  0
  -21.6044   -4.3053   24.7226 C   0  0  0  0  0  0
  -21.8820   -3.8145   23.4347 C   0  0  0  0  0  0
  -21.9193   -4.6961   22.3402 C   0  0  0  0  0  0
  -22.7837  -13.5227   21.1860 C   0  0  0  0  0  0
  -22.1660   -4.2148   21.0979 F   0  0  0  0  0  0
  -21.5631   -3.4537   25.7737 F   0  0  0  0  0  0
  -30.0107  -13.3946   20.4146 N   0  0  0  0  0  0
  -26.2968  -12.9361   20.3317 N   0  0  0  0  0  0
  -25.9316  -11.6516   20.5767 N   0  0  0  0  0  0
  -22.0480  -12.8220   22.0417 N   0  0  0  0  0  0
  -25.4231  -15.1899   20.4078 N   0  0  0  0  0  0
  -31.8472  -14.6979   20.1547 O   0  0  0  0  0  0
  -21.6639   -6.8876   21.4240 O   0  0  0  0  0  0
  -22.3525  -14.5534   20.6707 O   0  0  0  0  0  0
  -24.6209  -31.8634   23.2058 C   0  0  0  0  0  0
  -25.9076  -32.4800   23.8376 C   0  0  1  0  0  0
  -27.2282  -27.3731   20.1142 C   0  0  0  0  0  0
  -25.5909  -33.8600   24.2306 N   0  0  0  0  0  0
  -23.4135  -30.4858   21.5467 C   0  0  2  0  0  0
  -24.8631  -28.9438   20.1147 C   0  0  0  0  0  0
  -22.7449  -29.4638   22.4957 C   0  0  0  0  0  0
  -18.0280  -28.1385   22.8490 C   0  0  0  0  0  0
  -24.1488  -36.7306   23.2639 C   0  0  0  0  0  0
  -25.9489  -30.8100   21.3699 C   0  0  0  0  0  0
  -26.0273  -29.4388   20.7188 C   0  0  0  0  0  0
  -27.2173  -28.6611   20.7163 C   0  0  0  0  0  0
  -26.0505  -26.9101   19.4974 C   0  0  0  0  0  0
  -24.8722  -27.6809   19.4984 C   0  0  0  0  0  0
  -23.6277  -29.8181   20.1623 C   0  0  0  0  0  0
  -25.4110  -36.3099   24.0334 C   0  0  1  0  0  0
  -20.5877  -28.3682   23.1297 C   0  0  2  0  0  0
  -20.6771  -26.9411   22.5414 C   0  0  0  0  0  0
  -19.5747  -26.6387   21.5214 C   0  0  0  0  0  0
  -18.1926  -26.7929   22.1626 C   0  0  0  0  0  0
  -19.1531  -28.8849   23.2890 C   0  0  0  0  0  0
  -18.9456  -30.1453   23.8904 C   0  0  0  0  0  0
  -17.6458  -30.6588   24.0566 C   0  0  0  0  0  0
  -25.9041  -34.9465   23.5119 C   0  0  0  0  0  0
  -16.5349  -29.9089   23.6329 C   0  0  0  0  0  0
  -16.7268  -28.6507   23.0349 C   0  0  0  0  0  0
  -26.4483  -31.6591   25.0723 C   0  0  0  0  0  0
  -25.3737  -31.3709   26.1463 C   0  0  0  0  0  0
  -27.0316  -30.3022   24.6134 C   0  0  0  0  0  0
  -27.6052  -32.4316   25.7488 C   0  0  0  0  0  0
  -27.5579  -37.1809   24.8466 C   0  0  0  0  0  0
  -21.4168  -29.3040   22.3696 N   0  0  0  0  0  0
  -26.4294  -37.3786   23.9406 N   0  0  0  0  0  0
  -24.6794  -31.0685   22.0986 N   0  0  0  0  0  0
  -23.4190  -28.8179   23.3023 O   0  0  0  0  0  0
  -28.3271  -26.5276   20.1022 O   0  0  0  0  0  0
  -26.5608  -34.8922   22.4684 O   0  0  0  0  0  0
  -23.5383  -32.1410   23.7413 O   0  0  0  0  0  0
  -32.0623  -18.6297   21.8146 C   0  0  0  0  0  0
  -31.3320  -19.7268   21.3198 C   0  0  0  0  0  0
  -31.5915  -17.3155   21.6419 C   0  0  0  0  0  0
  -29.6154  -18.1945   20.5131 C   0  0  0  0  0  0
  -30.0918  -19.5426   20.6697 C   0  0  0  0  0  0
  -30.3724  -17.0612   20.9709 C   0  0  0  0  0  0
  -28.6537  -24.2857   21.1572 C   0  0  0  0  0  0
  -28.4248  -25.6366   21.1617 C   0  0  0  0  0  0
  -29.4257  -20.7431   20.0552 C   0  0  0  0  0  0
  -28.7991  -23.5143   22.4496 C   0  0  0  0  0  0
  -29.4707  -22.1819   22.0967 C   0  0  0  0  0  0
  -28.8528  -23.2852   20.0023 C   0  0  1  0  0  0
  -29.8967  -23.7959   18.9950 C   0  0  0  0  0  0
  -29.2713  -21.9804   20.6483 N   0  0  0  0  0  0
  -29.9198  -15.6894   20.8037 N   0  0  0  0  0  0
  -28.9936  -20.6064   18.8049 N   0  3  0  0  0  0
  -31.4674  -12.4679   19.1416 H   0  0  0  0  0  0
  -30.3384  -11.3717   19.8879 H   0  0  0  0  0  0
  -29.7547  -11.7453   17.4680 H   0  0  0  0  0  0
  -29.6490  -13.4666   17.7402 H   0  0  0  0  0  0
  -27.8527  -11.2917   18.8625 H   0  0  0  0  0  0
  -27.3667  -12.5775   17.7908 H   0  0  0  0  0  0
  -27.6660  -14.2516   19.5150 H   0  0  0  0  0  0
  -28.6965  -12.0665   21.3923 H   0  0  0  0  0  0
  -28.4541  -13.7364   21.8266 H   0  0  0  0  0  0
  -25.2762   -9.5680   22.4759 H   0  0  0  0  0  0
  -24.0002   -7.4631   22.7472 H   0  0  0  0  0  0
  -21.0842   -8.8770   19.8952 H   0  0  0  0  0  0
  -22.3696  -10.9670   19.6167 H   0  0  0  0  0  0
  -21.2005   -7.6146   23.9716 H   0  0  0  0  0  0
  -21.1483   -6.0521   25.9078 H   0  0  0  0  0  0
  -22.0599   -2.7607   23.2847 H   0  0  0  0  0  0
  -22.4093  -11.9877   22.4800 H   0  0  0  0  0  0
  -21.1098  -13.1245   22.2624 H   0  0  0  0  0  0
  -24.6508  -15.8395   20.5100 H   0  0  0  0  0  0
  -26.2614  -15.6290   20.0503 H   0  0  0  0  0  0
  -26.7147  -32.5496   23.1135 H   0  0  0  0  0  0
  -25.0059  -33.9755   25.0451 H   0  0  0  0  0  0
  -22.7052  -31.3045   21.4038 H   0  0  0  0  0  0
  -23.3745  -35.9644   23.3313 H   0  0  0  0  0  0
  -24.3579  -36.8911   22.2051 H   0  0  0  0  0  0
  -23.7247  -37.6515   23.6649 H   0  0  0  0  0  0
  -26.0698  -31.5726   20.5993 H   0  0  0  0  0  0
  -26.8332  -30.8641   21.9932 H   0  0  0  0  0  0
  -28.1154  -29.0338   21.1888 H   0  0  0  0  0  0
  -26.0444  -25.9361   19.0289 H   0  0  0  0  0  0
  -23.9788  -27.2939   19.0278 H   0  0  0  0  0  0
  -23.7428  -30.5934   19.4039 H   0  0  0  0  0  0
  -22.7500  -29.2429   19.8621 H   0  0  0  0  0  0
  -25.1290  -36.1961   25.0827 H   0  0  0  0  0  0
  -20.9969  -28.3255   24.1418 H   0  0  0  0  0  0
  -20.5678  -26.2292   23.3608 H   0  0  0  0  0  0
  -21.6640  -26.7450   22.1204 H   0  0  0  0  0  0
  -19.6910  -25.6300   21.1241 H   0  0  0  0  0  0
  -19.6685  -27.3202   20.6747 H   0  0  0  0  0  0
  -17.4197  -26.6677   21.4028 H   0  0  0  0  0  0
  -18.0327  -26.0071   22.9022 H   0  0  0  0  0  0
  -19.7931  -30.7268   24.2278 H   0  0  0  0  0  0
  -17.5012  -31.6269   24.5166 H   0  0  0  0  0  0
  -15.5350  -30.2995   23.7648 H   0  0  0  0  0  0
  -15.8668  -28.0831   22.7059 H   0  0  0  0  0  0
  -24.5903  -30.7067   25.7794 H   0  0  0  0  0  0
  -24.8938  -32.2869   26.4919 H   0  0  0  0  0  0
  -25.8079  -30.8865   27.0218 H   0  0  0  0  0  0
  -26.2870  -29.6783   24.1174 H   0  0  0  0  0  0
  -27.4049  -29.7263   25.4611 H   0  0  0  0  0  0
  -27.8725  -30.4322   23.9318 H   0  0  0  0  0  0
  -27.2669  -33.3612   26.2078 H   0  0  0  0  0  0
  -28.3856  -32.6883   25.0312 H   0  0  0  0  0  0
  -28.0727  -31.8434   26.5394 H   0  0  0  0  0  0
  -28.2605  -38.0099   24.7504 H   0  0  0  0  0  0
  -28.1068  -36.2630   24.6303 H   0  0  0  0  0  0
  -27.2297  -37.1473   25.8869 H   0  0  0  0  0  0
  -20.9339  -29.8765   21.6913 H   0  0  0  0  0  0
  -26.0182  -38.2865   24.1400 H   0  0  0  0  0  0
  -33.0083  -18.7939   22.3114 H   0  0  0  0  0  0
  -31.7601  -20.7146   21.4117 H   0  0  0  0  0  0
  -32.1882  -16.5025   22.0303 H   0  0  0  0  0  0
  -28.6783  -18.0306   19.9995 H   0  0  0  0  0  0
  -28.3188  -26.1639   22.1002 H   0  0  0  0  0  0
  -27.8142  -23.3385   22.8833 H   0  0  0  0  0  0
  -29.3880  -24.0784   23.1738 H   0  0  0  0  0  0
  -29.0528  -21.3646   22.6878 H   0  0  0  0  0  0
  -30.5354  -22.2462   22.3202 H   0  0  0  0  0  0
  -27.8889  -23.1508   19.5086 H   0  0  0  0  0  0
  -30.8731  -23.9170   19.4645 H   0  0  0  0  0  0
  -29.6060  -24.7634   18.5855 H   0  0  0  0  0  0
  -30.0144  -23.1171   18.1513 H   0  0  0  0  0  0
  -28.9276  -15.5297   20.8788 H   0  0  0  0  0  0
  -29.1656  -19.7389   18.3202 H   0  0  0  0  0  0
  -28.5019  -21.3388   18.3241 H   0  0  0  0  0  0
  1 25  1  0  0  0
  1 30  2  0  0  0
  1 85  1  0  0  0
  2  3  1  0  0  0
  2 25  1  0  0  0
  2 87  1  0  0  0
  2 88  1  0  0  0
  3  4  1  0  0  0
  3 89  1  0  0  0
  3 90  1  0  0  0
  4  5  1  0  0  0
  4 91  1  0  0  0
  4 92  1  0  0  0
  5  6  1  0  0  0
  5 26  1  0  0  0
  5 93  1  0  0  0
  6 25  1  0  0  0
  6 94  1  0  0  0
  6 95  1  0  0  0
  7  8  2  0  0  0
  7 26  1  0  0  0
  7 29  1  0  0  0
  8  9  1  0  0  0
  8 22  1  0  0  0
  9 10  1  0  0  0
  9 27  2  0  0  0
 10 11  2  0  0  0
 10 15  1  0  0  0
 11 12  1  0  0  0
 11 96  1  0  0  0
 12 13  2  0  0  0
 12 97  1  0  0  0
 13 14  1  0  0  0
 13 31  1  0  0  0
 14 15  2  0  0  0
 14 98  1  0  0  0
 15 99  1  0  0  0
 16 17  2  0  0  0
 16 21  1  0  0  0
 16 31  1  0  0  0
 17 18  1  0  0  0
 17100  1  0  0  0
 18 19  2  0  0  0
 18101  1  0  0  0
 19 20  1  0  0  0
 19 24  1  0  0  0
 20 21  2  0  0  0
 20102  1  0  0  0
 21 23  1  0  0  0
 22 28  1  0  0  0
 22 32  2  0  0  0
 26 27  1  0  0  0
 28103  1  0  0  0
 28104  1  0  0  0
 29105  1  0  0  0
 29106  1  0  0  0
 33 34  1  0  0  0
 33 66  1  0  0  0
 33 70  2  0  0  0
 34 36  1  0  0  0
 34 59  1  0  0  0
 34107  1  0  0  0
 35 44  2  0  0  0
 35 45  1  0  0  0
 35 68  1  0  0  0
 36 56  1  0  0  0
 36108  1  0  0  0
 37 39  1  0  0  0
 37 47  1  0  0  0
 37 66  1  0  0  0
 37109  1  0  0  0
 38 43  2  0  0  0
 38 46  1  0  0  0
 38 47  1  0  0  0
 39 64  1  0  0  0
 39 67  2  0  0  0
 40 52  1  0  0  0
 40 53  2  0  0  0
 40 58  1  0  0  0
 41110  1  0  0  0
 41111  1  0  0  0
 41112  1  0  0  0
 41 48  1  0  0  0
 42 43  1  0  0  0
 42 66  1  0  0  0
 42113  1  0  0  0
 42114  1  0  0  0
 43 44  1  0  0  0
 44115  1  0  0  0
 45 46  2  0  0  0
 45116  1  0  0  0
 46117  1  0  0  0
 47118  1  0  0  0
 47119  1  0  0  0
 48 56  1  0  0  0
 48 65  1  0  0  0
 48120  1  0  0  0
 49 50  1  0  0  0
 49 53  1  0  0  0
 49 64  1  0  0  0
 49121  1  0  0  0
 50 51  1  0  0  0
 50122  1  0  0  0
 50123  1  0  0  0
 51 52  1  0  0  0
 51124  1  0  0  0
 51125  1  0  0  0
 52126  1  0  0  0
 52127  1  0  0  0
 53 54  1  0  0  0
 54 55  2  0  0  0
 54128  1  0  0  0
 55 57  1  0  0  0
 55129  1  0  0  0
 56 69  2  0  0  0
 57 58  2  0  0  0
 57130  1  0  0  0
 58131  1  0  0  0
 59 60  1  0  0  0
 59 61  1  0  0  0
 59 62  1  0  0  0
 60132  1  0  0  0
 60133  1  0  0  0
 60134  1  0  0  0
 61135  1  0  0  0
 61136  1  0  0  0
 61137  1  0  0  0
 62138  1  0  0  0
 62139  1  0  0  0
 62140  1  0  0  0
 63 65  1  0  0  0
 63141  1  0  0  0
 63142  1  0  0  0
 63143  1  0  0  0
 64144  1  0  0  0
 65145  1  0  0  0
 68 78  1  0  0  0
 71 72  2  0  0  0
 71 73  1  0  0  0
 71146  1  0  0  0
 72 75  1  0  0  0
 72147  1  0  0  0
 73 76  2  0  0  0
 73148  1  0  0  0
 74 75  2  0  0  0
 74 76  1  0  0  0
 74149  1  0  0  0
 75 79  1  0  0  0
 76 85  1  0  0  0
 77 78  2  0  0  0
 77 80  1  0  0  0
 77 82  1  0  0  0
 78150  1  0  0  0
 79 84  1  0  0  0
 79 86  2  0  0  0
 80 81  1  0  0  0
 80151  1  0  0  0
 80152  1  0  0  0
 81 84  1  0  0  0
 81153  1  0  0  0
 81154  1  0  0  0
 82 83  1  0  0  0
 82 84  1  0  0  0
 82155  1  0  0  0
 83156  1  0  0  0
 83157  1  0  0  0
 83158  1  0  0  0
 85159  1  0  0  0
 86160  1  0  0  0
 86161  1  0  0  0
M  CHG  1  86   1
M  ISO  4   1 100  68 101  78 101  85 100
M  END
> <chiral flag>
0

> <version>
0

> <s_m_source_file>
/data/baiqing/PycharmProjects/Reinvent-master-3.2/result/LINK_invent/BTK/process_docking_weight1_custom_product_contain_oxygen_bond_distance_aromatic_linkinvent_7_9_3/rearranged_h_0138.sdf

> <i_m_source_file_index>
59

> <r_mmod_Potential_Energy-OPLS-2005>
-119.808502197266

> <r_mmod_Stretch_Energy-OPLS-2005>
61.1223754882812

> <r_mmod_Bend_Energy-OPLS-2005>
139.143157958984

> <r_mmod_Torsional_Energy-OPLS-2005>
274.998809814453

> <r_mmod_Improper_Torsional_Energy-OPLS-2005>
6.04233503341675

> <r_mmod_Van_der_Waal_Energy-OPLS-2005>
142.365493774414

> <r_mmod_Electrostatic_Energy-OPLS-2005>
-390.616790771484

> <r_mmod_Solvation_Energy-OPLS-2005>
-386.337188720703

> <b_mmod_Minimization_Converged-OPLS-2005>
0

> <r_mmod_RMS_Derivative-OPLS-2005>
0.303596407175064

$$$$
59
                    3D
 Structure written by MMmdl.
168176  0  0  1  0            999 V2000
  -30.6112  -14.7053   20.4990 C   0  0  0  0  0  0
  -30.4441  -12.4279   19.4934 C   0  0  0  0  0  0
  -29.5339  -12.5233   18.2458 C   0  0  0  0  0  0
  -28.0502  -12.3671   18.6335 C   0  0  0  0  0  0
  -27.6554  -13.2270   19.8661 C   0  0  2  0  0  0
  -28.6928  -13.1094   21.0060 C   0  0  0  0  0  0
  -25.2545  -13.8183   20.5620 C   0  0  0  0  0  0
  -24.1818  -13.0439   20.9153 C   0  0  0  0  0  0
  -24.6412  -11.6914   20.8712 C   0  0  0  0  0  0
  -23.9080  -10.4286   21.0383 C   0  0  0  0  0  0
  -24.3617   -9.4211   21.9178 C   0  0  0  0  0  0
  -23.6280   -8.2243   22.0740 C   0  0  0  0  0  0
  -22.4262   -8.0279   21.3515 C   0  0  0  0  0  0
  -21.9921   -9.0266   20.4635 C   0  0  0  0  0  0
  -22.7250  -10.2141   20.3043 C   0  0  0  0  0  0
  -21.6848   -6.0742   22.5257 C   0  0  0  0  0  0
  -21.4000   -6.5637   23.8208 C   0  0  0  0  0  0
  -21.3648   -5.6775   24.9168 C   0  0  0  0  0  0
  -21.6065   -4.3044   24.7203 C   0  0  0  0  0  0
  -21.8827   -3.8149   23.4317 C   0  0  0  0  0  0
  -21.9182   -4.6964   22.3377 C   0  0  0  0  0  0
  -22.7828  -13.5238   21.1813 C   0  0  0  0  0  0
  -22.1647   -4.2136   21.0952 F   0  0  0  0  0  0
  -21.5650   -3.4526   25.7718 F   0  0  0  0  0  0
  -30.0065  -13.4686   20.4541 N   0  0  0  0  0  0
  -26.2995  -12.9383   20.3294 N   0  0  0  0  0  0
  -25.9351  -11.6534   20.5721 N   0  0  0  0  0  0
  -22.0421  -12.8270   22.0374 N   0  0  0  0  0  0
  -25.4336  -15.1891   20.3955 N   0  0  0  0  0  0
  -31.7563  -14.8476   20.0588 O   0  0  0  0  0  0
  -21.6614   -6.8876   21.4227 O   0  0  0  0  0  0
  -22.3526  -14.5557   20.6678 O   0  0  0  0  0  0
  -24.6346  -31.8516   23.1960 C   0  0  0  0  0  0
  -25.9163  -32.4730   23.8311 C   0  0  1  0  0  0
  -27.2190  -27.2498   20.1218 C   0  0  0  0  0  0
  -25.5942  -33.8529   24.2228 N   0  0  0  0  0  0
  -23.4312  -30.4767   21.5398 C   0  0  2  0  0  0
  -24.8769  -28.9273   20.1043 C   0  0  0  0  0  0
  -22.7527  -29.4573   22.4883 C   0  0  0  0  0  0
  -18.0285  -28.1393   22.8482 C   0  0  0  0  0  0
  -24.1479  -36.7270   23.2639 C   0  0  0  0  0  0
  -25.9794  -30.7626   21.3776 C   0  0  0  0  0  0
  -26.0500  -29.3859   20.7173 C   0  0  0  0  0  0
  -27.2230  -28.5610   20.7133 C   0  0  0  0  0  0
  -26.0182  -26.8666   19.4772 C   0  0  0  0  0  0
  -24.8699  -27.6773   19.4701 C   0  0  0  0  0  0
  -23.6492  -29.8142   20.1550 C   0  0  0  0  0  0
  -25.4106  -36.3050   24.0324 C   0  0  1  0  0  0
  -20.5911  -28.3688   23.1276 C   0  0  2  0  0  0
  -20.6784  -26.9408   22.5416 C   0  0  0  0  0  0
  -19.5752  -26.6379   21.5226 C   0  0  0  0  0  0
  -18.1928  -26.7931   22.1627 C   0  0  0  0  0  0
  -19.1548  -28.8850   23.2864 C   0  0  0  0  0  0
  -18.9468  -30.1464   23.8872 C   0  0  0  0  0  0
  -17.6473  -30.6592   24.0559 C   0  0  0  0  0  0
  -25.9056  -34.9424   23.5073 C   0  0  0  0  0  0
  -16.5349  -29.9097   23.6350 C   0  0  0  0  0  0
  -16.7283  -28.6513   23.0357 C   0  0  0  0  0  0
  -26.4515  -31.6561   25.0708 C   0  0  0  0  0  0
  -25.3738  -31.3744   26.1431 C   0  0  0  0  0  0
  -27.0362  -30.2971   24.6211 C   0  0  0  0  0  0
  -27.6039  -32.4315   25.7511 C   0  0  0  0  0  0
  -27.5572  -37.1784   24.8459 C   0  0  0  0  0  0
  -21.4222  -29.3025   22.3653 N   0  0  0  0  0  0
  -26.4263  -37.3766   23.9422 N   0  0  0  0  0  0
  -24.7012  -31.0492   22.0936 N   0  0  0  0  0  0
  -23.4214  -28.8109   23.2974 O   0  0  0  0  0  0
  -28.3069  -26.3403   20.1902 O   0  0  0  0  0  0
  -26.5638  -34.8920   22.4651 O   0  0  0  0  0  0
  -23.5499  -32.1319   23.7265 O   0  0  0  0  0  0
  -28.8987  -16.9338   19.0289 C   0  0  0  0  0  0
  -28.4976  -19.3528   18.8794 C   0  0  0  0  0  0
  -29.6960  -18.4177   20.7773 C   0  0  0  0  0  0
  -28.3469  -18.0443   18.3542 C   0  0  0  0  0  0
  -29.5660  -17.0613   20.2608 C   0  0  0  0  0  0
  -29.1802  -19.6032   20.0955 C   0  0  0  0  0  0
  -27.6252  -17.7953   17.0736 C   0  0  0  0  0  0
  -26.6751  -18.8723   16.5601 C   0  0  0  0  0  0
  -32.1892  -23.2488   21.3214 C   0  0  0  0  0  0
  -32.7389  -23.2717   18.8519 C   0  0  0  0  0  0
  -30.4297  -23.9994   19.6107 C   0  0  0  0  0  0
  -28.0527  -24.8672   19.9697 C   0  0  0  0  0  0
  -28.6459  -22.1420   20.0009 C   0  0  0  0  0  0
  -31.6334  -23.0696   19.8993 C   0  0  0  0  0  0
  -29.1022  -23.6777   20.3370 C   0  0  1  0  0  0
  -29.8870  -15.7942   20.9575 N   0  0  0  0  0  0
  -27.7308  -16.7478   16.4307 O   0  0  0  0  0  0
  -29.3328  -20.9387   20.5932 O   0  0  0  0  0  0
  -31.4954  -12.5342   19.2158 H   0  0  0  0  0  0
  -30.3664  -11.4400   19.9511 H   0  0  0  0  0  0
  -29.8230  -11.7673   17.5153 H   0  0  0  0  0  0
  -29.6821  -13.4885   17.7583 H   0  0  0  0  0  0
  -27.8682  -11.3130   18.8433 H   0  0  0  0  0  0
  -27.4159  -12.6206   17.7813 H   0  0  0  0  0  0
  -27.6629  -14.2611   19.5296 H   0  0  0  0  0  0
  -28.7075  -12.0921   21.4009 H   0  0  0  0  0  0
  -28.4236  -13.7531   21.8445 H   0  0  0  0  0  0
  -25.2759   -9.5706   22.4751 H   0  0  0  0  0  0
  -24.0012   -7.4652   22.7473 H   0  0  0  0  0  0
  -21.0847   -8.8789   19.8938 H   0  0  0  0  0  0
  -22.3723  -10.9674   19.6136 H   0  0  0  0  0  0
  -21.1989   -7.6142   23.9714 H   0  0  0  0  0  0
  -21.1465   -6.0482   25.9069 H   0  0  0  0  0  0
  -22.0625   -2.7612   23.2785 H   0  0  0  0  0  0
  -22.3989  -11.9920   22.4772 H   0  0  0  0  0  0
  -21.1048  -13.1359   22.2543 H   0  0  0  0  0  0
  -24.6803  -15.8587   20.5035 H   0  0  0  0  0  0
  -26.2924  -15.6102   20.0635 H   0  0  0  0  0  0
  -26.7219  -32.5365   23.1039 H   0  0  0  0  0  0
  -25.0102  -33.9639   25.0390 H   0  0  0  0  0  0
  -22.7278  -31.2992   21.3964 H   0  0  0  0  0  0
  -23.3748  -35.9594   23.3277 H   0  0  0  0  0  0
  -24.3575  -36.8929   22.2060 H   0  0  0  0  0  0
  -23.7217  -37.6455   23.6682 H   0  0  0  0  0  0
  -26.1246  -31.5228   20.6090 H   0  0  0  0  0  0
  -26.8562  -30.8062   22.0125 H   0  0  0  0  0  0
  -28.1214  -28.9073   21.2047 H   0  0  0  0  0  0
  -25.9311  -25.9128   18.9791 H   0  0  0  0  0  0
  -23.9761  -27.3242   18.9726 H   0  0  0  0  0  0
  -23.7707  -30.5888   19.3974 H   0  0  0  0  0  0
  -22.7682  -29.2458   19.8517 H   0  0  0  0  0  0
  -25.1296  -36.1875   25.0816 H   0  0  0  0  0  0
  -20.9999  -28.3258   24.1396 H   0  0  0  0  0  0
  -20.5718  -26.2285   23.3611 H   0  0  0  0  0  0
  -21.6649  -26.7442   22.1192 H   0  0  0  0  0  0
  -19.6913  -25.6285   21.1266 H   0  0  0  0  0  0
  -19.6714  -27.3190   20.6758 H   0  0  0  0  0  0
  -17.4218  -26.6690   21.4004 H   0  0  0  0  0  0
  -18.0302  -26.0077   22.9025 H   0  0  0  0  0  0
  -19.7938  -30.7288   24.2220 H   0  0  0  0  0  0
  -17.5027  -31.6276   24.5154 H   0  0  0  0  0  0
  -15.5359  -30.2994   23.7678 H   0  0  0  0  0  0
  -15.8675  -28.0845   22.7075 H   0  0  0  0  0  0
  -24.5876  -30.7125   25.7778 H   0  0  0  0  0  0
  -24.8966  -32.2934   26.4836 H   0  0  0  0  0  0
  -25.8059  -30.8928   27.0210 H   0  0  0  0  0  0
  -26.2943  -29.6712   24.1232 H   0  0  0  0  0  0
  -27.4028  -29.7242   25.4737 H   0  0  0  0  0  0
  -27.8835  -30.4238   23.9469 H   0  0  0  0  0  0
  -27.2607  -33.3621   26.2046 H   0  0  0  0  0  0
  -28.3889  -32.6867   25.0380 H   0  0  0  0  0  0
  -28.0650  -31.8456   26.5471 H   0  0  0  0  0  0
  -28.2568  -38.0105   24.7549 H   0  0  0  0  0  0
  -28.1089  -36.2636   24.6232 H   0  0  0  0  0  0
  -27.2304  -37.1380   25.8864 H   0  0  0  0  0  0
  -20.9400  -29.8758   21.6883 H   0  0  0  0  0  0
  -26.0136  -38.2834   24.1441 H   0  0  0  0  0  0
  -28.7650  -15.9486   18.6100 H   0  0  0  0  0  0
  -28.0800  -20.1709   18.3146 H   0  0  0  0  0  0
  -30.1859  -18.5526   21.7297 H   0  0  0  0  0  0
  -26.0912  -19.2992   17.3762 H   0  0  0  0  0  0
  -25.9814  -18.4392   15.8404 H   0  0  0  0  0  0
  -27.2363  -19.6661   16.0680 H   0  0  0  0  0  0
  -33.1069  -22.6765   21.4607 H   0  0  0  0  0  0
  -31.4789  -22.8993   22.0704 H   0  0  0  0  0  0
  -32.4130  -24.2944   21.5377 H   0  0  0  0  0  0
  -33.5873  -22.6149   19.0450 H   0  0  0  0  0  0
  -33.1030  -24.3000   18.8344 H   0  0  0  0  0  0
  -32.3776  -23.0286   17.8513 H   0  0  0  0  0  0
  -30.2203  -23.9886   18.5401 H   0  0  0  0  0  0
  -30.7176  -25.0292   19.8324 H   0  0  0  0  0  0
  -27.1318  -24.6157   20.4953 H   0  0  0  0  0  0
  -27.8229  -24.7553   18.9101 H   0  0  0  0  0  0
  -28.6753  -22.0694   18.9126 H   0  0  0  0  0  0
  -27.5960  -22.0399   20.2774 H   0  0  0  0  0  0
  -31.3270  -22.0298   19.7913 H   0  0  0  0  0  0
  -29.2638  -23.7481   21.4128 H   0  0  0  0  0  0
  -29.1381  -15.4916   21.5609 H   0  0  0  0  0  0
  1 25  1  0  0  0
  1 30  2  0  0  0
  1 86  1  0  0  0
  2  3  1  0  0  0
  2 25  1  0  0  0
  2 89  1  0  0  0
  2 90  1  0  0  0
  3  4  1  0  0  0
  3 91  1  0  0  0
  3 92  1  0  0  0
  4  5  1  0  0  0
  4 93  1  0  0  0
  4 94  1  0  0  0
  5  6  1  0  0  0
  5 26  1  0  0  0
  5 95  1  0  0  0
  6 25  1  0  0  0
  6 96  1  0  0  0
  6 97  1  0  0  0
  7  8  2  0  0  0
  7 26  1  0  0  0
  7 29  1  0  0  0
  8  9  1  0  0  0
  8 22  1  0  0  0
  9 10  1  0  0  0
  9 27  2  0  0  0
 10 11  2  0  0  0
 10 15  1  0  0  0
 11 12  1  0  0  0
 11 98  1  0  0  0
 12 13  2  0  0  0
 12 99  1  0  0  0
 13 14  1  0  0  0
 13 31  1  0  0  0
 14 15  2  0  0  0
 14100  1  0  0  0
 15101  1  0  0  0
 16 17  2  0  0  0
 16 21  1  0  0  0
 16 31  1  0  0  0
 17 18  1  0  0  0
 17102  1  0  0  0
 18 19  2  0  0  0
 18103  1  0  0  0
 19 20  1  0  0  0
 19 24  1  0  0  0
 20 21  2  0  0  0
 20104  1  0  0  0
 21 23  1  0  0  0
 22 28  1  0  0  0
 22 32  2  0  0  0
 26 27  1  0  0  0
 28105  1  0  0  0
 28106  1  0  0  0
 29107  1  0  0  0
 29108  1  0  0  0
 33 34  1  0  0  0
 33 66  1  0  0  0
 33 70  2  0  0  0
 34 36  1  0  0  0
 34 59  1  0  0  0
 34109  1  0  0  0
 35 44  2  0  0  0
 35 45  1  0  0  0
 35 68  1  0  0  0
 36 56  1  0  0  0
 36110  1  0  0  0
 37 39  1  0  0  0
 37 47  1  0  0  0
 37 66  1  0  0  0
 37111  1  0  0  0
 38 43  2  0  0  0
 38 46  1  0  0  0
 38 47  1  0  0  0
 39 64  1  0  0  0
 39 67  2  0  0  0
 40 52  1  0  0  0
 40 53  2  0  0  0
 40 58  1  0  0  0
 41112  1  0  0  0
 41113  1  0  0  0
 41114  1  0  0  0
 41 48  1  0  0  0
 42 43  1  0  0  0
 42 66  1  0  0  0
 42115  1  0  0  0
 42116  1  0  0  0
 43 44  1  0  0  0
 44117  1  0  0  0
 45 46  2  0  0  0
 45118  1  0  0  0
 46119  1  0  0  0
 47120  1  0  0  0
 47121  1  0  0  0
 48 56  1  0  0  0
 48 65  1  0  0  0
 48122  1  0  0  0
 49 50  1  0  0  0
 49 53  1  0  0  0
 49 64  1  0  0  0
 49123  1  0  0  0
 50 51  1  0  0  0
 50124  1  0  0  0
 50125  1  0  0  0
 51 52  1  0  0  0
 51126  1  0  0  0
 51127  1  0  0  0
 52128  1  0  0  0
 52129  1  0  0  0
 53 54  1  0  0  0
 54 55  2  0  0  0
 54130  1  0  0  0
 55 57  1  0  0  0
 55131  1  0  0  0
 56 69  2  0  0  0
 57 58  2  0  0  0
 57132  1  0  0  0
 58133  1  0  0  0
 59 60  1  0  0  0
 59 61  1  0  0  0
 59 62  1  0  0  0
 60134  1  0  0  0
 60135  1  0  0  0
 60136  1  0  0  0
 61137  1  0  0  0
 61138  1  0  0  0
 61139  1  0  0  0
 62140  1  0  0  0
 62141  1  0  0  0
 62142  1  0  0  0
 63 65  1  0  0  0
 63143  1  0  0  0
 63144  1  0  0  0
 63145  1  0  0  0
 64146  1  0  0  0
 65147  1  0  0  0
 68 82  1  0  0  0
 71 74  2  0  0  0
 71 75  1  0  0  0
 71148  1  0  0  0
 72 74  1  0  0  0
 72 76  2  0  0  0
 72149  1  0  0  0
 73 75  2  0  0  0
 73 76  1  0  0  0
 73150  1  0  0  0
 74 77  1  0  0  0
 75 86  1  0  0  0
 76 88  1  0  0  0
 77 78  1  0  0  0
 77 87  2  0  0  0
 78151  1  0  0  0
 78152  1  0  0  0
 78153  1  0  0  0
 79154  1  0  0  0
 79155  1  0  0  0
 79156  1  0  0  0
 79 84  1  0  0  0
 80 84  1  0  0  0
 80157  1  0  0  0
 80158  1  0  0  0
 80159  1  0  0  0
 81 84  1  0  0  0
 81160  1  0  0  0
 81161  1  0  0  0
 81 85  1  0  0  0
 82 85  1  0  0  0
 82162  1  0  0  0
 82163  1  0  0  0
 83 85  1  0  0  0
 83 88  1  0  0  0
 83164  1  0  0  0
 83165  1  0  0  0
 84166  1  0  0  0
 85167  1  0  0  0
 86168  1  0  0  0
M  ISO  4   1 100  68 101  82 101  86 100
M  END
> <chiral flag>
0

> <version>
0

> <s_m_source_file>
/data/baiqing/PycharmProjects/Reinvent-master-3.2/result/LINK_invent/BTK/process_docking_weight1_custom_product_contain_oxygen_bond_distance_aromatic_linkinvent_7_9_3/rearranged_h_0138.sdf

> <i_m_source_file_index>
60

> <r_mmod_Potential_Energy-OPLS-2005>
209.819244384766

> <r_mmod_Stretch_Energy-OPLS-2005>
135.898834228516

> <r_mmod_Bend_Energy-OPLS-2005>
182.093811035156

> <r_mmod_Torsional_Energy-OPLS-2005>
283.747772216797

> <r_mmod_Improper_Torsional_Energy-OPLS-2005>
6.25601291656494

> <r_mmod_Van_der_Waal_Energy-OPLS-2005>
139.080474853516

> <r_mmod_Electrostatic_Energy-OPLS-2005>
-393.651916503906

> <r_mmod_Solvation_Energy-OPLS-2005>
-222.320190429688

> <b_mmod_Minimization_Converged-OPLS-2005>
0

> <r_mmod_RMS_Derivative-OPLS-2005>
4.30123138427734

$$$$
60
                    3D
 Structure written by MMmdl.
171180  0  0  1  0            999 V2000
  -30.7113  -14.4964   20.5504 C   0  0  0  0  0  0
  -30.4182  -12.3184   19.4149 C   0  0  0  0  0  0
  -29.4924  -12.5106   18.1962 C   0  0  0  0  0  0
  -28.0137  -12.3712   18.6105 C   0  0  0  0  0  0
  -27.6584  -13.2130   19.8646 C   0  0  2  0  0  0
  -28.7064  -13.0212   20.9861 C   0  0  0  0  0  0
  -25.2596  -13.8168   20.5663 C   0  0  0  0  0  0
  -24.1854  -13.0424   20.9165 C   0  0  0  0  0  0
  -24.6405  -11.6896   20.8716 C   0  0  0  0  0  0
  -23.9058  -10.4280   21.0386 C   0  0  0  0  0  0
  -24.3611   -9.4201   21.9168 C   0  0  0  0  0  0
  -23.6294   -8.2238   22.0745 C   0  0  0  0  0  0
  -22.4278   -8.0277   21.3539 C   0  0  0  0  0  0
  -21.9905   -9.0236   20.4631 C   0  0  0  0  0  0
  -22.7226  -10.2121   20.3037 C   0  0  0  0  0  0
  -21.6870   -6.0729   22.5268 C   0  0  0  0  0  0
  -21.4021   -6.5632   23.8197 C   0  0  0  0  0  0
  -21.3658   -5.6788   24.9162 C   0  0  0  0  0  0
  -21.6053   -4.3052   24.7216 C   0  0  0  0  0  0
  -21.8832   -3.8140   23.4338 C   0  0  0  0  0  0
  -21.9197   -4.6954   22.3394 C   0  0  0  0  0  0
  -22.7880  -13.5209   21.1836 C   0  0  0  0  0  0
  -22.1677   -4.2126   21.0984 F   0  0  0  0  0  0
  -21.5615   -3.4542   25.7736 F   0  0  0  0  0  0
  -30.0316  -13.3219   20.4202 N   0  0  0  0  0  0
  -26.3025  -12.9339   20.3321 N   0  0  0  0  0  0
  -25.9331  -11.6489   20.5726 N   0  0  0  0  0  0
  -22.0555  -12.8176   22.0402 N   0  0  0  0  0  0
  -25.4309  -15.1892   20.4101 N   0  0  0  0  0  0
  -31.8645  -14.6417   20.1358 O   0  0  0  0  0  0
  -21.6653   -6.8873   21.4237 O   0  0  0  0  0  0
  -22.3531  -14.5508   20.6703 O   0  0  0  0  0  0
  -24.6196  -31.8650   23.2170 C   0  0  0  0  0  0
  -25.9077  -32.4804   23.8445 C   0  0  1  0  0  0
  -27.2237  -27.3847   20.0757 C   0  0  0  0  0  0
  -25.5916  -33.8604   24.2365 N   0  0  0  0  0  0
  -23.4092  -30.4941   21.5596 C   0  0  2  0  0  0
  -24.8508  -28.9674   20.1148 C   0  0  0  0  0  0
  -22.7446  -29.4645   22.5016 C   0  0  0  0  0  0
  -18.0279  -28.1348   22.8507 C   0  0  0  0  0  0
  -24.1482  -36.7300   23.2647 C   0  0  0  0  0  0
  -25.9492  -30.8072   21.3885 C   0  0  0  0  0  0
  -26.0185  -29.4441   20.7228 C   0  0  0  0  0  0
  -27.2016  -28.6573   20.7102 C   0  0  0  0  0  0
  -26.0316  -26.9611   19.4322 C   0  0  0  0  0  0
  -24.8558  -27.7258   19.4696 C   0  0  0  0  0  0
  -23.6172  -29.8400   20.1713 C   0  0  0  0  0  0
  -25.4105  -36.3115   24.0350 C   0  0  1  0  0  0
  -20.5877  -28.3637   23.1319 C   0  0  2  0  0  0
  -20.6755  -26.9367   22.5418 C   0  0  0  0  0  0
  -19.5733  -26.6365   21.5216 C   0  0  0  0  0  0
  -18.1915  -26.7895   22.1636 C   0  0  0  0  0  0
  -19.1528  -28.8815   23.2902 C   0  0  0  0  0  0
  -18.9448  -30.1423   23.8896 C   0  0  0  0  0  0
  -17.6447  -30.6562   24.0554 C   0  0  0  0  0  0
  -25.9028  -34.9469   23.5162 C   0  0  0  0  0  0
  -16.5343  -29.9051   23.6328 C   0  0  0  0  0  0
  -16.7264  -28.6466   23.0364 C   0  0  0  0  0  0
  -26.4479  -31.6600   25.0798 C   0  0  0  0  0  0
  -25.3733  -31.3666   26.1545 C   0  0  0  0  0  0
  -27.0327  -30.3035   24.6222 C   0  0  0  0  0  0
  -27.6062  -32.4332   25.7527 C   0  0  0  0  0  0
  -27.5585  -37.1808   24.8473 C   0  0  0  0  0  0
  -21.4167  -29.3018   22.3739 N   0  0  0  0  0  0
  -26.4302  -37.3799   23.9409 N   0  0  0  0  0  0
  -24.6781  -31.0701   22.1105 N   0  0  0  0  0  0
  -23.4205  -28.8165   23.3046 O   0  0  0  0  0  0
  -28.3763  -26.5974   20.1119 O   0  0  0  0  0  0
  -26.5598  -34.8916   22.4726 O   0  0  0  0  0  0
  -23.5378  -32.1456   23.7518 O   0  0  0  0  0  0
  -31.4218  -19.4926   21.7656 C   0  0  0  0  0  0
  -31.3819  -17.1044   22.2688 C   0  0  0  0  0  0
  -30.0273  -17.9911   20.4437 C   0  0  0  0  0  0
  -31.8513  -18.4051   22.5586 C   0  0  0  0  0  0
  -30.5191  -19.3035   20.6993 C   0  0  0  0  0  0
  -30.4739  -16.8803   21.2112 C   0  0  0  0  0  0
  -29.1118  -24.1453   20.1824 C   0  0  0  0  0  0
  -27.0319  -21.6910   19.8845 C   0  0  0  0  0  0
  -27.8395  -22.3563   18.7669 C   0  0  0  0  0  0
  -28.0784  -21.2260   20.9160 C   0  0  0  0  0  0
  -29.1668  -22.7564   19.4400 C   0  0  2  0  0  0
  -33.9994  -20.9010   23.7730 C   0  0  0  0  0  0
  -32.8024  -18.6104   23.7333 C   0  0  0  0  0  0
  -30.1711  -20.4975   19.7870 C   0  0  0  0  0  0
  -28.3325  -25.2871   19.4742 C   0  0  0  0  0  0
  -34.0782  -19.4101   23.4051 C   0  0  0  0  0  0
  -29.9850  -15.5567   20.9701 N   0  0  0  0  0  0
  -29.4137  -21.6367   20.4057 N   0  3  2  0  0  0
  -29.6611  -24.3373   21.2729 O   0  0  0  0  0  0
  -31.4623  -12.4060   19.1116 H   0  0  0  0  0  0
  -30.3083  -11.3115   19.8226 H   0  0  0  0  0  0
  -29.7316  -11.7845   17.4172 H   0  0  0  0  0  0
  -29.6615  -13.4954   17.7566 H   0  0  0  0  0  0
  -27.8224  -11.3164   18.8064 H   0  0  0  0  0  0
  -27.3620  -12.6491   17.7798 H   0  0  0  0  0  0
  -27.6895  -14.2566   19.5529 H   0  0  0  0  0  0
  -28.6877  -11.9954   21.3573 H   0  0  0  0  0  0
  -28.4763  -13.6488   21.8479 H   0  0  0  0  0  0
  -25.2767   -9.5673   22.4715 H   0  0  0  0  0  0
  -24.0006   -7.4635   22.7463 H   0  0  0  0  0  0
  -21.0834   -8.8754   19.8935 H   0  0  0  0  0  0
  -22.3698  -10.9649   19.6127 H   0  0  0  0  0  0
  -21.2041   -7.6145   23.9684 H   0  0  0  0  0  0
  -21.1465   -6.0530   25.9058 H   0  0  0  0  0  0
  -22.0620   -2.7598   23.2851 H   0  0  0  0  0  0
  -22.4229  -11.9839   22.4741 H   0  0  0  0  0  0
  -21.1155  -13.1135   22.2626 H   0  0  0  0  0  0
  -24.6616  -15.8429   20.5110 H   0  0  0  0  0  0
  -26.2830  -15.6286   20.0834 H   0  0  0  0  0  0
  -26.7140  -32.5477   23.1193 H   0  0  0  0  0  0
  -25.0027  -33.9749   25.0486 H   0  0  0  0  0  0
  -22.7011  -31.3141   21.4276 H   0  0  0  0  0  0
  -23.3758  -35.9621   23.3321 H   0  0  0  0  0  0
  -24.3565  -36.8908   22.2062 H   0  0  0  0  0  0
  -23.7236  -37.6503   23.6653 H   0  0  0  0  0  0
  -26.0900  -31.5807   20.6320 H   0  0  0  0  0  0
  -26.8269  -30.8413   22.0227 H   0  0  0  0  0  0
  -28.0971  -29.0196   21.1958 H   0  0  0  0  0  0
  -25.9501  -26.0482   18.8644 H   0  0  0  0  0  0
  -23.9619  -27.3631   18.9786 H   0  0  0  0  0  0
  -23.7291  -30.6223   19.4189 H   0  0  0  0  0  0
  -22.7373  -29.2665   19.8728 H   0  0  0  0  0  0
  -25.1292  -36.1987   25.0848 H   0  0  0  0  0  0
  -20.9955  -28.3177   24.1450 H   0  0  0  0  0  0
  -20.5651  -26.2227   23.3598 H   0  0  0  0  0  0
  -21.6615  -26.7392   22.1210 H   0  0  0  0  0  0
  -19.6875  -25.6289   21.1210 H   0  0  0  0  0  0
  -19.6653  -27.3199   20.6768 H   0  0  0  0  0  0
  -17.4179  -26.6661   21.4042 H   0  0  0  0  0  0
  -18.0294  -26.0021   22.9013 H   0  0  0  0  0  0
  -19.7918  -30.7241   24.2262 H   0  0  0  0  0  0
  -17.4997  -31.6246   24.5144 H   0  0  0  0  0  0
  -15.5336  -30.2951   23.7645 H   0  0  0  0  0  0
  -15.8667  -28.0779   22.7089 H   0  0  0  0  0  0
  -24.5941  -30.6969   25.7881 H   0  0  0  0  0  0
  -24.8860  -32.2773   26.5031 H   0  0  0  0  0  0
  -25.8100  -30.8832   27.0297 H   0  0  0  0  0  0
  -26.2904  -29.6769   24.1264 H   0  0  0  0  0  0
  -27.4062  -29.7302   25.4716 H   0  0  0  0  0  0
  -27.8754  -30.4347   23.9435 H   0  0  0  0  0  0
  -27.2722  -33.3654   26.2081 H   0  0  0  0  0  0
  -28.3849  -32.6845   25.0320 H   0  0  0  0  0  0
  -28.0739  -31.8470   26.5446 H   0  0  0  0  0  0
  -28.2619  -38.0096   24.7539 H   0  0  0  0  0  0
  -28.1079  -36.2631   24.6302 H   0  0  0  0  0  0
  -27.2282  -37.1457   25.8873 H   0  0  0  0  0  0
  -20.9336  -29.8758   21.6978 H   0  0  0  0  0  0
  -26.0196  -38.2875   24.1419 H   0  0  0  0  0  0
  -31.7992  -20.4841   21.9611 H   0  0  0  0  0  0
  -31.7119  -16.2728   22.8762 H   0  0  0  0  0  0
  -29.3367  -17.8264   19.6292 H   0  0  0  0  0  0
  -26.4377  -20.8595   19.5020 H   0  0  0  0  0  0
  -26.3429  -22.4009   20.3447 H   0  0  0  0  0  0
  -27.3021  -23.1644   18.2719 H   0  0  0  0  0  0
  -28.0427  -21.6233   17.9849 H   0  0  0  0  0  0
  -28.0026  -20.1552   21.1125 H   0  0  0  0  0  0
  -27.8972  -21.7273   21.8691 H   0  0  0  0  0  0
  -29.9684  -22.8142   18.7014 H   0  0  0  0  0  0
  -34.9439  -21.4017   23.5631 H   0  0  0  0  0  0
  -33.7916  -21.0284   24.8349 H   0  0  0  0  0  0
  -33.2257  -21.4327   23.2234 H   0  0  0  0  0  0
  -33.1076  -17.6275   24.0993 H   0  0  0  0  0  0
  -32.2581  -19.0702   24.5598 H   0  0  0  0  0  0
  -29.6157  -20.1185   18.9281 H   0  0  0  0  0  0
  -31.1098  -20.8809   19.3857 H   0  0  0  0  0  0
  -27.3267  -24.8871   19.4914 H   0  0  0  0  0  0
  -28.6519  -25.3697   18.4349 H   0  0  0  0  0  0
  -34.8973  -18.9876   23.9897 H   0  0  0  0  0  0
  -34.3641  -19.2720   22.3618 H   0  0  0  0  0  0
  -29.0001  -15.3958   21.1180 H   0  0  0  0  0  0
  -29.9612  -22.0098   21.1699 H   0  0  0  0  0  0
  1 25  1  0  0  0
  1 30  2  0  0  0
  1 87  1  0  0  0
  2  3  1  0  0  0
  2 25  1  0  0  0
  2 90  1  0  0  0
  2 91  1  0  0  0
  3  4  1  0  0  0
  3 92  1  0  0  0
  3 93  1  0  0  0
  4  5  1  0  0  0
  4 94  1  0  0  0
  4 95  1  0  0  0
  5  6  1  0  0  0
  5 26  1  0  0  0
  5 96  1  0  0  0
  6 25  1  0  0  0
  6 97  1  0  0  0
  6 98  1  0  0  0
  7  8  2  0  0  0
  7 26  1  0  0  0
  7 29  1  0  0  0
  8  9  1  0  0  0
  8 22  1  0  0  0
  9 10  1  0  0  0
  9 27  2  0  0  0
 10 11  2  0  0  0
 10 15  1  0  0  0
 11 12  1  0  0  0
 11 99  1  0  0  0
 12 13  2  0  0  0
 12100  1  0  0  0
 13 14  1  0  0  0
 13 31  1  0  0  0
 14 15  2  0  0  0
 14101  1  0  0  0
 15102  1  0  0  0
 16 17  2  0  0  0
 16 21  1  0  0  0
 16 31  1  0  0  0
 17 18  1  0  0  0
 17103  1  0  0  0
 18 19  2  0  0  0
 18104  1  0  0  0
 19 20  1  0  0  0
 19 24  1  0  0  0
 20 21  2  0  0  0
 20105  1  0  0  0
 21 23  1  0  0  0
 22 28  1  0  0  0
 22 32  2  0  0  0
 26 27  1  0  0  0
 28106  1  0  0  0
 28107  1  0  0  0
 29108  1  0  0  0
 29109  1  0  0  0
 33 34  1  0  0  0
 33 66  1  0  0  0
 33 70  2  0  0  0
 34 36  1  0  0  0
 34 59  1  0  0  0
 34110  1  0  0  0
 35 44  2  0  0  0
 35 45  1  0  0  0
 35 68  1  0  0  0
 36 56  1  0  0  0
 36111  1  0  0  0
 37 39  1  0  0  0
 37 47  1  0  0  0
 37 66  1  0  0  0
 37112  1  0  0  0
 38 43  2  0  0  0
 38 46  1  0  0  0
 38 47  1  0  0  0
 39 64  1  0  0  0
 39 67  2  0  0  0
 40 52  1  0  0  0
 40 53  2  0  0  0
 40 58  1  0  0  0
 41113  1  0  0  0
 41114  1  0  0  0
 41115  1  0  0  0
 41 48  1  0  0  0
 42 43  1  0  0  0
 42 66  1  0  0  0
 42116  1  0  0  0
 42117  1  0  0  0
 43 44  1  0  0  0
 44118  1  0  0  0
 45 46  2  0  0  0
 45119  1  0  0  0
 46120  1  0  0  0
 47121  1  0  0  0
 47122  1  0  0  0
 48 56  1  0  0  0
 48 65  1  0  0  0
 48123  1  0  0  0
 49 50  1  0  0  0
 49 53  1  0  0  0
 49 64  1  0  0  0
 49124  1  0  0  0
 50 51  1  0  0  0
 50125  1  0  0  0
 50126  1  0  0  0
 51 52  1  0  0  0
 51127  1  0  0  0
 51128  1  0  0  0
 52129  1  0  0  0
 52130  1  0  0  0
 53 54  1  0  0  0
 54 55  2  0  0  0
 54131  1  0  0  0
 55 57  1  0  0  0
 55132  1  0  0  0
 56 69  2  0  0  0
 57 58  2  0  0  0
 57133  1  0  0  0
 58134  1  0  0  0
 59 60  1  0  0  0
 59 61  1  0  0  0
 59 62  1  0  0  0
 60135  1  0  0  0
 60136  1  0  0  0
 60137  1  0  0  0
 61138  1  0  0  0
 61139  1  0  0  0
 61140  1  0  0  0
 62141  1  0  0  0
 62142  1  0  0  0
 62143  1  0  0  0
 63 65  1  0  0  0
 63144  1  0  0  0
 63145  1  0  0  0
 63146  1  0  0  0
 64147  1  0  0  0
 65148  1  0  0  0
 68 85  1  0  0  0
 71 74  2  0  0  0
 71 75  1  0  0  0
 71149  1  0  0  0
 72 74  1  0  0  0
 72 76  2  0  0  0
 72150  1  0  0  0
 73 75  2  0  0  0
 73 76  1  0  0  0
 73151  1  0  0  0
 74 83  1  0  0  0
 75 84  1  0  0  0
 76 87  1  0  0  0
 77 85  1  0  0  0
 77 89  2  0  0  0
 77 81  1  0  0  0
 78 79  1  0  0  0
 78 80  1  0  0  0
 78152  1  0  0  0
 78153  1  0  0  0
 79 81  1  0  0  0
 79154  1  0  0  0
 79155  1  0  0  0
 80 88  1  0  0  0
 80156  1  0  0  0
 80157  1  0  0  0
 81 88  1  0  0  0
 81158  1  0  0  0
 82 86  1  0  0  0
 82159  1  0  0  0
 82160  1  0  0  0
 82161  1  0  0  0
 83 86  1  0  0  0
 83162  1  0  0  0
 83163  1  0  0  0
 84164  1  0  0  0
 84165  1  0  0  0
 84 88  1  0  0  0
 85166  1  0  0  0
 85167  1  0  0  0
 86168  1  0  0  0
 86169  1  0  0  0
 87170  1  0  0  0
 88171  1  0  0  0
M  CHG  1  88   1
M  ISO  4   1 100  68 101  85 101  87 100
M  END
> <chiral flag>
0

> <version>
0

> <s_m_source_file>
/data/baiqing/PycharmProjects/Reinvent-master-3.2/result/LINK_invent/BTK/process_docking_weight1_custom_product_contain_oxygen_bond_distance_aromatic_linkinvent_7_9_3/rearranged_h_0138.sdf

> <i_m_source_file_index>
61

> <r_mmod_Potential_Energy-OPLS-2005>
-92.1595306396484

> <r_mmod_Stretch_Energy-OPLS-2005>
50.9126930236816

> <r_mmod_Bend_Energy-OPLS-2005>
134.792984008789

> <r_mmod_Torsional_Energy-OPLS-2005>
294.132598876953

> <r_mmod_Improper_Torsional_Energy-OPLS-2005>
4.65700769424438

> <r_mmod_Van_der_Waal_Energy-OPLS-2005>
156.862762451172

> <r_mmod_Electrostatic_Energy-OPLS-2005>
-292.434509277344

> <r_mmod_Solvation_Energy-OPLS-2005>
-462.920654296875

> <b_mmod_Minimization_Converged-OPLS-2005>
0

> <r_mmod_RMS_Derivative-OPLS-2005>
2.6191349029541

$$$$
61
                    3D
 Structure written by MMmdl.
154163  0  0  1  0            999 V2000
  -30.6109  -14.7445   20.4675 C   0  0  0  0  0  0
  -30.4379  -12.4592   19.4626 C   0  0  0  0  0  0
  -29.5089  -12.5008   18.2300 C   0  0  0  0  0  0
  -28.0359  -12.3225   18.6486 C   0  0  0  0  0  0
  -27.6391  -13.2274   19.8455 C   0  0  2  0  0  0
  -28.6880  -13.1655   20.9765 C   0  0  0  0  0  0
  -25.2504  -13.8194   20.5695 C   0  0  0  0  0  0
  -24.1786  -13.0441   20.9216 C   0  0  0  0  0  0
  -24.6374  -11.6923   20.8754 C   0  0  0  0  0  0
  -23.9055  -10.4296   21.0414 C   0  0  0  0  0  0
  -24.3619   -9.4210   21.9178 C   0  0  0  0  0  0
  -23.6296   -8.2242   22.0747 C   0  0  0  0  0  0
  -22.4273   -8.0284   21.3546 C   0  0  0  0  0  0
  -21.9901   -9.0252   20.4642 C   0  0  0  0  0  0
  -22.7228  -10.2130   20.3056 C   0  0  0  0  0  0
  -21.6848   -6.0730   22.5277 C   0  0  0  0  0  0
  -21.4005   -6.5631   23.8214 C   0  0  0  0  0  0
  -21.3668   -5.6786   24.9173 C   0  0  0  0  0  0
  -21.6056   -4.3046   24.7223 C   0  0  0  0  0  0
  -21.8823   -3.8144   23.4337 C   0  0  0  0  0  0
  -21.9186   -4.6961   22.3397 C   0  0  0  0  0  0
  -22.7813  -13.5227   21.1864 C   0  0  0  0  0  0
  -22.1651   -4.2154   21.0976 F   0  0  0  0  0  0
  -21.5640   -3.4527   25.7733 F   0  0  0  0  0  0
  -29.9851  -13.5211   20.3866 N   0  0  0  0  0  0
  -26.2919  -12.9391   20.3286 N   0  0  0  0  0  0
  -25.9299  -11.6544   20.5761 N   0  0  0  0  0  0
  -22.0445  -12.8236   22.0431 N   0  0  0  0  0  0
  -25.4197  -15.1910   20.4090 N   0  0  0  0  0  0
  -31.8161  -14.8375   20.2165 O   0  0  0  0  0  0
  -21.6642   -6.8872   21.4244 O   0  0  0  0  0  0
  -22.3501  -14.5524   20.6705 O   0  0  0  0  0  0
  -24.6280  -31.8567   23.1985 C   0  0  0  0  0  0
  -25.9117  -32.4753   23.8333 C   0  0  1  0  0  0
  -27.2137  -27.2666   20.1437 C   0  0  0  0  0  0
  -25.5926  -33.8554   24.2248 N   0  0  0  0  0  0
  -23.4234  -30.4804   21.5394 C   0  0  2  0  0  0
  -24.8713  -28.9256   20.1108 C   0  0  0  0  0  0
  -22.7467  -29.4614   22.4868 C   0  0  0  0  0  0
  -18.0288  -28.1376   22.8475 C   0  0  0  0  0  0
  -24.1493  -36.7285   23.2641 C   0  0  0  0  0  0
  -25.9679  -30.7742   21.3756 C   0  0  0  0  0  0
  -26.0427  -29.3948   20.7214 C   0  0  0  0  0  0
  -27.2178  -28.5775   20.7276 C   0  0  0  0  0  0
  -26.0257  -26.8659   19.4968 C   0  0  0  0  0  0
  -24.8668  -27.6662   19.4901 C   0  0  0  0  0  0
  -23.6425  -29.8145   20.1547 C   0  0  0  0  0  0
  -25.4115  -36.3047   24.0317 C   0  0  1  0  0  0
  -20.5887  -28.3698   23.1241 C   0  0  2  0  0  0
  -20.6768  -26.9412   22.5387 C   0  0  0  0  0  0
  -19.5752  -26.6365   21.5190 C   0  0  0  0  0  0
  -18.1936  -26.7921   22.1608 C   0  0  0  0  0  0
  -19.1540  -28.8850   23.2862 C   0  0  0  0  0  0
  -18.9473  -30.1444   23.8879 C   0  0  0  0  0  0
  -17.6476  -30.6582   24.0554 C   0  0  0  0  0  0
  -25.9056  -34.9425   23.5078 C   0  0  0  0  0  0
  -16.5365  -29.9077   23.6324 C   0  0  0  0  0  0
  -16.7275  -28.6493   23.0356 C   0  0  0  0  0  0
  -26.4501  -31.6570   25.0708 C   0  0  0  0  0  0
  -25.3743  -31.3739   26.1441 C   0  0  0  0  0  0
  -27.0359  -30.2984   24.6199 C   0  0  0  0  0  0
  -27.6035  -32.4317   25.7502 C   0  0  0  0  0  0
  -27.5572  -37.1797   24.8455 C   0  0  0  0  0  0
  -21.4178  -29.3056   22.3625 N   0  0  0  0  0  0
  -26.4282  -37.3745   23.9399 N   0  0  0  0  0  0
  -24.6920  -31.0542   22.0949 N   0  0  0  0  0  0
  -23.4172  -28.8153   23.2966 O   0  0  0  0  0  0
  -28.3038  -26.3700   20.1682 O   0  0  0  0  0  0
  -26.5622  -34.8902   22.4642 O   0  0  0  0  0  0
  -23.5435  -32.1382   23.7279 O   0  0  0  0  0  0
  -29.3978  -18.4730   20.2081 C   0  0  0  0  0  0
  -31.1283  -17.7229   21.5930 C   0  0  0  0  0  0
  -30.1238  -17.3087   20.7551 C   0  0  0  0  0  0
  -29.8812  -19.7386   20.5979 C   0  0  0  0  0  0
  -28.6872  -21.4660   18.9221 C   0  0  0  0  0  0
  -28.4043  -23.0054   18.8541 C   0  0  0  0  0  0
  -29.1425  -22.4054   21.0703 C   0  0  0  0  0  0
  -29.6081  -21.2241   20.1245 C   0  0  1  0  0  0
  -28.9242  -23.6901   20.1493 C   0  0  2  0  0  0
  -28.0759  -24.9716   20.6726 C   0  0  0  0  0  0
  -29.8072  -15.8758   20.5363 N   0  0  0  0  0  0
  -31.2047  -19.4733   21.7191 S   0  0  0  0  0  0
  -31.4753  -12.6010   19.1541 H   0  0  0  0  0  0
  -30.3949  -11.4852   19.9514 H   0  0  0  0  0  0
  -29.7925  -11.7209   17.5217 H   0  0  0  0  0  0
  -29.6337  -13.4495   17.7054 H   0  0  0  0  0  0
  -27.8982  -11.2752   18.9174 H   0  0  0  0  0  0
  -27.3763  -12.5049   17.7993 H   0  0  0  0  0  0
  -27.6288  -14.2469   19.4613 H   0  0  0  0  0  0
  -28.7280  -12.1682   21.4170 H   0  0  0  0  0  0
  -28.4239  -13.8492   21.7852 H   0  0  0  0  0  0
  -25.2753   -9.5689   22.4764 H   0  0  0  0  0  0
  -24.0010   -7.4624   22.7452 H   0  0  0  0  0  0
  -21.0840   -8.8758   19.8943 H   0  0  0  0  0  0
  -22.3673  -10.9674   19.6177 H   0  0  0  0  0  0
  -21.1990   -7.6130   23.9722 H   0  0  0  0  0  0
  -21.1492   -6.0504   25.9083 H   0  0  0  0  0  0
  -22.0596   -2.7607   23.2835 H   0  0  0  0  0  0
  -22.4036  -11.9916   22.4872 H   0  0  0  0  0  0
  -21.1062  -13.1298   22.2611 H   0  0  0  0  0  0
  -24.6560  -15.8474   20.5285 H   0  0  0  0  0  0
  -26.2645  -15.6329   20.0730 H   0  0  0  0  0  0
  -26.7186  -32.5401   23.1089 H   0  0  0  0  0  0
  -25.0098  -33.9710   25.0407 H   0  0  0  0  0  0
  -22.7202  -31.3030   21.3913 H   0  0  0  0  0  0
  -23.3737  -35.9634   23.3293 H   0  0  0  0  0  0
  -24.3604  -36.8924   22.2063 H   0  0  0  0  0  0
  -23.7283  -37.6492   23.6693 H   0  0  0  0  0  0
  -26.1018  -31.5355   20.6054 H   0  0  0  0  0  0
  -26.8462  -30.8266   22.0069 H   0  0  0  0  0  0
  -28.1111  -28.9292   21.2232 H   0  0  0  0  0  0
  -25.9828  -25.9061   19.0017 H   0  0  0  0  0  0
  -23.9706  -27.2993   19.0091 H   0  0  0  0  0  0
  -23.7686  -30.5907   19.3976 H   0  0  0  0  0  0
  -22.7597  -29.2494   19.8486 H   0  0  0  0  0  0
  -25.1307  -36.1890   25.0812 H   0  0  0  0  0  0
  -21.0010  -28.3290   24.1350 H   0  0  0  0  0  0
  -20.5640  -26.2326   23.3604 H   0  0  0  0  0  0
  -21.6646  -26.7412   22.1213 H   0  0  0  0  0  0
  -19.6920  -25.6265   21.1248 H   0  0  0  0  0  0
  -19.6693  -27.3143   20.6699 H   0  0  0  0  0  0
  -17.4204  -26.6648   21.4018 H   0  0  0  0  0  0
  -18.0351  -26.0056   22.9002 H   0  0  0  0  0  0
  -19.7955  -30.7258   24.2233 H   0  0  0  0  0  0
  -17.5044  -31.6276   24.5139 H   0  0  0  0  0  0
  -15.5375  -30.2995   23.7641 H   0  0  0  0  0  0
  -15.8673  -28.0807   22.7093 H   0  0  0  0  0  0
  -24.5879  -30.7139   25.7782 H   0  0  0  0  0  0
  -24.9001  -32.2931   26.4880 H   0  0  0  0  0  0
  -25.8061  -30.8900   27.0209 H   0  0  0  0  0  0
  -26.2963  -29.6721   24.1208 H   0  0  0  0  0  0
  -27.4027  -29.7250   25.4723 H   0  0  0  0  0  0
  -27.8832  -30.4242   23.9456 H   0  0  0  0  0  0
  -27.2603  -33.3579   26.2120 H   0  0  0  0  0  0
  -28.3840  -32.6948   25.0355 H   0  0  0  0  0  0
  -28.0723  -31.8443   26.5405 H   0  0  0  0  0  0
  -28.2564  -38.0110   24.7473 H   0  0  0  0  0  0
  -28.1088  -36.2636   24.6299 H   0  0  0  0  0  0
  -27.2298  -37.1457   25.8860 H   0  0  0  0  0  0
  -20.9323  -29.8851   21.6913 H   0  0  0  0  0  0
  -26.0147  -38.2808   24.1407 H   0  0  0  0  0  0
  -28.5829  -18.3421   19.5097 H   0  0  0  0  0  0
  -31.8289  -17.1240   22.1647 H   0  0  0  0  0  0
  -29.1333  -21.0871   18.0023 H   0  0  0  0  0  0
  -27.7454  -20.9330   19.0612 H   0  0  0  0  0  0
  -27.3331  -23.1697   18.7237 H   0  0  0  0  0  0
  -28.8900  -23.4482   17.9827 H   0  0  0  0  0  0
  -29.8751  -22.5996   21.8554 H   0  0  0  0  0  0
  -28.2104  -22.1385   21.5685 H   0  0  0  0  0  0
  -30.5885  -21.5579   19.7801 H   0  0  0  0  0  0
  -29.9271  -24.0643   19.9410 H   0  0  0  0  0  0
  -28.2631  -25.0434   21.7450 H   0  0  0  0  0  0
  -27.0196  -24.7103   20.6153 H   0  0  0  0  0  0
  -28.8269  -15.6765   20.4120 H   0  0  0  0  0  0
  1 25  1  0  0  0
  1 30  2  0  0  0
  1 81  1  0  0  0
  2  3  1  0  0  0
  2 25  1  0  0  0
  2 83  1  0  0  0
  2 84  1  0  0  0
  3  4  1  0  0  0
  3 85  1  0  0  0
  3 86  1  0  0  0
  4  5  1  0  0  0
  4 87  1  0  0  0
  4 88  1  0  0  0
  5  6  1  0  0  0
  5 26  1  0  0  0
  5 89  1  0  0  0
  6 25  1  0  0  0
  6 90  1  0  0  0
  6 91  1  0  0  0
  7  8  2  0  0  0
  7 26  1  0  0  0
  7 29  1  0  0  0
  8  9  1  0  0  0
  8 22  1  0  0  0
  9 10  1  0  0  0
  9 27  2  0  0  0
 10 11  2  0  0  0
 10 15  1  0  0  0
 11 12  1  0  0  0
 11 92  1  0  0  0
 12 13  2  0  0  0
 12 93  1  0  0  0
 13 14  1  0  0  0
 13 31  1  0  0  0
 14 15  2  0  0  0
 14 94  1  0  0  0
 15 95  1  0  0  0
 16 17  2  0  0  0
 16 21  1  0  0  0
 16 31  1  0  0  0
 17 18  1  0  0  0
 17 96  1  0  0  0
 18 19  2  0  0  0
 18 97  1  0  0  0
 19 20  1  0  0  0
 19 24  1  0  0  0
 20 21  2  0  0  0
 20 98  1  0  0  0
 21 23  1  0  0  0
 22 28  1  0  0  0
 22 32  2  0  0  0
 26 27  1  0  0  0
 28 99  1  0  0  0
 28100  1  0  0  0
 29101  1  0  0  0
 29102  1  0  0  0
 33 34  1  0  0  0
 33 66  1  0  0  0
 33 70  2  0  0  0
 34 36  1  0  0  0
 34 59  1  0  0  0
 34103  1  0  0  0
 35 44  2  0  0  0
 35 45  1  0  0  0
 35 68  1  0  0  0
 36 56  1  0  0  0
 36104  1  0  0  0
 37 39  1  0  0  0
 37 47  1  0  0  0
 37 66  1  0  0  0
 37105  1  0  0  0
 38 43  2  0  0  0
 38 46  1  0  0  0
 38 47  1  0  0  0
 39 64  1  0  0  0
 39 67  2  0  0  0
 40 52  1  0  0  0
 40 53  2  0  0  0
 40 58  1  0  0  0
 41106  1  0  0  0
 41107  1  0  0  0
 41108  1  0  0  0
 41 48  1  0  0  0
 42 43  1  0  0  0
 42 66  1  0  0  0
 42109  1  0  0  0
 42110  1  0  0  0
 43 44  1  0  0  0
 44111  1  0  0  0
 45 46  2  0  0  0
 45112  1  0  0  0
 46113  1  0  0  0
 47114  1  0  0  0
 47115  1  0  0  0
 48 56  1  0  0  0
 48 65  1  0  0  0
 48116  1  0  0  0
 49 50  1  0  0  0
 49 53  1  0  0  0
 49 64  1  0  0  0
 49117  1  0  0  0
 50 51  1  0  0  0
 50118  1  0  0  0
 50119  1  0  0  0
 51 52  1  0  0  0
 51120  1  0  0  0
 51121  1  0  0  0
 52122  1  0  0  0
 52123  1  0  0  0
 53 54  1  0  0  0
 54 55  2  0  0  0
 54124  1  0  0  0
 55 57  1  0  0  0
 55125  1  0  0  0
 56 69  2  0  0  0
 57 58  2  0  0  0
 57126  1  0  0  0
 58127  1  0  0  0
 59 60  1  0  0  0
 59 61  1  0  0  0
 59 62  1  0  0  0
 60128  1  0  0  0
 60129  1  0  0  0
 60130  1  0  0  0
 61131  1  0  0  0
 61132  1  0  0  0
 61133  1  0  0  0
 62134  1  0  0  0
 62135  1  0  0  0
 62136  1  0  0  0
 63 65  1  0  0  0
 63137  1  0  0  0
 63138  1  0  0  0
 63139  1  0  0  0
 64140  1  0  0  0
 65141  1  0  0  0
 68 80  1  0  0  0
 71 73  1  0  0  0
 71 74  2  0  0  0
 71142  1  0  0  0
 72 73  2  0  0  0
 72 82  1  0  0  0
 72143  1  0  0  0
 73 81  1  0  0  0
 74 82  1  0  0  0
 74 78  1  0  0  0
 75 76  1  0  0  0
 75 78  1  0  0  0
 75144  1  0  0  0
 75145  1  0  0  0
 76 79  1  0  0  0
 76146  1  0  0  0
 76147  1  0  0  0
 77 78  1  0  0  0
 77 79  1  0  0  0
 77148  1  0  0  0
 77149  1  0  0  0
 78150  1  0  0  0
 79 80  1  0  0  0
 79151  1  0  0  0
 80152  1  0  0  0
 80153  1  0  0  0
 81154  1  0  0  0
M  ISO  4   1 100  68 101  80 101  81 100
M  END
> <chiral flag>
0

> <version>
0

> <s_m_source_file>
/data/baiqing/PycharmProjects/Reinvent-master-3.2/result/LINK_invent/BTK/process_docking_weight1_custom_product_contain_oxygen_bond_distance_aromatic_linkinvent_7_9_3/rearranged_h_0138.sdf

> <i_m_source_file_index>
62

> <r_mmod_Potential_Energy-OPLS-2005>
235.85774230957

> <r_mmod_Stretch_Energy-OPLS-2005>
108.36247253418

> <r_mmod_Bend_Energy-OPLS-2005>
198.613021850586

> <r_mmod_Torsional_Energy-OPLS-2005>
278.769653320312

> <r_mmod_Improper_Torsional_Energy-OPLS-2005>
8.03158664703369

> <r_mmod_Van_der_Waal_Energy-OPLS-2005>
110.255889892578

> <r_mmod_Electrostatic_Energy-OPLS-2005>
-346.901397705078

> <r_mmod_Solvation_Energy-OPLS-2005>
-207.123672485352

> <b_mmod_Minimization_Converged-OPLS-2005>
0

> <r_mmod_RMS_Derivative-OPLS-2005>
2.56745767593384

$$$$
62
                    3D
 Structure written by MMmdl.
160168  0  0  1  0            999 V2000
  -30.6433  -14.5473   20.5666 C   0  0  0  0  0  0
  -30.4436  -12.3523   19.4282 C   0  0  0  0  0  0
  -29.5046  -12.5262   18.2145 C   0  0  0  0  0  0
  -28.0238  -12.3768   18.6173 C   0  0  0  0  0  0
  -27.6614  -13.2093   19.8770 C   0  0  2  0  0  0
  -28.7049  -12.9962   20.9966 C   0  0  0  0  0  0
  -25.2582  -13.8175   20.5691 C   0  0  0  0  0  0
  -24.1841  -13.0464   20.9181 C   0  0  0  0  0  0
  -24.6406  -11.6932   20.8773 C   0  0  0  0  0  0
  -23.9077  -10.4317   21.0437 C   0  0  0  0  0  0
  -24.3628   -9.4214   21.9200 C   0  0  0  0  0  0
  -23.6299   -8.2255   22.0748 C   0  0  0  0  0  0
  -22.4275   -8.0302   21.3542 C   0  0  0  0  0  0
  -21.9928   -9.0287   20.4649 C   0  0  0  0  0  0
  -22.7268  -10.2162   20.3066 C   0  0  0  0  0  0
  -21.6852   -6.0756   22.5287 C   0  0  0  0  0  0
  -21.4036   -6.5655   23.8223 C   0  0  0  0  0  0
  -21.3647   -5.6789   24.9174 C   0  0  0  0  0  0
  -21.6024   -4.3059   24.7217 C   0  0  0  0  0  0
  -21.8815   -3.8159   23.4338 C   0  0  0  0  0  0
  -21.9201   -4.6981   22.3403 C   0  0  0  0  0  0
  -22.7854  -13.5247   21.1865 C   0  0  0  0  0  0
  -22.1653   -4.2176   21.0974 F   0  0  0  0  0  0
  -21.5613   -3.4536   25.7723 F   0  0  0  0  0  0
  -30.0293  -13.3349   20.4435 N   0  0  0  0  0  0
  -26.3031  -12.9351   20.3384 N   0  0  0  0  0  0
  -25.9325  -11.6509   20.5771 N   0  0  0  0  0  0
  -22.0482  -12.8250   22.0422 N   0  0  0  0  0  0
  -25.4300  -15.1898   20.4089 N   0  0  0  0  0  0
  -31.7886  -14.7582   20.1555 O   0  0  0  0  0  0
  -21.6626   -6.8905   21.4251 O   0  0  0  0  0  0
  -22.3546  -14.5564   20.6709 O   0  0  0  0  0  0
  -24.6169  -31.8659   23.2086 C   0  0  0  0  0  0
  -25.9054  -32.4809   23.8397 C   0  0  1  0  0  0
  -27.2498  -27.4053   20.1055 C   0  0  0  0  0  0
  -25.5902  -33.8599   24.2343 N   0  0  0  0  0  0
  -23.4074  -30.4891   21.5480 C   0  0  2  0  0  0
  -24.8624  -28.9566   20.1137 C   0  0  0  0  0  0
  -22.7426  -29.4639   22.4946 C   0  0  0  0  0  0
  -18.0262  -28.1381   22.8477 C   0  0  0  0  0  0
  -24.1470  -36.7310   23.2636 C   0  0  0  0  0  0
  -25.9386  -30.8274   21.3651 C   0  0  0  0  0  0
  -26.0237  -29.4571   20.7158 C   0  0  0  0  0  0
  -27.2201  -28.6938   20.7036 C   0  0  0  0  0  0
  -26.0690  -26.9437   19.4790 C   0  0  0  0  0  0
  -24.8850  -27.7025   19.4849 C   0  0  0  0  0  0
  -23.6214  -29.8217   20.1631 C   0  0  0  0  0  0
  -25.4088  -36.3110   24.0350 C   0  0  1  0  0  0
  -20.5857  -28.3669   23.1282 C   0  0  2  0  0  0
  -20.6730  -26.9388   22.5408 C   0  0  0  0  0  0
  -19.5720  -26.6379   21.5192 C   0  0  0  0  0  0
  -18.1907  -26.7918   22.1611 C   0  0  0  0  0  0
  -19.1515  -28.8840   23.2880 C   0  0  0  0  0  0
  -18.9453  -30.1448   23.8891 C   0  0  0  0  0  0
  -17.6457  -30.6585   24.0562 C   0  0  0  0  0  0
  -25.9026  -34.9470   23.5141 C   0  0  0  0  0  0
  -16.5346  -29.9094   23.6323 C   0  0  0  0  0  0
  -16.7253  -28.6514   23.0333 C   0  0  0  0  0  0
  -26.4489  -31.6570   25.0722 C   0  0  0  0  0  0
  -25.3769  -31.3674   26.1490 C   0  0  0  0  0  0
  -27.0340  -30.3010   24.6110 C   0  0  0  0  0  0
  -27.6069  -32.4277   25.7494 C   0  0  0  0  0  0
  -27.5573  -37.1802   24.8459 C   0  0  0  0  0  0
  -21.4147  -29.3037   22.3691 N   0  0  0  0  0  0
  -26.4271  -37.3805   23.9428 N   0  0  0  0  0  0
  -24.6724  -31.0749   22.0986 N   0  0  0  0  0  0
  -23.4191  -28.8146   23.2966 O   0  0  0  0  0  0
  -28.4109  -26.6391   20.1034 O   0  0  0  0  0  0
  -26.5586  -34.8919   22.4709 O   0  0  0  0  0  0
  -23.5360  -32.1388   23.7473 O   0  0  0  0  0  0
  -30.4563  -18.5027   23.1790 C   0  0  0  0  0  0
  -30.1575  -19.5766   22.3212 C   0  0  0  0  0  0
  -29.7563  -17.9990   20.5139 C   0  0  0  0  0  0
  -30.4052  -17.1700   22.7213 C   0  0  0  0  0  0
  -30.0667  -16.8986   21.3722 C   0  0  0  0  0  0
  -29.7943  -19.3525   20.9729 C   0  0  0  0  0  0
  -30.6723  -16.0401   23.7002 C   0  0  0  0  0  0
  -27.6509  -22.5486   18.9225 C   0  0  0  0  0  0
  -29.3790  -24.3184   19.7114 C   0  0  0  0  0  0
  -28.2907  -25.2149   20.3931 C   0  0  0  0  0  0
  -29.4447  -21.7668   20.5804 C   0  0  0  0  0  0
  -29.0785  -22.7872   19.4490 C   0  0  1  0  0  0
  -29.8139  -15.5375   20.9845 N   0  0  0  0  0  0
  -29.4507  -20.3922   20.1061 O   0  0  0  0  0  0
  -31.4839  -12.4888   19.1247 H   0  0  0  0  0  0
  -30.3774  -11.3399   19.8288 H   0  0  0  0  0  0
  -29.7547  -11.8114   17.4298 H   0  0  0  0  0  0
  -29.6627  -13.5169   17.7869 H   0  0  0  0  0  0
  -27.8236  -11.3199   18.7917 H   0  0  0  0  0  0
  -27.3831  -12.6722   17.7865 H   0  0  0  0  0  0
  -27.6983  -14.2558   19.5753 H   0  0  0  0  0  0
  -28.7018  -11.9579   21.3269 H   0  0  0  0  0  0
  -28.4572  -13.5815   21.8872 H   0  0  0  0  0  0
  -25.2776   -9.5670   22.4780 H   0  0  0  0  0  0
  -24.0001   -7.4620   22.7454 H   0  0  0  0  0  0
  -21.0852   -8.8832   19.8950 H   0  0  0  0  0  0
  -22.3751  -10.9706   19.6171 H   0  0  0  0  0  0
  -21.2044   -7.6163   23.9753 H   0  0  0  0  0  0
  -21.1461   -6.0507   25.9082 H   0  0  0  0  0  0
  -22.0608   -2.7629   23.2825 H   0  0  0  0  0  0
  -22.4048  -11.9876   22.4784 H   0  0  0  0  0  0
  -21.1113  -13.1309   22.2642 H   0  0  0  0  0  0
  -24.6678  -15.8492   20.5205 H   0  0  0  0  0  0
  -26.2789  -15.6305   20.0793 H   0  0  0  0  0  0
  -26.7123  -32.5551   23.1165 H   0  0  0  0  0  0
  -25.0084  -33.9737   25.0512 H   0  0  0  0  0  0
  -22.6971  -31.3077   21.4074 H   0  0  0  0  0  0
  -23.3730  -35.9648   23.3308 H   0  0  0  0  0  0
  -24.3570  -36.8912   22.2048 H   0  0  0  0  0  0
  -23.7204  -37.6513   23.6640 H   0  0  0  0  0  0
  -26.0485  -31.5911   20.5935 H   0  0  0  0  0  0
  -26.8242  -30.8890   21.9848 H   0  0  0  0  0  0
  -28.1157  -29.0866   21.1683 H   0  0  0  0  0  0
  -26.0520  -26.0015   18.9557 H   0  0  0  0  0  0
  -24.0024  -27.3234   18.9903 H   0  0  0  0  0  0
  -23.7236  -30.5969   19.4024 H   0  0  0  0  0  0
  -22.7459  -29.2402   19.8639 H   0  0  0  0  0  0
  -25.1242  -36.1992   25.0838 H   0  0  0  0  0  0
  -20.9952  -28.3262   24.1399 H   0  0  0  0  0  0
  -20.5570  -26.2294   23.3619 H   0  0  0  0  0  0
  -21.6611  -26.7376   22.1241 H   0  0  0  0  0  0
  -19.6871  -25.6293   21.1211 H   0  0  0  0  0  0
  -19.6658  -27.3197   20.6732 H   0  0  0  0  0  0
  -17.4157  -26.6645   21.4037 H   0  0  0  0  0  0
  -18.0337  -26.0062   22.9013 H   0  0  0  0  0  0
  -19.7942  -30.7252   24.2255 H   0  0  0  0  0  0
  -17.5026  -31.6256   24.5188 H   0  0  0  0  0  0
  -15.5351  -30.2998   23.7655 H   0  0  0  0  0  0
  -15.8652  -28.0847   22.7029 H   0  0  0  0  0  0
  -24.5954  -30.6993   25.7843 H   0  0  0  0  0  0
  -24.8965  -32.2836   26.4928 H   0  0  0  0  0  0
  -25.8158  -30.8863   27.0245 H   0  0  0  0  0  0
  -26.2909  -29.6752   24.1155 H   0  0  0  0  0  0
  -27.4090  -29.7255   25.4585 H   0  0  0  0  0  0
  -27.8747  -30.4306   23.9294 H   0  0  0  0  0  0
  -27.2683  -33.3541   26.2140 H   0  0  0  0  0  0
  -28.3871  -32.6874   25.0327 H   0  0  0  0  0  0
  -28.0761  -31.8356   26.5364 H   0  0  0  0  0  0
  -28.2577  -38.0114   24.7543 H   0  0  0  0  0  0
  -28.1086  -36.2646   24.6240 H   0  0  0  0  0  0
  -27.2312  -37.1401   25.8868 H   0  0  0  0  0  0
  -20.9307  -29.8855   21.6992 H   0  0  0  0  0  0
  -26.0164  -38.2882   24.1475 H   0  0  0  0  0  0
  -30.6972  -18.7177   24.2102 H   0  0  0  0  0  0
  -30.1955  -20.5724   22.7355 H   0  0  0  0  0  0
  -29.4425  -17.8081   19.4961 H   0  0  0  0  0  0
  -31.5650  -15.4925   23.3957 H   0  0  0  0  0  0
  -29.8312  -15.3456   23.7259 H   0  0  0  0  0  0
  -30.8312  -16.4065   24.7155 H   0  0  0  0  0  0
  -27.3991  -23.2341   18.1103 H   0  0  0  0  0  0
  -26.9090  -22.6720   19.7125 H   0  0  0  0  0  0
  -27.5371  -21.5348   18.5400 H   0  0  0  0  0  0
  -30.3201  -24.4251   20.2530 H   0  0  0  0  0  0
  -29.5824  -24.7631   18.7360 H   0  0  0  0  0  0
  -28.3544  -25.0899   21.4747 H   0  0  0  0  0  0
  -27.3112  -24.8358   20.1293 H   0  0  0  0  0  0
  -30.4361  -22.0044   20.9689 H   0  0  0  0  0  0
  -28.7417  -21.8747   21.4079 H   0  0  0  0  0  0
  -29.7432  -22.5236   18.6230 H   0  0  0  0  0  0
  -28.9013  -15.1913   21.2382 H   0  0  0  0  0  0
  1 25  1  0  0  0
  1 30  2  0  0  0
  1 83  1  0  0  0
  2  3  1  0  0  0
  2 25  1  0  0  0
  2 85  1  0  0  0
  2 86  1  0  0  0
  3  4  1  0  0  0
  3 87  1  0  0  0
  3 88  1  0  0  0
  4  5  1  0  0  0
  4 89  1  0  0  0
  4 90  1  0  0  0
  5  6  1  0  0  0
  5 26  1  0  0  0
  5 91  1  0  0  0
  6 25  1  0  0  0
  6 92  1  0  0  0
  6 93  1  0  0  0
  7  8  2  0  0  0
  7 26  1  0  0  0
  7 29  1  0  0  0
  8  9  1  0  0  0
  8 22  1  0  0  0
  9 10  1  0  0  0
  9 27  2  0  0  0
 10 11  2  0  0  0
 10 15  1  0  0  0
 11 12  1  0  0  0
 11 94  1  0  0  0
 12 13  2  0  0  0
 12 95  1  0  0  0
 13 14  1  0  0  0
 13 31  1  0  0  0
 14 15  2  0  0  0
 14 96  1  0  0  0
 15 97  1  0  0  0
 16 17  2  0  0  0
 16 21  1  0  0  0
 16 31  1  0  0  0
 17 18  1  0  0  0
 17 98  1  0  0  0
 18 19  2  0  0  0
 18 99  1  0  0  0
 19 20  1  0  0  0
 19 24  1  0  0  0
 20 21  2  0  0  0
 20100  1  0  0  0
 21 23  1  0  0  0
 22 28  1  0  0  0
 22 32  2  0  0  0
 26 27  1  0  0  0
 28101  1  0  0  0
 28102  1  0  0  0
 29103  1  0  0  0
 29104  1  0  0  0
 33 34  1  0  0  0
 33 66  1  0  0  0
 33 70  2  0  0  0
 34 36  1  0  0  0
 34 59  1  0  0  0
 34105  1  0  0  0
 35 44  2  0  0  0
 35 45  1  0  0  0
 35 68  1  0  0  0
 36 56  1  0  0  0
 36106  1  0  0  0
 37 39  1  0  0  0
 37 47  1  0  0  0
 37 66  1  0  0  0
 37107  1  0  0  0
 38 43  2  0  0  0
 38 46  1  0  0  0
 38 47  1  0  0  0
 39 64  1  0  0  0
 39 67  2  0  0  0
 40 52  1  0  0  0
 40 53  2  0  0  0
 40 58  1  0  0  0
 41108  1  0  0  0
 41109  1  0  0  0
 41110  1  0  0  0
 41 48  1  0  0  0
 42 43  1  0  0  0
 42 66  1  0  0  0
 42111  1  0  0  0
 42112  1  0  0  0
 43 44  1  0  0  0
 44113  1  0  0  0
 45 46  2  0  0  0
 45114  1  0  0  0
 46115  1  0  0  0
 47116  1  0  0  0
 47117  1  0  0  0
 48 56  1  0  0  0
 48 65  1  0  0  0
 48118  1  0  0  0
 49 50  1  0  0  0
 49 53  1  0  0  0
 49 64  1  0  0  0
 49119  1  0  0  0
 50 51  1  0  0  0
 50120  1  0  0  0
 50121  1  0  0  0
 51 52  1  0  0  0
 51122  1  0  0  0
 51123  1  0  0  0
 52124  1  0  0  0
 52125  1  0  0  0
 53 54  1  0  0  0
 54 55  2  0  0  0
 54126  1  0  0  0
 55 57  1  0  0  0
 55127  1  0  0  0
 56 69  2  0  0  0
 57 58  2  0  0  0
 57128  1  0  0  0
 58129  1  0  0  0
 59 60  1  0  0  0
 59 61  1  0  0  0
 59 62  1  0  0  0
 60130  1  0  0  0
 60131  1  0  0  0
 60132  1  0  0  0
 61133  1  0  0  0
 61134  1  0  0  0
 61135  1  0  0  0
 62136  1  0  0  0
 62137  1  0  0  0
 62138  1  0  0  0
 63 65  1  0  0  0
 63139  1  0  0  0
 63140  1  0  0  0
 63141  1  0  0  0
 64142  1  0  0  0
 65143  1  0  0  0
 68 80  1  0  0  0
 71 72  2  0  0  0
 71 74  1  0  0  0
 71144  1  0  0  0
 72 76  1  0  0  0
 72145  1  0  0  0
 73 75  1  0  0  0
 73 76  2  0  0  0
 73146  1  0  0  0
 74 75  2  0  0  0
 74 77  1  0  0  0
 75 83  1  0  0  0
 76 84  1  0  0  0
 77147  1  0  0  0
 77148  1  0  0  0
 77149  1  0  0  0
 78150  1  0  0  0
 78151  1  0  0  0
 78152  1  0  0  0
 78 82  1  0  0  0
 79 80  1  0  0  0
 79 82  1  0  0  0
 79153  1  0  0  0
 79154  1  0  0  0
 80155  1  0  0  0
 80156  1  0  0  0
 81 82  1  0  0  0
 81 84  1  0  0  0
 81157  1  0  0  0
 81158  1  0  0  0
 82159  1  0  0  0
 83160  1  0  0  0
M  ISO  4   1 100  68 101  80 101  83 100
M  END
> <chiral flag>
0

> <version>
0

> <s_m_source_file>
/data/baiqing/PycharmProjects/Reinvent-master-3.2/result/LINK_invent/BTK/process_docking_weight1_custom_product_contain_oxygen_bond_distance_aromatic_linkinvent_7_9_3/rearranged_h_0138.sdf

> <i_m_source_file_index>
63

> <r_mmod_Potential_Energy-OPLS-2005>
33.2861442565918

> <r_mmod_Stretch_Energy-OPLS-2005>
54.601146697998

> <r_mmod_Bend_Energy-OPLS-2005>
120.621276855469

> <r_mmod_Torsional_Energy-OPLS-2005>
261.825775146484

> <r_mmod_Improper_Torsional_Energy-OPLS-2005>
6.43376636505127

> <r_mmod_Van_der_Waal_Energy-OPLS-2005>
153.402954101562

> <r_mmod_Electrostatic_Energy-OPLS-2005>
-377.582702636719

> <r_mmod_Solvation_Energy-OPLS-2005>
-206.950180053711

> <b_mmod_Minimization_Converged-OPLS-2005>
0

> <r_mmod_RMS_Derivative-OPLS-2005>
3.78370404243469

$$$$
63
                    3D
 Structure written by MMmdl.
160168  0  0  1  0            999 V2000
  -30.6944  -14.4646   20.6247 C   0  0  0  0  0  0
  -30.4284  -12.3217   19.4187 C   0  0  0  0  0  0
  -29.4936  -12.5169   18.2074 C   0  0  0  0  0  0
  -28.0153  -12.3665   18.6218 C   0  0  0  0  0  0
  -27.6599  -13.2060   19.8791 C   0  0  2  0  0  0
  -28.6993  -12.9646   20.9955 C   0  0  0  0  0  0
  -25.2570  -13.8163   20.5682 C   0  0  0  0  0  0
  -24.1820  -13.0435   20.9164 C   0  0  0  0  0  0
  -24.6369  -11.6900   20.8730 C   0  0  0  0  0  0
  -23.9033  -10.4290   21.0395 C   0  0  0  0  0  0
  -24.3594   -9.4207   21.9172 C   0  0  0  0  0  0
  -23.6277   -8.2239   22.0755 C   0  0  0  0  0  0
  -22.4256   -8.0270   21.3549 C   0  0  0  0  0  0
  -21.9872   -9.0237   20.4646 C   0  0  0  0  0  0
  -22.7204  -10.2116   20.3048 C   0  0  0  0  0  0
  -21.6844   -6.0718   22.5279 C   0  0  0  0  0  0
  -21.4026   -6.5638   23.8211 C   0  0  0  0  0  0
  -21.3645   -5.6795   24.9177 C   0  0  0  0  0  0
  -21.6044   -4.3052   24.7237 C   0  0  0  0  0  0
  -21.8817   -3.8130   23.4360 C   0  0  0  0  0  0
  -21.9194   -4.6945   22.3411 C   0  0  0  0  0  0
  -22.7841  -13.5228   21.1831 C   0  0  0  0  0  0
  -22.1656   -4.2137   21.0988 F   0  0  0  0  0  0
  -21.5615   -3.4530   25.7746 F   0  0  0  0  0  0
  -30.0276  -13.2919   20.4497 N   0  0  0  0  0  0
  -26.3006  -12.9329   20.3390 N   0  0  0  0  0  0
  -25.9303  -11.6480   20.5767 N   0  0  0  0  0  0
  -22.0471  -12.8244   22.0395 N   0  0  0  0  0  0
  -25.4290  -15.1882   20.4113 N   0  0  0  0  0  0
  -31.8020  -14.6787   20.1217 O   0  0  0  0  0  0
  -21.6630   -6.8859   21.4243 O   0  0  0  0  0  0
  -22.3513  -14.5516   20.6660 O   0  0  0  0  0  0
  -24.6144  -31.8637   23.2091 C   0  0  0  0  0  0
  -25.9022  -32.4785   23.8381 C   0  0  1  0  0  0
  -27.2202  -27.3862   20.1095 C   0  0  0  0  0  0
  -25.5859  -33.8602   24.2301 N   0  0  0  0  0  0
  -23.4046  -30.4879   21.5490 C   0  0  2  0  0  0
  -24.8478  -28.9495   20.1114 C   0  0  0  0  0  0
  -22.7401  -29.4637   22.4970 C   0  0  0  0  0  0
  -18.0268  -28.1370   22.8472 C   0  0  0  0  0  0
  -24.1488  -36.7319   23.2647 C   0  0  0  0  0  0
  -25.9368  -30.8128   21.3728 C   0  0  0  0  0  0
  -26.0085  -29.4456   20.7175 C   0  0  0  0  0  0
  -27.1933  -28.6712   20.7136 C   0  0  0  0  0  0
  -26.0464  -26.9267   19.4748 C   0  0  0  0  0  0
  -24.8649  -27.6921   19.4849 C   0  0  0  0  0  0
  -23.6146  -29.8232   20.1631 C   0  0  0  0  0  0
  -25.4110  -36.3099   24.0335 C   0  0  1  0  0  0
  -20.5846  -28.3665   23.1304 C   0  0  2  0  0  0
  -20.6747  -26.9398   22.5426 C   0  0  0  0  0  0
  -19.5731  -26.6374   21.5211 C   0  0  0  0  0  0
  -18.1910  -26.7904   22.1628 C   0  0  0  0  0  0
  -19.1503  -28.8828   23.2884 C   0  0  0  0  0  0
  -18.9442  -30.1430   23.8894 C   0  0  0  0  0  0
  -17.6441  -30.6571   24.0560 C   0  0  0  0  0  0
  -25.9037  -34.9460   23.5128 C   0  0  0  0  0  0
  -16.5337  -29.9078   23.6317 C   0  0  0  0  0  0
  -16.7256  -28.6504   23.0315 C   0  0  0  0  0  0
  -26.4443  -31.6564   25.0713 C   0  0  0  0  0  0
  -25.3703  -31.3669   26.1453 C   0  0  0  0  0  0
  -27.0261  -30.2993   24.6114 C   0  0  0  0  0  0
  -27.6017  -32.4288   25.7442 C   0  0  0  0  0  0
  -27.5577  -37.1839   24.8461 C   0  0  0  0  0  0
  -21.4118  -29.3029   22.3697 N   0  0  0  0  0  0
  -26.4298  -37.3780   23.9387 N   0  0  0  0  0  0
  -24.6700  -31.0707   22.1016 N   0  0  0  0  0  0
  -23.4145  -28.8165   23.3018 O   0  0  0  0  0  0
  -28.3844  -26.6334   20.1598 O   0  0  0  0  0  0
  -26.5627  -34.8914   22.4714 O   0  0  0  0  0  0
  -23.5341  -32.1404   23.7473 O   0  0  0  0  0  0
  -29.9061  -18.9847   22.5470 C   0  0  0  0  0  0
  -29.4025  -20.2764   22.2727 C   0  0  0  0  0  0
  -29.3563  -18.2828   20.2995 C   0  0  0  0  0  0
  -29.9167  -17.9772   21.5592 C   0  0  0  0  0  0
  -28.8727  -20.6107   20.9960 C   0  0  0  0  0  0
  -28.8422  -19.5774   20.0244 C   0  0  0  0  0  0
  -28.0414  -25.1776   22.5370 C   0  0  0  0  0  0
  -26.3752  -23.9692   21.1082 C   0  0  0  0  0  0
  -30.6366  -16.6494   21.8543 C   0  0  0  0  0  0
  -28.3717  -25.1803   20.0247 C   0  0  0  0  0  0
  -28.6620  -22.9940   21.5084 C   0  0  0  0  0  0
  -27.8675  -24.3316   21.2554 C   0  0  0  0  0  0
  -30.0429  -15.4092   21.3309 N   0  0  0  0  0  0
  -28.3896  -21.8761   20.6420 O   0  0  0  0  0  0
  -28.3394  -19.8390   18.7934 F   0  0  0  0  0  0
  -31.4713  -12.4417   19.1146 H   0  0  0  0  0  0
  -30.3536  -11.3050   19.8089 H   0  0  0  0  0  0
  -29.7387  -11.8033   17.4199 H   0  0  0  0  0  0
  -29.6550  -13.5090   17.7837 H   0  0  0  0  0  0
  -27.8335  -11.3087   18.8185 H   0  0  0  0  0  0
  -27.3599  -12.6371   17.7933 H   0  0  0  0  0  0
  -27.7065  -14.2557   19.5910 H   0  0  0  0  0  0
  -28.6824  -11.9179   21.3014 H   0  0  0  0  0  0
  -28.4510  -13.5294   21.8937 H   0  0  0  0  0  0
  -25.2733   -9.5679   22.4745 H   0  0  0  0  0  0
  -23.9971   -7.4630   22.7485 H   0  0  0  0  0  0
  -21.0791   -8.8762   19.8958 H   0  0  0  0  0  0
  -22.3658  -10.9655   19.6154 H   0  0  0  0  0  0
  -21.2041   -7.6148   23.9718 H   0  0  0  0  0  0
  -21.1458   -6.0522   25.9084 H   0  0  0  0  0  0
  -22.0605   -2.7596   23.2871 H   0  0  0  0  0  0
  -22.4083  -11.9918   22.4824 H   0  0  0  0  0  0
  -21.1084  -13.1284   22.2603 H   0  0  0  0  0  0
  -24.6636  -15.8450   20.5302 H   0  0  0  0  0  0
  -26.2868  -15.6302   20.1060 H   0  0  0  0  0  0
  -26.7068  -32.5484   23.1115 H   0  0  0  0  0  0
  -24.9910  -33.9775   25.0367 H   0  0  0  0  0  0
  -22.6972  -31.3081   21.4134 H   0  0  0  0  0  0
  -23.3739  -35.9669   23.3304 H   0  0  0  0  0  0
  -24.3570  -36.8938   22.2063 H   0  0  0  0  0  0
  -23.7259  -37.6538   23.6656 H   0  0  0  0  0  0
  -26.0613  -31.5765   20.6047 H   0  0  0  0  0  0
  -26.8221  -30.8599   21.9940 H   0  0  0  0  0  0
  -28.0843  -29.0449   21.1994 H   0  0  0  0  0  0
  -26.0236  -25.9739   18.9697 H   0  0  0  0  0  0
  -23.9763  -27.3084   19.0022 H   0  0  0  0  0  0
  -23.7338  -30.6022   19.4087 H   0  0  0  0  0  0
  -22.7361  -29.2492   19.8614 H   0  0  0  0  0  0
  -25.1300  -36.1970   25.0832 H   0  0  0  0  0  0
  -20.9950  -28.3246   24.1417 H   0  0  0  0  0  0
  -20.5601  -26.2291   23.3624 H   0  0  0  0  0  0
  -21.6626  -26.7406   22.1241 H   0  0  0  0  0  0
  -19.6899  -25.6289   21.1219 H   0  0  0  0  0  0
  -19.6656  -27.3201   20.6747 H   0  0  0  0  0  0
  -17.4170  -26.6602   21.4049 H   0  0  0  0  0  0
  -18.0349  -26.0063   22.9052 H   0  0  0  0  0  0
  -19.7919  -30.7240   24.2265 H   0  0  0  0  0  0
  -17.5005  -31.6257   24.5158 H   0  0  0  0  0  0
  -15.5331  -30.2983   23.7642 H   0  0  0  0  0  0
  -15.8654  -28.0848   22.6995 H   0  0  0  0  0  0
  -24.5904  -30.6980   25.7778 H   0  0  0  0  0  0
  -24.8864  -32.2831   26.4868 H   0  0  0  0  0  0
  -25.8073  -30.8864   27.0220 H   0  0  0  0  0  0
  -26.2814  -29.6762   24.1144 H   0  0  0  0  0  0
  -27.3999  -29.7222   25.4589 H   0  0  0  0  0  0
  -27.8661  -30.4290   23.9286 H   0  0  0  0  0  0
  -27.2634  -33.3592   26.2019 H   0  0  0  0  0  0
  -28.3799  -32.6829   25.0228 H   0  0  0  0  0  0
  -28.0693  -31.8401   26.5349 H   0  0  0  0  0  0
  -28.2613  -38.0113   24.7454 H   0  0  0  0  0  0
  -28.1050  -36.2650   24.6335 H   0  0  0  0  0  0
  -27.2290  -37.1541   25.8862 H   0  0  0  0  0  0
  -20.9274  -29.8786   21.6961 H   0  0  0  0  0  0
  -26.0185  -38.2865   24.1352 H   0  0  0  0  0  0
  -30.3242  -18.7818   23.5238 H   0  0  0  0  0  0
  -29.4557  -20.9917   23.0769 H   0  0  0  0  0  0
  -29.3525  -17.5368   19.5182 H   0  0  0  0  0  0
  -27.3988  -26.0584   22.5309 H   0  0  0  0  0  0
  -29.0709  -25.5218   22.6490 H   0  0  0  0  0  0
  -27.7845  -24.6190   23.4370 H   0  0  0  0  0  0
  -25.7357  -24.8495   21.0865 H   0  0  0  0  0  0
  -26.0361  -23.3595   21.9450 H   0  0  0  0  0  0
  -26.1885  -23.3979   20.1969 H   0  0  0  0  0  0
  -31.6612  -16.7632   21.4975 H   0  0  0  0  0  0
  -30.7257  -16.5271   22.9350 H   0  0  0  0  0  0
  -27.8851  -24.8645   19.1014 H   0  0  0  0  0  0
  -29.4208  -24.9224   19.8686 H   0  0  0  0  0  0
  -28.4094  -22.6867   22.5225 H   0  0  0  0  0  0
  -29.7358  -23.1856   21.5008 H   0  0  0  0  0  0
  -29.1228  -15.1654   21.6708 H   0  0  0  0  0  0
  1 25  1  0  0  0
  1 30  2  0  0  0
  1 83  1  0  0  0
  2  3  1  0  0  0
  2 25  1  0  0  0
  2 86  1  0  0  0
  2 87  1  0  0  0
  3  4  1  0  0  0
  3 88  1  0  0  0
  3 89  1  0  0  0
  4  5  1  0  0  0
  4 90  1  0  0  0
  4 91  1  0  0  0
  5  6  1  0  0  0
  5 26  1  0  0  0
  5 92  1  0  0  0
  6 25  1  0  0  0
  6 93  1  0  0  0
  6 94  1  0  0  0
  7  8  2  0  0  0
  7 26  1  0  0  0
  7 29  1  0  0  0
  8  9  1  0  0  0
  8 22  1  0  0  0
  9 10  1  0  0  0
  9 27  2  0  0  0
 10 11  2  0  0  0
 10 15  1  0  0  0
 11 12  1  0  0  0
 11 95  1  0  0  0
 12 13  2  0  0  0
 12 96  1  0  0  0
 13 14  1  0  0  0
 13 31  1  0  0  0
 14 15  2  0  0  0
 14 97  1  0  0  0
 15 98  1  0  0  0
 16 17  2  0  0  0
 16 21  1  0  0  0
 16 31  1  0  0  0
 17 18  1  0  0  0
 17 99  1  0  0  0
 18 19  2  0  0  0
 18100  1  0  0  0
 19 20  1  0  0  0
 19 24  1  0  0  0
 20 21  2  0  0  0
 20101  1  0  0  0
 21 23  1  0  0  0
 22 28  1  0  0  0
 22 32  2  0  0  0
 26 27  1  0  0  0
 28102  1  0  0  0
 28103  1  0  0  0
 29104  1  0  0  0
 29105  1  0  0  0
 33 34  1  0  0  0
 33 66  1  0  0  0
 33 70  2  0  0  0
 34 36  1  0  0  0
 34 59  1  0  0  0
 34106  1  0  0  0
 35 44  2  0  0  0
 35 45  1  0  0  0
 35 68  1  0  0  0
 36 56  1  0  0  0
 36107  1  0  0  0
 37 39  1  0  0  0
 37 47  1  0  0  0
 37 66  1  0  0  0
 37108  1  0  0  0
 38 43  2  0  0  0
 38 46  1  0  0  0
 38 47  1  0  0  0
 39 64  1  0  0  0
 39 67  2  0  0  0
 40 52  1  0  0  0
 40 53  2  0  0  0
 40 58  1  0  0  0
 41109  1  0  0  0
 41110  1  0  0  0
 41111  1  0  0  0
 41 48  1  0  0  0
 42 43  1  0  0  0
 42 66  1  0  0  0
 42112  1  0  0  0
 42113  1  0  0  0
 43 44  1  0  0  0
 44114  1  0  0  0
 45 46  2  0  0  0
 45115  1  0  0  0
 46116  1  0  0  0
 47117  1  0  0  0
 47118  1  0  0  0
 48 56  1  0  0  0
 48 65  1  0  0  0
 48119  1  0  0  0
 49 50  1  0  0  0
 49 53  1  0  0  0
 49 64  1  0  0  0
 49120  1  0  0  0
 50 51  1  0  0  0
 50121  1  0  0  0
 50122  1  0  0  0
 51 52  1  0  0  0
 51123  1  0  0  0
 51124  1  0  0  0
 52125  1  0  0  0
 52126  1  0  0  0
 53 54  1  0  0  0
 54 55  2  0  0  0
 54127  1  0  0  0
 55 57  1  0  0  0
 55128  1  0  0  0
 56 69  2  0  0  0
 57 58  2  0  0  0
 57129  1  0  0  0
 58130  1  0  0  0
 59 60  1  0  0  0
 59 61  1  0  0  0
 59 62  1  0  0  0
 60131  1  0  0  0
 60132  1  0  0  0
 60133  1  0  0  0
 61134  1  0  0  0
 61135  1  0  0  0
 61136  1  0  0  0
 62137  1  0  0  0
 62138  1  0  0  0
 62139  1  0  0  0
 63 65  1  0  0  0
 63140  1  0  0  0
 63141  1  0  0  0
 63142  1  0  0  0
 64143  1  0  0  0
 65144  1  0  0  0
 68 80  1  0  0  0
 71 72  2  0  0  0
 71 74  1  0  0  0
 71145  1  0  0  0
 72 75  1  0  0  0
 72146  1  0  0  0
 73 74  2  0  0  0
 73 76  1  0  0  0
 73147  1  0  0  0
 74 79  1  0  0  0
 75 76  2  0  0  0
 75 84  1  0  0  0
 76 85  1  0  0  0
 77148  1  0  0  0
 77149  1  0  0  0
 77150  1  0  0  0
 77 82  1  0  0  0
 78 82  1  0  0  0
 78151  1  0  0  0
 78152  1  0  0  0
 78153  1  0  0  0
 79 83  1  0  0  0
 79154  1  0  0  0
 79155  1  0  0  0
 80 82  1  0  0  0
 80156  1  0  0  0
 80157  1  0  0  0
 81 82  1  0  0  0
 81 84  1  0  0  0
 81158  1  0  0  0
 81159  1  0  0  0
 83160  1  0  0  0
M  ISO  4   1 100  68 101  80 101  83 100
M  END
> <chiral flag>
0

> <version>
0

> <s_m_source_file>
/data/baiqing/PycharmProjects/Reinvent-master-3.2/result/LINK_invent/BTK/process_docking_weight1_custom_product_contain_oxygen_bond_distance_aromatic_linkinvent_7_9_3/rearranged_h_0138.sdf

> <i_m_source_file_index>
64

> <r_mmod_Potential_Energy-OPLS-2005>
-38.4032669067383

> <r_mmod_Stretch_Energy-OPLS-2005>
48.6731262207031

> <r_mmod_Bend_Energy-OPLS-2005>
129.307037353516

> <r_mmod_Torsional_Energy-OPLS-2005>
206.954284667969

> <r_mmod_Improper_Torsional_Energy-OPLS-2005>
2.62394690513611

> <r_mmod_Van_der_Waal_Energy-OPLS-2005>
157.058837890625

> <r_mmod_Electrostatic_Energy-OPLS-2005>
-396.847930908203

> <r_mmod_Solvation_Energy-OPLS-2005>
-202.668045043945

> <b_mmod_Minimization_Converged-OPLS-2005>
0

> <r_mmod_RMS_Derivative-OPLS-2005>
3.29901051521301

$$$$
64
                    3D
 Structure written by MMmdl.
159167  0  0  1  0            999 V2000
  -30.5849  -14.6834   20.4496 C   0  0  0  0  0  0
  -30.4394  -12.4206   19.4354 C   0  0  0  0  0  0
  -29.4952  -12.5182   18.2143 C   0  0  0  0  0  0
  -28.0210  -12.3463   18.6332 C   0  0  0  0  0  0
  -27.6458  -13.2172   19.8594 C   0  0  2  0  0  0
  -28.6984  -13.0826   20.9834 C   0  0  0  0  0  0
  -25.2492  -13.8160   20.5668 C   0  0  0  0  0  0
  -24.1788  -13.0419   20.9214 C   0  0  0  0  0  0
  -24.6375  -11.6897   20.8759 C   0  0  0  0  0  0
  -23.9061  -10.4274   21.0415 C   0  0  0  0  0  0
  -24.3610   -9.4193   21.9191 C   0  0  0  0  0  0
  -23.6284   -8.2227   22.0755 C   0  0  0  0  0  0
  -22.4266   -8.0275   21.3544 C   0  0  0  0  0  0
  -21.9903   -9.0247   20.4638 C   0  0  0  0  0  0
  -22.7244  -10.2120   20.3048 C   0  0  0  0  0  0
  -21.6854   -6.0722   22.5268 C   0  0  0  0  0  0
  -21.4021   -6.5632   23.8203 C   0  0  0  0  0  0
  -21.3651   -5.6781   24.9171 C   0  0  0  0  0  0
  -21.6031   -4.3047   24.7222 C   0  0  0  0  0  0
  -21.8827   -3.8136   23.4346 C   0  0  0  0  0  0
  -21.9202   -4.6952   22.3396 C   0  0  0  0  0  0
  -22.7808  -13.5195   21.1879 C   0  0  0  0  0  0
  -22.1666   -4.2138   21.0977 F   0  0  0  0  0  0
  -21.5622   -3.4530   25.7736 F   0  0  0  0  0  0
  -30.0077  -13.4395   20.4109 N   0  0  0  0  0  0
  -26.2936  -12.9356   20.3323 N   0  0  0  0  0  0
  -25.9305  -11.6507   20.5779 N   0  0  0  0  0  0
  -22.0464  -12.8169   22.0435 N   0  0  0  0  0  0
  -25.4130  -15.1882   20.3997 N   0  0  0  0  0  0
  -31.7567  -14.8673   20.1116 O   0  0  0  0  0  0
  -21.6636   -6.8862   21.4229 O   0  0  0  0  0  0
  -22.3476  -14.5503   20.6738 O   0  0  0  0  0  0
  -24.6286  -31.8573   23.1993 C   0  0  0  0  0  0
  -25.9114  -32.4770   23.8347 C   0  0  1  0  0  0
  -27.2342  -27.3073   20.1178 C   0  0  0  0  0  0
  -25.5902  -33.8566   24.2281 N   0  0  0  0  0  0
  -23.4246  -30.4802   21.5416 C   0  0  2  0  0  0
  -24.8724  -28.9265   20.1159 C   0  0  0  0  0  0
  -22.7502  -29.4609   22.4914 C   0  0  0  0  0  0
  -18.0305  -28.1393   22.8483 C   0  0  0  0  0  0
  -24.1455  -36.7260   23.2651 C   0  0  0  0  0  0
  -25.9662  -30.7845   21.3710 C   0  0  0  0  0  0
  -26.0416  -29.4076   20.7194 C   0  0  0  0  0  0
  -27.2262  -28.6098   20.7084 C   0  0  0  0  0  0
  -26.0401  -26.8774   19.4977 C   0  0  0  0  0  0
  -24.8725  -27.6650   19.4990 C   0  0  0  0  0  0
  -23.6442  -29.8135   20.1580 C   0  0  0  0  0  0
  -25.4087  -36.3072   24.0349 C   0  0  1  0  0  0
  -20.5911  -28.3682   23.1269 C   0  0  2  0  0  0
  -20.6783  -26.9398   22.5412 C   0  0  0  0  0  0
  -19.5754  -26.6388   21.5210 C   0  0  0  0  0  0
  -18.1942  -26.7930   22.1636 C   0  0  0  0  0  0
  -19.1561  -28.8860   23.2882 C   0  0  0  0  0  0
  -18.9487  -30.1450   23.8915 C   0  0  0  0  0  0
  -17.6482  -30.6573   24.0595 C   0  0  0  0  0  0
  -25.9037  -34.9447   23.5123 C   0  0  0  0  0  0
  -16.5375  -29.9089   23.6321 C   0  0  0  0  0  0
  -16.7292  -28.6518   23.0327 C   0  0  0  0  0  0
  -26.4473  -31.6578   25.0722 C   0  0  0  0  0  0
  -25.3691  -31.3712   26.1433 C   0  0  0  0  0  0
  -27.0324  -30.3015   24.6161 C   0  0  0  0  0  0
  -27.6036  -32.4296   25.7510 C   0  0  0  0  0  0
  -27.5553  -37.1790   24.8480 C   0  0  0  0  0  0
  -21.4213  -29.3014   22.3640 N   0  0  0  0  0  0
  -26.4250  -37.3783   23.9443 N   0  0  0  0  0  0
  -24.6926  -31.0583   22.0946 N   0  0  0  0  0  0
  -23.4209  -28.8158   23.3010 O   0  0  0  0  0  0
  -28.3641  -26.4711   20.1019 O   0  0  0  0  0  0
  -26.5622  -34.8925   22.4694 O   0  0  0  0  0  0
  -23.5439  -32.1370   23.7306 O   0  0  0  0  0  0
  -28.5382  -17.7885   19.9524 C   0  0  0  0  0  0
  -30.8418  -18.0237   20.5008 C   0  0  0  0  0  0
  -28.4729  -19.1918   19.7083 C   0  0  0  0  0  0
  -29.7343  -17.1506   20.3656 C   0  0  0  0  0  0
  -29.6202  -19.9923   19.9415 C   0  0  0  0  0  0
  -26.0027  -19.6737   20.0779 C   0  0  0  0  0  0
  -30.6046  -24.3233   19.8721 C   0  0  0  0  0  0
  -27.1917  -19.7667   19.1147 C   0  0  0  0  0  0
  -28.2122  -25.0388   20.4823 C   0  0  0  0  0  0
  -28.9742  -22.4095   20.3595 C   0  0  0  0  0  0
  -29.1263  -23.9108   19.8044 C   0  0  2  0  0  0
  -30.7837  -19.3823   20.3045 N   0  0  0  0  0  0
  -29.7101  -15.7151   20.6803 N   0  0  0  0  0  0
  -29.7217  -21.3682   19.6343 O   0  0  0  0  0  0
  -31.4746  -12.5639   19.1216 H   0  0  0  0  0  0
  -30.3927  -11.4274   19.8828 H   0  0  0  0  0  0
  -29.7587  -11.7667   17.4685 H   0  0  0  0  0  0
  -29.6206  -13.4855   17.7251 H   0  0  0  0  0  0
  -27.8602  -11.2933   18.8660 H   0  0  0  0  0  0
  -27.3622  -12.5764   17.7943 H   0  0  0  0  0  0
  -27.6536  -14.2492   19.5110 H   0  0  0  0  0  0
  -28.7181  -12.0607   21.3651 H   0  0  0  0  0  0
  -28.4436  -13.7150   21.8361 H   0  0  0  0  0  0
  -25.2755   -9.5674   22.4768 H   0  0  0  0  0  0
  -24.0000   -7.4612   22.7466 H   0  0  0  0  0  0
  -21.0848   -8.8771   19.8921 H   0  0  0  0  0  0
  -22.3723  -10.9662   19.6146 H   0  0  0  0  0  0
  -21.2014   -7.6133   23.9704 H   0  0  0  0  0  0
  -21.1452   -6.0512   25.9071 H   0  0  0  0  0  0
  -22.0613   -2.7598   23.2856 H   0  0  0  0  0  0
  -22.4106  -11.9857   22.4845 H   0  0  0  0  0  0
  -21.1066  -13.1151   22.2634 H   0  0  0  0  0  0
  -24.6250  -15.8236   20.4692 H   0  0  0  0  0  0
  -26.2291  -15.6171   19.9887 H   0  0  0  0  0  0
  -26.7195  -32.5446   23.1114 H   0  0  0  0  0  0
  -25.0013  -33.9705   25.0398 H   0  0  0  0  0  0
  -22.7190  -31.2999   21.3945 H   0  0  0  0  0  0
  -23.3731  -35.9575   23.3320 H   0  0  0  0  0  0
  -24.3544  -36.8864   22.2060 H   0  0  0  0  0  0
  -23.7188  -37.6459   23.6661 H   0  0  0  0  0  0
  -26.0942  -31.5410   20.5955 H   0  0  0  0  0  0
  -26.8487  -30.8427   21.9963 H   0  0  0  0  0  0
  -28.1257  -28.9773   21.1823 H   0  0  0  0  0  0
  -26.0007  -25.9186   19.0012 H   0  0  0  0  0  0
  -23.9779  -27.2914   19.0193 H   0  0  0  0  0  0
  -23.7788  -30.5894   19.4032 H   0  0  0  0  0  0
  -22.7624  -29.2516   19.8462 H   0  0  0  0  0  0
  -25.1255  -36.1924   25.0840 H   0  0  0  0  0  0
  -21.0021  -28.3268   24.1382 H   0  0  0  0  0  0
  -20.5655  -26.2295   23.3620 H   0  0  0  0  0  0
  -21.6654  -26.7402   22.1217 H   0  0  0  0  0  0
  -19.6901  -25.6304   21.1225 H   0  0  0  0  0  0
  -19.6675  -27.3209   20.6745 H   0  0  0  0  0  0
  -17.4196  -26.6659   21.4060 H   0  0  0  0  0  0
  -18.0348  -26.0091   22.9050 H   0  0  0  0  0  0
  -19.7973  -30.7259   24.2293 H   0  0  0  0  0  0
  -17.5044  -31.6236   24.5229 H   0  0  0  0  0  0
  -15.5376  -30.2993   23.7639 H   0  0  0  0  0  0
  -15.8698  -28.0847   22.7003 H   0  0  0  0  0  0
  -24.5862  -30.7073   25.7743 H   0  0  0  0  0  0
  -24.8871  -32.2871   26.4857 H   0  0  0  0  0  0
  -25.7988  -30.8881   27.0214 H   0  0  0  0  0  0
  -26.2890  -29.6761   24.1201 H   0  0  0  0  0  0
  -27.4061  -29.7280   25.4652 H   0  0  0  0  0  0
  -27.8729  -30.4333   23.9347 H   0  0  0  0  0  0
  -27.2659  -33.3600   26.2085 H   0  0  0  0  0  0
  -28.3848  -32.6841   25.0337 H   0  0  0  0  0  0
  -28.0676  -31.8402   26.5429 H   0  0  0  0  0  0
  -28.2584  -38.0071   24.7533 H   0  0  0  0  0  0
  -28.1027  -36.2616   24.6285 H   0  0  0  0  0  0
  -27.2288  -37.1426   25.8884 H   0  0  0  0  0  0
  -20.9404  -29.8702   21.6817 H   0  0  0  0  0  0
  -26.0124  -38.2843   24.1477 H   0  0  0  0  0  0
  -27.6544  -17.1904   19.7870 H   0  0  0  0  0  0
  -31.8025  -17.6365   20.8066 H   0  0  0  0  0  0
  -25.0993  -20.0804   19.6221 H   0  0  0  0  0  0
  -26.1922  -20.2279   20.9971 H   0  0  0  0  0  0
  -25.7896  -18.6389   20.3482 H   0  0  0  0  0  0
  -30.7717  -25.2910   19.3974 H   0  0  0  0  0  0
  -31.2395  -23.5963   19.3653 H   0  0  0  0  0  0
  -30.9436  -24.3943   20.9058 H   0  0  0  0  0  0
  -26.9536  -19.2188   18.2009 H   0  0  0  0  0  0
  -27.3355  -20.7956   18.7878 H   0  0  0  0  0  0
  -28.3981  -25.0007   21.5559 H   0  0  0  0  0  0
  -27.1785  -24.7122   20.3821 H   0  0  0  0  0  0
  -27.9173  -22.1537   20.4007 H   0  0  0  0  0  0
  -29.3184  -22.3868   21.3940 H   0  0  0  0  0  0
  -28.8455  -23.8812   18.7503 H   0  0  0  0  0  0
  -28.7983  -15.3655   20.9300 H   0  0  0  0  0  0
  1 25  1  0  0  0
  1 30  2  0  0  0
  1 83  1  0  0  0
  2  3  1  0  0  0
  2 25  1  0  0  0
  2 85  1  0  0  0
  2 86  1  0  0  0
  3  4  1  0  0  0
  3 87  1  0  0  0
  3 88  1  0  0  0
  4  5  1  0  0  0
  4 89  1  0  0  0
  4 90  1  0  0  0
  5  6  1  0  0  0
  5 26  1  0  0  0
  5 91  1  0  0  0
  6 25  1  0  0  0
  6 92  1  0  0  0
  6 93  1  0  0  0
  7  8  2  0  0  0
  7 26  1  0  0  0
  7 29  1  0  0  0
  8  9  1  0  0  0
  8 22  1  0  0  0
  9 10  1  0  0  0
  9 27  2  0  0  0
 10 11  2  0  0  0
 10 15  1  0  0  0
 11 12  1  0  0  0
 11 94  1  0  0  0
 12 13  2  0  0  0
 12 95  1  0  0  0
 13 14  1  0  0  0
 13 31  1  0  0  0
 14 15  2  0  0  0
 14 96  1  0  0  0
 15 97  1  0  0  0
 16 17  2  0  0  0
 16 21  1  0  0  0
 16 31  1  0  0  0
 17 18  1  0  0  0
 17 98  1  0  0  0
 18 19  2  0  0  0
 18 99  1  0  0  0
 19 20  1  0  0  0
 19 24  1  0  0  0
 20 21  2  0  0  0
 20100  1  0  0  0
 21 23  1  0  0  0
 22 28  1  0  0  0
 22 32  2  0  0  0
 26 27  1  0  0  0
 28101  1  0  0  0
 28102  1  0  0  0
 29103  1  0  0  0
 29104  1  0  0  0
 33 34  1  0  0  0
 33 66  1  0  0  0
 33 70  2  0  0  0
 34 36  1  0  0  0
 34 59  1  0  0  0
 34105  1  0  0  0
 35 44  2  0  0  0
 35 45  1  0  0  0
 35 68  1  0  0  0
 36 56  1  0  0  0
 36106  1  0  0  0
 37 39  1  0  0  0
 37 47  1  0  0  0
 37 66  1  0  0  0
 37107  1  0  0  0
 38 43  2  0  0  0
 38 46  1  0  0  0
 38 47  1  0  0  0
 39 64  1  0  0  0
 39 67  2  0  0  0
 40 52  1  0  0  0
 40 53  2  0  0  0
 40 58  1  0  0  0
 41108  1  0  0  0
 41109  1  0  0  0
 41110  1  0  0  0
 41 48  1  0  0  0
 42 43  1  0  0  0
 42 66  1  0  0  0
 42111  1  0  0  0
 42112  1  0  0  0
 43 44  1  0  0  0
 44113  1  0  0  0
 45 46  2  0  0  0
 45114  1  0  0  0
 46115  1  0  0  0
 47116  1  0  0  0
 47117  1  0  0  0
 48 56  1  0  0  0
 48 65  1  0  0  0
 48118  1  0  0  0
 49 50  1  0  0  0
 49 53  1  0  0  0
 49 64  1  0  0  0
 49119  1  0  0  0
 50 51  1  0  0  0
 50120  1  0  0  0
 50121  1  0  0  0
 51 52  1  0  0  0
 51122  1  0  0  0
 51123  1  0  0  0
 52124  1  0  0  0
 52125  1  0  0  0
 53 54  1  0  0  0
 54 55  2  0  0  0
 54126  1  0  0  0
 55 57  1  0  0  0
 55127  1  0  0  0
 56 69  2  0  0  0
 57 58  2  0  0  0
 57128  1  0  0  0
 58129  1  0  0  0
 59 60  1  0  0  0
 59 61  1  0  0  0
 59 62  1  0  0  0
 60130  1  0  0  0
 60131  1  0  0  0
 60132  1  0  0  0
 61133  1  0  0  0
 61134  1  0  0  0
 61135  1  0  0  0
 62136  1  0  0  0
 62137  1  0  0  0
 62138  1  0  0  0
 63 65  1  0  0  0
 63139  1  0  0  0
 63140  1  0  0  0
 63141  1  0  0  0
 64142  1  0  0  0
 65143  1  0  0  0
 68 79  1  0  0  0
 71 73  2  0  0  0
 71 74  1  0  0  0
 71144  1  0  0  0
 72 74  2  0  0  0
 72 82  1  0  0  0
 72145  1  0  0  0
 73 75  1  0  0  0
 73 78  1  0  0  0
 74 83  1  0  0  0
 75 82  2  0  0  0
 75 84  1  0  0  0
 76 78  1  0  0  0
 76146  1  0  0  0
 76147  1  0  0  0
 76148  1  0  0  0
 77149  1  0  0  0
 77150  1  0  0  0
 77151  1  0  0  0
 77 81  1  0  0  0
 78152  1  0  0  0
 78153  1  0  0  0
 79 81  1  0  0  0
 79154  1  0  0  0
 79155  1  0  0  0
 80 81  1  0  0  0
 80 84  1  0  0  0
 80156  1  0  0  0
 80157  1  0  0  0
 81158  1  0  0  0
 83159  1  0  0  0
M  ISO  4   1 100  68 101  79 101  83 100
M  END
> <chiral flag>
0

> <version>
0

> <s_m_source_file>
/data/baiqing/PycharmProjects/Reinvent-master-3.2/result/LINK_invent/BTK/process_docking_weight1_custom_product_contain_oxygen_bond_distance_aromatic_linkinvent_7_9_3/rearranged_h_0138.sdf

> <i_m_source_file_index>
65

> <r_mmod_Potential_Energy-OPLS-2005>
-80.013557434082

> <r_mmod_Stretch_Energy-OPLS-2005>
86.1701965332031

> <r_mmod_Bend_Energy-OPLS-2005>
148.859786987305

> <r_mmod_Torsional_Energy-OPLS-2005>
266.575744628906

> <r_mmod_Improper_Torsional_Energy-OPLS-2005>
7.29433250427246

> <r_mmod_Van_der_Waal_Energy-OPLS-2005>
134.3720703125

> <r_mmod_Electrostatic_Energy-OPLS-2005>
-559.716796875

> <r_mmod_Solvation_Energy-OPLS-2005>
-222.242782592773

> <b_mmod_Minimization_Converged-OPLS-2005>
0

> <r_mmod_RMS_Derivative-OPLS-2005>
2.37482976913452

$$$$
65
                    3D
 Structure written by MMmdl.
157166  0  0  1  0            999 V2000
  -30.5733  -14.8104   20.4111 C   0  0  0  0  0  0
  -30.4389  -12.4854   19.4923 C   0  0  0  0  0  0
  -29.5212  -12.5128   18.2486 C   0  0  0  0  0  0
  -28.0475  -12.3317   18.6573 C   0  0  0  0  0  0
  -27.6450  -13.2346   19.8532 C   0  0  2  0  0  0
  -28.6862  -13.1881   20.9916 C   0  0  0  0  0  0
  -25.2549  -13.8195   20.5696 C   0  0  0  0  0  0
  -24.1826  -13.0450   20.9197 C   0  0  0  0  0  0
  -24.6408  -11.6921   20.8733 C   0  0  0  0  0  0
  -23.9075  -10.4294   21.0404 C   0  0  0  0  0  0
  -24.3617   -9.4206   21.9178 C   0  0  0  0  0  0
  -23.6289   -8.2239   22.0741 C   0  0  0  0  0  0
  -22.4268   -8.0283   21.3538 C   0  0  0  0  0  0
  -21.9911   -9.0268   20.4634 C   0  0  0  0  0  0
  -22.7244  -10.2144   20.3048 C   0  0  0  0  0  0
  -21.6858   -6.0735   22.5269 C   0  0  0  0  0  0
  -21.4019   -6.5627   23.8197 C   0  0  0  0  0  0
  -21.3664   -5.6773   24.9160 C   0  0  0  0  0  0
  -21.6052   -4.3041   24.7208 C   0  0  0  0  0  0
  -21.8819   -3.8139   23.4326 C   0  0  0  0  0  0
  -21.9189   -4.6962   22.3386 C   0  0  0  0  0  0
  -22.7848  -13.5245   21.1855 C   0  0  0  0  0  0
  -22.1654   -4.2154   21.0965 F   0  0  0  0  0  0
  -21.5643   -3.4516   25.7719 F   0  0  0  0  0  0
  -29.9821  -13.5596   20.4118 N   0  0  0  0  0  0
  -26.2959  -12.9405   20.3273 N   0  0  0  0  0  0
  -25.9341  -11.6543   20.5740 N   0  0  0  0  0  0
  -22.0473  -12.8232   22.0398 N   0  0  0  0  0  0
  -25.4319  -15.1914   20.4118 N   0  0  0  0  0  0
  -31.7602  -14.8955   20.0752 O   0  0  0  0  0  0
  -21.6623   -6.8891   21.4234 O   0  0  0  0  0  0
  -22.3533  -14.5554   20.6712 O   0  0  0  0  0  0
  -24.6360  -31.8512   23.1936 C   0  0  0  0  0  0
  -25.9170  -32.4731   23.8316 C   0  0  1  0  0  0
  -27.2287  -27.2341   20.1172 C   0  0  0  0  0  0
  -25.5960  -33.8530   24.2254 N   0  0  0  0  0  0
  -23.4369  -30.4729   21.5336 C   0  0  2  0  0  0
  -24.8896  -28.9162   20.0990 C   0  0  0  0  0  0
  -22.7546  -29.4584   22.4841 C   0  0  0  0  0  0
  -18.0308  -28.1392   22.8485 C   0  0  0  0  0  0
  -24.1505  -36.7257   23.2641 C   0  0  0  0  0  0
  -25.9867  -30.7533   21.3830 C   0  0  0  0  0  0
  -26.0596  -29.3756   20.7157 C   0  0  0  0  0  0
  -27.2289  -28.5443   20.7152 C   0  0  0  0  0  0
  -26.0365  -26.8471   19.4690 C   0  0  0  0  0  0
  -24.8847  -27.6631   19.4626 C   0  0  0  0  0  0
  -23.6609  -29.8057   20.1493 C   0  0  0  0  0  0
  -25.4123  -36.3050   24.0334 C   0  0  1  0  0  0
  -20.5917  -28.3719   23.1242 C   0  0  2  0  0  0
  -20.6786  -26.9427   22.5403 C   0  0  0  0  0  0
  -19.5753  -26.6383   21.5212 C   0  0  0  0  0  0
  -18.1930  -26.7941   22.1621 C   0  0  0  0  0  0
  -19.1562  -28.8873   23.2864 C   0  0  0  0  0  0
  -18.9475  -30.1463   23.8892 C   0  0  0  0  0  0
  -17.6473  -30.6595   24.0550 C   0  0  0  0  0  0
  -25.9061  -34.9422   23.5096 C   0  0  0  0  0  0
  -16.5362  -29.9086   23.6331 C   0  0  0  0  0  0
  -16.7288  -28.6501   23.0359 C   0  0  0  0  0  0
  -26.4526  -31.6553   25.0712 C   0  0  0  0  0  0
  -25.3741  -31.3713   26.1428 C   0  0  0  0  0  0
  -27.0370  -30.2953   24.6242 C   0  0  0  0  0  0
  -27.6102  -32.4284   25.7465 C   0  0  0  0  0  0
  -27.5588  -37.1788   24.8469 C   0  0  0  0  0  0
  -21.4237  -29.3067   22.3621 N   0  0  0  0  0  0
  -26.4299  -37.3752   23.9407 N   0  0  0  0  0  0
  -24.7049  -31.0448   22.0924 N   0  0  0  0  0  0
  -23.4230  -28.8119   23.2952 O   0  0  0  0  0  0
  -28.2982  -26.3080   20.2400 O   0  0  0  0  0  0
  -26.5618  -34.8909   22.4656 O   0  0  0  0  0  0
  -23.5496  -32.1366   23.7190 O   0  0  0  0  0  0
  -29.8882  -19.7674   18.4209 C   0  0  0  0  0  0
  -30.4079  -17.3786   18.6760 C   0  0  0  0  0  0
  -29.3330  -18.6077   20.4800 C   0  0  0  0  0  0
  -30.4081  -18.5608   17.9100 C   0  0  0  0  0  0
  -29.3439  -19.8722   19.7219 C   0  0  0  0  0  0
  -29.8646  -17.3248   19.9787 C   0  0  0  0  0  0
  -28.5198  -23.7352   20.0569 C   0  0  0  0  0  0
  -28.3530  -25.0397   19.5715 C   0  0  0  0  0  0
  -28.5244  -23.2416   21.4920 C   0  0  0  0  0  0
  -28.7450  -22.4200   19.2336 C   0  0  0  0  0  0
  -28.9011  -21.7115   21.4947 C   0  0  0  0  0  0
  -30.9534  -18.5200   16.4957 C   0  0  0  0  0  0
  -28.8585  -21.2038   20.1205 N   0  0  0  0  0  0
  -29.8023  -15.9643   20.6321 N   0  0  0  0  0  0
  -31.4813  -12.6097   19.1916 H   0  0  0  0  0  0
  -30.3905  -11.5137   19.9859 H   0  0  0  0  0  0
  -29.8128  -11.7311   17.5447 H   0  0  0  0  0  0
  -29.6434  -13.4618   17.7237 H   0  0  0  0  0  0
  -27.9066  -11.2836   18.9247 H   0  0  0  0  0  0
  -27.3946  -12.5206   17.8047 H   0  0  0  0  0  0
  -27.6370  -14.2529   19.4634 H   0  0  0  0  0  0
  -28.7381  -12.1914   21.4322 H   0  0  0  0  0  0
  -28.4154  -13.8670   21.8021 H   0  0  0  0  0  0
  -25.2767   -9.5682   22.4743 H   0  0  0  0  0  0
  -24.0003   -7.4627   22.7447 H   0  0  0  0  0  0
  -21.0848   -8.8816   19.8931 H   0  0  0  0  0  0
  -22.3727  -10.9695   19.6155 H   0  0  0  0  0  0
  -21.2008   -7.6130   23.9721 H   0  0  0  0  0  0
  -21.1491   -6.0485   25.9071 H   0  0  0  0  0  0
  -22.0596   -2.7600   23.2804 H   0  0  0  0  0  0
  -22.4063  -11.9889   22.4791 H   0  0  0  0  0  0
  -21.1105  -13.1305   22.2609 H   0  0  0  0  0  0
  -24.6817  -15.8617   20.5418 H   0  0  0  0  0  0
  -26.2880  -15.6154   20.0773 H   0  0  0  0  0  0
  -26.7234  -32.5387   23.1052 H   0  0  0  0  0  0
  -25.0161  -33.9661   25.0438 H   0  0  0  0  0  0
  -22.7360  -31.2961   21.3822 H   0  0  0  0  0  0
  -23.3781  -35.9580   23.3290 H   0  0  0  0  0  0
  -24.3610  -36.8882   22.2063 H   0  0  0  0  0  0
  -23.7252  -37.6451   23.6662 H   0  0  0  0  0  0
  -26.1423  -31.5209   20.6230 H   0  0  0  0  0  0
  -26.8568  -30.7923   22.0271 H   0  0  0  0  0  0
  -28.1219  -28.8823   21.2230 H   0  0  0  0  0  0
  -25.9694  -25.8796   18.9931 H   0  0  0  0  0  0
  -23.9905  -27.3075   18.9708 H   0  0  0  0  0  0
  -23.7897  -30.5820   19.3933 H   0  0  0  0  0  0
  -22.7806  -29.2385   19.8430 H   0  0  0  0  0  0
  -25.1306  -36.1892   25.0829 H   0  0  0  0  0  0
  -21.0022  -28.3307   24.1356 H   0  0  0  0  0  0
  -20.5666  -26.2335   23.3617 H   0  0  0  0  0  0
  -21.6652  -26.7431   22.1206 H   0  0  0  0  0  0
  -19.6898  -25.6284   21.1260 H   0  0  0  0  0  0
  -19.6670  -27.3177   20.6725 H   0  0  0  0  0  0
  -17.4199  -26.6712   21.4013 H   0  0  0  0  0  0
  -18.0303  -26.0079   22.9012 H   0  0  0  0  0  0
  -19.7945  -30.7280   24.2269 H   0  0  0  0  0  0
  -17.5021  -31.6275   24.5145 H   0  0  0  0  0  0
  -15.5357  -30.2980   23.7644 H   0  0  0  0  0  0
  -15.8699  -28.0810   22.7077 H   0  0  0  0  0  0
  -24.5905  -30.7082   25.7741 H   0  0  0  0  0  0
  -24.8944  -32.2880   26.4868 H   0  0  0  0  0  0
  -25.8048  -30.8864   27.0197 H   0  0  0  0  0  0
  -26.2959  -29.6667   24.1290 H   0  0  0  0  0  0
  -27.4042  -29.7255   25.4786 H   0  0  0  0  0  0
  -27.8853  -30.4184   23.9507 H   0  0  0  0  0  0
  -27.2756  -33.3611   26.2019 H   0  0  0  0  0  0
  -28.3917  -32.6792   25.0276 H   0  0  0  0  0  0
  -28.0771  -31.8413   26.5384 H   0  0  0  0  0  0
  -28.2602  -38.0090   24.7514 H   0  0  0  0  0  0
  -28.1086  -36.2614   24.6289 H   0  0  0  0  0  0
  -27.2306  -37.1443   25.8876 H   0  0  0  0  0  0
  -20.9416  -29.8817   21.6856 H   0  0  0  0  0  0
  -26.0173  -38.2833   24.1370 H   0  0  0  0  0  0
  -29.9234  -20.6286   17.7707 H   0  0  0  0  0  0
  -30.8058  -16.4857   18.2170 H   0  0  0  0  0  0
  -28.8885  -18.6221   21.4648 H   0  0  0  0  0  0
  -28.3709  -25.2012   18.5028 H   0  0  0  0  0  0
  -27.5135  -23.3667   21.8814 H   0  0  0  0  0  0
  -29.1917  -23.8362   22.1161 H   0  0  0  0  0  0
  -29.6662  -22.5534   18.6639 H   0  0  0  0  0  0
  -27.9317  -22.2934   18.5162 H   0  0  0  0  0  0
  -28.2236  -21.1477   22.1371 H   0  0  0  0  0  0
  -29.9095  -21.5772   21.8890 H   0  0  0  0  0  0
  -31.1031  -19.5222   16.0921 H   0  0  0  0  0  0
  -30.2583  -17.9899   15.8429 H   0  0  0  0  0  0
  -31.9120  -18.0023   16.4645 H   0  0  0  0  0  0
  -28.9612  -15.7972   21.1655 H   0  0  0  0  0  0
  1 25  1  0  0  0
  1 30  2  0  0  0
  1 84  1  0  0  0
  2  3  1  0  0  0
  2 25  1  0  0  0
  2 85  1  0  0  0
  2 86  1  0  0  0
  3  4  1  0  0  0
  3 87  1  0  0  0
  3 88  1  0  0  0
  4  5  1  0  0  0
  4 89  1  0  0  0
  4 90  1  0  0  0
  5  6  1  0  0  0
  5 26  1  0  0  0
  5 91  1  0  0  0
  6 25  1  0  0  0
  6 92  1  0  0  0
  6 93  1  0  0  0
  7  8  2  0  0  0
  7 26  1  0  0  0
  7 29  1  0  0  0
  8  9  1  0  0  0
  8 22  1  0  0  0
  9 10  1  0  0  0
  9 27  2  0  0  0
 10 11  2  0  0  0
 10 15  1  0  0  0
 11 12  1  0  0  0
 11 94  1  0  0  0
 12 13  2  0  0  0
 12 95  1  0  0  0
 13 14  1  0  0  0
 13 31  1  0  0  0
 14 15  2  0  0  0
 14 96  1  0  0  0
 15 97  1  0  0  0
 16 17  2  0  0  0
 16 21  1  0  0  0
 16 31  1  0  0  0
 17 18  1  0  0  0
 17 98  1  0  0  0
 18 19  2  0  0  0
 18 99  1  0  0  0
 19 20  1  0  0  0
 19 24  1  0  0  0
 20 21  2  0  0  0
 20100  1  0  0  0
 21 23  1  0  0  0
 22 28  1  0  0  0
 22 32  2  0  0  0
 26 27  1  0  0  0
 28101  1  0  0  0
 28102  1  0  0  0
 29103  1  0  0  0
 29104  1  0  0  0
 33 34  1  0  0  0
 33 66  1  0  0  0
 33 70  2  0  0  0
 34 36  1  0  0  0
 34 59  1  0  0  0
 34105  1  0  0  0
 35 44  2  0  0  0
 35 45  1  0  0  0
 35 68  1  0  0  0
 36 56  1  0  0  0
 36106  1  0  0  0
 37 39  1  0  0  0
 37 47  1  0  0  0
 37 66  1  0  0  0
 37107  1  0  0  0
 38 43  2  0  0  0
 38 46  1  0  0  0
 38 47  1  0  0  0
 39 64  1  0  0  0
 39 67  2  0  0  0
 40 52  1  0  0  0
 40 53  2  0  0  0
 40 58  1  0  0  0
 41108  1  0  0  0
 41109  1  0  0  0
 41110  1  0  0  0
 41 48  1  0  0  0
 42 43  1  0  0  0
 42 66  1  0  0  0
 42111  1  0  0  0
 42112  1  0  0  0
 43 44  1  0  0  0
 44113  1  0  0  0
 45 46  2  0  0  0
 45114  1  0  0  0
 46115  1  0  0  0
 47116  1  0  0  0
 47117  1  0  0  0
 48 56  1  0  0  0
 48 65  1  0  0  0
 48118  1  0  0  0
 49 50  1  0  0  0
 49 53  1  0  0  0
 49 64  1  0  0  0
 49119  1  0  0  0
 50 51  1  0  0  0
 50120  1  0  0  0
 50121  1  0  0  0
 51 52  1  0  0  0
 51122  1  0  0  0
 51123  1  0  0  0
 52124  1  0  0  0
 52125  1  0  0  0
 53 54  1  0  0  0
 54 55  2  0  0  0
 54126  1  0  0  0
 55 57  1  0  0  0
 55127  1  0  0  0
 56 69  2  0  0  0
 57 58  2  0  0  0
 57128  1  0  0  0
 58129  1  0  0  0
 59 60  1  0  0  0
 59 61  1  0  0  0
 59 62  1  0  0  0
 60130  1  0  0  0
 60131  1  0  0  0
 60132  1  0  0  0
 61133  1  0  0  0
 61134  1  0  0  0
 61135  1  0  0  0
 62136  1  0  0  0
 62137  1  0  0  0
 62138  1  0  0  0
 63 65  1  0  0  0
 63139  1  0  0  0
 63140  1  0  0  0
 63141  1  0  0  0
 64142  1  0  0  0
 65143  1  0  0  0
 68 78  1  0  0  0
 71 74  2  0  0  0
 71 75  1  0  0  0
 71144  1  0  0  0
 72 74  1  0  0  0
 72 76  2  0  0  0
 72145  1  0  0  0
 73 75  2  0  0  0
 73 76  1  0  0  0
 73146  1  0  0  0
 74 82  1  0  0  0
 75 83  1  0  0  0
 76 84  1  0  0  0
 77 78  2  0  0  0
 77 79  1  0  0  0
 77 80  1  0  0  0
 78147  1  0  0  0
 79 81  1  0  0  0
 79148  1  0  0  0
 79149  1  0  0  0
 80 83  1  0  0  0
 80150  1  0  0  0
 80151  1  0  0  0
 81 83  1  0  0  0
 81152  1  0  0  0
 81153  1  0  0  0
 82154  1  0  0  0
 82155  1  0  0  0
 82156  1  0  0  0
 84157  1  0  0  0
M  ISO  4   1 100  68 101  78 101  84 100
M  END
> <chiral flag>
0

> <version>
0

> <s_m_source_file>
/data/baiqing/PycharmProjects/Reinvent-master-3.2/result/LINK_invent/BTK/process_docking_weight1_custom_product_contain_oxygen_bond_distance_aromatic_linkinvent_7_9_3/rearranged_h_0138.sdf

> <i_m_source_file_index>
66

> <r_mmod_Potential_Energy-OPLS-2005>
311.302154541016

> <r_mmod_Stretch_Energy-OPLS-2005>
143.249877929688

> <r_mmod_Bend_Energy-OPLS-2005>
213.501953125

> <r_mmod_Torsional_Energy-OPLS-2005>
257.360748291016

> <r_mmod_Improper_Torsional_Energy-OPLS-2005>
6.15233755111694

> <r_mmod_Van_der_Waal_Energy-OPLS-2005>
134.730255126953

> <r_mmod_Electrostatic_Energy-OPLS-2005>
-330.218688964844

> <r_mmod_Solvation_Energy-OPLS-2005>
-227.568786621094

> <b_mmod_Minimization_Converged-OPLS-2005>
0

> <r_mmod_RMS_Derivative-OPLS-2005>
2.55071544647217

$$$$
66
                    3D
 Structure written by MMmdl.
156165  0  0  1  0            999 V2000
  -30.5659  -14.7639   20.4657 C   0  0  0  0  0  0
  -30.4468  -12.4704   19.4668 C   0  0  0  0  0  0
  -29.5161  -12.5083   18.2338 C   0  0  0  0  0  0
  -28.0407  -12.3285   18.6460 C   0  0  0  0  0  0
  -27.6411  -13.2234   19.8484 C   0  0  2  0  0  0
  -28.6873  -13.1384   20.9828 C   0  0  0  0  0  0
  -25.2512  -13.8178   20.5680 C   0  0  0  0  0  0
  -24.1796  -13.0432   20.9191 C   0  0  0  0  0  0
  -24.6357  -11.6899   20.8731 C   0  0  0  0  0  0
  -23.9040  -10.4298   21.0396 C   0  0  0  0  0  0
  -24.3593   -9.4213   21.9174 C   0  0  0  0  0  0
  -23.6277   -8.2253   22.0760 C   0  0  0  0  0  0
  -22.4278   -8.0275   21.3540 C   0  0  0  0  0  0
  -21.9896   -9.0235   20.4631 C   0  0  0  0  0  0
  -22.7220  -10.2109   20.3039 C   0  0  0  0  0  0
  -21.6843   -6.0723   22.5263 C   0  0  0  0  0  0
  -21.4012   -6.5634   23.8201 C   0  0  0  0  0  0
  -21.3659   -5.6781   24.9162 C   0  0  0  0  0  0
  -21.6063   -4.3045   24.7216 C   0  0  0  0  0  0
  -21.8820   -3.8128   23.4331 C   0  0  0  0  0  0
  -21.9196   -4.6950   22.3379 C   0  0  0  0  0  0
  -22.7817  -13.5219   21.1830 C   0  0  0  0  0  0
  -22.1666   -4.2131   21.0952 F   0  0  0  0  0  0
  -21.5631   -3.4512   25.7735 F   0  0  0  0  0  0
  -29.9857  -13.5155   20.4056 N   0  0  0  0  0  0
  -26.2915  -12.9334   20.3238 N   0  0  0  0  0  0
  -25.9283  -11.6490   20.5721 N   0  0  0  0  0  0
  -22.0449  -12.8220   22.0381 N   0  0  0  0  0  0
  -25.4229  -15.1899   20.4119 N   0  0  0  0  0  0
  -31.7583  -14.9060   20.1767 O   0  0  0  0  0  0
  -21.6639   -6.8860   21.4241 O   0  0  0  0  0  0
  -22.3502  -14.5521   20.6680 O   0  0  0  0  0  0
  -24.6306  -31.8549   23.1978 C   0  0  0  0  0  0
  -25.9116  -32.4767   23.8336 C   0  0  1  0  0  0
  -27.2136  -27.2594   20.1368 C   0  0  0  0  0  0
  -25.5919  -33.8571   24.2303 N   0  0  0  0  0  0
  -23.4297  -30.4781   21.5390 C   0  0  2  0  0  0
  -24.8791  -28.9198   20.1112 C   0  0  0  0  0  0
  -22.7471  -29.4635   22.4903 C   0  0  0  0  0  0
  -18.0280  -28.1413   22.8503 C   0  0  0  0  0  0
  -24.1488  -36.7248   23.2650 C   0  0  0  0  0  0
  -25.9745  -30.7714   21.3716 C   0  0  0  0  0  0
  -26.0504  -29.3887   20.7232 C   0  0  0  0  0  0
  -27.2256  -28.5700   20.7243 C   0  0  0  0  0  0
  -26.0235  -26.8513   19.5081 C   0  0  0  0  0  0
  -24.8694  -27.6589   19.4931 C   0  0  0  0  0  0
  -23.6515  -29.8093   20.1572 C   0  0  0  0  0  0
  -25.4091  -36.3068   24.0371 C   0  0  1  0  0  0
  -20.5886  -28.3692   23.1280 C   0  0  2  0  0  0
  -20.6806  -26.9421   22.5400 C   0  0  0  0  0  0
  -19.5765  -26.6409   21.5222 C   0  0  0  0  0  0
  -18.1944  -26.7986   22.1609 C   0  0  0  0  0  0
  -19.1556  -28.8858   23.2920 C   0  0  0  0  0  0
  -18.9487  -30.1470   23.8920 C   0  0  0  0  0  0
  -17.6502  -30.6615   24.0581 C   0  0  0  0  0  0
  -25.9012  -34.9448   23.5105 C   0  0  0  0  0  0
  -16.5366  -29.9132   23.6342 C   0  0  0  0  0  0
  -16.7282  -28.6547   23.0348 C   0  0  0  0  0  0
  -26.4496  -31.6569   25.0694 C   0  0  0  0  0  0
  -25.3738  -31.3687   26.1409 C   0  0  0  0  0  0
  -27.0356  -30.3034   24.6071 C   0  0  0  0  0  0
  -27.6102  -32.4226   25.7466 C   0  0  0  0  0  0
  -27.5569  -37.1780   24.8477 C   0  0  0  0  0  0
  -21.4169  -29.3086   22.3689 N   0  0  0  0  0  0
  -26.4275  -37.3755   23.9436 N   0  0  0  0  0  0
  -24.6985  -31.0484   22.0961 N   0  0  0  0  0  0
  -23.4162  -28.8150   23.2982 O   0  0  0  0  0  0
  -28.2890  -26.3516   20.1133 O   0  0  0  0  0  0
  -26.5562  -34.8917   22.4668 O   0  0  0  0  0  0
  -23.5445  -32.1404   23.7255 O   0  0  0  0  0  0
  -30.6495  -19.5017   20.9250 C   0  0  0  0  0  0
  -30.8938  -18.0640   20.9855 C   0  0  0  0  0  0
  -29.4072  -19.8917   20.4636 C   0  0  0  0  0  0
  -29.8475  -17.2474   20.5936 C   0  0  0  0  0  0
  -27.4292  -23.0576   19.4744 C   0  0  0  0  0  0
  -27.6332  -21.5025   19.4735 C   0  0  0  0  0  0
  -29.2812  -22.5330   20.8539 C   0  0  0  0  0  0
  -28.0480  -23.5616   20.7995 C   0  0  2  0  0  0
  -27.0983  -23.1463   21.9653 C   0  0  0  0  0  0
  -28.2608  -25.1809   21.0458 C   0  0  0  0  0  0
  -28.8485  -21.2286   20.2507 N   0  0  0  0  0  0
  -29.7002  -15.8446   20.6025 N   0  0  0  0  0  0
  -28.5267  -18.3678   20.1166 S   0  0  0  0  0  0
  -31.4818  -12.6288   19.1616 H   0  0  0  0  0  0
  -30.4250  -11.4901   19.9434 H   0  0  0  0  0  0
  -29.8087  -11.7391   17.5192 H   0  0  0  0  0  0
  -29.6346  -13.4620   17.7173 H   0  0  0  0  0  0
  -27.8959  -11.2784   18.9048 H   0  0  0  0  0  0
  -27.3834  -12.5184   17.7955 H   0  0  0  0  0  0
  -27.6366  -14.2472   19.4715 H   0  0  0  0  0  0
  -28.7280  -12.1301   21.3940 H   0  0  0  0  0  0
  -28.4141  -13.7938   21.8116 H   0  0  0  0  0  0
  -25.2740   -9.5699   22.4736 H   0  0  0  0  0  0
  -23.9987   -7.4643   22.7477 H   0  0  0  0  0  0
  -21.0833   -8.8720   19.8915 H   0  0  0  0  0  0
  -22.3673  -10.9631   19.6124 H   0  0  0  0  0  0
  -21.2002   -7.6142   23.9705 H   0  0  0  0  0  0
  -21.1483   -6.0499   25.9063 H   0  0  0  0  0  0
  -22.0608   -2.7594   23.2817 H   0  0  0  0  0  0
  -22.4015  -11.9847   22.4759 H   0  0  0  0  0  0
  -21.1052  -13.1224   22.2556 H   0  0  0  0  0  0
  -24.6551  -15.8425   20.5288 H   0  0  0  0  0  0
  -26.2645  -15.6319   20.0724 H   0  0  0  0  0  0
  -26.7185  -32.5413   23.1087 H   0  0  0  0  0  0
  -25.0240  -33.9761   25.0554 H   0  0  0  0  0  0
  -22.7283  -31.3018   21.3852 H   0  0  0  0  0  0
  -23.3808  -35.9522   23.3271 H   0  0  0  0  0  0
  -24.3641  -36.8878   22.2083 H   0  0  0  0  0  0
  -23.7183  -37.6422   23.6651 H   0  0  0  0  0  0
  -26.0923  -31.5265   20.5917 H   0  0  0  0  0  0
  -26.8621  -30.8362   21.9935 H   0  0  0  0  0  0
  -28.1264  -28.9255   21.2058 H   0  0  0  0  0  0
  -25.9891  -25.8763   19.0418 H   0  0  0  0  0  0
  -23.9738  -27.2930   19.0099 H   0  0  0  0  0  0
  -23.7872  -30.5841   19.4016 H   0  0  0  0  0  0
  -22.7676  -29.2493   19.8458 H   0  0  0  0  0  0
  -25.1299  -36.1914   25.0875 H   0  0  0  0  0  0
  -20.9971  -28.3242   24.1389 H   0  0  0  0  0  0
  -20.5713  -26.2291   23.3587 H   0  0  0  0  0  0
  -21.6667  -26.7499   22.1147 H   0  0  0  0  0  0
  -19.6919  -25.6327   21.1241 H   0  0  0  0  0  0
  -19.6718  -27.3228   20.6773 H   0  0  0  0  0  0
  -17.4224  -26.6764   21.4004 H   0  0  0  0  0  0
  -18.0287  -26.0152   22.8989 H   0  0  0  0  0  0
  -19.7989  -30.7280   24.2277 H   0  0  0  0  0  0
  -17.5083  -31.6307   24.5150 H   0  0  0  0  0  0
  -15.5375  -30.3041   23.7702 H   0  0  0  0  0  0
  -15.8674  -28.0893   22.6994 H   0  0  0  0  0  0
  -24.5982  -30.6918   25.7781 H   0  0  0  0  0  0
  -24.8822  -32.2830   26.4716 H   0  0  0  0  0  0
  -25.8092  -30.9010   27.0239 H   0  0  0  0  0  0
  -26.2948  -29.6742   24.1114 H   0  0  0  0  0  0
  -27.4226  -29.7267   25.4470 H   0  0  0  0  0  0
  -27.8695  -30.4473   23.9216 H   0  0  0  0  0  0
  -27.2825  -33.3612   26.1938 H   0  0  0  0  0  0
  -28.3968  -32.6564   25.0278 H   0  0  0  0  0  0
  -28.0639  -31.8327   26.5445 H   0  0  0  0  0  0
  -28.2539  -38.0122   24.7532 H   0  0  0  0  0  0
  -28.1116  -36.2640   24.6272 H   0  0  0  0  0  0
  -27.2308  -37.1371   25.8890 H   0  0  0  0  0  0
  -20.9274  -29.8915   21.7052 H   0  0  0  0  0  0
  -26.0156  -38.2826   24.1443 H   0  0  0  0  0  0
  -31.4253  -20.1953   21.2247 H   0  0  0  0  0  0
  -31.8417  -17.6892   21.3500 H   0  0  0  0  0  0
  -26.3816  -23.3401   19.3551 H   0  0  0  0  0  0
  -27.9701  -23.4810   18.6256 H   0  0  0  0  0  0
  -27.6885  -21.1076   18.4569 H   0  0  0  0  0  0
  -26.7855  -21.0066   19.9510 H   0  0  0  0  0  0
  -29.6300  -22.4025   21.8766 H   0  0  0  0  0  0
  -30.1276  -22.9166   20.2768 H   0  0  0  0  0  0
  -26.9194  -22.0731   22.0131 H   0  0  0  0  0  0
  -26.1201  -23.6267   21.8935 H   0  0  0  0  0  0
  -27.5182  -23.4307   22.9337 H   0  0  0  0  0  0
  -29.1928  -25.2587   21.6032 H   0  0  0  0  0  0
  -27.5229  -25.4885   21.7886 H   0  0  0  0  0  0
  -28.7411  -15.5402   20.6523 H   0  0  0  0  0  0
  1 25  1  0  0  0
  1 30  2  0  0  0
  1 82  1  0  0  0
  2  3  1  0  0  0
  2 25  1  0  0  0
  2 84  1  0  0  0
  2 85  1  0  0  0
  3  4  1  0  0  0
  3 86  1  0  0  0
  3 87  1  0  0  0
  4  5  1  0  0  0
  4 88  1  0  0  0
  4 89  1  0  0  0
  5  6  1  0  0  0
  5 26  1  0  0  0
  5 90  1  0  0  0
  6 25  1  0  0  0
  6 91  1  0  0  0
  6 92  1  0  0  0
  7  8  2  0  0  0
  7 26  1  0  0  0
  7 29  1  0  0  0
  8  9  1  0  0  0
  8 22  1  0  0  0
  9 10  1  0  0  0
  9 27  2  0  0  0
 10 11  2  0  0  0
 10 15  1  0  0  0
 11 12  1  0  0  0
 11 93  1  0  0  0
 12 13  2  0  0  0
 12 94  1  0  0  0
 13 14  1  0  0  0
 13 31  1  0  0  0
 14 15  2  0  0  0
 14 95  1  0  0  0
 15 96  1  0  0  0
 16 17  2  0  0  0
 16 21  1  0  0  0
 16 31  1  0  0  0
 17 18  1  0  0  0
 17 97  1  0  0  0
 18 19  2  0  0  0
 18 98  1  0  0  0
 19 20  1  0  0  0
 19 24  1  0  0  0
 20 21  2  0  0  0
 20 99  1  0  0  0
 21 23  1  0  0  0
 22 28  1  0  0  0
 22 32  2  0  0  0
 26 27  1  0  0  0
 28100  1  0  0  0
 28101  1  0  0  0
 29102  1  0  0  0
 29103  1  0  0  0
 33 34  1  0  0  0
 33 66  1  0  0  0
 33 70  2  0  0  0
 34 36  1  0  0  0
 34 59  1  0  0  0
 34104  1  0  0  0
 35 44  2  0  0  0
 35 45  1  0  0  0
 35 68  1  0  0  0
 36 56  1  0  0  0
 36105  1  0  0  0
 37 39  1  0  0  0
 37 47  1  0  0  0
 37 66  1  0  0  0
 37106  1  0  0  0
 38 43  2  0  0  0
 38 46  1  0  0  0
 38 47  1  0  0  0
 39 64  1  0  0  0
 39 67  2  0  0  0
 40 52  1  0  0  0
 40 53  2  0  0  0
 40 58  1  0  0  0
 41107  1  0  0  0
 41108  1  0  0  0
 41109  1  0  0  0
 41 48  1  0  0  0
 42 43  1  0  0  0
 42 66  1  0  0  0
 42110  1  0  0  0
 42111  1  0  0  0
 43 44  1  0  0  0
 44112  1  0  0  0
 45 46  2  0  0  0
 45113  1  0  0  0
 46114  1  0  0  0
 47115  1  0  0  0
 47116  1  0  0  0
 48 56  1  0  0  0
 48 65  1  0  0  0
 48117  1  0  0  0
 49 50  1  0  0  0
 49 53  1  0  0  0
 49 64  1  0  0  0
 49118  1  0  0  0
 50 51  1  0  0  0
 50119  1  0  0  0
 50120  1  0  0  0
 51 52  1  0  0  0
 51121  1  0  0  0
 51122  1  0  0  0
 52123  1  0  0  0
 52124  1  0  0  0
 53 54  1  0  0  0
 54 55  2  0  0  0
 54125  1  0  0  0
 55 57  1  0  0  0
 55126  1  0  0  0
 56 69  2  0  0  0
 57 58  2  0  0  0
 57127  1  0  0  0
 58128  1  0  0  0
 59 60  1  0  0  0
 59 61  1  0  0  0
 59 62  1  0  0  0
 60129  1  0  0  0
 60130  1  0  0  0
 60131  1  0  0  0
 61132  1  0  0  0
 61133  1  0  0  0
 61134  1  0  0  0
 62135  1  0  0  0
 62136  1  0  0  0
 62137  1  0  0  0
 63 65  1  0  0  0
 63138  1  0  0  0
 63139  1  0  0  0
 63140  1  0  0  0
 64141  1  0  0  0
 65142  1  0  0  0
 68 80  1  0  0  0
 71 72  1  0  0  0
 71 73  2  0  0  0
 71143  1  0  0  0
 72 74  2  0  0  0
 72144  1  0  0  0
 73 81  1  0  0  0
 73 83  1  0  0  0
 74 82  1  0  0  0
 74 83  1  0  0  0
 75 76  1  0  0  0
 75 78  1  0  0  0
 75145  1  0  0  0
 75146  1  0  0  0
 76 81  1  0  0  0
 76147  1  0  0  0
 76148  1  0  0  0
 77 78  1  0  0  0
 77 81  1  0  0  0
 77149  1  0  0  0
 77150  1  0  0  0
 78 79  1  0  0  0
 78 80  1  0  0  0
 79151  1  0  0  0
 79152  1  0  0  0
 79153  1  0  0  0
 80154  1  0  0  0
 80155  1  0  0  0
 82156  1  0  0  0
M  ISO  4   1 100  68 101  80 101  82 100
M  END
> <chiral flag>
0

> <version>
0

> <s_m_source_file>
/data/baiqing/PycharmProjects/Reinvent-master-3.2/result/LINK_invent/BTK/process_docking_weight1_custom_product_contain_oxygen_bond_distance_aromatic_linkinvent_7_9_3/rearranged_h_0138.sdf

> <i_m_source_file_index>
67

> <r_mmod_Potential_Energy-OPLS-2005>
328.135101318359

> <r_mmod_Stretch_Energy-OPLS-2005>
117.715202331543

> <r_mmod_Bend_Energy-OPLS-2005>
248.118362426758

> <r_mmod_Torsional_Energy-OPLS-2005>
316.423706054688

> <r_mmod_Improper_Torsional_Energy-OPLS-2005>
6.24892377853394

> <r_mmod_Van_der_Waal_Energy-OPLS-2005>
112.494110107422

> <r_mmod_Electrostatic_Energy-OPLS-2005>
-343.688079833984

> <r_mmod_Solvation_Energy-OPLS-2005>
-220.522476196289

> <b_mmod_Minimization_Converged-OPLS-2005>
0

> <r_mmod_RMS_Derivative-OPLS-2005>
5.19483232498169

$$$$
67
                    3D
 Structure written by MMmdl.
168177  0  0  1  0            999 V2000
  -30.5951  -14.7246   20.4457 C   0  0  0  0  0  0
  -30.4195  -12.4322   19.4744 C   0  0  0  0  0  0
  -29.5042  -12.5085   18.2336 C   0  0  0  0  0  0
  -28.0282  -12.3375   18.6415 C   0  0  0  0  0  0
  -27.6359  -13.2265   19.8520 C   0  0  2  0  0  0
  -28.6779  -13.1476   20.9868 C   0  0  0  0  0  0
  -25.2480  -13.8212   20.5713 C   0  0  0  0  0  0
  -24.1759  -13.0436   20.9223 C   0  0  0  0  0  0
  -24.6334  -11.6919   20.8713 C   0  0  0  0  0  0
  -23.9002  -10.4291   21.0373 C   0  0  0  0  0  0
  -24.3577   -9.4222   21.9154 C   0  0  0  0  0  0
  -23.6282   -8.2239   22.0738 C   0  0  0  0  0  0
  -22.4274   -8.0246   21.3522 C   0  0  0  0  0  0
  -21.9868   -9.0207   20.4632 C   0  0  0  0  0  0
  -22.7166  -10.2102   20.3033 C   0  0  0  0  0  0
  -21.6872   -6.0681   22.5253 C   0  0  0  0  0  0
  -21.4018   -6.5601   23.8180 C   0  0  0  0  0  0
  -21.3686   -5.6772   24.9163 C   0  0  0  0  0  0
  -21.6066   -4.3033   24.7238 C   0  0  0  0  0  0
  -21.8826   -3.8098   23.4367 C   0  0  0  0  0  0
  -21.9212   -4.6899   22.3402 C   0  0  0  0  0  0
  -22.7790  -13.5197   21.1910 C   0  0  0  0  0  0
  -22.1666   -4.2070   21.0977 F   0  0  0  0  0  0
  -21.5651   -3.4540   25.7764 F   0  0  0  0  0  0
  -29.9785  -13.4952   20.4032 N   0  0  0  0  0  0
  -26.2888  -12.9375   20.3282 N   0  0  0  0  0  0
  -25.9263  -11.6517   20.5724 N   0  0  0  0  0  0
  -22.0462  -12.8154   22.0470 N   0  0  0  0  0  0
  -25.4160  -15.1929   20.4072 N   0  0  0  0  0  0
  -31.7888  -14.8041   20.1380 O   0  0  0  0  0  0
  -21.6665   -6.8817   21.4207 O   0  0  0  0  0  0
  -22.3443  -14.5502   20.6788 O   0  0  0  0  0  0
  -24.6312  -31.8566   23.1982 C   0  0  0  0  0  0
  -25.9160  -32.4727   23.8319 C   0  0  1  0  0  0
  -27.1989  -27.2709   20.1194 C   0  0  0  0  0  0
  -25.5970  -33.8533   24.2238 N   0  0  0  0  0  0
  -23.4229  -30.4812   21.5424 C   0  0  2  0  0  0
  -24.8638  -28.9309   20.1051 C   0  0  0  0  0  0
  -22.7486  -29.4621   22.4928 C   0  0  0  0  0  0
  -18.0289  -28.1386   22.8504 C   0  0  0  0  0  0
  -24.1489  -36.7240   23.2644 C   0  0  0  0  0  0
  -25.9685  -30.7709   21.3752 C   0  0  0  0  0  0
  -26.0343  -29.3963   20.7158 C   0  0  0  0  0  0
  -27.2051  -28.5756   20.7137 C   0  0  0  0  0  0
  -26.0064  -26.8673   19.4844 C   0  0  0  0  0  0
  -24.8545  -27.6735   19.4803 C   0  0  0  0  0  0
  -23.6348  -29.8160   20.1569 C   0  0  0  0  0  0
  -25.4126  -36.3040   24.0324 C   0  0  1  0  0  0
  -20.5887  -28.3681   23.1284 C   0  0  2  0  0  0
  -20.6768  -26.9403   22.5404 C   0  0  0  0  0  0
  -19.5730  -26.6378   21.5221 C   0  0  0  0  0  0
  -18.1915  -26.7921   22.1637 C   0  0  0  0  0  0
  -19.1538  -28.8864   23.2889 C   0  0  0  0  0  0
  -18.9457  -30.1471   23.8881 C   0  0  0  0  0  0
  -17.6456  -30.6585   24.0570 C   0  0  0  0  0  0
  -25.9083  -34.9418   23.5084 C   0  0  0  0  0  0
  -16.5351  -29.9077   23.6356 C   0  0  0  0  0  0
  -16.7282  -28.6507   23.0368 C   0  0  0  0  0  0
  -26.4553  -31.6555   25.0711 C   0  0  0  0  0  0
  -25.3765  -31.3686   26.1411 C   0  0  0  0  0  0
  -27.0445  -30.2981   24.6220 C   0  0  0  0  0  0
  -27.6095  -32.4338   25.7457 C   0  0  0  0  0  0
  -27.5586  -37.1754   24.8468 C   0  0  0  0  0  0
  -21.4190  -29.3027   22.3661 N   0  0  0  0  0  0
  -26.4274  -37.3771   23.9448 N   0  0  0  0  0  0
  -24.6930  -31.0544   22.0935 N   0  0  0  0  0  0
  -23.4208  -28.8193   23.3049 O   0  0  0  0  0  0
  -28.2960  -26.3946   20.2043 O   0  0  0  0  0  0
  -26.5647  -34.8898   22.4641 O   0  0  0  0  0  0
  -23.5457  -32.1409   23.7277 O   0  0  0  0  0  0
  -31.4556  -17.6522   21.0580 C   0  0  0  0  0  0
  -29.2685  -18.4418   20.4037 C   0  0  0  0  0  0
  -31.8710  -18.9830   21.2008 C   0  0  0  0  0  0
  -30.9928  -20.0788   20.9595 C   0  0  0  0  0  0
  -29.6357  -19.8663   20.5131 C   0  0  0  0  0  0
  -30.1544  -17.3092   20.6615 C   0  0  0  0  0  0
  -26.8936  -21.7865   18.6344 C   0  0  0  0  0  0
  -26.6251  -23.0549   19.4712 C   0  0  0  0  0  0
  -27.4903  -20.6205   19.4648 C   0  0  0  0  0  0
  -29.0380  -22.4770   20.1162 C   0  0  0  0  0  0
  -27.8905  -23.6146   20.1928 C   0  0  2  0  0  0
  -33.3157  -19.1979   21.6386 C   0  0  0  0  0  0
  -31.5699  -21.4643   21.2393 C   0  0  0  0  0  0
  -27.5426  -23.8699   21.6776 C   0  0  0  0  0  0
  -28.3567  -25.0454   19.5547 C   0  0  0  0  0  0
  -28.7074  -20.9840   20.2135 N   0  0  0  0  0  0
  -29.7989  -15.8588   20.5966 N   0  0  0  0  0  0
  -31.4634  -12.5418   19.1790 H   0  0  0  0  0  0
  -30.3427  -11.4491   19.9460 H   0  0  0  0  0  0
  -29.7797  -11.7449   17.5061 H   0  0  0  0  0  0
  -29.6418  -13.4705   17.7361 H   0  0  0  0  0  0
  -27.8771  -11.2869   18.8930 H   0  0  0  0  0  0
  -27.3747  -12.5456   17.7953 H   0  0  0  0  0  0
  -27.6326  -14.2522   19.4830 H   0  0  0  0  0  0
  -28.7048  -12.1478   21.4233 H   0  0  0  0  0  0
  -28.4220  -13.8264   21.8013 H   0  0  0  0  0  0
  -25.2708   -9.5733   22.4723 H   0  0  0  0  0  0
  -24.0013   -7.4640   22.7458 H   0  0  0  0  0  0
  -21.0790   -8.8679   19.8938 H   0  0  0  0  0  0
  -22.3575  -10.9620   19.6138 H   0  0  0  0  0  0
  -21.1984   -7.6109   23.9644 H   0  0  0  0  0  0
  -21.1520   -6.0518   25.9053 H   0  0  0  0  0  0
  -22.0591   -2.7551   23.2904 H   0  0  0  0  0  0
  -22.4135  -11.9831   22.4824 H   0  0  0  0  0  0
  -21.1048  -13.1098   22.2689 H   0  0  0  0  0  0
  -24.6455  -15.8440   20.5189 H   0  0  0  0  0  0
  -26.2518  -15.6304   20.0423 H   0  0  0  0  0  0
  -26.7213  -32.5388   23.1040 H   0  0  0  0  0  0
  -25.0165  -33.9685   25.0410 H   0  0  0  0  0  0
  -22.7214  -31.3057   21.4014 H   0  0  0  0  0  0
  -23.3783  -35.9533   23.3262 H   0  0  0  0  0  0
  -24.3596  -36.8922   22.2075 H   0  0  0  0  0  0
  -23.7193  -37.6401   23.6696 H   0  0  0  0  0  0
  -26.1142  -31.5364   20.6117 H   0  0  0  0  0  0
  -26.8410  -30.8105   22.0136 H   0  0  0  0  0  0
  -28.1039  -28.9217   21.2040 H   0  0  0  0  0  0
  -25.9360  -25.9018   19.0146 H   0  0  0  0  0  0
  -23.9550  -27.3131   18.9979 H   0  0  0  0  0  0
  -23.7487  -30.5928   19.4015 H   0  0  0  0  0  0
  -22.7515  -29.2490   19.8592 H   0  0  0  0  0  0
  -25.1290  -36.1857   25.0809 H   0  0  0  0  0  0
  -21.0003  -28.3236   24.1397 H   0  0  0  0  0  0
  -20.5699  -26.2291   23.3605 H   0  0  0  0  0  0
  -21.6635  -26.7434   22.1181 H   0  0  0  0  0  0
  -19.6895  -25.6301   21.1237 H   0  0  0  0  0  0
  -19.6643  -27.3206   20.6764 H   0  0  0  0  0  0
  -17.4193  -26.6710   21.4027 H   0  0  0  0  0  0
  -18.0293  -26.0036   22.9008 H   0  0  0  0  0  0
  -19.7931  -30.7309   24.2197 H   0  0  0  0  0  0
  -17.5006  -31.6245   24.5178 H   0  0  0  0  0  0
  -15.5360  -30.2972   23.7667 H   0  0  0  0  0  0
  -15.8679  -28.0817   22.7078 H   0  0  0  0  0  0
  -24.5947  -30.7041   25.7719 H   0  0  0  0  0  0
  -24.8953  -32.2846   26.4841 H   0  0  0  0  0  0
  -25.8077  -30.8851   27.0180 H   0  0  0  0  0  0
  -26.3053  -29.6654   24.1294 H   0  0  0  0  0  0
  -27.4203  -29.7316   25.4754 H   0  0  0  0  0  0
  -27.8875  -30.4289   23.9429 H   0  0  0  0  0  0
  -27.2702  -33.3665   26.1960 H   0  0  0  0  0  0
  -28.3894  -32.6862   25.0262 H   0  0  0  0  0  0
  -28.0749  -31.8516   26.5416 H   0  0  0  0  0  0
  -28.2538  -38.0117   24.7623 H   0  0  0  0  0  0
  -28.1132  -36.2655   24.6131 H   0  0  0  0  0  0
  -27.2318  -37.1213   25.8868 H   0  0  0  0  0  0
  -20.9371  -29.8744   21.6858 H   0  0  0  0  0  0
  -26.0124  -38.2810   24.1529 H   0  0  0  0  0  0
  -32.1694  -16.8778   21.2915 H   0  0  0  0  0  0
  -28.2640  -18.1854   20.1063 H   0  0  0  0  0  0
  -27.5590  -22.0288   17.8036 H   0  0  0  0  0  0
  -25.9608  -21.4632   18.1685 H   0  0  0  0  0  0
  -25.8461  -22.8203   20.1983 H   0  0  0  0  0  0
  -26.1799  -23.8030   18.8190 H   0  0  0  0  0  0
  -27.7011  -19.8074   18.7687 H   0  0  0  0  0  0
  -26.7381  -20.2450   20.1619 H   0  0  0  0  0  0
  -29.6832  -22.8176   20.9064 H   0  0  0  0  0  0
  -29.5876  -22.6031   19.1818 H   0  0  0  0  0  0
  -33.8564  -18.2599   21.7531 H   0  0  0  0  0  0
  -33.3579  -19.7123   22.6007 H   0  0  0  0  0  0
  -33.8516  -19.7857   20.8922 H   0  0  0  0  0  0
  -30.9991  -21.9351   22.0361 H   0  0  0  0  0  0
  -31.6055  -22.0698   20.3342 H   0  0  0  0  0  0
  -32.5793  -21.5037   21.6321 H   0  0  0  0  0  0
  -27.2040  -22.9616   22.1779 H   0  0  0  0  0  0
  -26.7478  -24.6114   21.7718 H   0  0  0  0  0  0
  -28.3990  -24.2539   22.2344 H   0  0  0  0  0  0
  -27.9749  -25.1315   18.5375 H   0  0  0  0  0  0
  -29.4294  -24.9324   19.3922 H   0  0  0  0  0  0
  -28.8162  -15.6470   20.6751 H   0  0  0  0  0  0
  1 25  1  0  0  0
  1 30  2  0  0  0
  1 87  1  0  0  0
  2  3  1  0  0  0
  2 25  1  0  0  0
  2 88  1  0  0  0
  2 89  1  0  0  0
  3  4  1  0  0  0
  3 90  1  0  0  0
  3 91  1  0  0  0
  4  5  1  0  0  0
  4 92  1  0  0  0
  4 93  1  0  0  0
  5  6  1  0  0  0
  5 26  1  0  0  0
  5 94  1  0  0  0
  6 25  1  0  0  0
  6 95  1  0  0  0
  6 96  1  0  0  0
  7  8  2  0  0  0
  7 26  1  0  0  0
  7 29  1  0  0  0
  8  9  1  0  0  0
  8 22  1  0  0  0
  9 10  1  0  0  0
  9 27  2  0  0  0
 10 11  2  0  0  0
 10 15  1  0  0  0
 11 12  1  0  0  0
 11 97  1  0  0  0
 12 13  2  0  0  0
 12 98  1  0  0  0
 13 14  1  0  0  0
 13 31  1  0  0  0
 14 15  2  0  0  0
 14 99  1  0  0  0
 15100  1  0  0  0
 16 17  2  0  0  0
 16 21  1  0  0  0
 16 31  1  0  0  0
 17 18  1  0  0  0
 17101  1  0  0  0
 18 19  2  0  0  0
 18102  1  0  0  0
 19 20  1  0  0  0
 19 24  1  0  0  0
 20 21  2  0  0  0
 20103  1  0  0  0
 21 23  1  0  0  0
 22 28  1  0  0  0
 22 32  2  0  0  0
 26 27  1  0  0  0
 28104  1  0  0  0
 28105  1  0  0  0
 29106  1  0  0  0
 29107  1  0  0  0
 33 34  1  0  0  0
 33 66  1  0  0  0
 33 70  2  0  0  0
 34 36  1  0  0  0
 34 59  1  0  0  0
 34108  1  0  0  0
 35 44  2  0  0  0
 35 45  1  0  0  0
 35 68  1  0  0  0
 36 56  1  0  0  0
 36109  1  0  0  0
 37 39  1  0  0  0
 37 47  1  0  0  0
 37 66  1  0  0  0
 37110  1  0  0  0
 38 43  2  0  0  0
 38 46  1  0  0  0
 38 47  1  0  0  0
 39 64  1  0  0  0
 39 67  2  0  0  0
 40 52  1  0  0  0
 40 53  2  0  0  0
 40 58  1  0  0  0
 41111  1  0  0  0
 41112  1  0  0  0
 41113  1  0  0  0
 41 48  1  0  0  0
 42 43  1  0  0  0
 42 66  1  0  0  0
 42114  1  0  0  0
 42115  1  0  0  0
 43 44  1  0  0  0
 44116  1  0  0  0
 45 46  2  0  0  0
 45117  1  0  0  0
 46118  1  0  0  0
 47119  1  0  0  0
 47120  1  0  0  0
 48 56  1  0  0  0
 48 65  1  0  0  0
 48121  1  0  0  0
 49 50  1  0  0  0
 49 53  1  0  0  0
 49 64  1  0  0  0
 49122  1  0  0  0
 50 51  1  0  0  0
 50123  1  0  0  0
 50124  1  0  0  0
 51 52  1  0  0  0
 51125  1  0  0  0
 51126  1  0  0  0
 52127  1  0  0  0
 52128  1  0  0  0
 53 54  1  0  0  0
 54 55  2  0  0  0
 54129  1  0  0  0
 55 57  1  0  0  0
 55130  1  0  0  0
 56 69  2  0  0  0
 57 58  2  0  0  0
 57131  1  0  0  0
 58132  1  0  0  0
 59 60  1  0  0  0
 59 61  1  0  0  0
 59 62  1  0  0  0
 60133  1  0  0  0
 60134  1  0  0  0
 60135  1  0  0  0
 61136  1  0  0  0
 61137  1  0  0  0
 61138  1  0  0  0
 62139  1  0  0  0
 62140  1  0  0  0
 62141  1  0  0  0
 63 65  1  0  0  0
 63142  1  0  0  0
 63143  1  0  0  0
 63144  1  0  0  0
 64145  1  0  0  0
 65146  1  0  0  0
 68 85  1  0  0  0
 71 73  2  0  0  0
 71 76  1  0  0  0
 71147  1  0  0  0
 72 75  1  0  0  0
 72 76  2  0  0  0
 72148  1  0  0  0
 73 74  1  0  0  0
 73 82  1  0  0  0
 74 75  2  0  0  0
 74 83  1  0  0  0
 75 86  1  0  0  0
 76 87  1  0  0  0
 77 78  1  0  0  0
 77 79  1  0  0  0
 77149  1  0  0  0
 77150  1  0  0  0
 78 81  1  0  0  0
 78151  1  0  0  0
 78152  1  0  0  0
 79 86  1  0  0  0
 79153  1  0  0  0
 79154  1  0  0  0
 80 81  1  0  0  0
 80 86  1  0  0  0
 80155  1  0  0  0
 80156  1  0  0  0
 81 84  1  0  0  0
 81 85  1  0  0  0
 82157  1  0  0  0
 82158  1  0  0  0
 82159  1  0  0  0
 83160  1  0  0  0
 83161  1  0  0  0
 83162  1  0  0  0
 84163  1  0  0  0
 84164  1  0  0  0
 84165  1  0  0  0
 85166  1  0  0  0
 85167  1  0  0  0
 87168  1  0  0  0
M  ISO  4   1 100  68 101  85 101  87 100
M  END
> <chiral flag>
0

> <version>
0

> <s_m_source_file>
/data/baiqing/PycharmProjects/Reinvent-master-3.2/result/LINK_invent/BTK/process_docking_weight1_custom_product_contain_oxygen_bond_distance_aromatic_linkinvent_7_9_3/rearranged_h_0138.sdf

> <i_m_source_file_index>
68

> <r_mmod_Potential_Energy-OPLS-2005>
327.258605957031

> <r_mmod_Stretch_Energy-OPLS-2005>
146.979568481445

> <r_mmod_Bend_Energy-OPLS-2005>
216.534225463867

> <r_mmod_Torsional_Energy-OPLS-2005>
274.733337402344

> <r_mmod_Improper_Torsional_Energy-OPLS-2005>
7.13831090927124

> <r_mmod_Van_der_Waal_Energy-OPLS-2005>
187.467742919922

> <r_mmod_Electrostatic_Energy-OPLS-2005>
-368.288970947266

> <r_mmod_Solvation_Energy-OPLS-2005>
-216.726287841797

> <b_mmod_Minimization_Converged-OPLS-2005>
0

> <r_mmod_RMS_Derivative-OPLS-2005>
4.28218078613281

$$$$
68
                    3D
 Structure written by MMmdl.
156164  0  0  1  0            999 V2000
  -30.6046  -14.6641   20.4748 C   0  0  0  0  0  0
  -30.4354  -12.4051   19.4394 C   0  0  0  0  0  0
  -29.5001  -12.5059   18.2126 C   0  0  0  0  0  0
  -28.0242  -12.3343   18.6266 C   0  0  0  0  0  0
  -27.6428  -13.2007   19.8551 C   0  0  2  0  0  0
  -28.6940  -13.0803   20.9819 C   0  0  0  0  0  0
  -25.2421  -13.7854   20.5670 C   0  0  0  0  0  0
  -24.1738  -13.0200   20.9279 C   0  0  0  0  0  0
  -24.6359  -11.6713   20.8795 C   0  0  0  0  0  0
  -23.9030  -10.4150   21.0439 C   0  0  0  0  0  0
  -24.3575   -9.4082   21.9221 C   0  0  0  0  0  0
  -23.6255   -8.2129   22.0745 C   0  0  0  0  0  0
  -22.4245   -8.0197   21.3526 C   0  0  0  0  0  0
  -21.9882   -9.0164   20.4629 C   0  0  0  0  0  0
  -22.7209  -10.2043   20.3061 C   0  0  0  0  0  0
  -21.6811   -6.0696   22.5281 C   0  0  0  0  0  0
  -21.3975   -6.5607   23.8210 C   0  0  0  0  0  0
  -21.3661   -5.6771   24.9175 C   0  0  0  0  0  0
  -21.6053   -4.3030   24.7236 C   0  0  0  0  0  0
  -21.8824   -3.8114   23.4359 C   0  0  0  0  0  0
  -21.9172   -4.6931   22.3409 C   0  0  0  0  0  0
  -22.7779  -13.5064   21.1903 C   0  0  0  0  0  0
  -22.1655   -4.2115   21.0988 F   0  0  0  0  0  0
  -21.5656   -3.4516   25.7752 F   0  0  0  0  0  0
  -30.0052  -13.4310   20.4103 N   0  0  0  0  0  0
  -26.2908  -12.9141   20.3274 N   0  0  0  0  0  0
  -25.9287  -11.6313   20.5763 N   0  0  0  0  0  0
  -22.0388  -12.8089   22.0459 N   0  0  0  0  0  0
  -25.3860  -15.1468   20.3940 N   0  0  0  0  0  0
  -31.7848  -14.8222   20.1465 O   0  0  0  0  0  0
  -21.6584   -6.8819   21.4234 O   0  0  0  0  0  0
  -22.3513  -14.5379   20.6722 O   0  0  0  0  0  0
  -24.6258  -31.8615   23.2018 C   0  0  0  0  0  0
  -25.9110  -32.4781   23.8375 C   0  0  1  0  0  0
  -27.2408  -27.3435   20.1136 C   0  0  0  0  0  0
  -25.5923  -33.8570   24.2314 N   0  0  0  0  0  0
  -23.4199  -30.4867   21.5426 C   0  0  2  0  0  0
  -24.8684  -28.9425   20.1095 C   0  0  0  0  0  0
  -22.7481  -29.4655   22.4924 C   0  0  0  0  0  0
  -18.0307  -28.1390   22.8498 C   0  0  0  0  0  0
  -24.1474  -36.7288   23.2639 C   0  0  0  0  0  0
  -25.9580  -30.8016   21.3653 C   0  0  0  0  0  0
  -26.0352  -29.4288   20.7129 C   0  0  0  0  0  0
  -27.2226  -28.6428   20.7016 C   0  0  0  0  0  0
  -26.0462  -26.9031   19.4917 C   0  0  0  0  0  0
  -24.8761  -27.6850   19.4890 C   0  0  0  0  0  0
  -23.6324  -29.8164   20.1593 C   0  0  0  0  0  0
  -25.4083  -36.3075   24.0353 C   0  0  1  0  0  0
  -20.5914  -28.3702   23.1278 C   0  0  2  0  0  0
  -20.6784  -26.9421   22.5415 C   0  0  0  0  0  0
  -19.5749  -26.6402   21.5220 C   0  0  0  0  0  0
  -18.1939  -26.7940   22.1635 C   0  0  0  0  0  0
  -19.1559  -28.8864   23.2889 C   0  0  0  0  0  0
  -18.9468  -30.1464   23.8905 C   0  0  0  0  0  0
  -17.6464  -30.6591   24.0571 C   0  0  0  0  0  0
  -25.9039  -34.9442   23.5136 C   0  0  0  0  0  0
  -16.5358  -29.9092   23.6326 C   0  0  0  0  0  0
  -16.7296  -28.6508   23.0357 C   0  0  0  0  0  0
  -26.4484  -31.6571   25.0731 C   0  0  0  0  0  0
  -25.3715  -31.3727   26.1461 C   0  0  0  0  0  0
  -27.0311  -30.2999   24.6152 C   0  0  0  0  0  0
  -27.6079  -32.4270   25.7484 C   0  0  0  0  0  0
  -27.5574  -37.1784   24.8458 C   0  0  0  0  0  0
  -21.4201  -29.3046   22.3659 N   0  0  0  0  0  0
  -26.4261  -37.3771   23.9436 N   0  0  0  0  0  0
  -24.6870  -31.0662   22.0943 N   0  0  0  0  0  0
  -23.4204  -28.8203   23.3010 O   0  0  0  0  0  0
  -28.3813  -26.5279   20.1645 O   0  0  0  0  0  0
  -26.5593  -34.8904   22.4698 O   0  0  0  0  0  0
  -23.5429  -32.1391   23.7356 O   0  0  0  0  0  0
  -31.0651  -19.3445   20.9593 C   0  0  0  0  0  0
  -31.0271  -17.9120   20.9712 C   0  0  0  0  0  0
  -28.8487  -19.4112   20.0785 C   0  0  0  0  0  0
  -28.7691  -17.9939   20.1412 C   0  0  0  0  0  0
  -29.9735  -20.1403   20.5116 C   0  0  0  0  0  0
  -29.8741  -17.1802   20.5673 C   0  0  0  0  0  0
  -27.4651  -17.4614   19.6929 C   0  0  0  0  0  0
  -29.1253  -22.5546   20.1033 C   0  0  0  0  0  0
  -26.2309  -18.0535   20.3776 C   0  0  0  0  0  0
  -29.3964  -24.0867   20.3488 C   0  0  0  0  0  0
  -28.2051  -25.0749   19.9939 C   0  0  0  0  0  0
  -30.0188  -21.6074   20.5460 N   0  0  0  0  0  0
  -29.7525  -15.7180   20.7039 N   0  0  0  0  0  0
  -27.3391  -16.5802   18.8407 O   0  0  0  0  0  0
  -28.1006  -22.2557   19.4879 O   0  0  0  0  0  0
  -31.4743  -12.5403   19.1316 H   0  0  0  0  0  0
  -30.3769  -11.4099   19.8837 H   0  0  0  0  0  0
  -29.7663  -11.7507   17.4716 H   0  0  0  0  0  0
  -29.6348  -13.4722   17.7238 H   0  0  0  0  0  0
  -27.8636  -11.2797   18.8549 H   0  0  0  0  0  0
  -27.3658  -12.5647   17.7868 H   0  0  0  0  0  0
  -27.6482  -14.2279   19.5036 H   0  0  0  0  0  0
  -28.7157  -12.0643   21.3792 H   0  0  0  0  0  0
  -28.4364  -13.7256   21.8230 H   0  0  0  0  0  0
  -25.2742   -9.5550   22.4782 H   0  0  0  0  0  0
  -23.9961   -7.4491   22.7436 H   0  0  0  0  0  0
  -21.0832   -8.8683   19.8917 H   0  0  0  0  0  0
  -22.3707  -10.9577   19.6148 H   0  0  0  0  0  0
  -21.1939   -7.6115   23.9698 H   0  0  0  0  0  0
  -21.1502   -6.0503   25.9079 H   0  0  0  0  0  0
  -22.0609   -2.7575   23.2856 H   0  0  0  0  0  0
  -22.4010  -11.9776   22.4894 H   0  0  0  0  0  0
  -21.0998  -13.1099   22.2615 H   0  0  0  0  0  0
  -24.5438  -15.7109   20.3839 H   0  0  0  0  0  0
  -26.0965  -15.4954   19.7556 H   0  0  0  0  0  0
  -26.7192  -32.5463   23.1145 H   0  0  0  0  0  0
  -25.0071  -33.9700   25.0465 H   0  0  0  0  0  0
  -22.7168  -31.3102   21.3989 H   0  0  0  0  0  0
  -23.3736  -35.9618   23.3270 H   0  0  0  0  0  0
  -24.3596  -36.8923   22.2063 H   0  0  0  0  0  0
  -23.7207  -37.6485   23.6658 H   0  0  0  0  0  0
  -26.0827  -31.5604   20.5912 H   0  0  0  0  0  0
  -26.8415  -30.8583   21.9895 H   0  0  0  0  0  0
  -28.1194  -29.0160   21.1760 H   0  0  0  0  0  0
  -25.9887  -25.9405   19.0063 H   0  0  0  0  0  0
  -23.9816  -27.3110   19.0092 H   0  0  0  0  0  0
  -23.7420  -30.5875   19.3961 H   0  0  0  0  0  0
  -22.7542  -29.2390   19.8672 H   0  0  0  0  0  0
  -25.1249  -36.1928   25.0843 H   0  0  0  0  0  0
  -21.0041  -28.3274   24.1383 H   0  0  0  0  0  0
  -20.5700  -26.2311   23.3618 H   0  0  0  0  0  0
  -21.6644  -26.7452   22.1197 H   0  0  0  0  0  0
  -19.6898  -25.6314   21.1254 H   0  0  0  0  0  0
  -19.6674  -27.3219   20.6750 H   0  0  0  0  0  0
  -17.4214  -26.6737   21.4019 H   0  0  0  0  0  0
  -18.0304  -26.0075   22.9020 H   0  0  0  0  0  0
  -19.7933  -30.7289   24.2276 H   0  0  0  0  0  0
  -17.5012  -31.6266   24.5177 H   0  0  0  0  0  0
  -15.5358  -30.2995   23.7621 H   0  0  0  0  0  0
  -15.8705  -28.0825   22.7050 H   0  0  0  0  0  0
  -24.5900  -30.7052   25.7815 H   0  0  0  0  0  0
  -24.8871  -32.2889   26.4846 H   0  0  0  0  0  0
  -25.8035  -30.8961   27.0265 H   0  0  0  0  0  0
  -26.2881  -29.6761   24.1166 H   0  0  0  0  0  0
  -27.4024  -29.7233   25.4633 H   0  0  0  0  0  0
  -27.8745  -30.4308   23.9365 H   0  0  0  0  0  0
  -27.2752  -33.3590   26.2061 H   0  0  0  0  0  0
  -28.3888  -32.6780   25.0293 H   0  0  0  0  0  0
  -28.0743  -31.8365   26.5381 H   0  0  0  0  0  0
  -28.2574  -38.0103   24.7532 H   0  0  0  0  0  0
  -28.1090  -36.2637   24.6225 H   0  0  0  0  0  0
  -27.2319  -37.1362   25.8869 H   0  0  0  0  0  0
  -20.9388  -29.8754   21.6848 H   0  0  0  0  0  0
  -26.0147  -38.2849   24.1435 H   0  0  0  0  0  0
  -31.9610  -19.8341   21.3139 H   0  0  0  0  0  0
  -31.8889  -17.3769   21.3439 H   0  0  0  0  0  0
  -27.9943  -19.9473   19.7001 H   0  0  0  0  0  0
  -26.2417  -19.1411   20.4143 H   0  0  0  0  0  0
  -26.1755  -17.6887   21.4032 H   0  0  0  0  0  0
  -25.3256  -17.7512   19.8554 H   0  0  0  0  0  0
  -30.2694  -24.3624   19.7568 H   0  0  0  0  0  0
  -29.6756  -24.2208   21.3942 H   0  0  0  0  0  0
  -27.3451  -24.7691   20.5935 H   0  0  0  0  0  0
  -27.9307  -24.8958   18.9540 H   0  0  0  0  0  0
  -30.8418  -21.9950   20.9890 H   0  0  0  0  0  0
  -28.8096  -15.3909   20.8478 H   0  0  0  0  0  0
  1 25  1  0  0  0
  1 30  2  0  0  0
  1 83  1  0  0  0
  2  3  1  0  0  0
  2 25  1  0  0  0
  2 86  1  0  0  0
  2 87  1  0  0  0
  3  4  1  0  0  0
  3 88  1  0  0  0
  3 89  1  0  0  0
  4  5  1  0  0  0
  4 90  1  0  0  0
  4 91  1  0  0  0
  5  6  1  0  0  0
  5 26  1  0  0  0
  5 92  1  0  0  0
  6 25  1  0  0  0
  6 93  1  0  0  0
  6 94  1  0  0  0
  7  8  2  0  0  0
  7 26  1  0  0  0
  7 29  1  0  0  0
  8  9  1  0  0  0
  8 22  1  0  0  0
  9 10  1  0  0  0
  9 27  2  0  0  0
 10 11  2  0  0  0
 10 15  1  0  0  0
 11 12  1  0  0  0
 11 95  1  0  0  0
 12 13  2  0  0  0
 12 96  1  0  0  0
 13 14  1  0  0  0
 13 31  1  0  0  0
 14 15  2  0  0  0
 14 97  1  0  0  0
 15 98  1  0  0  0
 16 17  2  0  0  0
 16 21  1  0  0  0
 16 31  1  0  0  0
 17 18  1  0  0  0
 17 99  1  0  0  0
 18 19  2  0  0  0
 18100  1  0  0  0
 19 20  1  0  0  0
 19 24  1  0  0  0
 20 21  2  0  0  0
 20101  1  0  0  0
 21 23  1  0  0  0
 22 28  1  0  0  0
 22 32  2  0  0  0
 26 27  1  0  0  0
 28102  1  0  0  0
 28103  1  0  0  0
 29104  1  0  0  0
 29105  1  0  0  0
 33 34  1  0  0  0
 33 66  1  0  0  0
 33 70  2  0  0  0
 34 36  1  0  0  0
 34 59  1  0  0  0
 34106  1  0  0  0
 35 44  2  0  0  0
 35 45  1  0  0  0
 35 68  1  0  0  0
 36 56  1  0  0  0
 36107  1  0  0  0
 37 39  1  0  0  0
 37 47  1  0  0  0
 37 66  1  0  0  0
 37108  1  0  0  0
 38 43  2  0  0  0
 38 46  1  0  0  0
 38 47  1  0  0  0
 39 64  1  0  0  0
 39 67  2  0  0  0
 40 52  1  0  0  0
 40 53  2  0  0  0
 40 58  1  0  0  0
 41109  1  0  0  0
 41110  1  0  0  0
 41111  1  0  0  0
 41 48  1  0  0  0
 42 43  1  0  0  0
 42 66  1  0  0  0
 42112  1  0  0  0
 42113  1  0  0  0
 43 44  1  0  0  0
 44114  1  0  0  0
 45 46  2  0  0  0
 45115  1  0  0  0
 46116  1  0  0  0
 47117  1  0  0  0
 47118  1  0  0  0
 48 56  1  0  0  0
 48 65  1  0  0  0
 48119  1  0  0  0
 49 50  1  0  0  0
 49 53  1  0  0  0
 49 64  1  0  0  0
 49120  1  0  0  0
 50 51  1  0  0  0
 50121  1  0  0  0
 50122  1  0  0  0
 51 52  1  0  0  0
 51123  1  0  0  0
 51124  1  0  0  0
 52125  1  0  0  0
 52126  1  0  0  0
 53 54  1  0  0  0
 54 55  2  0  0  0
 54127  1  0  0  0
 55 57  1  0  0  0
 55128  1  0  0  0
 56 69  2  0  0  0
 57 58  2  0  0  0
 57129  1  0  0  0
 58130  1  0  0  0
 59 60  1  0  0  0
 59 61  1  0  0  0
 59 62  1  0  0  0
 60131  1  0  0  0
 60132  1  0  0  0
 60133  1  0  0  0
 61134  1  0  0  0
 61135  1  0  0  0
 61136  1  0  0  0
 62137  1  0  0  0
 62138  1  0  0  0
 62139  1  0  0  0
 63 65  1  0  0  0
 63140  1  0  0  0
 63141  1  0  0  0
 63142  1  0  0  0
 64143  1  0  0  0
 65144  1  0  0  0
 68 81  1  0  0  0
 71 72  2  0  0  0
 71 75  1  0  0  0
 71145  1  0  0  0
 72 76  1  0  0  0
 72146  1  0  0  0
 73 74  1  0  0  0
 73 75  2  0  0  0
 73147  1  0  0  0
 74 76  2  0  0  0
 74 77  1  0  0  0
 75 82  1  0  0  0
 76 83  1  0  0  0
 77 79  1  0  0  0
 77 84  2  0  0  0
 78 80  1  0  0  0
 78 82  1  0  0  0
 78 85  2  0  0  0
 79148  1  0  0  0
 79149  1  0  0  0
 79150  1  0  0  0
 80 81  1  0  0  0
 80151  1  0  0  0
 80152  1  0  0  0
 81153  1  0  0  0
 81154  1  0  0  0
 82155  1  0  0  0
 83156  1  0  0  0
M  ISO  4   1 100  68 101  81 101  83 100
M  END
> <chiral flag>
0

> <version>
0

> <s_m_source_file>
/data/baiqing/PycharmProjects/Reinvent-master-3.2/result/LINK_invent/BTK/process_docking_weight1_custom_product_contain_oxygen_bond_distance_aromatic_linkinvent_7_9_3/rearranged_h_0138.sdf

> <i_m_source_file_index>
69

> <r_mmod_Potential_Energy-OPLS-2005>
53.4351081848145

> <r_mmod_Stretch_Energy-OPLS-2005>
78.1144332885742

> <r_mmod_Bend_Energy-OPLS-2005>
136.188522338867

> <r_mmod_Torsional_Energy-OPLS-2005>
270.096069335938

> <r_mmod_Improper_Torsional_Energy-OPLS-2005>
9.11650085449219

> <r_mmod_Van_der_Waal_Energy-OPLS-2005>
161.761352539062

> <r_mmod_Electrostatic_Energy-OPLS-2005>
-428.658721923828

> <r_mmod_Solvation_Energy-OPLS-2005>
-222.717788696289

> <b_mmod_Minimization_Converged-OPLS-2005>
0

> <r_mmod_RMS_Derivative-OPLS-2005>
2.72106766700745

$$$$
69
                    3D
 Structure written by MMmdl.
157165  0  0  1  0            999 V2000
  -30.6171  -14.7424   20.4164 C   0  0  0  0  0  0
  -30.4309  -12.4427   19.4827 C   0  0  0  0  0  0
  -29.5226  -12.4983   18.2345 C   0  0  0  0  0  0
  -28.0423  -12.3286   18.6338 C   0  0  0  0  0  0
  -27.6401  -13.2348   19.8299 C   0  0  2  0  0  0
  -28.6771  -13.1894   20.9729 C   0  0  0  0  0  0
  -25.2515  -13.8184   20.5638 C   0  0  0  0  0  0
  -24.1808  -13.0423   20.9151 C   0  0  0  0  0  0
  -24.6377  -11.6898   20.8651 C   0  0  0  0  0  0
  -23.9058  -10.4257   21.0342 C   0  0  0  0  0  0
  -24.3605   -9.4179   21.9136 C   0  0  0  0  0  0
  -23.6275   -8.2228   22.0750 C   0  0  0  0  0  0
  -22.4257   -8.0247   21.3535 C   0  0  0  0  0  0
  -21.9869   -9.0230   20.4649 C   0  0  0  0  0  0
  -22.7211  -10.2100   20.3015 C   0  0  0  0  0  0
  -21.6841   -6.0673   22.5260 C   0  0  0  0  0  0
  -21.4015   -6.5588   23.8190 C   0  0  0  0  0  0
  -21.3684   -5.6771   24.9162 C   0  0  0  0  0  0
  -21.6072   -4.3035   24.7231 C   0  0  0  0  0  0
  -21.8840   -3.8094   23.4357 C   0  0  0  0  0  0
  -21.9198   -4.6894   22.3389 C   0  0  0  0  0  0
  -22.7821  -13.5241   21.1815 C   0  0  0  0  0  0
  -22.1658   -4.2060   21.0969 F   0  0  0  0  0  0
  -21.5643   -3.4545   25.7754 F   0  0  0  0  0  0
  -29.9896  -13.5165   20.4024 N   0  0  0  0  0  0
  -26.2908  -12.9407   20.3123 N   0  0  0  0  0  0
  -25.9304  -11.6533   20.5609 N   0  0  0  0  0  0
  -22.0435  -12.8256   22.0372 N   0  0  0  0  0  0
  -25.4270  -15.1911   20.4115 N   0  0  0  0  0  0
  -31.8036  -14.8271   20.0901 O   0  0  0  0  0  0
  -21.6632   -6.8829   21.4215 O   0  0  0  0  0  0
  -22.3495  -14.5533   20.6638 O   0  0  0  0  0  0
  -24.6317  -31.8581   23.1993 C   0  0  0  0  0  0
  -25.9130  -32.4804   23.8345 C   0  0  1  0  0  0
  -27.2254  -27.2605   20.1008 C   0  0  0  0  0  0
  -25.5939  -33.8600   24.2264 N   0  0  0  0  0  0
  -23.4293  -30.4789   21.5490 C   0  0  2  0  0  0
  -24.8750  -28.9253   20.1182 C   0  0  0  0  0  0
  -22.7508  -29.4610   22.4971 C   0  0  0  0  0  0
  -18.0280  -28.1392   22.8499 C   0  0  0  0  0  0
  -24.1500  -36.7257   23.2638 C   0  0  0  0  0  0
  -25.9793  -30.7660   21.3838 C   0  0  0  0  0  0
  -26.0526  -29.3900   20.7169 C   0  0  0  0  0  0
  -27.2312  -28.5709   20.6957 C   0  0  0  0  0  0
  -26.0116  -26.8647   19.4915 C   0  0  0  0  0  0
  -24.8574  -27.6680   19.5022 C   0  0  0  0  0  0
  -23.6483  -29.8146   20.1664 C   0  0  0  0  0  0
  -25.4134  -36.3090   24.0334 C   0  0  1  0  0  0
  -20.5889  -28.3696   23.1304 C   0  0  2  0  0  0
  -20.6799  -26.9431   22.5416 C   0  0  0  0  0  0
  -19.5765  -26.6385   21.5233 C   0  0  0  0  0  0
  -18.1935  -26.7936   22.1627 C   0  0  0  0  0  0
  -19.1539  -28.8856   23.2889 C   0  0  0  0  0  0
  -18.9454  -30.1465   23.8900 C   0  0  0  0  0  0
  -17.6461  -30.6608   24.0547 C   0  0  0  0  0  0
  -25.9079  -34.9473   23.5099 C   0  0  0  0  0  0
  -16.5348  -29.9105   23.6333 C   0  0  0  0  0  0
  -16.7270  -28.6507   23.0374 C   0  0  0  0  0  0
  -26.4469  -31.6645   25.0751 C   0  0  0  0  0  0
  -25.3642  -31.3822   26.1441 C   0  0  0  0  0  0
  -27.0307  -30.3064   24.6240 C   0  0  0  0  0  0
  -27.6053  -32.4375   25.7495 C   0  0  0  0  0  0
  -27.5593  -37.1786   24.8462 C   0  0  0  0  0  0
  -21.4212  -29.3041   22.3696 N   0  0  0  0  0  0
  -26.4297  -37.3796   23.9422 N   0  0  0  0  0  0
  -24.7000  -31.0519   22.1009 N   0  0  0  0  0  0
  -23.4200  -28.8161   23.3078 O   0  0  0  0  0  0
  -28.3242  -26.3611   20.1238 O   0  0  0  0  0  0
  -26.5647  -34.8939   22.4660 O   0  0  0  0  0  0
  -23.5469  -32.1404   23.7262 O   0  0  0  0  0  0
  -29.5806  -18.4918   20.6587 C   0  0  0  0  0  0
  -30.4545  -17.3514   18.7003 C   0  0  0  0  0  0
  -30.0794  -19.7835   18.6587 C   0  0  0  0  0  0
  -29.9891  -17.2415   20.0321 C   0  0  0  0  0  0
  -29.6117  -19.7885   19.9901 C   0  0  0  0  0  0
  -30.4987  -18.5932   18.0314 C   0  0  0  0  0  0
  -30.3255  -23.8851   19.1234 C   0  0  0  0  0  0
  -29.6804  -23.8761   21.5513 C   0  0  0  0  0  0
  -28.0791  -24.8958   19.8421 C   0  0  0  0  0  0
  -28.6253  -22.1758   19.9374 C   0  0  0  0  0  0
  -29.1605  -23.7091   20.1169 C   0  0  0  0  0  0
  -29.8607  -15.8838   20.6360 N   0  0  0  0  0  0
  -29.2855  -21.0200   20.6260 O   0  0  0  0  0  0
  -30.9484  -18.6333   16.7531 F   0  0  0  0  0  0
  -31.4780  -12.5461   19.1855 H   0  0  0  0  0  0
  -30.3614  -11.4732   19.9797 H   0  0  0  0  0  0
  -29.8176  -11.7169   17.5350 H   0  0  0  0  0  0
  -29.6634  -13.4453   17.7080 H   0  0  0  0  0  0
  -27.9002  -11.2822   18.9045 H   0  0  0  0  0  0
  -27.3981  -12.5097   17.7719 H   0  0  0  0  0  0
  -27.6319  -14.2514   19.4348 H   0  0  0  0  0  0
  -28.6966  -12.2052   21.4414 H   0  0  0  0  0  0
  -28.4007  -13.9003   21.7556 H   0  0  0  0  0  0
  -25.2756   -9.5674   22.4715 H   0  0  0  0  0  0
  -23.9973   -7.4650   22.7514 H   0  0  0  0  0  0
  -21.0788   -8.8739   19.9006 H   0  0  0  0  0  0
  -22.3650  -10.9611   19.6120 H   0  0  0  0  0  0
  -21.1973   -7.6108   23.9674 H   0  0  0  0  0  0
  -21.1511   -6.0481   25.9082 H   0  0  0  0  0  0
  -22.0590   -2.7549   23.2866 H   0  0  0  0  0  0
  -22.4060  -11.9954   22.4860 H   0  0  0  0  0  0
  -21.1067  -13.1311   22.2564 H   0  0  0  0  0  0
  -24.6697  -15.8530   20.5475 H   0  0  0  0  0  0
  -26.2865  -15.6258   20.0934 H   0  0  0  0  0  0
  -26.7202  -32.5434   23.1097 H   0  0  0  0  0  0
  -25.0091  -33.9756   25.0416 H   0  0  0  0  0  0
  -22.7241  -31.3007   21.4055 H   0  0  0  0  0  0
  -23.3812  -35.9538   23.3290 H   0  0  0  0  0  0
  -24.3580  -36.8867   22.2048 H   0  0  0  0  0  0
  -23.7203  -37.6435   23.6659 H   0  0  0  0  0  0
  -26.1242  -31.5299   20.6178 H   0  0  0  0  0  0
  -26.8539  -30.8081   22.0221 H   0  0  0  0  0  0
  -28.1355  -28.9260   21.1703 H   0  0  0  0  0  0
  -25.9104  -25.9032   19.0146 H   0  0  0  0  0  0
  -23.9491  -27.2973   19.0466 H   0  0  0  0  0  0
  -23.7821  -30.5942   19.4163 H   0  0  0  0  0  0
  -22.7640  -29.2556   19.8563 H   0  0  0  0  0  0
  -25.1326  -36.1931   25.0830 H   0  0  0  0  0  0
  -20.9952  -28.3276   24.1440 H   0  0  0  0  0  0
  -20.5753  -26.2304   23.3612 H   0  0  0  0  0  0
  -21.6665  -26.7516   22.1181 H   0  0  0  0  0  0
  -19.6942  -25.6291   21.1277 H   0  0  0  0  0  0
  -19.6718  -27.3185   20.6761 H   0  0  0  0  0  0
  -17.4224  -26.6686   21.4014 H   0  0  0  0  0  0
  -18.0332  -26.0087   22.9025 H   0  0  0  0  0  0
  -19.7932  -30.7267   24.2295 H   0  0  0  0  0  0
  -17.5019  -31.6297   24.5139 H   0  0  0  0  0  0
  -15.5353  -30.3002   23.7666 H   0  0  0  0  0  0
  -15.8665  -28.0817   22.7116 H   0  0  0  0  0  0
  -24.5806  -30.7215   25.7721 H   0  0  0  0  0  0
  -24.8827  -32.3001   26.4827 H   0  0  0  0  0  0
  -25.7877  -30.8986   27.0246 H   0  0  0  0  0  0
  -26.2892  -29.6852   24.1202 H   0  0  0  0  0  0
  -27.3919  -29.7328   25.4781 H   0  0  0  0  0  0
  -27.8807  -30.4373   23.9537 H   0  0  0  0  0  0
  -27.2709  -33.3684   26.2086 H   0  0  0  0  0  0
  -28.3823  -32.6919   25.0280 H   0  0  0  0  0  0
  -28.0767  -31.8480   26.5367 H   0  0  0  0  0  0
  -28.2618  -38.0084   24.7561 H   0  0  0  0  0  0
  -28.1085  -36.2619   24.6249 H   0  0  0  0  0  0
  -27.2301  -37.1381   25.8858 H   0  0  0  0  0  0
  -20.9423  -29.8713   21.6846 H   0  0  0  0  0  0
  -26.0179  -38.2863   24.1446 H   0  0  0  0  0  0
  -29.2325  -18.4727   21.6819 H   0  0  0  0  0  0
  -30.7576  -16.4755   18.1480 H   0  0  0  0  0  0
  -30.1604  -20.7072   18.1067 H   0  0  0  0  0  0
  -30.7597  -24.8829   19.1830 H   0  0  0  0  0  0
  -29.9919  -23.7456   18.0935 H   0  0  0  0  0  0
  -31.1201  -23.1602   19.3066 H   0  0  0  0  0  0
  -30.0785  -24.8788   21.7115 H   0  0  0  0  0  0
  -30.4831  -23.1707   21.7675 H   0  0  0  0  0  0
  -28.8886  -23.7089   22.2796 H   0  0  0  0  0  0
  -27.1823  -24.6150   20.3926 H   0  0  0  0  0  0
  -27.8140  -24.8239   18.7865 H   0  0  0  0  0  0
  -28.4942  -21.9672   18.8751 H   0  0  0  0  0  0
  -27.6052  -22.1608   20.3225 H   0  0  0  0  0  0
  -28.9777  -15.7073   21.0858 H   0  0  0  0  0  0
  1 25  1  0  0  0
  1 30  2  0  0  0
  1 82  1  0  0  0
  2  3  1  0  0  0
  2 25  1  0  0  0
  2 85  1  0  0  0
  2 86  1  0  0  0
  3  4  1  0  0  0
  3 87  1  0  0  0
  3 88  1  0  0  0
  4  5  1  0  0  0
  4 89  1  0  0  0
  4 90  1  0  0  0
  5  6  1  0  0  0
  5 26  1  0  0  0
  5 91  1  0  0  0
  6 25  1  0  0  0
  6 92  1  0  0  0
  6 93  1  0  0  0
  7  8  2  0  0  0
  7 26  1  0  0  0
  7 29  1  0  0  0
  8  9  1  0  0  0
  8 22  1  0  0  0
  9 10  1  0  0  0
  9 27  2  0  0  0
 10 11  2  0  0  0
 10 15  1  0  0  0
 11 12  1  0  0  0
 11 94  1  0  0  0
 12 13  2  0  0  0
 12 95  1  0  0  0
 13 14  1  0  0  0
 13 31  1  0  0  0
 14 15  2  0  0  0
 14 96  1  0  0  0
 15 97  1  0  0  0
 16 17  2  0  0  0
 16 21  1  0  0  0
 16 31  1  0  0  0
 17 18  1  0  0  0
 17 98  1  0  0  0
 18 19  2  0  0  0
 18 99  1  0  0  0
 19 20  1  0  0  0
 19 24  1  0  0  0
 20 21  2  0  0  0
 20100  1  0  0  0
 21 23  1  0  0  0
 22 28  1  0  0  0
 22 32  2  0  0  0
 26 27  1  0  0  0
 28101  1  0  0  0
 28102  1  0  0  0
 29103  1  0  0  0
 29104  1  0  0  0
 33 34  1  0  0  0
 33 66  1  0  0  0
 33 70  2  0  0  0
 34 36  1  0  0  0
 34 59  1  0  0  0
 34105  1  0  0  0
 35 44  2  0  0  0
 35 45  1  0  0  0
 35 68  1  0  0  0
 36 56  1  0  0  0
 36106  1  0  0  0
 37 39  1  0  0  0
 37 47  1  0  0  0
 37 66  1  0  0  0
 37107  1  0  0  0
 38 43  2  0  0  0
 38 46  1  0  0  0
 38 47  1  0  0  0
 39 64  1  0  0  0
 39 67  2  0  0  0
 40 52  1  0  0  0
 40 53  2  0  0  0
 40 58  1  0  0  0
 41108  1  0  0  0
 41109  1  0  0  0
 41110  1  0  0  0
 41 48  1  0  0  0
 42 43  1  0  0  0
 42 66  1  0  0  0
 42111  1  0  0  0
 42112  1  0  0  0
 43 44  1  0  0  0
 44113  1  0  0  0
 45 46  2  0  0  0
 45114  1  0  0  0
 46115  1  0  0  0
 47116  1  0  0  0
 47117  1  0  0  0
 48 56  1  0  0  0
 48 65  1  0  0  0
 48118  1  0  0  0
 49 50  1  0  0  0
 49 53  1  0  0  0
 49 64  1  0  0  0
 49119  1  0  0  0
 50 51  1  0  0  0
 50120  1  0  0  0
 50121  1  0  0  0
 51 52  1  0  0  0
 51122  1  0  0  0
 51123  1  0  0  0
 52124  1  0  0  0
 52125  1  0  0  0
 53 54  1  0  0  0
 54 55  2  0  0  0
 54126  1  0  0  0
 55 57  1  0  0  0
 55127  1  0  0  0
 56 69  2  0  0  0
 57 58  2  0  0  0
 57128  1  0  0  0
 58129  1  0  0  0
 59 60  1  0  0  0
 59 61  1  0  0  0
 59 62  1  0  0  0
 60130  1  0  0  0
 60131  1  0  0  0
 60132  1  0  0  0
 61133  1  0  0  0
 61134  1  0  0  0
 61135  1  0  0  0
 62136  1  0  0  0
 62137  1  0  0  0
 62138  1  0  0  0
 63 65  1  0  0  0
 63139  1  0  0  0
 63140  1  0  0  0
 63141  1  0  0  0
 64142  1  0  0  0
 65143  1  0  0  0
 68 79  1  0  0  0
 71 74  2  0  0  0
 71 75  1  0  0  0
 71144  1  0  0  0
 72 74  1  0  0  0
 72 76  2  0  0  0
 72145  1  0  0  0
 73 75  2  0  0  0
 73 76  1  0  0  0
 73146  1  0  0  0
 74 82  1  0  0  0
 75 83  1  0  0  0
 76 84  1  0  0  0
 77147  1  0  0  0
 77148  1  0  0  0
 77149  1  0  0  0
 77 81  1  0  0  0
 78 81  1  0  0  0
 78150  1  0  0  0
 78151  1  0  0  0
 78152  1  0  0  0
 79 81  1  0  0  0
 79153  1  0  0  0
 79154  1  0  0  0
 80 81  1  0  0  0
 80 83  1  0  0  0
 80155  1  0  0  0
 80156  1  0  0  0
 82157  1  0  0  0
M  ISO  4   1 100  68 101  79 101  82 100
M  END
> <chiral flag>
0

> <version>
0

> <s_m_source_file>
/data/baiqing/PycharmProjects/Reinvent-master-3.2/result/LINK_invent/BTK/process_docking_weight1_custom_product_contain_oxygen_bond_distance_aromatic_linkinvent_7_9_3/rearranged_h_0138.sdf

> <i_m_source_file_index>
70

> <r_mmod_Potential_Energy-OPLS-2005>
235.293075561523

> <r_mmod_Stretch_Energy-OPLS-2005>
131.582733154297

> <r_mmod_Bend_Energy-OPLS-2005>
170.778106689453

> <r_mmod_Torsional_Energy-OPLS-2005>
251.910232543945

> <r_mmod_Improper_Torsional_Energy-OPLS-2005>
4.68502616882324

> <r_mmod_Van_der_Waal_Energy-OPLS-2005>
139.491836547852

> <r_mmod_Electrostatic_Energy-OPLS-2005>
-342.597900390625

> <r_mmod_Solvation_Energy-OPLS-2005>
-207.261444091797

> <b_mmod_Minimization_Converged-OPLS-2005>
0

> <r_mmod_RMS_Derivative-OPLS-2005>
4.51184749603271

$$$$
70
                    3D
 Structure written by MMmdl.
159167  0  0  1  0            999 V2000
  -30.6911  -14.6075   20.4695 C   0  0  0  0  0  0
  -30.4114  -12.3697   19.4600 C   0  0  0  0  0  0
  -29.4937  -12.4904   18.2260 C   0  0  0  0  0  0
  -28.0197  -12.3398   18.6428 C   0  0  0  0  0  0
  -27.6453  -13.2278   19.8604 C   0  0  2  0  0  0
  -28.6930  -13.1326   20.9927 C   0  0  0  0  0  0
  -25.2522  -13.8204   20.5704 C   0  0  0  0  0  0
  -24.1805  -13.0455   20.9211 C   0  0  0  0  0  0
  -24.6398  -11.6932   20.8773 C   0  0  0  0  0  0
  -23.9078  -10.4300   21.0425 C   0  0  0  0  0  0
  -24.3626   -9.4200   21.9193 C   0  0  0  0  0  0
  -23.6297   -8.2239   22.0762 C   0  0  0  0  0  0
  -22.4280   -8.0280   21.3546 C   0  0  0  0  0  0
  -21.9914   -9.0265   20.4651 C   0  0  0  0  0  0
  -22.7254  -10.2143   20.3066 C   0  0  0  0  0  0
  -21.6844   -6.0731   22.5275 C   0  0  0  0  0  0
  -21.4014   -6.5641   23.8203 C   0  0  0  0  0  0
  -21.3660   -5.6799   24.9170 C   0  0  0  0  0  0
  -21.6044   -4.3063   24.7226 C   0  0  0  0  0  0
  -21.8818   -3.8149   23.4347 C   0  0  0  0  0  0
  -21.9192   -4.6962   22.3397 C   0  0  0  0  0  0
  -22.7825  -13.5222   21.1866 C   0  0  0  0  0  0
  -22.1660   -4.2141   21.0983 F   0  0  0  0  0  0
  -21.5628   -3.4550   25.7744 F   0  0  0  0  0  0
  -30.0054  -13.4269   20.4073 N   0  0  0  0  0  0
  -26.2952  -12.9406   20.3354 N   0  0  0  0  0  0
  -25.9330  -11.6553   20.5820 N   0  0  0  0  0  0
  -22.0492  -12.8194   22.0426 N   0  0  0  0  0  0
  -25.4223  -15.1923   20.4071 N   0  0  0  0  0  0
  -31.8781  -14.6621   20.1401 O   0  0  0  0  0  0
  -21.6645   -6.8877   21.4239 O   0  0  0  0  0  0
  -22.3502  -14.5525   20.6718 O   0  0  0  0  0  0
  -24.6204  -31.8600   23.2046 C   0  0  0  0  0  0
  -25.9072  -32.4772   23.8347 C   0  0  1  0  0  0
  -27.2216  -27.3605   20.1186 C   0  0  0  0  0  0
  -25.5903  -33.8570   24.2290 N   0  0  0  0  0  0
  -23.4130  -30.4830   21.5473 C   0  0  2  0  0  0
  -24.8614  -28.9442   20.1078 C   0  0  0  0  0  0
  -22.7443  -29.4604   22.4964 C   0  0  0  0  0  0
  -18.0274  -28.1378   22.8494 C   0  0  0  0  0  0
  -24.1516  -36.7276   23.2645 C   0  0  0  0  0  0
  -25.9479  -30.8065   21.3681 C   0  0  0  0  0  0
  -26.0260  -29.4362   20.7136 C   0  0  0  0  0  0
  -27.2120  -28.6526   20.7139 C   0  0  0  0  0  0
  -26.0498  -26.9136   19.4759 C   0  0  0  0  0  0
  -24.8725  -27.6865   19.4819 C   0  0  0  0  0  0
  -23.6252  -29.8172   20.1612 C   0  0  0  0  0  0
  -25.4131  -36.3068   24.0345 C   0  0  1  0  0  0
  -20.5874  -28.3664   23.1306 C   0  0  2  0  0  0
  -20.6774  -26.9393   22.5421 C   0  0  0  0  0  0
  -19.5752  -26.6380   21.5220 C   0  0  0  0  0  0
  -18.1925  -26.7919   22.1632 C   0  0  0  0  0  0
  -19.1526  -28.8837   23.2895 C   0  0  0  0  0  0
  -18.9453  -30.1442   23.8909 C   0  0  0  0  0  0
  -17.6454  -30.6581   24.0560 C   0  0  0  0  0  0
  -25.9060  -34.9442   23.5125 C   0  0  0  0  0  0
  -16.5342  -29.9084   23.6331 C   0  0  0  0  0  0
  -16.7259  -28.6500   23.0352 C   0  0  0  0  0  0
  -26.4505  -31.6541   25.0666 C   0  0  0  0  0  0
  -25.3769  -31.3588   26.1388 C   0  0  0  0  0  0
  -27.0354  -30.2995   24.6039 C   0  0  0  0  0  0
  -27.6068  -32.4263   25.7428 C   0  0  0  0  0  0
  -27.5602  -37.1782   24.8468 C   0  0  0  0  0  0
  -21.4158  -29.3026   22.3707 N   0  0  0  0  0  0
  -26.4317  -37.3756   23.9405 N   0  0  0  0  0  0
  -24.6796  -31.0645   22.0983 N   0  0  0  0  0  0
  -23.4180  -28.8143   23.3030 O   0  0  0  0  0  0
  -28.3269  -26.5126   20.1529 O   0  0  0  0  0  0
  -26.5643  -34.8900   22.4702 O   0  0  0  0  0  0
  -23.5382  -32.1373   23.7419 O   0  0  0  0  0  0
  -30.7743  -19.6504   20.3742 C   0  0  0  0  0  0
  -30.2724  -20.9720   20.5188 C   0  0  0  0  0  0
  -28.5755  -18.7346   20.7269 C   0  0  0  0  0  0
  -29.9540  -18.4974   20.5009 C   0  0  0  0  0  0
  -28.9074  -21.2107   20.7947 C   0  0  0  0  0  0
  -28.0665  -20.0613   20.8719 C   0  0  0  0  0  0
  -27.0461  -25.2442   21.9282 C   0  0  0  0  0  0
  -29.4995  -25.6534   21.9872 C   0  0  0  0  0  0
  -28.3909  -22.6299   21.2113 C   0  0  0  0  0  0
  -30.6419  -17.0988   20.3563 C   0  0  0  0  0  0
  -28.5881  -23.9332   20.3213 C   0  0  0  0  0  0
  -28.3222  -25.3343   21.0485 C   0  0  0  0  0  0
  -29.9995  -15.7752   20.6534 N   0  0  0  0  0  0
  -26.7472  -20.2200   21.1386 F   0  0  0  0  0  0
  -31.4568  -12.4509   19.1578 H   0  0  0  0  0  0
  -30.3131  -11.3879   19.9258 H   0  0  0  0  0  0
  -29.7525  -11.7332   17.4851 H   0  0  0  0  0  0
  -29.6426  -13.4580   17.7423 H   0  0  0  0  0  0
  -27.8556  -11.2896   18.8884 H   0  0  0  0  0  0
  -27.3635  -12.5602   17.8001 H   0  0  0  0  0  0
  -27.6511  -14.2558   19.4988 H   0  0  0  0  0  0
  -28.6950  -12.1383   21.4404 H   0  0  0  0  0  0
  -28.4572  -13.8320   21.7962 H   0  0  0  0  0  0
  -25.2770   -9.5668   22.4777 H   0  0  0  0  0  0
  -23.9997   -7.4624   22.7483 H   0  0  0  0  0  0
  -21.0843   -8.8789   19.8953 H   0  0  0  0  0  0
  -22.3713  -10.9688   19.6183 H   0  0  0  0  0  0
  -21.2008   -7.6153   23.9699 H   0  0  0  0  0  0
  -21.1485   -6.0539   25.9069 H   0  0  0  0  0  0
  -22.0598   -2.7611   23.2858 H   0  0  0  0  0  0
  -22.4133  -11.9837   22.4767 H   0  0  0  0  0  0
  -21.1123  -13.1211   22.2702 H   0  0  0  0  0  0
  -24.6542  -15.8465   20.5032 H   0  0  0  0  0  0
  -26.2638  -15.6235   20.0472 H   0  0  0  0  0  0
  -26.7119  -32.5483   23.1088 H   0  0  0  0  0  0
  -25.0026  -33.9710   25.0412 H   0  0  0  0  0  0
  -22.7039  -31.3028   21.4077 H   0  0  0  0  0  0
  -23.3775  -35.9614   23.3312 H   0  0  0  0  0  0
  -24.3631  -36.8863   22.2059 H   0  0  0  0  0  0
  -23.7279  -37.6496   23.6641 H   0  0  0  0  0  0
  -26.0652  -31.5696   20.5978 H   0  0  0  0  0  0
  -26.8328  -30.8610   21.9907 H   0  0  0  0  0  0
  -28.1059  -29.0171   21.2002 H   0  0  0  0  0  0
  -26.0398  -25.9424   19.0008 H   0  0  0  0  0  0
  -23.9798  -27.3055   19.0056 H   0  0  0  0  0  0
  -23.7374  -30.5941   19.4037 H   0  0  0  0  0  0
  -22.7475  -29.2405   19.8650 H   0  0  0  0  0  0
  -25.1316  -36.1931   25.0840 H   0  0  0  0  0  0
  -20.9959  -28.3240   24.1435 H   0  0  0  0  0  0
  -20.5688  -26.2264   23.3609 H   0  0  0  0  0  0
  -21.6635  -26.7445   22.1202 H   0  0  0  0  0  0
  -19.6912  -25.6299   21.1229 H   0  0  0  0  0  0
  -19.6694  -27.3212   20.6765 H   0  0  0  0  0  0
  -17.4195  -26.6658   21.4029 H   0  0  0  0  0  0
  -18.0330  -26.0061   22.9033 H   0  0  0  0  0  0
  -19.7926  -30.7251   24.2283 H   0  0  0  0  0  0
  -17.5009  -31.6265   24.5156 H   0  0  0  0  0  0
  -15.5343  -30.2990   23.7653 H   0  0  0  0  0  0
  -15.8659  -28.0823   22.7068 H   0  0  0  0  0  0
  -24.6049  -30.6812   25.7717 H   0  0  0  0  0  0
  -24.8814  -32.2685   26.4779 H   0  0  0  0  0  0
  -25.8165  -30.8856   27.0174 H   0  0  0  0  0  0
  -26.2926  -29.6805   24.1004 H   0  0  0  0  0  0
  -27.4053  -29.7182   25.4498 H   0  0  0  0  0  0
  -27.8793  -30.4318   23.9263 H   0  0  0  0  0  0
  -27.2648  -33.3475   26.2152 H   0  0  0  0  0  0
  -28.3807  -32.6969   25.0233 H   0  0  0  0  0  0
  -28.0857  -31.8319   26.5219 H   0  0  0  0  0  0
  -28.2628  -38.0072   24.7492 H   0  0  0  0  0  0
  -28.1083  -36.2596   24.6308 H   0  0  0  0  0  0
  -27.2321  -37.1451   25.8876 H   0  0  0  0  0  0
  -20.9324  -29.8741   21.6924 H   0  0  0  0  0  0
  -26.0197  -38.2833   24.1388 H   0  0  0  0  0  0
  -31.8313  -19.5226   20.1836 H   0  0  0  0  0  0
  -30.9597  -21.8045   20.4663 H   0  0  0  0  0  0
  -27.8954  -17.8999   20.8133 H   0  0  0  0  0  0
  -27.1507  -24.5016   22.7191 H   0  0  0  0  0  0
  -26.1698  -24.9606   21.3468 H   0  0  0  0  0  0
  -26.8290  -26.1846   22.4355 H   0  0  0  0  0  0
  -29.6201  -24.9012   22.7665 H   0  0  0  0  0  0
  -29.3520  -26.6116   22.4868 H   0  0  0  0  0  0
  -30.4402  -25.7132   21.4401 H   0  0  0  0  0  0
  -28.8482  -22.8121   22.1830 H   0  0  0  0  0  0
  -27.3250  -22.5365   21.4177 H   0  0  0  0  0  0
  -31.5506  -17.1493   20.9603 H   0  0  0  0  0  0
  -30.9932  -17.0514   19.3233 H   0  0  0  0  0  0
  -29.6014  -23.9411   19.9190 H   0  0  0  0  0  0
  -27.9352  -23.8561   19.4520 H   0  0  0  0  0  0
  -29.0164  -15.7373   20.8693 H   0  0  0  0  0  0
  1 25  1  0  0  0
  1 30  2  0  0  0
  1 83  1  0  0  0
  2  3  1  0  0  0
  2 25  1  0  0  0
  2 85  1  0  0  0
  2 86  1  0  0  0
  3  4  1  0  0  0
  3 87  1  0  0  0
  3 88  1  0  0  0
  4  5  1  0  0  0
  4 89  1  0  0  0
  4 90  1  0  0  0
  5  6  1  0  0  0
  5 26  1  0  0  0
  5 91  1  0  0  0
  6 25  1  0  0  0
  6 92  1  0  0  0
  6 93  1  0  0  0
  7  8  2  0  0  0
  7 26  1  0  0  0
  7 29  1  0  0  0
  8  9  1  0  0  0
  8 22  1  0  0  0
  9 10  1  0  0  0
  9 27  2  0  0  0
 10 11  2  0  0  0
 10 15  1  0  0  0
 11 12  1  0  0  0
 11 94  1  0  0  0
 12 13  2  0  0  0
 12 95  1  0  0  0
 13 14  1  0  0  0
 13 31  1  0  0  0
 14 15  2  0  0  0
 14 96  1  0  0  0
 15 97  1  0  0  0
 16 17  2  0  0  0
 16 21  1  0  0  0
 16 31  1  0  0  0
 17 18  1  0  0  0
 17 98  1  0  0  0
 18 19  2  0  0  0
 18 99  1  0  0  0
 19 20  1  0  0  0
 19 24  1  0  0  0
 20 21  2  0  0  0
 20100  1  0  0  0
 21 23  1  0  0  0
 22 28  1  0  0  0
 22 32  2  0  0  0
 26 27  1  0  0  0
 28101  1  0  0  0
 28102  1  0  0  0
 29103  1  0  0  0
 29104  1  0  0  0
 33 34  1  0  0  0
 33 66  1  0  0  0
 33 70  2  0  0  0
 34 36  1  0  0  0
 34 59  1  0  0  0
 34105  1  0  0  0
 35 44  2  0  0  0
 35 45  1  0  0  0
 35 68  1  0  0  0
 36 56  1  0  0  0
 36106  1  0  0  0
 37 39  1  0  0  0
 37 47  1  0  0  0
 37 66  1  0  0  0
 37107  1  0  0  0
 38 43  2  0  0  0
 38 46  1  0  0  0
 38 47  1  0  0  0
 39 64  1  0  0  0
 39 67  2  0  0  0
 40 52  1  0  0  0
 40 53  2  0  0  0
 40 58  1  0  0  0
 41108  1  0  0  0
 41109  1  0  0  0
 41110  1  0  0  0
 41 48  1  0  0  0
 42 43  1  0  0  0
 42 66  1  0  0  0
 42111  1  0  0  0
 42112  1  0  0  0
 43 44  1  0  0  0
 44113  1  0  0  0
 45 46  2  0  0  0
 45114  1  0  0  0
 46115  1  0  0  0
 47116  1  0  0  0
 47117  1  0  0  0
 48 56  1  0  0  0
 48 65  1  0  0  0
 48118  1  0  0  0
 49 50  1  0  0  0
 49 53  1  0  0  0
 49 64  1  0  0  0
 49119  1  0  0  0
 50 51  1  0  0  0
 50120  1  0  0  0
 50121  1  0  0  0
 51 52  1  0  0  0
 51122  1  0  0  0
 51123  1  0  0  0
 52124  1  0  0  0
 52125  1  0  0  0
 53 54  1  0  0  0
 54 55  2  0  0  0
 54126  1  0  0  0
 55 57  1  0  0  0
 55127  1  0  0  0
 56 69  2  0  0  0
 57 58  2  0  0  0
 57128  1  0  0  0
 58129  1  0  0  0
 59 60  1  0  0  0
 59 61  1  0  0  0
 59 62  1  0  0  0
 60130  1  0  0  0
 60131  1  0  0  0
 60132  1  0  0  0
 61133  1  0  0  0
 61134  1  0  0  0
 61135  1  0  0  0
 62136  1  0  0  0
 62137  1  0  0  0
 62138  1  0  0  0
 63 65  1  0  0  0
 63139  1  0  0  0
 63140  1  0  0  0
 63141  1  0  0  0
 64142  1  0  0  0
 65143  1  0  0  0
 68 82  1  0  0  0
 71 72  2  0  0  0
 71 74  1  0  0  0
 71144  1  0  0  0
 72 75  1  0  0  0
 72145  1  0  0  0
 73 74  2  0  0  0
 73 76  1  0  0  0
 73146  1  0  0  0
 74 80  1  0  0  0
 75 76  2  0  0  0
 75 79  1  0  0  0
 76 84  1  0  0  0
 77147  1  0  0  0
 77148  1  0  0  0
 77149  1  0  0  0
 77 82  1  0  0  0
 78 82  1  0  0  0
 78150  1  0  0  0
 78151  1  0  0  0
 78152  1  0  0  0
 79 81  1  0  0  0
 79153  1  0  0  0
 79154  1  0  0  0
 80 83  1  0  0  0
 80155  1  0  0  0
 80156  1  0  0  0
 81 82  1  0  0  0
 81157  1  0  0  0
 81158  1  0  0  0
 83159  1  0  0  0
M  ISO  4   1 100  68 101  82 101  83 100
M  END
> <chiral flag>
0

> <version>
0

> <s_m_source_file>
/data/baiqing/PycharmProjects/Reinvent-master-3.2/result/LINK_invent/BTK/process_docking_weight1_custom_product_contain_oxygen_bond_distance_aromatic_linkinvent_7_9_3/rearranged_h_0138.sdf

> <i_m_source_file_index>
71

> <r_mmod_Potential_Energy-OPLS-2005>
24.3218631744385

> <r_mmod_Stretch_Energy-OPLS-2005>
70.4414749145508

> <r_mmod_Bend_Energy-OPLS-2005>
148.115875244141

> <r_mmod_Torsional_Energy-OPLS-2005>
236.626815795898

> <r_mmod_Improper_Torsional_Energy-OPLS-2005>
6.92576313018799

> <r_mmod_Van_der_Waal_Energy-OPLS-2005>
148.360885620117

> <r_mmod_Electrostatic_Energy-OPLS-2005>
-434.566986083984

> <r_mmod_Solvation_Energy-OPLS-2005>
-193.626602172852

> <b_mmod_Minimization_Converged-OPLS-2005>
0

> <r_mmod_RMS_Derivative-OPLS-2005>
2.04241752624512

$$$$
71
                    3D
 Structure written by MMmdl.
173182  0  0  1  0            999 V2000
  -30.7526  -14.3580   20.7117 C   0  0  0  0  0  0
  -30.4248  -12.2988   19.3796 C   0  0  0  0  0  0
  -29.4821  -12.5366   18.1848 C   0  0  0  0  0  0
  -28.0057  -12.3912   18.6022 C   0  0  0  0  0  0
  -27.6676  -13.1972   19.8831 C   0  0  2  0  0  0
  -28.7054  -12.9060   20.9874 C   0  0  0  0  0  0
  -25.2611  -13.8146   20.5669 C   0  0  0  0  0  0
  -24.1850  -13.0436   20.9164 C   0  0  0  0  0  0
  -24.6392  -11.6898   20.8721 C   0  0  0  0  0  0
  -23.9056  -10.4289   21.0399 C   0  0  0  0  0  0
  -24.3610   -9.4209   21.9180 C   0  0  0  0  0  0
  -23.6290   -8.2245   22.0753 C   0  0  0  0  0  0
  -22.4272   -8.0280   21.3543 C   0  0  0  0  0  0
  -21.9906   -9.0253   20.4643 C   0  0  0  0  0  0
  -22.7231  -10.2132   20.3050 C   0  0  0  0  0  0
  -21.6850   -6.0736   22.5281 C   0  0  0  0  0  0
  -21.4011   -6.5639   23.8215 C   0  0  0  0  0  0
  -21.3658   -5.6790   24.9175 C   0  0  0  0  0  0
  -21.6046   -4.3056   24.7225 C   0  0  0  0  0  0
  -21.8819   -3.8148   23.4348 C   0  0  0  0  0  0
  -21.9192   -4.6964   22.3404 C   0  0  0  0  0  0
  -22.7874  -13.5239   21.1836 C   0  0  0  0  0  0
  -22.1661   -4.2152   21.0979 F   0  0  0  0  0  0
  -21.5630   -3.4541   25.7741 F   0  0  0  0  0  0
  -30.0471  -13.2247   20.4568 N   0  0  0  0  0  0
  -26.3048  -12.9298   20.3386 N   0  0  0  0  0  0
  -25.9311  -11.6463   20.5750 N   0  0  0  0  0  0
  -22.0515  -12.8228   22.0390 N   0  0  0  0  0  0
  -25.4366  -15.1862   20.4084 N   0  0  0  0  0  0
  -31.7747  -14.6721   20.0914 O   0  0  0  0  0  0
  -21.6635   -6.8879   21.4244 O   0  0  0  0  0  0
  -22.3560  -14.5550   20.6696 O   0  0  0  0  0  0
  -24.6072  -31.8711   23.2129 C   0  0  0  0  0  0
  -25.8988  -32.4840   23.8413 C   0  0  1  0  0  0
  -27.2614  -27.4855   20.0944 C   0  0  0  0  0  0
  -25.5868  -33.8639   24.2346 N   0  0  0  0  0  0
  -23.3942  -30.4913   21.5510 C   0  0  2  0  0  0
  -24.8467  -28.9594   20.1202 C   0  0  0  0  0  0
  -22.7368  -29.4660   22.5011 C   0  0  0  0  0  0
  -18.0260  -28.1363   22.8493 C   0  0  0  0  0  0
  -24.1483  -36.7326   23.2638 C   0  0  0  0  0  0
  -25.9135  -30.8529   21.3576 C   0  0  0  0  0  0
  -25.9972  -29.4841   20.7198 C   0  0  0  0  0  0
  -27.2012  -28.7533   20.7221 C   0  0  0  0  0  0
  -26.0914  -26.9658   19.5023 C   0  0  0  0  0  0
  -24.8838  -27.6904   19.5153 C   0  0  0  0  0  0
  -23.6038  -29.8182   20.1663 C   0  0  0  0  0  0
  -25.4100  -36.3124   24.0345 C   0  0  1  0  0  0
  -20.5842  -28.3639   23.1336 C   0  0  2  0  0  0
  -20.6747  -26.9381   22.5423 C   0  0  0  0  0  0
  -19.5734  -26.6381   21.5205 C   0  0  0  0  0  0
  -18.1906  -26.7910   22.1618 C   0  0  0  0  0  0
  -19.1507  -28.8816   23.2912 C   0  0  0  0  0  0
  -18.9445  -30.1421   23.8924 C   0  0  0  0  0  0
  -17.6453  -30.6578   24.0565 C   0  0  0  0  0  0
  -25.9025  -34.9487   23.5146 C   0  0  0  0  0  0
  -16.5343  -29.9086   23.6317 C   0  0  0  0  0  0
  -16.7254  -28.6497   23.0345 C   0  0  0  0  0  0
  -26.4443  -31.6590   25.0707 C   0  0  0  0  0  0
  -25.3730  -31.3675   26.1466 C   0  0  0  0  0  0
  -27.0265  -30.3048   24.6006 C   0  0  0  0  0  0
  -27.6013  -32.4299   25.7488 C   0  0  0  0  0  0
  -27.5580  -37.1812   24.8461 C   0  0  0  0  0  0
  -21.4104  -29.3018   22.3755 N   0  0  0  0  0  0
  -26.4287  -37.3803   23.9415 N   0  0  0  0  0  0
  -24.6562  -31.0854   22.1004 N   0  0  0  0  0  0
  -23.4161  -28.8207   23.3039 O   0  0  0  0  0  0
  -28.3971  -26.7126   19.9813 O   0  0  0  0  0  0
  -26.5590  -34.8929   22.4708 O   0  0  0  0  0  0
  -23.5278  -32.1444   23.7549 O   0  0  0  0  0  0
  -31.5247  -20.8262   22.1410 C   0  0  0  0  0  0
  -32.2204  -21.3296   24.4102 C   0  0  0  0  0  0
  -30.8665  -22.0687   22.0631 C   0  0  0  0  0  0
  -31.5605  -22.5720   24.3344 C   0  0  0  0  0  0
  -31.9471  -16.9737   22.0729 C   0  0  0  0  0  0
  -30.1202  -16.8710   23.3847 C   0  0  0  0  0  0
  -32.2225  -20.4358   23.3091 C   0  0  0  0  0  0
  -30.8881  -22.9587   23.1594 C   0  0  0  0  0  0
  -30.7489  -16.2548   22.3440 C   0  0  0  0  0  0
  -31.9794  -17.9873   22.9984 C   0  0  0  0  0  0
  -29.7833  -26.3604   21.9309 C   0  0  0  0  0  0
  -35.1261  -20.2600   22.4064 C   0  0  0  0  0  0
  -34.3075  -17.4142   24.8727 C   0  0  0  0  0  0
  -30.0380  -24.8515   21.8241 C   0  0  0  0  0  0
  -29.6121  -27.1174   20.6128 C   0  0  0  0  0  0
  -34.1001  -19.1210   22.2576 C   0  0  0  0  0  0
  -33.5908  -18.7713   24.7275 C   0  0  0  0  0  0
  -32.9695  -19.0801   23.3289 C   0  0  0  0  0  0
  -30.2433  -15.0903   21.7145 N   0  0  0  0  0  0
  -30.2642  -24.2129   23.1212 N   0  0  0  0  0  0
  -29.7299  -26.9320   23.0265 O   0  0  0  0  0  0
  -30.8671  -17.9297   23.7980 O   0  0  0  0  0  0
  -31.4639  -12.4240   19.0696 H   0  0  0  0  0  0
  -30.3443  -11.2687   19.7309 H   0  0  0  0  0  0
  -29.7113  -11.8384   17.3787 H   0  0  0  0  0  0
  -29.6507  -13.5363   17.7808 H   0  0  0  0  0  0
  -27.8057  -11.3317   18.7661 H   0  0  0  0  0  0
  -27.3534  -12.6995   17.7843 H   0  0  0  0  0  0
  -27.7347  -14.2557   19.6307 H   0  0  0  0  0  0
  -28.6739  -11.8495   21.2587 H   0  0  0  0  0  0
  -28.4424  -13.4349   21.9035 H   0  0  0  0  0  0
  -25.2757   -9.5687   22.4751 H   0  0  0  0  0  0
  -24.0003   -7.4635   22.7468 H   0  0  0  0  0  0
  -21.0841   -8.8766   19.8945 H   0  0  0  0  0  0
  -22.3690  -10.9669   19.6156 H   0  0  0  0  0  0
  -21.2000   -7.6145   23.9720 H   0  0  0  0  0  0
  -21.1480   -6.0520   25.9077 H   0  0  0  0  0  0
  -22.0600   -2.7612   23.2847 H   0  0  0  0  0  0
  -22.4122  -11.9878   22.4763 H   0  0  0  0  0  0
  -21.1134  -13.1255   22.2603 H   0  0  0  0  0  0
  -24.6760  -15.8484   20.5177 H   0  0  0  0  0  0
  -26.3000  -15.6226   20.1085 H   0  0  0  0  0  0
  -26.7071  -32.5590   23.1202 H   0  0  0  0  0  0
  -25.0000  -33.9815   25.0477 H   0  0  0  0  0  0
  -22.6803  -31.3051   21.4099 H   0  0  0  0  0  0
  -23.3741  -35.9660   23.3299 H   0  0  0  0  0  0
  -24.3588  -36.8938   22.2053 H   0  0  0  0  0  0
  -23.7230  -37.6532   23.6649 H   0  0  0  0  0  0
  -26.0079  -31.6134   20.5811 H   0  0  0  0  0  0
  -26.8067  -30.9238   21.9657 H   0  0  0  0  0  0
  -28.0602  -29.1963   21.2015 H   0  0  0  0  0  0
  -26.1208  -25.9984   19.0203 H   0  0  0  0  0  0
  -23.9999  -27.2736   19.0522 H   0  0  0  0  0  0
  -23.7071  -30.5900   19.4024 H   0  0  0  0  0  0
  -22.7315  -29.2302   19.8744 H   0  0  0  0  0  0
  -25.1268  -36.2010   25.0838 H   0  0  0  0  0  0
  -20.9930  -28.3199   24.1457 H   0  0  0  0  0  0
  -20.5641  -26.2244   23.3602 H   0  0  0  0  0  0
  -21.6624  -26.7424   22.1226 H   0  0  0  0  0  0
  -19.6899  -25.6302   21.1208 H   0  0  0  0  0  0
  -19.6675  -27.3210   20.6748 H   0  0  0  0  0  0
  -17.4178  -26.6657   21.4017 H   0  0  0  0  0  0
  -18.0311  -26.0042   22.9006 H   0  0  0  0  0  0
  -19.7929  -30.7216   24.2313 H   0  0  0  0  0  0
  -17.5020  -31.6261   24.5156 H   0  0  0  0  0  0
  -15.5348  -30.3007   23.7621 H   0  0  0  0  0  0
  -15.8648  -28.0835   22.7048 H   0  0  0  0  0  0
  -24.5919  -30.6993   25.7821 H   0  0  0  0  0  0
  -24.8898  -32.2823   26.4909 H   0  0  0  0  0  0
  -25.8106  -30.8870   27.0223 H   0  0  0  0  0  0
  -26.2792  -29.6848   24.1032 H   0  0  0  0  0  0
  -27.4048  -29.7226   25.4418 H   0  0  0  0  0  0
  -27.8619  -30.4396   23.9129 H   0  0  0  0  0  0
  -27.2614  -33.3580   26.2098 H   0  0  0  0  0  0
  -28.3823  -32.6880   25.0326 H   0  0  0  0  0  0
  -28.0670  -31.8393   26.5388 H   0  0  0  0  0  0
  -28.2579  -38.0126   24.7532 H   0  0  0  0  0  0
  -28.1087  -36.2656   24.6251 H   0  0  0  0  0  0
  -27.2304  -37.1436   25.8864 H   0  0  0  0  0  0
  -20.9249  -29.8763   21.7008 H   0  0  0  0  0  0
  -26.0180  -38.2880   24.1429 H   0  0  0  0  0  0
  -31.4959  -20.1686   21.2838 H   0  0  0  0  0  0
  -32.7266  -21.0937   25.3334 H   0  0  0  0  0  0
  -30.3494  -22.3186   21.1480 H   0  0  0  0  0  0
  -31.5866  -23.2294   25.1924 H   0  0  0  0  0  0
  -32.7021  -16.7732   21.3258 H   0  0  0  0  0  0
  -29.2054  -16.6972   23.9355 H   0  0  0  0  0  0
  -35.8434  -20.2367   21.5861 H   0  0  0  0  0  0
  -35.6939  -20.1760   23.3325 H   0  0  0  0  0  0
  -34.6488  -21.2400   22.3912 H   0  0  0  0  0  0
  -34.6394  -17.2677   25.9006 H   0  0  0  0  0  0
  -35.1946  -17.3540   24.2430 H   0  0  0  0  0  0
  -33.6563  -16.5766   24.6222 H   0  0  0  0  0  0
  -30.9028  -24.7027   21.1751 H   0  0  0  0  0  0
  -29.1796  -24.3929   21.3309 H   0  0  0  0  0  0
  -30.4348  -26.8276   19.9592 H   0  0  0  0  0  0
  -29.7178  -28.1901   20.7537 H   0  0  0  0  0  0
  -34.6307  -18.1700   22.2292 H   0  0  0  0  0  0
  -33.6508  -19.2158   21.2684 H   0  0  0  0  0  0
  -34.2931  -19.5525   25.0158 H   0  0  0  0  0  0
  -32.7976  -18.7931   25.4762 H   0  0  0  0  0  0
  -29.3938  -14.7128   22.1057 H   0  0  0  0  0  0
  -30.4428  -24.8661   23.8814 H   0  0  0  0  0  0
  1 25  1  0  0  0
  1 30  2  0  0  0
  1 89  1  0  0  0
  2  3  1  0  0  0
  2 25  1  0  0  0
  2 93  1  0  0  0
  2 94  1  0  0  0
  3  4  1  0  0  0
  3 95  1  0  0  0
  3 96  1  0  0  0
  4  5  1  0  0  0
  4 97  1  0  0  0
  4 98  1  0  0  0
  5  6  1  0  0  0
  5 26  1  0  0  0
  5 99  1  0  0  0
  6 25  1  0  0  0
  6100  1  0  0  0
  6101  1  0  0  0
  7  8  2  0  0  0
  7 26  1  0  0  0
  7 29  1  0  0  0
  8  9  1  0  0  0
  8 22  1  0  0  0
  9 10  1  0  0  0
  9 27  2  0  0  0
 10 11  2  0  0  0
 10 15  1  0  0  0
 11 12  1  0  0  0
 11102  1  0  0  0
 12 13  2  0  0  0
 12103  1  0  0  0
 13 14  1  0  0  0
 13 31  1  0  0  0
 14 15  2  0  0  0
 14104  1  0  0  0
 15105  1  0  0  0
 16 17  2  0  0  0
 16 21  1  0  0  0
 16 31  1  0  0  0
 17 18  1  0  0  0
 17106  1  0  0  0
 18 19  2  0  0  0
 18107  1  0  0  0
 19 20  1  0  0  0
 19 24  1  0  0  0
 20 21  2  0  0  0
 20108  1  0  0  0
 21 23  1  0  0  0
 22 28  1  0  0  0
 22 32  2  0  0  0
 26 27  1  0  0  0
 28109  1  0  0  0
 28110  1  0  0  0
 29111  1  0  0  0
 29112  1  0  0  0
 33 34  1  0  0  0
 33 66  1  0  0  0
 33 70  2  0  0  0
 34 36  1  0  0  0
 34 59  1  0  0  0
 34113  1  0  0  0
 35 44  2  0  0  0
 35 45  1  0  0  0
 35 68  1  0  0  0
 36 56  1  0  0  0
 36114  1  0  0  0
 37 39  1  0  0  0
 37 47  1  0  0  0
 37 66  1  0  0  0
 37115  1  0  0  0
 38 43  2  0  0  0
 38 46  1  0  0  0
 38 47  1  0  0  0
 39 64  1  0  0  0
 39 67  2  0  0  0
 40 52  1  0  0  0
 40 53  2  0  0  0
 40 58  1  0  0  0
 41116  1  0  0  0
 41117  1  0  0  0
 41118  1  0  0  0
 41 48  1  0  0  0
 42 43  1  0  0  0
 42 66  1  0  0  0
 42119  1  0  0  0
 42120  1  0  0  0
 43 44  1  0  0  0
 44121  1  0  0  0
 45 46  2  0  0  0
 45122  1  0  0  0
 46123  1  0  0  0
 47124  1  0  0  0
 47125  1  0  0  0
 48 56  1  0  0  0
 48 65  1  0  0  0
 48126  1  0  0  0
 49 50  1  0  0  0
 49 53  1  0  0  0
 49 64  1  0  0  0
 49127  1  0  0  0
 50 51  1  0  0  0
 50128  1  0  0  0
 50129  1  0  0  0
 51 52  1  0  0  0
 51130  1  0  0  0
 51131  1  0  0  0
 52132  1  0  0  0
 52133  1  0  0  0
 53 54  1  0  0  0
 54 55  2  0  0  0
 54134  1  0  0  0
 55 57  1  0  0  0
 55135  1  0  0  0
 56 69  2  0  0  0
 57 58  2  0  0  0
 57136  1  0  0  0
 58137  1  0  0  0
 59 60  1  0  0  0
 59 61  1  0  0  0
 59 62  1  0  0  0
 60138  1  0  0  0
 60139  1  0  0  0
 60140  1  0  0  0
 61141  1  0  0  0
 61142  1  0  0  0
 61143  1  0  0  0
 62144  1  0  0  0
 62145  1  0  0  0
 62146  1  0  0  0
 63 65  1  0  0  0
 63147  1  0  0  0
 63148  1  0  0  0
 63149  1  0  0  0
 64150  1  0  0  0
 65151  1  0  0  0
 68 85  1  0  0  0
 71 73  2  0  0  0
 71 77  1  0  0  0
 71152  1  0  0  0
 72 74  1  0  0  0
 72 77  2  0  0  0
 72153  1  0  0  0
 73 78  1  0  0  0
 73154  1  0  0  0
 74 78  2  0  0  0
 74155  1  0  0  0
 75 79  1  0  0  0
 75 80  2  0  0  0
 75156  1  0  0  0
 76 79  2  0  0  0
 76 92  1  0  0  0
 76157  1  0  0  0
 77 88  1  0  0  0
 78 90  1  0  0  0
 79 89  1  0  0  0
 80 88  1  0  0  0
 80 92  1  0  0  0
 81 84  1  0  0  0
 81 85  1  0  0  0
 81 91  2  0  0  0
 82 86  1  0  0  0
 82158  1  0  0  0
 82159  1  0  0  0
 82160  1  0  0  0
 83 87  1  0  0  0
 83161  1  0  0  0
 83162  1  0  0  0
 83163  1  0  0  0
 84 90  1  0  0  0
 84164  1  0  0  0
 84165  1  0  0  0
 85166  1  0  0  0
 85167  1  0  0  0
 86168  1  0  0  0
 86169  1  0  0  0
 86 88  1  0  0  0
 87 88  1  0  0  0
 87170  1  0  0  0
 87171  1  0  0  0
 89172  1  0  0  0
 90173  1  0  0  0
M  ISO  4   1 100  68 101  85 101  89 100
M  END
> <chiral flag>
0

> <version>
0

> <s_m_source_file>
/data/baiqing/PycharmProjects/Reinvent-master-3.2/result/LINK_invent/BTK/process_docking_weight1_custom_product_contain_oxygen_bond_distance_aromatic_linkinvent_7_9_3/rearranged_h_0138.sdf

> <i_m_source_file_index>
72

> <r_mmod_Potential_Energy-OPLS-2005>
6.29496669769287

> <r_mmod_Stretch_Energy-OPLS-2005>
37.6661758422852

> <r_mmod_Bend_Energy-OPLS-2005>
130.242904663086

> <r_mmod_Torsional_Energy-OPLS-2005>
213.153839111328

> <r_mmod_Improper_Torsional_Energy-OPLS-2005>
4.37209844589233

> <r_mmod_Van_der_Waal_Energy-OPLS-2005>
165.524032592773

> <r_mmod_Electrostatic_Energy-OPLS-2005>
-323.747528076172

> <r_mmod_Solvation_Energy-OPLS-2005>
-226.943756103516

> <b_mmod_Minimization_Converged-OPLS-2005>
0

> <r_mmod_RMS_Derivative-OPLS-2005>
0.911831617355347

$$$$
72
                    3D
 Structure written by MMmdl.
167176  0  0  1  0            999 V2000
  -30.6408  -14.5996   20.5100 C   0  0  0  0  0  0
  -30.4255  -12.3655   19.4455 C   0  0  0  0  0  0
  -29.5006  -12.4936   18.2151 C   0  0  0  0  0  0
  -28.0239  -12.3370   18.6280 C   0  0  0  0  0  0
  -27.6495  -13.2116   19.8542 C   0  0  2  0  0  0
  -28.6913  -13.0657   20.9855 C   0  0  0  0  0  0
  -25.2568  -13.8159   20.5673 C   0  0  0  0  0  0
  -24.1837  -13.0433   20.9196 C   0  0  0  0  0  0
  -24.6400  -11.6906   20.8734 C   0  0  0  0  0  0
  -23.9068  -10.4297   21.0410 C   0  0  0  0  0  0
  -24.3624   -9.4210   21.9183 C   0  0  0  0  0  0
  -23.6305   -8.2240   22.0744 C   0  0  0  0  0  0
  -22.4278   -8.0285   21.3543 C   0  0  0  0  0  0
  -21.9922   -9.0254   20.4634 C   0  0  0  0  0  0
  -22.7248  -10.2136   20.3046 C   0  0  0  0  0  0
  -21.6852   -6.0750   22.5288 C   0  0  0  0  0  0
  -21.4011   -6.5652   23.8224 C   0  0  0  0  0  0
  -21.3654   -5.6794   24.9181 C   0  0  0  0  0  0
  -21.6040   -4.3056   24.7226 C   0  0  0  0  0  0
  -21.8822   -3.8158   23.4344 C   0  0  0  0  0  0
  -21.9200   -4.6980   22.3403 C   0  0  0  0  0  0
  -22.7867  -13.5234   21.1859 C   0  0  0  0  0  0
  -22.1671   -4.2171   21.0976 F   0  0  0  0  0  0
  -21.5627   -3.4536   25.7738 F   0  0  0  0  0  0
  -30.0063  -13.3914   20.4199 N   0  0  0  0  0  0
  -26.2974  -12.9331   20.3262 N   0  0  0  0  0  0
  -25.9315  -11.6495   20.5724 N   0  0  0  0  0  0
  -22.0487  -12.8220   22.0391 N   0  0  0  0  0  0
  -25.4293  -15.1878   20.4089 N   0  0  0  0  0  0
  -31.8114  -14.7237   20.1380 O   0  0  0  0  0  0
  -21.6630   -6.8892   21.4247 O   0  0  0  0  0  0
  -22.3579  -14.5556   20.6721 O   0  0  0  0  0  0
  -24.6229  -31.8617   23.1965 C   0  0  0  0  0  0
  -25.9080  -32.4791   23.8303 C   0  0  1  0  0  0
  -27.2377  -27.3478   20.1161 C   0  0  0  0  0  0
  -25.5894  -33.8585   24.2252 N   0  0  0  0  0  0
  -23.4150  -30.4781   21.5394 C   0  0  2  0  0  0
  -24.8606  -28.9205   20.1082 C   0  0  0  0  0  0
  -22.7448  -29.4643   22.4952 C   0  0  0  0  0  0
  -18.0284  -28.1411   22.8506 C   0  0  0  0  0  0
  -24.1466  -36.7264   23.2645 C   0  0  0  0  0  0
  -25.9466  -30.8013   21.3561 C   0  0  0  0  0  0
  -26.0189  -29.4233   20.7108 C   0  0  0  0  0  0
  -27.2031  -28.6442   20.7065 C   0  0  0  0  0  0
  -26.0656  -26.8761   19.4948 C   0  0  0  0  0  0
  -24.8845  -27.6519   19.4941 C   0  0  0  0  0  0
  -23.6245  -29.7954   20.1579 C   0  0  0  0  0  0
  -25.4110  -36.3089   24.0336 C   0  0  1  0  0  0
  -20.5880  -28.3714   23.1303 C   0  0  2  0  0  0
  -20.6753  -26.9442   22.5424 C   0  0  0  0  0  0
  -19.5737  -26.6418   21.5219 C   0  0  0  0  0  0
  -18.1917  -26.7965   22.1630 C   0  0  0  0  0  0
  -19.1535  -28.8884   23.2906 C   0  0  0  0  0  0
  -18.9469  -30.1484   23.8936 C   0  0  0  0  0  0
  -17.6467  -30.6618   24.0589 C   0  0  0  0  0  0
  -25.9063  -34.9462   23.5115 C   0  0  0  0  0  0
  -16.5358  -29.9129   23.6325 C   0  0  0  0  0  0
  -16.7277  -28.6538   23.0365 C   0  0  0  0  0  0
  -26.4473  -31.6600   25.0665 C   0  0  0  0  0  0
  -25.3708  -31.3709   26.1390 C   0  0  0  0  0  0
  -27.0333  -30.3045   24.6074 C   0  0  0  0  0  0
  -27.6068  -32.4303   25.7424 C   0  0  0  0  0  0
  -27.5574  -37.1801   24.8484 C   0  0  0  0  0  0
  -21.4171  -29.3053   22.3680 N   0  0  0  0  0  0
  -26.4282  -37.3794   23.9431 N   0  0  0  0  0  0
  -24.6810  -31.0643   22.0883 N   0  0  0  0  0  0
  -23.4182  -28.8208   23.3042 O   0  0  0  0  0  0
  -28.4238  -26.6240   20.1812 O   0  0  0  0  0  0
  -26.5653  -34.8945   22.4692 O   0  0  0  0  0  0
  -23.5400  -32.1403   23.7317 O   0  0  0  0  0  0
  -30.7181  -19.8875   21.2708 C   0  0  0  0  0  0
  -29.1013  -18.0913   20.9627 C   0  0  0  0  0  0
  -31.4761  -17.5770   21.0251 C   0  0  0  0  0  0
  -29.3734  -19.4936   21.1429 C   0  0  0  0  0  0
  -31.7659  -18.9448   21.2187 C   0  0  0  0  0  0
  -30.1466  -17.1047   20.9070 C   0  0  0  0  0  0
  -28.2626  -24.1215   20.3495 C   0  0  0  0  0  0
  -28.6685  -25.3009   19.7849 C   0  0  0  0  0  0
  -27.1521  -23.8851   21.3274 C   0  0  0  0  0  0
  -28.9167  -22.7329   20.1562 C   0  0  0  0  0  0
  -26.7122  -22.4388   20.9975 C   0  0  0  0  0  0
  -33.5767  -19.0741   22.9465 C   0  0  0  0  0  0
  -33.5358  -20.8158   21.1196 C   0  0  0  0  0  0
  -28.2738  -20.5534   21.4682 C   0  0  0  0  0  0
  -33.2121  -19.3555   21.4817 C   0  0  0  0  0  0
  -29.8484  -15.6757   20.8247 N   0  0  0  0  0  0
  -27.9062  -21.6806   20.5183 N   0  3  2  0  0  0
  -31.4704  -12.4713   19.1490 H   0  0  0  0  0  0
  -30.3416  -11.3703   19.8855 H   0  0  0  0  0  0
  -29.7579  -11.7426   17.4667 H   0  0  0  0  0  0
  -29.6501  -13.4639   17.7384 H   0  0  0  0  0  0
  -27.8600  -11.2851   18.8640 H   0  0  0  0  0  0
  -27.3696  -12.5638   17.7854 H   0  0  0  0  0  0
  -27.6680  -14.2442   19.5052 H   0  0  0  0  0  0
  -28.6960  -12.0462   21.3743 H   0  0  0  0  0  0
  -28.4453  -13.7076   21.8323 H   0  0  0  0  0  0
  -25.2770   -9.5698   22.4763 H   0  0  0  0  0  0
  -24.0031   -7.4628   22.7454 H   0  0  0  0  0  0
  -21.0860   -8.8777   19.8927 H   0  0  0  0  0  0
  -22.3720  -10.9679   19.6154 H   0  0  0  0  0  0
  -21.1989   -7.6159   23.9744 H   0  0  0  0  0  0
  -21.1467   -6.0511   25.9088 H   0  0  0  0  0  0
  -22.0601   -2.7623   23.2831 H   0  0  0  0  0  0
  -22.4067  -11.9860   22.4767 H   0  0  0  0  0  0
  -21.1093  -13.1255   22.2549 H   0  0  0  0  0  0
  -24.6558  -15.8367   20.5027 H   0  0  0  0  0  0
  -26.2669  -15.6226   20.0454 H   0  0  0  0  0  0
  -26.7160  -32.5486   23.1066 H   0  0  0  0  0  0
  -24.9998  -33.9708   25.0370 H   0  0  0  0  0  0
  -22.7091  -31.2972   21.3904 H   0  0  0  0  0  0
  -23.3752  -35.9572   23.3325 H   0  0  0  0  0  0
  -24.3549  -36.8863   22.2055 H   0  0  0  0  0  0
  -23.7177  -37.6459   23.6643 H   0  0  0  0  0  0
  -26.0617  -31.5591   20.5783 H   0  0  0  0  0  0
  -26.8335  -30.8637   21.9742 H   0  0  0  0  0  0
  -28.1008  -29.0257   21.1711 H   0  0  0  0  0  0
  -26.0575  -25.9005   19.0279 H   0  0  0  0  0  0
  -23.9947  -27.2618   19.0208 H   0  0  0  0  0  0
  -23.7339  -30.5621   19.3919 H   0  0  0  0  0  0
  -22.7457  -29.2154   19.8672 H   0  0  0  0  0  0
  -25.1280  -36.1942   25.0826 H   0  0  0  0  0  0
  -21.0002  -28.3293   24.1408 H   0  0  0  0  0  0
  -20.5642  -26.2333   23.3620 H   0  0  0  0  0  0
  -21.6631  -26.7459   22.1230 H   0  0  0  0  0  0
  -19.6879  -25.6333   21.1234 H   0  0  0  0  0  0
  -19.6646  -27.3230   20.6746 H   0  0  0  0  0  0
  -17.4177  -26.6741   21.4035 H   0  0  0  0  0  0
  -18.0307  -26.0105   22.9014 H   0  0  0  0  0  0
  -19.7949  -30.7297   24.2305 H   0  0  0  0  0  0
  -17.5027  -31.6291   24.5191 H   0  0  0  0  0  0
  -15.5367  -30.3040   23.7640 H   0  0  0  0  0  0
  -15.8671  -28.0860   22.7080 H   0  0  0  0  0  0
  -24.5893  -30.7055   25.7682 H   0  0  0  0  0  0
  -24.8889  -32.2873   26.4823 H   0  0  0  0  0  0
  -25.8034  -30.8869   27.0155 H   0  0  0  0  0  0
  -26.2892  -29.6773   24.1150 H   0  0  0  0  0  0
  -27.4129  -29.7317   25.4544 H   0  0  0  0  0  0
  -27.8693  -30.4371   23.9203 H   0  0  0  0  0  0
  -27.2727  -33.3626   26.1989 H   0  0  0  0  0  0
  -28.3875  -32.6823   25.0231 H   0  0  0  0  0  0
  -28.0718  -31.8418   26.5339 H   0  0  0  0  0  0
  -28.2634  -38.0065   24.7555 H   0  0  0  0  0  0
  -28.1028  -36.2613   24.6281 H   0  0  0  0  0  0
  -27.2308  -37.1439   25.8892 H   0  0  0  0  0  0
  -20.9343  -29.8732   21.6858 H   0  0  0  0  0  0
  -26.0162  -38.2868   24.1441 H   0  0  0  0  0  0
  -30.9381  -20.9200   21.4931 H   0  0  0  0  0  0
  -28.0709  -17.7645   20.9309 H   0  0  0  0  0  0
  -32.3086  -16.8898   21.0303 H   0  0  0  0  0  0
  -29.5124  -25.2942   19.1072 H   0  0  0  0  0  0
  -26.3411  -24.6071   21.2352 H   0  0  0  0  0  0
  -27.5598  -23.9409   22.3370 H   0  0  0  0  0  0
  -29.7631  -22.6852   20.8391 H   0  0  0  0  0  0
  -29.2980  -22.5982   19.1433 H   0  0  0  0  0  0
  -25.9912  -22.4560   20.1790 H   0  0  0  0  0  0
  -26.2083  -21.9670   21.8429 H   0  0  0  0  0  0
  -33.4523  -18.0184   23.1898 H   0  0  0  0  0  0
  -32.9425  -19.6443   23.6271 H   0  0  0  0  0  0
  -34.6130  -19.3420   23.1543 H   0  0  0  0  0  0
  -33.2486  -21.0496   20.0943 H   0  0  0  0  0  0
  -34.6059  -21.0042   21.2116 H   0  0  0  0  0  0
  -33.0349  -21.5203   21.7842 H   0  0  0  0  0  0
  -28.5327  -21.0009   22.4297 H   0  0  0  0  0  0
  -27.3624  -19.9849   21.6613 H   0  0  0  0  0  0
  -33.8392  -18.7259   20.8478 H   0  0  0  0  0  0
  -28.8882  -15.4253   21.0004 H   0  0  0  0  0  0
  -27.6301  -21.2270   19.6606 H   0  0  0  0  0  0
  1 25  1  0  0  0
  1 30  2  0  0  0
  1 86  1  0  0  0
  2  3  1  0  0  0
  2 25  1  0  0  0
  2 88  1  0  0  0
  2 89  1  0  0  0
  3  4  1  0  0  0
  3 90  1  0  0  0
  3 91  1  0  0  0
  4  5  1  0  0  0
  4 92  1  0  0  0
  4 93  1  0  0  0
  5  6  1  0  0  0
  5 26  1  0  0  0
  5 94  1  0  0  0
  6 25  1  0  0  0
  6 95  1  0  0  0
  6 96  1  0  0  0
  7  8  2  0  0  0
  7 26  1  0  0  0
  7 29  1  0  0  0
  8  9  1  0  0  0
  8 22  1  0  0  0
  9 10  1  0  0  0
  9 27  2  0  0  0
 10 11  2  0  0  0
 10 15  1  0  0  0
 11 12  1  0  0  0
 11 97  1  0  0  0
 12 13  2  0  0  0
 12 98  1  0  0  0
 13 14  1  0  0  0
 13 31  1  0  0  0
 14 15  2  0  0  0
 14 99  1  0  0  0
 15100  1  0  0  0
 16 17  2  0  0  0
 16 21  1  0  0  0
 16 31  1  0  0  0
 17 18  1  0  0  0
 17101  1  0  0  0
 18 19  2  0  0  0
 18102  1  0  0  0
 19 20  1  0  0  0
 19 24  1  0  0  0
 20 21  2  0  0  0
 20103  1  0  0  0
 21 23  1  0  0  0
 22 28  1  0  0  0
 22 32  2  0  0  0
 26 27  1  0  0  0
 28104  1  0  0  0
 28105  1  0  0  0
 29106  1  0  0  0
 29107  1  0  0  0
 33 34  1  0  0  0
 33 66  1  0  0  0
 33 70  2  0  0  0
 34 36  1  0  0  0
 34 59  1  0  0  0
 34108  1  0  0  0
 35 44  2  0  0  0
 35 45  1  0  0  0
 35 68  1  0  0  0
 36 56  1  0  0  0
 36109  1  0  0  0
 37 39  1  0  0  0
 37 47  1  0  0  0
 37 66  1  0  0  0
 37110  1  0  0  0
 38 43  2  0  0  0
 38 46  1  0  0  0
 38 47  1  0  0  0
 39 64  1  0  0  0
 39 67  2  0  0  0
 40 52  1  0  0  0
 40 53  2  0  0  0
 40 58  1  0  0  0
 41111  1  0  0  0
 41112  1  0  0  0
 41113  1  0  0  0
 41 48  1  0  0  0
 42 43  1  0  0  0
 42 66  1  0  0  0
 42114  1  0  0  0
 42115  1  0  0  0
 43 44  1  0  0  0
 44116  1  0  0  0
 45 46  2  0  0  0
 45117  1  0  0  0
 46118  1  0  0  0
 47119  1  0  0  0
 47120  1  0  0  0
 48 56  1  0  0  0
 48 65  1  0  0  0
 48121  1  0  0  0
 49 50  1  0  0  0
 49 53  1  0  0  0
 49 64  1  0  0  0
 49122  1  0  0  0
 50 51  1  0  0  0
 50123  1  0  0  0
 50124  1  0  0  0
 51 52  1  0  0  0
 51125  1  0  0  0
 51126  1  0  0  0
 52127  1  0  0  0
 52128  1  0  0  0
 53 54  1  0  0  0
 54 55  2  0  0  0
 54129  1  0  0  0
 55 57  1  0  0  0
 55130  1  0  0  0
 56 69  2  0  0  0
 57 58  2  0  0  0
 57131  1  0  0  0
 58132  1  0  0  0
 59 60  1  0  0  0
 59 61  1  0  0  0
 59 62  1  0  0  0
 60133  1  0  0  0
 60134  1  0  0  0
 60135  1  0  0  0
 61136  1  0  0  0
 61137  1  0  0  0
 61138  1  0  0  0
 62139  1  0  0  0
 62140  1  0  0  0
 62141  1  0  0  0
 63 65  1  0  0  0
 63142  1  0  0  0
 63143  1  0  0  0
 63144  1  0  0  0
 64145  1  0  0  0
 65146  1  0  0  0
 68 78  1  0  0  0
 71 74  2  0  0  0
 71 75  1  0  0  0
 71147  1  0  0  0
 72 74  1  0  0  0
 72 76  2  0  0  0
 72148  1  0  0  0
 73 75  2  0  0  0
 73 76  1  0  0  0
 73149  1  0  0  0
 74 84  1  0  0  0
 75 85  1  0  0  0
 76 86  1  0  0  0
 77 78  2  0  0  0
 77 79  1  0  0  0
 77 80  1  0  0  0
 78150  1  0  0  0
 79 81  1  0  0  0
 79151  1  0  0  0
 79152  1  0  0  0
 80 87  1  0  0  0
 80153  1  0  0  0
 80154  1  0  0  0
 81 87  1  0  0  0
 81155  1  0  0  0
 81156  1  0  0  0
 82157  1  0  0  0
 82158  1  0  0  0
 82159  1  0  0  0
 82 85  1  0  0  0
 83 85  1  0  0  0
 83160  1  0  0  0
 83161  1  0  0  0
 83162  1  0  0  0
 84163  1  0  0  0
 84164  1  0  0  0
 84 87  1  0  0  0
 85165  1  0  0  0
 86166  1  0  0  0
 87167  1  0  0  0
M  CHG  1  87   1
M  ISO  4   1 100  68 101  78 101  86 100
M  END
> <chiral flag>
0

> <version>
0

> <s_m_source_file>
/data/baiqing/PycharmProjects/Reinvent-master-3.2/result/LINK_invent/BTK/process_docking_weight1_custom_product_contain_oxygen_bond_distance_aromatic_linkinvent_7_9_3/rearranged_h_0138.sdf

> <i_m_source_file_index>
73

> <r_mmod_Potential_Energy-OPLS-2005>
-37.6975898742676

> <r_mmod_Stretch_Energy-OPLS-2005>
66.5682678222656

> <r_mmod_Bend_Energy-OPLS-2005>
190.272171020508

> <r_mmod_Torsional_Energy-OPLS-2005>
260.781188964844

> <r_mmod_Improper_Torsional_Energy-OPLS-2005>
7.50687837600708

> <r_mmod_Van_der_Waal_Energy-OPLS-2005>
138.76872253418

> <r_mmod_Electrostatic_Energy-OPLS-2005>
-295.462890625

> <r_mmod_Solvation_Energy-OPLS-2005>
-441.268493652344

> <b_mmod_Minimization_Converged-OPLS-2005>
0

> <r_mmod_RMS_Derivative-OPLS-2005>
2.71320772171021

$$$$
73
                    3D
 Structure written by MMmdl.
159167  0  0  1  0            999 V2000
  -30.4249  -15.1931   20.3797 C   0  0  0  0  0  0
  -30.4484  -12.7523   19.5240 C   0  0  0  0  0  0
  -29.5375  -12.5695   18.2831 C   0  0  0  0  0  0
  -28.0809  -12.3042   18.7053 C   0  0  0  0  0  0
  -27.6205  -13.2623   19.8320 C   0  0  2  0  0  0
  -28.6560  -13.3819   20.9706 C   0  0  0  0  0  0
  -25.2419  -13.8173   20.5690 C   0  0  0  0  0  0
  -24.1760  -13.0404   20.9244 C   0  0  0  0  0  0
  -24.6403  -11.6900   20.8765 C   0  0  0  0  0  0
  -23.9086  -10.4275   21.0413 C   0  0  0  0  0  0
  -24.3630   -9.4190   21.9192 C   0  0  0  0  0  0
  -23.6296   -8.2231   22.0758 C   0  0  0  0  0  0
  -22.4280   -8.0275   21.3543 C   0  0  0  0  0  0
  -21.9920   -9.0250   20.4646 C   0  0  0  0  0  0
  -22.7258  -10.2125   20.3059 C   0  0  0  0  0  0
  -21.6853   -6.0733   22.5278 C   0  0  0  0  0  0
  -21.4014   -6.5637   23.8211 C   0  0  0  0  0  0
  -21.3659   -5.6790   24.9173 C   0  0  0  0  0  0
  -21.6045   -4.3053   24.7224 C   0  0  0  0  0  0
  -21.8819   -3.8145   23.4345 C   0  0  0  0  0  0
  -21.9192   -4.6961   22.3401 C   0  0  0  0  0  0
  -22.7785  -13.5186   21.1894 C   0  0  0  0  0  0
  -22.1661   -4.2147   21.0979 F   0  0  0  0  0  0
  -21.5629   -3.4537   25.7738 F   0  0  0  0  0  0
  -29.9016  -13.8756   20.3620 N   0  0  0  0  0  0
  -26.2854  -12.9445   20.3221 N   0  0  0  0  0  0
  -25.9342  -11.6566   20.5739 N   0  0  0  0  0  0
  -22.0435  -12.8176   22.0450 N   0  0  0  0  0  0
  -25.4043  -15.1869   20.4024 N   0  0  0  0  0  0
  -31.6324  -15.2596   20.1078 O   0  0  0  0  0  0
  -21.6637   -6.8877   21.4241 O   0  0  0  0  0  0
  -22.3474  -14.5495   20.6740 O   0  0  0  0  0  0
  -24.6575  -31.8281   23.1727 C   0  0  0  0  0  0
  -25.9278  -32.4612   23.8179 C   0  0  1  0  0  0
  -27.2263  -26.9817   20.1778 C   0  0  0  0  0  0
  -25.5964  -33.8424   24.2090 N   0  0  0  0  0  0
  -23.4703  -30.4400   21.5209 C   0  0  2  0  0  0
  -24.9242  -28.8334   20.1112 C   0  0  0  0  0  0
  -22.7641  -29.4460   22.4792 C   0  0  0  0  0  0
  -18.0320  -28.1410   22.8467 C   0  0  0  0  0  0
  -24.1492  -36.7221   23.2647 C   0  0  0  0  0  0
  -26.0350  -30.6524   21.3938 C   0  0  0  0  0  0
  -26.1056  -29.2466   20.7392 C   0  0  0  0  0  0
  -27.2522  -28.3408   20.7478 C   0  0  0  0  0  0
  -26.0157  -26.7037   19.5059 C   0  0  0  0  0  0
  -24.9009  -27.5809   19.4754 C   0  0  0  0  0  0
  -23.7076  -29.7558   20.1463 C   0  0  0  0  0  0
  -25.4129  -36.2980   24.0305 C   0  0  1  0  0  0
  -20.5941  -28.3746   23.1200 C   0  0  2  0  0  0
  -20.6798  -26.9432   22.5403 C   0  0  0  0  0  0
  -19.5772  -26.6378   21.5214 C   0  0  0  0  0  0
  -18.1952  -26.7943   22.1620 C   0  0  0  0  0  0
  -19.1582  -28.8898   23.2820 C   0  0  0  0  0  0
  -18.9495  -30.1488   23.8855 C   0  0  0  0  0  0
  -17.6490  -30.6599   24.0558 C   0  0  0  0  0  0
  -25.9091  -34.9363   23.5017 C   0  0  0  0  0  0
  -16.5380  -29.9090   23.6343 C   0  0  0  0  0  0
  -16.7304  -28.6512   23.0357 C   0  0  0  0  0  0
  -26.4548  -31.6543   25.0688 C   0  0  0  0  0  0
  -25.3686  -31.3783   26.1353 C   0  0  0  0  0  0
  -27.0442  -30.2921   24.6378 C   0  0  0  0  0  0
  -27.6044  -32.4346   25.7491 C   0  0  0  0  0  0
  -27.5569  -37.1763   24.8465 C   0  0  0  0  0  0
  -21.4316  -29.3046   22.3553 N   0  0  0  0  0  0
  -26.4277  -37.3715   23.9412 N   0  0  0  0  0  0
  -24.7419  -30.9991   22.0836 N   0  0  0  0  0  0
  -23.4213  -28.8027   23.3013 O   0  0  0  0  0  0
  -28.2559  -25.9216   20.2590 O   0  0  0  0  0  0
  -26.5700  -34.8893   22.4611 O   0  0  0  0  0  0
  -23.5660  -32.1227   23.6854 O   0  0  0  0  0  0
  -30.1940  -20.4091   19.7233 C   0  0  0  0  0  0
  -30.3644  -18.9337   19.7842 C   0  0  0  0  0  0
  -28.2976  -20.2831   21.0010 C   0  0  0  0  0  0
  -29.1512  -21.2440   20.3289 C   0  0  0  0  0  0
  -28.4350  -18.8014   21.0539 C   0  0  0  0  0  0
  -29.5061  -17.9817   20.4663 C   0  0  0  0  0  0
  -25.9365  -18.3302   21.2571 C   0  0  0  0  0  0
  -30.4625  -23.4479   19.7718 C   0  0  0  0  0  0
  -29.4002  -23.1936   21.9969 C   0  0  0  0  0  0
  -27.3377  -18.0950   21.8425 C   0  0  0  0  0  0
  -28.0630  -24.3091   20.0918 C   0  0  0  0  0  0
  -29.1790  -22.9864   20.4887 C   0  0  0  0  0  0
  -29.5697  -16.3744   20.5538 N   0  0  0  0  0  0
  -31.4698  -12.9568   19.1999 H   0  0  0  0  0  0
  -30.5039  -11.8286   20.1028 H   0  0  0  0  0  0
  -29.9029  -11.7535   17.6580 H   0  0  0  0  0  0
  -29.5790  -13.4695   17.6679 H   0  0  0  0  0  0
  -28.0231  -11.2734   19.0571 H   0  0  0  0  0  0
  -27.4132  -12.3717   17.8456 H   0  0  0  0  0  0
  -27.5529  -14.2427   19.3594 H   0  0  0  0  0  0
  -28.8034  -12.4261   21.4757 H   0  0  0  0  0  0
  -28.3083  -14.0823   21.7315 H   0  0  0  0  0  0
  -25.2774   -9.5663   22.4768 H   0  0  0  0  0  0
  -23.9998   -7.4622   22.7480 H   0  0  0  0  0  0
  -21.0850   -8.8776   19.8953 H   0  0  0  0  0  0
  -22.3720  -10.9667   19.6169 H   0  0  0  0  0  0
  -21.2008   -7.6145   23.9713 H   0  0  0  0  0  0
  -21.1481   -6.0521   25.9075 H   0  0  0  0  0  0
  -22.0600   -2.7608   23.2846 H   0  0  0  0  0  0
  -22.4058  -11.9837   22.4828 H   0  0  0  0  0  0
  -21.1055  -13.1200   22.2663 H   0  0  0  0  0  0
  -24.6252  -15.8281   20.4982 H   0  0  0  0  0  0
  -26.2271  -15.6214   20.0087 H   0  0  0  0  0  0
  -26.7344  -32.5170   23.0895 H   0  0  0  0  0  0
  -25.0064  -33.9509   25.0208 H   0  0  0  0  0  0
  -22.7811  -31.2699   21.3522 H   0  0  0  0  0  0
  -23.3761  -35.9544   23.3288 H   0  0  0  0  0  0
  -24.3570  -36.8887   22.2066 H   0  0  0  0  0  0
  -23.7243  -37.6402   23.6716 H   0  0  0  0  0  0
  -26.2065  -31.3967   20.6149 H   0  0  0  0  0  0
  -26.8987  -30.7100   22.0446 H   0  0  0  0  0  0
  -28.1486  -28.6549   21.2642 H   0  0  0  0  0  0
  -25.9018  -25.7440   19.0228 H   0  0  0  0  0  0
  -24.0013  -27.2583   18.9686 H   0  0  0  0  0  0
  -23.8590  -30.5252   19.3882 H   0  0  0  0  0  0
  -22.8187  -29.2075   19.8303 H   0  0  0  0  0  0
  -25.1323  -36.1783   25.0797 H   0  0  0  0  0  0
  -21.0031  -28.3353   24.1322 H   0  0  0  0  0  0
  -20.5684  -26.2362   23.3640 H   0  0  0  0  0  0
  -21.6660  -26.7415   22.1207 H   0  0  0  0  0  0
  -19.6932  -25.6277   21.1276 H   0  0  0  0  0  0
  -19.6717  -27.3162   20.6725 H   0  0  0  0  0  0
  -17.4222  -26.6690   21.4023 H   0  0  0  0  0  0
  -18.0344  -26.0095   22.9029 H   0  0  0  0  0  0
  -19.7973  -30.7313   24.2204 H   0  0  0  0  0  0
  -17.5046  -31.6277   24.5167 H   0  0  0  0  0  0
  -15.5379  -30.2981   23.7693 H   0  0  0  0  0  0
  -15.8703  -28.0821   22.7091 H   0  0  0  0  0  0
  -24.5882  -30.7117   25.7666 H   0  0  0  0  0  0
  -24.8856  -32.2982   26.4656 H   0  0  0  0  0  0
  -25.7923  -30.9034   27.0209 H   0  0  0  0  0  0
  -26.3101  -29.6606   24.1363 H   0  0  0  0  0  0
  -27.3987  -29.7271   25.5008 H   0  0  0  0  0  0
  -27.9033  -30.4129   23.9775 H   0  0  0  0  0  0
  -27.2616  -33.3688   26.1951 H   0  0  0  0  0  0
  -28.3915  -32.6840   25.0363 H   0  0  0  0  0  0
  -28.0645  -31.8549   26.5503 H   0  0  0  0  0  0
  -28.2560  -38.0082   24.7513 H   0  0  0  0  0  0
  -28.1089  -36.2607   24.6287 H   0  0  0  0  0  0
  -27.2287  -37.1399   25.8866 H   0  0  0  0  0  0
  -20.9556  -29.8753   21.6706 H   0  0  0  0  0  0
  -26.0129  -38.2772   24.1427 H   0  0  0  0  0  0
  -30.9774  -20.9232   19.1866 H   0  0  0  0  0  0
  -31.2207  -18.5255   19.2653 H   0  0  0  0  0  0
  -27.4801  -20.7144   21.5611 H   0  0  0  0  0  0
  -25.1862  -17.7757   21.8212 H   0  0  0  0  0  0
  -25.8827  -18.0041   20.2181 H   0  0  0  0  0  0
  -25.6490  -19.3807   21.2874 H   0  0  0  0  0  0
  -31.3518  -22.9490   20.1579 H   0  0  0  0  0  0
  -30.6282  -24.5187   19.8960 H   0  0  0  0  0  0
  -30.4042  -23.2542   18.7004 H   0  0  0  0  0  0
  -30.2553  -22.6227   22.3608 H   0  0  0  0  0  0
  -28.5272  -22.8745   22.5662 H   0  0  0  0  0  0
  -29.5803  -24.2423   22.2371 H   0  0  0  0  0  0
  -27.3672  -18.4585   22.8703 H   0  0  0  0  0  0
  -27.5179  -17.0237   21.9088 H   0  0  0  0  0  0
  -27.1345  -24.0847   20.6180 H   0  0  0  0  0  0
  -27.8138  -24.1759   19.0389 H   0  0  0  0  0  0
  -28.6679  -16.0193   20.8310 H   0  0  0  0  0  0
  1 25  1  0  0  0
  1 30  2  0  0  0
  1 83  1  0  0  0
  2  3  1  0  0  0
  2 25  1  0  0  0
  2 84  1  0  0  0
  2 85  1  0  0  0
  3  4  1  0  0  0
  3 86  1  0  0  0
  3 87  1  0  0  0
  4  5  1  0  0  0
  4 88  1  0  0  0
  4 89  1  0  0  0
  5  6  1  0  0  0
  5 26  1  0  0  0
  5 90  1  0  0  0
  6 25  1  0  0  0
  6 91  1  0  0  0
  6 92  1  0  0  0
  7  8  2  0  0  0
  7 26  1  0  0  0
  7 29  1  0  0  0
  8  9  1  0  0  0
  8 22  1  0  0  0
  9 10  1  0  0  0
  9 27  2  0  0  0
 10 11  2  0  0  0
 10 15  1  0  0  0
 11 12  1  0  0  0
 11 93  1  0  0  0
 12 13  2  0  0  0
 12 94  1  0  0  0
 13 14  1  0  0  0
 13 31  1  0  0  0
 14 15  2  0  0  0
 14 95  1  0  0  0
 15 96  1  0  0  0
 16 17  2  0  0  0
 16 21  1  0  0  0
 16 31  1  0  0  0
 17 18  1  0  0  0
 17 97  1  0  0  0
 18 19  2  0  0  0
 18 98  1  0  0  0
 19 20  1  0  0  0
 19 24  1  0  0  0
 20 21  2  0  0  0
 20 99  1  0  0  0
 21 23  1  0  0  0
 22 28  1  0  0  0
 22 32  2  0  0  0
 26 27  1  0  0  0
 28100  1  0  0  0
 28101  1  0  0  0
 29102  1  0  0  0
 29103  1  0  0  0
 33 34  1  0  0  0
 33 66  1  0  0  0
 33 70  2  0  0  0
 34 36  1  0  0  0
 34 59  1  0  0  0
 34104  1  0  0  0
 35 44  2  0  0  0
 35 45  1  0  0  0
 35 68  1  0  0  0
 36 56  1  0  0  0
 36105  1  0  0  0
 37 39  1  0  0  0
 37 47  1  0  0  0
 37 66  1  0  0  0
 37106  1  0  0  0
 38 43  2  0  0  0
 38 46  1  0  0  0
 38 47  1  0  0  0
 39 64  1  0  0  0
 39 67  2  0  0  0
 40 52  1  0  0  0
 40 53  2  0  0  0
 40 58  1  0  0  0
 41107  1  0  0  0
 41108  1  0  0  0
 41109  1  0  0  0
 41 48  1  0  0  0
 42 43  1  0  0  0
 42 66  1  0  0  0
 42110  1  0  0  0
 42111  1  0  0  0
 43 44  1  0  0  0
 44112  1  0  0  0
 45 46  2  0  0  0
 45113  1  0  0  0
 46114  1  0  0  0
 47115  1  0  0  0
 47116  1  0  0  0
 48 56  1  0  0  0
 48 65  1  0  0  0
 48117  1  0  0  0
 49 50  1  0  0  0
 49 53  1  0  0  0
 49 64  1  0  0  0
 49118  1  0  0  0
 50 51  1  0  0  0
 50119  1  0  0  0
 50120  1  0  0  0
 51 52  1  0  0  0
 51121  1  0  0  0
 51122  1  0  0  0
 52123  1  0  0  0
 52124  1  0  0  0
 53 54  1  0  0  0
 54 55  2  0  0  0
 54125  1  0  0  0
 55 57  1  0  0  0
 55126  1  0  0  0
 56 69  2  0  0  0
 57 58  2  0  0  0
 57127  1  0  0  0
 58128  1  0  0  0
 59 60  1  0  0  0
 59 61  1  0  0  0
 59 62  1  0  0  0
 60129  1  0  0  0
 60130  1  0  0  0
 60131  1  0  0  0
 61132  1  0  0  0
 61133  1  0  0  0
 61134  1  0  0  0
 62135  1  0  0  0
 62136  1  0  0  0
 62137  1  0  0  0
 63 65  1  0  0  0
 63138  1  0  0  0
 63139  1  0  0  0
 63140  1  0  0  0
 64141  1  0  0  0
 65142  1  0  0  0
 68 81  1  0  0  0
 71 72  2  0  0  0
 71 74  1  0  0  0
 71143  1  0  0  0
 72 76  1  0  0  0
 72144  1  0  0  0
 73 74  2  0  0  0
 73 75  1  0  0  0
 73145  1  0  0  0
 74 82  1  0  0  0
 75 76  2  0  0  0
 75 80  1  0  0  0
 76 83  1  0  0  0
 77 80  1  0  0  0
 77146  1  0  0  0
 77147  1  0  0  0
 77148  1  0  0  0
 78149  1  0  0  0
 78150  1  0  0  0
 78151  1  0  0  0
 78 82  1  0  0  0
 79 82  1  0  0  0
 79152  1  0  0  0
 79153  1  0  0  0
 79154  1  0  0  0
 80155  1  0  0  0
 80156  1  0  0  0
 81 82  1  0  0  0
 81157  1  0  0  0
 81158  1  0  0  0
 83159  1  0  0  0
M  ISO  4   1 100  68 101  81 101  83 100
M  END
> <chiral flag>
0

> <version>
0

> <s_m_source_file>
/data/baiqing/PycharmProjects/Reinvent-master-3.2/result/LINK_invent/BTK/process_docking_weight1_custom_product_contain_oxygen_bond_distance_aromatic_linkinvent_7_9_3/rearranged_h_0138.sdf

> <i_m_source_file_index>
74

> <r_mmod_Potential_Energy-OPLS-2005>
1042.25170898438

> <r_mmod_Stretch_Energy-OPLS-2005>
468.506561279297

> <r_mmod_Bend_Energy-OPLS-2005>
415.933868408203

> <r_mmod_Torsional_Energy-OPLS-2005>
225.562957763672

> <r_mmod_Improper_Torsional_Energy-OPLS-2005>
5.85803937911987

> <r_mmod_Van_der_Waal_Energy-OPLS-2005>
127.887428283691

> <r_mmod_Electrostatic_Energy-OPLS-2005>
-388.254272460938

> <r_mmod_Solvation_Energy-OPLS-2005>
-196.935989379883

> <b_mmod_Minimization_Converged-OPLS-2005>
0

> <r_mmod_RMS_Derivative-OPLS-2005>
0.53276264667511

$$$$
74
                    3D
 Structure written by MMmdl.
166174  0  0  1  0            999 V2000
  -30.6082  -14.6931   20.4748 C   0  0  0  0  0  0
  -30.4237  -12.4209   19.4676 C   0  0  0  0  0  0
  -29.4981  -12.4987   18.2339 C   0  0  0  0  0  0
  -28.0264  -12.3262   18.6528 C   0  0  0  0  0  0
  -27.6405  -13.2218   19.8590 C   0  0  2  0  0  0
  -28.6826  -13.1258   20.9940 C   0  0  0  0  0  0
  -25.2508  -13.8177   20.5713 C   0  0  0  0  0  0
  -24.1784  -13.0433   20.9224 C   0  0  0  0  0  0
  -24.6369  -11.6899   20.8783 C   0  0  0  0  0  0
  -23.9048  -10.4290   21.0432 C   0  0  0  0  0  0
  -24.3597   -9.4189   21.9201 C   0  0  0  0  0  0
  -23.6279   -8.2224   22.0750 C   0  0  0  0  0  0
  -22.4261   -8.0285   21.3538 C   0  0  0  0  0  0
  -21.9903   -9.0249   20.4631 C   0  0  0  0  0  0
  -22.7232  -10.2130   20.3060 C   0  0  0  0  0  0
  -21.6852   -6.0733   22.5276 C   0  0  0  0  0  0
  -21.4016   -6.5627   23.8215 C   0  0  0  0  0  0
  -21.3660   -5.6797   24.9178 C   0  0  0  0  0  0
  -21.6051   -4.3051   24.7242 C   0  0  0  0  0  0
  -21.8817   -3.8130   23.4352 C   0  0  0  0  0  0
  -21.9192   -4.6955   22.3407 C   0  0  0  0  0  0
  -22.7819  -13.5212   21.1904 C   0  0  0  0  0  0
  -22.1663   -4.2132   21.0991 F   0  0  0  0  0  0
  -21.5633   -3.4541   25.7748 F   0  0  0  0  0  0
  -29.9863  -13.4705   20.4123 N   0  0  0  0  0  0
  -26.2915  -12.9363   20.3311 N   0  0  0  0  0  0
  -25.9287  -11.6500   20.5773 N   0  0  0  0  0  0
  -22.0482  -12.8183   22.0445 N   0  0  0  0  0  0
  -25.4250  -15.1914   20.4121 N   0  0  0  0  0  0
  -31.7962  -14.7943   20.1534 O   0  0  0  0  0  0
  -21.6637   -6.8861   21.4226 O   0  0  0  0  0  0
  -22.3503  -14.5544   20.6788 O   0  0  0  0  0  0
  -24.6226  -31.8576   23.2088 C   0  0  0  0  0  0
  -25.9078  -32.4770   23.8390 C   0  0  1  0  0  0
  -27.2212  -27.3155   20.1001 C   0  0  0  0  0  0
  -25.5917  -33.8581   24.2328 N   0  0  0  0  0  0
  -23.4168  -30.4746   21.5544 C   0  0  2  0  0  0
  -24.8670  -28.9320   20.1176 C   0  0  0  0  0  0
  -22.7466  -29.4514   22.4996 C   0  0  0  0  0  0
  -18.0257  -28.1313   22.8460 C   0  0  0  0  0  0
  -24.1531  -36.7311   23.2635 C   0  0  0  0  0  0
  -25.9588  -30.7697   21.4000 C   0  0  0  0  0  0
  -26.0297  -29.3972   20.7453 C   0  0  0  0  0  0
  -27.2098  -28.5907   20.7445 C   0  0  0  0  0  0
  -26.0576  -26.9368   19.4045 C   0  0  0  0  0  0
  -24.8809  -27.7064   19.4350 C   0  0  0  0  0  0
  -23.6338  -29.8106   20.1702 C   0  0  0  0  0  0
  -25.4152  -36.3075   24.0317 C   0  0  1  0  0  0
  -20.5853  -28.3616   23.1295 C   0  0  2  0  0  0
  -20.6785  -26.9355   22.5406 C   0  0  0  0  0  0
  -19.5780  -26.6296   21.5179 C   0  0  0  0  0  0
  -18.1932  -26.7850   22.1564 C   0  0  0  0  0  0
  -19.1507  -28.8778   23.2879 C   0  0  0  0  0  0
  -18.9455  -30.1381   23.8875 C   0  0  0  0  0  0
  -17.6454  -30.6558   24.0493 C   0  0  0  0  0  0
  -25.9062  -34.9437   23.5117 C   0  0  0  0  0  0
  -16.5343  -29.9053   23.6321 C   0  0  0  0  0  0
  -16.7242  -28.6458   23.0341 C   0  0  0  0  0  0
  -26.4513  -31.6557   25.0734 C   0  0  0  0  0  0
  -25.3783  -31.3635   26.1495 C   0  0  0  0  0  0
  -27.0392  -30.2984   24.6173 C   0  0  0  0  0  0
  -27.6071  -32.4319   25.7492 C   0  0  0  0  0  0
  -27.5622  -37.1801   24.8447 C   0  0  0  0  0  0
  -21.4179  -29.2980   22.3734 N   0  0  0  0  0  0
  -26.4346  -37.3739   23.9373 N   0  0  0  0  0  0
  -24.6830  -31.0550   22.1085 N   0  0  0  0  0  0
  -23.4195  -28.8040   23.3060 O   0  0  0  0  0  0
  -28.3376  -26.4744   20.0406 O   0  0  0  0  0  0
  -26.5621  -34.8872   22.4660 O   0  0  0  0  0  0
  -23.5357  -32.1392   23.7391 O   0  0  0  0  0  0
  -29.2091  -18.3227   20.4024 C   0  0  0  0  0  0
  -30.8771  -20.0308   20.8357 C   0  0  0  0  0  0
  -31.4436  -17.6688   21.1131 C   0  0  0  0  0  0
  -29.5578  -19.7337   20.4557 C   0  0  0  0  0  0
  -30.1495  -17.2554   20.7065 C   0  0  0  0  0  0
  -31.8133  -19.0304   21.1921 C   0  0  0  0  0  0
  -34.7964  -20.9163   22.4270 C   0  0  0  0  0  0
  -26.6874  -23.3703   19.7261 C   0  0  0  0  0  0
  -28.7903  -23.9341   18.4538 C   0  0  0  0  0  0
  -28.5992  -20.9383   20.0675 C   0  0  0  0  0  0
  -28.8895  -22.4620   20.5541 C   0  0  0  0  0  0
  -33.3952  -20.7072   21.8529 C   0  0  0  0  0  0
  -28.3090  -25.1293   20.6735 C   0  0  0  0  0  0
  -28.1766  -23.7382   19.8574 C   0  0  0  0  0  0
  -29.8115  -15.8126   20.6678 N   0  0  0  0  0  0
  -33.0948  -19.3292   21.6229 O   0  0  0  0  0  0
  -31.4655  -12.5418   19.1670 H   0  0  0  0  0  0
  -30.3614  -11.4363   19.9326 H   0  0  0  0  0  0
  -29.7668  -11.7321   17.5053 H   0  0  0  0  0  0
  -29.6301  -13.4593   17.7336 H   0  0  0  0  0  0
  -27.8856  -11.2783   18.9163 H   0  0  0  0  0  0
  -27.3630  -12.5209   17.8094 H   0  0  0  0  0  0
  -27.6441  -14.2462   19.4875 H   0  0  0  0  0  0
  -28.7017  -12.1208   21.4191 H   0  0  0  0  0  0
  -28.4253  -13.7976   21.8146 H   0  0  0  0  0  0
  -25.2728   -9.5691   22.4789 H   0  0  0  0  0  0
  -23.9999   -7.4620   22.7470 H   0  0  0  0  0  0
  -21.0837   -8.8760   19.8932 H   0  0  0  0  0  0
  -22.3677  -10.9677   19.6184 H   0  0  0  0  0  0
  -21.2003   -7.6137   23.9709 H   0  0  0  0  0  0
  -21.1492   -6.0526   25.9090 H   0  0  0  0  0  0
  -22.0591   -2.7586   23.2866 H   0  0  0  0  0  0
  -22.4112  -11.9811   22.4768 H   0  0  0  0  0  0
  -21.1108  -13.1175   22.2711 H   0  0  0  0  0  0
  -24.6603  -15.8492   20.5234 H   0  0  0  0  0  0
  -26.2683  -15.6192   20.0533 H   0  0  0  0  0  0
  -26.7114  -32.5483   23.1105 H   0  0  0  0  0  0
  -25.0122  -33.9718   25.0519 H   0  0  0  0  0  0
  -22.7067  -31.2918   21.4113 H   0  0  0  0  0  0
  -23.3761  -35.9659   23.3256 H   0  0  0  0  0  0
  -24.3634  -36.8978   22.2056 H   0  0  0  0  0  0
  -23.7318  -37.6510   23.6703 H   0  0  0  0  0  0
  -26.0981  -31.5314   20.6332 H   0  0  0  0  0  0
  -26.8323  -30.8131   22.0383 H   0  0  0  0  0  0
  -28.1019  -28.9244   21.2569 H   0  0  0  0  0  0
  -26.0666  -26.0651   18.7764 H   0  0  0  0  0  0
  -24.0085  -27.3649   18.8908 H   0  0  0  0  0  0
  -23.7479  -30.5867   19.4083 H   0  0  0  0  0  0
  -22.7565  -29.2328   19.8768 H   0  0  0  0  0  0
  -25.1321  -36.1931   25.0799 H   0  0  0  0  0  0
  -20.9883  -28.3172   24.1415 H   0  0  0  0  0  0
  -20.5663  -26.2206   23.3589 H   0  0  0  0  0  0
  -21.6675  -26.7415   22.1194 H   0  0  0  0  0  0
  -19.6959  -25.6196   21.1240 H   0  0  0  0  0  0
  -19.6729  -27.3109   20.6710 H   0  0  0  0  0  0
  -17.4218  -26.6542   21.3968 H   0  0  0  0  0  0
  -18.0345  -26.0004   22.8976 H   0  0  0  0  0  0
  -19.7957  -30.7163   24.2242 H   0  0  0  0  0  0
  -17.5048  -31.6239   24.5098 H   0  0  0  0  0  0
  -15.5357  -30.2919   23.7683 H   0  0  0  0  0  0
  -15.8635  -28.0763   22.7060 H   0  0  0  0  0  0
  -24.5985  -30.6938   25.7848 H   0  0  0  0  0  0
  -24.8940  -32.2761   26.4964 H   0  0  0  0  0  0
  -25.8140  -30.8818   27.0246 H   0  0  0  0  0  0
  -26.2945  -29.6687   24.1299 H   0  0  0  0  0  0
  -27.4208  -29.7282   25.4647 H   0  0  0  0  0  0
  -27.8751  -30.4267   23.9295 H   0  0  0  0  0  0
  -27.2684  -33.3637   26.2010 H   0  0  0  0  0  0
  -28.3895  -32.6838   25.0332 H   0  0  0  0  0  0
  -28.0714  -31.8500   26.5456 H   0  0  0  0  0  0
  -28.2564  -38.0180   24.7560 H   0  0  0  0  0  0
  -28.1194  -36.2689   24.6204 H   0  0  0  0  0  0
  -27.2323  -37.1371   25.8847 H   0  0  0  0  0  0
  -20.9336  -29.8778   21.7021 H   0  0  0  0  0  0
  -26.0215  -38.2779   24.1397 H   0  0  0  0  0  0
  -28.2042  -18.0621   20.1008 H   0  0  0  0  0  0
  -31.1692  -21.0671   20.8458 H   0  0  0  0  0  0
  -32.1831  -16.9362   21.3960 H   0  0  0  0  0  0
  -34.9447  -21.9759   22.6434 H   0  0  0  0  0  0
  -35.5715  -20.6149   21.7232 H   0  0  0  0  0  0
  -34.9333  -20.3658   23.3562 H   0  0  0  0  0  0
  -26.5381  -22.4710   19.1302 H   0  0  0  0  0  0
  -26.0947  -24.1346   19.2446 H   0  0  0  0  0  0
  -26.2513  -23.1941   20.7069 H   0  0  0  0  0  0
  -28.5239  -23.1144   17.7866 H   0  0  0  0  0  0
  -29.8793  -23.9938   18.4945 H   0  0  0  0  0  0
  -28.4428  -24.8558   17.9838 H   0  0  0  0  0  0
  -27.6023  -20.6700   20.4187 H   0  0  0  0  0  0
  -28.5335  -20.9321   18.9794 H   0  0  0  0  0  0
  -29.9541  -22.6825   20.4911 H   0  0  0  0  0  0
  -28.6632  -22.5044   21.6191 H   0  0  0  0  0  0
  -33.3301  -21.2625   20.9161 H   0  0  0  0  0  0
  -32.6687  -21.1301   22.5503 H   0  0  0  0  0  0
  -29.2742  -25.0869   21.1778 H   0  0  0  0  0  0
  -27.5855  -25.1441   21.4893 H   0  0  0  0  0  0
  -28.8293  -15.5983   20.7613 H   0  0  0  0  0  0
  1 25  1  0  0  0
  1 30  2  0  0  0
  1 85  1  0  0  0
  2  3  1  0  0  0
  2 25  1  0  0  0
  2 87  1  0  0  0
  2 88  1  0  0  0
  3  4  1  0  0  0
  3 89  1  0  0  0
  3 90  1  0  0  0
  4  5  1  0  0  0
  4 91  1  0  0  0
  4 92  1  0  0  0
  5  6  1  0  0  0
  5 26  1  0  0  0
  5 93  1  0  0  0
  6 25  1  0  0  0
  6 94  1  0  0  0
  6 95  1  0  0  0
  7  8  2  0  0  0
  7 26  1  0  0  0
  7 29  1  0  0  0
  8  9  1  0  0  0
  8 22  1  0  0  0
  9 10  1  0  0  0
  9 27  2  0  0  0
 10 11  2  0  0  0
 10 15  1  0  0  0
 11 12  1  0  0  0
 11 96  1  0  0  0
 12 13  2  0  0  0
 12 97  1  0  0  0
 13 14  1  0  0  0
 13 31  1  0  0  0
 14 15  2  0  0  0
 14 98  1  0  0  0
 15 99  1  0  0  0
 16 17  2  0  0  0
 16 21  1  0  0  0
 16 31  1  0  0  0
 17 18  1  0  0  0
 17100  1  0  0  0
 18 19  2  0  0  0
 18101  1  0  0  0
 19 20  1  0  0  0
 19 24  1  0  0  0
 20 21  2  0  0  0
 20102  1  0  0  0
 21 23  1  0  0  0
 22 28  1  0  0  0
 22 32  2  0  0  0
 26 27  1  0  0  0
 28103  1  0  0  0
 28104  1  0  0  0
 29105  1  0  0  0
 29106  1  0  0  0
 33 34  1  0  0  0
 33 66  1  0  0  0
 33 70  2  0  0  0
 34 36  1  0  0  0
 34 59  1  0  0  0
 34107  1  0  0  0
 35 44  2  0  0  0
 35 45  1  0  0  0
 35 68  1  0  0  0
 36 56  1  0  0  0
 36108  1  0  0  0
 37 39  1  0  0  0
 37 47  1  0  0  0
 37 66  1  0  0  0
 37109  1  0  0  0
 38 43  2  0  0  0
 38 46  1  0  0  0
 38 47  1  0  0  0
 39 64  1  0  0  0
 39 67  2  0  0  0
 40 52  1  0  0  0
 40 53  2  0  0  0
 40 58  1  0  0  0
 41110  1  0  0  0
 41111  1  0  0  0
 41112  1  0  0  0
 41 48  1  0  0  0
 42 43  1  0  0  0
 42 66  1  0  0  0
 42113  1  0  0  0
 42114  1  0  0  0
 43 44  1  0  0  0
 44115  1  0  0  0
 45 46  2  0  0  0
 45116  1  0  0  0
 46117  1  0  0  0
 47118  1  0  0  0
 47119  1  0  0  0
 48 56  1  0  0  0
 48 65  1  0  0  0
 48120  1  0  0  0
 49 50  1  0  0  0
 49 53  1  0  0  0
 49 64  1  0  0  0
 49121  1  0  0  0
 50 51  1  0  0  0
 50122  1  0  0  0
 50123  1  0  0  0
 51 52  1  0  0  0
 51124  1  0  0  0
 51125  1  0  0  0
 52126  1  0  0  0
 52127  1  0  0  0
 53 54  1  0  0  0
 54 55  2  0  0  0
 54128  1  0  0  0
 55 57  1  0  0  0
 55129  1  0  0  0
 56 69  2  0  0  0
 57 58  2  0  0  0
 57130  1  0  0  0
 58131  1  0  0  0
 59 60  1  0  0  0
 59 61  1  0  0  0
 59 62  1  0  0  0
 60132  1  0  0  0
 60133  1  0  0  0
 60134  1  0  0  0
 61135  1  0  0  0
 61136  1  0  0  0
 61137  1  0  0  0
 62138  1  0  0  0
 62139  1  0  0  0
 62140  1  0  0  0
 63 65  1  0  0  0
 63141  1  0  0  0
 63142  1  0  0  0
 63143  1  0  0  0
 64144  1  0  0  0
 65145  1  0  0  0
 68 83  1  0  0  0
 71 74  2  0  0  0
 71 75  1  0  0  0
 71146  1  0  0  0
 72 74  1  0  0  0
 72 76  2  0  0  0
 72147  1  0  0  0
 73 75  2  0  0  0
 73 76  1  0  0  0
 73148  1  0  0  0
 74 80  1  0  0  0
 75 85  1  0  0  0
 76 86  1  0  0  0
 77 82  1  0  0  0
 77149  1  0  0  0
 77150  1  0  0  0
 77151  1  0  0  0
 78152  1  0  0  0
 78153  1  0  0  0
 78154  1  0  0  0
 78 84  1  0  0  0
 79 84  1  0  0  0
 79155  1  0  0  0
 79156  1  0  0  0
 79157  1  0  0  0
 80 81  1  0  0  0
 80158  1  0  0  0
 80159  1  0  0  0
 81 84  1  0  0  0
 81160  1  0  0  0
 81161  1  0  0  0
 82 86  1  0  0  0
 82162  1  0  0  0
 82163  1  0  0  0
 83 84  1  0  0  0
 83164  1  0  0  0
 83165  1  0  0  0
 85166  1  0  0  0
M  ISO  4   1 100  68 101  83 101  85 100
M  END
> <chiral flag>
0

> <version>
0

> <s_m_source_file>
/data/baiqing/PycharmProjects/Reinvent-master-3.2/result/LINK_invent/BTK/process_docking_weight1_custom_product_contain_oxygen_bond_distance_aromatic_linkinvent_7_9_3/rearranged_h_0138.sdf

> <i_m_source_file_index>
75

> <r_mmod_Potential_Energy-OPLS-2005>
184.159927368164

> <r_mmod_Stretch_Energy-OPLS-2005>
111.00862121582

> <r_mmod_Bend_Energy-OPLS-2005>
166.638900756836

> <r_mmod_Torsional_Energy-OPLS-2005>
256.617309570312

> <r_mmod_Improper_Torsional_Energy-OPLS-2005>
5.857177734375

> <r_mmod_Van_der_Waal_Energy-OPLS-2005>
152.560302734375

> <r_mmod_Electrostatic_Energy-OPLS-2005>
-362.640838623047

> <r_mmod_Solvation_Energy-OPLS-2005>
-206.059555053711

> <b_mmod_Minimization_Converged-OPLS-2005>
0

> <r_mmod_RMS_Derivative-OPLS-2005>
5.60880613327026

$$$$
75
                    3D
 Structure written by MMmdl.
154162  0  0  1  0            999 V2000
  -30.6408  -14.5427   20.5950 C   0  0  0  0  0  0
  -30.4459  -12.3648   19.4264 C   0  0  0  0  0  0
  -29.5136  -12.5160   18.2066 C   0  0  0  0  0  0
  -28.0362  -12.3397   18.6115 C   0  0  0  0  0  0
  -27.6564  -13.1970   19.8505 C   0  0  2  0  0  0
  -28.6899  -12.9942   20.9787 C   0  0  0  0  0  0
  -25.2592  -13.8141   20.5597 C   0  0  0  0  0  0
  -24.1828  -13.0433   20.9141 C   0  0  0  0  0  0
  -24.6365  -11.6903   20.8664 C   0  0  0  0  0  0
  -23.9029  -10.4296   21.0366 C   0  0  0  0  0  0
  -24.3601   -9.4213   21.9131 C   0  0  0  0  0  0
  -23.6291   -8.2235   22.0711 C   0  0  0  0  0  0
  -22.4257   -8.0281   21.3533 C   0  0  0  0  0  0
  -21.9897   -9.0232   20.4615 C   0  0  0  0  0  0
  -22.7221  -10.2114   20.3015 C   0  0  0  0  0  0
  -21.6849   -6.0738   22.5281 C   0  0  0  0  0  0
  -21.4017   -6.5624   23.8221 C   0  0  0  0  0  0
  -21.3663   -5.6757   24.9166 C   0  0  0  0  0  0
  -21.6029   -4.3027   24.7188 C   0  0  0  0  0  0
  -21.8835   -3.8138   23.4313 C   0  0  0  0  0  0
  -21.9201   -4.6971   22.3381 C   0  0  0  0  0  0
  -22.7866  -13.5259   21.1823 C   0  0  0  0  0  0
  -22.1663   -4.2174   21.0951 F   0  0  0  0  0  0
  -21.5630   -3.4501   25.7690 F   0  0  0  0  0  0
  -30.0186  -13.3378   20.4446 N   0  0  0  0  0  0
  -26.2977  -12.9268   20.3151 N   0  0  0  0  0  0
  -25.9263  -11.6446   20.5589 N   0  0  0  0  0  0
  -22.0469  -12.8263   22.0393 N   0  0  0  0  0  0
  -25.4297  -15.1863   20.4079 N   0  0  0  0  0  0
  -31.7790  -14.7611   20.1685 O   0  0  0  0  0  0
  -21.6623   -6.8883   21.4246 O   0  0  0  0  0  0
  -22.3552  -14.5559   20.6681 O   0  0  0  0  0  0
  -24.6239  -31.8621   23.2098 C   0  0  0  0  0  0
  -25.9125  -32.4804   23.8378 C   0  0  1  0  0  0
  -27.2285  -27.3895   20.0739 C   0  0  0  0  0  0
  -25.5972  -33.8599   24.2324 N   0  0  0  0  0  0
  -23.4109  -30.4884   21.5552 C   0  0  2  0  0  0
  -24.8454  -28.9453   20.1193 C   0  0  0  0  0  0
  -22.7443  -29.4605   22.4996 C   0  0  0  0  0  0
  -18.0301  -28.1310   22.8517 C   0  0  0  0  0  0
  -24.1476  -36.7237   23.2652 C   0  0  0  0  0  0
  -25.9491  -30.8129   21.3650 C   0  0  0  0  0  0
  -26.0150  -29.4470   20.7035 C   0  0  0  0  0  0
  -27.2045  -28.6762   20.6717 C   0  0  0  0  0  0
  -26.0215  -26.8973   19.5230 C   0  0  0  0  0  0
  -24.8459  -27.6702   19.5303 C   0  0  0  0  0  0
  -23.6156  -29.8234   20.1695 C   0  0  0  0  0  0
  -25.4107  -36.3100   24.0368 C   0  0  1  0  0  0
  -20.5882  -28.3573   23.1337 C   0  0  2  0  0  0
  -20.6733  -26.9304   22.5408 C   0  0  0  0  0  0
  -19.5734  -26.6331   21.5173 C   0  0  0  0  0  0
  -18.1918  -26.7885   22.1589 C   0  0  0  0  0  0
  -19.1546  -28.8759   23.2947 C   0  0  0  0  0  0
  -18.9460  -30.1361   23.8964 C   0  0  0  0  0  0
  -17.6459  -30.6526   24.0544 C   0  0  0  0  0  0
  -25.9040  -34.9472   23.5128 C   0  0  0  0  0  0
  -16.5346  -29.9016   23.6333 C   0  0  0  0  0  0
  -16.7283  -28.6405   23.0415 C   0  0  0  0  0  0
  -26.4541  -31.6635   25.0731 C   0  0  0  0  0  0
  -25.3793  -31.3737   26.1462 C   0  0  0  0  0  0
  -27.0405  -30.3087   24.6161 C   0  0  0  0  0  0
  -27.6108  -32.4413   25.7453 C   0  0  0  0  0  0
  -27.5582  -37.1766   24.8500 C   0  0  0  0  0  0
  -21.4148  -29.2996   22.3771 N   0  0  0  0  0  0
  -26.4286  -37.3793   23.9460 N   0  0  0  0  0  0
  -24.6810  -31.0716   22.0988 N   0  0  0  0  0  0
  -23.4213  -28.8085   23.2981 O   0  0  0  0  0  0
  -28.4187  -26.6723   20.0738 O   0  0  0  0  0  0
  -26.5550  -34.8939   22.4661 O   0  0  0  0  0  0
  -23.5421  -32.1332   23.7499 O   0  0  0  0  0  0
  -30.8925  -18.6444   22.8667 C   0  0  0  0  0  0
  -30.3366  -19.6497   22.0451 C   0  0  0  0  0  0
  -30.7820  -17.2852   22.5116 C   0  0  0  0  0  0
  -29.5346  -17.9348   20.5191 C   0  0  0  0  0  0
  -29.6639  -19.3233   20.8421 C   0  0  0  0  0  0
  -30.1022  -16.9111   21.3337 C   0  0  0  0  0  0
  -29.1277  -20.3987   19.9256 C   0  0  0  0  0  0
  -28.6998  -24.1692   20.3251 C   0  0  0  0  0  0
  -28.5599  -25.4043   19.3823 C   0  0  0  0  0  0
  -28.9642  -22.8176   19.5896 C   0  0  0  0  0  0
  -28.6867  -20.1572   18.7603 N   0  0  0  0  0  0
  -29.8397  -15.5240   21.0837 N   0  0  0  0  0  0
  -29.1510  -21.6808   20.4756 O   0  0  0  0  0  0
  -31.4807  -12.5194   19.1199 H   0  0  0  0  0  0
  -30.3946  -11.3541   19.8292 H   0  0  0  0  0  0
  -29.7836  -11.7887   17.4414 H   0  0  0  0  0  0
  -29.6521  -13.5001   17.7550 H   0  0  0  0  0  0
  -27.8865  -11.2833   18.8365 H   0  0  0  0  0  0
  -27.3894  -12.5661   17.7624 H   0  0  0  0  0  0
  -27.6919  -14.2403   19.5345 H   0  0  0  0  0  0
  -28.6795  -11.9554   21.3066 H   0  0  0  0  0  0
  -28.4189  -13.5846   21.8549 H   0  0  0  0  0  0
  -25.2764   -9.5699   22.4686 H   0  0  0  0  0  0
  -24.0015   -7.4630   22.7432 H   0  0  0  0  0  0
  -21.0822   -8.8761   19.8911 H   0  0  0  0  0  0
  -22.3695  -10.9634   19.6119 H   0  0  0  0  0  0
  -21.1994   -7.6131   23.9756 H   0  0  0  0  0  0
  -21.1473   -6.0449   25.9077 H   0  0  0  0  0  0
  -22.0608   -2.7610   23.2779 H   0  0  0  0  0  0
  -22.4057  -11.9981   22.4901 H   0  0  0  0  0  0
  -21.1062  -13.1299   22.2459 H   0  0  0  0  0  0
  -24.6627  -15.8401   20.5188 H   0  0  0  0  0  0
  -26.2839  -15.6319   20.0983 H   0  0  0  0  0  0
  -26.7190  -32.5475   23.1125 H   0  0  0  0  0  0
  -25.0412  -33.9738   25.0663 H   0  0  0  0  0  0
  -22.7030  -31.3091   21.4242 H   0  0  0  0  0  0
  -23.3775  -35.9525   23.3328 H   0  0  0  0  0  0
  -24.3606  -36.8797   22.2064 H   0  0  0  0  0  0
  -23.7137  -37.6424   23.6610 H   0  0  0  0  0  0
  -26.0834  -31.5792   20.6002 H   0  0  0  0  0  0
  -26.8322  -30.8557   21.9928 H   0  0  0  0  0  0
  -28.1097  -29.0625   21.1147 H   0  0  0  0  0  0
  -25.9380  -25.9045   19.1083 H   0  0  0  0  0  0
  -23.9395  -27.2646   19.0994 H   0  0  0  0  0  0
  -23.7417  -30.6024   19.4168 H   0  0  0  0  0  0
  -22.7327  -29.2579   19.8662 H   0  0  0  0  0  0
  -25.1289  -36.1968   25.0855 H   0  0  0  0  0  0
  -21.0046  -28.3041   24.1430 H   0  0  0  0  0  0
  -20.5561  -26.2129   23.3552 H   0  0  0  0  0  0
  -21.6596  -26.7270   22.1249 H   0  0  0  0  0  0
  -19.6863  -25.6249   21.1178 H   0  0  0  0  0  0
  -19.6712  -27.3143   20.6712 H   0  0  0  0  0  0
  -17.4196  -26.6706   21.3981 H   0  0  0  0  0  0
  -18.0298  -25.9987   22.8939 H   0  0  0  0  0  0
  -19.7935  -30.7154   24.2372 H   0  0  0  0  0  0
  -17.5019  -31.6260   24.5034 H   0  0  0  0  0  0
  -15.5342  -30.2933   23.7605 H   0  0  0  0  0  0
  -15.8691  -28.0698   22.7188 H   0  0  0  0  0  0
  -24.5922  -30.7178   25.7742 H   0  0  0  0  0  0
  -24.9029  -32.2877   26.5012 H   0  0  0  0  0  0
  -25.8111  -30.8781   27.0160 H   0  0  0  0  0  0
  -26.2946  -29.6776   24.1299 H   0  0  0  0  0  0
  -27.4279  -29.7444   25.4664 H   0  0  0  0  0  0
  -27.8749  -30.4455   23.9271 H   0  0  0  0  0  0
  -27.2739  -33.3713   26.2053 H   0  0  0  0  0  0
  -28.3833  -32.6993   25.0199 H   0  0  0  0  0  0
  -28.0875  -31.8544   26.5315 H   0  0  0  0  0  0
  -28.2634  -38.0036   24.7582 H   0  0  0  0  0  0
  -28.1049  -36.2584   24.6303 H   0  0  0  0  0  0
  -27.2327  -37.1385   25.8910 H   0  0  0  0  0  0
  -20.9229  -29.8832   21.7154 H   0  0  0  0  0  0
  -26.0186  -38.2874   24.1477 H   0  0  0  0  0  0
  -31.4020  -18.9150   23.7816 H   0  0  0  0  0  0
  -30.4400  -20.6832   22.3495 H   0  0  0  0  0  0
  -31.1976  -16.5389   23.1766 H   0  0  0  0  0  0
  -28.9813  -17.6603   19.6314 H   0  0  0  0  0  0
  -27.7968  -24.0761   20.9284 H   0  0  0  0  0  0
  -29.5192  -24.3583   21.0200 H   0  0  0  0  0  0
  -27.7995  -25.2232   18.6262 H   0  0  0  0  0  0
  -29.4805  -25.4950   18.8036 H   0  0  0  0  0  0
  -29.8637  -22.9245   18.9831 H   0  0  0  0  0  0
  -28.1414  -22.6487   18.8907 H   0  0  0  0  0  0
  -28.3638  -20.9886   18.2807 H   0  0  0  0  0  0
  -28.9083  -15.2129   21.3118 H   0  0  0  0  0  0
  1 25  1  0  0  0
  1 30  2  0  0  0
  1 82  1  0  0  0
  2  3  1  0  0  0
  2 25  1  0  0  0
  2 84  1  0  0  0
  2 85  1  0  0  0
  3  4  1  0  0  0
  3 86  1  0  0  0
  3 87  1  0  0  0
  4  5  1  0  0  0
  4 88  1  0  0  0
  4 89  1  0  0  0
  5  6  1  0  0  0
  5 26  1  0  0  0
  5 90  1  0  0  0
  6 25  1  0  0  0
  6 91  1  0  0  0
  6 92  1  0  0  0
  7  8  2  0  0  0
  7 26  1  0  0  0
  7 29  1  0  0  0
  8  9  1  0  0  0
  8 22  1  0  0  0
  9 10  1  0  0  0
  9 27  2  0  0  0
 10 11  2  0  0  0
 10 15  1  0  0  0
 11 12  1  0  0  0
 11 93  1  0  0  0
 12 13  2  0  0  0
 12 94  1  0  0  0
 13 14  1  0  0  0
 13 31  1  0  0  0
 14 15  2  0  0  0
 14 95  1  0  0  0
 15 96  1  0  0  0
 16 17  2  0  0  0
 16 21  1  0  0  0
 16 31  1  0  0  0
 17 18  1  0  0  0
 17 97  1  0  0  0
 18 19  2  0  0  0
 18 98  1  0  0  0
 19 20  1  0  0  0
 19 24  1  0  0  0
 20 21  2  0  0  0
 20 99  1  0  0  0
 21 23  1  0  0  0
 22 28  1  0  0  0
 22 32  2  0  0  0
 26 27  1  0  0  0
 28100  1  0  0  0
 28101  1  0  0  0
 29102  1  0  0  0
 29103  1  0  0  0
 33 34  1  0  0  0
 33 66  1  0  0  0
 33 70  2  0  0  0
 34 36  1  0  0  0
 34 59  1  0  0  0
 34104  1  0  0  0
 35 44  2  0  0  0
 35 45  1  0  0  0
 35 68  1  0  0  0
 36 56  1  0  0  0
 36105  1  0  0  0
 37 39  1  0  0  0
 37 47  1  0  0  0
 37 66  1  0  0  0
 37106  1  0  0  0
 38 43  2  0  0  0
 38 46  1  0  0  0
 38 47  1  0  0  0
 39 64  1  0  0  0
 39 67  2  0  0  0
 40 52  1  0  0  0
 40 53  2  0  0  0
 40 58  1  0  0  0
 41107  1  0  0  0
 41108  1  0  0  0
 41109  1  0  0  0
 41 48  1  0  0  0
 42 43  1  0  0  0
 42 66  1  0  0  0
 42110  1  0  0  0
 42111  1  0  0  0
 43 44  1  0  0  0
 44112  1  0  0  0
 45 46  2  0  0  0
 45113  1  0  0  0
 46114  1  0  0  0
 47115  1  0  0  0
 47116  1  0  0  0
 48 56  1  0  0  0
 48 65  1  0  0  0
 48117  1  0  0  0
 49 50  1  0  0  0
 49 53  1  0  0  0
 49 64  1  0  0  0
 49118  1  0  0  0
 50 51  1  0  0  0
 50119  1  0  0  0
 50120  1  0  0  0
 51 52  1  0  0  0
 51121  1  0  0  0
 51122  1  0  0  0
 52123  1  0  0  0
 52124  1  0  0  0
 53 54  1  0  0  0
 54 55  2  0  0  0
 54125  1  0  0  0
 55 57  1  0  0  0
 55126  1  0  0  0
 56 69  2  0  0  0
 57 58  2  0  0  0
 57127  1  0  0  0
 58128  1  0  0  0
 59 60  1  0  0  0
 59 61  1  0  0  0
 59 62  1  0  0  0
 60129  1  0  0  0
 60130  1  0  0  0
 60131  1  0  0  0
 61132  1  0  0  0
 61133  1  0  0  0
 61134  1  0  0  0
 62135  1  0  0  0
 62136  1  0  0  0
 62137  1  0  0  0
 63 65  1  0  0  0
 63138  1  0  0  0
 63139  1  0  0  0
 63140  1  0  0  0
 64141  1  0  0  0
 65142  1  0  0  0
 68 79  1  0  0  0
 71 72  2  0  0  0
 71 73  1  0  0  0
 71143  1  0  0  0
 72 75  1  0  0  0
 72144  1  0  0  0
 73 76  2  0  0  0
 73145  1  0  0  0
 74 75  2  0  0  0
 74 76  1  0  0  0
 74146  1  0  0  0
 75 77  1  0  0  0
 76 82  1  0  0  0
 77 81  2  0  0  0
 77 83  1  0  0  0
 78 79  1  0  0  0
 78 80  1  0  0  0
 78147  1  0  0  0
 78148  1  0  0  0
 79149  1  0  0  0
 79150  1  0  0  0
 80 83  1  0  0  0
 80151  1  0  0  0
 80152  1  0  0  0
 81153  1  0  0  0
 82154  1  0  0  0
M  ISO  4   1 100  68 101  79 101  82 100
M  END
> <chiral flag>
0

> <version>
0

> <s_m_source_file>
/data/baiqing/PycharmProjects/Reinvent-master-3.2/result/LINK_invent/BTK/process_docking_weight1_custom_product_contain_oxygen_bond_distance_aromatic_linkinvent_7_9_3/rearranged_h_0138.sdf

> <i_m_source_file_index>
76

> <r_mmod_Potential_Energy-OPLS-2005>
-30.1257171630859

> <r_mmod_Stretch_Energy-OPLS-2005>
51.1235198974609

> <r_mmod_Bend_Energy-OPLS-2005>
115.289291381836

> <r_mmod_Torsional_Energy-OPLS-2005>
228.956085205078

> <r_mmod_Improper_Torsional_Energy-OPLS-2005>
4.64632892608643

> <r_mmod_Van_der_Waal_Energy-OPLS-2005>
157.645248413086

> <r_mmod_Electrostatic_Energy-OPLS-2005>
-393.428802490234

> <r_mmod_Solvation_Energy-OPLS-2005>
-217.953994750977

> <b_mmod_Minimization_Converged-OPLS-2005>
0

> <r_mmod_RMS_Derivative-OPLS-2005>
4.24987173080444

$$$$
76
                    3D
 Structure written by MMmdl.
164172  0  0  1  0            999 V2000
  -30.5283  -14.8865   20.4595 C   0  0  0  0  0  0
  -30.4542  -12.5491   19.4898 C   0  0  0  0  0  0
  -29.5252  -12.5351   18.2518 C   0  0  0  0  0  0
  -28.0548  -12.3276   18.6650 C   0  0  0  0  0  0
  -27.6417  -13.2360   19.8521 C   0  0  2  0  0  0
  -28.6859  -13.1978   20.9902 C   0  0  0  0  0  0
  -25.2462  -13.8131   20.5572 C   0  0  0  0  0  0
  -24.1793  -13.0399   20.9194 C   0  0  0  0  0  0
  -24.6413  -11.6888   20.8764 C   0  0  0  0  0  0
  -23.9083  -10.4271   21.0420 C   0  0  0  0  0  0
  -24.3625   -9.4186   21.9198 C   0  0  0  0  0  0
  -23.6291   -8.2229   22.0763 C   0  0  0  0  0  0
  -22.4276   -8.0274   21.3547 C   0  0  0  0  0  0
  -21.9915   -9.0251   20.4650 C   0  0  0  0  0  0
  -22.7254  -10.2124   20.3064 C   0  0  0  0  0  0
  -21.6849   -6.0729   22.5275 C   0  0  0  0  0  0
  -21.4013   -6.5635   23.8208 C   0  0  0  0  0  0
  -21.3659   -5.6790   24.9171 C   0  0  0  0  0  0
  -21.6045   -4.3052   24.7224 C   0  0  0  0  0  0
  -21.8819   -3.8142   23.4345 C   0  0  0  0  0  0
  -21.9192   -4.6957   22.3400 C   0  0  0  0  0  0
  -22.7819  -13.5192   21.1858 C   0  0  0  0  0  0
  -22.1660   -4.2143   21.0977 F   0  0  0  0  0  0
  -21.5629   -3.4537   25.7738 F   0  0  0  0  0  0
  -29.9751  -13.6118   20.4137 N   0  0  0  0  0  0
  -26.2938  -12.9379   20.3263 N   0  0  0  0  0  0
  -25.9354  -11.6523   20.5782 N   0  0  0  0  0  0
  -22.0468  -12.8197   22.0425 N   0  0  0  0  0  0
  -25.4029  -15.1809   20.3737 N   0  0  0  0  0  0
  -31.7062  -15.0321   20.1128 O   0  0  0  0  0  0
  -21.6637   -6.8873   21.4240 O   0  0  0  0  0  0
  -22.3503  -14.5499   20.6705 O   0  0  0  0  0  0
  -24.6390  -31.8468   23.1905 C   0  0  0  0  0  0
  -25.9182  -32.4708   23.8285 C   0  0  1  0  0  0
  -27.2283  -27.1809   20.1564 C   0  0  0  0  0  0
  -25.5940  -33.8512   24.2206 N   0  0  0  0  0  0
  -23.4419  -30.4632   21.5356 C   0  0  2  0  0  0
  -24.8935  -28.8903   20.1188 C   0  0  0  0  0  0
  -22.7548  -29.4547   22.4888 C   0  0  0  0  0  0
  -18.0296  -28.1396   22.8470 C   0  0  0  0  0  0
  -24.1490  -36.7270   23.2642 C   0  0  0  0  0  0
  -25.9930  -30.7353   21.3813 C   0  0  0  0  0  0
  -26.0694  -29.3472   20.7295 C   0  0  0  0  0  0
  -27.2419  -28.5095   20.7280 C   0  0  0  0  0  0
  -26.0278  -26.8056   19.5187 C   0  0  0  0  0  0
  -24.8817  -27.6304   19.4993 C   0  0  0  0  0  0
  -23.6685  -29.7883   20.1568 C   0  0  0  0  0  0
  -25.4118  -36.3038   24.0318 C   0  0  1  0  0  0
  -20.5901  -28.3715   23.1241 C   0  0  2  0  0  0
  -20.6782  -26.9423   22.5403 C   0  0  0  0  0  0
  -19.5764  -26.6383   21.5205 C   0  0  0  0  0  0
  -18.1943  -26.7932   22.1613 C   0  0  0  0  0  0
  -19.1549  -28.8875   23.2844 C   0  0  0  0  0  0
  -18.9472  -30.1472   23.8870 C   0  0  0  0  0  0
  -17.6470  -30.6594   24.0556 C   0  0  0  0  0  0
  -25.9065  -34.9413   23.5071 C   0  0  0  0  0  0
  -16.5362  -29.9087   23.6333 C   0  0  0  0  0  0
  -16.7281  -28.6506   23.0349 C   0  0  0  0  0  0
  -26.4520  -31.6563   25.0712 C   0  0  0  0  0  0
  -25.3712  -31.3744   26.1416 C   0  0  0  0  0  0
  -27.0383  -30.2965   24.6265 C   0  0  0  0  0  0
  -27.6051  -32.4328   25.7500 C   0  0  0  0  0  0
  -27.5576  -37.1785   24.8462 C   0  0  0  0  0  0
  -21.4244  -29.3040   22.3629 N   0  0  0  0  0  0
  -26.4285  -37.3747   23.9407 N   0  0  0  0  0  0
  -24.7106  -31.0355   22.0918 N   0  0  0  0  0  0
  -23.4201  -28.8102   23.3038 O   0  0  0  0  0  0
  -28.2997  -26.2341   20.1503 O   0  0  0  0  0  0
  -26.5649  -34.8904   22.4648 O   0  0  0  0  0  0
  -23.5518  -32.1324   23.7148 O   0  0  0  0  0  0
  -30.3257  -19.8710   20.1309 C   0  0  0  0  0  0
  -30.4940  -18.4199   20.0948 C   0  0  0  0  0  0
  -28.3407  -19.6099   21.3531 C   0  0  0  0  0  0
  -29.2468  -20.5678   20.7903 C   0  0  0  0  0  0
  -28.4947  -18.1689   21.3490 C   0  0  0  0  0  0
  -29.6000  -17.4854   20.7231 C   0  0  0  0  0  0
  -28.6993  -23.4377   20.2140 C   0  0  0  0  0  0
  -26.0259  -17.8920   22.1360 C   0  0  0  0  0  0
  -31.2878  -21.8137   22.7588 C   0  0  0  0  0  0
  -28.3022  -22.3143   22.4567 C   0  0  0  0  0  0
  -27.4666  -17.3487   22.1380 C   0  0  0  0  0  0
  -28.1069  -24.8613   20.8120 C   0  0  0  0  0  0
  -30.6372  -22.6076   21.6058 C   0  0  0  0  0  0
  -29.1919  -22.1893   21.1878 C   0  0  1  0  0  0
  -29.6666  -15.9590   20.7627 N   0  0  0  0  0  0
  -28.7950  -23.3077   18.9900 O   0  0  0  0  0  0
  -31.4866  -12.7193   19.1799 H   0  0  0  0  0  0
  -30.4487  -11.5789   19.9890 H   0  0  0  0  0  0
  -29.8327  -11.7525   17.5569 H   0  0  0  0  0  0
  -29.6224  -13.4782   17.7120 H   0  0  0  0  0  0
  -27.9367  -11.2806   18.9459 H   0  0  0  0  0  0
  -27.3929  -12.4903   17.8138 H   0  0  0  0  0  0
  -27.6239  -14.2519   19.4571 H   0  0  0  0  0  0
  -28.7571  -12.1971   21.4185 H   0  0  0  0  0  0
  -28.3906  -13.8549   21.8095 H   0  0  0  0  0  0
  -25.2770   -9.5656   22.4775 H   0  0  0  0  0  0
  -23.9989   -7.4619   22.7488 H   0  0  0  0  0  0
  -21.0843   -8.8778   19.8957 H   0  0  0  0  0  0
  -22.3718  -10.9668   19.6172 H   0  0  0  0  0  0
  -21.2007   -7.6144   23.9707 H   0  0  0  0  0  0
  -21.1482   -6.0522   25.9074 H   0  0  0  0  0  0
  -22.0601   -2.7605   23.2847 H   0  0  0  0  0  0
  -22.4089  -11.9860   22.4814 H   0  0  0  0  0  0
  -21.1089  -13.1228   22.2638 H   0  0  0  0  0  0
  -24.6231  -15.8200   20.4731 H   0  0  0  0  0  0
  -26.2245  -15.6190   19.9809 H   0  0  0  0  0  0
  -26.7250  -32.5342   23.1022 H   0  0  0  0  0  0
  -25.0055  -33.9632   25.0328 H   0  0  0  0  0  0
  -22.7423  -31.2864   21.3797 H   0  0  0  0  0  0
  -23.3749  -35.9608   23.3291 H   0  0  0  0  0  0
  -24.3571  -36.8919   22.2060 H   0  0  0  0  0  0
  -23.7253  -37.6465   23.6687 H   0  0  0  0  0  0
  -26.1368  -31.4879   20.6052 H   0  0  0  0  0  0
  -26.8672  -30.7916   22.0183 H   0  0  0  0  0  0
  -28.1451  -28.8593   21.2092 H   0  0  0  0  0  0
  -25.9674  -25.8376   19.0410 H   0  0  0  0  0  0
  -23.9834  -27.2745   19.0137 H   0  0  0  0  0  0
  -23.8053  -30.5603   19.3991 H   0  0  0  0  0  0
  -22.7848  -29.2270   19.8474 H   0  0  0  0  0  0
  -25.1297  -36.1870   25.0807 H   0  0  0  0  0  0
  -20.9979  -28.3313   24.1366 H   0  0  0  0  0  0
  -20.5680  -26.2328   23.3618 H   0  0  0  0  0  0
  -21.6651  -26.7440   22.1201 H   0  0  0  0  0  0
  -19.6928  -25.6287   21.1254 H   0  0  0  0  0  0
  -19.6713  -27.3175   20.6720 H   0  0  0  0  0  0
  -17.4208  -26.6666   21.4023 H   0  0  0  0  0  0
  -18.0354  -26.0082   22.9017 H   0  0  0  0  0  0
  -19.7953  -30.7287   24.2237 H   0  0  0  0  0  0
  -17.5029  -31.6271   24.5167 H   0  0  0  0  0  0
  -15.5361  -30.2980   23.7682 H   0  0  0  0  0  0
  -15.8679  -28.0825   22.7072 H   0  0  0  0  0  0
  -24.5895  -30.7083   25.7744 H   0  0  0  0  0  0
  -24.8891  -32.2923   26.4791 H   0  0  0  0  0  0
  -25.8000  -30.8957   27.0230 H   0  0  0  0  0  0
  -26.2995  -29.6691   24.1269 H   0  0  0  0  0  0
  -27.4004  -29.7256   25.4824 H   0  0  0  0  0  0
  -27.8892  -30.4208   23.9567 H   0  0  0  0  0  0
  -27.2642  -33.3648   26.2025 H   0  0  0  0  0  0
  -28.3891  -32.6866   25.0350 H   0  0  0  0  0  0
  -28.0689  -31.8493   26.5464 H   0  0  0  0  0  0
  -28.2570  -38.0101   24.7501 H   0  0  0  0  0  0
  -28.1091  -36.2623   24.6289 H   0  0  0  0  0  0
  -27.2291  -37.1428   25.8865 H   0  0  0  0  0  0
  -20.9464  -29.8757   21.6807 H   0  0  0  0  0  0
  -26.0155  -38.2815   24.1416 H   0  0  0  0  0  0
  -31.1059  -20.4650   19.6769 H   0  0  0  0  0  0
  -31.3606  -18.0272   19.5816 H   0  0  0  0  0  0
  -27.4997  -20.0014   21.8973 H   0  0  0  0  0  0
  -25.3542  -17.1746   22.6077 H   0  0  0  0  0  0
  -25.6643  -18.0593   21.1212 H   0  0  0  0  0  0
  -25.9250  -18.8203   22.6964 H   0  0  0  0  0  0
  -32.3128  -22.1486   22.9202 H   0  0  0  0  0  0
  -31.3269  -20.7434   22.5598 H   0  0  0  0  0  0
  -30.7590  -21.9577   23.7007 H   0  0  0  0  0  0
  -27.2442  -22.1959   22.2197 H   0  0  0  0  0  0
  -28.4137  -23.2683   22.9686 H   0  0  0  0  0  0
  -28.5506  -21.5622   23.2051 H   0  0  0  0  0  0
  -27.8203  -17.2719   23.1669 H   0  0  0  0  0  0
  -27.4220  -16.3284   21.7662 H   0  0  0  0  0  0
  -28.5241  -24.9880   21.8086 H   0  0  0  0  0  0
  -27.0391  -24.7056   20.9658 H   0  0  0  0  0  0
  -31.2909  -22.5341   20.7357 H   0  0  0  0  0  0
  -30.6608  -23.6627   21.8854 H   0  0  0  0  0  0
  -28.7943  -15.5685   21.0809 H   0  0  0  0  0  0
  1 25  1  0  0  0
  1 30  2  0  0  0
  1 85  1  0  0  0
  2  3  1  0  0  0
  2 25  1  0  0  0
  2 87  1  0  0  0
  2 88  1  0  0  0
  3  4  1  0  0  0
  3 89  1  0  0  0
  3 90  1  0  0  0
  4  5  1  0  0  0
  4 91  1  0  0  0
  4 92  1  0  0  0
  5  6  1  0  0  0
  5 26  1  0  0  0
  5 93  1  0  0  0
  6 25  1  0  0  0
  6 94  1  0  0  0
  6 95  1  0  0  0
  7  8  2  0  0  0
  7 26  1  0  0  0
  7 29  1  0  0  0
  8  9  1  0  0  0
  8 22  1  0  0  0
  9 10  1  0  0  0
  9 27  2  0  0  0
 10 11  2  0  0  0
 10 15  1  0  0  0
 11 12  1  0  0  0
 11 96  1  0  0  0
 12 13  2  0  0  0
 12 97  1  0  0  0
 13 14  1  0  0  0
 13 31  1  0  0  0
 14 15  2  0  0  0
 14 98  1  0  0  0
 15 99  1  0  0  0
 16 17  2  0  0  0
 16 21  1  0  0  0
 16 31  1  0  0  0
 17 18  1  0  0  0
 17100  1  0  0  0
 18 19  2  0  0  0
 18101  1  0  0  0
 19 20  1  0  0  0
 19 24  1  0  0  0
 20 21  2  0  0  0
 20102  1  0  0  0
 21 23  1  0  0  0
 22 28  1  0  0  0
 22 32  2  0  0  0
 26 27  1  0  0  0
 28103  1  0  0  0
 28104  1  0  0  0
 29105  1  0  0  0
 29106  1  0  0  0
 33 34  1  0  0  0
 33 66  1  0  0  0
 33 70  2  0  0  0
 34 36  1  0  0  0
 34 59  1  0  0  0
 34107  1  0  0  0
 35 44  2  0  0  0
 35 45  1  0  0  0
 35 68  1  0  0  0
 36 56  1  0  0  0
 36108  1  0  0  0
 37 39  1  0  0  0
 37 47  1  0  0  0
 37 66  1  0  0  0
 37109  1  0  0  0
 38 43  2  0  0  0
 38 46  1  0  0  0
 38 47  1  0  0  0
 39 64  1  0  0  0
 39 67  2  0  0  0
 40 52  1  0  0  0
 40 53  2  0  0  0
 40 58  1  0  0  0
 41110  1  0  0  0
 41111  1  0  0  0
 41112  1  0  0  0
 41 48  1  0  0  0
 42 43  1  0  0  0
 42 66  1  0  0  0
 42113  1  0  0  0
 42114  1  0  0  0
 43 44  1  0  0  0
 44115  1  0  0  0
 45 46  2  0  0  0
 45116  1  0  0  0
 46117  1  0  0  0
 47118  1  0  0  0
 47119  1  0  0  0
 48 56  1  0  0  0
 48 65  1  0  0  0
 48120  1  0  0  0
 49 50  1  0  0  0
 49 53  1  0  0  0
 49 64  1  0  0  0
 49121  1  0  0  0
 50 51  1  0  0  0
 50122  1  0  0  0
 50123  1  0  0  0
 51 52  1  0  0  0
 51124  1  0  0  0
 51125  1  0  0  0
 52126  1  0  0  0
 52127  1  0  0  0
 53 54  1  0  0  0
 54 55  2  0  0  0
 54128  1  0  0  0
 55 57  1  0  0  0
 55129  1  0  0  0
 56 69  2  0  0  0
 57 58  2  0  0  0
 57130  1  0  0  0
 58131  1  0  0  0
 59 60  1  0  0  0
 59 61  1  0  0  0
 59 62  1  0  0  0
 60132  1  0  0  0
 60133  1  0  0  0
 60134  1  0  0  0
 61135  1  0  0  0
 61136  1  0  0  0
 61137  1  0  0  0
 62138  1  0  0  0
 62139  1  0  0  0
 62140  1  0  0  0
 63 65  1  0  0  0
 63141  1  0  0  0
 63142  1  0  0  0
 63143  1  0  0  0
 64144  1  0  0  0
 65145  1  0  0  0
 68 82  1  0  0  0
 71 72  2  0  0  0
 71 74  1  0  0  0
 71146  1  0  0  0
 72 76  1  0  0  0
 72147  1  0  0  0
 73 74  2  0  0  0
 73 75  1  0  0  0
 73148  1  0  0  0
 74 84  1  0  0  0
 75 76  2  0  0  0
 75 81  1  0  0  0
 76 85  1  0  0  0
 77 82  1  0  0  0
 77 86  2  0  0  0
 77 84  1  0  0  0
 78 81  1  0  0  0
 78149  1  0  0  0
 78150  1  0  0  0
 78151  1  0  0  0
 79 83  1  0  0  0
 79152  1  0  0  0
 79153  1  0  0  0
 79154  1  0  0  0
 80155  1  0  0  0
 80156  1  0  0  0
 80157  1  0  0  0
 80 84  1  0  0  0
 81158  1  0  0  0
 81159  1  0  0  0
 82160  1  0  0  0
 82161  1  0  0  0
 83 84  1  0  0  0
 83162  1  0  0  0
 83163  1  0  0  0
 85164  1  0  0  0
M  ISO  4   1 100  68 101  82 101  85 100
M  END
> <chiral flag>
0

> <version>
0

> <s_m_source_file>
/data/baiqing/PycharmProjects/Reinvent-master-3.2/result/LINK_invent/BTK/process_docking_weight1_custom_product_contain_oxygen_bond_distance_aromatic_linkinvent_7_9_3/rearranged_h_0138.sdf

> <i_m_source_file_index>
77

> <r_mmod_Potential_Energy-OPLS-2005>
510.678436279297

> <r_mmod_Stretch_Energy-OPLS-2005>
219.142684936523

> <r_mmod_Bend_Energy-OPLS-2005>
262.523529052734

> <r_mmod_Torsional_Energy-OPLS-2005>
262.774993896484

> <r_mmod_Improper_Torsional_Energy-OPLS-2005>
6.13866281509399

> <r_mmod_Van_der_Waal_Energy-OPLS-2005>
144.044281005859

> <r_mmod_Electrostatic_Energy-OPLS-2005>
-318.622467041016

> <r_mmod_Solvation_Energy-OPLS-2005>
-215.805786132812

> <b_mmod_Minimization_Converged-OPLS-2005>
0

> <r_mmod_RMS_Derivative-OPLS-2005>
0.79401832818985

$$$$
77
                    3D
 Structure written by MMmdl.
166175  0  0  1  0            999 V2000
  -31.5695  -14.6839   21.3576 C   0  0  0  0  0  0
  -30.6153  -15.3876   18.9992 C   0  0  0  0  0  0
  -29.1857  -15.2885   17.3934 C   0  0  0  0  0  0
  -27.0529  -14.7055   18.0609 C   0  0  0  0  0  0
  -27.0283  -14.4162   20.2510 C   0  0  2  0  0  0
  -28.6536  -14.6237   21.6943 C   0  0  0  0  0  0
  -24.7971  -13.9861   20.5700 C   0  0  0  0  0  0
  -23.9488  -13.0351   20.9413 C   0  0  0  0  0  0
  -24.6332  -11.7811   20.8849 C   0  0  0  0  0  0
  -23.9791  -10.4491   21.0189 C   0  0  0  0  0  0
  -24.4097   -9.4401   21.9116 C   0  0  0  0  0  0
  -23.6659   -8.2417   22.0718 C   0  0  0  0  0  0
  -22.4635   -8.0375   21.3504 C   0  0  0  0  0  0
  -22.0452   -9.0307   20.4478 C   0  0  0  0  0  0
  -22.7938  -10.2114   20.2821 C   0  0  0  0  0  0
  -21.6979   -6.0818   22.5311 C   0  0  0  0  0  0
  -21.4129   -6.5680   23.8260 C   0  0  0  0  0  0
  -21.3728   -5.6811   24.9208 C   0  0  0  0  0  0
  -21.6050   -4.3064   24.7247 C   0  0  0  0  0  0
  -21.8776   -3.8167   23.4358 C   0  0  0  0  0  0
  -21.9209   -4.7012   22.3426 C   0  0  0  0  0  0
  -22.5366  -13.3819   21.2214 C   0  0  0  0  0  0
  -22.1627   -4.2193   21.1002 F   0  0  0  0  0  0
  -21.5635   -3.4529   25.7749 F   0  0  0  0  0  0
  -30.4157  -15.0830   20.9238 N   0  0  0  0  0  0
  -26.0058  -13.4144   20.5223 N   0  0  0  0  0  0
  -25.9558  -12.0182   20.6378 N   0  0  0  0  0  0
  -21.9036  -12.6594   22.1250 N   0  0  0  0  0  0
  -24.5803  -15.3391   20.2927 N   0  0  0  0  0  0
  -32.3758  -14.2155   20.5704 O   0  0  0  0  0  0
  -21.6842   -6.9034   21.4288 O   0  0  0  0  0  0
  -22.0287  -14.3860   20.7172 O   0  0  0  0  0  0
  -24.8137  -31.6226   23.0400 C   0  0  0  0  0  0
  -25.9988  -32.3681   23.7463 C   0  0  1  0  0  0
  -27.1054  -25.3696   20.1150 C   0  0  0  0  0  0
  -25.5956  -33.7587   24.1190 N   0  0  0  0  0  0
  -23.6762  -30.1767   21.4361 C   0  0  2  0  0  0
  -25.0779  -28.2346   20.1127 C   0  0  0  0  0  0
  -22.8248  -29.3416   22.4408 C   0  0  0  0  0  0
  -18.0402  -28.1491   22.8397 C   0  0  0  0  0  0
  -24.1489  -36.6852   23.2694 C   0  0  0  0  0  0
  -26.2742  -29.8903   21.4869 C   0  0  0  0  0  0
  -26.2833  -28.3184   20.8087 C   0  0  0  0  0  0
  -27.2248  -26.9641   20.7498 C   0  0  0  0  0  0
  -25.8988  -25.8320   19.3857 C   0  0  0  0  0  0
  -25.0002  -27.0202   19.3814 C   0  0  0  0  0  0
  -23.9647  -29.3642   20.1175 C   0  0  0  0  0  0
  -25.4181  -36.2479   24.0209 C   0  0  1  0  0  0
  -20.6082  -28.3872   23.0953 C   0  0  2  0  0  0
  -20.6795  -26.9426   22.5453 C   0  0  0  0  0  0
  -19.5804  -26.6323   21.5242 C   0  0  0  0  0  0
  -18.1982  -26.7995   22.1594 C   0  0  0  0  0  0
  -19.1697  -28.9035   23.2620 C   0  0  0  0  0  0
  -18.9589  -30.1595   23.8710 C   0  0  0  0  0  0
  -17.6566  -30.6640   24.0534 C   0  0  0  0  0  0
  -25.9219  -34.8874   23.4669 C   0  0  0  0  0  0
  -16.5449  -29.9107   23.6376 C   0  0  0  0  0  0
  -16.7375  -28.6542   23.0372 C   0  0  0  0  0  0
  -26.4790  -31.6351   25.0614 C   0  0  0  0  0  0
  -25.3534  -31.3966   26.0997 C   0  0  0  0  0  0
  -27.0969  -30.2638   24.7370 C   0  0  0  0  0  0
  -27.6001  -32.4547   25.7449 C   0  0  0  0  0  0
  -27.5528  -37.1568   24.8457 C   0  0  0  0  0  0
  -21.4803  -29.2838   22.3118 N   0  0  0  0  0  0
  -26.4209  -37.3381   23.9411 N   0  0  0  0  0  0
  -24.9712  -30.6285   22.0420 N   0  0  0  0  0  0
  -23.4100  -28.7266   23.3334 O   0  0  0  0  0  0
  -27.8387  -23.5683   20.0332 O   0  0  0  0  0  0
  -26.6086  -34.8716   22.4449 O   0  0  0  0  0  0
  -23.6917  -31.9909   23.4531 O   0  0  0  0  0  0
  -32.1074  -18.9613   21.9567 C   0  0  0  0  0  0
  -30.7347  -19.2223   22.1265 C   0  0  0  0  0  0
  -32.5870  -17.6560   22.1863 C   0  0  0  0  0  0
  -30.4401  -17.0303   23.1511 C   0  0  0  0  0  0
  -29.8951  -18.2249   22.6634 C   0  0  0  0  0  0
  -31.7164  -16.6662   22.6988 C   0  0  0  0  0  0
  -28.4447  -18.2731   22.4672 C   0  0  0  0  0  0
  -30.0960  -12.9084   18.8742 C   0  0  0  0  0  0
  -28.8214  -13.6752   18.8464 C   0  0  0  0  0  0
  -29.1461  -13.7184   19.7173 C   0  0  0  0  0  0
  -28.1500  -16.4243   19.1588 C   0  0  0  0  0  0
  -28.7075  -16.5271   20.2047 C   0  0  1  0  0  0
  -28.5338  -18.4564   19.5030 C   0  0  2  0  0  0
  -27.8024  -17.2188   21.5094 C   0  0  0  0  0  0
  -27.8155  -21.1234   19.7834 C   0  0  0  0  0  0
  -27.7418  -19.1787   23.0084 N   0  0  0  0  0  0
  -31.9867  -15.2854   22.4944 N   0  0  0  0  0  0
  -30.9868  -16.4115   18.9623 H   0  0  0  0  0  0
  -31.5255  -14.9418   18.6037 H   0  0  0  0  0  0
  -29.5557  -14.6648   16.5753 H   0  0  0  0  0  0
  -29.2294  -16.2293   16.8437 H   0  0  0  0  0  0
  -26.6868  -13.8335   17.5135 H   0  0  0  0  0  0
  -26.2788  -15.3886   17.6904 H   0  0  0  0  0  0
  -26.6912  -15.2909   20.7259 H   0  0  0  0  0  0
  -28.7776  -13.7069   22.2779 H   0  0  0  0  0  0
  -28.4082  -15.1510   22.6003 H   0  0  0  0  0  0
  -25.3087   -9.5926   22.4938 H   0  0  0  0  0  0
  -24.0238   -7.4888   22.7599 H   0  0  0  0  0  0
  -21.1391   -8.8901   19.8770 H   0  0  0  0  0  0
  -22.4373  -10.9571   19.5863 H   0  0  0  0  0  0
  -21.2156   -7.6189   23.9814 H   0  0  0  0  0  0
  -21.1603   -6.0513   25.9132 H   0  0  0  0  0  0
  -22.0464   -2.7617   23.2858 H   0  0  0  0  0  0
  -22.3552  -11.8766   22.5744 H   0  0  0  0  0  0
  -20.9567  -12.8973   22.3861 H   0  0  0  0  0  0
  -23.6254  -15.6803   20.2864 H   0  0  0  0  0  0
  -25.2582  -16.0022   19.9419 H   0  0  0  0  0  0
  -26.8283  -32.4060   23.0383 H   0  0  0  0  0  0
  -24.9749  -33.8414   24.9110 H   0  0  0  0  0  0
  -23.0845  -31.0510   21.1508 H   0  0  0  0  0  0
  -23.3809  -35.9115   23.3173 H   0  0  0  0  0  0
  -24.3522  -36.8777   22.2146 H   0  0  0  0  0  0
  -23.7183  -37.5900   23.6998 H   0  0  0  0  0  0
  -26.6334  -30.5398   20.6882 H   0  0  0  0  0  0
  -27.0793  -29.9258   22.2084 H   0  0  0  0  0  0
  -28.1228  -27.0748   21.3387 H   0  0  0  0  0  0
  -25.5164  -25.0567   18.7368 H   0  0  0  0  0  0
  -24.1257  -26.9202   18.7520 H   0  0  0  0  0  0
  -24.2512  -30.0747   19.3406 H   0  0  0  0  0  0
  -23.0342  -28.9178   19.7655 H   0  0  0  0  0  0
  -25.1449  -36.1086   25.0696 H   0  0  0  0  0  0
  -21.0114  -28.3597   24.1104 H   0  0  0  0  0  0
  -20.5542  -26.2541   23.3824 H   0  0  0  0  0  0
  -21.6644  -26.7171   22.1348 H   0  0  0  0  0  0
  -19.6931  -25.6179   21.1403 H   0  0  0  0  0  0
  -19.6798  -27.3024   20.6692 H   0  0  0  0  0  0
  -17.4272  -26.6777   21.3974 H   0  0  0  0  0  0
  -18.0293  -26.0184   22.9020 H   0  0  0  0  0  0
  -19.8071  -30.7451   24.2005 H   0  0  0  0  0  0
  -17.5118  -31.6291   24.5189 H   0  0  0  0  0  0
  -15.5448  -30.2955   23.7799 H   0  0  0  0  0  0
  -15.8780  -28.0804   22.7172 H   0  0  0  0  0  0
  -24.5782  -30.7311   25.7184 H   0  0  0  0  0  0
  -24.8668  -32.3274   26.3919 H   0  0  0  0  0  0
  -25.7392  -30.9379   27.0112 H   0  0  0  0  0  0
  -26.3824  -29.5723   24.2914 H   0  0  0  0  0  0
  -27.4470  -29.7792   25.6498 H   0  0  0  0  0  0
  -27.9723  -30.3588   24.0949 H   0  0  0  0  0  0
  -27.2417  -33.4090   26.1332 H   0  0  0  0  0  0
  -28.4094  -32.6729   25.0464 H   0  0  0  0  0  0
  -28.0370  -31.9181   26.5885 H   0  0  0  0  0  0
  -28.2424  -37.9973   24.7533 H   0  0  0  0  0  0
  -28.1142  -36.2471   24.6245 H   0  0  0  0  0  0
  -27.2240  -37.1123   25.8857 H   0  0  0  0  0  0
  -21.0416  -29.8319   21.5848 H   0  0  0  0  0  0
  -25.9939  -38.2384   24.1437 H   0  0  0  0  0  0
  -32.7426  -19.7193   21.5147 H   0  0  0  0  0  0
  -30.3122  -20.1394   21.7478 H   0  0  0  0  0  0
  -33.5841  -17.4156   21.8566 H   0  0  0  0  0  0
  -29.7864  -16.2964   23.5870 H   0  0  0  0  0  0
  -30.6708  -13.1799   17.9834 H   0  0  0  0  0  0
  -29.8985  -11.8303   18.8686 H   0  0  0  0  0  0
  -27.9668  -12.7911   18.5679 H   0  0  0  0  0  0
  -28.7485  -13.2281   17.7665 H   0  0  0  0  0  0
  -29.8219  -13.0977   20.4769 H   0  0  0  0  0  0
  -28.6935  -12.8319   20.5213 H   0  0  0  0  0  0
  -26.9971  -16.5949   19.1875 H   0  0  0  0  0  0
  -27.9425  -16.9021   18.1726 H   0  0  0  0  0  0
  -29.6545  -17.0318   20.5268 H   0  0  0  0  0  0
  -29.3794  -18.6177   18.8339 H   0  0  0  0  0  0
  -26.9574  -17.7631   21.0684 H   0  0  0  0  0  0
  -27.1950  -16.5856   22.1454 H   0  0  0  0  0  0
  -26.9852  -20.9491   20.4636 H   0  0  0  0  0  0
  -27.3391  -21.1735   18.8033 H   0  0  0  0  0  0
  -28.2959  -19.7978   23.5939 H   0  0  0  0  0  0
  -32.9189  -15.0007   22.7441 H   0  0  0  0  0  0
  1 25  1  0  0  0
  1 30  2  0  0  0
  1 87  1  0  0  0
  2  3  1  0  0  0
  2 25  1  0  0  0
  2 88  1  0  0  0
  2 89  1  0  0  0
  3  4  1  0  0  0
  3 90  1  0  0  0
  3 91  1  0  0  0
  4  5  1  0  0  0
  4 92  1  0  0  0
  4 93  1  0  0  0
  5  6  1  0  0  0
  5 26  1  0  0  0
  5 94  1  0  0  0
  6 25  1  0  0  0
  6 95  1  0  0  0
  6 96  1  0  0  0
  7  8  2  0  0  0
  7 26  1  0  0  0
  7 29  1  0  0  0
  8  9  1  0  0  0
  8 22  1  0  0  0
  9 10  1  0  0  0
  9 27  2  0  0  0
 10 11  2  0  0  0
 10 15  1  0  0  0
 11 12  1  0  0  0
 11 97  1  0  0  0
 12 13  2  0  0  0
 12 98  1  0  0  0
 13 14  1  0  0  0
 13 31  1  0  0  0
 14 15  2  0  0  0
 14 99  1  0  0  0
 15100  1  0  0  0
 16 17  2  0  0  0
 16 21  1  0  0  0
 16 31  1  0  0  0
 17 18  1  0  0  0
 17101  1  0  0  0
 18 19  2  0  0  0
 18102  1  0  0  0
 19 20  1  0  0  0
 19 24  1  0  0  0
 20 21  2  0  0  0
 20103  1  0  0  0
 21 23  1  0  0  0
 22 28  1  0  0  0
 22 32  2  0  0  0
 26 27  1  0  0  0
 28104  1  0  0  0
 28105  1  0  0  0
 29106  1  0  0  0
 29107  1  0  0  0
 33 34  1  0  0  0
 33 66  1  0  0  0
 33 70  2  0  0  0
 34 36  1  0  0  0
 34 59  1  0  0  0
 34108  1  0  0  0
 35 44  2  0  0  0
 35 45  1  0  0  0
 35 68  1  0  0  0
 36 56  1  0  0  0
 36109  1  0  0  0
 37 39  1  0  0  0
 37 47  1  0  0  0
 37 66  1  0  0  0
 37110  1  0  0  0
 38 43  2  0  0  0
 38 46  1  0  0  0
 38 47  1  0  0  0
 39 64  1  0  0  0
 39 67  2  0  0  0
 40 52  1  0  0  0
 40 53  2  0  0  0
 40 58  1  0  0  0
 41111  1  0  0  0
 41112  1  0  0  0
 41113  1  0  0  0
 41 48  1  0  0  0
 42 43  1  0  0  0
 42 66  1  0  0  0
 42114  1  0  0  0
 42115  1  0  0  0
 43 44  1  0  0  0
 44116  1  0  0  0
 45 46  2  0  0  0
 45117  1  0  0  0
 46118  1  0  0  0
 47119  1  0  0  0
 47120  1  0  0  0
 48 56  1  0  0  0
 48 65  1  0  0  0
 48121  1  0  0  0
 49 50  1  0  0  0
 49 53  1  0  0  0
 49 64  1  0  0  0
 49122  1  0  0  0
 50 51  1  0  0  0
 50123  1  0  0  0
 50124  1  0  0  0
 51 52  1  0  0  0
 51125  1  0  0  0
 51126  1  0  0  0
 52127  1  0  0  0
 52128  1  0  0  0
 53 54  1  0  0  0
 54 55  2  0  0  0
 54129  1  0  0  0
 55 57  1  0  0  0
 55130  1  0  0  0
 56 69  2  0  0  0
 57 58  2  0  0  0
 57131  1  0  0  0
 58132  1  0  0  0
 59 60  1  0  0  0
 59 61  1  0  0  0
 59 62  1  0  0  0
 60133  1  0  0  0
 60134  1  0  0  0
 60135  1  0  0  0
 61136  1  0  0  0
 61137  1  0  0  0
 61138  1  0  0  0
 62139  1  0  0  0
 62140  1  0  0  0
 62141  1  0  0  0
 63 65  1  0  0  0
 63142  1  0  0  0
 63143  1  0  0  0
 63144  1  0  0  0
 64145  1  0  0  0
 65146  1  0  0  0
 68 85  1  0  0  0
 71 72  2  0  0  0
 71 73  1  0  0  0
 71147  1  0  0  0
 72 75  1  0  0  0
 72148  1  0  0  0
 73 76  2  0  0  0
 73149  1  0  0  0
 74 75  2  0  0  0
 74 76  1  0  0  0
 74150  1  0  0  0
 75 77  1  0  0  0
 76 87  1  0  0  0
 77 84  1  0  0  0
 77 86  2  0  0  0
 78 79  1  0  0  0
 78 80  1  0  0  0
 78151  1  0  0  0
 78152  1  0  0  0
 79 81  1  0  0  0
 79153  1  0  0  0
 79154  1  0  0  0
 80 82  1  0  0  0
 80155  1  0  0  0
 80156  1  0  0  0
 81 83  1  0  0  0
 81157  1  0  0  0
 81158  1  0  0  0
 82 83  1  0  0  0
 82 84  1  0  0  0
 82159  1  0  0  0
 83 85  1  0  0  0
 83160  1  0  0  0
 84161  1  0  0  0
 84162  1  0  0  0
 85163  1  0  0  0
 85164  1  0  0  0
 86165  1  0  0  0
 87166  1  0  0  0
M  ISO  4   1 100  68 101  85 101  87 100
M  END
> <chiral flag>
0

> <version>
0

> <s_m_source_file>
/data/baiqing/PycharmProjects/Reinvent-master-3.2/result/LINK_invent/BTK/process_docking_weight1_custom_product_contain_oxygen_bond_distance_aromatic_linkinvent_7_9_3/rearranged_h_0138.sdf

> <i_m_source_file_index>
78

> <r_mmod_Potential_Energy-OPLS-2005>
24592.26171875

> <r_mmod_Stretch_Energy-OPLS-2005>
12114.4716796875

> <r_mmod_Bend_Energy-OPLS-2005>
3238.24438476562

> <r_mmod_Torsional_Energy-OPLS-2005>
443.885833740234

> <r_mmod_Improper_Torsional_Energy-OPLS-2005>
30.7710437774658

> <r_mmod_Van_der_Waal_Energy-OPLS-2005>
3090.09887695312

> <r_mmod_Electrostatic_Energy-OPLS-2005>
-366.754852294922

> <r_mmod_Solvation_Energy-OPLS-2005>
-198.098495483398

> <b_mmod_Minimization_Converged-OPLS-2005>
0

> <r_mmod_RMS_Derivative-OPLS-2005>
10.2130556106567

$$$$
78
                    3D
 Structure written by MMmdl.
163172  0  0  1  0            999 V2000
  -30.5294  -14.8166   20.4365 C   0  0  0  0  0  0
  -30.4285  -12.5021   19.4730 C   0  0  0  0  0  0
  -29.5103  -12.5411   18.2290 C   0  0  0  0  0  0
  -28.0319  -12.3604   18.6215 C   0  0  0  0  0  0
  -27.6291  -13.2339   19.8406 C   0  0  2  0  0  0
  -28.6676  -13.1626   20.9815 C   0  0  0  0  0  0
  -25.2467  -13.8165   20.5651 C   0  0  0  0  0  0
  -24.1750  -13.0439   20.9124 C   0  0  0  0  0  0
  -24.6300  -11.6911   20.8687 C   0  0  0  0  0  0
  -23.8964  -10.4314   21.0394 C   0  0  0  0  0  0
  -24.3564   -9.4252   21.9159 C   0  0  0  0  0  0
  -23.6265   -8.2275   22.0780 C   0  0  0  0  0  0
  -22.4267   -8.0270   21.3542 C   0  0  0  0  0  0
  -21.9856   -9.0225   20.4653 C   0  0  0  0  0  0
  -22.7124  -10.2146   20.3039 C   0  0  0  0  0  0
  -21.6857   -6.0697   22.5221 C   0  0  0  0  0  0
  -21.3992   -6.5607   23.8154 C   0  0  0  0  0  0
  -21.3684   -5.6787   24.9121 C   0  0  0  0  0  0
  -21.6072   -4.3041   24.7207 C   0  0  0  0  0  0
  -21.8818   -3.8102   23.4321 C   0  0  0  0  0  0
  -21.9208   -4.6917   22.3374 C   0  0  0  0  0  0
  -22.7787  -13.5287   21.1791 C   0  0  0  0  0  0
  -22.1676   -4.2094   21.0955 F   0  0  0  0  0  0
  -21.5663   -3.4523   25.7726 F   0  0  0  0  0  0
  -29.9651  -13.5535   20.4169 N   0  0  0  0  0  0
  -26.2851  -12.9340   20.3156 N   0  0  0  0  0  0
  -25.9222  -11.6495   20.5650 N   0  0  0  0  0  0
  -22.0394  -12.8339   22.0378 N   0  0  0  0  0  0
  -25.4257  -15.1874   20.4152 N   0  0  0  0  0  0
  -31.6955  -14.9541   20.0487 O   0  0  0  0  0  0
  -21.6655   -6.8842   21.4214 O   0  0  0  0  0  0
  -22.3515  -14.5584   20.6616 O   0  0  0  0  0  0
  -24.6372  -31.8513   23.1947 C   0  0  0  0  0  0
  -25.9185  -32.4726   23.8301 C   0  0  1  0  0  0
  -27.1959  -27.2145   20.1439 C   0  0  0  0  0  0
  -25.5986  -33.8525   24.2237 N   0  0  0  0  0  0
  -23.4301  -30.4740   21.5433 C   0  0  2  0  0  0
  -24.8787  -28.9180   20.1078 C   0  0  0  0  0  0
  -22.7513  -29.4559   22.4907 C   0  0  0  0  0  0
  -18.0287  -28.1370   22.8454 C   0  0  0  0  0  0
  -24.1489  -36.7263   23.2631 C   0  0  0  0  0  0
  -25.9809  -30.7501   21.3829 C   0  0  0  0  0  0
  -26.0542  -29.3669   20.7276 C   0  0  0  0  0  0
  -27.2204  -28.5299   20.7334 C   0  0  0  0  0  0
  -26.0043  -26.8384   19.4950 C   0  0  0  0  0  0
  -24.8629  -27.6645   19.4748 C   0  0  0  0  0  0
  -23.6513  -29.8134   20.1573 C   0  0  0  0  0  0
  -25.4123  -36.3056   24.0309 C   0  0  1  0  0  0
  -20.5883  -28.3687   23.1263 C   0  0  2  0  0  0
  -20.6766  -26.9397   22.5396 C   0  0  0  0  0  0
  -19.5757  -26.6341   21.5196 C   0  0  0  0  0  0
  -18.1936  -26.7892   22.1605 C   0  0  0  0  0  0
  -19.1534  -28.8852   23.2836 C   0  0  0  0  0  0
  -18.9468  -30.1451   23.8867 C   0  0  0  0  0  0
  -17.6477  -30.6582   24.0553 C   0  0  0  0  0  0
  -25.9069  -34.9431   23.5067 C   0  0  0  0  0  0
  -16.5358  -29.9077   23.6341 C   0  0  0  0  0  0
  -16.7278  -28.6484   23.0358 C   0  0  0  0  0  0
  -26.4523  -31.6554   25.0713 C   0  0  0  0  0  0
  -25.3726  -31.3779   26.1436 C   0  0  0  0  0  0
  -27.0345  -30.2947   24.6231 C   0  0  0  0  0  0
  -27.6078  -32.4273   25.7493 C   0  0  0  0  0  0
  -27.5565  -37.1803   24.8470 C   0  0  0  0  0  0
  -21.4212  -29.3020   22.3657 N   0  0  0  0  0  0
  -26.4296  -37.3768   23.9379 N   0  0  0  0  0  0
  -24.7020  -31.0432   22.0960 N   0  0  0  0  0  0
  -23.4209  -28.8112   23.3020 O   0  0  0  0  0  0
  -28.2179  -26.2320   20.1514 O   0  0  0  0  0  0
  -26.5626  -34.8910   22.4634 O   0  0  0  0  0  0
  -23.5511  -32.1371   23.7199 O   0  0  0  0  0  0
  -29.3225  -18.5151   18.0546 C   0  0  0  0  0  0
  -29.6688  -17.3445   18.7546 C   0  0  0  0  0  0
  -29.1515  -18.5429   20.7994 C   0  0  0  0  0  0
  -28.9091  -19.7117   18.6889 C   0  0  0  0  0  0
  -28.8680  -19.8324   20.1142 C   0  0  0  0  0  0
  -29.5649  -17.2793   20.1563 C   0  0  0  0  0  0
  -28.3871  -23.8326   21.2890 C   0  0  0  0  0  0
  -28.1690  -25.2197   21.1538 C   0  0  0  0  0  0
  -28.3821  -23.3482   22.7303 C   0  0  0  0  0  0
  -28.7186  -22.5862   20.3197 C   0  0  0  0  0  0
  -27.5423  -22.0896   22.9162 C   0  0  0  0  0  0
  -28.1880  -20.8948   22.2061 C   0  0  0  0  0  0
  -29.6119  -21.5960   17.1489 C   0  0  0  0  0  0
  -28.4352  -20.7926   17.7266 C   0  0  0  0  0  0
  -28.4866  -21.1093   20.7835 N   0  0  0  0  0  0
  -29.7415  -15.9240   20.7932 N   0  0  0  0  0  0
  -31.4647  -12.6534   19.1749 H   0  0  0  0  0  0
  -30.3939  -11.5213   19.9477 H   0  0  0  0  0  0
  -29.8037  -11.7690   17.5162 H   0  0  0  0  0  0
  -29.6288  -13.4930   17.7074 H   0  0  0  0  0  0
  -27.8728  -11.3046   18.8429 H   0  0  0  0  0  0
  -27.4014  -12.6001   17.7628 H   0  0  0  0  0  0
  -27.6119  -14.2597   19.4735 H   0  0  0  0  0  0
  -28.7146  -12.1552   21.3977 H   0  0  0  0  0  0
  -28.3825  -13.8233   21.8006 H   0  0  0  0  0  0
  -25.2742   -9.5758   22.4676 H   0  0  0  0  0  0
  -23.9972   -7.4734   22.7562 H   0  0  0  0  0  0
  -21.0752   -8.8720   19.8999 H   0  0  0  0  0  0
  -22.3545  -10.9675   19.6134 H   0  0  0  0  0  0
  -21.1932   -7.6116   23.9621 H   0  0  0  0  0  0
  -21.1533   -6.0530   25.9039 H   0  0  0  0  0  0
  -22.0585   -2.7548   23.2853 H   0  0  0  0  0  0
  -22.3995  -12.0046   22.4860 H   0  0  0  0  0  0
  -21.1006  -13.1429   22.2525 H   0  0  0  0  0  0
  -24.6704  -15.8544   20.5300 H   0  0  0  0  0  0
  -26.2827  -15.6181   20.0902 H   0  0  0  0  0  0
  -26.7248  -32.5363   23.1021 H   0  0  0  0  0  0
  -25.0165  -33.9658   25.0406 H   0  0  0  0  0  0
  -22.7279  -31.2983   21.4025 H   0  0  0  0  0  0
  -23.3737  -35.9617   23.3344 H   0  0  0  0  0  0
  -24.3560  -36.8831   22.2038 H   0  0  0  0  0  0
  -23.7283  -37.6489   23.6626 H   0  0  0  0  0  0
  -26.1246  -31.5071   20.6105 H   0  0  0  0  0  0
  -26.8573  -30.8006   22.0163 H   0  0  0  0  0  0
  -28.1240  -28.8637   21.2248 H   0  0  0  0  0  0
  -25.9419  -25.8672   19.0227 H   0  0  0  0  0  0
  -23.9625  -27.3236   18.9828 H   0  0  0  0  0  0
  -23.7795  -30.5983   19.4110 H   0  0  0  0  0  0
  -22.7638  -29.2583   19.8478 H   0  0  0  0  0  0
  -25.1304  -36.1887   25.0803 H   0  0  0  0  0  0
  -20.9954  -28.3263   24.1399 H   0  0  0  0  0  0
  -20.5639  -26.2301   23.3599 H   0  0  0  0  0  0
  -21.6646  -26.7381   22.1234 H   0  0  0  0  0  0
  -19.6916  -25.6250   21.1236 H   0  0  0  0  0  0
  -19.6702  -27.3141   20.6728 H   0  0  0  0  0  0
  -17.4185  -26.6639   21.4027 H   0  0  0  0  0  0
  -18.0342  -26.0040   22.9014 H   0  0  0  0  0  0
  -19.7948  -30.7258   24.2223 H   0  0  0  0  0  0
  -17.5028  -31.6265   24.5150 H   0  0  0  0  0  0
  -15.5349  -30.2977   23.7664 H   0  0  0  0  0  0
  -15.8668  -28.0796   22.7100 H   0  0  0  0  0  0
  -24.5886  -30.7133   25.7788 H   0  0  0  0  0  0
  -24.8967  -32.3005   26.4778 H   0  0  0  0  0  0
  -25.8040  -30.9018   27.0256 H   0  0  0  0  0  0
  -26.2952  -29.6689   24.1231 H   0  0  0  0  0  0
  -27.3971  -29.7210   25.4765 H   0  0  0  0  0  0
  -27.8848  -30.4158   23.9517 H   0  0  0  0  0  0
  -27.2717  -33.3605   26.2005 H   0  0  0  0  0  0
  -28.3956  -32.6754   25.0374 H   0  0  0  0  0  0
  -28.0653  -31.8425   26.5475 H   0  0  0  0  0  0
  -28.2631  -38.0048   24.7434 H   0  0  0  0  0  0
  -28.1014  -36.2584   24.6395 H   0  0  0  0  0  0
  -27.2270  -37.1549   25.8873 H   0  0  0  0  0  0
  -20.9399  -29.8788   21.6903 H   0  0  0  0  0  0
  -26.0157  -38.2831   24.1389 H   0  0  0  0  0  0
  -29.3386  -18.4757   16.9748 H   0  0  0  0  0  0
  -29.9494  -16.4715   18.1784 H   0  0  0  0  0  0
  -29.0362  -18.4946   21.8732 H   0  0  0  0  0  0
  -27.9802  -25.7533   22.0754 H   0  0  0  0  0  0
  -28.0377  -24.1179   23.4234 H   0  0  0  0  0  0
  -29.4146  -23.1381   23.0094 H   0  0  0  0  0  0
  -29.7783  -22.6631   20.0758 H   0  0  0  0  0  0
  -28.1787  -22.8345   19.4145 H   0  0  0  0  0  0
  -26.5118  -22.2519   22.5946 H   0  0  0  0  0  0
  -27.4903  -21.8564   23.9825 H   0  0  0  0  0  0
  -27.5026  -20.0518   22.3225 H   0  0  0  0  0  0
  -29.1140  -20.6331   22.7232 H   0  0  0  0  0  0
  -29.2579  -22.4108   16.5172 H   0  0  0  0  0  0
  -30.2695  -20.9646   16.5450 H   0  0  0  0  0  0
  -30.2199  -22.0313   17.9414 H   0  0  0  0  0  0
  -27.6582  -21.4063   18.1680 H   0  0  0  0  0  0
  -27.8986  -20.3115   16.9062 H   0  0  0  0  0  0
  -28.9855  -15.6630   21.4133 H   0  0  0  0  0  0
  1 25  1  0  0  0
  1 30  2  0  0  0
  1 86  1  0  0  0
  2  3  1  0  0  0
  2 25  1  0  0  0
  2 87  1  0  0  0
  2 88  1  0  0  0
  3  4  1  0  0  0
  3 89  1  0  0  0
  3 90  1  0  0  0
  4  5  1  0  0  0
  4 91  1  0  0  0
  4 92  1  0  0  0
  5  6  1  0  0  0
  5 26  1  0  0  0
  5 93  1  0  0  0
  6 25  1  0  0  0
  6 94  1  0  0  0
  6 95  1  0  0  0
  7  8  2  0  0  0
  7 26  1  0  0  0
  7 29  1  0  0  0
  8  9  1  0  0  0
  8 22  1  0  0  0
  9 10  1  0  0  0
  9 27  2  0  0  0
 10 11  2  0  0  0
 10 15  1  0  0  0
 11 12  1  0  0  0
 11 96  1  0  0  0
 12 13  2  0  0  0
 12 97  1  0  0  0
 13 14  1  0  0  0
 13 31  1  0  0  0
 14 15  2  0  0  0
 14 98  1  0  0  0
 15 99  1  0  0  0
 16 17  2  0  0  0
 16 21  1  0  0  0
 16 31  1  0  0  0
 17 18  1  0  0  0
 17100  1  0  0  0
 18 19  2  0  0  0
 18101  1  0  0  0
 19 20  1  0  0  0
 19 24  1  0  0  0
 20 21  2  0  0  0
 20102  1  0  0  0
 21 23  1  0  0  0
 22 28  1  0  0  0
 22 32  2  0  0  0
 26 27  1  0  0  0
 28103  1  0  0  0
 28104  1  0  0  0
 29105  1  0  0  0
 29106  1  0  0  0
 33 34  1  0  0  0
 33 66  1  0  0  0
 33 70  2  0  0  0
 34 36  1  0  0  0
 34 59  1  0  0  0
 34107  1  0  0  0
 35 44  2  0  0  0
 35 45  1  0  0  0
 35 68  1  0  0  0
 36 56  1  0  0  0
 36108  1  0  0  0
 37 39  1  0  0  0
 37 47  1  0  0  0
 37 66  1  0  0  0
 37109  1  0  0  0
 38 43  2  0  0  0
 38 46  1  0  0  0
 38 47  1  0  0  0
 39 64  1  0  0  0
 39 67  2  0  0  0
 40 52  1  0  0  0
 40 53  2  0  0  0
 40 58  1  0  0  0
 41110  1  0  0  0
 41111  1  0  0  0
 41112  1  0  0  0
 41 48  1  0  0  0
 42 43  1  0  0  0
 42 66  1  0  0  0
 42113  1  0  0  0
 42114  1  0  0  0
 43 44  1  0  0  0
 44115  1  0  0  0
 45 46  2  0  0  0
 45116  1  0  0  0
 46117  1  0  0  0
 47118  1  0  0  0
 47119  1  0  0  0
 48 56  1  0  0  0
 48 65  1  0  0  0
 48120  1  0  0  0
 49 50  1  0  0  0
 49 53  1  0  0  0
 49 64  1  0  0  0
 49121  1  0  0  0
 50 51  1  0  0  0
 50122  1  0  0  0
 50123  1  0  0  0
 51 52  1  0  0  0
 51124  1  0  0  0
 51125  1  0  0  0
 52126  1  0  0  0
 52127  1  0  0  0
 53 54  1  0  0  0
 54 55  2  0  0  0
 54128  1  0  0  0
 55 57  1  0  0  0
 55129  1  0  0  0
 56 69  2  0  0  0
 57 58  2  0  0  0
 57130  1  0  0  0
 58131  1  0  0  0
 59 60  1  0  0  0
 59 61  1  0  0  0
 59 62  1  0  0  0
 60132  1  0  0  0
 60133  1  0  0  0
 60134  1  0  0  0
 61135  1  0  0  0
 61136  1  0  0  0
 61137  1  0  0  0
 62138  1  0  0  0
 62139  1  0  0  0
 62140  1  0  0  0
 63 65  1  0  0  0
 63141  1  0  0  0
 63142  1  0  0  0
 63143  1  0  0  0
 64144  1  0  0  0
 65145  1  0  0  0
 68 78  1  0  0  0
 71 72  2  0  0  0
 71 74  1  0  0  0
 71146  1  0  0  0
 72 76  1  0  0  0
 72147  1  0  0  0
 73 75  1  0  0  0
 73 76  2  0  0  0
 73148  1  0  0  0
 74 75  2  0  0  0
 74 84  1  0  0  0
 75 85  1  0  0  0
 76 86  1  0  0  0
 77 78  2  0  0  0
 77 79  1  0  0  0
 77 80  1  0  0  0
 78149  1  0  0  0
 79 81  1  0  0  0
 79150  1  0  0  0
 79151  1  0  0  0
 80 85  1  0  0  0
 80152  1  0  0  0
 80153  1  0  0  0
 81 82  1  0  0  0
 81154  1  0  0  0
 81155  1  0  0  0
 82 85  1  0  0  0
 82156  1  0  0  0
 82157  1  0  0  0
 83 84  1  0  0  0
 83158  1  0  0  0
 83159  1  0  0  0
 83160  1  0  0  0
 84161  1  0  0  0
 84162  1  0  0  0
 86163  1  0  0  0
M  ISO  4   1 100  68 101  78 101  86 100
M  END
> <chiral flag>
0

> <version>
0

> <s_m_source_file>
/data/baiqing/PycharmProjects/Reinvent-master-3.2/result/LINK_invent/BTK/process_docking_weight1_custom_product_contain_oxygen_bond_distance_aromatic_linkinvent_7_9_3/rearranged_h_0138.sdf

> <i_m_source_file_index>
79

> <r_mmod_Potential_Energy-OPLS-2005>
413.042236328125

> <r_mmod_Stretch_Energy-OPLS-2005>
178.677398681641

> <r_mmod_Bend_Energy-OPLS-2005>
254.846435546875

> <r_mmod_Torsional_Energy-OPLS-2005>
269.543609619141

> <r_mmod_Improper_Torsional_Energy-OPLS-2005>
5.46352958679199

> <r_mmod_Van_der_Waal_Energy-OPLS-2005>
149.388641357422

> <r_mmod_Electrostatic_Energy-OPLS-2005>
-351.727386474609

> <r_mmod_Solvation_Energy-OPLS-2005>
-219.209075927734

> <b_mmod_Minimization_Converged-OPLS-2005>
0

> <r_mmod_RMS_Derivative-OPLS-2005>
6.31276845932007

$$$$
79
                    3D
 Structure written by MMmdl.
167176  0  0  1  0            999 V2000
  -30.6635  -14.6049   20.5304 C   0  0  0  0  0  0
  -30.4453  -12.3831   19.4557 C   0  0  0  0  0  0
  -29.5161  -12.5158   18.2286 C   0  0  0  0  0  0
  -28.0390  -12.3549   18.6359 C   0  0  0  0  0  0
  -27.6608  -13.2073   19.8782 C   0  0  2  0  0  0
  -28.7067  -13.0627   21.0074 C   0  0  0  0  0  0
  -25.2592  -13.8127   20.5708 C   0  0  0  0  0  0
  -24.1837  -13.0422   20.9188 C   0  0  0  0  0  0
  -24.6404  -11.6881   20.8762 C   0  0  0  0  0  0
  -23.9081  -10.4272   21.0424 C   0  0  0  0  0  0
  -24.3626   -9.4186   21.9199 C   0  0  0  0  0  0
  -23.6283   -8.2219   22.0753 C   0  0  0  0  0  0
  -22.4256   -8.0282   21.3542 C   0  0  0  0  0  0
  -21.9912   -9.0264   20.4651 C   0  0  0  0  0  0
  -22.7264  -10.2132   20.3065 C   0  0  0  0  0  0
  -21.6839   -6.0729   22.5259 C   0  0  0  0  0  0
  -21.4001   -6.5618   23.8204 C   0  0  0  0  0  0
  -21.3666   -5.6778   24.9160 C   0  0  0  0  0  0
  -21.6052   -4.3039   24.7201 C   0  0  0  0  0  0
  -21.8832   -3.8147   23.4315 C   0  0  0  0  0  0
  -21.9188   -4.6964   22.3382 C   0  0  0  0  0  0
  -22.7869  -13.5240   21.1844 C   0  0  0  0  0  0
  -22.1649   -4.2169   21.0949 F   0  0  0  0  0  0
  -21.5665   -3.4518   25.7706 F   0  0  0  0  0  0
  -30.0304  -13.3931   20.4497 N   0  0  0  0  0  0
  -26.3027  -12.9290   20.3393 N   0  0  0  0  0  0
  -25.9333  -11.6463   20.5778 N   0  0  0  0  0  0
  -22.0485  -12.8240   22.0398 N   0  0  0  0  0  0
  -25.4387  -15.1824   20.4112 N   0  0  0  0  0  0
  -31.7998  -14.7760   20.0772 O   0  0  0  0  0  0
  -21.6624   -6.8868   21.4226 O   0  0  0  0  0  0
  -22.3573  -14.5567   20.6715 O   0  0  0  0  0  0
  -24.6226  -31.8632   23.2057 C   0  0  0  0  0  0
  -25.9103  -32.4787   23.8365 C   0  0  1  0  0  0
  -27.2260  -27.3542   20.1084 C   0  0  0  0  0  0
  -25.5926  -33.8582   24.2298 N   0  0  0  0  0  0
  -23.4123  -30.4878   21.5492 C   0  0  2  0  0  0
  -24.8582  -28.9475   20.1132 C   0  0  0  0  0  0
  -22.7443  -29.4643   22.4970 C   0  0  0  0  0  0
  -18.0280  -28.1393   22.8476 C   0  0  0  0  0  0
  -24.1486  -36.7288   23.2635 C   0  0  0  0  0  0
  -25.9506  -30.8044   21.3714 C   0  0  0  0  0  0
  -26.0261  -29.4339   20.7159 C   0  0  0  0  0  0
  -27.2111  -28.6463   20.7071 C   0  0  0  0  0  0
  -26.0409  -26.9188   19.4727 C   0  0  0  0  0  0
  -24.8667  -27.6935   19.4833 C   0  0  0  0  0  0
  -23.6239  -29.8228   20.1639 C   0  0  0  0  0  0
  -25.4103  -36.3077   24.0332 C   0  0  1  0  0  0
  -20.5869  -28.3683   23.1304 C   0  0  2  0  0  0
  -20.6780  -26.9411   22.5415 C   0  0  0  0  0  0
  -19.5750  -26.6389   21.5211 C   0  0  0  0  0  0
  -18.1921  -26.7937   22.1613 C   0  0  0  0  0  0
  -19.1527  -28.8855   23.2877 C   0  0  0  0  0  0
  -18.9462  -30.1472   23.8877 C   0  0  0  0  0  0
  -17.6455  -30.6596   24.0569 C   0  0  0  0  0  0
  -25.9039  -34.9450   23.5113 C   0  0  0  0  0  0
  -16.5347  -29.9088   23.6338 C   0  0  0  0  0  0
  -16.7274  -28.6517   23.0341 C   0  0  0  0  0  0
  -26.4489  -31.6579   25.0722 C   0  0  0  0  0  0
  -25.3738  -31.3722   26.1462 C   0  0  0  0  0  0
  -27.0325  -30.3007   24.6146 C   0  0  0  0  0  0
  -27.6059  -32.4308   25.7490 C   0  0  0  0  0  0
  -27.5575  -37.1792   24.8460 C   0  0  0  0  0  0
  -21.4157  -29.3049   22.3706 N   0  0  0  0  0  0
  -26.4279  -37.3775   23.9415 N   0  0  0  0  0  0
  -24.6805  -31.0670   22.0997 N   0  0  0  0  0  0
  -23.4194  -28.8177   23.3019 O   0  0  0  0  0  0
  -28.3604  -26.5388   20.1303 O   0  0  0  0  0  0
  -26.5587  -34.8914   22.4668 O   0  0  0  0  0  0
  -23.5397  -32.1420   23.7407 O   0  0  0  0  0  0
  -30.3790  -18.1618   20.8847 C   0  0  0  0  0  0
  -29.2081  -19.4784   19.1895 C   0  0  0  0  0  0
  -28.8513  -17.0682   19.3490 C   0  0  0  0  0  0
  -30.1133  -19.4352   20.2690 C   0  0  0  0  0  0
  -29.7723  -16.9525   20.4148 C   0  0  0  0  0  0
  -28.5556  -18.3058   18.7427 C   0  0  0  0  0  0
  -30.8833  -20.6669   20.6198 C   0  0  0  0  0  0
  -30.6063  -24.4141   20.9147 C   0  0  0  0  0  0
  -31.4006  -23.0956   20.9651 C   0  0  0  0  0  0
  -29.1045  -22.6096   20.5112 C   0  0  0  0  0  0
  -29.3393  -24.1176   20.1042 C   0  0  2  0  0  0
  -29.6149  -24.2048   18.5874 C   0  0  0  0  0  0
  -27.1850  -19.5327   17.2000 C   0  0  0  0  0  0
  -28.1645  -25.1158   20.4523 C   0  0  0  0  0  0
  -30.4598  -21.9853   20.6646 N   0  0  0  0  0  0
  -29.9445  -15.6470   21.0327 N   0  0  0  0  0  0
  -32.1769  -20.4508   20.8702 N   0  3  0  0  0  0
  -27.6343  -18.2868   17.7160 O   0  0  0  0  0  0
  -31.4890  -12.4997   19.1532 H   0  0  0  0  0  0
  -30.3736  -11.3840   19.8865 H   0  0  0  0  0  0
  -29.7818  -11.7774   17.4718 H   0  0  0  0  0  0
  -29.6661  -13.4912   17.7624 H   0  0  0  0  0  0
  -27.8714  -11.2978   18.8465 H   0  0  0  0  0  0
  -27.3959  -12.6083   17.7920 H   0  0  0  0  0  0
  -27.6807  -14.2417   19.5527 H   0  0  0  0  0  0
  -28.7117  -12.0423   21.3931 H   0  0  0  0  0  0
  -28.4541  -13.6965   21.8601 H   0  0  0  0  0  0
  -25.2776   -9.5648   22.4766 H   0  0  0  0  0  0
  -24.0022   -7.4587   22.7429 H   0  0  0  0  0  0
  -21.0865   -8.8778   19.8917 H   0  0  0  0  0  0
  -22.3750  -10.9669   19.6156 H   0  0  0  0  0  0
  -21.1970   -7.6119   23.9705 H   0  0  0  0  0  0
  -21.1495   -6.0494   25.9070 H   0  0  0  0  0  0
  -22.0616   -2.7610   23.2793 H   0  0  0  0  0  0
  -22.4078  -11.9875   22.4755 H   0  0  0  0  0  0
  -21.1107  -13.1285   22.2602 H   0  0  0  0  0  0
  -24.6782  -15.8468   20.5115 H   0  0  0  0  0  0
  -26.2911  -15.6118   20.0830 H   0  0  0  0  0  0
  -26.7172  -32.5473   23.1112 H   0  0  0  0  0  0
  -25.0110  -33.9741   25.0467 H   0  0  0  0  0  0
  -22.7025  -31.3061   21.4122 H   0  0  0  0  0  0
  -23.3754  -35.9611   23.3272 H   0  0  0  0  0  0
  -24.3598  -36.8939   22.2058 H   0  0  0  0  0  0
  -23.7242  -37.6482   23.6675 H   0  0  0  0  0  0
  -26.0744  -31.5690   20.6028 H   0  0  0  0  0  0
  -26.8349  -30.8561   21.9954 H   0  0  0  0  0  0
  -28.1073  -29.0147   21.1847 H   0  0  0  0  0  0
  -26.0022  -25.9773   18.9466 H   0  0  0  0  0  0
  -23.9748  -27.3225   18.9967 H   0  0  0  0  0  0
  -23.7347  -30.6011   19.4075 H   0  0  0  0  0  0
  -22.7435  -29.2492   19.8664 H   0  0  0  0  0  0
  -25.1277  -36.1924   25.0822 H   0  0  0  0  0  0
  -20.9946  -28.3272   24.1431 H   0  0  0  0  0  0
  -20.5709  -26.2274   23.3605 H   0  0  0  0  0  0
  -21.6656  -26.7482   22.1200 H   0  0  0  0  0  0
  -19.6907  -25.6294   21.1255 H   0  0  0  0  0  0
  -19.6696  -27.3193   20.6732 H   0  0  0  0  0  0
  -17.4192  -26.6696   21.4011 H   0  0  0  0  0  0
  -18.0307  -26.0102   22.9031 H   0  0  0  0  0  0
  -19.7934  -30.7305   24.2221 H   0  0  0  0  0  0
  -17.5015  -31.6274   24.5170 H   0  0  0  0  0  0
  -15.5346  -30.2979   23.7692 H   0  0  0  0  0  0
  -15.8676  -28.0850   22.7040 H   0  0  0  0  0  0
  -24.5888  -30.7087   25.7799 H   0  0  0  0  0  0
  -24.8950  -32.2899   26.4892 H   0  0  0  0  0  0
  -25.8074  -30.8892   27.0229 H   0  0  0  0  0  0
  -26.2885  -29.6759   24.1180 H   0  0  0  0  0  0
  -27.4054  -29.7248   25.4625 H   0  0  0  0  0  0
  -27.8732  -30.4292   23.9327 H   0  0  0  0  0  0
  -27.2675  -33.3617   26.2049 H   0  0  0  0  0  0
  -28.3869  -32.6860   25.0318 H   0  0  0  0  0  0
  -28.0708  -31.8443   26.5425 H   0  0  0  0  0  0
  -28.2570  -38.0109   24.7534 H   0  0  0  0  0  0
  -28.1094  -36.2649   24.6234 H   0  0  0  0  0  0
  -27.2309  -37.1386   25.8867 H   0  0  0  0  0  0
  -20.9308  -29.8753   21.6917 H   0  0  0  0  0  0
  -26.0153  -38.2843   24.1434 H   0  0  0  0  0  0
  -31.0722  -18.1144   21.7135 H   0  0  0  0  0  0
  -29.0560  -20.4176   18.6822 H   0  0  0  0  0  0
  -28.3463  -16.1950   18.9724 H   0  0  0  0  0  0
  -31.1913  -25.2191   20.4664 H   0  0  0  0  0  0
  -30.3607  -24.7260   21.9306 H   0  0  0  0  0  0
  -31.8690  -22.9733   21.9439 H   0  0  0  0  0  0
  -32.1943  -23.1138   20.2160 H   0  0  0  0  0  0
  -28.4722  -22.1043   19.7831 H   0  0  0  0  0  0
  -28.5874  -22.5513   21.4709 H   0  0  0  0  0  0
  -30.4292  -23.5507   18.2729 H   0  0  0  0  0  0
  -29.8759  -25.2223   18.2930 H   0  0  0  0  0  0
  -28.7328  -23.9226   18.0115 H   0  0  0  0  0  0
  -26.3548  -19.3666   16.5130 H   0  0  0  0  0  0
  -27.9750  -20.0395   16.6456 H   0  0  0  0  0  0
  -26.8232  -20.1871   17.9929 H   0  0  0  0  0  0
  -27.9601  -25.0554   21.5224 H   0  0  0  0  0  0
  -27.2764  -24.7102   19.9746 H   0  0  0  0  0  0
  -29.1239  -15.3143   21.5156 H   0  0  0  0  0  0
  -32.5509  -19.5238   20.7355 H   0  0  0  0  0  0
  -32.8101  -21.1848   21.1334 H   0  0  0  0  0  0
  1 25  1  0  0  0
  1 30  2  0  0  0
  1 86  1  0  0  0
  2  3  1  0  0  0
  2 25  1  0  0  0
  2 89  1  0  0  0
  2 90  1  0  0  0
  3  4  1  0  0  0
  3 91  1  0  0  0
  3 92  1  0  0  0
  4  5  1  0  0  0
  4 93  1  0  0  0
  4 94  1  0  0  0
  5  6  1  0  0  0
  5 26  1  0  0  0
  5 95  1  0  0  0
  6 25  1  0  0  0
  6 96  1  0  0  0
  6 97  1  0  0  0
  7  8  2  0  0  0
  7 26  1  0  0  0
  7 29  1  0  0  0
  8  9  1  0  0  0
  8 22  1  0  0  0
  9 10  1  0  0  0
  9 27  2  0  0  0
 10 11  2  0  0  0
 10 15  1  0  0  0
 11 12  1  0  0  0
 11 98  1  0  0  0
 12 13  2  0  0  0
 12 99  1  0  0  0
 13 14  1  0  0  0
 13 31  1  0  0  0
 14 15  2  0  0  0
 14100  1  0  0  0
 15101  1  0  0  0
 16 17  2  0  0  0
 16 21  1  0  0  0
 16 31  1  0  0  0
 17 18  1  0  0  0
 17102  1  0  0  0
 18 19  2  0  0  0
 18103  1  0  0  0
 19 20  1  0  0  0
 19 24  1  0  0  0
 20 21  2  0  0  0
 20104  1  0  0  0
 21 23  1  0  0  0
 22 28  1  0  0  0
 22 32  2  0  0  0
 26 27  1  0  0  0
 28105  1  0  0  0
 28106  1  0  0  0
 29107  1  0  0  0
 29108  1  0  0  0
 33 34  1  0  0  0
 33 66  1  0  0  0
 33 70  2  0  0  0
 34 36  1  0  0  0
 34 59  1  0  0  0
 34109  1  0  0  0
 35 44  2  0  0  0
 35 45  1  0  0  0
 35 68  1  0  0  0
 36 56  1  0  0  0
 36110  1  0  0  0
 37 39  1  0  0  0
 37 47  1  0  0  0
 37 66  1  0  0  0
 37111  1  0  0  0
 38 43  2  0  0  0
 38 46  1  0  0  0
 38 47  1  0  0  0
 39 64  1  0  0  0
 39 67  2  0  0  0
 40 52  1  0  0  0
 40 53  2  0  0  0
 40 58  1  0  0  0
 41112  1  0  0  0
 41113  1  0  0  0
 41114  1  0  0  0
 41 48  1  0  0  0
 42 43  1  0  0  0
 42 66  1  0  0  0
 42115  1  0  0  0
 42116  1  0  0  0
 43 44  1  0  0  0
 44117  1  0  0  0
 45 46  2  0  0  0
 45118  1  0  0  0
 46119  1  0  0  0
 47120  1  0  0  0
 47121  1  0  0  0
 48 56  1  0  0  0
 48 65  1  0  0  0
 48122  1  0  0  0
 49 50  1  0  0  0
 49 53  1  0  0  0
 49 64  1  0  0  0
 49123  1  0  0  0
 50 51  1  0  0  0
 50124  1  0  0  0
 50125  1  0  0  0
 51 52  1  0  0  0
 51126  1  0  0  0
 51127  1  0  0  0
 52128  1  0  0  0
 52129  1  0  0  0
 53 54  1  0  0  0
 54 55  2  0  0  0
 54130  1  0  0  0
 55 57  1  0  0  0
 55131  1  0  0  0
 56 69  2  0  0  0
 57 58  2  0  0  0
 57132  1  0  0  0
 58133  1  0  0  0
 59 60  1  0  0  0
 59 61  1  0  0  0
 59 62  1  0  0  0
 60134  1  0  0  0
 60135  1  0  0  0
 60136  1  0  0  0
 61137  1  0  0  0
 61138  1  0  0  0
 61139  1  0  0  0
 62140  1  0  0  0
 62141  1  0  0  0
 62142  1  0  0  0
 63 65  1  0  0  0
 63143  1  0  0  0
 63144  1  0  0  0
 63145  1  0  0  0
 64146  1  0  0  0
 65147  1  0  0  0
 68 84  1  0  0  0
 71 74  2  0  0  0
 71 75  1  0  0  0
 71148  1  0  0  0
 72 74  1  0  0  0
 72 76  2  0  0  0
 72149  1  0  0  0
 73 75  2  0  0  0
 73 76  1  0  0  0
 73150  1  0  0  0
 74 77  1  0  0  0
 75 86  1  0  0  0
 76 88  1  0  0  0
 77 85  1  0  0  0
 77 87  2  0  0  0
 78 79  1  0  0  0
 78 81  1  0  0  0
 78151  1  0  0  0
 78152  1  0  0  0
 79 85  1  0  0  0
 79153  1  0  0  0
 79154  1  0  0  0
 80 81  1  0  0  0
 80 85  1  0  0  0
 80155  1  0  0  0
 80156  1  0  0  0
 81 82  1  0  0  0
 81 84  1  0  0  0
 82157  1  0  0  0
 82158  1  0  0  0
 82159  1  0  0  0
 83 88  1  0  0  0
 83160  1  0  0  0
 83161  1  0  0  0
 83162  1  0  0  0
 84163  1  0  0  0
 84164  1  0  0  0
 86165  1  0  0  0
 87166  1  0  0  0
 87167  1  0  0  0
M  CHG  1  87   1
M  ISO  4   1 100  68 101  84 101  86 100
M  END
> <chiral flag>
0

> <version>
0

> <s_m_source_file>
/data/baiqing/PycharmProjects/Reinvent-master-3.2/result/LINK_invent/BTK/process_docking_weight1_custom_product_contain_oxygen_bond_distance_aromatic_linkinvent_7_9_3/rearranged_h_0138.sdf

> <i_m_source_file_index>
80

> <r_mmod_Potential_Energy-OPLS-2005>
-48.3317832946777

> <r_mmod_Stretch_Energy-OPLS-2005>
68.0989379882812

> <r_mmod_Bend_Energy-OPLS-2005>
167.836318969727

> <r_mmod_Torsional_Energy-OPLS-2005>
333.947021484375

> <r_mmod_Improper_Torsional_Energy-OPLS-2005>
6.89536666870117

> <r_mmod_Van_der_Waal_Energy-OPLS-2005>
151.596542358398

> <r_mmod_Electrostatic_Energy-OPLS-2005>
-402.761016845703

> <r_mmod_Solvation_Energy-OPLS-2005>
-409.008758544922

> <b_mmod_Minimization_Converged-OPLS-2005>
0

> <r_mmod_RMS_Derivative-OPLS-2005>
3.38687634468079

$$$$
80
                    3D
 Structure written by MMmdl.
171179  0  0  1  0            999 V2000
  -30.6583  -14.5357   20.5271 C   0  0  0  0  0  0
  -30.4277  -12.3291   19.4522 C   0  0  0  0  0  0
  -29.5044  -12.4988   18.2261 C   0  0  0  0  0  0
  -28.0230  -12.3590   18.6276 C   0  0  0  0  0  0
  -27.6564  -13.2048   19.8764 C   0  0  2  0  0  0
  -28.6951  -13.0176   21.0050 C   0  0  0  0  0  0
  -25.2568  -13.8147   20.5684 C   0  0  0  0  0  0
  -24.1797  -13.0433   20.9155 C   0  0  0  0  0  0
  -24.6353  -11.6884   20.8708 C   0  0  0  0  0  0
  -23.9032  -10.4281   21.0404 C   0  0  0  0  0  0
  -24.3590   -9.4190   21.9180 C   0  0  0  0  0  0
  -23.6264   -8.2229   22.0749 C   0  0  0  0  0  0
  -22.4238   -8.0284   21.3549 C   0  0  0  0  0  0
  -21.9876   -9.0249   20.4637 C   0  0  0  0  0  0
  -22.7210  -10.2123   20.3048 C   0  0  0  0  0  0
  -21.6829   -6.0735   22.5276 C   0  0  0  0  0  0
  -21.4004   -6.5623   23.8213 C   0  0  0  0  0  0
  -21.3670   -5.6774   24.9171 C   0  0  0  0  0  0
  -21.6052   -4.3043   24.7210 C   0  0  0  0  0  0
  -21.8814   -3.8141   23.4323 C   0  0  0  0  0  0
  -21.9183   -4.6968   22.3390 C   0  0  0  0  0  0
  -22.7838  -13.5254   21.1847 C   0  0  0  0  0  0
  -22.1652   -4.2155   21.0969 F   0  0  0  0  0  0
  -21.5643   -3.4524   25.7724 F   0  0  0  0  0  0
  -30.0270  -13.3288   20.4578 N   0  0  0  0  0  0
  -26.2984  -12.9293   20.3367 N   0  0  0  0  0  0
  -25.9284  -11.6457   20.5754 N   0  0  0  0  0  0
  -22.0469  -12.8251   22.0400 N   0  0  0  0  0  0
  -25.4344  -15.1866   20.4106 N   0  0  0  0  0  0
  -31.7870  -14.7214   20.0610 O   0  0  0  0  0  0
  -21.6613   -6.8873   21.4234 O   0  0  0  0  0  0
  -22.3543  -14.5588   20.6734 O   0  0  0  0  0  0
  -24.6174  -31.8654   23.2103 C   0  0  0  0  0  0
  -25.9057  -32.4819   23.8404 C   0  0  1  0  0  0
  -27.2231  -27.3874   20.1091 C   0  0  0  0  0  0
  -25.5901  -33.8606   24.2337 N   0  0  0  0  0  0
  -23.4067  -30.4913   21.5497 C   0  0  2  0  0  0
  -24.8522  -28.9570   20.1107 C   0  0  0  0  0  0
  -22.7433  -29.4656   22.4967 C   0  0  0  0  0  0
  -18.0284  -28.1373   22.8499 C   0  0  0  0  0  0
  -24.1474  -36.7291   23.2642 C   0  0  0  0  0  0
  -25.9403  -30.8182   21.3722 C   0  0  0  0  0  0
  -26.0141  -29.4496   20.7170 C   0  0  0  0  0  0
  -27.1989  -28.6702   20.7167 C   0  0  0  0  0  0
  -26.0456  -26.9369   19.4666 C   0  0  0  0  0  0
  -24.8657  -27.7016   19.4829 C   0  0  0  0  0  0
  -23.6162  -29.8266   20.1631 C   0  0  0  0  0  0
  -25.4093  -36.3098   24.0351 C   0  0  1  0  0  0
  -20.5880  -28.3658   23.1305 C   0  0  2  0  0  0
  -20.6764  -26.9387   22.5409 C   0  0  0  0  0  0
  -19.5733  -26.6380   21.5207 C   0  0  0  0  0  0
  -18.1917  -26.7931   22.1622 C   0  0  0  0  0  0
  -19.1536  -28.8830   23.2904 C   0  0  0  0  0  0
  -18.9462  -30.1445   23.8904 C   0  0  0  0  0  0
  -17.6459  -30.6584   24.0556 C   0  0  0  0  0  0
  -25.9015  -34.9470   23.5136 C   0  0  0  0  0  0
  -16.5350  -29.9071   23.6336 C   0  0  0  0  0  0
  -16.7277  -28.6487   23.0366 C   0  0  0  0  0  0
  -26.4477  -31.6607   25.0745 C   0  0  0  0  0  0
  -25.3743  -31.3717   26.1499 C   0  0  0  0  0  0
  -27.0312  -30.3048   24.6151 C   0  0  0  0  0  0
  -27.6064  -32.4323   25.7500 C   0  0  0  0  0  0
  -27.5573  -37.1797   24.8470 C   0  0  0  0  0  0
  -21.4153  -29.3030   22.3713 N   0  0  0  0  0  0
  -26.4285  -37.3781   23.9420 N   0  0  0  0  0  0
  -24.6727  -31.0741   22.1011 N   0  0  0  0  0  0
  -23.4197  -28.8174   23.2998 O   0  0  0  0  0  0
  -28.3758  -26.6125   20.1685 O   0  0  0  0  0  0
  -26.5580  -34.8922   22.4698 O   0  0  0  0  0  0
  -23.5362  -32.1424   23.7471 O   0  0  0  0  0  0
  -29.0979  -16.6708   18.9839 C   0  0  0  0  0  0
  -29.6507  -18.0613   20.9032 C   0  0  0  0  0  0
  -28.5862  -17.7990   18.3165 C   0  0  0  0  0  0
  -29.1706  -19.2300   20.2297 C   0  0  0  0  0  0
  -29.5998  -16.7700   20.2998 C   0  0  0  0  0  0
  -28.5686  -19.0615   18.9533 C   0  0  0  0  0  0
  -29.0676  -24.3360   20.9468 C   0  0  0  0  0  0
  -28.0395  -17.6435   16.9069 C   0  0  0  0  0  0
  -25.9425  -21.4251   18.0141 C   0  0  0  0  0  0
  -31.0697  -22.9528   21.6746 C   0  0  0  0  0  0
  -30.9612  -23.8433   19.3641 C   0  0  0  0  0  0
  -29.2805  -20.6274   20.9086 C   0  0  0  0  0  0
  -28.2882  -25.1823   19.9011 C   0  0  0  0  0  0
  -29.4718  -21.8821   19.9675 C   0  0  0  0  0  0
  -26.5429  -20.1570   18.6244 C   0  0  0  0  0  0
  -30.0993  -23.2357   20.5000 C   0  0  0  0  0  0
  -29.9300  -15.5653   21.0193 N   0  0  0  0  0  0
  -28.8629  -24.5433   22.1477 O   0  0  0  0  0  0
  -27.9346  -20.0993   18.3250 O   0  0  0  0  0  0
  -31.4733  -12.4294   19.1557 H   0  0  0  0  0  0
  -30.3373  -11.3251   19.8682 H   0  0  0  0  0  0
  -29.7563  -11.7628   17.4622 H   0  0  0  0  0  0
  -29.6701  -13.4751   17.7695 H   0  0  0  0  0  0
  -27.8298  -11.3034   18.8243 H   0  0  0  0  0  0
  -27.3823  -12.6317   17.7879 H   0  0  0  0  0  0
  -27.6859  -14.2468   19.5675 H   0  0  0  0  0  0
  -28.6751  -11.9900   21.3700 H   0  0  0  0  0  0
  -28.4422  -13.6368   21.8672 H   0  0  0  0  0  0
  -25.2742   -9.5673   22.4732 H   0  0  0  0  0  0
  -23.9982   -7.4620   22.7454 H   0  0  0  0  0  0
  -21.0817   -8.8775   19.8922 H   0  0  0  0  0  0
  -22.3687  -10.9664   19.6145 H   0  0  0  0  0  0
  -21.1983   -7.6129   23.9722 H   0  0  0  0  0  0
  -21.1511   -6.0499   25.9081 H   0  0  0  0  0  0
  -22.0582   -2.7602   23.2820 H   0  0  0  0  0  0
  -22.4032  -11.9878   22.4786 H   0  0  0  0  0  0
  -21.1121  -13.1337   22.2647 H   0  0  0  0  0  0
  -24.6786  -15.8538   20.5171 H   0  0  0  0  0  0
  -26.3036  -15.6170   20.1222 H   0  0  0  0  0  0
  -26.7127  -32.5515   23.1158 H   0  0  0  0  0  0
  -25.0078  -33.9760   25.0513 H   0  0  0  0  0  0
  -22.6967  -31.3088   21.4110 H   0  0  0  0  0  0
  -23.3744  -35.9614   23.3315 H   0  0  0  0  0  0
  -24.3575  -36.8884   22.2053 H   0  0  0  0  0  0
  -23.7222  -37.6500   23.6642 H   0  0  0  0  0  0
  -26.0648  -31.5857   20.6065 H   0  0  0  0  0  0
  -26.8239  -30.8672   21.9970 H   0  0  0  0  0  0
  -28.0883  -29.0399   21.2080 H   0  0  0  0  0  0
  -26.0084  -25.9968   18.9389 H   0  0  0  0  0  0
  -23.9757  -27.3214   19.0010 H   0  0  0  0  0  0
  -23.7265  -30.6006   19.4026 H   0  0  0  0  0  0
  -22.7394  -29.2466   19.8682 H   0  0  0  0  0  0
  -25.1270  -36.1959   25.0847 H   0  0  0  0  0  0
  -20.9994  -28.3216   24.1415 H   0  0  0  0  0  0
  -20.5649  -26.2256   23.3593 H   0  0  0  0  0  0
  -21.6635  -26.7405   22.1210 H   0  0  0  0  0  0
  -19.6869  -25.6288   21.1235 H   0  0  0  0  0  0
  -19.6668  -27.3188   20.6733 H   0  0  0  0  0  0
  -17.4186  -26.6716   21.4023 H   0  0  0  0  0  0
  -18.0288  -26.0071   22.9006 H   0  0  0  0  0  0
  -19.7930  -30.7276   24.2273 H   0  0  0  0  0  0
  -17.5003  -31.6277   24.5138 H   0  0  0  0  0  0
  -15.5345  -30.2959   23.7657 H   0  0  0  0  0  0
  -15.8687  -28.0793   22.7091 H   0  0  0  0  0  0
  -24.5911  -30.7065   25.7844 H   0  0  0  0  0  0
  -24.8935  -32.2868   26.4964 H   0  0  0  0  0  0
  -25.8102  -30.8882   27.0254 H   0  0  0  0  0  0
  -26.2866  -29.6811   24.1195 H   0  0  0  0  0  0
  -27.4061  -29.7290   25.4625 H   0  0  0  0  0  0
  -27.8708  -30.4372   23.9325 H   0  0  0  0  0  0
  -27.2717  -33.3630   26.2097 H   0  0  0  0  0  0
  -28.3858  -32.6874   25.0307 H   0  0  0  0  0  0
  -28.0752  -31.8434   26.5400 H   0  0  0  0  0  0
  -28.2601  -38.0081   24.7516 H   0  0  0  0  0  0
  -28.1059  -36.2622   24.6293 H   0  0  0  0  0  0
  -27.2307  -37.1454   25.8876 H   0  0  0  0  0  0
  -20.9300  -29.8767   21.6959 H   0  0  0  0  0  0
  -26.0175  -38.2861   24.1411 H   0  0  0  0  0  0
  -29.0552  -15.7125   18.4877 H   0  0  0  0  0  0
  -30.0469  -18.1546   21.9051 H   0  0  0  0  0  0
  -28.3689  -16.7107   16.4480 H   0  0  0  0  0  0
  -28.3846  -18.4618   16.2746 H   0  0  0  0  0  0
  -26.9505  -17.6500   16.9082 H   0  0  0  0  0  0
  -24.8679  -21.4661   18.1927 H   0  0  0  0  0  0
  -26.1000  -21.4536   16.9358 H   0  0  0  0  0  0
  -26.3838  -22.3234   18.4448 H   0  0  0  0  0  0
  -31.5916  -23.8580   21.9895 H   0  0  0  0  0  0
  -31.8314  -22.2229   21.3970 H   0  0  0  0  0  0
  -30.5483  -22.5658   22.5523 H   0  0  0  0  0  0
  -31.3134  -24.8470   19.6101 H   0  0  0  0  0  0
  -30.4162  -23.9070   18.4215 H   0  0  0  0  0  0
  -31.8452  -23.2352   19.1675 H   0  0  0  0  0  0
  -30.1319  -20.5455   21.5823 H   0  0  0  0  0  0
  -28.4091  -20.7770   21.5465 H   0  0  0  0  0  0
  -27.2661  -24.8167   19.9751 H   0  0  0  0  0  0
  -28.6252  -24.9822   18.8861 H   0  0  0  0  0  0
  -28.5200  -22.1213   19.4996 H   0  0  0  0  0  0
  -30.1041  -21.5393   19.1477 H   0  0  0  0  0  0
  -26.0297  -19.2836   18.2207 H   0  0  0  0  0  0
  -26.3814  -20.1502   19.7041 H   0  0  0  0  0  0
  -29.2027  -15.2576   21.6475 H   0  0  0  0  0  0
  1 25  1  0  0  0
  1 30  2  0  0  0
  1 87  1  0  0  0
  2  3  1  0  0  0
  2 25  1  0  0  0
  2 90  1  0  0  0
  2 91  1  0  0  0
  3  4  1  0  0  0
  3 92  1  0  0  0
  3 93  1  0  0  0
  4  5  1  0  0  0
  4 94  1  0  0  0
  4 95  1  0  0  0
  5  6  1  0  0  0
  5 26  1  0  0  0
  5 96  1  0  0  0
  6 25  1  0  0  0
  6 97  1  0  0  0
  6 98  1  0  0  0
  7  8  2  0  0  0
  7 26  1  0  0  0
  7 29  1  0  0  0
  8  9  1  0  0  0
  8 22  1  0  0  0
  9 10  1  0  0  0
  9 27  2  0  0  0
 10 11  2  0  0  0
 10 15  1  0  0  0
 11 12  1  0  0  0
 11 99  1  0  0  0
 12 13  2  0  0  0
 12100  1  0  0  0
 13 14  1  0  0  0
 13 31  1  0  0  0
 14 15  2  0  0  0
 14101  1  0  0  0
 15102  1  0  0  0
 16 17  2  0  0  0
 16 21  1  0  0  0
 16 31  1  0  0  0
 17 18  1  0  0  0
 17103  1  0  0  0
 18 19  2  0  0  0
 18104  1  0  0  0
 19 20  1  0  0  0
 19 24  1  0  0  0
 20 21  2  0  0  0
 20105  1  0  0  0
 21 23  1  0  0  0
 22 28  1  0  0  0
 22 32  2  0  0  0
 26 27  1  0  0  0
 28106  1  0  0  0
 28107  1  0  0  0
 29108  1  0  0  0
 29109  1  0  0  0
 33 34  1  0  0  0
 33 66  1  0  0  0
 33 70  2  0  0  0
 34 36  1  0  0  0
 34 59  1  0  0  0
 34110  1  0  0  0
 35 44  2  0  0  0
 35 45  1  0  0  0
 35 68  1  0  0  0
 36 56  1  0  0  0
 36111  1  0  0  0
 37 39  1  0  0  0
 37 47  1  0  0  0
 37 66  1  0  0  0
 37112  1  0  0  0
 38 43  2  0  0  0
 38 46  1  0  0  0
 38 47  1  0  0  0
 39 64  1  0  0  0
 39 67  2  0  0  0
 40 52  1  0  0  0
 40 53  2  0  0  0
 40 58  1  0  0  0
 41113  1  0  0  0
 41114  1  0  0  0
 41115  1  0  0  0
 41 48  1  0  0  0
 42 43  1  0  0  0
 42 66  1  0  0  0
 42116  1  0  0  0
 42117  1  0  0  0
 43 44  1  0  0  0
 44118  1  0  0  0
 45 46  2  0  0  0
 45119  1  0  0  0
 46120  1  0  0  0
 47121  1  0  0  0
 47122  1  0  0  0
 48 56  1  0  0  0
 48 65  1  0  0  0
 48123  1  0  0  0
 49 50  1  0  0  0
 49 53  1  0  0  0
 49 64  1  0  0  0
 49124  1  0  0  0
 50 51  1  0  0  0
 50125  1  0  0  0
 50126  1  0  0  0
 51 52  1  0  0  0
 51127  1  0  0  0
 51128  1  0  0  0
 52129  1  0  0  0
 52130  1  0  0  0
 53 54  1  0  0  0
 54 55  2  0  0  0
 54131  1  0  0  0
 55 57  1  0  0  0
 55132  1  0  0  0
 56 69  2  0  0  0
 57 58  2  0  0  0
 57133  1  0  0  0
 58134  1  0  0  0
 59 60  1  0  0  0
 59 61  1  0  0  0
 59 62  1  0  0  0
 60135  1  0  0  0
 60136  1  0  0  0
 60137  1  0  0  0
 61138  1  0  0  0
 61139  1  0  0  0
 61140  1  0  0  0
 62141  1  0  0  0
 62142  1  0  0  0
 62143  1  0  0  0
 63 65  1  0  0  0
 63144  1  0  0  0
 63145  1  0  0  0
 63146  1  0  0  0
 64147  1  0  0  0
 65148  1  0  0  0
 68 83  1  0  0  0
 71 73  2  0  0  0
 71 75  1  0  0  0
 71149  1  0  0  0
 72 74  1  0  0  0
 72 75  2  0  0  0
 72150  1  0  0  0
 73 76  1  0  0  0
 73 78  1  0  0  0
 74 76  2  0  0  0
 74 82  1  0  0  0
 75 87  1  0  0  0
 76 89  1  0  0  0
 77 83  1  0  0  0
 77 86  1  0  0  0
 77 88  2  0  0  0
 78151  1  0  0  0
 78152  1  0  0  0
 78153  1  0  0  0
 79 85  1  0  0  0
 79154  1  0  0  0
 79155  1  0  0  0
 79156  1  0  0  0
 80157  1  0  0  0
 80158  1  0  0  0
 80159  1  0  0  0
 80 86  1  0  0  0
 81 86  1  0  0  0
 81160  1  0  0  0
 81161  1  0  0  0
 81162  1  0  0  0
 82 84  1  0  0  0
 82163  1  0  0  0
 82164  1  0  0  0
 83165  1  0  0  0
 83166  1  0  0  0
 84 86  1  0  0  0
 84167  1  0  0  0
 84168  1  0  0  0
 85 89  1  0  0  0
 85169  1  0  0  0
 85170  1  0  0  0
 87171  1  0  0  0
M  ISO  4   1 100  68 101  83 101  87 100
M  END
> <chiral flag>
0

> <version>
0

> <s_m_source_file>
/data/baiqing/PycharmProjects/Reinvent-master-3.2/result/LINK_invent/BTK/process_docking_weight1_custom_product_contain_oxygen_bond_distance_aromatic_linkinvent_7_9_3/rearranged_h_0138.sdf

> <i_m_source_file_index>
81

> <r_mmod_Potential_Energy-OPLS-2005>
95.4513168334961

> <r_mmod_Stretch_Energy-OPLS-2005>
58.5041809082031

> <r_mmod_Bend_Energy-OPLS-2005>
121.341217041016

> <r_mmod_Torsional_Energy-OPLS-2005>
308.698791503906

> <r_mmod_Improper_Torsional_Energy-OPLS-2005>
6.21265983581543

> <r_mmod_Van_der_Waal_Energy-OPLS-2005>
153.65705871582

> <r_mmod_Electrostatic_Energy-OPLS-2005>
-356.060150146484

> <r_mmod_Solvation_Energy-OPLS-2005>
-220.383804321289

> <b_mmod_Minimization_Converged-OPLS-2005>
0

> <r_mmod_RMS_Derivative-OPLS-2005>
2.67606711387634

$$$$
81
                    3D
 Structure written by MMmdl.
158166  0  0  1  0            999 V2000
  -30.6565  -14.5290   20.5967 C   0  0  0  0  0  0
  -30.4353  -12.3387   19.4373 C   0  0  0  0  0  0
  -29.5022  -12.5039   18.2167 C   0  0  0  0  0  0
  -28.0238  -12.3479   18.6269 C   0  0  0  0  0  0
  -27.6599  -13.2010   19.8693 C   0  0  2  0  0  0
  -28.7000  -12.9999   20.9954 C   0  0  0  0  0  0
  -25.2616  -13.8145   20.5691 C   0  0  0  0  0  0
  -24.1866  -13.0438   20.9205 C   0  0  0  0  0  0
  -24.6402  -11.6896   20.8765 C   0  0  0  0  0  0
  -23.9069  -10.4285   21.0431 C   0  0  0  0  0  0
  -24.3620   -9.4196   21.9202 C   0  0  0  0  0  0
  -23.6292   -8.2238   22.0764 C   0  0  0  0  0  0
  -22.4273   -8.0294   21.3559 C   0  0  0  0  0  0
  -21.9908   -9.0272   20.4662 C   0  0  0  0  0  0
  -22.7248  -10.2145   20.3071 C   0  0  0  0  0  0
  -21.6836   -6.0757   22.5300 C   0  0  0  0  0  0
  -21.4010   -6.5657   23.8238 C   0  0  0  0  0  0
  -21.3655   -5.6803   24.9195 C   0  0  0  0  0  0
  -21.6032   -4.3068   24.7233 C   0  0  0  0  0  0
  -21.8813   -3.8168   23.4351 C   0  0  0  0  0  0
  -21.9185   -4.6988   22.3415 C   0  0  0  0  0  0
  -22.7894  -13.5255   21.1847 C   0  0  0  0  0  0
  -22.1662   -4.2184   21.0987 F   0  0  0  0  0  0
  -21.5609   -3.4544   25.7734 F   0  0  0  0  0  0
  -30.0281  -13.3249   20.4540 N   0  0  0  0  0  0
  -26.3019  -12.9297   20.3327 N   0  0  0  0  0  0
  -25.9313  -11.6464   20.5761 N   0  0  0  0  0  0
  -22.0513  -12.8277   22.0404 N   0  0  0  0  0  0
  -25.4358  -15.1855   20.4104 N   0  0  0  0  0  0
  -31.7718  -14.7123   20.0941 O   0  0  0  0  0  0
  -21.6628   -6.8903   21.4261 O   0  0  0  0  0  0
  -22.3610  -14.5579   20.6700 O   0  0  0  0  0  0
  -24.6180  -31.8660   23.2071 C   0  0  0  0  0  0
  -25.9072  -32.4806   23.8376 C   0  0  1  0  0  0
  -27.2418  -27.4131   20.1122 C   0  0  0  0  0  0
  -25.5923  -33.8607   24.2317 N   0  0  0  0  0  0
  -23.4078  -30.4866   21.5469 C   0  0  2  0  0  0
  -24.8584  -28.9432   20.1207 C   0  0  0  0  0  0
  -22.7422  -29.4657   22.4980 C   0  0  0  0  0  0
  -18.0283  -28.1391   22.8486 C   0  0  0  0  0  0
  -24.1473  -36.7323   23.2638 C   0  0  0  0  0  0
  -25.9385  -30.8240   21.3672 C   0  0  0  0  0  0
  -26.0177  -29.4531   20.7225 C   0  0  0  0  0  0
  -27.2131  -28.6929   20.7195 C   0  0  0  0  0  0
  -26.0725  -26.9245   19.4990 C   0  0  0  0  0  0
  -24.8815  -27.6779   19.5075 C   0  0  0  0  0  0
  -23.6171  -29.8088   20.1660 C   0  0  0  0  0  0
  -25.4093  -36.3094   24.0324 C   0  0  1  0  0  0
  -20.5868  -28.3670   23.1312 C   0  0  2  0  0  0
  -20.6751  -26.9400   22.5416 C   0  0  0  0  0  0
  -19.5734  -26.6392   21.5207 C   0  0  0  0  0  0
  -18.1917  -26.7940   22.1627 C   0  0  0  0  0  0
  -19.1525  -28.8857   23.2897 C   0  0  0  0  0  0
  -18.9456  -30.1457   23.8912 C   0  0  0  0  0  0
  -17.6451  -30.6583   24.0581 C   0  0  0  0  0  0
  -25.9017  -34.9464   23.5112 C   0  0  0  0  0  0
  -16.5347  -29.9086   23.6334 C   0  0  0  0  0  0
  -16.7271  -28.6516   23.0341 C   0  0  0  0  0  0
  -26.4496  -31.6560   25.0689 C   0  0  0  0  0  0
  -25.3751  -31.3636   26.1415 C   0  0  0  0  0  0
  -27.0365  -30.3016   24.6065 C   0  0  0  0  0  0
  -27.6059  -32.4294   25.7466 C   0  0  0  0  0  0
  -27.5563  -37.1779   24.8439 C   0  0  0  0  0  0
  -21.4147  -29.3031   22.3706 N   0  0  0  0  0  0
  -26.4277  -37.3786   23.9400 N   0  0  0  0  0  0
  -24.6723  -31.0738   22.0981 N   0  0  0  0  0  0
  -23.4183  -28.8211   23.3042 O   0  0  0  0  0  0
  -28.3860  -26.6423   20.0620 O   0  0  0  0  0  0
  -26.5552  -34.8924   22.4659 O   0  0  0  0  0  0
  -23.5370  -32.1411   23.7466 O   0  0  0  0  0  0
  -27.3591  -19.4152   21.2048 C   0  0  0  0  0  0
  -27.9231  -20.6989   21.0809 C   0  0  0  0  0  0
  -28.1773  -18.2690   21.2794 C   0  0  0  0  0  0
  -30.1286  -19.6867   21.0719 C   0  0  0  0  0  0
  -29.3209  -20.8655   21.0242 C   0  0  0  0  0  0
  -29.5885  -18.3672   21.2019 C   0  0  0  0  0  0
  -31.1008  -22.4863   21.5654 C   0  0  0  0  0  0
  -29.9095  -22.2463   20.9884 C   0  0  0  0  0  0
  -30.4889  -17.1450   21.3249 C   0  0  0  0  0  0
  -29.1962  -23.3974   20.2431 C   0  0  0  0  0  0
  -29.8763  -15.7061   21.2909 C   0  0  0  0  0  0
  -28.2724  -24.3132   21.1064 C   0  0  0  0  0  0
  -28.6541  -25.8250   21.2181 C   0  0  0  0  0  0
  -31.7291  -17.3003   21.5433 N   0  0  0  0  0  0
  -31.4778  -12.4511   19.1371 H   0  0  0  0  0  0
  -30.3560  -11.3298   19.8451 H   0  0  0  0  0  0
  -29.7535  -11.7686   17.4516 H   0  0  0  0  0  0
  -29.6580  -13.4844   17.7631 H   0  0  0  0  0  0
  -27.8491  -11.2934   18.8429 H   0  0  0  0  0  0
  -27.3709  -12.6004   17.7911 H   0  0  0  0  0  0
  -27.6966  -14.2419   19.5530 H   0  0  0  0  0  0
  -28.6872  -11.9657   21.3414 H   0  0  0  0  0  0
  -28.4412  -13.5951   21.8711 H   0  0  0  0  0  0
  -25.2762   -9.5660   22.4797 H   0  0  0  0  0  0
  -24.0001   -7.4608   22.7467 H   0  0  0  0  0  0
  -21.0841   -8.8802   19.8957 H   0  0  0  0  0  0
  -22.3723  -10.9698   19.6196 H   0  0  0  0  0  0
  -21.2018   -7.6167   23.9764 H   0  0  0  0  0  0
  -21.1470   -6.0525   25.9101 H   0  0  0  0  0  0
  -22.0588   -2.7632   23.2837 H   0  0  0  0  0  0
  -22.4081  -11.9931   22.4804 H   0  0  0  0  0  0
  -21.1140  -13.1363   22.2596 H   0  0  0  0  0  0
  -24.6647  -15.8363   20.5094 H   0  0  0  0  0  0
  -26.2742  -15.6155   20.0432 H   0  0  0  0  0  0
  -26.7136  -32.5518   23.1135 H   0  0  0  0  0  0
  -25.0132  -33.9774   25.0495 H   0  0  0  0  0  0
  -22.6990  -31.3048   21.4021 H   0  0  0  0  0  0
  -23.3708  -35.9680   23.3307 H   0  0  0  0  0  0
  -24.3554  -36.8947   22.2044 H   0  0  0  0  0  0
  -23.7255  -37.6539   23.6671 H   0  0  0  0  0  0
  -26.0568  -31.5883   20.5980 H   0  0  0  0  0  0
  -26.8251  -30.8777   21.9873 H   0  0  0  0  0  0
  -28.1097  -29.0856   21.1787 H   0  0  0  0  0  0
  -26.0853  -25.9566   19.0185 H   0  0  0  0  0  0
  -23.9917  -27.2787   19.0395 H   0  0  0  0  0  0
  -23.7189  -30.5756   19.3971 H   0  0  0  0  0  0
  -22.7429  -29.2211   19.8768 H   0  0  0  0  0  0
  -25.1268  -36.1967   25.0815 H   0  0  0  0  0  0
  -20.9984  -28.3238   24.1429 H   0  0  0  0  0  0
  -20.5630  -26.2282   23.3609 H   0  0  0  0  0  0
  -21.6623  -26.7423   22.1224 H   0  0  0  0  0  0
  -19.6887  -25.6308   21.1231 H   0  0  0  0  0  0
  -19.6667  -27.3211   20.6745 H   0  0  0  0  0  0
  -17.4178  -26.6696   21.4030 H   0  0  0  0  0  0
  -18.0324  -26.0074   22.9024 H   0  0  0  0  0  0
  -19.7926  -30.7272   24.2273 H   0  0  0  0  0  0
  -17.5011  -31.6262   24.5180 H   0  0  0  0  0  0
  -15.5348  -30.2998   23.7653 H   0  0  0  0  0  0
  -15.8677  -28.0852   22.7033 H   0  0  0  0  0  0
  -24.5931  -30.6993   25.7707 H   0  0  0  0  0  0
  -24.8960  -32.2784   26.4925 H   0  0  0  0  0  0
  -25.8111  -30.8743   27.0129 H   0  0  0  0  0  0
  -26.2914  -29.6789   24.1083 H   0  0  0  0  0  0
  -27.4098  -29.7222   25.4530 H   0  0  0  0  0  0
  -27.8782  -30.4318   23.9247 H   0  0  0  0  0  0
  -27.2676  -33.3583   26.2068 H   0  0  0  0  0  0
  -28.3882  -32.6879   25.0312 H   0  0  0  0  0  0
  -28.0735  -31.8400   26.5370 H   0  0  0  0  0  0
  -28.2573  -38.0079   24.7491 H   0  0  0  0  0  0
  -28.1050  -36.2602   24.6247 H   0  0  0  0  0  0
  -27.2290  -37.1422   25.8844 H   0  0  0  0  0  0
  -20.9325  -29.8732   21.6897 H   0  0  0  0  0  0
  -26.0150  -38.2864   24.1382 H   0  0  0  0  0  0
  -26.2849  -19.3114   21.2702 H   0  0  0  0  0  0
  -27.2701  -21.5593   21.0585 H   0  0  0  0  0  0
  -27.6817  -17.3202   21.4246 H   0  0  0  0  0  0
  -31.2001  -19.8043   21.0140 H   0  0  0  0  0  0
  -31.6507  -21.7196   22.0911 H   0  0  0  0  0  0
  -31.5529  -23.4676   21.5295 H   0  0  0  0  0  0
  -28.6592  -22.9963   19.3826 H   0  0  0  0  0  0
  -29.9706  -24.0352   19.8113 H   0  0  0  0  0  0
  -28.9219  -15.7523   20.7742 H   0  0  0  0  0  0
  -29.6641  -15.4190   22.3201 H   0  0  0  0  0  0
  -28.2508  -23.9110   22.1200 H   0  0  0  0  0  0
  -27.2447  -24.2338   20.7532 H   0  0  0  0  0  0
  -29.7150  -25.9106   21.4562 H   0  0  0  0  0  0
  -28.1357  -26.2438   22.0826 H   0  0  0  0  0  0
  -31.9793  -18.2813   21.5806 H   0  0  0  0  0  0
  1 25  1  0  0  0
  1 30  2  0  0  0
  1 81  1  0  0  0
  2  3  1  0  0  0
  2 25  1  0  0  0
  2 85  1  0  0  0
  2 86  1  0  0  0
  3  4  1  0  0  0
  3 87  1  0  0  0
  3 88  1  0  0  0
  4  5  1  0  0  0
  4 89  1  0  0  0
  4 90  1  0  0  0
  5  6  1  0  0  0
  5 26  1  0  0  0
  5 91  1  0  0  0
  6 25  1  0  0  0
  6 92  1  0  0  0
  6 93  1  0  0  0
  7  8  2  0  0  0
  7 26  1  0  0  0
  7 29  1  0  0  0
  8  9  1  0  0  0
  8 22  1  0  0  0
  9 10  1  0  0  0
  9 27  2  0  0  0
 10 11  2  0  0  0
 10 15  1  0  0  0
 11 12  1  0  0  0
 11 94  1  0  0  0
 12 13  2  0  0  0
 12 95  1  0  0  0
 13 14  1  0  0  0
 13 31  1  0  0  0
 14 15  2  0  0  0
 14 96  1  0  0  0
 15 97  1  0  0  0
 16 17  2  0  0  0
 16 21  1  0  0  0
 16 31  1  0  0  0
 17 18  1  0  0  0
 17 98  1  0  0  0
 18 19  2  0  0  0
 18 99  1  0  0  0
 19 20  1  0  0  0
 19 24  1  0  0  0
 20 21  2  0  0  0
 20100  1  0  0  0
 21 23  1  0  0  0
 22 28  1  0  0  0
 22 32  2  0  0  0
 26 27  1  0  0  0
 28101  1  0  0  0
 28102  1  0  0  0
 29103  1  0  0  0
 29104  1  0  0  0
 33 34  1  0  0  0
 33 66  1  0  0  0
 33 70  2  0  0  0
 34 36  1  0  0  0
 34 59  1  0  0  0
 34105  1  0  0  0
 35 44  2  0  0  0
 35 45  1  0  0  0
 35 68  1  0  0  0
 36 56  1  0  0  0
 36106  1  0  0  0
 37 39  1  0  0  0
 37 47  1  0  0  0
 37 66  1  0  0  0
 37107  1  0  0  0
 38 43  2  0  0  0
 38 46  1  0  0  0
 38 47  1  0  0  0
 39 64  1  0  0  0
 39 67  2  0  0  0
 40 52  1  0  0  0
 40 53  2  0  0  0
 40 58  1  0  0  0
 41108  1  0  0  0
 41109  1  0  0  0
 41110  1  0  0  0
 41 48  1  0  0  0
 42 43  1  0  0  0
 42 66  1  0  0  0
 42111  1  0  0  0
 42112  1  0  0  0
 43 44  1  0  0  0
 44113  1  0  0  0
 45 46  2  0  0  0
 45114  1  0  0  0
 46115  1  0  0  0
 47116  1  0  0  0
 47117  1  0  0  0
 48 56  1  0  0  0
 48 65  1  0  0  0
 48118  1  0  0  0
 49 50  1  0  0  0
 49 53  1  0  0  0
 49 64  1  0  0  0
 49119  1  0  0  0
 50 51  1  0  0  0
 50120  1  0  0  0
 50121  1  0  0  0
 51 52  1  0  0  0
 51122  1  0  0  0
 51123  1  0  0  0
 52124  1  0  0  0
 52125  1  0  0  0
 53 54  1  0  0  0
 54 55  2  0  0  0
 54126  1  0  0  0
 55 57  1  0  0  0
 55127  1  0  0  0
 56 69  2  0  0  0
 57 58  2  0  0  0
 57128  1  0  0  0
 58129  1  0  0  0
 59 60  1  0  0  0
 59 61  1  0  0  0
 59 62  1  0  0  0
 60130  1  0  0  0
 60131  1  0  0  0
 60132  1  0  0  0
 61133  1  0  0  0
 61134  1  0  0  0
 61135  1  0  0  0
 62136  1  0  0  0
 62137  1  0  0  0
 62138  1  0  0  0
 63 65  1  0  0  0
 63139  1  0  0  0
 63140  1  0  0  0
 63141  1  0  0  0
 64142  1  0  0  0
 65143  1  0  0  0
 68 83  1  0  0  0
 71 72  2  0  0  0
 71 73  1  0  0  0
 71144  1  0  0  0
 72 75  1  0  0  0
 72145  1  0  0  0
 73 76  2  0  0  0
 73146  1  0  0  0
 74 75  2  0  0  0
 74 76  1  0  0  0
 74147  1  0  0  0
 75 78  1  0  0  0
 76 79  1  0  0  0
 77 78  2  0  0  0
 77148  1  0  0  0
 77149  1  0  0  0
 78 80  1  0  0  0
 79 81  1  0  0  0
 79 84  2  0  0  0
 80 82  1  0  0  0
 80150  1  0  0  0
 80151  1  0  0  0
 81152  1  0  0  0
 81153  1  0  0  0
 82 83  1  0  0  0
 82154  1  0  0  0
 82155  1  0  0  0
 83156  1  0  0  0
 83157  1  0  0  0
 84158  1  0  0  0
M  ISO  4   1 100  68 101  81 100  83 101
M  END
> <chiral flag>
0

> <version>
0

> <s_m_source_file>
/data/baiqing/PycharmProjects/Reinvent-master-3.2/result/LINK_invent/BTK/process_docking_weight1_custom_product_contain_oxygen_bond_distance_aromatic_linkinvent_7_9_3/rearranged_h_0138.sdf

> <i_m_source_file_index>
82

> <r_mmod_Potential_Energy-OPLS-2005>
37.2838668823242

> <r_mmod_Stretch_Energy-OPLS-2005>
54.7173538208008

> <r_mmod_Bend_Energy-OPLS-2005>
113.243606567383

> <r_mmod_Torsional_Energy-OPLS-2005>
214.80290222168

> <r_mmod_Improper_Torsional_Energy-OPLS-2005>
4.13000059127808

> <r_mmod_Van_der_Waal_Energy-OPLS-2005>
152.453979492188

> <r_mmod_Electrostatic_Energy-OPLS-2005>
-305.359130859375

> <r_mmod_Solvation_Energy-OPLS-2005>
-213.589157104492

> <b_mmod_Minimization_Converged-OPLS-2005>
0

> <r_mmod_RMS_Derivative-OPLS-2005>
2.53056383132935

$$$$
82
                    3D
 Structure written by MMmdl.
162171  0  0  1  0            999 V2000
  -30.6177  -14.7216   20.4408 C   0  0  0  0  0  0
  -30.4313  -12.4351   19.4554 C   0  0  0  0  0  0
  -29.5012  -12.4842   18.2244 C   0  0  0  0  0  0
  -28.0304  -12.3135   18.6499 C   0  0  0  0  0  0
  -27.6409  -13.2224   19.8453 C   0  0  2  0  0  0
  -28.6914  -13.1603   20.9761 C   0  0  0  0  0  0
  -25.2519  -13.8175   20.5668 C   0  0  0  0  0  0
  -24.1820  -13.0442   20.9212 C   0  0  0  0  0  0
  -24.6395  -11.6911   20.8766 C   0  0  0  0  0  0
  -23.9060  -10.4287   21.0416 C   0  0  0  0  0  0
  -24.3619   -9.4204   21.9187 C   0  0  0  0  0  0
  -23.6295   -8.2234   22.0751 C   0  0  0  0  0  0
  -22.4273   -8.0274   21.3531 C   0  0  0  0  0  0
  -21.9912   -9.0250   20.4627 C   0  0  0  0  0  0
  -22.7242  -10.2133   20.3051 C   0  0  0  0  0  0
  -21.6852   -6.0732   22.5271 C   0  0  0  0  0  0
  -21.4018   -6.5637   23.8200 C   0  0  0  0  0  0
  -21.3666   -5.6793   24.9165 C   0  0  0  0  0  0
  -21.6032   -4.3047   24.7215 C   0  0  0  0  0  0
  -21.8828   -3.8147   23.4336 C   0  0  0  0  0  0
  -21.9195   -4.6962   22.3400 C   0  0  0  0  0  0
  -22.7841  -13.5216   21.1877 C   0  0  0  0  0  0
  -22.1660   -4.2147   21.0973 F   0  0  0  0  0  0
  -21.5630   -3.4538   25.7732 F   0  0  0  0  0  0
  -29.9903  -13.5006   20.3818 N   0  0  0  0  0  0
  -26.2942  -12.9362   20.3288 N   0  0  0  0  0  0
  -25.9322  -11.6515   20.5786 N   0  0  0  0  0  0
  -22.0495  -12.8190   22.0412 N   0  0  0  0  0  0
  -25.4201  -15.1912   20.4034 N   0  0  0  0  0  0
  -31.8209  -14.8071   20.1776 O   0  0  0  0  0  0
  -21.6640   -6.8886   21.4227 O   0  0  0  0  0  0
  -22.3509  -14.5520   20.6732 O   0  0  0  0  0  0
  -24.6290  -31.8543   23.1973 C   0  0  0  0  0  0
  -25.9123  -32.4741   23.8326 C   0  0  1  0  0  0
  -27.2113  -27.2678   20.1580 C   0  0  0  0  0  0
  -25.5920  -33.8538   24.2237 N   0  0  0  0  0  0
  -23.4276  -30.4772   21.5372 C   0  0  2  0  0  0
  -24.8772  -28.9276   20.1104 C   0  0  0  0  0  0
  -22.7481  -29.4591   22.4867 C   0  0  0  0  0  0
  -18.0283  -28.1390   22.8465 C   0  0  0  0  0  0
  -24.1519  -36.7276   23.2644 C   0  0  0  0  0  0
  -25.9698  -30.7745   21.3765 C   0  0  0  0  0  0
  -26.0494  -29.3980   20.7203 C   0  0  0  0  0  0
  -27.2228  -28.5801   20.7342 C   0  0  0  0  0  0
  -26.0252  -26.8606   19.5145 C   0  0  0  0  0  0
  -24.8683  -27.6623   19.5031 C   0  0  0  0  0  0
  -23.6487  -29.8138   20.1545 C   0  0  0  0  0  0
  -25.4141  -36.3045   24.0316 C   0  0  1  0  0  0
  -20.5882  -28.3700   23.1256 C   0  0  2  0  0  0
  -20.6789  -26.9416   22.5407 C   0  0  0  0  0  0
  -19.5770  -26.6389   21.5209 C   0  0  0  0  0  0
  -18.1930  -26.7939   22.1606 C   0  0  0  0  0  0
  -19.1529  -28.8857   23.2850 C   0  0  0  0  0  0
  -18.9479  -30.1453   23.8885 C   0  0  0  0  0  0
  -17.6489  -30.6595   24.0567 C   0  0  0  0  0  0
  -25.9077  -34.9417   23.5078 C   0  0  0  0  0  0
  -16.5367  -29.9108   23.6346 C   0  0  0  0  0  0
  -16.7271  -28.6516   23.0358 C   0  0  0  0  0  0
  -26.4503  -31.6576   25.0712 C   0  0  0  0  0  0
  -25.3721  -31.3742   26.1425 C   0  0  0  0  0  0
  -27.0381  -30.2987   24.6231 C   0  0  0  0  0  0
  -27.6047  -32.4337   25.7483 C   0  0  0  0  0  0
  -27.5587  -37.1777   24.8450 C   0  0  0  0  0  0
  -21.4183  -29.3032   22.3611 N   0  0  0  0  0  0
  -26.4310  -37.3748   23.9386 N   0  0  0  0  0  0
  -24.6936  -31.0533   22.0947 N   0  0  0  0  0  0
  -23.4157  -28.8126   23.2972 O   0  0  0  0  0  0
  -28.2751  -26.3484   20.2106 O   0  0  0  0  0  0
  -26.5660  -34.8890   22.4659 O   0  0  0  0  0  0
  -23.5441  -32.1347   23.7286 O   0  0  0  0  0  0
  -31.6526  -19.0525   21.4652 C   0  0  0  0  0  0
  -30.7968  -20.0829   21.0176 C   0  0  0  0  0  0
  -31.3428  -17.6901   21.2656 C   0  0  0  0  0  0
  -29.3028  -18.3762   20.1436 C   0  0  0  0  0  0
  -29.6015  -19.7912   20.3243 C   0  0  0  0  0  0
  -30.1544  -17.2934   20.6135 C   0  0  0  0  0  0
  -28.7740  -20.9692   19.7425 C   0  0  0  0  0  0
  -28.6078  -23.6765   20.1980 C   0  0  0  0  0  0
  -26.6334  -22.0911   20.8145 C   0  0  0  0  0  0
  -28.1409  -22.1819   20.5985 C   0  0  1  0  0  0
  -27.5381  -21.8571   21.9976 C   0  0  0  0  0  0
  -27.5426  -22.8592   23.1512 C   0  0  0  0  0  0
  -27.5435  -20.4355   22.5678 C   0  0  0  0  0  0
  -27.9551  -25.0091   20.8131 C   0  0  0  0  0  0
  -28.4817  -20.9194   18.5089 N   0  0  0  0  0  0
  -29.8161  -15.8522   20.5137 N   0  0  0  0  0  0
  -29.5282  -23.8394   19.3893 O   0  0  0  0  0  0
  -31.4704  -12.5567   19.1467 H   0  0  0  0  0  0
  -30.3736  -11.4607   19.9418 H   0  0  0  0  0  0
  -29.7723  -11.7033   17.5123 H   0  0  0  0  0  0
  -29.6239  -13.4338   17.7022 H   0  0  0  0  0  0
  -27.8933  -11.2671   18.9276 H   0  0  0  0  0  0
  -27.3635  -12.4891   17.8054 H   0  0  0  0  0  0
  -27.6339  -14.2399   19.4546 H   0  0  0  0  0  0
  -28.7259  -12.1674   21.4290 H   0  0  0  0  0  0
  -28.4393  -13.8572   21.7779 H   0  0  0  0  0  0
  -25.2766   -9.5680   22.4757 H   0  0  0  0  0  0
  -23.9999   -7.4633   22.7478 H   0  0  0  0  0  0
  -21.0846   -8.8771   19.8940 H   0  0  0  0  0  0
  -22.3703  -10.9672   19.6159 H   0  0  0  0  0  0
  -21.2021   -7.6145   23.9704 H   0  0  0  0  0  0
  -21.1470   -6.0520   25.9065 H   0  0  0  0  0  0
  -22.0608   -2.7606   23.2838 H   0  0  0  0  0  0
  -22.4128  -11.9835   22.4758 H   0  0  0  0  0  0
  -21.1116  -13.1191   22.2658 H   0  0  0  0  0  0
  -24.6451  -15.8388   20.4974 H   0  0  0  0  0  0
  -26.2518  -15.6251   20.0248 H   0  0  0  0  0  0
  -26.7176  -32.5406   23.1067 H   0  0  0  0  0  0
  -25.0018  -33.9683   25.0342 H   0  0  0  0  0  0
  -22.7246  -31.2985   21.3901 H   0  0  0  0  0  0
  -23.3777  -35.9614   23.3300 H   0  0  0  0  0  0
  -24.3604  -36.8936   22.2058 H   0  0  0  0  0  0
  -23.7279  -37.6481   23.6691 H   0  0  0  0  0  0
  -26.1070  -31.5408   20.6123 H   0  0  0  0  0  0
  -26.8441  -30.8224   22.0142 H   0  0  0  0  0  0
  -28.1140  -28.9258   21.2422 H   0  0  0  0  0  0
  -25.9798  -25.8856   19.0466 H   0  0  0  0  0  0
  -23.9694  -27.2869   19.0347 H   0  0  0  0  0  0
  -23.7693  -30.5897   19.3960 H   0  0  0  0  0  0
  -22.7684  -29.2472   19.8520 H   0  0  0  0  0  0
  -25.1320  -36.1914   25.0811 H   0  0  0  0  0  0
  -20.9978  -28.3328   24.1379 H   0  0  0  0  0  0
  -20.5766  -26.2288   23.3605 H   0  0  0  0  0  0
  -21.6648  -26.7500   22.1160 H   0  0  0  0  0  0
  -19.6974  -25.6310   21.1238 H   0  0  0  0  0  0
  -19.6758  -27.3196   20.6746 H   0  0  0  0  0  0
  -17.4212  -26.6665   21.3994 H   0  0  0  0  0  0
  -18.0325  -26.0089   22.9013 H   0  0  0  0  0  0
  -19.7974  -30.7223   24.2282 H   0  0  0  0  0  0
  -17.5071  -31.6295   24.5140 H   0  0  0  0  0  0
  -15.5372  -30.3017   23.7705 H   0  0  0  0  0  0
  -15.8650  -28.0851   22.7104 H   0  0  0  0  0  0
  -24.5884  -30.7117   25.7732 H   0  0  0  0  0  0
  -24.8920  -32.2926   26.4821 H   0  0  0  0  0  0
  -25.8003  -30.8920   27.0221 H   0  0  0  0  0  0
  -26.2989  -29.6670   24.1281 H   0  0  0  0  0  0
  -27.4085  -29.7305   25.4778 H   0  0  0  0  0  0
  -27.8852  -30.4239   23.9475 H   0  0  0  0  0  0
  -27.2657  -33.3662   26.2006 H   0  0  0  0  0  0
  -28.3878  -32.6864   25.0322 H   0  0  0  0  0  0
  -28.0683  -31.8494   26.5444 H   0  0  0  0  0  0
  -28.2563  -38.0108   24.7508 H   0  0  0  0  0  0
  -28.1125  -36.2621   24.6289 H   0  0  0  0  0  0
  -27.2268  -37.1425   25.8844 H   0  0  0  0  0  0
  -20.9346  -29.8757   21.6833 H   0  0  0  0  0  0
  -26.0199  -38.2828   24.1417 H   0  0  0  0  0  0
  -32.5728  -19.3090   21.9736 H   0  0  0  0  0  0
  -31.0839  -21.1124   21.1839 H   0  0  0  0  0  0
  -32.0322  -16.9504   21.6476 H   0  0  0  0  0  0
  -28.3920  -18.1218   19.6200 H   0  0  0  0  0  0
  -26.1238  -21.2307   20.3828 H   0  0  0  0  0  0
  -26.0180  -22.9867   20.8225 H   0  0  0  0  0  0
  -26.8457  -23.6780   22.9702 H   0  0  0  0  0  0
  -28.5431  -23.2608   23.3098 H   0  0  0  0  0  0
  -27.2294  -22.3945   24.0872 H   0  0  0  0  0  0
  -28.5298  -20.1695   22.9514 H   0  0  0  0  0  0
  -27.2660  -19.7072   21.8045 H   0  0  0  0  0  0
  -26.8169  -20.3197   23.3715 H   0  0  0  0  0  0
  -28.3154  -25.0683   21.8393 H   0  0  0  0  0  0
  -26.8794  -24.8797   20.8998 H   0  0  0  0  0  0
  -28.8965  -20.1115   18.0592 H   0  0  0  0  0  0
  -28.8296  -15.6470   20.4983 H   0  0  0  0  0  0
  1 25  1  0  0  0
  1 30  2  0  0  0
  1 86  1  0  0  0
  2  3  1  0  0  0
  2 25  1  0  0  0
  2 88  1  0  0  0
  2 89  1  0  0  0
  3  4  1  0  0  0
  3 90  1  0  0  0
  3 91  1  0  0  0
  4  5  1  0  0  0
  4 92  1  0  0  0
  4 93  1  0  0  0
  5  6  1  0  0  0
  5 26  1  0  0  0
  5 94  1  0  0  0
  6 25  1  0  0  0
  6 95  1  0  0  0
  6 96  1  0  0  0
  7  8  2  0  0  0
  7 26  1  0  0  0
  7 29  1  0  0  0
  8  9  1  0  0  0
  8 22  1  0  0  0
  9 10  1  0  0  0
  9 27  2  0  0  0
 10 11  2  0  0  0
 10 15  1  0  0  0
 11 12  1  0  0  0
 11 97  1  0  0  0
 12 13  2  0  0  0
 12 98  1  0  0  0
 13 14  1  0  0  0
 13 31  1  0  0  0
 14 15  2  0  0  0
 14 99  1  0  0  0
 15100  1  0  0  0
 16 17  2  0  0  0
 16 21  1  0  0  0
 16 31  1  0  0  0
 17 18  1  0  0  0
 17101  1  0  0  0
 18 19  2  0  0  0
 18102  1  0  0  0
 19 20  1  0  0  0
 19 24  1  0  0  0
 20 21  2  0  0  0
 20103  1  0  0  0
 21 23  1  0  0  0
 22 28  1  0  0  0
 22 32  2  0  0  0
 26 27  1  0  0  0
 28104  1  0  0  0
 28105  1  0  0  0
 29106  1  0  0  0
 29107  1  0  0  0
 33 34  1  0  0  0
 33 66  1  0  0  0
 33 70  2  0  0  0
 34 36  1  0  0  0
 34 59  1  0  0  0
 34108  1  0  0  0
 35 44  2  0  0  0
 35 45  1  0  0  0
 35 68  1  0  0  0
 36 56  1  0  0  0
 36109  1  0  0  0
 37 39  1  0  0  0
 37 47  1  0  0  0
 37 66  1  0  0  0
 37110  1  0  0  0
 38 43  2  0  0  0
 38 46  1  0  0  0
 38 47  1  0  0  0
 39 64  1  0  0  0
 39 67  2  0  0  0
 40 52  1  0  0  0
 40 53  2  0  0  0
 40 58  1  0  0  0
 41111  1  0  0  0
 41112  1  0  0  0
 41113  1  0  0  0
 41 48  1  0  0  0
 42 43  1  0  0  0
 42 66  1  0  0  0
 42114  1  0  0  0
 42115  1  0  0  0
 43 44  1  0  0  0
 44116  1  0  0  0
 45 46  2  0  0  0
 45117  1  0  0  0
 46118  1  0  0  0
 47119  1  0  0  0
 47120  1  0  0  0
 48 56  1  0  0  0
 48 65  1  0  0  0
 48121  1  0  0  0
 49 50  1  0  0  0
 49 53  1  0  0  0
 49 64  1  0  0  0
 49122  1  0  0  0
 50 51  1  0  0  0
 50123  1  0  0  0
 50124  1  0  0  0
 51 52  1  0  0  0
 51125  1  0  0  0
 51126  1  0  0  0
 52127  1  0  0  0
 52128  1  0  0  0
 53 54  1  0  0  0
 54 55  2  0  0  0
 54129  1  0  0  0
 55 57  1  0  0  0
 55130  1  0  0  0
 56 69  2  0  0  0
 57 58  2  0  0  0
 57131  1  0  0  0
 58132  1  0  0  0
 59 60  1  0  0  0
 59 61  1  0  0  0
 59 62  1  0  0  0
 60133  1  0  0  0
 60134  1  0  0  0
 60135  1  0  0  0
 61136  1  0  0  0
 61137  1  0  0  0
 61138  1  0  0  0
 62139  1  0  0  0
 62140  1  0  0  0
 62141  1  0  0  0
 63 65  1  0  0  0
 63142  1  0  0  0
 63143  1  0  0  0
 63144  1  0  0  0
 64145  1  0  0  0
 65146  1  0  0  0
 68 84  1  0  0  0
 71 72  2  0  0  0
 71 73  1  0  0  0
 71147  1  0  0  0
 72 75  1  0  0  0
 72148  1  0  0  0
 73 76  2  0  0  0
 73149  1  0  0  0
 74 75  2  0  0  0
 74 76  1  0  0  0
 74150  1  0  0  0
 75 77  1  0  0  0
 76 86  1  0  0  0
 77 85  2  0  0  0
 77 80  1  0  0  0
 78 80  1  0  0  0
 78 84  1  0  0  0
 78 87  2  0  0  0
 79 80  1  0  0  0
 79 81  1  0  0  0
 79151  1  0  0  0
 79152  1  0  0  0
 80 81  1  0  0  0
 81 82  1  0  0  0
 81 83  1  0  0  0
 82153  1  0  0  0
 82154  1  0  0  0
 82155  1  0  0  0
 83156  1  0  0  0
 83157  1  0  0  0
 83158  1  0  0  0
 84159  1  0  0  0
 84160  1  0  0  0
 85161  1  0  0  0
 86162  1  0  0  0
M  ISO  4   1 100  68 101  84 101  86 100
M  END
> <chiral flag>
0

> <version>
0

> <s_m_source_file>
/data/baiqing/PycharmProjects/Reinvent-master-3.2/result/LINK_invent/BTK/process_docking_weight1_custom_product_contain_oxygen_bond_distance_aromatic_linkinvent_7_9_3/rearranged_h_0138.sdf

> <i_m_source_file_index>
83

> <r_mmod_Potential_Energy-OPLS-2005>
321.378540039062

> <r_mmod_Stretch_Energy-OPLS-2005>
133.192504882812

> <r_mmod_Bend_Energy-OPLS-2005>
157.876388549805

> <r_mmod_Torsional_Energy-OPLS-2005>
302.022521972656

> <r_mmod_Improper_Torsional_Energy-OPLS-2005>
8.24948024749756

> <r_mmod_Van_der_Waal_Energy-OPLS-2005>
142.734237670898

> <r_mmod_Electrostatic_Energy-OPLS-2005>
-272.275695800781

> <r_mmod_Solvation_Energy-OPLS-2005>
-235.11833190918

> <b_mmod_Minimization_Converged-OPLS-2005>
0

> <r_mmod_RMS_Derivative-OPLS-2005>
3.73423767089844

$$$$
83
                    3D
 Structure written by MMmdl.
166175  0  0  1  0            999 V2000
  -30.5267  -14.9692   20.4020 C   0  0  0  0  0  0
  -30.4394  -12.6012   19.5029 C   0  0  0  0  0  0
  -29.5249  -12.5320   18.2570 C   0  0  0  0  0  0
  -28.0609  -12.3028   18.6798 C   0  0  0  0  0  0
  -27.6265  -13.2450   19.8345 C   0  0  2  0  0  0
  -28.6660  -13.2848   20.9733 C   0  0  0  0  0  0
  -25.2450  -13.8198   20.5688 C   0  0  0  0  0  0
  -24.1769  -13.0417   20.9200 C   0  0  0  0  0  0
  -24.6389  -11.6898   20.8750 C   0  0  0  0  0  0
  -23.9067  -10.4287   21.0403 C   0  0  0  0  0  0
  -24.3615   -9.4219   21.9198 C   0  0  0  0  0  0
  -23.6289   -8.2256   22.0775 C   0  0  0  0  0  0
  -22.4279   -8.0293   21.3553 C   0  0  0  0  0  0
  -21.9922   -9.0243   20.4637 C   0  0  0  0  0  0
  -22.7251  -10.2114   20.3043 C   0  0  0  0  0  0
  -21.6849   -6.0741   22.5280 C   0  0  0  0  0  0
  -21.3990   -6.5641   23.8205 C   0  0  0  0  0  0
  -21.3648   -5.6783   24.9169 C   0  0  0  0  0  0
  -21.6038   -4.3040   24.7223 C   0  0  0  0  0  0
  -21.8831   -3.8136   23.4332 C   0  0  0  0  0  0
  -21.9195   -4.6966   22.3390 C   0  0  0  0  0  0
  -22.7791  -13.5203   21.1828 C   0  0  0  0  0  0
  -22.1669   -4.2147   21.0966 F   0  0  0  0  0  0
  -21.5631   -3.4522   25.7728 F   0  0  0  0  0  0
  -29.9400  -13.7016   20.3769 N   0  0  0  0  0  0
  -26.2867  -12.9420   20.3222 N   0  0  0  0  0  0
  -25.9319  -11.6555   20.5722 N   0  0  0  0  0  0
  -22.0421  -12.8190   22.0356 N   0  0  0  0  0  0
  -25.4118  -15.1940   20.4101 N   0  0  0  0  0  0
  -31.7331  -15.0139   20.1392 O   0  0  0  0  0  0
  -21.6651   -6.8887   21.4239 O   0  0  0  0  0  0
  -22.3506  -14.5527   20.6688 O   0  0  0  0  0  0
  -24.6503  -31.8424   23.1851 C   0  0  0  0  0  0
  -25.9279  -32.4684   23.8241 C   0  0  1  0  0  0
  -27.1977  -27.1155   20.1581 C   0  0  0  0  0  0
  -25.6069  -33.8485   24.2221 N   0  0  0  0  0  0
  -23.4486  -30.4656   21.5306 C   0  0  2  0  0  0
  -24.8922  -28.8847   20.1094 C   0  0  0  0  0  0
  -22.7577  -29.4596   22.4855 C   0  0  0  0  0  0
  -18.0306  -28.1423   22.8497 C   0  0  0  0  0  0
  -24.1452  -36.7161   23.2647 C   0  0  0  0  0  0
  -26.0055  -30.7145   21.3767 C   0  0  0  0  0  0
  -26.0713  -29.3188   20.7292 C   0  0  0  0  0  0
  -27.2299  -28.4525   20.7294 C   0  0  0  0  0  0
  -25.9952  -26.7858   19.4980 C   0  0  0  0  0  0
  -24.8673  -27.6333   19.4758 C   0  0  0  0  0  0
  -23.6703  -29.7903   20.1511 C   0  0  0  0  0  0
  -25.4091  -36.2989   24.0338 C   0  0  1  0  0  0
  -20.5929  -28.3732   23.1239 C   0  0  2  0  0  0
  -20.6793  -26.9443   22.5404 C   0  0  0  0  0  0
  -19.5750  -26.6424   21.5216 C   0  0  0  0  0  0
  -18.1921  -26.7990   22.1590 C   0  0  0  0  0  0
  -19.1577  -28.8882   23.2868 C   0  0  0  0  0  0
  -18.9489  -30.1500   23.8876 C   0  0  0  0  0  0
  -17.6487  -30.6617   24.0578 C   0  0  0  0  0  0
  -25.9059  -34.9391   23.5041 C   0  0  0  0  0  0
  -16.5374  -29.9102   23.6372 C   0  0  0  0  0  0
  -16.7295  -28.6539   23.0382 C   0  0  0  0  0  0
  -26.4622  -31.6534   25.0650 C   0  0  0  0  0  0
  -25.3806  -31.3641   26.1310 C   0  0  0  0  0  0
  -27.0549  -30.2979   24.6157 C   0  0  0  0  0  0
  -27.6113  -32.4316   25.7484 C   0  0  0  0  0  0
  -27.5528  -37.1753   24.8497 C   0  0  0  0  0  0
  -21.4269  -29.3080   22.3608 N   0  0  0  0  0  0
  -26.4224  -37.3735   23.9464 N   0  0  0  0  0  0
  -24.7227  -31.0293   22.0877 N   0  0  0  0  0  0
  -23.4232  -28.8152   23.3001 O   0  0  0  0  0  0
  -28.2389  -26.1165   20.1792 O   0  0  0  0  0  0
  -26.5604  -34.8920   22.4589 O   0  0  0  0  0  0
  -23.5631  -32.1300   23.7106 O   0  0  0  0  0  0
  -29.0638  -18.8181   20.5640 C   0  0  0  0  0  0
  -30.6151  -20.4929   19.7506 C   0  0  0  0  0  0
  -31.2139  -18.0806   19.7429 C   0  0  0  0  0  0
  -29.3423  -20.2714   20.3171 C   0  0  0  0  0  0
  -29.9831  -17.6660   20.3051 C   0  0  0  0  0  0
  -31.5150  -19.4385   19.4735 C   0  0  0  0  0  0
  -27.2222  -21.9410   18.4898 C   0  0  0  0  0  0
  -28.3545  -22.9808   18.5422 C   0  0  0  0  0  0
  -27.0548  -21.3888   19.9118 C   0  0  0  0  0  0
  -28.7087  -23.1808   20.0245 C   0  0  2  0  0  0
  -28.3963  -21.6135   20.6353 C   0  0  2  0  0  0
  -27.5113  -20.5366   22.8753 C   0  0  0  0  0  0
  -29.4945  -22.0836   22.9179 C   0  0  0  0  0  0
  -27.9510  -24.6207   20.5416 C   0  0  0  0  0  0
  -28.1852  -21.7406   22.1812 C   0  0  0  0  0  0
  -29.7355  -16.1561   20.5413 N   0  0  0  0  0  0
  -32.7174  -19.7417   18.9264 F   0  0  0  0  0  0
  -31.4761  -12.7565   19.1953 H   0  0  0  0  0  0
  -30.4349  -11.6498   20.0389 H   0  0  0  0  0  0
  -29.8554  -11.7350   17.5898 H   0  0  0  0  0  0
  -29.6006  -13.4602   17.6885 H   0  0  0  0  0  0
  -27.9765  -11.2646   19.0031 H   0  0  0  0  0  0
  -27.3909  -12.4106   17.8254 H   0  0  0  0  0  0
  -27.5840  -14.2437   19.3989 H   0  0  0  0  0  0
  -28.7583  -12.3108   21.4564 H   0  0  0  0  0  0
  -28.3598  -13.9892   21.7488 H   0  0  0  0  0  0
  -25.2764   -9.5698   22.4766 H   0  0  0  0  0  0
  -23.9984   -7.4652   22.7506 H   0  0  0  0  0  0
  -21.0868   -8.8741   19.8928 H   0  0  0  0  0  0
  -22.3736  -10.9634   19.6123 H   0  0  0  0  0  0
  -21.1970   -7.6159   23.9700 H   0  0  0  0  0  0
  -21.1447   -6.0520   25.9062 H   0  0  0  0  0  0
  -22.0619   -2.7604   23.2818 H   0  0  0  0  0  0
  -22.3983  -11.9819   22.4719 H   0  0  0  0  0  0
  -21.1023  -13.1212   22.2472 H   0  0  0  0  0  0
  -24.6345  -15.8394   20.4977 H   0  0  0  0  0  0
  -26.2474  -15.6299   20.0415 H   0  0  0  0  0  0
  -26.7325  -32.5295   23.0952 H   0  0  0  0  0  0
  -25.0420  -33.9621   25.0507 H   0  0  0  0  0  0
  -22.7532  -31.2929   21.3747 H   0  0  0  0  0  0
  -23.3787  -35.9419   23.3272 H   0  0  0  0  0  0
  -24.3538  -36.8795   22.2070 H   0  0  0  0  0  0
  -23.7115  -37.6315   23.6671 H   0  0  0  0  0  0
  -26.1473  -31.4603   20.5944 H   0  0  0  0  0  0
  -26.8884  -30.7782   22.0007 H   0  0  0  0  0  0
  -28.1342  -28.7873   21.2149 H   0  0  0  0  0  0
  -25.9085  -25.8323   18.9987 H   0  0  0  0  0  0
  -23.9680  -27.2995   18.9763 H   0  0  0  0  0  0
  -23.8032  -30.5638   19.3921 H   0  0  0  0  0  0
  -22.7843  -29.2328   19.8408 H   0  0  0  0  0  0
  -25.1267  -36.1756   25.0826 H   0  0  0  0  0  0
  -21.0039  -28.3302   24.1348 H   0  0  0  0  0  0
  -20.5691  -26.2367   23.3628 H   0  0  0  0  0  0
  -21.6636  -26.7456   22.1154 H   0  0  0  0  0  0
  -19.6900  -25.6343   21.1218 H   0  0  0  0  0  0
  -19.6679  -27.3259   20.6765 H   0  0  0  0  0  0
  -17.4229  -26.6857   21.3948 H   0  0  0  0  0  0
  -18.0214  -26.0114   22.8924 H   0  0  0  0  0  0
  -19.7971  -30.7333   24.2210 H   0  0  0  0  0  0
  -17.5044  -31.6276   24.5207 H   0  0  0  0  0  0
  -15.5378  -30.2996   23.7754 H   0  0  0  0  0  0
  -15.8689  -28.0847   22.7102 H   0  0  0  0  0  0
  -24.6242  -30.6671   25.7683 H   0  0  0  0  0  0
  -24.8695  -32.2748   26.4445 H   0  0  0  0  0  0
  -25.8164  -30.9144   27.0234 H   0  0  0  0  0  0
  -26.3163  -29.6663   24.1222 H   0  0  0  0  0  0
  -27.4356  -29.7269   25.4634 H   0  0  0  0  0  0
  -27.8961  -30.4343   23.9353 H   0  0  0  0  0  0
  -27.2731  -33.3770   26.1751 H   0  0  0  0  0  0
  -28.4141  -32.6619   25.0451 H   0  0  0  0  0  0
  -28.0526  -31.8594   26.5660 H   0  0  0  0  0  0
  -28.2523  -38.0071   24.7553 H   0  0  0  0  0  0
  -28.1027  -36.2600   24.6270 H   0  0  0  0  0  0
  -27.2247  -37.1294   25.8896 H   0  0  0  0  0  0
  -20.9481  -29.8794   21.6784 H   0  0  0  0  0  0
  -26.0044  -38.2761   24.1550 H   0  0  0  0  0  0
  -28.0976  -18.5720   20.9806 H   0  0  0  0  0  0
  -30.9260  -21.4976   19.5109 H   0  0  0  0  0  0
  -31.9744  -17.3591   19.4830 H   0  0  0  0  0  0
  -27.4935  -21.1386   17.8028 H   0  0  0  0  0  0
  -26.2841  -22.3678   18.1300 H   0  0  0  0  0  0
  -28.0826  -23.9144   18.0506 H   0  0  0  0  0  0
  -29.2198  -22.5841   18.0075 H   0  0  0  0  0  0
  -26.7139  -20.3531   19.9248 H   0  0  0  0  0  0
  -26.2701  -21.9727   20.3946 H   0  0  0  0  0  0
  -29.7783  -23.3725   20.1167 H   0  0  0  0  0  0
  -26.6190  -20.1986   22.3481 H   0  0  0  0  0  0
  -27.1999  -20.8053   23.8839 H   0  0  0  0  0  0
  -28.1877  -19.6897   22.9772 H   0  0  0  0  0  0
  -29.9868  -22.9595   22.4944 H   0  0  0  0  0  0
  -30.2091  -21.2611   22.8759 H   0  0  0  0  0  0
  -29.3032  -22.2917   23.9707 H   0  0  0  0  0  0
  -28.0815  -24.6297   21.6226 H   0  0  0  0  0  0
  -26.8810  -24.4550   20.4259 H   0  0  0  0  0  0
  -27.4980  -22.5707   22.3492 H   0  0  0  0  0  0
  -28.7859  -15.9400   20.8027 H   0  0  0  0  0  0
  1 25  1  0  0  0
  1 30  2  0  0  0
  1 86  1  0  0  0
  2  3  1  0  0  0
  2 25  1  0  0  0
  2 88  1  0  0  0
  2 89  1  0  0  0
  3  4  1  0  0  0
  3 90  1  0  0  0
  3 91  1  0  0  0
  4  5  1  0  0  0
  4 92  1  0  0  0
  4 93  1  0  0  0
  5  6  1  0  0  0
  5 26  1  0  0  0
  5 94  1  0  0  0
  6 25  1  0  0  0
  6 95  1  0  0  0
  6 96  1  0  0  0
  7  8  2  0  0  0
  7 26  1  0  0  0
  7 29  1  0  0  0
  8  9  1  0  0  0
  8 22  1  0  0  0
  9 10  1  0  0  0
  9 27  2  0  0  0
 10 11  2  0  0  0
 10 15  1  0  0  0
 11 12  1  0  0  0
 11 97  1  0  0  0
 12 13  2  0  0  0
 12 98  1  0  0  0
 13 14  1  0  0  0
 13 31  1  0  0  0
 14 15  2  0  0  0
 14 99  1  0  0  0
 15100  1  0  0  0
 16 17  2  0  0  0
 16 21  1  0  0  0
 16 31  1  0  0  0
 17 18  1  0  0  0
 17101  1  0  0  0
 18 19  2  0  0  0
 18102  1  0  0  0
 19 20  1  0  0  0
 19 24  1  0  0  0
 20 21  2  0  0  0
 20103  1  0  0  0
 21 23  1  0  0  0
 22 28  1  0  0  0
 22 32  2  0  0  0
 26 27  1  0  0  0
 28104  1  0  0  0
 28105  1  0  0  0
 29106  1  0  0  0
 29107  1  0  0  0
 33 34  1  0  0  0
 33 66  1  0  0  0
 33 70  2  0  0  0
 34 36  1  0  0  0
 34 59  1  0  0  0
 34108  1  0  0  0
 35 44  2  0  0  0
 35 45  1  0  0  0
 35 68  1  0  0  0
 36 56  1  0  0  0
 36109  1  0  0  0
 37 39  1  0  0  0
 37 47  1  0  0  0
 37 66  1  0  0  0
 37110  1  0  0  0
 38 43  2  0  0  0
 38 46  1  0  0  0
 38 47  1  0  0  0
 39 64  1  0  0  0
 39 67  2  0  0  0
 40 52  1  0  0  0
 40 53  2  0  0  0
 40 58  1  0  0  0
 41111  1  0  0  0
 41112  1  0  0  0
 41113  1  0  0  0
 41 48  1  0  0  0
 42 43  1  0  0  0
 42 66  1  0  0  0
 42114  1  0  0  0
 42115  1  0  0  0
 43 44  1  0  0  0
 44116  1  0  0  0
 45 46  2  0  0  0
 45117  1  0  0  0
 46118  1  0  0  0
 47119  1  0  0  0
 47120  1  0  0  0
 48 56  1  0  0  0
 48 65  1  0  0  0
 48121  1  0  0  0
 49 50  1  0  0  0
 49 53  1  0  0  0
 49 64  1  0  0  0
 49122  1  0  0  0
 50 51  1  0  0  0
 50123  1  0  0  0
 50124  1  0  0  0
 51 52  1  0  0  0
 51125  1  0  0  0
 51126  1  0  0  0
 52127  1  0  0  0
 52128  1  0  0  0
 53 54  1  0  0  0
 54 55  2  0  0  0
 54129  1  0  0  0
 55 57  1  0  0  0
 55130  1  0  0  0
 56 69  2  0  0  0
 57 58  2  0  0  0
 57131  1  0  0  0
 58132  1  0  0  0
 59 60  1  0  0  0
 59 61  1  0  0  0
 59 62  1  0  0  0
 60133  1  0  0  0
 60134  1  0  0  0
 60135  1  0  0  0
 61136  1  0  0  0
 61137  1  0  0  0
 61138  1  0  0  0
 62139  1  0  0  0
 62140  1  0  0  0
 62141  1  0  0  0
 63 65  1  0  0  0
 63142  1  0  0  0
 63143  1  0  0  0
 63144  1  0  0  0
 64145  1  0  0  0
 65146  1  0  0  0
 68 84  1  0  0  0
 71 74  2  0  0  0
 71 75  1  0  0  0
 71147  1  0  0  0
 72 74  1  0  0  0
 72 76  2  0  0  0
 72148  1  0  0  0
 73 75  2  0  0  0
 73 76  1  0  0  0
 73149  1  0  0  0
 74 81  1  0  0  0
 75 86  1  0  0  0
 76 87  1  0  0  0
 77 78  1  0  0  0
 77 79  1  0  0  0
 77150  1  0  0  0
 77151  1  0  0  0
 78 80  1  0  0  0
 78152  1  0  0  0
 78153  1  0  0  0
 79 81  1  0  0  0
 79154  1  0  0  0
 79155  1  0  0  0
 80 81  1  0  0  0
 80 84  1  0  0  0
 80156  1  0  0  0
 81 85  1  0  0  0
 82157  1  0  0  0
 82158  1  0  0  0
 82159  1  0  0  0
 82 85  1  0  0  0
 83 85  1  0  0  0
 83160  1  0  0  0
 83161  1  0  0  0
 83162  1  0  0  0
 84163  1  0  0  0
 84164  1  0  0  0
 85165  1  0  0  0
 86166  1  0  0  0
M  ISO  4   1 100  68 101  84 101  86 100
M  END
> <chiral flag>
0

> <version>
0

> <s_m_source_file>
/data/baiqing/PycharmProjects/Reinvent-master-3.2/result/LINK_invent/BTK/process_docking_weight1_custom_product_contain_oxygen_bond_distance_aromatic_linkinvent_7_9_3/rearranged_h_0138.sdf

> <i_m_source_file_index>
84

> <r_mmod_Potential_Energy-OPLS-2005>
672.659851074219

> <r_mmod_Stretch_Energy-OPLS-2005>
296.433227539062

> <r_mmod_Bend_Energy-OPLS-2005>
286.670349121094

> <r_mmod_Torsional_Energy-OPLS-2005>
301.932342529297

> <r_mmod_Improper_Torsional_Energy-OPLS-2005>
3.95175004005432

> <r_mmod_Van_der_Waal_Energy-OPLS-2005>
126.151916503906

> <r_mmod_Electrostatic_Energy-OPLS-2005>
-355.858032226562

> <r_mmod_Solvation_Energy-OPLS-2005>
-194.701309204102

> <b_mmod_Minimization_Converged-OPLS-2005>
0

> <r_mmod_RMS_Derivative-OPLS-2005>
3.89745330810547

$$$$
84
                    3D
 Structure written by MMmdl.
155163  0  0  1  0            999 V2000
  -30.5986  -14.7517   20.4512 C   0  0  0  0  0  0
  -30.4342  -12.4539   19.4829 C   0  0  0  0  0  0
  -29.5141  -12.5067   18.2424 C   0  0  0  0  0  0
  -28.0396  -12.3307   18.6532 C   0  0  0  0  0  0
  -27.6431  -13.2305   19.8539 C   0  0  2  0  0  0
  -28.6852  -13.1604   20.9921 C   0  0  0  0  0  0
  -25.2516  -13.8191   20.5702 C   0  0  0  0  0  0
  -24.1802  -13.0439   20.9208 C   0  0  0  0  0  0
  -24.6390  -11.6914   20.8744 C   0  0  0  0  0  0
  -23.9063  -10.4293   21.0409 C   0  0  0  0  0  0
  -24.3613   -9.4208   21.9188 C   0  0  0  0  0  0
  -23.6288   -8.2242   22.0755 C   0  0  0  0  0  0
  -22.4270   -8.0279   21.3544 C   0  0  0  0  0  0
  -21.9907   -9.0253   20.4647 C   0  0  0  0  0  0
  -22.7234  -10.2135   20.3059 C   0  0  0  0  0  0
  -21.6852   -6.0733   22.5278 C   0  0  0  0  0  0
  -21.4016   -6.5639   23.8212 C   0  0  0  0  0  0
  -21.3661   -5.6792   24.9174 C   0  0  0  0  0  0
  -21.6042   -4.3053   24.7225 C   0  0  0  0  0  0
  -21.8818   -3.8144   23.4346 C   0  0  0  0  0  0
  -21.9194   -4.6960   22.3402 C   0  0  0  0  0  0
  -22.7825  -13.5225   21.1865 C   0  0  0  0  0  0
  -22.1661   -4.2146   21.0979 F   0  0  0  0  0  0
  -21.5628   -3.4536   25.7738 F   0  0  0  0  0  0
  -29.9888  -13.5154   20.4168 N   0  0  0  0  0  0
  -26.2939  -12.9395   20.3287 N   0  0  0  0  0  0
  -25.9322  -11.6538   20.5751 N   0  0  0  0  0  0
  -22.0468  -12.8222   22.0423 N   0  0  0  0  0  0
  -25.4206  -15.1918   20.4134 N   0  0  0  0  0  0
  -31.7835  -14.8460   20.1127 O   0  0  0  0  0  0
  -21.6635   -6.8875   21.4239 O   0  0  0  0  0  0
  -22.3514  -14.5534   20.6711 O   0  0  0  0  0  0
  -24.6323  -31.8543   23.1969 C   0  0  0  0  0  0
  -25.9145  -32.4748   23.8317 C   0  0  1  0  0  0
  -27.2201  -27.2524   20.1215 C   0  0  0  0  0  0
  -25.5939  -33.8551   24.2243 N   0  0  0  0  0  0
  -23.4286  -30.4770   21.5407 C   0  0  2  0  0  0
  -24.8741  -28.9218   20.1076 C   0  0  0  0  0  0
  -22.7502  -29.4600   22.4905 C   0  0  0  0  0  0
  -18.0294  -28.1391   22.8484 C   0  0  0  0  0  0
  -24.1492  -36.7277   23.2640 C   0  0  0  0  0  0
  -25.9751  -30.7630   21.3781 C   0  0  0  0  0  0
  -26.0450  -29.3854   20.7183 C   0  0  0  0  0  0
  -27.2162  -28.5617   20.7165 C   0  0  0  0  0  0
  -26.0193  -26.8530   19.4914 C   0  0  0  0  0  0
  -24.8670  -27.6642   19.4858 C   0  0  0  0  0  0
  -23.6460  -29.8108   20.1563 C   0  0  0  0  0  0
  -25.4121  -36.3065   24.0324 C   0  0  1  0  0  0
  -20.5898  -28.3702   23.1269 C   0  0  2  0  0  0
  -20.6785  -26.9419   22.5410 C   0  0  0  0  0  0
  -19.5760  -26.6385   21.5216 C   0  0  0  0  0  0
  -18.1938  -26.7934   22.1625 C   0  0  0  0  0  0
  -19.1548  -28.8863   23.2872 C   0  0  0  0  0  0
  -18.9468  -30.1463   23.8893 C   0  0  0  0  0  0
  -17.6466  -30.6592   24.0563 C   0  0  0  0  0  0
  -25.9062  -34.9437   23.5087 C   0  0  0  0  0  0
  -16.5357  -29.9089   23.6334 C   0  0  0  0  0  0
  -16.7279  -28.6507   23.0355 C   0  0  0  0  0  0
  -26.4507  -31.6583   25.0716 C   0  0  0  0  0  0
  -25.3722  -31.3738   26.1431 C   0  0  0  0  0  0
  -27.0362  -30.2999   24.6218 C   0  0  0  0  0  0
  -27.6055  -32.4332   25.7490 C   0  0  0  0  0  0
  -27.5580  -37.1794   24.8466 C   0  0  0  0  0  0
  -21.4209  -29.3046   22.3651 N   0  0  0  0  0  0
  -26.4293  -37.3767   23.9408 N   0  0  0  0  0  0
  -24.6979  -31.0500   22.0947 N   0  0  0  0  0  0
  -23.4199  -28.8146   23.3012 O   0  0  0  0  0  0
  -28.3320  -26.3797   20.2117 O   0  0  0  0  0  0
  -26.5635  -34.8915   22.4656 O   0  0  0  0  0  0
  -23.5472  -32.1370   23.7262 O   0  0  0  0  0  0
  -30.6971  -19.1774   19.4566 C   0  0  0  0  0  0
  -30.9255  -17.7600   19.5375 C   0  0  0  0  0  0
  -29.6426  -19.5314   20.2681 C   0  0  0  0  0  0
  -29.9984  -17.2365   20.3979 C   0  0  0  0  0  0
  -28.5447  -23.6904   20.4382 C   0  0  0  0  0  0
  -30.7040  -22.5863   19.7195 C   0  0  0  0  0  0
  -28.6017  -22.1205   18.4232 C   0  0  0  0  0  0
  -28.9487  -20.9148   20.6513 C   0  0  0  0  0  0
  -28.4058  -25.0276   19.5475 C   0  0  0  0  0  0
  -29.1841  -22.3235   19.8389 C   0  0  0  0  0  0
  -29.8166  -15.8741   20.7104 N   0  0  0  0  0  0
  -28.1668  -23.7093   21.6130 O   0  0  0  0  0  0
  -29.2008  -18.3135   20.8502 O   0  0  0  0  0  0
  -31.4760  -12.5764   19.1822 H   0  0  0  0  0  0
  -30.3783  -11.4769   19.9656 H   0  0  0  0  0  0
  -29.7975  -11.7319   17.5288 H   0  0  0  0  0  0
  -29.6421  -13.4601   17.7272 H   0  0  0  0  0  0
  -27.8979  -11.2822   18.9174 H   0  0  0  0  0  0
  -27.3835  -12.5205   17.8030 H   0  0  0  0  0  0
  -27.6382  -14.2526   19.4751 H   0  0  0  0  0  0
  -28.7193  -12.1597   21.4255 H   0  0  0  0  0  0
  -28.4154  -13.8350   21.8063 H   0  0  0  0  0  0
  -25.2761   -9.5677   22.4764 H   0  0  0  0  0  0
  -23.9994   -7.4631   22.7476 H   0  0  0  0  0  0
  -21.0837   -8.8775   19.8955 H   0  0  0  0  0  0
  -22.3695  -10.9674   19.6167 H   0  0  0  0  0  0
  -21.2008   -7.6148   23.9714 H   0  0  0  0  0  0
  -21.1485   -6.0523   25.9077 H   0  0  0  0  0  0
  -22.0596   -2.7605   23.2848 H   0  0  0  0  0  0
  -22.4081  -11.9884   22.4818 H   0  0  0  0  0  0
  -21.1087  -13.1248   22.2624 H   0  0  0  0  0  0
  -24.6514  -15.8436   20.5251 H   0  0  0  0  0  0
  -26.2642  -15.6331   20.0698 H   0  0  0  0  0  0
  -26.7207  -32.5389   23.1051 H   0  0  0  0  0  0
  -25.0085  -33.9684   25.0388 H   0  0  0  0  0  0
  -22.7259  -31.3001   21.3952 H   0  0  0  0  0  0
  -23.3760  -35.9603   23.3299 H   0  0  0  0  0  0
  -24.3579  -36.8904   22.2055 H   0  0  0  0  0  0
  -23.7240  -37.6473   23.6669 H   0  0  0  0  0  0
  -26.1193  -31.5241   20.6099 H   0  0  0  0  0  0
  -26.8507  -30.8084   22.0139 H   0  0  0  0  0  0
  -28.1118  -28.9113   21.2107 H   0  0  0  0  0  0
  -25.9150  -25.8870   19.0252 H   0  0  0  0  0  0
  -23.9661  -27.3004   19.0108 H   0  0  0  0  0  0
  -23.7710  -30.5878   19.4014 H   0  0  0  0  0  0
  -22.7632  -29.2464   19.8510 H   0  0  0  0  0  0
  -25.1306  -36.1908   25.0817 H   0  0  0  0  0  0
  -20.9994  -28.3286   24.1389 H   0  0  0  0  0  0
  -20.5697  -26.2310   23.3614 H   0  0  0  0  0  0
  -21.6652  -26.7451   22.1197 H   0  0  0  0  0  0
  -19.6923  -25.6295   21.1250 H   0  0  0  0  0  0
  -19.6702  -27.3193   20.6744 H   0  0  0  0  0  0
  -17.4211  -26.6681   21.4025 H   0  0  0  0  0  0
  -18.0337  -26.0078   22.9023 H   0  0  0  0  0  0
  -19.7943  -30.7281   24.2261 H   0  0  0  0  0  0
  -17.5021  -31.6272   24.5164 H   0  0  0  0  0  0
  -15.5358  -30.2990   23.7663 H   0  0  0  0  0  0
  -15.8678  -28.0824   22.7075 H   0  0  0  0  0  0
  -24.5901  -30.7087   25.7752 H   0  0  0  0  0  0
  -24.8914  -32.2911   26.4839 H   0  0  0  0  0  0
  -25.8033  -30.8922   27.0217 H   0  0  0  0  0  0
  -26.2952  -29.6734   24.1241 H   0  0  0  0  0  0
  -27.4037  -29.7277   25.4746 H   0  0  0  0  0  0
  -27.8831  -30.4270   23.9472 H   0  0  0  0  0  0
  -27.2658  -33.3637   26.2048 H   0  0  0  0  0  0
  -28.3872  -32.6884   25.0324 H   0  0  0  0  0  0
  -28.0716  -31.8472   26.5420 H   0  0  0  0  0  0
  -28.2597  -38.0091   24.7516 H   0  0  0  0  0  0
  -28.1077  -36.2623   24.6294 H   0  0  0  0  0  0
  -27.2295  -37.1442   25.8866 H   0  0  0  0  0  0
  -20.9396  -29.8750   21.6838 H   0  0  0  0  0  0
  -26.0171  -38.2839   24.1410 H   0  0  0  0  0  0
  -31.2742  -19.8580   18.8513 H   0  0  0  0  0  0
  -31.6816  -17.2007   19.0041 H   0  0  0  0  0  0
  -30.9347  -23.6142   19.4378 H   0  0  0  0  0  0
  -31.1725  -21.9667   18.9592 H   0  0  0  0  0  0
  -31.2114  -22.3946   20.6657 H   0  0  0  0  0  0
  -28.8217  -22.9562   17.7583 H   0  0  0  0  0  0
  -27.5177  -21.9986   18.4540 H   0  0  0  0  0  0
  -29.0111  -21.2271   17.9508 H   0  0  0  0  0  0
  -29.2030  -21.1103   21.6938 H   0  0  0  0  0  0
  -27.8727  -20.7389   20.6784 H   0  0  0  0  0  0
  -27.5918  -24.8696   18.8469 H   0  0  0  0  0  0
  -29.2909  -25.0668   18.9140 H   0  0  0  0  0  0
  -28.9111  -15.6537   21.0945 H   0  0  0  0  0  0
  1 25  1  0  0  0
  1 30  2  0  0  0
  1 81  1  0  0  0
  2  3  1  0  0  0
  2 25  1  0  0  0
  2 84  1  0  0  0
  2 85  1  0  0  0
  3  4  1  0  0  0
  3 86  1  0  0  0
  3 87  1  0  0  0
  4  5  1  0  0  0
  4 88  1  0  0  0
  4 89  1  0  0  0
  5  6  1  0  0  0
  5 26  1  0  0  0
  5 90  1  0  0  0
  6 25  1  0  0  0
  6 91  1  0  0  0
  6 92  1  0  0  0
  7  8  2  0  0  0
  7 26  1  0  0  0
  7 29  1  0  0  0
  8  9  1  0  0  0
  8 22  1  0  0  0
  9 10  1  0  0  0
  9 27  2  0  0  0
 10 11  2  0  0  0
 10 15  1  0  0  0
 11 12  1  0  0  0
 11 93  1  0  0  0
 12 13  2  0  0  0
 12 94  1  0  0  0
 13 14  1  0  0  0
 13 31  1  0  0  0
 14 15  2  0  0  0
 14 95  1  0  0  0
 15 96  1  0  0  0
 16 17  2  0  0  0
 16 21  1  0  0  0
 16 31  1  0  0  0
 17 18  1  0  0  0
 17 97  1  0  0  0
 18 19  2  0  0  0
 18 98  1  0  0  0
 19 20  1  0  0  0
 19 24  1  0  0  0
 20 21  2  0  0  0
 20 99  1  0  0  0
 21 23  1  0  0  0
 22 28  1  0  0  0
 22 32  2  0  0  0
 26 27  1  0  0  0
 28100  1  0  0  0
 28101  1  0  0  0
 29102  1  0  0  0
 29103  1  0  0  0
 33 34  1  0  0  0
 33 66  1  0  0  0
 33 70  2  0  0  0
 34 36  1  0  0  0
 34 59  1  0  0  0
 34104  1  0  0  0
 35 44  2  0  0  0
 35 45  1  0  0  0
 35 68  1  0  0  0
 36 56  1  0  0  0
 36105  1  0  0  0
 37 39  1  0  0  0
 37 47  1  0  0  0
 37 66  1  0  0  0
 37106  1  0  0  0
 38 43  2  0  0  0
 38 46  1  0  0  0
 38 47  1  0  0  0
 39 64  1  0  0  0
 39 67  2  0  0  0
 40 52  1  0  0  0
 40 53  2  0  0  0
 40 58  1  0  0  0
 41107  1  0  0  0
 41108  1  0  0  0
 41109  1  0  0  0
 41 48  1  0  0  0
 42 43  1  0  0  0
 42 66  1  0  0  0
 42110  1  0  0  0
 42111  1  0  0  0
 43 44  1  0  0  0
 44112  1  0  0  0
 45 46  2  0  0  0
 45113  1  0  0  0
 46114  1  0  0  0
 47115  1  0  0  0
 47116  1  0  0  0
 48 56  1  0  0  0
 48 65  1  0  0  0
 48117  1  0  0  0
 49 50  1  0  0  0
 49 53  1  0  0  0
 49 64  1  0  0  0
 49118  1  0  0  0
 50 51  1  0  0  0
 50119  1  0  0  0
 50120  1  0  0  0
 51 52  1  0  0  0
 51121  1  0  0  0
 51122  1  0  0  0
 52123  1  0  0  0
 52124  1  0  0  0
 53 54  1  0  0  0
 54 55  2  0  0  0
 54125  1  0  0  0
 55 57  1  0  0  0
 55126  1  0  0  0
 56 69  2  0  0  0
 57 58  2  0  0  0
 57127  1  0  0  0
 58128  1  0  0  0
 59 60  1  0  0  0
 59 61  1  0  0  0
 59 62  1  0  0  0
 60129  1  0  0  0
 60130  1  0  0  0
 60131  1  0  0  0
 61132  1  0  0  0
 61133  1  0  0  0
 61134  1  0  0  0
 62135  1  0  0  0
 62136  1  0  0  0
 62137  1  0  0  0
 63 65  1  0  0  0
 63138  1  0  0  0
 63139  1  0  0  0
 63140  1  0  0  0
 64141  1  0  0  0
 65142  1  0  0  0
 68 79  1  0  0  0
 71 72  1  0  0  0
 71 73  2  0  0  0
 71143  1  0  0  0
 72 74  2  0  0  0
 72144  1  0  0  0
 73 78  1  0  0  0
 73 83  1  0  0  0
 74 81  1  0  0  0
 74 83  1  0  0  0
 75 79  1  0  0  0
 75 80  1  0  0  0
 75 82  2  0  0  0
 76145  1  0  0  0
 76146  1  0  0  0
 76147  1  0  0  0
 76 80  1  0  0  0
 77 80  1  0  0  0
 77148  1  0  0  0
 77149  1  0  0  0
 77150  1  0  0  0
 78 80  1  0  0  0
 78151  1  0  0  0
 78152  1  0  0  0
 79153  1  0  0  0
 79154  1  0  0  0
 81155  1  0  0  0
M  ISO  4   1 100  68 101  79 101  81 100
M  END
> <chiral flag>
0

> <version>
0

> <s_m_source_file>
/data/baiqing/PycharmProjects/Reinvent-master-3.2/result/LINK_invent/BTK/process_docking_weight1_custom_product_contain_oxygen_bond_distance_aromatic_linkinvent_7_9_3/rearranged_h_0138.sdf

> <i_m_source_file_index>
85

> <r_mmod_Potential_Energy-OPLS-2005>
197.276336669922

> <r_mmod_Stretch_Energy-OPLS-2005>
135.603515625

> <r_mmod_Bend_Energy-OPLS-2005>
184.43537902832

> <r_mmod_Torsional_Energy-OPLS-2005>
227.034561157227

> <r_mmod_Improper_Torsional_Energy-OPLS-2005>
4.01240205764771

> <r_mmod_Van_der_Waal_Energy-OPLS-2005>
123.26065826416

> <r_mmod_Electrostatic_Energy-OPLS-2005>
-343.002349853516

> <r_mmod_Solvation_Energy-OPLS-2005>
-221.577209472656

> <b_mmod_Minimization_Converged-OPLS-2005>
0

> <r_mmod_RMS_Derivative-OPLS-2005>
0.589456379413605

$$$$
85
                    3D
 Structure written by MMmdl.
166174  0  0  1  0            999 V2000
  -30.6133  -14.7695   20.4169 C   0  0  0  0  0  0
  -30.4303  -12.4596   19.4919 C   0  0  0  0  0  0
  -29.5225  -12.5197   18.2440 C   0  0  0  0  0  0
  -28.0438  -12.3341   18.6428 C   0  0  0  0  0  0
  -27.6334  -13.2348   19.8387 C   0  0  2  0  0  0
  -28.6783  -13.2007   20.9746 C   0  0  0  0  0  0
  -25.2466  -13.8133   20.5795 C   0  0  0  0  0  0
  -24.1762  -13.0370   20.9227 C   0  0  0  0  0  0
  -24.6382  -11.6871   20.8733 C   0  0  0  0  0  0
  -23.9073  -10.4255   21.0400 C   0  0  0  0  0  0
  -24.3618   -9.4177   21.9185 C   0  0  0  0  0  0
  -23.6284   -8.2217   22.0762 C   0  0  0  0  0  0
  -22.4265   -8.0266   21.3549 C   0  0  0  0  0  0
  -21.9902   -9.0238   20.4652 C   0  0  0  0  0  0
  -22.7242  -10.2109   20.3045 C   0  0  0  0  0  0
  -21.6834   -6.0735   22.5287 C   0  0  0  0  0  0
  -21.4017   -6.5640   23.8225 C   0  0  0  0  0  0
  -21.3664   -5.6790   24.9186 C   0  0  0  0  0  0
  -21.6044   -4.3053   24.7226 C   0  0  0  0  0  0
  -21.8816   -3.8147   23.4347 C   0  0  0  0  0  0
  -21.9183   -4.6968   22.3406 C   0  0  0  0  0  0
  -22.7787  -13.5168   21.1872 C   0  0  0  0  0  0
  -22.1638   -4.2160   21.0981 F   0  0  0  0  0  0
  -21.5636   -3.4528   25.7731 F   0  0  0  0  0  0
  -29.9885  -13.5390   20.4045 N   0  0  0  0  0  0
  -26.2896  -12.9379   20.3240 N   0  0  0  0  0  0
  -25.9313  -11.6514   20.5697 N   0  0  0  0  0  0
  -22.0407  -12.8205   22.0441 N   0  0  0  0  0  0
  -25.4081  -15.1865   20.4475 N   0  0  0  0  0  0
  -31.8264  -14.8177   20.1963 O   0  0  0  0  0  0
  -21.6623   -6.8873   21.4248 O   0  0  0  0  0  0
  -22.3494  -14.5466   20.6687 O   0  0  0  0  0  0
  -24.6291  -31.8579   23.2010 C   0  0  0  0  0  0
  -25.9114  -32.4774   23.8357 C   0  0  1  0  0  0
  -27.2178  -27.2708   20.1438 C   0  0  0  0  0  0
  -25.5923  -33.8576   24.2276 N   0  0  0  0  0  0
  -23.4262  -30.4804   21.5432 C   0  0  2  0  0  0
  -24.8753  -28.9304   20.1112 C   0  0  0  0  0  0
  -22.7497  -29.4612   22.4917 C   0  0  0  0  0  0
  -18.0289  -28.1372   22.8500 C   0  0  0  0  0  0
  -24.1492  -36.7292   23.2642 C   0  0  0  0  0  0
  -25.9699  -30.7748   21.3804 C   0  0  0  0  0  0
  -26.0445  -29.3964   20.7267 C   0  0  0  0  0  0
  -27.2200  -28.5793   20.7316 C   0  0  0  0  0  0
  -26.0340  -26.8798   19.4823 C   0  0  0  0  0  0
  -24.8756  -27.6794   19.4760 C   0  0  0  0  0  0
  -23.6461  -29.8165   20.1580 C   0  0  0  0  0  0
  -25.4115  -36.3079   24.0331 C   0  0  1  0  0  0
  -20.5891  -28.3684   23.1285 C   0  0  2  0  0  0
  -20.6784  -26.9403   22.5420 C   0  0  0  0  0  0
  -19.5756  -26.6370   21.5232 C   0  0  0  0  0  0
  -18.1930  -26.7923   22.1636 C   0  0  0  0  0  0
  -19.1543  -28.8847   23.2890 C   0  0  0  0  0  0
  -18.9460  -30.1447   23.8909 C   0  0  0  0  0  0
  -17.6458  -30.6583   24.0558 C   0  0  0  0  0  0
  -25.9056  -34.9450   23.5103 C   0  0  0  0  0  0
  -16.5346  -29.9080   23.6326 C   0  0  0  0  0  0
  -16.7273  -28.6488   23.0363 C   0  0  0  0  0  0
  -26.4466  -31.6589   25.0730 C   0  0  0  0  0  0
  -25.3692  -31.3748   26.1455 C   0  0  0  0  0  0
  -27.0301  -30.3010   24.6202 C   0  0  0  0  0  0
  -27.6026  -32.4312   25.7516 C   0  0  0  0  0  0
  -27.5579  -37.1806   24.8452 C   0  0  0  0  0  0
  -21.4204  -29.3040   22.3673 N   0  0  0  0  0  0
  -26.4290  -37.3779   23.9403 N   0  0  0  0  0  0
  -24.6934  -31.0557   22.0984 N   0  0  0  0  0  0
  -23.4198  -28.8150   23.3007 O   0  0  0  0  0  0
  -28.3071  -26.3715   20.1859 O   0  0  0  0  0  0
  -26.5627  -34.8913   22.4673 O   0  0  0  0  0  0
  -23.5440  -32.1394   23.7299 O   0  0  0  0  0  0
  -29.6153  -19.9423   20.5400 C   0  0  0  0  0  0
  -27.9826  -19.8250   18.3174 C   0  0  0  0  0  0
  -29.4801  -18.6441   19.8850 C   0  0  0  0  0  0
  -28.6714  -18.6585   18.7105 C   0  0  0  0  0  0
  -28.9555  -21.1726   20.1083 C   0  0  0  0  0  0
  -28.0719  -21.0461   19.0136 C   0  0  0  0  0  0
  -30.2187  -17.3316   20.2767 C   0  0  0  0  0  0
  -29.7587  -16.0196   20.3582 C   0  0  0  0  0  0
  -27.1334  -16.8580   17.8059 C   0  0  0  0  0  0
  -25.2428  -22.9365   17.7185 C   0  0  0  0  0  0
  -27.9810  -24.9556   22.1219 C   0  0  0  0  0  0
  -28.5353  -17.4695   17.7634 C   0  0  0  0  0  0
  -25.8942  -21.8811   18.6104 C   0  0  0  0  0  0
  -29.0772  -23.7678   20.1154 C   0  0  0  0  0  0
  -28.0601  -24.9373   20.5869 C   0  0  2  0  0  0
  -29.0851  -22.4232   20.7831 O   0  0  0  0  0  0
  -27.3003  -22.1105   18.6157 O   0  0  0  0  0  0
  -31.4777  -12.5649   19.2023 H   0  0  0  0  0  0
  -30.3566  -11.4889   19.9851 H   0  0  0  0  0  0
  -29.8186  -11.7585   17.5220 H   0  0  0  0  0  0
  -29.6522  -13.4829   17.7473 H   0  0  0  0  0  0
  -27.9038  -11.2842   18.9014 H   0  0  0  0  0  0
  -27.3937  -12.5266   17.7884 H   0  0  0  0  0  0
  -27.6026  -14.2458   19.4371 H   0  0  0  0  0  0
  -28.7106  -12.2162   21.4430 H   0  0  0  0  0  0
  -28.4148  -13.9060   21.7641 H   0  0  0  0  0  0
  -25.2759   -9.5649   22.4779 H   0  0  0  0  0  0
  -23.9983   -7.4608   22.7477 H   0  0  0  0  0  0
  -21.0829   -8.8757   19.8961 H   0  0  0  0  0  0
  -22.3697  -10.9654   19.6156 H   0  0  0  0  0  0
  -21.2017   -7.6148   23.9736 H   0  0  0  0  0  0
  -21.1491   -6.0517   25.9091 H   0  0  0  0  0  0
  -22.0596   -2.7610   23.2836 H   0  0  0  0  0  0
  -22.3957  -11.9852   22.4869 H   0  0  0  0  0  0
  -21.1037  -13.1293   22.2626 H   0  0  0  0  0  0
  -24.6416  -15.8330   20.5974 H   0  0  0  0  0  0
  -26.2690  -15.6467   20.1878 H   0  0  0  0  0  0
  -26.7180  -32.5435   23.1112 H   0  0  0  0  0  0
  -25.0043  -33.9724   25.0406 H   0  0  0  0  0  0
  -22.7212  -31.3013   21.3977 H   0  0  0  0  0  0
  -23.3758  -35.9617   23.3284 H   0  0  0  0  0  0
  -24.3590  -36.8936   22.2059 H   0  0  0  0  0  0
  -23.7233  -37.6485   23.6679 H   0  0  0  0  0  0
  -26.1046  -31.5361   20.6097 H   0  0  0  0  0  0
  -26.8497  -30.8285   22.0102 H   0  0  0  0  0  0
  -28.1135  -28.9298   21.2298 H   0  0  0  0  0  0
  -25.9896  -25.9354   18.9622 H   0  0  0  0  0  0
  -23.9844  -27.3230   18.9759 H   0  0  0  0  0  0
  -23.7702  -30.5944   19.4032 H   0  0  0  0  0  0
  -22.7646  -29.2488   19.8525 H   0  0  0  0  0  0
  -25.1302  -36.1935   25.0826 H   0  0  0  0  0  0
  -20.9989  -28.3257   24.1405 H   0  0  0  0  0  0
  -20.5696  -26.2295   23.3616 H   0  0  0  0  0  0
  -21.6649  -26.7437   22.1198 H   0  0  0  0  0  0
  -19.6915  -25.6279   21.1260 H   0  0  0  0  0  0
  -19.6701  -27.3182   20.6753 H   0  0  0  0  0  0
  -17.4212  -26.6683   21.4018 H   0  0  0  0  0  0
  -18.0309  -26.0055   22.9016 H   0  0  0  0  0  0
  -19.7930  -30.7257   24.2292 H   0  0  0  0  0  0
  -17.5005  -31.6267   24.5138 H   0  0  0  0  0  0
  -15.5346  -30.2978   23.7640 H   0  0  0  0  0  0
  -15.8670  -28.0793   22.7093 H   0  0  0  0  0  0
  -24.5837  -30.7142   25.7770 H   0  0  0  0  0  0
  -24.8923  -32.2926   26.4900 H   0  0  0  0  0  0
  -25.7991  -30.8887   27.0224 H   0  0  0  0  0  0
  -26.2881  -29.6788   24.1185 H   0  0  0  0  0  0
  -27.3939  -29.7239   25.4711 H   0  0  0  0  0  0
  -27.8776  -30.4286   23.9469 H   0  0  0  0  0  0
  -27.2635  -33.3608   26.2102 H   0  0  0  0  0  0
  -28.3842  -32.6878   25.0355 H   0  0  0  0  0  0
  -28.0684  -31.8431   26.5437 H   0  0  0  0  0  0
  -28.2574  -38.0124   24.7512 H   0  0  0  0  0  0
  -28.1100  -36.2653   24.6259 H   0  0  0  0  0  0
  -27.2303  -37.1424   25.8856 H   0  0  0  0  0  0
  -20.9374  -29.8773   21.6900 H   0  0  0  0  0  0
  -26.0167  -38.2852   24.1416 H   0  0  0  0  0  0
  -30.2625  -20.0036   21.4028 H   0  0  0  0  0  0
  -27.3666  -19.7820   17.4312 H   0  0  0  0  0  0
  -31.2860  -17.4631   20.3957 H   0  0  0  0  0  0
  -28.6926  -15.8892   20.2897 H   0  0  0  0  0  0
  -27.0783  -15.9523   17.2010 H   0  0  0  0  0  0
  -26.3820  -17.5552   17.4312 H   0  0  0  0  0  0
  -26.8635  -16.6038   18.8261 H   0  0  0  0  0  0
  -24.1579  -22.8341   17.7184 H   0  0  0  0  0  0
  -25.5883  -22.8397   16.6901 H   0  0  0  0  0  0
  -25.4861  -23.9408   18.0599 H   0  0  0  0  0  0
  -27.7135  -23.9716   22.5105 H   0  0  0  0  0  0
  -27.2274  -25.6600   22.4775 H   0  0  0  0  0  0
  -28.9371  -25.2373   22.5637 H   0  0  0  0  0  0
  -29.2900  -16.7062   17.9314 H   0  0  0  0  0  0
  -28.7345  -17.8180   16.7483 H   0  0  0  0  0  0
  -25.6154  -20.8908   18.2501 H   0  0  0  0  0  0
  -25.5151  -21.9629   19.6306 H   0  0  0  0  0  0
  -30.0764  -24.1594   20.3086 H   0  0  0  0  0  0
  -29.0502  -23.6727   19.0305 H   0  0  0  0  0  0
  -27.0808  -24.6162   20.2361 H   0  0  0  0  0  0
  1 25  1  0  0  0
  1 30  2  0  0  0
  1 78  1  0  0  0
  2  3  1  0  0  0
  2 25  1  0  0  0
  2 88  1  0  0  0
  2 89  1  0  0  0
  3  4  1  0  0  0
  3 90  1  0  0  0
  3 91  1  0  0  0
  4  5  1  0  0  0
  4 92  1  0  0  0
  4 93  1  0  0  0
  5  6  1  0  0  0
  5 26  1  0  0  0
  5 94  1  0  0  0
  6 25  1  0  0  0
  6 95  1  0  0  0
  6 96  1  0  0  0
  7  8  2  0  0  0
  7 26  1  0  0  0
  7 29  1  0  0  0
  8  9  1  0  0  0
  8 22  1  0  0  0
  9 10  1  0  0  0
  9 27  2  0  0  0
 10 11  2  0  0  0
 10 15  1  0  0  0
 11 12  1  0  0  0
 11 97  1  0  0  0
 12 13  2  0  0  0
 12 98  1  0  0  0
 13 14  1  0  0  0
 13 31  1  0  0  0
 14 15  2  0  0  0
 14 99  1  0  0  0
 15100  1  0  0  0
 16 17  2  0  0  0
 16 21  1  0  0  0
 16 31  1  0  0  0
 17 18  1  0  0  0
 17101  1  0  0  0
 18 19  2  0  0  0
 18102  1  0  0  0
 19 20  1  0  0  0
 19 24  1  0  0  0
 20 21  2  0  0  0
 20103  1  0  0  0
 21 23  1  0  0  0
 22 28  1  0  0  0
 22 32  2  0  0  0
 26 27  1  0  0  0
 28104  1  0  0  0
 28105  1  0  0  0
 29106  1  0  0  0
 29107  1  0  0  0
 33 34  1  0  0  0
 33 66  1  0  0  0
 33 70  2  0  0  0
 34 36  1  0  0  0
 34 59  1  0  0  0
 34108  1  0  0  0
 35 44  2  0  0  0
 35 45  1  0  0  0
 35 68  1  0  0  0
 36 56  1  0  0  0
 36109  1  0  0  0
 37 39  1  0  0  0
 37 47  1  0  0  0
 37 66  1  0  0  0
 37110  1  0  0  0
 38 43  2  0  0  0
 38 46  1  0  0  0
 38 47  1  0  0  0
 39 64  1  0  0  0
 39 67  2  0  0  0
 40 52  1  0  0  0
 40 53  2  0  0  0
 40 58  1  0  0  0
 41111  1  0  0  0
 41112  1  0  0  0
 41113  1  0  0  0
 41 48  1  0  0  0
 42 43  1  0  0  0
 42 66  1  0  0  0
 42114  1  0  0  0
 42115  1  0  0  0
 43 44  1  0  0  0
 44116  1  0  0  0
 45 46  2  0  0  0
 45117  1  0  0  0
 46118  1  0  0  0
 47119  1  0  0  0
 47120  1  0  0  0
 48 56  1  0  0  0
 48 65  1  0  0  0
 48121  1  0  0  0
 49 50  1  0  0  0
 49 53  1  0  0  0
 49 64  1  0  0  0
 49122  1  0  0  0
 50 51  1  0  0  0
 50123  1  0  0  0
 50124  1  0  0  0
 51 52  1  0  0  0
 51125  1  0  0  0
 51126  1  0  0  0
 52127  1  0  0  0
 52128  1  0  0  0
 53 54  1  0  0  0
 54 55  2  0  0  0
 54129  1  0  0  0
 55 57  1  0  0  0
 55130  1  0  0  0
 56 69  2  0  0  0
 57 58  2  0  0  0
 57131  1  0  0  0
 58132  1  0  0  0
 59 60  1  0  0  0
 59 61  1  0  0  0
 59 62  1  0  0  0
 60133  1  0  0  0
 60134  1  0  0  0
 60135  1  0  0  0
 61136  1  0  0  0
 61137  1  0  0  0
 61138  1  0  0  0
 62139  1  0  0  0
 62140  1  0  0  0
 62141  1  0  0  0
 63 65  1  0  0  0
 63142  1  0  0  0
 63143  1  0  0  0
 63144  1  0  0  0
 64145  1  0  0  0
 65146  1  0  0  0
 68 85  1  0  0  0
 71 73  2  0  0  0
 71 75  1  0  0  0
 71147  1  0  0  0
 72 74  2  0  0  0
 72 76  1  0  0  0
 72148  1  0  0  0
 73 74  1  0  0  0
 73 77  1  0  0  0
 74 82  1  0  0  0
 75 76  2  0  0  0
 75 86  1  0  0  0
 76 87  1  0  0  0
 77 78  2  0  0  0
 77149  1  0  0  0
 78150  1  0  0  0
 79 82  1  0  0  0
 79151  1  0  0  0
 79152  1  0  0  0
 79153  1  0  0  0
 80 83  1  0  0  0
 80154  1  0  0  0
 80155  1  0  0  0
 80156  1  0  0  0
 81157  1  0  0  0
 81158  1  0  0  0
 81159  1  0  0  0
 81 85  1  0  0  0
 82160  1  0  0  0
 82161  1  0  0  0
 83 87  1  0  0  0
 83162  1  0  0  0
 83163  1  0  0  0
 84 85  1  0  0  0
 84 86  1  0  0  0
 84164  1  0  0  0
 84165  1  0  0  0
 85166  1  0  0  0
M  ISO  4   1 100  68 101  78 100  85 101
M  END
> <chiral flag>
0

> <version>
0

> <s_m_source_file>
/data/baiqing/PycharmProjects/Reinvent-master-3.2/result/LINK_invent/BTK/process_docking_weight1_custom_product_contain_oxygen_bond_distance_aromatic_linkinvent_7_9_3/rearranged_h_0138.sdf

> <i_m_source_file_index>
86

> <r_mmod_Potential_Energy-OPLS-2005>
252.725051879883

> <r_mmod_Stretch_Energy-OPLS-2005>
127.946975708008

> <r_mmod_Bend_Energy-OPLS-2005>
171.897354125977

> <r_mmod_Torsional_Energy-OPLS-2005>
264.863647460938

> <r_mmod_Improper_Torsional_Energy-OPLS-2005>
10.9224481582642

> <r_mmod_Van_der_Waal_Energy-OPLS-2005>
139.168319702148

> <r_mmod_Electrostatic_Energy-OPLS-2005>
-360.575378417969

> <r_mmod_Solvation_Energy-OPLS-2005>
-193.739562988281

> <b_mmod_Minimization_Converged-OPLS-2005>
0

> <r_mmod_RMS_Derivative-OPLS-2005>
2.50701832771301

$$$$
86
                    3D
 Structure written by MMmdl.
161169  0  0  1  0            999 V2000
  -30.6244  -14.6961   20.5695 C   0  0  0  0  0  0
  -30.4566  -12.4421   19.4589 C   0  0  0  0  0  0
  -29.5208  -12.5232   18.2291 C   0  0  0  0  0  0
  -28.0459  -12.3403   18.6401 C   0  0  0  0  0  0
  -27.6616  -13.2140   19.8627 C   0  0  2  0  0  0
  -28.7044  -13.0581   20.9907 C   0  0  0  0  0  0
  -25.2620  -13.8151   20.5669 C   0  0  0  0  0  0
  -24.1881  -13.0435   20.9149 C   0  0  0  0  0  0
  -24.6438  -11.6894   20.8716 C   0  0  0  0  0  0
  -23.9095  -10.4283   21.0404 C   0  0  0  0  0  0
  -24.3622   -9.4185   21.9190 C   0  0  0  0  0  0
  -23.6276   -8.2236   22.0769 C   0  0  0  0  0  0
  -22.4264   -8.0272   21.3547 C   0  0  0  0  0  0
  -21.9906   -9.0265   20.4663 C   0  0  0  0  0  0
  -22.7266  -10.2126   20.3068 C   0  0  0  0  0  0
  -21.6850   -6.0734   22.5286 C   0  0  0  0  0  0
  -21.4020   -6.5642   23.8215 C   0  0  0  0  0  0
  -21.3655   -5.6790   24.9176 C   0  0  0  0  0  0
  -21.6049   -4.3058   24.7227 C   0  0  0  0  0  0
  -21.8815   -3.8144   23.4349 C   0  0  0  0  0  0
  -21.9189   -4.6960   22.3400 C   0  0  0  0  0  0
  -22.7897  -13.5225   21.1803 C   0  0  0  0  0  0
  -22.1658   -4.2152   21.0975 F   0  0  0  0  0  0
  -21.5624   -3.4535   25.7731 F   0  0  0  0  0  0
  -30.0178  -13.4565   20.4488 N   0  0  0  0  0  0
  -26.3039  -12.9332   20.3282 N   0  0  0  0  0  0
  -25.9364  -11.6489   20.5742 N   0  0  0  0  0  0
  -22.0532  -12.8237   22.0363 N   0  0  0  0  0  0
  -25.4371  -15.1869   20.4107 N   0  0  0  0  0  0
  -31.7104  -14.8958   20.0174 O   0  0  0  0  0  0
  -21.6630   -6.8877   21.4245 O   0  0  0  0  0  0
  -22.3567  -14.5526   20.6652 O   0  0  0  0  0  0
  -24.6319  -31.8573   23.2006 C   0  0  0  0  0  0
  -25.9157  -32.4762   23.8346 C   0  0  1  0  0  0
  -27.2176  -27.2647   20.1139 C   0  0  0  0  0  0
  -25.5958  -33.8564   24.2272 N   0  0  0  0  0  0
  -23.4267  -30.4846   21.5454 C   0  0  2  0  0  0
  -24.8692  -28.9373   20.1104 C   0  0  0  0  0  0
  -22.7505  -29.4614   22.4904 C   0  0  0  0  0  0
  -18.0301  -28.1387   22.8489 C   0  0  0  0  0  0
  -24.1487  -36.7281   23.2639 C   0  0  0  0  0  0
  -25.9759  -30.7683   21.3814 C   0  0  0  0  0  0
  -26.0442  -29.3945   20.7192 C   0  0  0  0  0  0
  -27.2183  -28.5724   20.7111 C   0  0  0  0  0  0
  -26.0041  -26.8754   19.4931 C   0  0  0  0  0  0
  -24.8541  -27.6833   19.4886 C   0  0  0  0  0  0
  -23.6436  -29.8284   20.1583 C   0  0  0  0  0  0
  -25.4114  -36.3077   24.0326 C   0  0  1  0  0  0
  -20.5905  -28.3705   23.1258 C   0  0  2  0  0  0
  -20.6785  -26.9419   22.5408 C   0  0  0  0  0  0
  -19.5763  -26.6381   21.5214 C   0  0  0  0  0  0
  -18.1941  -26.7932   22.1620 C   0  0  0  0  0  0
  -19.1557  -28.8862   23.2867 C   0  0  0  0  0  0
  -18.9473  -30.1457   23.8892 C   0  0  0  0  0  0
  -17.6469  -30.6586   24.0560 C   0  0  0  0  0  0
  -25.9064  -34.9447   23.5103 C   0  0  0  0  0  0
  -16.5359  -29.9082   23.6330 C   0  0  0  0  0  0
  -16.7282  -28.6499   23.0351 C   0  0  0  0  0  0
  -26.4505  -31.6583   25.0746 C   0  0  0  0  0  0
  -25.3714  -31.3727   26.1451 C   0  0  0  0  0  0
  -27.0360  -30.3006   24.6233 C   0  0  0  0  0  0
  -27.6050  -32.4326   25.7530 C   0  0  0  0  0  0
  -27.5580  -37.1804   24.8463 C   0  0  0  0  0  0
  -21.4213  -29.3062   22.3657 N   0  0  0  0  0  0
  -26.4290  -37.3777   23.9407 N   0  0  0  0  0  0
  -24.6978  -31.0533   22.0988 N   0  0  0  0  0  0
  -23.4208  -28.8146   23.2997 O   0  0  0  0  0  0
  -28.3269  -26.3757   20.1654 O   0  0  0  0  0  0
  -26.5630  -34.8917   22.4671 O   0  0  0  0  0  0
  -23.5470  -32.1397   23.7305 O   0  0  0  0  0  0
  -30.9492  -19.6156   18.8311 C   0  0  0  0  0  0
  -30.7333  -18.4173   19.5461 C   0  0  0  0  0  0
  -30.2977  -20.8206   19.1762 C   0  0  0  0  0  0
  -29.8811  -18.3830   20.6653 C   0  0  0  0  0  0
  -29.3882  -20.8856   20.2525 C   0  0  0  0  0  0
  -29.1949  -19.6404   20.9956 C   0  0  0  0  0  0
  -29.7094  -17.0727   21.4653 C   0  0  0  0  0  0
  -29.9596  -15.7005   21.4598 C   0  0  0  0  0  0
  -28.8950  -20.0380   23.4916 C   0  0  0  0  0  0
  -28.2800  -24.8917   18.2333 C   0  0  0  0  0  0
  -28.5392  -22.2381   20.4347 C   0  0  0  0  0  0
  -28.2158  -19.6492   22.1702 C   0  0  0  0  0  0
  -29.1330  -23.7463   20.3461 C   0  0  0  0  0  0
  -28.1749  -24.9286   19.7729 C   0  0  1  0  0  0
  -31.4934  -12.5854   19.1517 H   0  0  0  0  0  0
  -30.4227  -11.4440   19.8982 H   0  0  0  0  0  0
  -29.7974  -11.7648   17.4950 H   0  0  0  0  0  0
  -29.6529  -13.4895   17.7370 H   0  0  0  0  0  0
  -27.8968  -11.2873   18.8816 H   0  0  0  0  0  0
  -27.3915  -12.5496   17.7939 H   0  0  0  0  0  0
  -27.6867  -14.2515   19.5255 H   0  0  0  0  0  0
  -28.7387  -12.0195   21.3202 H   0  0  0  0  0  0
  -28.4003  -13.6182   21.8736 H   0  0  0  0  0  0
  -25.2789   -9.5636   22.4742 H   0  0  0  0  0  0
  -23.9981   -7.4625   22.7489 H   0  0  0  0  0  0
  -21.0844   -8.8797   19.8964 H   0  0  0  0  0  0
  -22.3754  -10.9654   19.6151 H   0  0  0  0  0  0
  -21.2020   -7.6152   23.9712 H   0  0  0  0  0  0
  -21.1486   -6.0533   25.9078 H   0  0  0  0  0  0
  -22.0599   -2.7608   23.2855 H   0  0  0  0  0  0
  -22.4140  -11.9892   22.4744 H   0  0  0  0  0  0
  -21.1162  -13.1285   22.2581 H   0  0  0  0  0  0
  -24.6804  -15.8524   20.5238 H   0  0  0  0  0  0
  -26.3064  -15.6190   20.1212 H   0  0  0  0  0  0
  -26.7233  -32.5394   23.1082 H   0  0  0  0  0  0
  -25.0111  -33.9702   25.0424 H   0  0  0  0  0  0
  -22.7240  -31.3088   21.4059 H   0  0  0  0  0  0
  -23.3758  -35.9606   23.3286 H   0  0  0  0  0  0
  -24.3578  -36.8920   22.2057 H   0  0  0  0  0  0
  -23.7222  -37.6471   23.6669 H   0  0  0  0  0  0
  -26.1215  -31.5291   20.6131 H   0  0  0  0  0  0
  -26.8523  -30.8098   22.0176 H   0  0  0  0  0  0
  -28.1160  -28.9216   21.2010 H   0  0  0  0  0  0
  -25.8891  -25.9179   19.0114 H   0  0  0  0  0  0
  -23.9534  -27.3243   19.0090 H   0  0  0  0  0  0
  -23.7756  -30.6123   19.4104 H   0  0  0  0  0  0
  -22.7570  -29.2728   19.8458 H   0  0  0  0  0  0
  -25.1291  -36.1932   25.0816 H   0  0  0  0  0  0
  -21.0002  -28.3288   24.1375 H   0  0  0  0  0  0
  -20.5682  -26.2319   23.3619 H   0  0  0  0  0  0
  -21.6651  -26.7431   22.1207 H   0  0  0  0  0  0
  -19.6917  -25.6286   21.1256 H   0  0  0  0  0  0
  -19.6695  -27.3181   20.6738 H   0  0  0  0  0  0
  -17.4208  -26.6690   21.4015 H   0  0  0  0  0  0
  -18.0320  -26.0069   22.9014 H   0  0  0  0  0  0
  -19.7938  -30.7285   24.2254 H   0  0  0  0  0  0
  -17.5011  -31.6265   24.5166 H   0  0  0  0  0  0
  -15.5353  -30.2978   23.7646 H   0  0  0  0  0  0
  -15.8683  -28.0810   22.7064 H   0  0  0  0  0  0
  -24.5909  -30.7050   25.7768 H   0  0  0  0  0  0
  -24.8873  -32.2893   26.4840 H   0  0  0  0  0  0
  -25.8023  -30.8931   27.0250 H   0  0  0  0  0  0
  -26.2959  -29.6757   24.1217 H   0  0  0  0  0  0
  -27.4006  -29.7257   25.4755 H   0  0  0  0  0  0
  -27.8849  -30.4283   23.9509 H   0  0  0  0  0  0
  -27.2653  -33.3629   26.2087 H   0  0  0  0  0  0
  -28.3877  -32.6877   25.0376 H   0  0  0  0  0  0
  -28.0697  -31.8465   26.5466 H   0  0  0  0  0  0
  -28.2585  -38.0117   24.7528 H   0  0  0  0  0  0
  -28.1094  -36.2645   24.6266 H   0  0  0  0  0  0
  -27.2304  -37.1426   25.8871 H   0  0  0  0  0  0
  -20.9393  -29.8808   21.6887 H   0  0  0  0  0  0
  -26.0165  -38.2852   24.1417 H   0  0  0  0  0  0
  -31.6246  -19.6092   17.9877 H   0  0  0  0  0  0
  -31.2523  -17.5208   19.2375 H   0  0  0  0  0  0
  -30.4689  -21.6978   18.5663 H   0  0  0  0  0  0
  -29.2506  -17.2926   22.4138 H   0  0  0  0  0  0
  -29.6130  -15.2476   22.3746 H   0  0  0  0  0  0
  -29.2858  -21.0553   23.4501 H   0  0  0  0  0  0
  -29.7272  -19.3747   23.7256 H   0  0  0  0  0  0
  -28.1930  -19.9884   24.3242 H   0  0  0  0  0  0
  -28.0859  -23.8909   17.8481 H   0  0  0  0  0  0
  -29.2799  -25.1802   17.9076 H   0  0  0  0  0  0
  -27.5881  -25.5683   17.7377 H   0  0  0  0  0  0
  -27.9918  -22.2083   21.3732 H   0  0  0  0  0  0
  -27.7673  -22.1636   19.6691 H   0  0  0  0  0  0
  -27.7219  -18.6843   22.2651 H   0  0  0  0  0  0
  -27.3773  -20.3134   21.9739 H   0  0  0  0  0  0
  -30.0417  -23.7296   19.7448 H   0  0  0  0  0  0
  -29.4663  -24.0239   21.3460 H   0  0  0  0  0  0
  -27.1781  -24.6222   20.0873 H   0  0  0  0  0  0
  1 25  1  0  0  0
  1 30  2  0  0  0
  1 78  1  0  0  0
  2  3  1  0  0  0
  2 25  1  0  0  0
  2 85  1  0  0  0
  2 86  1  0  0  0
  3  4  1  0  0  0
  3 87  1  0  0  0
  3 88  1  0  0  0
  4  5  1  0  0  0
  4 89  1  0  0  0
  4 90  1  0  0  0
  5  6  1  0  0  0
  5 26  1  0  0  0
  5 91  1  0  0  0
  6 25  1  0  0  0
  6 92  1  0  0  0
  6 93  1  0  0  0
  7  8  2  0  0  0
  7 26  1  0  0  0
  7 29  1  0  0  0
  8  9  1  0  0  0
  8 22  1  0  0  0
  9 10  1  0  0  0
  9 27  2  0  0  0
 10 11  2  0  0  0
 10 15  1  0  0  0
 11 12  1  0  0  0
 11 94  1  0  0  0
 12 13  2  0  0  0
 12 95  1  0  0  0
 13 14  1  0  0  0
 13 31  1  0  0  0
 14 15  2  0  0  0
 14 96  1  0  0  0
 15 97  1  0  0  0
 16 17  2  0  0  0
 16 21  1  0  0  0
 16 31  1  0  0  0
 17 18  1  0  0  0
 17 98  1  0  0  0
 18 19  2  0  0  0
 18 99  1  0  0  0
 19 20  1  0  0  0
 19 24  1  0  0  0
 20 21  2  0  0  0
 20100  1  0  0  0
 21 23  1  0  0  0
 22 28  1  0  0  0
 22 32  2  0  0  0
 26 27  1  0  0  0
 28101  1  0  0  0
 28102  1  0  0  0
 29103  1  0  0  0
 29104  1  0  0  0
 33 34  1  0  0  0
 33 66  1  0  0  0
 33 70  2  0  0  0
 34 36  1  0  0  0
 34 59  1  0  0  0
 34105  1  0  0  0
 35 44  2  0  0  0
 35 45  1  0  0  0
 35 68  1  0  0  0
 36 56  1  0  0  0
 36106  1  0  0  0
 37 39  1  0  0  0
 37 47  1  0  0  0
 37 66  1  0  0  0
 37107  1  0  0  0
 38 43  2  0  0  0
 38 46  1  0  0  0
 38 47  1  0  0  0
 39 64  1  0  0  0
 39 67  2  0  0  0
 40 52  1  0  0  0
 40 53  2  0  0  0
 40 58  1  0  0  0
 41108  1  0  0  0
 41109  1  0  0  0
 41110  1  0  0  0
 41 48  1  0  0  0
 42 43  1  0  0  0
 42 66  1  0  0  0
 42111  1  0  0  0
 42112  1  0  0  0
 43 44  1  0  0  0
 44113  1  0  0  0
 45 46  2  0  0  0
 45114  1  0  0  0
 46115  1  0  0  0
 47116  1  0  0  0
 47117  1  0  0  0
 48 56  1  0  0  0
 48 65  1  0  0  0
 48118  1  0  0  0
 49 50  1  0  0  0
 49 53  1  0  0  0
 49 64  1  0  0  0
 49119  1  0  0  0
 50 51  1  0  0  0
 50120  1  0  0  0
 50121  1  0  0  0
 51 52  1  0  0  0
 51122  1  0  0  0
 51123  1  0  0  0
 52124  1  0  0  0
 52125  1  0  0  0
 53 54  1  0  0  0
 54 55  2  0  0  0
 54126  1  0  0  0
 55 57  1  0  0  0
 55127  1  0  0  0
 56 69  2  0  0  0
 57 58  2  0  0  0
 57128  1  0  0  0
 58129  1  0  0  0
 59 60  1  0  0  0
 59 61  1  0  0  0
 59 62  1  0  0  0
 60130  1  0  0  0
 60131  1  0  0  0
 60132  1  0  0  0
 61133  1  0  0  0
 61134  1  0  0  0
 61135  1  0  0  0
 62136  1  0  0  0
 62137  1  0  0  0
 62138  1  0  0  0
 63 65  1  0  0  0
 63139  1  0  0  0
 63140  1  0  0  0
 63141  1  0  0  0
 64142  1  0  0  0
 65143  1  0  0  0
 68 84  1  0  0  0
 71 72  2  0  0  0
 71 73  1  0  0  0
 71144  1  0  0  0
 72 74  1  0  0  0
 72145  1  0  0  0
 73 75  2  0  0  0
 73146  1  0  0  0
 74 76  2  0  0  0
 74 77  1  0  0  0
 75 76  1  0  0  0
 75 81  1  0  0  0
 76 82  1  0  0  0
 77 78  2  0  0  0
 77147  1  0  0  0
 78148  1  0  0  0
 79 82  1  0  0  0
 79149  1  0  0  0
 79150  1  0  0  0
 79151  1  0  0  0
 80152  1  0  0  0
 80153  1  0  0  0
 80154  1  0  0  0
 80 84  1  0  0  0
 81 83  1  0  0  0
 81155  1  0  0  0
 81156  1  0  0  0
 82157  1  0  0  0
 82158  1  0  0  0
 83 84  1  0  0  0
 83159  1  0  0  0
 83160  1  0  0  0
 84161  1  0  0  0
M  ISO  4   1 100  68 101  78 100  84 101
M  END
> <chiral flag>
0

> <version>
0

> <s_m_source_file>
/data/baiqing/PycharmProjects/Reinvent-master-3.2/result/LINK_invent/BTK/process_docking_weight1_custom_product_contain_oxygen_bond_distance_aromatic_linkinvent_7_9_3/rearranged_h_0138.sdf

> <i_m_source_file_index>
87

> <r_mmod_Potential_Energy-OPLS-2005>
241.992431640625

> <r_mmod_Stretch_Energy-OPLS-2005>
133.610534667969

> <r_mmod_Bend_Energy-OPLS-2005>
237.116973876953

> <r_mmod_Torsional_Energy-OPLS-2005>
187.07893371582

> <r_mmod_Improper_Torsional_Energy-OPLS-2005>
3.41384506225586

> <r_mmod_Van_der_Waal_Energy-OPLS-2005>
150.574829101562

> <r_mmod_Electrostatic_Energy-OPLS-2005>
-351.559906005859

> <r_mmod_Solvation_Energy-OPLS-2005>
-188.535552978516

> <b_mmod_Minimization_Converged-OPLS-2005>
0

> <r_mmod_RMS_Derivative-OPLS-2005>
2.99471235275269

$$$$
87
                    3D
 Structure written by MMmdl.
159167  0  0  1  0            999 V2000
  -30.5550  -14.9967   20.3215 C   0  0  0  0  0  0
  -30.4301  -12.6094   19.4913 C   0  0  0  0  0  0
  -29.5215  -12.5076   18.2474 C   0  0  0  0  0  0
  -28.0525  -12.3141   18.6602 C   0  0  0  0  0  0
  -27.6201  -13.2612   19.8130 C   0  0  2  0  0  0
  -28.6667  -13.3418   20.9431 C   0  0  0  0  0  0
  -25.2418  -13.8266   20.5675 C   0  0  0  0  0  0
  -24.1772  -13.0459   20.9244 C   0  0  0  0  0  0
  -24.6426  -11.6961   20.8758 C   0  0  0  0  0  0
  -23.9134  -10.4299   21.0392 C   0  0  0  0  0  0
  -24.3670   -9.4219   21.9180 C   0  0  0  0  0  0
  -23.6340   -8.2253   22.0743 C   0  0  0  0  0  0
  -22.4316   -8.0278   21.3548 C   0  0  0  0  0  0
  -21.9957   -9.0264   20.4662 C   0  0  0  0  0  0
  -22.7291  -10.2138   20.3059 C   0  0  0  0  0  0
  -21.6891   -6.0758   22.5290 C   0  0  0  0  0  0
  -21.4047   -6.5643   23.8227 C   0  0  0  0  0  0
  -21.3662   -5.6765   24.9164 C   0  0  0  0  0  0
  -21.6047   -4.3032   24.7209 C   0  0  0  0  0  0
  -21.8837   -3.8160   23.4322 C   0  0  0  0  0  0
  -21.9211   -4.6989   22.3394 C   0  0  0  0  0  0
  -22.7775  -13.5222   21.1883 C   0  0  0  0  0  0
  -22.1647   -4.2182   21.0964 F   0  0  0  0  0  0
  -21.5633   -3.4510   25.7718 F   0  0  0  0  0  0
  -29.9275  -13.7465   20.3151 N   0  0  0  0  0  0
  -26.2867  -12.9521   20.3173 N   0  0  0  0  0  0
  -25.9365  -11.6651   20.5740 N   0  0  0  0  0  0
  -22.0410  -12.8244   22.0433 N   0  0  0  0  0  0
  -25.4022  -15.1991   20.4058 N   0  0  0  0  0  0
  -31.7827  -14.9624   20.1959 O   0  0  0  0  0  0
  -21.6650   -6.8908   21.4252 O   0  0  0  0  0  0
  -22.3454  -14.5511   20.6672 O   0  0  0  0  0  0
  -24.6494  -31.8463   23.1822 C   0  0  0  0  0  0
  -25.9225  -32.4682   23.8277 C   0  0  1  0  0  0
  -27.1981  -27.0936   20.1532 C   0  0  0  0  0  0
  -25.6007  -33.8494   24.2254 N   0  0  0  0  0  0
  -23.4500  -30.4594   21.5306 C   0  0  2  0  0  0
  -24.8909  -28.8741   20.1119 C   0  0  0  0  0  0
  -22.7577  -29.4536   22.4839 C   0  0  0  0  0  0
  -18.0337  -28.1385   22.8472 C   0  0  0  0  0  0
  -24.1487  -36.7219   23.2630 C   0  0  0  0  0  0
  -26.0071  -30.6991   21.3854 C   0  0  0  0  0  0
  -26.0725  -29.3030   20.7361 C   0  0  0  0  0  0
  -27.2271  -28.4303   20.7311 C   0  0  0  0  0  0
  -25.9941  -26.7662   19.5014 C   0  0  0  0  0  0
  -24.8704  -27.6224   19.4766 C   0  0  0  0  0  0
  -23.6785  -29.7930   20.1490 C   0  0  0  0  0  0
  -25.4111  -36.3019   24.0344 C   0  0  1  0  0  0
  -20.5941  -28.3728   23.1244 C   0  0  2  0  0  0
  -20.6807  -26.9427   22.5394 C   0  0  0  0  0  0
  -19.5766  -26.6382   21.5203 C   0  0  0  0  0  0
  -18.1965  -26.7929   22.1625 C   0  0  0  0  0  0
  -19.1576  -28.8874   23.2847 C   0  0  0  0  0  0
  -18.9480  -30.1472   23.8853 C   0  0  0  0  0  0
  -17.6461  -30.6557   24.0566 C   0  0  0  0  0  0
  -25.9088  -34.9394   23.5093 C   0  0  0  0  0  0
  -16.5371  -29.9053   23.6308 C   0  0  0  0  0  0
  -16.7311  -28.6482   23.0327 C   0  0  0  0  0  0
  -26.4580  -31.6487   25.0680 C   0  0  0  0  0  0
  -25.3794  -31.3605   26.1361 C   0  0  0  0  0  0
  -27.0428  -30.2892   24.6195 C   0  0  0  0  0  0
  -27.6174  -32.4189   25.7438 C   0  0  0  0  0  0
  -27.5563  -37.1770   24.8476 C   0  0  0  0  0  0
  -21.4262  -29.3051   22.3604 N   0  0  0  0  0  0
  -26.4277  -37.3736   23.9423 N   0  0  0  0  0  0
  -24.7223  -31.0262   22.0896 N   0  0  0  0  0  0
  -23.4205  -28.8121   23.3010 O   0  0  0  0  0  0
  -28.2620  -26.1209   20.1157 O   0  0  0  0  0  0
  -26.5604  -34.8913   22.4637 O   0  0  0  0  0  0
  -23.5590  -32.1394   23.6963 O   0  0  0  0  0  0
  -30.5976  -19.7058   18.7160 C   0  0  0  0  0  0
  -29.7985  -18.9704   19.6639 C   0  0  0  0  0  0
  -31.4896  -18.9877   17.9823 C   0  0  0  0  0  0
  -30.1861  -17.5325   19.6794 C   0  0  0  0  0  0
  -32.4098  -19.4704   16.8945 C   0  0  0  0  0  0
  -26.7839  -22.7580   19.4992 C   0  0  0  0  0  0
  -28.9902  -23.3372   18.5181 C   0  0  0  0  0  0
  -28.7114  -20.0231   20.2988 C   0  0  0  0  0  0
  -28.9135  -21.7141   20.5640 C   0  0  0  0  0  0
  -28.1776  -24.6368   20.6257 C   0  0  0  0  0  0
  -28.2431  -23.1149   19.8385 C   0  0  0  0  0  0
  -29.8353  -16.2489   20.2756 N   0  0  0  0  0  0
  -31.4356  -17.3315   18.4333 S   0  0  0  0  0  0
  -31.4653  -12.7579   19.1741 H   0  0  0  0  0  0
  -30.4228  -11.6828   20.0684 H   0  0  0  0  0  0
  -29.8410  -11.6770   17.6150 H   0  0  0  0  0  0
  -29.6237  -13.4105   17.6426 H   0  0  0  0  0  0
  -27.9352  -11.2797   18.9736 H   0  0  0  0  0  0
  -27.4002  -12.4549   17.7980 H   0  0  0  0  0  0
  -27.5712  -14.2507   19.3608 H   0  0  0  0  0  0
  -28.7717  -12.3915   21.4705 H   0  0  0  0  0  0
  -28.3716  -14.0813   21.6868 H   0  0  0  0  0  0
  -25.2833   -9.5686   22.4729 H   0  0  0  0  0  0
  -24.0074   -7.4659   22.7456 H   0  0  0  0  0  0
  -21.0900   -8.8816   19.8976 H   0  0  0  0  0  0
  -22.3792  -10.9669   19.6145 H   0  0  0  0  0  0
  -21.2034   -7.6153   23.9751 H   0  0  0  0  0  0
  -21.1449   -6.0472   25.9071 H   0  0  0  0  0  0
  -22.0618   -2.7636   23.2791 H   0  0  0  0  0  0
  -22.4021  -11.9957   22.4914 H   0  0  0  0  0  0
  -21.1004  -13.1255   22.2578 H   0  0  0  0  0  0
  -24.6186  -15.8389   20.4799 H   0  0  0  0  0  0
  -26.2483  -15.6500   20.0814 H   0  0  0  0  0  0
  -26.7282  -32.5286   23.1009 H   0  0  0  0  0  0
  -25.0315  -33.9662   25.0517 H   0  0  0  0  0  0
  -22.7508  -31.2830   21.3734 H   0  0  0  0  0  0
  -23.3777  -35.9509   23.3270 H   0  0  0  0  0  0
  -24.3583  -36.8843   22.2042 H   0  0  0  0  0  0
  -23.7233  -37.6416   23.6660 H   0  0  0  0  0  0
  -26.1574  -31.4407   20.5992 H   0  0  0  0  0  0
  -26.8825  -30.7616   22.0208 H   0  0  0  0  0  0
  -28.1342  -28.7497   21.2198 H   0  0  0  0  0  0
  -25.9194  -25.8158   18.9935 H   0  0  0  0  0  0
  -23.9774  -27.2932   18.9657 H   0  0  0  0  0  0
  -23.8339  -30.5742   19.4040 H   0  0  0  0  0  0
  -22.7894  -29.2534   19.8205 H   0  0  0  0  0  0
  -25.1302  -36.1844   25.0843 H   0  0  0  0  0  0
  -21.0048  -28.3261   24.1352 H   0  0  0  0  0  0
  -20.5691  -26.2332   23.3611 H   0  0  0  0  0  0
  -21.6701  -26.7426   22.1200 H   0  0  0  0  0  0
  -19.6949  -25.6291   21.1246 H   0  0  0  0  0  0
  -19.6697  -27.3181   20.6726 H   0  0  0  0  0  0
  -17.4254  -26.6685   21.4010 H   0  0  0  0  0  0
  -18.0326  -26.0093   22.9037 H   0  0  0  0  0  0
  -19.7968  -30.7307   24.2191 H   0  0  0  0  0  0
  -17.5028  -31.6227   24.5180 H   0  0  0  0  0  0
  -15.5368  -30.2932   23.7648 H   0  0  0  0  0  0
  -15.8742  -28.0784   22.7031 H   0  0  0  0  0  0
  -24.6074  -30.6836   25.7682 H   0  0  0  0  0  0
  -24.8858  -32.2721   26.4715 H   0  0  0  0  0  0
  -25.8131  -30.8865   27.0186 H   0  0  0  0  0  0
  -26.3029  -29.6590   24.1241 H   0  0  0  0  0  0
  -27.4133  -29.7167   25.4716 H   0  0  0  0  0  0
  -27.8907  -30.4120   23.9458 H   0  0  0  0  0  0
  -27.2886  -33.3551   26.1946 H   0  0  0  0  0  0
  -28.4038  -32.6602   25.0278 H   0  0  0  0  0  0
  -28.0795  -31.8330   26.5392 H   0  0  0  0  0  0
  -28.2587  -38.0060   24.7534 H   0  0  0  0  0  0
  -28.1078  -36.2609   24.6312 H   0  0  0  0  0  0
  -27.2293  -37.1410   25.8883 H   0  0  0  0  0  0
  -20.9444  -29.8786   21.6827 H   0  0  0  0  0  0
  -26.0132  -38.2801   24.1424 H   0  0  0  0  0  0
  -30.4589  -20.7669   18.5656 H   0  0  0  0  0  0
  -31.8594  -19.9816   16.1035 H   0  0  0  0  0  0
  -32.9511  -18.6470   16.4245 H   0  0  0  0  0  0
  -33.1476  -20.1685   17.2847 H   0  0  0  0  0  0
  -26.7168  -21.8791   18.8575 H   0  0  0  0  0  0
  -26.2832  -23.5717   18.9719 H   0  0  0  0  0  0
  -26.2051  -22.5462   20.3983 H   0  0  0  0  0  0
  -28.8853  -22.4814   17.8507 H   0  0  0  0  0  0
  -30.0539  -23.5031   18.6970 H   0  0  0  0  0  0
  -28.6008  -24.2103   17.9919 H   0  0  0  0  0  0
  -28.4543  -19.6155   21.2743 H   0  0  0  0  0  0
  -27.7852  -19.9069   19.7363 H   0  0  0  0  0  0
  -29.9753  -21.8923   20.7217 H   0  0  0  0  0  0
  -28.5100  -21.8173   21.5745 H   0  0  0  0  0  0
  -29.0296  -24.5971   21.3038 H   0  0  0  0  0  0
  -27.3263  -24.6109   21.3070 H   0  0  0  0  0  0
  -28.8643  -16.1543   20.5313 H   0  0  0  0  0  0
  1 25  1  0  0  0
  1 30  2  0  0  0
  1 82  1  0  0  0
  2  3  1  0  0  0
  2 25  1  0  0  0
  2 84  1  0  0  0
  2 85  1  0  0  0
  3  4  1  0  0  0
  3 86  1  0  0  0
  3 87  1  0  0  0
  4  5  1  0  0  0
  4 88  1  0  0  0
  4 89  1  0  0  0
  5  6  1  0  0  0
  5 26  1  0  0  0
  5 90  1  0  0  0
  6 25  1  0  0  0
  6 91  1  0  0  0
  6 92  1  0  0  0
  7  8  2  0  0  0
  7 26  1  0  0  0
  7 29  1  0  0  0
  8  9  1  0  0  0
  8 22  1  0  0  0
  9 10  1  0  0  0
  9 27  2  0  0  0
 10 11  2  0  0  0
 10 15  1  0  0  0
 11 12  1  0  0  0
 11 93  1  0  0  0
 12 13  2  0  0  0
 12 94  1  0  0  0
 13 14  1  0  0  0
 13 31  1  0  0  0
 14 15  2  0  0  0
 14 95  1  0  0  0
 15 96  1  0  0  0
 16 17  2  0  0  0
 16 21  1  0  0  0
 16 31  1  0  0  0
 17 18  1  0  0  0
 17 97  1  0  0  0
 18 19  2  0  0  0
 18 98  1  0  0  0
 19 20  1  0  0  0
 19 24  1  0  0  0
 20 21  2  0  0  0
 20 99  1  0  0  0
 21 23  1  0  0  0
 22 28  1  0  0  0
 22 32  2  0  0  0
 26 27  1  0  0  0
 28100  1  0  0  0
 28101  1  0  0  0
 29102  1  0  0  0
 29103  1  0  0  0
 33 34  1  0  0  0
 33 66  1  0  0  0
 33 70  2  0  0  0
 34 36  1  0  0  0
 34 59  1  0  0  0
 34104  1  0  0  0
 35 44  2  0  0  0
 35 45  1  0  0  0
 35 68  1  0  0  0
 36 56  1  0  0  0
 36105  1  0  0  0
 37 39  1  0  0  0
 37 47  1  0  0  0
 37 66  1  0  0  0
 37106  1  0  0  0
 38 43  2  0  0  0
 38 46  1  0  0  0
 38 47  1  0  0  0
 39 64  1  0  0  0
 39 67  2  0  0  0
 40 52  1  0  0  0
 40 53  2  0  0  0
 40 58  1  0  0  0
 41107  1  0  0  0
 41108  1  0  0  0
 41109  1  0  0  0
 41 48  1  0  0  0
 42 43  1  0  0  0
 42 66  1  0  0  0
 42110  1  0  0  0
 42111  1  0  0  0
 43 44  1  0  0  0
 44112  1  0  0  0
 45 46  2  0  0  0
 45113  1  0  0  0
 46114  1  0  0  0
 47115  1  0  0  0
 47116  1  0  0  0
 48 56  1  0  0  0
 48 65  1  0  0  0
 48117  1  0  0  0
 49 50  1  0  0  0
 49 53  1  0  0  0
 49 64  1  0  0  0
 49118  1  0  0  0
 50 51  1  0  0  0
 50119  1  0  0  0
 50120  1  0  0  0
 51 52  1  0  0  0
 51121  1  0  0  0
 51122  1  0  0  0
 52123  1  0  0  0
 52124  1  0  0  0
 53 54  1  0  0  0
 54 55  2  0  0  0
 54125  1  0  0  0
 55 57  1  0  0  0
 55126  1  0  0  0
 56 69  2  0  0  0
 57 58  2  0  0  0
 57127  1  0  0  0
 58128  1  0  0  0
 59 60  1  0  0  0
 59 61  1  0  0  0
 59 62  1  0  0  0
 60129  1  0  0  0
 60130  1  0  0  0
 60131  1  0  0  0
 61132  1  0  0  0
 61133  1  0  0  0
 61134  1  0  0  0
 62135  1  0  0  0
 62136  1  0  0  0
 62137  1  0  0  0
 63 65  1  0  0  0
 63138  1  0  0  0
 63139  1  0  0  0
 63140  1  0  0  0
 64141  1  0  0  0
 65142  1  0  0  0
 68 80  1  0  0  0
 71 72  1  0  0  0
 71 73  2  0  0  0
 71143  1  0  0  0
 72 74  2  0  0  0
 72 78  1  0  0  0
 73 75  1  0  0  0
 73 83  1  0  0  0
 74 82  1  0  0  0
 74 83  1  0  0  0
 75144  1  0  0  0
 75145  1  0  0  0
 75146  1  0  0  0
 76147  1  0  0  0
 76148  1  0  0  0
 76149  1  0  0  0
 76 81  1  0  0  0
 77 81  1  0  0  0
 77150  1  0  0  0
 77151  1  0  0  0
 77152  1  0  0  0
 78 79  1  0  0  0
 78153  1  0  0  0
 78154  1  0  0  0
 79 81  1  0  0  0
 79155  1  0  0  0
 79156  1  0  0  0
 80 81  1  0  0  0
 80157  1  0  0  0
 80158  1  0  0  0
 82159  1  0  0  0
M  ISO  4   1 100  68 101  80 101  82 100
M  END
> <chiral flag>
0

> <version>
0

> <s_m_source_file>
/data/baiqing/PycharmProjects/Reinvent-master-3.2/result/LINK_invent/BTK/process_docking_weight1_custom_product_contain_oxygen_bond_distance_aromatic_linkinvent_7_9_3/rearranged_h_0138.sdf

> <i_m_source_file_index>
88

> <r_mmod_Potential_Energy-OPLS-2005>
740.395202636719

> <r_mmod_Stretch_Energy-OPLS-2005>
329.859588623047

> <r_mmod_Bend_Energy-OPLS-2005>
374.262451171875

> <r_mmod_Torsional_Energy-OPLS-2005>
266.801391601562

> <r_mmod_Improper_Torsional_Energy-OPLS-2005>
4.85003566741943

> <r_mmod_Van_der_Waal_Energy-OPLS-2005>
111.752502441406

> <r_mmod_Electrostatic_Energy-OPLS-2005>
-371.116668701172

> <r_mmod_Solvation_Energy-OPLS-2005>
-202.789337158203

> <b_mmod_Minimization_Converged-OPLS-2005>
0

> <r_mmod_RMS_Derivative-OPLS-2005>
6.31936645507812

$$$$
88
                    3D
 Structure written by MMmdl.
174182  0  0  1  0            999 V2000
  -30.5423  -14.8623   20.4484 C   0  0  0  0  0  0
  -30.4506  -12.5319   19.4836 C   0  0  0  0  0  0
  -29.5223  -12.5352   18.2467 C   0  0  0  0  0  0
  -28.0517  -12.3291   18.6598 C   0  0  0  0  0  0
  -27.6409  -13.2360   19.8483 C   0  0  2  0  0  0
  -28.6858  -13.1920   20.9860 C   0  0  0  0  0  0
  -25.2524  -13.8195   20.5731 C   0  0  0  0  0  0
  -24.1809  -13.0437   20.9206 C   0  0  0  0  0  0
  -24.6384  -11.6906   20.8720 C   0  0  0  0  0  0
  -23.9056  -10.4283   21.0382 C   0  0  0  0  0  0
  -24.3599   -9.4204   21.9165 C   0  0  0  0  0  0
  -23.6271   -8.2248   22.0754 C   0  0  0  0  0  0
  -22.4255   -8.0281   21.3545 C   0  0  0  0  0  0
  -21.9881   -9.0256   20.4653 C   0  0  0  0  0  0
  -22.7220  -10.2121   20.3050 C   0  0  0  0  0  0
  -21.6862   -6.0718   22.5271 C   0  0  0  0  0  0
  -21.4025   -6.5624   23.8203 C   0  0  0  0  0  0
  -21.3656   -5.6778   24.9173 C   0  0  0  0  0  0
  -21.6042   -4.3045   24.7226 C   0  0  0  0  0  0
  -21.8819   -3.8134   23.4350 C   0  0  0  0  0  0
  -21.9201   -4.6951   22.3405 C   0  0  0  0  0  0
  -22.7836  -13.5241   21.1862 C   0  0  0  0  0  0
  -22.1679   -4.2132   21.0989 F   0  0  0  0  0  0
  -21.5602   -3.4526   25.7738 F   0  0  0  0  0  0
  -29.9779  -13.5934   20.4101 N   0  0  0  0  0  0
  -26.2928  -12.9399   20.3257 N   0  0  0  0  0  0
  -25.9311  -11.6536   20.5694 N   0  0  0  0  0  0
  -22.0457  -12.8246   22.0406 N   0  0  0  0  0  0
  -25.4226  -15.1930   20.4239 N   0  0  0  0  0  0
  -31.7166  -14.9991   20.0916 O   0  0  0  0  0  0
  -21.6644   -6.8863   21.4227 O   0  0  0  0  0  0
  -22.3521  -14.5548   20.6716 O   0  0  0  0  0  0
  -24.6384  -31.8487   23.1896 C   0  0  0  0  0  0
  -25.9166  -32.4730   23.8279 C   0  0  1  0  0  0
  -27.2264  -27.1841   20.1624 C   0  0  0  0  0  0
  -25.5930  -33.8528   24.2208 N   0  0  0  0  0  0
  -23.4411  -30.4649   21.5341 C   0  0  2  0  0  0
  -24.8910  -28.8877   20.1213 C   0  0  0  0  0  0
  -22.7541  -29.4555   22.4875 C   0  0  0  0  0  0
  -18.0306  -28.1398   22.8490 C   0  0  0  0  0  0
  -24.1482  -36.7272   23.2636 C   0  0  0  0  0  0
  -25.9912  -30.7370   21.3803 C   0  0  0  0  0  0
  -26.0651  -29.3466   20.7343 C   0  0  0  0  0  0
  -27.2371  -28.5111   20.7357 C   0  0  0  0  0  0
  -26.0284  -26.8009   19.5280 C   0  0  0  0  0  0
  -24.8811  -27.6240   19.5069 C   0  0  0  0  0  0
  -23.6674  -29.7888   20.1551 C   0  0  0  0  0  0
  -25.4115  -36.3056   24.0324 C   0  0  1  0  0  0
  -20.5907  -28.3715   23.1259 C   0  0  2  0  0  0
  -20.6783  -26.9421   22.5415 C   0  0  0  0  0  0
  -19.5752  -26.6388   21.5224 C   0  0  0  0  0  0
  -18.1939  -26.7937   22.1636 C   0  0  0  0  0  0
  -19.1560  -28.8876   23.2869 C   0  0  0  0  0  0
  -18.9474  -30.1471   23.8900 C   0  0  0  0  0  0
  -17.6466  -30.6593   24.0569 C   0  0  0  0  0  0
  -25.9068  -34.9432   23.5079 C   0  0  0  0  0  0
  -16.5360  -29.9091   23.6328 C   0  0  0  0  0  0
  -16.7288  -28.6505   23.0362 C   0  0  0  0  0  0
  -26.4508  -31.6573   25.0702 C   0  0  0  0  0  0
  -25.3697  -31.3768   26.1406 C   0  0  0  0  0  0
  -27.0365  -30.2976   24.6248 C   0  0  0  0  0  0
  -27.6069  -32.4315   25.7479 C   0  0  0  0  0  0
  -27.5585  -37.1779   24.8458 C   0  0  0  0  0  0
  -21.4235  -29.3048   22.3634 N   0  0  0  0  0  0
  -26.4288  -37.3764   23.9420 N   0  0  0  0  0  0
  -24.7097  -31.0377   22.0909 N   0  0  0  0  0  0
  -23.4199  -28.8120   23.3028 O   0  0  0  0  0  0
  -28.3257  -26.2726   20.1011 O   0  0  0  0  0  0
  -26.5664  -34.8918   22.4661 O   0  0  0  0  0  0
  -23.5515  -32.1345   23.7134 O   0  0  0  0  0  0
  -29.8629  -18.2994   19.5644 C   0  0  0  0  0  0
  -29.4362  -18.2237   21.8739 C   0  0  0  0  0  0
  -29.6957  -19.7458   19.5894 C   0  0  0  0  0  0
  -29.2815  -19.6718   21.9588 C   0  0  0  0  0  0
  -29.4109  -20.5215   20.7740 C   0  0  0  0  0  0
  -29.7521  -17.4626   20.7146 C   0  0  0  0  0  0
  -29.8528  -20.4802   18.2703 C   0  0  0  0  0  0
  -26.5573  -20.8843   22.8079 C   0  0  0  0  0  0
  -30.3585  -20.8085   23.9505 C   0  0  0  0  0  0
  -28.5843  -19.1758   24.4290 C   0  0  0  0  0  0
  -27.5025  -25.0453   22.0856 C   0  0  0  0  0  0
  -29.9075  -25.2301   21.4329 C   0  0  0  0  0  0
  -29.5222  -22.1775   20.7839 C   0  0  0  0  0  0
  -27.8940  -21.3103   23.4389 C   0  0  0  0  0  0
  -28.4703  -23.3858   20.2890 C   0  0  0  0  0  0
  -29.0280  -20.2485   23.3906 C   0  0  0  0  0  0
  -28.4884  -24.9641   20.8984 C   0  0  0  0  0  0
  -29.7046  -15.9473   20.7562 N   0  0  0  0  0  0
  -31.4839  -12.6915   19.1740 H   0  0  0  0  0  0
  -30.4341  -11.5593   19.9778 H   0  0  0  0  0  0
  -29.8255  -11.7619   17.5391 H   0  0  0  0  0  0
  -29.6203  -13.4855   17.7206 H   0  0  0  0  0  0
  -27.9243  -11.2805   18.9345 H   0  0  0  0  0  0
  -27.3963  -12.5045   17.8057 H   0  0  0  0  0  0
  -27.6223  -14.2515   19.4516 H   0  0  0  0  0  0
  -28.7465  -12.1907   21.4186 H   0  0  0  0  0  0
  -28.3978  -13.8587   21.7997 H   0  0  0  0  0  0
  -25.2738   -9.5689   22.4744 H   0  0  0  0  0  0
  -23.9964   -7.4641   22.7477 H   0  0  0  0  0  0
  -21.0798   -8.8793   19.8962 H   0  0  0  0  0  0
  -22.3679  -10.9660   19.6168 H   0  0  0  0  0  0
  -21.2036   -7.6129   23.9707 H   0  0  0  0  0  0
  -21.1478   -6.0512   25.9069 H   0  0  0  0  0  0
  -22.0605   -2.7588   23.2880 H   0  0  0  0  0  0
  -22.4067  -11.9916   22.4823 H   0  0  0  0  0  0
  -21.1084  -13.1318   22.2615 H   0  0  0  0  0  0
  -24.6567  -15.8476   20.5494 H   0  0  0  0  0  0
  -26.2728  -15.6363   20.0972 H   0  0  0  0  0  0
  -26.7242  -32.5358   23.1025 H   0  0  0  0  0  0
  -25.0021  -33.9641   25.0321 H   0  0  0  0  0  0
  -22.7417  -31.2889   21.3785 H   0  0  0  0  0  0
  -23.3757  -35.9588   23.3276 H   0  0  0  0  0  0
  -24.3576  -36.8926   22.2059 H   0  0  0  0  0  0
  -23.7215  -37.6454   23.6690 H   0  0  0  0  0  0
  -26.1352  -31.4872   20.6013 H   0  0  0  0  0  0
  -26.8652  -30.7952   22.0168 H   0  0  0  0  0  0
  -28.1417  -28.8654   21.2095 H   0  0  0  0  0  0
  -25.9781  -25.8313   19.0531 H   0  0  0  0  0  0
  -23.9840  -27.2656   19.0214 H   0  0  0  0  0  0
  -23.8076  -30.5606   19.3979 H   0  0  0  0  0  0
  -22.7828  -29.2305   19.8440 H   0  0  0  0  0  0
  -25.1290  -36.1897   25.0813 H   0  0  0  0  0  0
  -21.0016  -28.3307   24.1375 H   0  0  0  0  0  0
  -20.5680  -26.2331   23.3632 H   0  0  0  0  0  0
  -21.6651  -26.7421   22.1217 H   0  0  0  0  0  0
  -19.6905  -25.6295   21.1265 H   0  0  0  0  0  0
  -19.6684  -27.3190   20.6754 H   0  0  0  0  0  0
  -17.4201  -26.6696   21.4042 H   0  0  0  0  0  0
  -18.0321  -26.0086   22.9037 H   0  0  0  0  0  0
  -19.7950  -30.7292   24.2273 H   0  0  0  0  0  0
  -17.5020  -31.6274   24.5169 H   0  0  0  0  0  0
  -15.5365  -30.2991   23.7644 H   0  0  0  0  0  0
  -15.8692  -28.0816   22.7082 H   0  0  0  0  0  0
  -24.5859  -30.7149   25.7710 H   0  0  0  0  0  0
  -24.8912  -32.2957   26.4798 H   0  0  0  0  0  0
  -25.7968  -30.8942   27.0204 H   0  0  0  0  0  0
  -26.2970  -29.6710   24.1261 H   0  0  0  0  0  0
  -27.3998  -29.7272   25.4803 H   0  0  0  0  0  0
  -27.8862  -30.4222   23.9539 H   0  0  0  0  0  0
  -27.2705  -33.3651   26.1993 H   0  0  0  0  0  0
  -28.3913  -32.6800   25.0322 H   0  0  0  0  0  0
  -28.0692  -31.8467   26.5441 H   0  0  0  0  0  0
  -28.2577  -38.0103   24.7555 H   0  0  0  0  0  0
  -28.1112  -36.2641   24.6219 H   0  0  0  0  0  0
  -27.2321  -37.1345   25.8863 H   0  0  0  0  0  0
  -20.9444  -29.8766   21.6822 H   0  0  0  0  0  0
  -26.0162  -38.2834   24.1448 H   0  0  0  0  0  0
  -30.0599  -17.8171   18.6168 H   0  0  0  0  0  0
  -29.3147  -17.6093   22.7480 H   0  0  0  0  0  0
  -29.9405  -19.7929   17.4299 H   0  0  0  0  0  0
  -30.7467  -21.1038   18.2815 H   0  0  0  0  0  0
  -28.9842  -21.1138   18.0848 H   0  0  0  0  0  0
  -25.8562  -21.7188   22.7932 H   0  0  0  0  0  0
  -26.0842  -20.0783   23.3675 H   0  0  0  0  0  0
  -26.6839  -20.5489   21.7790 H   0  0  0  0  0  0
  -31.0950  -20.0124   24.0603 H   0  0  0  0  0  0
  -30.2238  -21.2566   24.9351 H   0  0  0  0  0  0
  -30.8325  -21.5588   23.3252 H   0  0  0  0  0  0
  -29.3797  -18.4727   24.6762 H   0  0  0  0  0  0
  -27.7236  -18.6004   24.0880 H   0  0  0  0  0  0
  -28.2977  -19.6286   25.3788 H   0  0  0  0  0  0
  -27.7343  -24.3161   22.8570 H   0  0  0  0  0  0
  -26.4765  -24.8646   21.7626 H   0  0  0  0  0  0
  -27.5241  -26.0200   22.5745 H   0  0  0  0  0  0
  -30.1871  -24.5480   22.2326 H   0  0  0  0  0  0
  -30.0015  -26.2369   21.8433 H   0  0  0  0  0  0
  -30.6471  -25.1354   20.6370 H   0  0  0  0  0  0
  -30.4315  -22.3792   20.2185 H   0  0  0  0  0  0
  -29.8490  -22.4555   21.7707 H   0  0  0  0  0  0
  -27.7126  -21.6116   24.4719 H   0  0  0  0  0  0
  -28.1992  -22.2283   22.9646 H   0  0  0  0  0  0
  -27.4633  -23.0013   20.4486 H   0  0  0  0  0  0
  -28.5562  -23.4508   19.2039 H   0  0  0  0  0  0
  -28.8344  -15.6057   21.1321 H   0  0  0  0  0  0
  1 25  1  0  0  0
  1 30  2  0  0  0
  1 88  1  0  0  0
  2  3  1  0  0  0
  2 25  1  0  0  0
  2 89  1  0  0  0
  2 90  1  0  0  0
  3  4  1  0  0  0
  3 91  1  0  0  0
  3 92  1  0  0  0
  4  5  1  0  0  0
  4 93  1  0  0  0
  4 94  1  0  0  0
  5  6  1  0  0  0
  5 26  1  0  0  0
  5 95  1  0  0  0
  6 25  1  0  0  0
  6 96  1  0  0  0
  6 97  1  0  0  0
  7  8  2  0  0  0
  7 26  1  0  0  0
  7 29  1  0  0  0
  8  9  1  0  0  0
  8 22  1  0  0  0
  9 10  1  0  0  0
  9 27  2  0  0  0
 10 11  2  0  0  0
 10 15  1  0  0  0
 11 12  1  0  0  0
 11 98  1  0  0  0
 12 13  2  0  0  0
 12 99  1  0  0  0
 13 14  1  0  0  0
 13 31  1  0  0  0
 14 15  2  0  0  0
 14100  1  0  0  0
 15101  1  0  0  0
 16 17  2  0  0  0
 16 21  1  0  0  0
 16 31  1  0  0  0
 17 18  1  0  0  0
 17102  1  0  0  0
 18 19  2  0  0  0
 18103  1  0  0  0
 19 20  1  0  0  0
 19 24  1  0  0  0
 20 21  2  0  0  0
 20104  1  0  0  0
 21 23  1  0  0  0
 22 28  1  0  0  0
 22 32  2  0  0  0
 26 27  1  0  0  0
 28105  1  0  0  0
 28106  1  0  0  0
 29107  1  0  0  0
 29108  1  0  0  0
 33 34  1  0  0  0
 33 66  1  0  0  0
 33 70  2  0  0  0
 34 36  1  0  0  0
 34 59  1  0  0  0
 34109  1  0  0  0
 35 44  2  0  0  0
 35 45  1  0  0  0
 35 68  1  0  0  0
 36 56  1  0  0  0
 36110  1  0  0  0
 37 39  1  0  0  0
 37 47  1  0  0  0
 37 66  1  0  0  0
 37111  1  0  0  0
 38 43  2  0  0  0
 38 46  1  0  0  0
 38 47  1  0  0  0
 39 64  1  0  0  0
 39 67  2  0  0  0
 40 52  1  0  0  0
 40 53  2  0  0  0
 40 58  1  0  0  0
 41112  1  0  0  0
 41113  1  0  0  0
 41114  1  0  0  0
 41 48  1  0  0  0
 42 43  1  0  0  0
 42 66  1  0  0  0
 42115  1  0  0  0
 42116  1  0  0  0
 43 44  1  0  0  0
 44117  1  0  0  0
 45 46  2  0  0  0
 45118  1  0  0  0
 46119  1  0  0  0
 47120  1  0  0  0
 47121  1  0  0  0
 48 56  1  0  0  0
 48 65  1  0  0  0
 48122  1  0  0  0
 49 50  1  0  0  0
 49 53  1  0  0  0
 49 64  1  0  0  0
 49123  1  0  0  0
 50 51  1  0  0  0
 50124  1  0  0  0
 50125  1  0  0  0
 51 52  1  0  0  0
 51126  1  0  0  0
 51127  1  0  0  0
 52128  1  0  0  0
 52129  1  0  0  0
 53 54  1  0  0  0
 54 55  2  0  0  0
 54130  1  0  0  0
 55 57  1  0  0  0
 55131  1  0  0  0
 56 69  2  0  0  0
 57 58  2  0  0  0
 57132  1  0  0  0
 58133  1  0  0  0
 59 60  1  0  0  0
 59 61  1  0  0  0
 59 62  1  0  0  0
 60134  1  0  0  0
 60135  1  0  0  0
 60136  1  0  0  0
 61137  1  0  0  0
 61138  1  0  0  0
 61139  1  0  0  0
 62140  1  0  0  0
 62141  1  0  0  0
 62142  1  0  0  0
 63 65  1  0  0  0
 63143  1  0  0  0
 63144  1  0  0  0
 63145  1  0  0  0
 64146  1  0  0  0
 65147  1  0  0  0
 68 87  1  0  0  0
 71 73  2  0  0  0
 71 76  1  0  0  0
 71148  1  0  0  0
 72 74  1  0  0  0
 72 76  2  0  0  0
 72149  1  0  0  0
 73 75  1  0  0  0
 73 77  1  0  0  0
 74 75  2  0  0  0
 74 86  1  0  0  0
 75 83  1  0  0  0
 76 88  1  0  0  0
 77150  1  0  0  0
 77151  1  0  0  0
 77152  1  0  0  0
 78 84  1  0  0  0
 78153  1  0  0  0
 78154  1  0  0  0
 78155  1  0  0  0
 79156  1  0  0  0
 79157  1  0  0  0
 79158  1  0  0  0
 79 86  1  0  0  0
 80 86  1  0  0  0
 80159  1  0  0  0
 80160  1  0  0  0
 80161  1  0  0  0
 81162  1  0  0  0
 81163  1  0  0  0
 81164  1  0  0  0
 81 87  1  0  0  0
 82 87  1  0  0  0
 82165  1  0  0  0
 82166  1  0  0  0
 82167  1  0  0  0
 83 85  1  0  0  0
 83168  1  0  0  0
 83169  1  0  0  0
 84 86  1  0  0  0
 84170  1  0  0  0
 84171  1  0  0  0
 85 87  1  0  0  0
 85172  1  0  0  0
 85173  1  0  0  0
 88174  1  0  0  0
M  ISO  4   1 100  68 101  87 101  88 100
M  END
> <chiral flag>
0

> <version>
0

> <s_m_source_file>
/data/baiqing/PycharmProjects/Reinvent-master-3.2/result/LINK_invent/BTK/process_docking_weight1_custom_product_contain_oxygen_bond_distance_aromatic_linkinvent_7_9_3/rearranged_h_0138.sdf

> <i_m_source_file_index>
89

> <r_mmod_Potential_Energy-OPLS-2005>
460.417358398438

> <r_mmod_Stretch_Energy-OPLS-2005>
223.405975341797

> <r_mmod_Bend_Energy-OPLS-2005>
288.703979492188

> <r_mmod_Torsional_Energy-OPLS-2005>
287.340545654297

> <r_mmod_Improper_Torsional_Energy-OPLS-2005>
6.30369663238525

> <r_mmod_Van_der_Waal_Energy-OPLS-2005>
148.251815795898

> <r_mmod_Electrostatic_Energy-OPLS-2005>
-440.030975341797

> <r_mmod_Solvation_Energy-OPLS-2005>
-190.066665649414

> <b_mmod_Minimization_Converged-OPLS-2005>
0

> <r_mmod_RMS_Derivative-OPLS-2005>
2.76343369483948

$$$$
89
                    3D
 Structure written by MMmdl.
165173  0  0  1  0            999 V2000
  -30.5714  -14.9390   20.4467 C   0  0  0  0  0  0
  -30.4446  -12.5887   19.5004 C   0  0  0  0  0  0
  -29.5201  -12.5153   18.2630 C   0  0  0  0  0  0
  -28.0592  -12.2932   18.6916 C   0  0  0  0  0  0
  -27.6338  -13.2423   19.8410 C   0  0  2  0  0  0
  -28.6762  -13.2868   20.9794 C   0  0  0  0  0  0
  -25.2492  -13.8205   20.5724 C   0  0  0  0  0  0
  -24.1800  -13.0453   20.9223 C   0  0  0  0  0  0
  -24.6397  -11.6921   20.8768 C   0  0  0  0  0  0
  -23.9073  -10.4297   21.0420 C   0  0  0  0  0  0
  -24.3617   -9.4215   21.9205 C   0  0  0  0  0  0
  -23.6291   -8.2252   22.0771 C   0  0  0  0  0  0
  -22.4282   -8.0287   21.3551 C   0  0  0  0  0  0
  -21.9918   -9.0257   20.4656 C   0  0  0  0  0  0
  -22.7244  -10.2137   20.3067 C   0  0  0  0  0  0
  -21.6846   -6.0740   22.5276 C   0  0  0  0  0  0
  -21.4014   -6.5642   23.8211 C   0  0  0  0  0  0
  -21.3659   -5.6798   24.9173 C   0  0  0  0  0  0
  -21.6035   -4.3058   24.7225 C   0  0  0  0  0  0
  -21.8826   -3.8150   23.4347 C   0  0  0  0  0  0
  -21.9199   -4.6968   22.3404 C   0  0  0  0  0  0
  -22.7816  -13.5231   21.1861 C   0  0  0  0  0  0
  -22.1669   -4.2149   21.0982 F   0  0  0  0  0  0
  -21.5624   -3.4548   25.7742 F   0  0  0  0  0  0
  -29.9539  -13.6903   20.3805 N   0  0  0  0  0  0
  -26.2924  -12.9431   20.3287 N   0  0  0  0  0  0
  -25.9335  -11.6566   20.5780 N   0  0  0  0  0  0
  -22.0451  -12.8220   22.0398 N   0  0  0  0  0  0
  -25.4174  -15.1936   20.4115 N   0  0  0  0  0  0
  -31.7747  -14.9661   20.1681 O   0  0  0  0  0  0
  -21.6649   -6.8883   21.4238 O   0  0  0  0  0  0
  -22.3524  -14.5545   20.6699 O   0  0  0  0  0  0
  -24.6439  -31.8444   23.1951 C   0  0  0  0  0  0
  -25.9223  -32.4685   23.8310 C   0  0  1  0  0  0
  -27.1933  -27.1010   20.1599 C   0  0  0  0  0  0
  -25.5958  -33.8491   24.2202 N   0  0  0  0  0  0
  -23.4510  -30.4645   21.5435 C   0  0  2  0  0  0
  -24.9029  -28.9108   20.1097 C   0  0  0  0  0  0
  -22.7589  -29.4508   22.4895 C   0  0  0  0  0  0
  -18.0311  -28.1401   22.8459 C   0  0  0  0  0  0
  -24.1489  -36.7246   23.2651 C   0  0  0  0  0  0
  -26.0106  -30.7010   21.4126 C   0  0  0  0  0  0
  -26.0775  -29.3142   20.7553 C   0  0  0  0  0  0
  -27.2206  -28.4209   20.7781 C   0  0  0  0  0  0
  -26.0307  -26.8809   19.3891 C   0  0  0  0  0  0
  -24.8939  -27.7065   19.4050 C   0  0  0  0  0  0
  -23.6796  -29.8091   20.1595 C   0  0  0  0  0  0
  -25.4123  -36.3011   24.0327 C   0  0  1  0  0  0
  -20.5921  -28.3694   23.1240 C   0  0  2  0  0  0
  -20.6782  -26.9396   22.5412 C   0  0  0  0  0  0
  -19.5760  -26.6386   21.5215 C   0  0  0  0  0  0
  -18.1931  -26.7935   22.1618 C   0  0  0  0  0  0
  -19.1572  -28.8873   23.2828 C   0  0  0  0  0  0
  -18.9484  -30.1464   23.8853 C   0  0  0  0  0  0
  -17.6481  -30.6581   24.0547 C   0  0  0  0  0  0
  -25.9091  -34.9391   23.5074 C   0  0  0  0  0  0
  -16.5366  -29.9068   23.6344 C   0  0  0  0  0  0
  -16.7294  -28.6503   23.0336 C   0  0  0  0  0  0
  -26.4556  -31.6564   25.0759 C   0  0  0  0  0  0
  -25.3735  -31.3752   26.1439 C   0  0  0  0  0  0
  -27.0419  -30.2934   24.6404 C   0  0  0  0  0  0
  -27.6047  -32.4366   25.7542 C   0  0  0  0  0  0
  -27.5565  -37.1761   24.8462 C   0  0  0  0  0  0
  -21.4287  -29.3011   22.3618 N   0  0  0  0  0  0
  -26.4273  -37.3734   23.9426 N   0  0  0  0  0  0
  -24.7211  -31.0247   22.1037 N   0  0  0  0  0  0
  -23.4204  -28.8011   23.3031 O   0  0  0  0  0  0
  -28.2076  -26.0530   20.2166 O   0  0  0  0  0  0
  -26.5671  -34.8875   22.4648 O   0  0  0  0  0  0
  -23.5548  -32.1368   23.7130 O   0  0  0  0  0  0
  -31.0192  -20.4608   20.5274 C   0  0  0  0  0  0
  -31.5119  -18.0265   20.5161 C   0  0  0  0  0  0
  -29.2346  -18.8152   20.6416 C   0  0  0  0  0  0
  -31.9333  -19.3775   20.4953 C   0  0  0  0  0  0
  -29.6288  -20.2548   20.6107 C   0  0  0  0  0  0
  -30.1548  -17.6424   20.5878 C   0  0  0  0  0  0
  -34.0561  -19.3484   19.1078 C   0  0  0  0  0  0
  -26.9052  -23.7383   18.3480 C   0  0  0  0  0  0
  -27.6083  -24.6345   22.0802 C   0  0  0  0  0  0
  -33.4250  -19.6566   20.4698 C   0  0  0  0  0  0
  -28.6540  -21.5851   20.7176 C   0  0  0  0  0  0
  -26.6922  -23.9473   19.8591 C   0  0  0  0  0  0
  -29.0380  -23.2279   20.4463 C   0  0  0  0  0  0
  -27.9362  -24.5237   20.5798 C   0  0  2  0  0  0
  -29.8143  -16.1399   20.6225 N   0  0  0  0  0  0
  -31.4729  -12.7505   19.1720 H   0  0  0  0  0  0
  -30.4533  -11.6424   20.0441 H   0  0  0  0  0  0
  -29.8413  -11.7095   17.6013 H   0  0  0  0  0  0
  -29.5967  -13.4383   17.6865 H   0  0  0  0  0  0
  -27.9701  -11.2581   19.0246 H   0  0  0  0  0  0
  -27.3890  -12.3962   17.8387 H   0  0  0  0  0  0
  -27.5967  -14.2378   19.3976 H   0  0  0  0  0  0
  -28.7657  -12.3220   21.4783 H   0  0  0  0  0  0
  -28.3776  -14.0043   21.7453 H   0  0  0  0  0  0
  -25.2751   -9.5708   22.4796 H   0  0  0  0  0  0
  -23.9995   -7.4661   22.7503 H   0  0  0  0  0  0
  -21.0852   -8.8782   19.8961 H   0  0  0  0  0  0
  -22.3700  -10.9687   19.6190 H   0  0  0  0  0  0
  -21.2003   -7.6149   23.9707 H   0  0  0  0  0  0
  -21.1468   -6.0532   25.9074 H   0  0  0  0  0  0
  -22.0601   -2.7609   23.2851 H   0  0  0  0  0  0
  -22.4055  -11.9865   22.4771 H   0  0  0  0  0  0
  -21.1075  -13.1264   22.2592 H   0  0  0  0  0  0
  -24.6438  -15.8415   20.5142 H   0  0  0  0  0  0
  -26.2517  -15.6304   20.0424 H   0  0  0  0  0  0
  -26.7262  -32.5275   23.1006 H   0  0  0  0  0  0
  -24.9994  -33.9630   25.0263 H   0  0  0  0  0  0
  -22.7523  -31.2892   21.3920 H   0  0  0  0  0  0
  -23.3747  -35.9579   23.3298 H   0  0  0  0  0  0
  -24.3573  -36.8916   22.2065 H   0  0  0  0  0  0
  -23.7242  -37.6436   23.6714 H   0  0  0  0  0  0
  -26.1749  -31.4496   20.6357 H   0  0  0  0  0  0
  -26.8777  -30.7458   22.0583 H   0  0  0  0  0  0
  -28.1016  -28.7135   21.3291 H   0  0  0  0  0  0
  -25.9511  -26.0392   18.7312 H   0  0  0  0  0  0
  -24.0220  -27.4188   18.8336 H   0  0  0  0  0  0
  -23.8123  -30.5896   19.4099 H   0  0  0  0  0  0
  -22.7973  -29.2504   19.8425 H   0  0  0  0  0  0
  -25.1288  -36.1837   25.0818 H   0  0  0  0  0  0
  -20.9976  -28.3263   24.1382 H   0  0  0  0  0  0
  -20.5694  -26.2279   23.3622 H   0  0  0  0  0  0
  -21.6625  -26.7411   22.1178 H   0  0  0  0  0  0
  -19.6919  -25.6313   21.1213 H   0  0  0  0  0  0
  -19.6700  -27.3217   20.6761 H   0  0  0  0  0  0
  -17.4200  -26.6704   21.4011 H   0  0  0  0  0  0
  -18.0285  -26.0099   22.9028 H   0  0  0  0  0  0
  -19.7959  -30.7293   24.2177 H   0  0  0  0  0  0
  -17.5038  -31.6246   24.5163 H   0  0  0  0  0  0
  -15.5366  -30.2930   23.7737 H   0  0  0  0  0  0
  -15.8700  -28.0831   22.7034 H   0  0  0  0  0  0
  -24.5964  -30.7045   25.7754 H   0  0  0  0  0  0
  -24.8866  -32.2917   26.4762 H   0  0  0  0  0  0
  -25.8015  -30.8999   27.0270 H   0  0  0  0  0  0
  -26.3035  -29.6652   24.1398 H   0  0  0  0  0  0
  -27.3939  -29.7262   25.5028 H   0  0  0  0  0  0
  -27.9001  -30.4117   23.9790 H   0  0  0  0  0  0
  -27.2623  -33.3734   26.1961 H   0  0  0  0  0  0
  -28.3927  -32.6847   25.0415 H   0  0  0  0  0  0
  -28.0641  -31.8612   26.5599 H   0  0  0  0  0  0
  -28.2521  -38.0102   24.7496 H   0  0  0  0  0  0
  -28.1109  -36.2608   24.6275 H   0  0  0  0  0  0
  -27.2282  -37.1383   25.8867 H   0  0  0  0  0  0
  -20.9517  -29.8738   21.6802 H   0  0  0  0  0  0
  -26.0133  -38.2796   24.1448 H   0  0  0  0  0  0
  -31.3986  -21.4732   20.5202 H   0  0  0  0  0  0
  -32.2876  -17.2758   20.4922 H   0  0  0  0  0  0
  -28.1777  -18.6037   20.7149 H   0  0  0  0  0  0
  -35.1310  -19.5220   19.1372 H   0  0  0  0  0  0
  -33.6354  -19.9828   18.3265 H   0  0  0  0  0  0
  -33.8963  -18.3076   18.8218 H   0  0  0  0  0  0
  -25.9663  -23.5188   17.8392 H   0  0  0  0  0  0
  -27.5733  -22.9007   18.1494 H   0  0  0  0  0  0
  -27.3557  -24.6130   17.8776 H   0  0  0  0  0  0
  -28.4697  -25.0036   22.6384 H   0  0  0  0  0  0
  -27.3367  -23.6684   22.5049 H   0  0  0  0  0  0
  -26.7788  -25.3142   22.2684 H   0  0  0  0  0  0
  -33.9019  -19.0533   21.2448 H   0  0  0  0  0  0
  -33.6141  -20.6953   20.7405 H   0  0  0  0  0  0
  -28.2483  -21.5322   21.7287 H   0  0  0  0  0  0
  -27.8128  -21.3365   20.0738 H   0  0  0  0  0  0
  -26.4260  -22.9858   20.2940 H   0  0  0  0  0  0
  -25.7902  -24.5104   20.0853 H   0  0  0  0  0  0
  -29.4552  -23.2784   19.4413 H   0  0  0  0  0  0
  -29.8791  -23.4690   21.0935 H   0  0  0  0  0  0
  -28.8370  -15.9485   20.7819 H   0  0  0  0  0  0
  1 25  1  0  0  0
  1 30  2  0  0  0
  1 85  1  0  0  0
  2  3  1  0  0  0
  2 25  1  0  0  0
  2 86  1  0  0  0
  2 87  1  0  0  0
  3  4  1  0  0  0
  3 88  1  0  0  0
  3 89  1  0  0  0
  4  5  1  0  0  0
  4 90  1  0  0  0
  4 91  1  0  0  0
  5  6  1  0  0  0
  5 26  1  0  0  0
  5 92  1  0  0  0
  6 25  1  0  0  0
  6 93  1  0  0  0
  6 94  1  0  0  0
  7  8  2  0  0  0
  7 26  1  0  0  0
  7 29  1  0  0  0
  8  9  1  0  0  0
  8 22  1  0  0  0
  9 10  1  0  0  0
  9 27  2  0  0  0
 10 11  2  0  0  0
 10 15  1  0  0  0
 11 12  1  0  0  0
 11 95  1  0  0  0
 12 13  2  0  0  0
 12 96  1  0  0  0
 13 14  1  0  0  0
 13 31  1  0  0  0
 14 15  2  0  0  0
 14 97  1  0  0  0
 15 98  1  0  0  0
 16 17  2  0  0  0
 16 21  1  0  0  0
 16 31  1  0  0  0
 17 18  1  0  0  0
 17 99  1  0  0  0
 18 19  2  0  0  0
 18100  1  0  0  0
 19 20  1  0  0  0
 19 24  1  0  0  0
 20 21  2  0  0  0
 20101  1  0  0  0
 21 23  1  0  0  0
 22 28  1  0  0  0
 22 32  2  0  0  0
 26 27  1  0  0  0
 28102  1  0  0  0
 28103  1  0  0  0
 29104  1  0  0  0
 29105  1  0  0  0
 33 34  1  0  0  0
 33 66  1  0  0  0
 33 70  2  0  0  0
 34 36  1  0  0  0
 34 59  1  0  0  0
 34106  1  0  0  0
 35 44  2  0  0  0
 35 45  1  0  0  0
 35 68  1  0  0  0
 36 56  1  0  0  0
 36107  1  0  0  0
 37 39  1  0  0  0
 37 47  1  0  0  0
 37 66  1  0  0  0
 37108  1  0  0  0
 38 43  2  0  0  0
 38 46  1  0  0  0
 38 47  1  0  0  0
 39 64  1  0  0  0
 39 67  2  0  0  0
 40 52  1  0  0  0
 40 53  2  0  0  0
 40 58  1  0  0  0
 41109  1  0  0  0
 41110  1  0  0  0
 41111  1  0  0  0
 41 48  1  0  0  0
 42 43  1  0  0  0
 42 66  1  0  0  0
 42112  1  0  0  0
 42113  1  0  0  0
 43 44  1  0  0  0
 44114  1  0  0  0
 45 46  2  0  0  0
 45115  1  0  0  0
 46116  1  0  0  0
 47117  1  0  0  0
 47118  1  0  0  0
 48 56  1  0  0  0
 48 65  1  0  0  0
 48119  1  0  0  0
 49 50  1  0  0  0
 49 53  1  0  0  0
 49 64  1  0  0  0
 49120  1  0  0  0
 50 51  1  0  0  0
 50121  1  0  0  0
 50122  1  0  0  0
 51 52  1  0  0  0
 51123  1  0  0  0
 51124  1  0  0  0
 52125  1  0  0  0
 52126  1  0  0  0
 53 54  1  0  0  0
 54 55  2  0  0  0
 54127  1  0  0  0
 55 57  1  0  0  0
 55128  1  0  0  0
 56 69  2  0  0  0
 57 58  2  0  0  0
 57129  1  0  0  0
 58130  1  0  0  0
 59 60  1  0  0  0
 59 61  1  0  0  0
 59 62  1  0  0  0
 60131  1  0  0  0
 60132  1  0  0  0
 60133  1  0  0  0
 61134  1  0  0  0
 61135  1  0  0  0
 61136  1  0  0  0
 62137  1  0  0  0
 62138  1  0  0  0
 62139  1  0  0  0
 63 65  1  0  0  0
 63140  1  0  0  0
 63141  1  0  0  0
 63142  1  0  0  0
 64143  1  0  0  0
 65144  1  0  0  0
 68 84  1  0  0  0
 71 74  2  0  0  0
 71 75  1  0  0  0
 71145  1  0  0  0
 72 74  1  0  0  0
 72 76  2  0  0  0
 72146  1  0  0  0
 73 75  2  0  0  0
 73 76  1  0  0  0
 73147  1  0  0  0
 74 80  1  0  0  0
 75 81  1  0  0  0
 76 85  1  0  0  0
 77 80  1  0  0  0
 77148  1  0  0  0
 77149  1  0  0  0
 77150  1  0  0  0
 78 82  1  0  0  0
 78151  1  0  0  0
 78152  1  0  0  0
 78153  1  0  0  0
 79154  1  0  0  0
 79155  1  0  0  0
 79156  1  0  0  0
 79 84  1  0  0  0
 80157  1  0  0  0
 80158  1  0  0  0
 81 83  1  0  0  0
 81159  1  0  0  0
 81160  1  0  0  0
 82 84  1  0  0  0
 82161  1  0  0  0
 82162  1  0  0  0
 83 84  1  0  0  0
 83163  1  0  0  0
 83164  1  0  0  0
 85165  1  0  0  0
M  ISO  4   1 100  68 101  84 101  85 100
M  END
> <chiral flag>
0

> <version>
0

> <s_m_source_file>
/data/baiqing/PycharmProjects/Reinvent-master-3.2/result/LINK_invent/BTK/process_docking_weight1_custom_product_contain_oxygen_bond_distance_aromatic_linkinvent_7_9_3/rearranged_h_0138.sdf

> <i_m_source_file_index>
90

> <r_mmod_Potential_Energy-OPLS-2005>
571.522521972656

> <r_mmod_Stretch_Energy-OPLS-2005>
295.207458496094

> <r_mmod_Bend_Energy-OPLS-2005>
266.502227783203

> <r_mmod_Torsional_Energy-OPLS-2005>
235.677032470703

> <r_mmod_Improper_Torsional_Energy-OPLS-2005>
4.38334274291992

> <r_mmod_Van_der_Waal_Energy-OPLS-2005>
149.241943359375

> <r_mmod_Electrostatic_Energy-OPLS-2005>
-396.538055419922

> <r_mmod_Solvation_Energy-OPLS-2005>
-192.87825012207

> <b_mmod_Minimization_Converged-OPLS-2005>
0

> <r_mmod_RMS_Derivative-OPLS-2005>
3.34308886528015

$$$$
90
                    3D
 Structure written by MMmdl.
160168  0  0  1  0            999 V2000
  -30.5534  -15.0383   20.3366 C   0  0  0  0  0  0
  -30.4450  -12.6415   19.4765 C   0  0  0  0  0  0
  -29.5160  -12.4790   18.2519 C   0  0  0  0  0  0
  -28.0632  -12.2234   18.7005 C   0  0  0  0  0  0
  -27.6099  -13.1919   19.8175 C   0  0  2  0  0  0
  -28.6710  -13.3643   20.9308 C   0  0  0  0  0  0
  -25.2474  -13.8017   20.5803 C   0  0  0  0  0  0
  -24.1740  -13.0325   20.9287 C   0  0  0  0  0  0
  -24.6306  -11.6799   20.8829 C   0  0  0  0  0  0
  -23.8989  -10.4217   21.0460 C   0  0  0  0  0  0
  -24.3565   -9.4140   21.9221 C   0  0  0  0  0  0
  -23.6251   -8.2177   22.0762 C   0  0  0  0  0  0
  -22.4237   -8.0233   21.3542 C   0  0  0  0  0  0
  -21.9865   -9.0206   20.4647 C   0  0  0  0  0  0
  -22.7184  -10.2086   20.3078 C   0  0  0  0  0  0
  -21.6826   -6.0711   22.5279 C   0  0  0  0  0  0
  -21.3996   -6.5624   23.8211 C   0  0  0  0  0  0
  -21.3656   -5.6782   24.9176 C   0  0  0  0  0  0
  -21.6045   -4.3045   24.7231 C   0  0  0  0  0  0
  -21.8819   -3.8134   23.4352 C   0  0  0  0  0  0
  -21.9185   -4.6944   22.3406 C   0  0  0  0  0  0
  -22.7781  -13.5171   21.1906 C   0  0  0  0  0  0
  -22.1659   -4.2134   21.0983 F   0  0  0  0  0  0
  -21.5635   -3.4532   25.7746 F   0  0  0  0  0  0
  -29.9287  -13.7815   20.2872 N   0  0  0  0  0  0
  -26.2817  -12.9117   20.3316 N   0  0  0  0  0  0
  -25.9215  -11.6321   20.5835 N   0  0  0  0  0  0
  -22.0392  -12.8194   22.0454 N   0  0  0  0  0  0
  -25.4156  -15.1745   20.4267 N   0  0  0  0  0  0
  -31.7873  -15.0235   20.2930 O   0  0  0  0  0  0
  -21.6601   -6.8840   21.4236 O   0  0  0  0  0  0
  -22.3512  -14.5490   20.6735 O   0  0  0  0  0  0
  -24.6439  -31.8433   23.1875 C   0  0  0  0  0  0
  -25.9206  -32.4693   23.8269 C   0  0  1  0  0  0
  -27.2305  -27.1381   20.1515 C   0  0  0  0  0  0
  -25.5951  -33.8499   24.2187 N   0  0  0  0  0  0
  -23.4487  -30.4611   21.5326 C   0  0  2  0  0  0
  -24.9020  -28.8874   20.1103 C   0  0  0  0  0  0
  -22.7574  -29.4537   22.4856 C   0  0  0  0  0  0
  -18.0305  -28.1395   22.8476 C   0  0  0  0  0  0
  -24.1492  -36.7255   23.2642 C   0  0  0  0  0  0
  -26.0046  -30.7177   21.3867 C   0  0  0  0  0  0
  -26.0785  -29.3285   20.7294 C   0  0  0  0  0  0
  -27.2423  -28.4703   20.7329 C   0  0  0  0  0  0
  -26.0266  -26.7994   19.4923 C   0  0  0  0  0  0
  -24.8892  -27.6362   19.4760 C   0  0  0  0  0  0
  -23.6767  -29.7881   20.1529 C   0  0  0  0  0  0
  -25.4123  -36.3031   24.0317 C   0  0  1  0  0  0
  -20.5919  -28.3720   23.1234 C   0  0  2  0  0  0
  -20.6789  -26.9422   22.5403 C   0  0  0  0  0  0
  -19.5762  -26.6380   21.5212 C   0  0  0  0  0  0
  -18.1944  -26.7932   22.1624 C   0  0  0  0  0  0
  -19.1563  -28.8876   23.2847 C   0  0  0  0  0  0
  -18.9478  -30.1472   23.8873 C   0  0  0  0  0  0
  -17.6474  -30.6590   24.0556 C   0  0  0  0  0  0
  -25.9072  -34.9406   23.5061 C   0  0  0  0  0  0
  -16.5365  -29.9081   23.6336 C   0  0  0  0  0  0
  -16.7290  -28.6502   23.0354 C   0  0  0  0  0  0
  -26.4527  -31.6561   25.0712 C   0  0  0  0  0  0
  -25.3713  -31.3750   26.1408 C   0  0  0  0  0  0
  -27.0394  -30.2958   24.6295 C   0  0  0  0  0  0
  -27.6054  -32.4330   25.7500 C   0  0  0  0  0  0
  -27.5576  -37.1783   24.8465 C   0  0  0  0  0  0
  -21.4265  -29.3044   22.3607 N   0  0  0  0  0  0
  -26.4286  -37.3744   23.9409 N   0  0  0  0  0  0
  -24.7186  -31.0285   22.0908 N   0  0  0  0  0  0
  -23.4213  -28.8087   23.3011 O   0  0  0  0  0  0
  -28.2842  -26.1522   20.2298 O   0  0  0  0  0  0
  -26.5661  -34.8906   22.4641 O   0  0  0  0  0  0
  -23.5555  -32.1307   23.7091 O   0  0  0  0  0  0
  -28.5971  -17.4637   18.2961 C   0  0  0  0  0  0
  -29.0032  -18.6915   18.6494 C   0  0  0  0  0  0
  -29.6098  -18.9052   19.9651 C   0  0  0  0  0  0
  -30.0932  -17.7070   20.5908 C   0  0  0  0  0  0
  -29.0323  -23.4100   20.4002 C   0  0  0  0  0  0
  -28.7505  -16.2285   19.1509 C   0  0  0  0  0  0
  -28.8928  -19.7878   17.6056 C   0  0  0  0  0  0
  -32.3269  -18.1077   21.7329 C   0  0  0  0  0  0
  -29.7795  -20.4900   20.4502 C   0  0  0  0  0  0
  -30.8391  -17.7818   21.9170 C   0  0  0  0  0  0
  -28.7454  -21.7994   20.1124 C   0  0  0  0  0  0
  -27.9874  -24.6373   20.0041 C   0  0  0  0  0  0
  -29.8208  -16.2806   20.1559 N   0  0  0  0  0  0
  -30.0999  -23.7083   20.9436 O   0  0  0  0  0  0
  -31.4681  -12.8181   19.1402 H   0  0  0  0  0  0
  -30.4764  -11.7270   20.0708 H   0  0  0  0  0  0
  -29.8608  -11.6548   17.6258 H   0  0  0  0  0  0
  -29.5634  -13.3703   17.6258 H   0  0  0  0  0  0
  -28.0088  -11.1976   19.0668 H   0  0  0  0  0  0
  -27.3856  -12.2779   17.8478 H   0  0  0  0  0  0
  -27.4763  -14.1108   19.2778 H   0  0  0  0  0  0
  -28.8046  -12.4412   21.4961 H   0  0  0  0  0  0
  -28.3506  -14.1260   21.6436 H   0  0  0  0  0  0
  -25.2706   -9.5625   22.4801 H   0  0  0  0  0  0
  -23.9961   -7.4559   22.7472 H   0  0  0  0  0  0
  -21.0797   -8.8726   19.8946 H   0  0  0  0  0  0
  -22.3653  -10.9638   19.6194 H   0  0  0  0  0  0
  -21.1981   -7.6132   23.9710 H   0  0  0  0  0  0
  -21.1484   -6.0514   25.9079 H   0  0  0  0  0  0
  -22.0606   -2.7597   23.2855 H   0  0  0  0  0  0
  -22.3978  -11.9854   22.4864 H   0  0  0  0  0  0
  -21.1018  -13.1256   22.2644 H   0  0  0  0  0  0
  -24.6520  -15.8284   20.5589 H   0  0  0  0  0  0
  -26.2752  -15.6227   20.1409 H   0  0  0  0  0  0
  -26.7272  -32.5306   23.0998 H   0  0  0  0  0  0
  -25.0074  -33.9612   25.0319 H   0  0  0  0  0  0
  -22.7509  -31.2866   21.3764 H   0  0  0  0  0  0
  -23.3760  -35.9581   23.3288 H   0  0  0  0  0  0
  -24.3577  -36.8904   22.2059 H   0  0  0  0  0  0
  -23.7245  -37.6446   23.6690 H   0  0  0  0  0  0
  -26.1593  -31.4716   20.6135 H   0  0  0  0  0  0
  -26.8749  -30.7695   22.0292 H   0  0  0  0  0  0
  -28.1371  -28.8037   21.2397 H   0  0  0  0  0  0
  -25.9297  -25.8435   18.9997 H   0  0  0  0  0  0
  -23.9925  -27.2934   18.9782 H   0  0  0  0  0  0
  -23.8117  -30.5615   19.3959 H   0  0  0  0  0  0
  -22.7926  -29.2279   19.8431 H   0  0  0  0  0  0
  -25.1311  -36.1854   25.0809 H   0  0  0  0  0  0
  -21.0011  -28.3309   24.1355 H   0  0  0  0  0  0
  -20.5680  -26.2333   23.3622 H   0  0  0  0  0  0
  -21.6654  -26.7423   22.1202 H   0  0  0  0  0  0
  -19.6920  -25.6285   21.1256 H   0  0  0  0  0  0
  -19.6698  -27.3178   20.6731 H   0  0  0  0  0  0
  -17.4210  -26.6672   21.4030 H   0  0  0  0  0  0
  -18.0345  -26.0083   22.9030 H   0  0  0  0  0  0
  -19.7953  -30.7295   24.2232 H   0  0  0  0  0  0
  -17.5025  -31.6268   24.5161 H   0  0  0  0  0  0
  -15.5364  -30.2971   23.7676 H   0  0  0  0  0  0
  -15.8692  -28.0812   22.7080 H   0  0  0  0  0  0
  -24.5889  -30.7103   25.7726 H   0  0  0  0  0  0
  -24.8907  -32.2933   26.4791 H   0  0  0  0  0  0
  -25.7995  -30.8945   27.0213 H   0  0  0  0  0  0
  -26.3011  -29.6677   24.1297 H   0  0  0  0  0  0
  -27.4000  -29.7261   25.4870 H   0  0  0  0  0  0
  -27.8921  -30.4194   23.9617 H   0  0  0  0  0  0
  -27.2643  -33.3647   26.2025 H   0  0  0  0  0  0
  -28.3893  -32.6863   25.0349 H   0  0  0  0  0  0
  -28.0692  -31.8491   26.5461 H   0  0  0  0  0  0
  -28.2582  -38.0091   24.7513 H   0  0  0  0  0  0
  -28.1083  -36.2618   24.6288 H   0  0  0  0  0  0
  -27.2293  -37.1424   25.8868 H   0  0  0  0  0  0
  -20.9479  -29.8756   21.6784 H   0  0  0  0  0  0
  -26.0152  -38.2812   24.1412 H   0  0  0  0  0  0
  -28.1432  -17.3065   17.3264 H   0  0  0  0  0  0
  -28.9070  -15.4174   18.4403 H   0  0  0  0  0  0
  -27.8055  -16.1073   19.6702 H   0  0  0  0  0  0
  -28.9838  -19.3767   16.5992 H   0  0  0  0  0  0
  -29.6874  -20.5258   17.7120 H   0  0  0  0  0  0
  -27.9217  -20.2791   17.6693 H   0  0  0  0  0  0
  -32.8356  -18.1563   22.6959 H   0  0  0  0  0  0
  -32.4621  -19.0708   21.2396 H   0  0  0  0  0  0
  -32.8323  -17.3531   21.1305 H   0  0  0  0  0  0
  -30.7687  -20.7824   20.0976 H   0  0  0  0  0  0
  -29.8801  -20.4685   21.5339 H   0  0  0  0  0  0
  -30.7409  -16.8435   22.4635 H   0  0  0  0  0  0
  -30.3684  -18.5290   22.5554 H   0  0  0  0  0  0
  -28.5201  -21.7958   19.0516 H   0  0  0  0  0  0
  -27.7908  -21.5840   20.5917 H   0  0  0  0  0  0
  -27.0576  -24.4124   20.5270 H   0  0  0  0  0  0
  -27.7665  -24.5112   18.9443 H   0  0  0  0  0  0
  1 25  1  0  0  0
  1 30  2  0  0  0
  1 83  1  0  0  0
  2  3  1  0  0  0
  2 25  1  0  0  0
  2 85  1  0  0  0
  2 86  1  0  0  0
  3  4  1  0  0  0
  3 87  1  0  0  0
  3 88  1  0  0  0
  4  5  1  0  0  0
  4 89  1  0  0  0
  4 90  1  0  0  0
  5  6  1  0  0  0
  5 26  1  0  0  0
  5 91  1  0  0  0
  6 25  1  0  0  0
  6 92  1  0  0  0
  6 93  1  0  0  0
  7  8  2  0  0  0
  7 26  1  0  0  0
  7 29  1  0  0  0
  8  9  1  0  0  0
  8 22  1  0  0  0
  9 10  1  0  0  0
  9 27  2  0  0  0
 10 11  2  0  0  0
 10 15  1  0  0  0
 11 12  1  0  0  0
 11 94  1  0  0  0
 12 13  2  0  0  0
 12 95  1  0  0  0
 13 14  1  0  0  0
 13 31  1  0  0  0
 14 15  2  0  0  0
 14 96  1  0  0  0
 15 97  1  0  0  0
 16 17  2  0  0  0
 16 21  1  0  0  0
 16 31  1  0  0  0
 17 18  1  0  0  0
 17 98  1  0  0  0
 18 19  2  0  0  0
 18 99  1  0  0  0
 19 20  1  0  0  0
 19 24  1  0  0  0
 20 21  2  0  0  0
 20100  1  0  0  0
 21 23  1  0  0  0
 22 28  1  0  0  0
 22 32  2  0  0  0
 26 27  1  0  0  0
 28101  1  0  0  0
 28102  1  0  0  0
 29103  1  0  0  0
 29104  1  0  0  0
 33 34  1  0  0  0
 33 66  1  0  0  0
 33 70  2  0  0  0
 34 36  1  0  0  0
 34 59  1  0  0  0
 34105  1  0  0  0
 35 44  2  0  0  0
 35 45  1  0  0  0
 35 68  1  0  0  0
 36 56  1  0  0  0
 36106  1  0  0  0
 37 39  1  0  0  0
 37 47  1  0  0  0
 37 66  1  0  0  0
 37107  1  0  0  0
 38 43  2  0  0  0
 38 46  1  0  0  0
 38 47  1  0  0  0
 39 64  1  0  0  0
 39 67  2  0  0  0
 40 52  1  0  0  0
 40 53  2  0  0  0
 40 58  1  0  0  0
 41108  1  0  0  0
 41109  1  0  0  0
 41110  1  0  0  0
 41 48  1  0  0  0
 42 43  1  0  0  0
 42 66  1  0  0  0
 42111  1  0  0  0
 42112  1  0  0  0
 43 44  1  0  0  0
 44113  1  0  0  0
 45 46  2  0  0  0
 45114  1  0  0  0
 46115  1  0  0  0
 47116  1  0  0  0
 47117  1  0  0  0
 48 56  1  0  0  0
 48 65  1  0  0  0
 48118  1  0  0  0
 49 50  1  0  0  0
 49 53  1  0  0  0
 49 64  1  0  0  0
 49119  1  0  0  0
 50 51  1  0  0  0
 50120  1  0  0  0
 50121  1  0  0  0
 51 52  1  0  0  0
 51122  1  0  0  0
 51123  1  0  0  0
 52124  1  0  0  0
 52125  1  0  0  0
 53 54  1  0  0  0
 54 55  2  0  0  0
 54126  1  0  0  0
 55 57  1  0  0  0
 55127  1  0  0  0
 56 69  2  0  0  0
 57 58  2  0  0  0
 57128  1  0  0  0
 58129  1  0  0  0
 59 60  1  0  0  0
 59 61  1  0  0  0
 59 62  1  0  0  0
 60130  1  0  0  0
 60131  1  0  0  0
 60132  1  0  0  0
 61133  1  0  0  0
 61134  1  0  0  0
 61135  1  0  0  0
 62136  1  0  0  0
 62137  1  0  0  0
 62138  1  0  0  0
 63 65  1  0  0  0
 63139  1  0  0  0
 63140  1  0  0  0
 63141  1  0  0  0
 64142  1  0  0  0
 65143  1  0  0  0
 68 82  1  0  0  0
 71 72  2  0  0  0
 71 76  1  0  0  0
 71144  1  0  0  0
 72 73  1  0  0  0
 72 77  1  0  0  0
 73 74  2  0  0  0
 73 79  1  0  0  0
 74 80  1  0  0  0
 74 83  1  0  0  0
 75 81  1  0  0  0
 75 82  1  0  0  0
 75 84  2  0  0  0
 76 83  1  0  0  0
 76145  1  0  0  0
 76146  1  0  0  0
 77147  1  0  0  0
 77148  1  0  0  0
 77149  1  0  0  0
 78 80  1  0  0  0
 78150  1  0  0  0
 78151  1  0  0  0
 78152  1  0  0  0
 79 81  1  0  0  0
 79153  1  0  0  0
 79154  1  0  0  0
 80155  1  0  0  0
 80156  1  0  0  0
 81157  1  0  0  0
 81158  1  0  0  0
 82159  1  0  0  0
 82160  1  0  0  0
M  ISO  4   1 100  68 101  82 101  83 100
M  END
> <chiral flag>
0

> <version>
0

> <s_m_source_file>
/data/baiqing/PycharmProjects/Reinvent-master-3.2/result/LINK_invent/BTK/process_docking_weight1_custom_product_contain_oxygen_bond_distance_aromatic_linkinvent_7_9_3/rearranged_h_0138.sdf

> <i_m_source_file_index>
91

> <r_mmod_Potential_Energy-OPLS-2005>
757.043212890625

> <r_mmod_Stretch_Energy-OPLS-2005>
292.690460205078

> <r_mmod_Bend_Energy-OPLS-2005>
264.991485595703

> <r_mmod_Torsional_Energy-OPLS-2005>
292.897369384766

> <r_mmod_Improper_Torsional_Energy-OPLS-2005>
6.95906591415405

> <r_mmod_Van_der_Waal_Energy-OPLS-2005>
139.462997436523

> <r_mmod_Electrostatic_Energy-OPLS-2005>
-272.163940429688

> <r_mmod_Solvation_Energy-OPLS-2005>
-208.136215209961

> <b_mmod_Minimization_Converged-OPLS-2005>
0

> <r_mmod_RMS_Derivative-OPLS-2005>
0.569912195205688

$$$$
91
                    3D
 Structure written by MMmdl.
166174  0  0  1  0            999 V2000
  -30.7076  -14.4696   20.5218 C   0  0  0  0  0  0
  -30.4187  -12.2602   19.4420 C   0  0  0  0  0  0
  -29.5035  -12.4819   18.2191 C   0  0  0  0  0  0
  -28.0190  -12.3647   18.6198 C   0  0  0  0  0  0
  -27.6598  -13.2109   19.8719 C   0  0  2  0  0  0
  -28.6904  -13.0028   21.0029 C   0  0  0  0  0  0
  -25.2572  -13.8178   20.5669 C   0  0  0  0  0  0
  -24.1830  -13.0440   20.9152 C   0  0  0  0  0  0
  -24.6391  -11.6910   20.8714 C   0  0  0  0  0  0
  -23.9063  -10.4288   21.0396 C   0  0  0  0  0  0
  -24.3613   -9.4203   21.9174 C   0  0  0  0  0  0
  -23.6282   -8.2244   22.0755 C   0  0  0  0  0  0
  -22.4263   -8.0282   21.3550 C   0  0  0  0  0  0
  -21.9903   -9.0251   20.4647 C   0  0  0  0  0  0
  -22.7234  -10.2127   20.3051 C   0  0  0  0  0  0
  -21.6849   -6.0732   22.5274 C   0  0  0  0  0  0
  -21.4020   -6.5639   23.8210 C   0  0  0  0  0  0
  -21.3659   -5.6791   24.9172 C   0  0  0  0  0  0
  -21.6041   -4.3055   24.7227 C   0  0  0  0  0  0
  -21.8822   -3.8146   23.4349 C   0  0  0  0  0  0
  -21.9193   -4.6959   22.3403 C   0  0  0  0  0  0
  -22.7852  -13.5225   21.1830 C   0  0  0  0  0  0
  -22.1659   -4.2144   21.0979 F   0  0  0  0  0  0
  -21.5621   -3.4540   25.7742 F   0  0  0  0  0  0
  -30.0335  -13.2421   20.4608 N   0  0  0  0  0  0
  -26.3004  -12.9355   20.3322 N   0  0  0  0  0  0
  -25.9314  -11.6508   20.5731 N   0  0  0  0  0  0
  -22.0513  -12.8214   22.0398 N   0  0  0  0  0  0
  -25.4305  -15.1900   20.4120 N   0  0  0  0  0  0
  -31.8457  -14.6735   20.0901 O   0  0  0  0  0  0
  -21.6634   -6.8876   21.4240 O   0  0  0  0  0  0
  -22.3528  -14.5528   20.6681 O   0  0  0  0  0  0
  -24.6141  -31.8684   23.2108 C   0  0  0  0  0  0
  -25.9040  -32.4821   23.8404 C   0  0  1  0  0  0
  -27.2361  -27.4380   20.0883 C   0  0  0  0  0  0
  -25.5902  -33.8620   24.2338 N   0  0  0  0  0  0
  -23.4004  -30.4934   21.5521 C   0  0  2  0  0  0
  -24.8454  -28.9594   20.1160 C   0  0  0  0  0  0
  -22.7402  -29.4671   22.5004 C   0  0  0  0  0  0
  -18.0273  -28.1369   22.8493 C   0  0  0  0  0  0
  -24.1492  -36.7317   23.2637 C   0  0  0  0  0  0
  -25.9294  -30.8351   21.3630 C   0  0  0  0  0  0
  -26.0054  -29.4694   20.7103 C   0  0  0  0  0  0
  -27.1996  -28.7150   20.6947 C   0  0  0  0  0  0
  -26.0526  -26.9425   19.4896 C   0  0  0  0  0  0
  -24.8636  -27.6943   19.5061 C   0  0  0  0  0  0
  -23.6076  -29.8259   20.1670 C   0  0  0  0  0  0
  -25.4112  -36.3116   24.0337 C   0  0  1  0  0  0
  -20.5861  -28.3662   23.1320 C   0  0  2  0  0  0
  -20.6768  -26.9398   22.5421 C   0  0  0  0  0  0
  -19.5749  -26.6380   21.5214 C   0  0  0  0  0  0
  -18.1922  -26.7917   22.1618 C   0  0  0  0  0  0
  -19.1521  -28.8831   23.2902 C   0  0  0  0  0  0
  -18.9453  -30.1441   23.8904 C   0  0  0  0  0  0
  -17.6457  -30.6578   24.0564 C   0  0  0  0  0  0
  -25.9036  -34.9473   23.5132 C   0  0  0  0  0  0
  -16.5347  -29.9078   23.6326 C   0  0  0  0  0  0
  -16.7262  -28.6496   23.0344 C   0  0  0  0  0  0
  -26.4469  -31.6589   25.0722 C   0  0  0  0  0  0
  -25.3744  -31.3663   26.1473 C   0  0  0  0  0  0
  -27.0303  -30.3042   24.6074 C   0  0  0  0  0  0
  -27.6055  -32.4298   25.7478 C   0  0  0  0  0  0
  -27.5586  -37.1813   24.8465 C   0  0  0  0  0  0
  -21.4135  -29.3028   22.3732 N   0  0  0  0  0  0
  -26.4301  -37.3800   23.9404 N   0  0  0  0  0  0
  -24.6664  -31.0797   22.1003 N   0  0  0  0  0  0
  -23.4182  -28.8225   23.3045 O   0  0  0  0  0  0
  -28.4272  -26.7347   20.1139 O   0  0  0  0  0  0
  -26.5598  -34.8917   22.4691 O   0  0  0  0  0  0
  -23.5339  -32.1434   23.7512 O   0  0  0  0  0  0
  -29.6318  -16.6415   18.7620 C   0  0  0  0  0  0
  -29.7221  -17.8145   17.9923 C   0  0  0  0  0  0
  -30.2055  -17.9050   20.7645 C   0  0  0  0  0  0
  -30.2990  -19.0931   19.9917 C   0  0  0  0  0  0
  -29.9062  -16.6627   20.1502 C   0  0  0  0  0  0
  -30.0756  -19.0311   18.5985 C   0  0  0  0  0  0
  -27.8726  -24.3719   20.6544 C   0  0  0  0  0  0
  -30.1058  -22.3262   22.1559 C   0  0  0  0  0  0
  -26.6463  -22.2072   21.2207 C   0  0  0  0  0  0
  -26.7506  -22.9832   18.8691 C   0  0  0  0  0  0
  -30.7192  -20.4166   20.6306 C   0  0  0  0  0  0
  -28.4740  -25.3758   19.6394 C   0  0  0  0  0  0
  -28.8489  -22.0645   19.9212 C   0  0  0  0  0  0
  -29.5622  -21.3399   21.1056 C   0  0  2  0  0  0
  -27.5593  -22.9148   20.1880 C   0  0  0  0  0  0
  -27.6345  -24.7306   21.8127 O   0  0  0  0  0  0
  -29.8628  -15.4857   20.8767 O   0  0  0  0  0  0
  -30.2131  -20.1376   17.8296 F   0  0  0  0  0  0
  -31.4693  -12.3475   19.1580 H   0  0  0  0  0  0
  -30.2942  -11.2502   19.8357 H   0  0  0  0  0  0
  -29.7349  -11.7536   17.4409 H   0  0  0  0  0  0
  -29.6950  -13.4629   17.7837 H   0  0  0  0  0  0
  -27.8157  -11.3112   18.8155 H   0  0  0  0  0  0
  -27.3794  -12.6457   17.7825 H   0  0  0  0  0  0
  -27.7019  -14.2576   19.5709 H   0  0  0  0  0  0
  -28.6341  -11.9822   21.3845 H   0  0  0  0  0  0
  -28.4718  -13.6512   21.8534 H   0  0  0  0  0  0
  -25.2762   -9.5666   22.4745 H   0  0  0  0  0  0
  -23.9985   -7.4637   22.7477 H   0  0  0  0  0  0
  -21.0839   -8.8770   19.8947 H   0  0  0  0  0  0
  -22.3696  -10.9666   19.6160 H   0  0  0  0  0  0
  -21.2022   -7.6147   23.9715 H   0  0  0  0  0  0
  -21.1474   -6.0521   25.9073 H   0  0  0  0  0  0
  -22.0603   -2.7607   23.2854 H   0  0  0  0  0  0
  -22.4136  -11.9862   22.4759 H   0  0  0  0  0  0
  -21.1134  -13.1238   22.2630 H   0  0  0  0  0  0
  -24.6709  -15.8507   20.5330 H   0  0  0  0  0  0
  -26.2972  -15.6302   20.1291 H   0  0  0  0  0  0
  -26.7109  -32.5536   23.1170 H   0  0  0  0  0  0
  -25.0085  -33.9784   25.0507 H   0  0  0  0  0  0
  -22.6891  -31.3105   21.4149 H   0  0  0  0  0  0
  -23.3754  -35.9651   23.3307 H   0  0  0  0  0  0
  -24.3596  -36.8929   22.2052 H   0  0  0  0  0  0
  -23.7241  -37.6520   23.6650 H   0  0  0  0  0  0
  -26.0417  -31.6020   20.5953 H   0  0  0  0  0  0
  -26.8172  -30.8875   21.9815 H   0  0  0  0  0  0
  -28.0966  -29.1066   21.1539 H   0  0  0  0  0  0
  -26.0188  -25.9793   19.0062 H   0  0  0  0  0  0
  -23.9695  -27.2951   19.0464 H   0  0  0  0  0  0
  -23.7139  -30.6004   19.4065 H   0  0  0  0  0  0
  -22.7306  -29.2458   19.8736 H   0  0  0  0  0  0
  -25.1288  -36.1984   25.0832 H   0  0  0  0  0  0
  -20.9954  -28.3224   24.1441 H   0  0  0  0  0  0
  -20.5686  -26.2259   23.3601 H   0  0  0  0  0  0
  -21.6638  -26.7449   22.1209 H   0  0  0  0  0  0
  -19.6912  -25.6296   21.1228 H   0  0  0  0  0  0
  -19.6688  -27.3205   20.6757 H   0  0  0  0  0  0
  -17.4200  -26.6675   21.4010 H   0  0  0  0  0  0
  -18.0313  -26.0045   22.9001 H   0  0  0  0  0  0
  -19.7931  -30.7255   24.2269 H   0  0  0  0  0  0
  -17.5009  -31.6256   24.5169 H   0  0  0  0  0  0
  -15.5348  -30.2982   23.7642 H   0  0  0  0  0  0
  -15.8664  -28.0825   22.7045 H   0  0  0  0  0  0
  -24.5944  -30.6979   25.7807 H   0  0  0  0  0  0
  -24.8902  -32.2797   26.4933 H   0  0  0  0  0  0
  -25.8111  -30.8835   27.0226 H   0  0  0  0  0  0
  -26.2844  -29.6793   24.1148 H   0  0  0  0  0  0
  -27.4121  -29.7275   25.4508 H   0  0  0  0  0  0
  -27.8649  -30.4382   23.9188 H   0  0  0  0  0  0
  -27.2701  -33.3600   26.2075 H   0  0  0  0  0  0
  -28.3846  -32.6847   25.0281 H   0  0  0  0  0  0
  -28.0737  -31.8402   26.5371 H   0  0  0  0  0  0
  -28.2601  -38.0114   24.7530 H   0  0  0  0  0  0
  -28.1087  -36.2646   24.6280 H   0  0  0  0  0  0
  -27.2303  -37.1450   25.8869 H   0  0  0  0  0  0
  -20.9294  -29.8740   21.6947 H   0  0  0  0  0  0
  -26.0192  -38.2878   24.1409 H   0  0  0  0  0  0
  -29.3735  -15.7160   18.2696 H   0  0  0  0  0  0
  -29.5377  -17.7794   16.9285 H   0  0  0  0  0  0
  -30.3987  -17.9387   21.8274 H   0  0  0  0  0  0
  -30.6458  -21.8049   22.9471 H   0  0  0  0  0  0
  -29.3085  -22.8796   22.6478 H   0  0  0  0  0  0
  -30.7899  -23.0486   21.7093 H   0  0  0  0  0  0
  -25.7020  -22.7391   21.3448 H   0  0  0  0  0  0
  -27.1029  -22.1455   22.2087 H   0  0  0  0  0  0
  -26.4075  -21.1890   20.9106 H   0  0  0  0  0  0
  -25.8909  -23.6497   18.9512 H   0  0  0  0  0  0
  -26.3622  -22.0032   18.5899 H   0  0  0  0  0  0
  -27.3576  -23.3206   18.0287 H   0  0  0  0  0  0
  -31.3699  -20.9595   19.9432 H   0  0  0  0  0  0
  -31.3579  -20.1620   21.4772 H   0  0  0  0  0  0
  -28.0044  -25.2987   18.6608 H   0  0  0  0  0  0
  -29.5211  -25.1103   19.4942 H   0  0  0  0  0  0
  -28.5656  -21.2877   19.2124 H   0  0  0  0  0  0
  -29.5804  -22.6710   19.3850 H   0  0  0  0  0  0
  -28.8456  -20.6946   21.6143 H   0  0  0  0  0  0
  1 25  1  0  0  0
  1 30  2  0  0  0
  1 87  1  0  0  0
  2  3  1  0  0  0
  2 25  1  0  0  0
  2 89  1  0  0  0
  2 90  1  0  0  0
  3  4  1  0  0  0
  3 91  1  0  0  0
  3 92  1  0  0  0
  4  5  1  0  0  0
  4 93  1  0  0  0
  4 94  1  0  0  0
  5  6  1  0  0  0
  5 26  1  0  0  0
  5 95  1  0  0  0
  6 25  1  0  0  0
  6 96  1  0  0  0
  6 97  1  0  0  0
  7  8  2  0  0  0
  7 26  1  0  0  0
  7 29  1  0  0  0
  8  9  1  0  0  0
  8 22  1  0  0  0
  9 10  1  0  0  0
  9 27  2  0  0  0
 10 11  2  0  0  0
 10 15  1  0  0  0
 11 12  1  0  0  0
 11 98  1  0  0  0
 12 13  2  0  0  0
 12 99  1  0  0  0
 13 14  1  0  0  0
 13 31  1  0  0  0
 14 15  2  0  0  0
 14100  1  0  0  0
 15101  1  0  0  0
 16 17  2  0  0  0
 16 21  1  0  0  0
 16 31  1  0  0  0
 17 18  1  0  0  0
 17102  1  0  0  0
 18 19  2  0  0  0
 18103  1  0  0  0
 19 20  1  0  0  0
 19 24  1  0  0  0
 20 21  2  0  0  0
 20104  1  0  0  0
 21 23  1  0  0  0
 22 28  1  0  0  0
 22 32  2  0  0  0
 26 27  1  0  0  0
 28105  1  0  0  0
 28106  1  0  0  0
 29107  1  0  0  0
 29108  1  0  0  0
 33 34  1  0  0  0
 33 66  1  0  0  0
 33 70  2  0  0  0
 34 36  1  0  0  0
 34 59  1  0  0  0
 34109  1  0  0  0
 35 44  2  0  0  0
 35 45  1  0  0  0
 35 68  1  0  0  0
 36 56  1  0  0  0
 36110  1  0  0  0
 37 39  1  0  0  0
 37 47  1  0  0  0
 37 66  1  0  0  0
 37111  1  0  0  0
 38 43  2  0  0  0
 38 46  1  0  0  0
 38 47  1  0  0  0
 39 64  1  0  0  0
 39 67  2  0  0  0
 40 52  1  0  0  0
 40 53  2  0  0  0
 40 58  1  0  0  0
 41112  1  0  0  0
 41113  1  0  0  0
 41114  1  0  0  0
 41 48  1  0  0  0
 42 43  1  0  0  0
 42 66  1  0  0  0
 42115  1  0  0  0
 42116  1  0  0  0
 43 44  1  0  0  0
 44117  1  0  0  0
 45 46  2  0  0  0
 45118  1  0  0  0
 46119  1  0  0  0
 47120  1  0  0  0
 47121  1  0  0  0
 48 56  1  0  0  0
 48 65  1  0  0  0
 48122  1  0  0  0
 49 50  1  0  0  0
 49 53  1  0  0  0
 49 64  1  0  0  0
 49123  1  0  0  0
 50 51  1  0  0  0
 50124  1  0  0  0
 50125  1  0  0  0
 51 52  1  0  0  0
 51126  1  0  0  0
 51127  1  0  0  0
 52128  1  0  0  0
 52129  1  0  0  0
 53 54  1  0  0  0
 54 55  2  0  0  0
 54130  1  0  0  0
 55 57  1  0  0  0
 55131  1  0  0  0
 56 69  2  0  0  0
 57 58  2  0  0  0
 57132  1  0  0  0
 58133  1  0  0  0
 59 60  1  0  0  0
 59 61  1  0  0  0
 59 62  1  0  0  0
 60134  1  0  0  0
 60135  1  0  0  0
 60136  1  0  0  0
 61137  1  0  0  0
 61138  1  0  0  0
 61139  1  0  0  0
 62140  1  0  0  0
 62141  1  0  0  0
 62142  1  0  0  0
 63 65  1  0  0  0
 63143  1  0  0  0
 63144  1  0  0  0
 63145  1  0  0  0
 64146  1  0  0  0
 65147  1  0  0  0
 68 82  1  0  0  0
 71 72  2  0  0  0
 71 75  1  0  0  0
 71148  1  0  0  0
 72 76  1  0  0  0
 72149  1  0  0  0
 73 74  1  0  0  0
 73 75  2  0  0  0
 73150  1  0  0  0
 74 76  2  0  0  0
 74 81  1  0  0  0
 75 87  1  0  0  0
 76 88  1  0  0  0
 77 82  1  0  0  0
 77 85  1  0  0  0
 77 86  2  0  0  0
 78151  1  0  0  0
 78152  1  0  0  0
 78153  1  0  0  0
 78 84  1  0  0  0
 79154  1  0  0  0
 79155  1  0  0  0
 79156  1  0  0  0
 79 85  1  0  0  0
 80 85  1  0  0  0
 80157  1  0  0  0
 80158  1  0  0  0
 80159  1  0  0  0
 81 84  1  0  0  0
 81160  1  0  0  0
 81161  1  0  0  0
 82162  1  0  0  0
 82163  1  0  0  0
 83 84  1  0  0  0
 83 85  1  0  0  0
 83164  1  0  0  0
 83165  1  0  0  0
 84166  1  0  0  0
M  ISO  4   1 100  68 101  82 101  87 100
M  END
> <chiral flag>
0

> <version>
0

> <s_m_source_file>
/data/baiqing/PycharmProjects/Reinvent-master-3.2/result/LINK_invent/BTK/process_docking_weight1_custom_product_contain_oxygen_bond_distance_aromatic_linkinvent_7_9_3/rearranged_h_0138.sdf

> <i_m_source_file_index>
92

> <r_mmod_Potential_Energy-OPLS-2005>
70.3934783935547

> <r_mmod_Stretch_Energy-OPLS-2005>
42.8510208129883

> <r_mmod_Bend_Energy-OPLS-2005>
106.621696472168

> <r_mmod_Torsional_Energy-OPLS-2005>
197.305877685547

> <r_mmod_Improper_Torsional_Energy-OPLS-2005>
6.06476402282715

> <r_mmod_Van_der_Waal_Energy-OPLS-2005>
155.398788452148

> <r_mmod_Electrostatic_Energy-OPLS-2005>
-252.810104370117

> <r_mmod_Solvation_Energy-OPLS-2005>
-198.139877319336

> <b_mmod_Minimization_Converged-OPLS-2005>
0

> <r_mmod_RMS_Derivative-OPLS-2005>
0.922132551670074

$$$$
92
                    3D
 Structure written by MMmdl.
156164  0  0  1  0            999 V2000
  -30.6147  -14.7519   20.4540 C   0  0  0  0  0  0
  -30.4304  -12.4597   19.4699 C   0  0  0  0  0  0
  -29.5070  -12.5027   18.2334 C   0  0  0  0  0  0
  -28.0341  -12.3266   18.6500 C   0  0  0  0  0  0
  -27.6383  -13.2327   19.8453 C   0  0  2  0  0  0
  -28.6845  -13.1789   20.9800 C   0  0  0  0  0  0
  -25.2495  -13.8192   20.5684 C   0  0  0  0  0  0
  -24.1799  -13.0435   20.9219 C   0  0  0  0  0  0
  -24.6396  -11.6915   20.8764 C   0  0  0  0  0  0
  -23.9071  -10.4290   21.0411 C   0  0  0  0  0  0
  -24.3624   -9.4203   21.9186 C   0  0  0  0  0  0
  -23.6297   -8.2241   22.0756 C   0  0  0  0  0  0
  -22.4279   -8.0282   21.3543 C   0  0  0  0  0  0
  -21.9914   -9.0255   20.4647 C   0  0  0  0  0  0
  -22.7245  -10.2131   20.3057 C   0  0  0  0  0  0
  -21.6852   -6.0736   22.5276 C   0  0  0  0  0  0
  -21.4015   -6.5638   23.8210 C   0  0  0  0  0  0
  -21.3660   -5.6791   24.9172 C   0  0  0  0  0  0
  -21.6043   -4.3055   24.7219 C   0  0  0  0  0  0
  -21.8822   -3.8146   23.4340 C   0  0  0  0  0  0
  -21.9195   -4.6963   22.3399 C   0  0  0  0  0  0
  -22.7822  -13.5216   21.1876 C   0  0  0  0  0  0
  -22.1664   -4.2151   21.0972 F   0  0  0  0  0  0
  -21.5627   -3.4533   25.7733 F   0  0  0  0  0  0
  -29.9822  -13.5298   20.3909 N   0  0  0  0  0  0
  -26.2921  -12.9404   20.3263 N   0  0  0  0  0  0
  -25.9324  -11.6548   20.5760 N   0  0  0  0  0  0
  -22.0474  -12.8201   22.0430 N   0  0  0  0  0  0
  -25.4147  -15.1913   20.4040 N   0  0  0  0  0  0
  -31.8105  -14.8225   20.1584 O   0  0  0  0  0  0
  -21.6641   -6.8879   21.4237 O   0  0  0  0  0  0
  -22.3501  -14.5517   20.6717 O   0  0  0  0  0  0
  -24.6308  -31.8548   23.1964 C   0  0  0  0  0  0
  -25.9130  -32.4748   23.8321 C   0  0  1  0  0  0
  -27.2173  -27.2602   20.1329 C   0  0  0  0  0  0
  -25.5931  -33.8555   24.2242 N   0  0  0  0  0  0
  -23.4279  -30.4760   21.5399 C   0  0  2  0  0  0
  -24.8752  -28.9186   20.1123 C   0  0  0  0  0  0
  -22.7496  -29.4599   22.4909 C   0  0  0  0  0  0
  -18.0292  -28.1387   22.8492 C   0  0  0  0  0  0
  -24.1488  -36.7278   23.2639 C   0  0  0  0  0  0
  -25.9735  -30.7671   21.3750 C   0  0  0  0  0  0
  -26.0476  -29.3881   20.7199 C   0  0  0  0  0  0
  -27.2259  -28.5737   20.7139 C   0  0  0  0  0  0
  -26.0241  -26.8530   19.5028 C   0  0  0  0  0  0
  -24.8677  -27.6583   19.4929 C   0  0  0  0  0  0
  -23.6455  -29.8069   20.1577 C   0  0  0  0  0  0
  -25.4117  -36.3064   24.0323 C   0  0  1  0  0  0
  -20.5897  -28.3694   23.1272 C   0  0  2  0  0  0
  -20.6783  -26.9411   22.5411 C   0  0  0  0  0  0
  -19.5756  -26.6384   21.5217 C   0  0  0  0  0  0
  -18.1936  -26.7940   22.1625 C   0  0  0  0  0  0
  -19.1544  -28.8862   23.2879 C   0  0  0  0  0  0
  -18.9472  -30.1466   23.8888 C   0  0  0  0  0  0
  -17.6470  -30.6595   24.0559 C   0  0  0  0  0  0
  -25.9058  -34.9439   23.5088 C   0  0  0  0  0  0
  -16.5359  -29.9091   23.6336 C   0  0  0  0  0  0
  -16.7277  -28.6506   23.0359 C   0  0  0  0  0  0
  -26.4500  -31.6580   25.0714 C   0  0  0  0  0  0
  -25.3720  -31.3742   26.1430 C   0  0  0  0  0  0
  -27.0349  -30.3002   24.6198 C   0  0  0  0  0  0
  -27.6052  -32.4324   25.7490 C   0  0  0  0  0  0
  -27.5579  -37.1784   24.8459 C   0  0  0  0  0  0
  -21.4205  -29.3042   22.3658 N   0  0  0  0  0  0
  -26.4280  -37.3768   23.9416 N   0  0  0  0  0  0
  -24.6967  -31.0507   22.0936 N   0  0  0  0  0  0
  -23.4198  -28.8142   23.3008 O   0  0  0  0  0  0
  -28.3040  -26.3595   20.1323 O   0  0  0  0  0  0
  -26.5630  -34.8919   22.4654 O   0  0  0  0  0  0
  -23.5464  -32.1362   23.7268 O   0  0  0  0  0  0
  -31.5062  -17.7041   21.0866 C   0  0  0  0  0  0
  -31.0419  -20.1081   20.8945 C   0  0  0  0  0  0
  -29.3095  -18.4767   20.3688 C   0  0  0  0  0  0
  -30.2035  -17.3506   20.6660 C   0  0  0  0  0  0
  -29.7089  -19.8852   20.4811 C   0  0  0  0  0  0
  -31.9159  -19.0460   21.1902 C   0  0  0  0  0  0
  -28.6061  -23.6770   19.9756 C   0  0  0  0  0  0
  -27.8154  -17.6716   18.4734 C   0  0  0  0  0  0
  -27.8877  -18.1673   19.9237 C   0  0  0  0  0  0
  -28.0885  -24.9950   20.7354 C   0  0  0  0  0  0
  -29.0135  -22.3547   20.7995 C   0  0  0  0  0  0
  -29.8367  -15.9000   20.6046 N   0  0  0  0  0  0
  -28.6912  -23.6792   18.7419 O   0  0  0  0  0  0
  -28.8838  -21.0075   20.1382 O   0  0  0  0  0  0
  -33.1847  -19.3227   21.5774 F   0  0  0  0  0  0
  -31.4699  -12.5838   19.1629 H   0  0  0  0  0  0
  -30.3789  -11.4860   19.9599 H   0  0  0  0  0  0
  -29.7905  -11.7263   17.5215 H   0  0  0  0  0  0
  -29.6317  -13.4547   17.7143 H   0  0  0  0  0  0
  -27.8935  -11.2793   18.9200 H   0  0  0  0  0  0
  -27.3755  -12.5111   17.8009 H   0  0  0  0  0  0
  -27.6285  -14.2514   19.4569 H   0  0  0  0  0  0
  -28.7231  -12.1857   21.4299 H   0  0  0  0  0  0
  -28.4205  -13.8690   21.7829 H   0  0  0  0  0  0
  -25.2769   -9.5678   22.4760 H   0  0  0  0  0  0
  -24.0006   -7.4628   22.7473 H   0  0  0  0  0  0
  -21.0851   -8.8771   19.8951 H   0  0  0  0  0  0
  -22.3705  -10.9669   19.6168 H   0  0  0  0  0  0
  -21.2006   -7.6151   23.9713 H   0  0  0  0  0  0
  -21.1479   -6.0522   25.9075 H   0  0  0  0  0  0
  -22.0601   -2.7612   23.2835 H   0  0  0  0  0  0
  -22.4098  -11.9859   22.4805 H   0  0  0  0  0  0
  -21.1094  -13.1220   22.2647 H   0  0  0  0  0  0
  -24.6333  -15.8319   20.4924 H   0  0  0  0  0  0
  -26.2338  -15.6208   19.9974 H   0  0  0  0  0  0
  -26.7187  -32.5397   23.1053 H   0  0  0  0  0  0
  -25.0087  -33.9699   25.0396 H   0  0  0  0  0  0
  -22.7246  -31.2989   21.3928 H   0  0  0  0  0  0
  -23.3761  -35.9597   23.3284 H   0  0  0  0  0  0
  -24.3590  -36.8918   22.2059 H   0  0  0  0  0  0
  -23.7229  -37.6468   23.6677 H   0  0  0  0  0  0
  -26.1124  -31.5266   20.6049 H   0  0  0  0  0  0
  -26.8518  -30.8177   22.0072 H   0  0  0  0  0  0
  -28.1277  -28.9325   21.1906 H   0  0  0  0  0  0
  -25.9803  -25.8860   19.0212 H   0  0  0  0  0  0
  -23.9700  -27.2946   19.0122 H   0  0  0  0  0  0
  -23.7698  -30.5816   19.4001 H   0  0  0  0  0  0
  -22.7627  -29.2416   19.8538 H   0  0  0  0  0  0
  -25.1296  -36.1892   25.0812 H   0  0  0  0  0  0
  -20.9993  -28.3267   24.1391 H   0  0  0  0  0  0
  -20.5698  -26.2300   23.3616 H   0  0  0  0  0  0
  -21.6648  -26.7445   22.1192 H   0  0  0  0  0  0
  -19.6918  -25.6296   21.1249 H   0  0  0  0  0  0
  -19.6696  -27.3197   20.6750 H   0  0  0  0  0  0
  -17.4208  -26.6693   21.4022 H   0  0  0  0  0  0
  -18.0323  -26.0089   22.9025 H   0  0  0  0  0  0
  -19.7946  -30.7287   24.2246 H   0  0  0  0  0  0
  -17.5025  -31.6274   24.5162 H   0  0  0  0  0  0
  -15.5360  -30.2987   23.7677 H   0  0  0  0  0  0
  -15.8676  -28.0820   22.7074 H   0  0  0  0  0  0
  -24.5892  -30.7087   25.7762 H   0  0  0  0  0  0
  -24.8915  -32.2924   26.4818 H   0  0  0  0  0  0
  -25.8038  -30.8943   27.0220 H   0  0  0  0  0  0
  -26.2937  -29.6745   24.1214 H   0  0  0  0  0  0
  -27.4032  -29.7252   25.4699 H   0  0  0  0  0  0
  -27.8806  -30.4284   23.9443 H   0  0  0  0  0  0
  -27.2650  -33.3628   26.2043 H   0  0  0  0  0  0
  -28.3878  -32.6874   25.0332 H   0  0  0  0  0  0
  -28.0699  -31.8464   26.5423 H   0  0  0  0  0  0
  -28.2562  -38.0113   24.7547 H   0  0  0  0  0  0
  -28.1106  -36.2649   24.6226 H   0  0  0  0  0  0
  -27.2312  -37.1351   25.8862 H   0  0  0  0  0  0
  -20.9386  -29.8755   21.6861 H   0  0  0  0  0  0
  -26.0151  -38.2826   24.1454 H   0  0  0  0  0  0
  -32.2282  -16.9468   21.3487 H   0  0  0  0  0  0
  -31.4480  -21.1035   20.9651 H   0  0  0  0  0  0
  -26.7865  -17.4497   18.1895 H   0  0  0  0  0  0
  -28.4006  -16.7637   18.3273 H   0  0  0  0  0  0
  -28.1943  -18.4248   17.7823 H   0  0  0  0  0  0
  -27.2609  -19.0526   20.0368 H   0  0  0  0  0  0
  -27.4615  -17.4226   20.5958 H   0  0  0  0  0  0
  -28.5581  -25.0040   21.7188 H   0  0  0  0  0  0
  -27.0245  -24.8495   20.9250 H   0  0  0  0  0  0
  -28.4038  -22.3317   21.7023 H   0  0  0  0  0  0
  -30.0305  -22.5205   21.1445 H   0  0  0  0  0  0
  -28.8488  -15.7078   20.6541 H   0  0  0  0  0  0
  1 25  1  0  0  0
  1 30  2  0  0  0
  1 82  1  0  0  0
  2  3  1  0  0  0
  2 25  1  0  0  0
  2 86  1  0  0  0
  2 87  1  0  0  0
  3  4  1  0  0  0
  3 88  1  0  0  0
  3 89  1  0  0  0
  4  5  1  0  0  0
  4 90  1  0  0  0
  4 91  1  0  0  0
  5  6  1  0  0  0
  5 26  1  0  0  0
  5 92  1  0  0  0
  6 25  1  0  0  0
  6 93  1  0  0  0
  6 94  1  0  0  0
  7  8  2  0  0  0
  7 26  1  0  0  0
  7 29  1  0  0  0
  8  9  1  0  0  0
  8 22  1  0  0  0
  9 10  1  0  0  0
  9 27  2  0  0  0
 10 11  2  0  0  0
 10 15  1  0  0  0
 11 12  1  0  0  0
 11 95  1  0  0  0
 12 13  2  0  0  0
 12 96  1  0  0  0
 13 14  1  0  0  0
 13 31  1  0  0  0
 14 15  2  0  0  0
 14 97  1  0  0  0
 15 98  1  0  0  0
 16 17  2  0  0  0
 16 21  1  0  0  0
 16 31  1  0  0  0
 17 18  1  0  0  0
 17 99  1  0  0  0
 18 19  2  0  0  0
 18100  1  0  0  0
 19 20  1  0  0  0
 19 24  1  0  0  0
 20 21  2  0  0  0
 20101  1  0  0  0
 21 23  1  0  0  0
 22 28  1  0  0  0
 22 32  2  0  0  0
 26 27  1  0  0  0
 28102  1  0  0  0
 28103  1  0  0  0
 29104  1  0  0  0
 29105  1  0  0  0
 33 34  1  0  0  0
 33 66  1  0  0  0
 33 70  2  0  0  0
 34 36  1  0  0  0
 34 59  1  0  0  0
 34106  1  0  0  0
 35 44  2  0  0  0
 35 45  1  0  0  0
 35 68  1  0  0  0
 36 56  1  0  0  0
 36107  1  0  0  0
 37 39  1  0  0  0
 37 47  1  0  0  0
 37 66  1  0  0  0
 37108  1  0  0  0
 38 43  2  0  0  0
 38 46  1  0  0  0
 38 47  1  0  0  0
 39 64  1  0  0  0
 39 67  2  0  0  0
 40 52  1  0  0  0
 40 53  2  0  0  0
 40 58  1  0  0  0
 41109  1  0  0  0
 41110  1  0  0  0
 41111  1  0  0  0
 41 48  1  0  0  0
 42 43  1  0  0  0
 42 66  1  0  0  0
 42112  1  0  0  0
 42113  1  0  0  0
 43 44  1  0  0  0
 44114  1  0  0  0
 45 46  2  0  0  0
 45115  1  0  0  0
 46116  1  0  0  0
 47117  1  0  0  0
 47118  1  0  0  0
 48 56  1  0  0  0
 48 65  1  0  0  0
 48119  1  0  0  0
 49 50  1  0  0  0
 49 53  1  0  0  0
 49 64  1  0  0  0
 49120  1  0  0  0
 50 51  1  0  0  0
 50121  1  0  0  0
 50122  1  0  0  0
 51 52  1  0  0  0
 51123  1  0  0  0
 51124  1  0  0  0
 52125  1  0  0  0
 52126  1  0  0  0
 53 54  1  0  0  0
 54 55  2  0  0  0
 54127  1  0  0  0
 55 57  1  0  0  0
 55128  1  0  0  0
 56 69  2  0  0  0
 57 58  2  0  0  0
 57129  1  0  0  0
 58130  1  0  0  0
 59 60  1  0  0  0
 59 61  1  0  0  0
 59 62  1  0  0  0
 60131  1  0  0  0
 60132  1  0  0  0
 60133  1  0  0  0
 61134  1  0  0  0
 61135  1  0  0  0
 61136  1  0  0  0
 62137  1  0  0  0
 62138  1  0  0  0
 62139  1  0  0  0
 63 65  1  0  0  0
 63140  1  0  0  0
 63141  1  0  0  0
 63142  1  0  0  0
 64143  1  0  0  0
 65144  1  0  0  0
 68 80  1  0  0  0
 71 74  2  0  0  0
 71 76  1  0  0  0
 71145  1  0  0  0
 72 75  1  0  0  0
 72 76  2  0  0  0
 72146  1  0  0  0
 73 74  1  0  0  0
 73 75  2  0  0  0
 73 79  1  0  0  0
 74 82  1  0  0  0
 75 84  1  0  0  0
 76 85  1  0  0  0
 77 80  1  0  0  0
 77 81  1  0  0  0
 77 83  2  0  0  0
 78 79  1  0  0  0
 78147  1  0  0  0
 78148  1  0  0  0
 78149  1  0  0  0
 79150  1  0  0  0
 79151  1  0  0  0
 80152  1  0  0  0
 80153  1  0  0  0
 81 84  1  0  0  0
 81154  1  0  0  0
 81155  1  0  0  0
 82156  1  0  0  0
M  ISO  4   1 100  68 101  80 101  82 100
M  END
> <chiral flag>
0

> <version>
0

> <s_m_source_file>
/data/baiqing/PycharmProjects/Reinvent-master-3.2/result/LINK_invent/BTK/process_docking_weight1_custom_product_contain_oxygen_bond_distance_aromatic_linkinvent_7_9_3/rearranged_h_0138.sdf

> <i_m_source_file_index>
93

> <r_mmod_Potential_Energy-OPLS-2005>
226.405960083008

> <r_mmod_Stretch_Energy-OPLS-2005>
136.517517089844

> <r_mmod_Bend_Energy-OPLS-2005>
163.291702270508

> <r_mmod_Torsional_Energy-OPLS-2005>
245.470001220703

> <r_mmod_Improper_Torsional_Energy-OPLS-2005>
6.06892824172974

> <r_mmod_Van_der_Waal_Energy-OPLS-2005>
131.894332885742

> <r_mmod_Electrostatic_Energy-OPLS-2005>
-313.004119873047

> <r_mmod_Solvation_Energy-OPLS-2005>
-231.096603393555

> <b_mmod_Minimization_Converged-OPLS-2005>
0

> <r_mmod_RMS_Derivative-OPLS-2005>
1.28575468063354

$$$$
93
                    3D
 Structure written by MMmdl.
162171  0  0  1  0            999 V2000
  -30.6451  -14.5519   20.5338 C   0  0  0  0  0  0
  -30.4379  -12.3440   19.4308 C   0  0  0  0  0  0
  -29.5036  -12.4903   18.2107 C   0  0  0  0  0  0
  -28.0252  -12.3397   18.6271 C   0  0  0  0  0  0
  -27.6549  -13.2023   19.8614 C   0  0  2  0  0  0
  -28.6998  -13.0217   20.9852 C   0  0  0  0  0  0
  -25.2561  -13.8137   20.5646 C   0  0  0  0  0  0
  -24.1811  -13.0423   20.9165 C   0  0  0  0  0  0
  -24.6363  -11.6894   20.8729 C   0  0  0  0  0  0
  -23.9030  -10.4283   21.0412 C   0  0  0  0  0  0
  -24.3584   -9.4202   21.9190 C   0  0  0  0  0  0
  -23.6256   -8.2243   22.0774 C   0  0  0  0  0  0
  -22.4237   -8.0281   21.3562 C   0  0  0  0  0  0
  -21.9861   -9.0259   20.4667 C   0  0  0  0  0  0
  -22.7204  -10.2124   20.3071 C   0  0  0  0  0  0
  -21.6844   -6.0711   22.5272 C   0  0  0  0  0  0
  -21.4017   -6.5623   23.8209 C   0  0  0  0  0  0
  -21.3666   -5.6782   24.9168 C   0  0  0  0  0  0
  -21.6047   -4.3047   24.7226 C   0  0  0  0  0  0
  -21.8822   -3.8129   23.4353 C   0  0  0  0  0  0
  -21.9191   -4.6937   22.3402 C   0  0  0  0  0  0
  -22.7845  -13.5244   21.1845 C   0  0  0  0  0  0
  -22.1658   -4.2123   21.0976 F   0  0  0  0  0  0
  -21.5627   -3.4539   25.7744 F   0  0  0  0  0  0
  -30.0187  -13.3472   20.4197 N   0  0  0  0  0  0
  -26.2975  -12.9289   20.3273 N   0  0  0  0  0  0
  -25.9278  -11.6456   20.5730 N   0  0  0  0  0  0
  -22.0466  -12.8270   22.0400 N   0  0  0  0  0  0
  -25.4286  -15.1857   20.4061 N   0  0  0  0  0  0
  -31.8173  -14.7302   20.1923 O   0  0  0  0  0  0
  -21.6638   -6.8856   21.4238 O   0  0  0  0  0  0
  -22.3534  -14.5555   20.6684 O   0  0  0  0  0  0
  -24.6180  -31.8660   23.2068 C   0  0  0  0  0  0
  -25.9058  -32.4807   23.8378 C   0  0  1  0  0  0
  -27.2379  -27.3962   20.1109 C   0  0  0  0  0  0
  -25.5902  -33.8606   24.2301 N   0  0  0  0  0  0
  -23.4092  -30.4866   21.5484 C   0  0  2  0  0  0
  -24.8568  -28.9397   20.1259 C   0  0  0  0  0  0
  -22.7429  -29.4645   22.4985 C   0  0  0  0  0  0
  -18.0276  -28.1389   22.8488 C   0  0  0  0  0  0
  -24.1490  -36.7307   23.2639 C   0  0  0  0  0  0
  -25.9418  -30.8151   21.3718 C   0  0  0  0  0  0
  -26.0182  -29.4436   20.7259 C   0  0  0  0  0  0
  -27.2122  -28.6794   20.7142 C   0  0  0  0  0  0
  -26.0591  -26.9156   19.5046 C   0  0  0  0  0  0
  -24.8724  -27.6743   19.5148 C   0  0  0  0  0  0
  -23.6229  -29.8146   20.1660 C   0  0  0  0  0  0
  -25.4112  -36.3103   24.0336 C   0  0  1  0  0  0
  -20.5867  -28.3682   23.1310 C   0  0  2  0  0  0
  -20.6775  -26.9416   22.5421 C   0  0  0  0  0  0
  -19.5753  -26.6388   21.5224 C   0  0  0  0  0  0
  -18.1925  -26.7932   22.1624 C   0  0  0  0  0  0
  -19.1525  -28.8851   23.2894 C   0  0  0  0  0  0
  -18.9457  -30.1456   23.8909 C   0  0  0  0  0  0
  -17.6461  -30.6594   24.0575 C   0  0  0  0  0  0
  -25.9045  -34.9472   23.5124 C   0  0  0  0  0  0
  -16.5352  -29.9102   23.6330 C   0  0  0  0  0  0
  -16.7264  -28.6519   23.0346 C   0  0  0  0  0  0
  -26.4476  -31.6597   25.0718 C   0  0  0  0  0  0
  -25.3732  -31.3747   26.1467 C   0  0  0  0  0  0
  -27.0306  -30.3020   24.6140 C   0  0  0  0  0  0
  -27.6040  -32.4334   25.7473 C   0  0  0  0  0  0
  -27.5584  -37.1807   24.8462 C   0  0  0  0  0  0
  -21.4153  -29.3043   22.3708 N   0  0  0  0  0  0
  -26.4297  -37.3787   23.9406 N   0  0  0  0  0  0
  -24.6736  -31.0723   22.0995 N   0  0  0  0  0  0
  -23.4177  -28.8197   23.3049 O   0  0  0  0  0  0
  -28.4075  -26.6638   20.0084 O   0  0  0  0  0  0
  -26.5615  -34.8931   22.4690 O   0  0  0  0  0  0
  -23.5359  -32.1429   23.7439 O   0  0  0  0  0  0
  -30.3598  -19.3734   22.6463 C   0  0  0  0  0  0
  -29.9581  -18.0940   20.6126 C   0  0  0  0  0  0
  -30.3270  -16.9333   22.7318 C   0  0  0  0  0  0
  -30.1029  -19.3622   21.2580 C   0  0  0  0  0  0
  -30.4615  -18.1760   23.3803 C   0  0  0  0  0  0
  -30.0855  -16.8719   21.3447 C   0  0  0  0  0  0
  -28.2689  -24.1444   20.2368 C   0  0  0  0  0  0
  -29.4804  -20.7566   19.1126 C   0  0  0  0  0  0
  -29.3336  -22.2588   18.7770 C   0  0  0  0  0  0
  -29.3907  -21.9336   21.1837 C   0  0  0  0  0  0
  -30.0969  -20.7218   20.5097 C   0  0  1  0  0  0
  -29.3835  -23.0584   20.1086 C   0  0  2  0  0  0
  -30.7027  -18.2300   24.8749 C   0  0  0  0  0  0
  -28.6017  -25.5234   20.8844 C   0  0  0  0  0  0
  -29.8043  -15.5900   20.7729 N   0  0  0  0  0  0
  -27.1203  -23.8896   19.8644 O   0  0  0  0  0  0
  -31.4810  -12.4669   19.1337 H   0  0  0  0  0  0
  -30.3619  -11.3440   19.8585 H   0  0  0  0  0  0
  -29.7551  -11.7457   17.4540 H   0  0  0  0  0  0
  -29.6587  -13.4627   17.7416 H   0  0  0  0  0  0
  -27.8527  -11.2873   18.8525 H   0  0  0  0  0  0
  -27.3736  -12.5817   17.7874 H   0  0  0  0  0  0
  -27.6856  -14.2401   19.5292 H   0  0  0  0  0  0
  -28.6954  -11.9949   21.3519 H   0  0  0  0  0  0
  -28.4628  -13.6441   21.8496 H   0  0  0  0  0  0
  -25.2731   -9.5671   22.4751 H   0  0  0  0  0  0
  -23.9971   -7.4629   22.7484 H   0  0  0  0  0  0
  -21.0796   -8.8786   19.8966 H   0  0  0  0  0  0
  -22.3688  -10.9660   19.6176 H   0  0  0  0  0  0
  -21.2028   -7.6131   23.9699 H   0  0  0  0  0  0
  -21.1477   -6.0512   25.9066 H   0  0  0  0  0  0
  -22.0593   -2.7583   23.2864 H   0  0  0  0  0  0
  -22.4045  -11.9942   22.4828 H   0  0  0  0  0  0
  -21.1106  -13.1341   22.2618 H   0  0  0  0  0  0
  -24.6605  -15.8378   20.5240 H   0  0  0  0  0  0
  -26.2707  -15.6289   20.0612 H   0  0  0  0  0  0
  -26.7121  -32.5503   23.1129 H   0  0  0  0  0  0
  -25.0054  -33.9768   25.0444 H   0  0  0  0  0  0
  -22.6991  -31.3033   21.4046 H   0  0  0  0  0  0
  -23.3746  -35.9651   23.3330 H   0  0  0  0  0  0
  -24.3576  -36.8896   22.2048 H   0  0  0  0  0  0
  -23.7260  -37.6528   23.6632 H   0  0  0  0  0  0
  -26.0666  -31.5767   20.6012 H   0  0  0  0  0  0
  -26.8246  -30.8664   21.9966 H   0  0  0  0  0  0
  -28.1145  -29.0726   21.1616 H   0  0  0  0  0  0
  -26.0573  -25.9615   18.9993 H   0  0  0  0  0  0
  -23.9825  -27.2830   19.0407 H   0  0  0  0  0  0
  -23.7406  -30.5876   19.4057 H   0  0  0  0  0  0
  -22.7453  -29.2396   19.8660 H   0  0  0  0  0  0
  -25.1290  -36.1974   25.0831 H   0  0  0  0  0  0
  -20.9949  -28.3271   24.1437 H   0  0  0  0  0  0
  -20.5704  -26.2296   23.3616 H   0  0  0  0  0  0
  -21.6650  -26.7483   22.1208 H   0  0  0  0  0  0
  -19.6930  -25.6303   21.1247 H   0  0  0  0  0  0
  -19.6692  -27.3211   20.6766 H   0  0  0  0  0  0
  -17.4201  -26.6676   21.4021 H   0  0  0  0  0  0
  -18.0324  -26.0073   22.9018 H   0  0  0  0  0  0
  -19.7940  -30.7264   24.2274 H   0  0  0  0  0  0
  -17.5028  -31.6271   24.5187 H   0  0  0  0  0  0
  -15.5359  -30.3022   23.7645 H   0  0  0  0  0  0
  -15.8656  -28.0853   22.7051 H   0  0  0  0  0  0
  -24.5868  -30.7136   25.7811 H   0  0  0  0  0  0
  -24.8979  -32.2935   26.4917 H   0  0  0  0  0  0
  -25.8073  -30.8898   27.0218 H   0  0  0  0  0  0
  -26.2867  -29.6775   24.1177 H   0  0  0  0  0  0
  -27.4028  -29.7268   25.4628 H   0  0  0  0  0  0
  -27.8728  -30.4302   23.9335 H   0  0  0  0  0  0
  -27.2630  -33.3608   26.2087 H   0  0  0  0  0  0
  -28.3821  -32.6944   25.0285 H   0  0  0  0  0  0
  -28.0742  -31.8449   26.5359 H   0  0  0  0  0  0
  -28.2618  -38.0089   24.7506 H   0  0  0  0  0  0
  -28.1065  -36.2629   24.6287 H   0  0  0  0  0  0
  -27.2305  -37.1472   25.8866 H   0  0  0  0  0  0
  -20.9322  -29.8737   21.6901 H   0  0  0  0  0  0
  -26.0191  -38.2867   24.1406 H   0  0  0  0  0  0
  -30.4900  -20.3145   23.1628 H   0  0  0  0  0  0
  -29.7501  -18.0522   19.5534 H   0  0  0  0  0  0
  -30.3802  -16.0214   23.3120 H   0  0  0  0  0  0
  -30.0824  -20.2226   18.3766 H   0  0  0  0  0  0
  -28.4931  -20.2913   19.1345 H   0  0  0  0  0  0
  -28.4269  -22.4322   18.1967 H   0  0  0  0  0  0
  -30.1636  -22.5800   18.1470 H   0  0  0  0  0  0
  -29.8998  -22.2569   22.0901 H   0  0  0  0  0  0
  -28.3683  -21.6646   21.4546 H   0  0  0  0  0  0
  -31.1511  -20.9881   20.4021 H   0  0  0  0  0  0
  -30.3439  -23.5730   20.1519 H   0  0  0  0  0  0
  -31.3059  -19.0986   25.1405 H   0  0  0  0  0  0
  -31.2251  -17.3391   25.2246 H   0  0  0  0  0  0
  -29.7543  -18.2974   25.4088 H   0  0  0  0  0  0
  -29.6486  -25.5194   21.1898 H   0  0  0  0  0  0
  -28.0144  -25.6459   21.7951 H   0  0  0  0  0  0
  -28.8385  -15.3074   20.8304 H   0  0  0  0  0  0
  1 25  1  0  0  0
  1 30  2  0  0  0
  1 85  1  0  0  0
  2  3  1  0  0  0
  2 25  1  0  0  0
  2 87  1  0  0  0
  2 88  1  0  0  0
  3  4  1  0  0  0
  3 89  1  0  0  0
  3 90  1  0  0  0
  4  5  1  0  0  0
  4 91  1  0  0  0
  4 92  1  0  0  0
  5  6  1  0  0  0
  5 26  1  0  0  0
  5 93  1  0  0  0
  6 25  1  0  0  0
  6 94  1  0  0  0
  6 95  1  0  0  0
  7  8  2  0  0  0
  7 26  1  0  0  0
  7 29  1  0  0  0
  8  9  1  0  0  0
  8 22  1  0  0  0
  9 10  1  0  0  0
  9 27  2  0  0  0
 10 11  2  0  0  0
 10 15  1  0  0  0
 11 12  1  0  0  0
 11 96  1  0  0  0
 12 13  2  0  0  0
 12 97  1  0  0  0
 13 14  1  0  0  0
 13 31  1  0  0  0
 14 15  2  0  0  0
 14 98  1  0  0  0
 15 99  1  0  0  0
 16 17  2  0  0  0
 16 21  1  0  0  0
 16 31  1  0  0  0
 17 18  1  0  0  0
 17100  1  0  0  0
 18 19  2  0  0  0
 18101  1  0  0  0
 19 20  1  0  0  0
 19 24  1  0  0  0
 20 21  2  0  0  0
 20102  1  0  0  0
 21 23  1  0  0  0
 22 28  1  0  0  0
 22 32  2  0  0  0
 26 27  1  0  0  0
 28103  1  0  0  0
 28104  1  0  0  0
 29105  1  0  0  0
 29106  1  0  0  0
 33 34  1  0  0  0
 33 66  1  0  0  0
 33 70  2  0  0  0
 34 36  1  0  0  0
 34 59  1  0  0  0
 34107  1  0  0  0
 35 44  2  0  0  0
 35 45  1  0  0  0
 35 68  1  0  0  0
 36 56  1  0  0  0
 36108  1  0  0  0
 37 39  1  0  0  0
 37 47  1  0  0  0
 37 66  1  0  0  0
 37109  1  0  0  0
 38 43  2  0  0  0
 38 46  1  0  0  0
 38 47  1  0  0  0
 39 64  1  0  0  0
 39 67  2  0  0  0
 40 52  1  0  0  0
 40 53  2  0  0  0
 40 58  1  0  0  0
 41110  1  0  0  0
 41111  1  0  0  0
 41112  1  0  0  0
 41 48  1  0  0  0
 42 43  1  0  0  0
 42 66  1  0  0  0
 42113  1  0  0  0
 42114  1  0  0  0
 43 44  1  0  0  0
 44115  1  0  0  0
 45 46  2  0  0  0
 45116  1  0  0  0
 46117  1  0  0  0
 47118  1  0  0  0
 47119  1  0  0  0
 48 56  1  0  0  0
 48 65  1  0  0  0
 48120  1  0  0  0
 49 50  1  0  0  0
 49 53  1  0  0  0
 49 64  1  0  0  0
 49121  1  0  0  0
 50 51  1  0  0  0
 50122  1  0  0  0
 50123  1  0  0  0
 51 52  1  0  0  0
 51124  1  0  0  0
 51125  1  0  0  0
 52126  1  0  0  0
 52127  1  0  0  0
 53 54  1  0  0  0
 54 55  2  0  0  0
 54128  1  0  0  0
 55 57  1  0  0  0
 55129  1  0  0  0
 56 69  2  0  0  0
 57 58  2  0  0  0
 57130  1  0  0  0
 58131  1  0  0  0
 59 60  1  0  0  0
 59 61  1  0  0  0
 59 62  1  0  0  0
 60132  1  0  0  0
 60133  1  0  0  0
 60134  1  0  0  0
 61135  1  0  0  0
 61136  1  0  0  0
 61137  1  0  0  0
 62138  1  0  0  0
 62139  1  0  0  0
 62140  1  0  0  0
 63 65  1  0  0  0
 63141  1  0  0  0
 63142  1  0  0  0
 63143  1  0  0  0
 64144  1  0  0  0
 65145  1  0  0  0
 68 84  1  0  0  0
 71 74  2  0  0  0
 71 75  1  0  0  0
 71146  1  0  0  0
 72 74  1  0  0  0
 72 76  2  0  0  0
 72147  1  0  0  0
 73 75  2  0  0  0
 73 76  1  0  0  0
 73148  1  0  0  0
 74 81  1  0  0  0
 75 83  1  0  0  0
 76 85  1  0  0  0
 77 84  1  0  0  0
 77 86  2  0  0  0
 77 82  1  0  0  0
 78 79  1  0  0  0
 78 81  1  0  0  0
 78149  1  0  0  0
 78150  1  0  0  0
 79 82  1  0  0  0
 79151  1  0  0  0
 79152  1  0  0  0
 80 81  1  0  0  0
 80 82  1  0  0  0
 80153  1  0  0  0
 80154  1  0  0  0
 81155  1  0  0  0
 82156  1  0  0  0
 83157  1  0  0  0
 83158  1  0  0  0
 83159  1  0  0  0
 84160  1  0  0  0
 84161  1  0  0  0
 85162  1  0  0  0
M  ISO  4   1 100  68 101  84 101  85 100
M  END
> <chiral flag>
0

> <version>
0

> <s_m_source_file>
/data/baiqing/PycharmProjects/Reinvent-master-3.2/result/LINK_invent/BTK/process_docking_weight1_custom_product_contain_oxygen_bond_distance_aromatic_linkinvent_7_9_3/rearranged_h_0138.sdf

> <i_m_source_file_index>
94

> <r_mmod_Potential_Energy-OPLS-2005>
124.402740478516

> <r_mmod_Stretch_Energy-OPLS-2005>
48.2079162597656

> <r_mmod_Bend_Energy-OPLS-2005>
139.36882019043

> <r_mmod_Torsional_Energy-OPLS-2005>
322.505401611328

> <r_mmod_Improper_Torsional_Energy-OPLS-2005>
9.12828731536865

> <r_mmod_Van_der_Waal_Energy-OPLS-2005>
137.266677856445

> <r_mmod_Electrostatic_Energy-OPLS-2005>
-339.611267089844

> <r_mmod_Solvation_Energy-OPLS-2005>
-215.787551879883

> <b_mmod_Minimization_Converged-OPLS-2005>
0

> <r_mmod_RMS_Derivative-OPLS-2005>
2.56089305877686

$$$$
94
                    3D
 Structure written by MMmdl.
156164  0  0  1  0            999 V2000
  -30.5185  -14.9890   20.4208 C   0  0  0  0  0  0
  -30.4442  -12.6125   19.5111 C   0  0  0  0  0  0
  -29.5273  -12.5411   18.2664 C   0  0  0  0  0  0
  -28.0609  -12.3185   18.6811 C   0  0  0  0  0  0
  -27.6311  -13.2515   19.8425 C   0  0  2  0  0  0
  -28.6713  -13.2856   20.9835 C   0  0  0  0  0  0
  -25.2465  -13.8225   20.5715 C   0  0  0  0  0  0
  -24.1783  -13.0443   20.9228 C   0  0  0  0  0  0
  -24.6402  -11.6928   20.8752 C   0  0  0  0  0  0
  -23.9083  -10.4295   21.0405 C   0  0  0  0  0  0
  -24.3630   -9.4209   21.9184 C   0  0  0  0  0  0
  -23.6300   -8.2245   22.0756 C   0  0  0  0  0  0
  -22.4281   -8.0284   21.3545 C   0  0  0  0  0  0
  -21.9920   -9.0258   20.4647 C   0  0  0  0  0  0
  -22.7254  -10.2135   20.3055 C   0  0  0  0  0  0
  -21.6856   -6.0736   22.5278 C   0  0  0  0  0  0
  -21.4017   -6.5640   23.8211 C   0  0  0  0  0  0
  -21.3660   -5.6793   24.9173 C   0  0  0  0  0  0
  -21.6043   -4.3055   24.7225 C   0  0  0  0  0  0
  -21.8819   -3.8146   23.4346 C   0  0  0  0  0  0
  -21.9194   -4.6962   22.3402 C   0  0  0  0  0  0
  -22.7801  -13.5210   21.1881 C   0  0  0  0  0  0
  -22.1661   -4.2147   21.0980 F   0  0  0  0  0  0
  -21.5628   -3.4538   25.7738 F   0  0  0  0  0  0
  -29.9470  -13.7122   20.3923 N   0  0  0  0  0  0
  -26.2893  -12.9460   20.3257 N   0  0  0  0  0  0
  -25.9337  -11.6585   20.5742 N   0  0  0  0  0  0
  -22.0454  -12.8193   22.0435 N   0  0  0  0  0  0
  -25.4128  -15.1955   20.4130 N   0  0  0  0  0  0
  -31.7146  -15.0619   20.1140 O   0  0  0  0  0  0
  -21.6643   -6.8881   21.4240 O   0  0  0  0  0  0
  -22.3479  -14.5512   20.6722 O   0  0  0  0  0  0
  -24.6463  -31.8412   23.1878 C   0  0  0  0  0  0
  -25.9222  -32.4675   23.8271 C   0  0  1  0  0  0
  -27.2054  -27.0882   20.1737 C   0  0  0  0  0  0
  -25.5958  -33.8486   24.2178 N   0  0  0  0  0  0
  -23.4522  -30.4609   21.5335 C   0  0  2  0  0  0
  -24.9039  -28.8839   20.1122 C   0  0  0  0  0  0
  -22.7584  -29.4530   22.4847 C   0  0  0  0  0  0
  -18.0307  -28.1401   22.8475 C   0  0  0  0  0  0
  -24.1491  -36.7245   23.2645 C   0  0  0  0  0  0
  -26.0123  -30.6975   21.3995 C   0  0  0  0  0  0
  -26.0799  -29.3030   20.7481 C   0  0  0  0  0  0
  -27.2313  -28.4205   20.7662 C   0  0  0  0  0  0
  -26.0249  -26.8125   19.4504 C   0  0  0  0  0  0
  -24.8917  -27.6523   19.4451 C   0  0  0  0  0  0
  -23.6832  -29.7913   20.1530 C   0  0  0  0  0  0
  -25.4125  -36.3019   24.0313 C   0  0  1  0  0  0
  -20.5923  -28.3724   23.1229 C   0  0  2  0  0  0
  -20.6792  -26.9427   22.5401 C   0  0  0  0  0  0
  -19.5765  -26.6381   21.5212 C   0  0  0  0  0  0
  -18.1945  -26.7939   22.1619 C   0  0  0  0  0  0
  -19.1565  -28.8880   23.2844 C   0  0  0  0  0  0
  -18.9484  -30.1477   23.8867 C   0  0  0  0  0  0
  -17.6480  -30.6595   24.0559 C   0  0  0  0  0  0
  -25.9078  -34.9395   23.5054 C   0  0  0  0  0  0
  -16.5370  -29.9091   23.6338 C   0  0  0  0  0  0
  -16.7291  -28.6510   23.0356 C   0  0  0  0  0  0
  -26.4532  -31.6558   25.0725 C   0  0  0  0  0  0
  -25.3700  -31.3768   26.1407 C   0  0  0  0  0  0
  -27.0404  -30.2945   24.6347 C   0  0  0  0  0  0
  -27.6051  -32.4339   25.7512 C   0  0  0  0  0  0
  -27.5574  -37.1780   24.8467 C   0  0  0  0  0  0
  -21.4273  -29.3049   22.3596 N   0  0  0  0  0  0
  -26.4283  -37.3737   23.9411 N   0  0  0  0  0  0
  -24.7233  -31.0228   22.0943 N   0  0  0  0  0  0
  -23.4207  -28.8076   23.3010 O   0  0  0  0  0  0
  -28.2387  -26.0621   20.1868 O   0  0  0  0  0  0
  -26.5667  -34.8896   22.4636 O   0  0  0  0  0  0
  -23.5571  -32.1314   23.7067 O   0  0  0  0  0  0
  -30.5748  -20.0112   19.7569 C   0  0  0  0  0  0
  -29.3821  -20.1284   20.4314 C   0  0  0  0  0  0
  -29.0003  -18.7041   20.8106 C   0  0  0  0  0  0
  -29.8463  -17.5898   20.4520 C   0  0  0  0  0  0
  -27.7308  -18.4645   21.5719 C   0  0  0  0  0  0
  -26.5904  -24.1682   20.7992 C   0  0  0  0  0  0
  -28.5579  -24.7871   22.1721 C   0  0  0  0  0  0
  -28.6182  -21.5727   20.7633 C   0  0  0  0  0  0
  -28.8797  -23.1602   20.1742 C   0  0  0  0  0  0
  -28.0769  -24.5746   20.7271 C   0  0  0  0  0  0
  -29.7141  -16.1538   20.6420 N   0  0  0  0  0  0
  -31.1891  -18.3442   19.6081 S   0  0  0  0  0  0
  -31.4768  -12.7759   19.1994 H   0  0  0  0  0  0
  -30.4450  -11.6619   20.0468 H   0  0  0  0  0  0
  -29.8544  -11.7431   17.5984 H   0  0  0  0  0  0
  -29.6096  -13.4692   17.6992 H   0  0  0  0  0  0
  -27.9619  -11.2775   18.9907 H   0  0  0  0  0  0
  -27.3987  -12.4457   17.8239 H   0  0  0  0  0  0
  -27.5930  -14.2525   19.4122 H   0  0  0  0  0  0
  -28.7647  -12.3089   21.4604 H   0  0  0  0  0  0
  -28.3608  -13.9808   21.7645 H   0  0  0  0  0  0
  -25.2773   -9.5682   22.4760 H   0  0  0  0  0  0
  -24.0004   -7.4639   22.7477 H   0  0  0  0  0  0
  -21.0852   -8.8780   19.8954 H   0  0  0  0  0  0
  -22.3714  -10.9673   19.6163 H   0  0  0  0  0  0
  -21.2011   -7.6149   23.9714 H   0  0  0  0  0  0
  -21.1482   -6.0523   25.9075 H   0  0  0  0  0  0
  -22.0598   -2.7608   23.2847 H   0  0  0  0  0  0
  -22.4079  -11.9857   22.4818 H   0  0  0  0  0  0
  -21.1068  -13.1206   22.2644 H   0  0  0  0  0  0
  -24.6374  -15.8415   20.5124 H   0  0  0  0  0  0
  -26.2449  -15.6327   20.0398 H   0  0  0  0  0  0
  -26.7279  -32.5265   23.0988 H   0  0  0  0  0  0
  -25.0084  -33.9603   25.0312 H   0  0  0  0  0  0
  -22.7571  -31.2883   21.3771 H   0  0  0  0  0  0
  -23.3756  -35.9574   23.3292 H   0  0  0  0  0  0
  -24.3576  -36.8893   22.2062 H   0  0  0  0  0  0
  -23.7242  -37.6435   23.6692 H   0  0  0  0  0  0
  -26.1765  -31.4457   20.6225 H   0  0  0  0  0  0
  -26.8802  -30.7490   22.0450 H   0  0  0  0  0  0
  -28.1242  -28.7362   21.2869 H   0  0  0  0  0  0
  -25.9547  -25.8930   18.8907 H   0  0  0  0  0  0
  -24.0060  -27.3372   18.9109 H   0  0  0  0  0  0
  -23.8257  -30.5660   19.3990 H   0  0  0  0  0  0
  -22.7969  -29.2379   19.8374 H   0  0  0  0  0  0
  -25.1317  -36.1837   25.0804 H   0  0  0  0  0  0
  -21.0014  -28.3306   24.1352 H   0  0  0  0  0  0
  -20.5685  -26.2339   23.3620 H   0  0  0  0  0  0
  -21.6658  -26.7431   22.1199 H   0  0  0  0  0  0
  -19.6930  -25.6287   21.1257 H   0  0  0  0  0  0
  -19.6702  -27.3174   20.6729 H   0  0  0  0  0  0
  -17.4217  -26.6678   21.4021 H   0  0  0  0  0  0
  -18.0346  -26.0092   22.9026 H   0  0  0  0  0  0
  -19.7962  -30.7304   24.2218 H   0  0  0  0  0  0
  -17.5036  -31.6271   24.5168 H   0  0  0  0  0  0
  -15.5370  -30.2985   23.7688 H   0  0  0  0  0  0
  -15.8689  -28.0822   22.7090 H   0  0  0  0  0  0
  -24.5896  -30.7096   25.7728 H   0  0  0  0  0  0
  -24.8872  -32.2960   26.4739 H   0  0  0  0  0  0
  -25.7969  -30.9006   27.0244 H   0  0  0  0  0  0
  -26.3041  -29.6654   24.1335 H   0  0  0  0  0  0
  -27.3978  -29.7256   25.4941 H   0  0  0  0  0  0
  -27.8963  -30.4165   23.9705 H   0  0  0  0  0  0
  -27.2635  -33.3671   26.2006 H   0  0  0  0  0  0
  -28.3904  -32.6850   25.0366 H   0  0  0  0  0  0
  -28.0671  -31.8520   26.5499 H   0  0  0  0  0  0
  -28.2580  -38.0086   24.7512 H   0  0  0  0  0  0
  -28.1079  -36.2615   24.6294 H   0  0  0  0  0  0
  -27.2292  -37.1429   25.8870 H   0  0  0  0  0  0
  -20.9489  -29.8765   21.6774 H   0  0  0  0  0  0
  -26.0140  -38.2802   24.1416 H   0  0  0  0  0  0
  -31.1637  -20.8181   19.3355 H   0  0  0  0  0  0
  -27.5390  -19.2663   22.2850 H   0  0  0  0  0  0
  -27.7643  -17.5360   22.1419 H   0  0  0  0  0  0
  -26.8741  -18.4106   20.9003 H   0  0  0  0  0  0
  -26.4579  -23.2602   21.3871 H   0  0  0  0  0  0
  -26.1829  -23.9575   19.8116 H   0  0  0  0  0  0
  -25.9714  -24.9208   21.2871 H   0  0  0  0  0  0
  -28.4460  -23.8863   22.7755 H   0  0  0  0  0  0
  -27.9981  -25.5806   22.6686 H   0  0  0  0  0  0
  -29.6116  -25.0664   22.1940 H   0  0  0  0  0  0
  -28.6651  -21.6791   21.8467 H   0  0  0  0  0  0
  -27.5605  -21.3865   20.5793 H   0  0  0  0  0  0
  -28.7119  -23.1128   19.0978 H   0  0  0  0  0  0
  -29.9480  -23.3541   20.2719 H   0  0  0  0  0  0
  -28.7936  -15.8866   20.9552 H   0  0  0  0  0  0
  1 25  1  0  0  0
  1 30  2  0  0  0
  1 81  1  0  0  0
  2  3  1  0  0  0
  2 25  1  0  0  0
  2 83  1  0  0  0
  2 84  1  0  0  0
  3  4  1  0  0  0
  3 85  1  0  0  0
  3 86  1  0  0  0
  4  5  1  0  0  0
  4 87  1  0  0  0
  4 88  1  0  0  0
  5  6  1  0  0  0
  5 26  1  0  0  0
  5 89  1  0  0  0
  6 25  1  0  0  0
  6 90  1  0  0  0
  6 91  1  0  0  0
  7  8  2  0  0  0
  7 26  1  0  0  0
  7 29  1  0  0  0
  8  9  1  0  0  0
  8 22  1  0  0  0
  9 10  1  0  0  0
  9 27  2  0  0  0
 10 11  2  0  0  0
 10 15  1  0  0  0
 11 12  1  0  0  0
 11 92  1  0  0  0
 12 13  2  0  0  0
 12 93  1  0  0  0
 13 14  1  0  0  0
 13 31  1  0  0  0
 14 15  2  0  0  0
 14 94  1  0  0  0
 15 95  1  0  0  0
 16 17  2  0  0  0
 16 21  1  0  0  0
 16 31  1  0  0  0
 17 18  1  0  0  0
 17 96  1  0  0  0
 18 19  2  0  0  0
 18 97  1  0  0  0
 19 20  1  0  0  0
 19 24  1  0  0  0
 20 21  2  0  0  0
 20 98  1  0  0  0
 21 23  1  0  0  0
 22 28  1  0  0  0
 22 32  2  0  0  0
 26 27  1  0  0  0
 28 99  1  0  0  0
 28100  1  0  0  0
 29101  1  0  0  0
 29102  1  0  0  0
 33 34  1  0  0  0
 33 66  1  0  0  0
 33 70  2  0  0  0
 34 36  1  0  0  0
 34 59  1  0  0  0
 34103  1  0  0  0
 35 44  2  0  0  0
 35 45  1  0  0  0
 35 68  1  0  0  0
 36 56  1  0  0  0
 36104  1  0  0  0
 37 39  1  0  0  0
 37 47  1  0  0  0
 37 66  1  0  0  0
 37105  1  0  0  0
 38 43  2  0  0  0
 38 46  1  0  0  0
 38 47  1  0  0  0
 39 64  1  0  0  0
 39 67  2  0  0  0
 40 52  1  0  0  0
 40 53  2  0  0  0
 40 58  1  0  0  0
 41106  1  0  0  0
 41107  1  0  0  0
 41108  1  0  0  0
 41 48  1  0  0  0
 42 43  1  0  0  0
 42 66  1  0  0  0
 42109  1  0  0  0
 42110  1  0  0  0
 43 44  1  0  0  0
 44111  1  0  0  0
 45 46  2  0  0  0
 45112  1  0  0  0
 46113  1  0  0  0
 47114  1  0  0  0
 47115  1  0  0  0
 48 56  1  0  0  0
 48 65  1  0  0  0
 48116  1  0  0  0
 49 50  1  0  0  0
 49 53  1  0  0  0
 49 64  1  0  0  0
 49117  1  0  0  0
 50 51  1  0  0  0
 50118  1  0  0  0
 50119  1  0  0  0
 51 52  1  0  0  0
 51120  1  0  0  0
 51121  1  0  0  0
 52122  1  0  0  0
 52123  1  0  0  0
 53 54  1  0  0  0
 54 55  2  0  0  0
 54124  1  0  0  0
 55 57  1  0  0  0
 55125  1  0  0  0
 56 69  2  0  0  0
 57 58  2  0  0  0
 57126  1  0  0  0
 58127  1  0  0  0
 59 60  1  0  0  0
 59 61  1  0  0  0
 59 62  1  0  0  0
 60128  1  0  0  0
 60129  1  0  0  0
 60130  1  0  0  0
 61131  1  0  0  0
 61132  1  0  0  0
 61133  1  0  0  0
 62134  1  0  0  0
 62135  1  0  0  0
 62136  1  0  0  0
 63 65  1  0  0  0
 63137  1  0  0  0
 63138  1  0  0  0
 63139  1  0  0  0
 64140  1  0  0  0
 65141  1  0  0  0
 68 80  1  0  0  0
 71 72  2  0  0  0
 71 82  1  0  0  0
 71142  1  0  0  0
 72 73  1  0  0  0
 72 78  1  0  0  0
 73 74  2  0  0  0
 73 75  1  0  0  0
 74 81  1  0  0  0
 74 82  1  0  0  0
 75143  1  0  0  0
 75144  1  0  0  0
 75145  1  0  0  0
 76146  1  0  0  0
 76147  1  0  0  0
 76148  1  0  0  0
 76 80  1  0  0  0
 77 80  1  0  0  0
 77149  1  0  0  0
 77150  1  0  0  0
 77151  1  0  0  0
 78 79  1  0  0  0
 78152  1  0  0  0
 78153  1  0  0  0
 79 80  1  0  0  0
 79154  1  0  0  0
 79155  1  0  0  0
 81156  1  0  0  0
M  ISO  4   1 100  68 101  80 101  81 100
M  END
> <chiral flag>
0

> <version>
0

> <s_m_source_file>
/data/baiqing/PycharmProjects/Reinvent-master-3.2/result/LINK_invent/BTK/process_docking_weight1_custom_product_contain_oxygen_bond_distance_aromatic_linkinvent_7_9_3/rearranged_h_0138.sdf

> <i_m_source_file_index>
95

> <r_mmod_Potential_Energy-OPLS-2005>
527.977722167969

> <r_mmod_Stretch_Energy-OPLS-2005>
302.727874755859

> <r_mmod_Bend_Energy-OPLS-2005>
288.908843994141

> <r_mmod_Torsional_Energy-OPLS-2005>
226.590148925781

> <r_mmod_Improper_Torsional_Energy-OPLS-2005>
3.51446938514709

> <r_mmod_Van_der_Waal_Energy-OPLS-2005>
111.107360839844

> <r_mmod_Electrostatic_Energy-OPLS-2005>
-425.193603515625

> <r_mmod_Solvation_Energy-OPLS-2005>
-207.6865234375

> <b_mmod_Minimization_Converged-OPLS-2005>
0

> <r_mmod_RMS_Derivative-OPLS-2005>
0.62226665019989

$$$$
95
                    3D
 Structure written by MMmdl.
170178  0  0  1  0            999 V2000
  -30.6287  -14.6123   20.4911 C   0  0  0  0  0  0
  -30.4387  -12.3750   19.4255 C   0  0  0  0  0  0
  -29.5058  -12.4934   18.2023 C   0  0  0  0  0  0
  -28.0275  -12.3323   18.6181 C   0  0  0  0  0  0
  -27.6475  -13.2049   19.8443 C   0  0  2  0  0  0
  -28.6964  -13.0704   20.9683 C   0  0  0  0  0  0
  -25.2577  -13.8130   20.5675 C   0  0  0  0  0  0
  -24.1856  -13.0411   20.9181 C   0  0  0  0  0  0
  -24.6399  -11.6871   20.8711 C   0  0  0  0  0  0
  -23.9060  -10.4272   21.0372 C   0  0  0  0  0  0
  -24.3622   -9.4200   21.9159 C   0  0  0  0  0  0
  -23.6303   -8.2246   22.0746 C   0  0  0  0  0  0
  -22.4283   -8.0272   21.3538 C   0  0  0  0  0  0
  -21.9908   -9.0241   20.4637 C   0  0  0  0  0  0
  -22.7226  -10.2114   20.3029 C   0  0  0  0  0  0
  -21.6855   -6.0721   22.5284 C   0  0  0  0  0  0
  -21.4018   -6.5630   23.8205 C   0  0  0  0  0  0
  -21.3668   -5.6777   24.9173 C   0  0  0  0  0  0
  -21.6045   -4.3047   24.7214 C   0  0  0  0  0  0
  -21.8824   -3.8130   23.4345 C   0  0  0  0  0  0
  -21.9199   -4.6957   22.3390 C   0  0  0  0  0  0
  -22.7883  -13.5212   21.1850 C   0  0  0  0  0  0
  -22.1674   -4.2130   21.0974 F   0  0  0  0  0  0
  -21.5628   -3.4537   25.7736 F   0  0  0  0  0  0
  -30.0078  -13.4005   20.3915 N   0  0  0  0  0  0
  -26.2980  -12.9290   20.3234 N   0  0  0  0  0  0
  -25.9321  -11.6456   20.5713 N   0  0  0  0  0  0
  -22.0522  -12.8207   22.0399 N   0  0  0  0  0  0
  -25.4208  -15.1874   20.4144 N   0  0  0  0  0  0
  -31.8362  -14.7500   20.2859 O   0  0  0  0  0  0
  -21.6647   -6.8880   21.4241 O   0  0  0  0  0  0
  -22.3564  -14.5511   20.6682 O   0  0  0  0  0  0
  -24.6232  -31.8653   23.2076 C   0  0  0  0  0  0
  -25.9121  -32.4797   23.8364 C   0  0  1  0  0  0
  -27.2152  -27.3485   20.0654 C   0  0  0  0  0  0
  -25.5963  -33.8608   24.2273 N   0  0  0  0  0  0
  -23.4112  -30.4928   21.5544 C   0  0  2  0  0  0
  -24.8494  -28.9626   20.1094 C   0  0  0  0  0  0
  -22.7450  -29.4646   22.4968 C   0  0  0  0  0  0
  -18.0291  -28.1383   22.8485 C   0  0  0  0  0  0
  -24.1509  -36.7289   23.2639 C   0  0  0  0  0  0
  -25.9560  -30.7943   21.3819 C   0  0  0  0  0  0
  -26.0236  -29.4286   20.7156 C   0  0  0  0  0  0
  -27.2045  -28.6297   20.6993 C   0  0  0  0  0  0
  -26.0098  -26.9449   19.4348 C   0  0  0  0  0  0
  -24.8421  -27.7189   19.4713 C   0  0  0  0  0  0
  -23.6223  -29.8441   20.1642 C   0  0  0  0  0  0
  -25.4134  -36.3080   24.0322 C   0  0  1  0  0  0
  -20.5888  -28.3676   23.1305 C   0  0  2  0  0  0
  -20.6785  -26.9413   22.5408 C   0  0  0  0  0  0
  -19.5759  -26.6386   21.5214 C   0  0  0  0  0  0
  -18.1937  -26.7933   22.1623 C   0  0  0  0  0  0
  -19.1540  -28.8845   23.2885 C   0  0  0  0  0  0
  -18.9471  -30.1460   23.8869 C   0  0  0  0  0  0
  -17.6475  -30.6579   24.0576 C   0  0  0  0  0  0
  -25.9079  -34.9468   23.5086 C   0  0  0  0  0  0
  -16.5366  -29.9074   23.6356 C   0  0  0  0  0  0
  -16.7282  -28.6514   23.0331 C   0  0  0  0  0  0
  -26.4529  -31.6594   25.0725 C   0  0  0  0  0  0
  -25.3770  -31.3717   26.1440 C   0  0  0  0  0  0
  -27.0387  -30.3021   24.6189 C   0  0  0  0  0  0
  -27.6098  -32.4321   25.7491 C   0  0  0  0  0  0
  -27.5576  -37.1794   24.8474 C   0  0  0  0  0  0
  -21.4171  -29.3044   22.3708 N   0  0  0  0  0  0
  -26.4289  -37.3785   23.9425 N   0  0  0  0  0  0
  -24.6819  -31.0671   22.1038 N   0  0  0  0  0  0
  -23.4208  -28.8174   23.3005 O   0  0  0  0  0  0
  -28.3343  -26.4970   20.0751 O   0  0  0  0  0  0
  -26.5636  -34.8940   22.4648 O   0  0  0  0  0  0
  -23.5408  -32.1466   23.7411 O   0  0  0  0  0  0
  -29.0412  -16.6932   22.4414 C   0  0  0  0  0  0
  -29.9260  -18.2086   20.7567 C   0  0  0  0  0  0
  -28.6776  -17.7850   23.2436 C   0  0  0  0  0  0
  -29.5742  -19.3548   21.5537 C   0  0  0  0  0  0
  -28.9518  -19.1196   22.8250 C   0  0  0  0  0  0
  -29.6680  -16.8664   21.1973 C   0  0  0  0  0  0
  -29.0869  -23.9730   19.8892 C   0  0  0  0  0  0
  -27.9966  -17.4590   24.5670 C   0  0  0  0  0  0
  -27.1341  -20.7518   23.6003 C   0  0  0  0  0  0
  -28.4741  -22.5538   17.8628 C   0  0  0  0  0  0
  -27.3305  -22.1457   20.0408 C   0  0  0  0  0  0
  -29.9572  -20.8185   21.1225 C   0  0  0  0  0  0
  -28.5832  -20.2692   23.7764 C   0  0  0  0  0  0
  -28.0832  -25.1351   19.5679 C   0  0  0  0  0  0
  -29.7165  -21.3261   19.6642 C   0  0  0  0  0  0
  -28.6846  -22.5140   19.3988 C   0  0  0  0  0  0
  -29.7887  -15.6821   20.3786 N   0  0  0  0  0  0
  -30.1278  -24.1799   20.5205 O   0  0  0  0  0  0
  -31.4764  -12.5105   19.1188 H   0  0  0  0  0  0
  -30.3784  -11.3750   19.8608 H   0  0  0  0  0  0
  -29.7629  -11.7411   17.4561 H   0  0  0  0  0  0
  -29.6532  -13.4596   17.7161 H   0  0  0  0  0  0
  -27.8650  -11.2802   18.8580 H   0  0  0  0  0  0
  -27.3752  -12.5561   17.7731 H   0  0  0  0  0  0
  -27.6516  -14.2354   19.4956 H   0  0  0  0  0  0
  -28.7020  -12.0606   21.3813 H   0  0  0  0  0  0
  -28.4479  -13.7293   21.7976 H   0  0  0  0  0  0
  -25.2778   -9.5684   22.4723 H   0  0  0  0  0  0
  -24.0005   -7.4637   22.7470 H   0  0  0  0  0  0
  -21.0837   -8.8749   19.8956 H   0  0  0  0  0  0
  -22.3680  -10.9651   19.6136 H   0  0  0  0  0  0
  -21.2006   -7.6132   23.9703 H   0  0  0  0  0  0
  -21.1495   -6.0506   25.9062 H   0  0  0  0  0  0
  -22.0597   -2.7594   23.2839 H   0  0  0  0  0  0
  -22.4175  -11.9900   22.4823 H   0  0  0  0  0  0
  -21.1120  -13.1211   22.2558 H   0  0  0  0  0  0
  -24.6412  -15.8232   20.5396 H   0  0  0  0  0  0
  -26.2655  -15.6550   20.1141 H   0  0  0  0  0  0
  -26.7166  -32.5452   23.1082 H   0  0  0  0  0  0
  -25.0166  -33.9812   25.0442 H   0  0  0  0  0  0
  -22.7018  -31.3121   21.4191 H   0  0  0  0  0  0
  -23.3774  -35.9616   23.3323 H   0  0  0  0  0  0
  -24.3583  -36.8892   22.2042 H   0  0  0  0  0  0
  -23.7266  -37.6501   23.6658 H   0  0  0  0  0  0
  -26.0975  -31.5632   20.6210 H   0  0  0  0  0  0
  -26.8354  -30.8264   22.0141 H   0  0  0  0  0  0
  -28.0981  -28.9871   21.1900 H   0  0  0  0  0  0
  -25.9133  -26.0186   18.8905 H   0  0  0  0  0  0
  -23.9450  -27.3575   18.9874 H   0  0  0  0  0  0
  -23.7487  -30.6339   19.4210 H   0  0  0  0  0  0
  -22.7385  -29.2836   19.8507 H   0  0  0  0  0  0
  -25.1308  -36.1921   25.0804 H   0  0  0  0  0  0
  -20.9960  -28.3219   24.1435 H   0  0  0  0  0  0
  -20.5712  -26.2284   23.3591 H   0  0  0  0  0  0
  -21.6655  -26.7472   22.1184 H   0  0  0  0  0  0
  -19.6951  -25.6301   21.1230 H   0  0  0  0  0  0
  -19.6698  -27.3214   20.6754 H   0  0  0  0  0  0
  -17.4220  -26.6690   21.4016 H   0  0  0  0  0  0
  -18.0328  -26.0060   22.8996 H   0  0  0  0  0  0
  -19.7950  -30.7293   24.2184 H   0  0  0  0  0  0
  -17.5043  -31.6259   24.5185 H   0  0  0  0  0  0
  -15.5370  -30.2975   23.7705 H   0  0  0  0  0  0
  -15.8684  -28.0861   22.7003 H   0  0  0  0  0  0
  -24.5944  -30.7095   25.7731 H   0  0  0  0  0  0
  -24.8980  -32.2880   26.4890 H   0  0  0  0  0  0
  -25.8075  -30.8841   27.0189 H   0  0  0  0  0  0
  -26.2954  -29.6743   24.1259 H   0  0  0  0  0  0
  -27.4151  -29.7309   25.4686 H   0  0  0  0  0  0
  -27.8800  -30.4335   23.9380 H   0  0  0  0  0  0
  -27.2728  -33.3618   26.2091 H   0  0  0  0  0  0
  -28.3882  -32.6876   25.0292 H   0  0  0  0  0  0
  -28.0811  -31.8434   26.5368 H   0  0  0  0  0  0
  -28.2596  -38.0090   24.7487 H   0  0  0  0  0  0
  -28.1050  -36.2603   24.6305 H   0  0  0  0  0  0
  -27.2290  -37.1439   25.8880 H   0  0  0  0  0  0
  -20.9315  -29.8764   21.6947 H   0  0  0  0  0  0
  -26.0161  -38.2864   24.1399 H   0  0  0  0  0  0
  -28.8063  -15.6978   22.7913 H   0  0  0  0  0  0
  -30.3977  -18.3644   19.7961 H   0  0  0  0  0  0
  -28.7260  -17.4488   25.3781 H   0  0  0  0  0  0
  -27.5053  -16.4807   24.5367 H   0  0  0  0  0  0
  -27.2217  -18.1769   24.8197 H   0  0  0  0  0  0
  -26.9419  -21.6315   24.2149 H   0  0  0  0  0  0
  -26.4048  -19.9917   23.8734 H   0  0  0  0  0  0
  -26.9281  -21.0170   22.5683 H   0  0  0  0  0  0
  -28.3164  -21.5591   17.4414 H   0  0  0  0  0  0
  -29.3309  -22.9787   17.3445 H   0  0  0  0  0  0
  -27.6067  -23.1481   17.5746 H   0  0  0  0  0  0
  -27.3050  -22.4517   21.0850 H   0  0  0  0  0  0
  -27.1214  -21.0745   19.9965 H   0  0  0  0  0  0
  -26.4934  -22.6491   19.5545 H   0  0  0  0  0  0
  -29.5011  -21.5762   21.7524 H   0  0  0  0  0  0
  -31.0268  -20.9044   21.3235 H   0  0  0  0  0  0
  -29.2565  -21.1175   23.6937 H   0  0  0  0  0  0
  -28.7516  -19.9592   24.8068 H   0  0  0  0  0  0
  -27.1447  -24.7902   19.9980 H   0  0  0  0  0  0
  -27.9547  -25.1857   18.4857 H   0  0  0  0  0  0
  -29.4614  -20.4573   19.0557 H   0  0  0  0  0  0
  -30.6854  -21.6390   19.2659 H   0  0  0  0  0  0
  -28.8865  -15.3511   20.0767 H   0  0  0  0  0  0
  1 25  1  0  0  0
  1 30  2  0  0  0
  1 87  1  0  0  0
  2  3  1  0  0  0
  2 25  1  0  0  0
  2 89  1  0  0  0
  2 90  1  0  0  0
  3  4  1  0  0  0
  3 91  1  0  0  0
  3 92  1  0  0  0
  4  5  1  0  0  0
  4 93  1  0  0  0
  4 94  1  0  0  0
  5  6  1  0  0  0
  5 26  1  0  0  0
  5 95  1  0  0  0
  6 25  1  0  0  0
  6 96  1  0  0  0
  6 97  1  0  0  0
  7  8  2  0  0  0
  7 26  1  0  0  0
  7 29  1  0  0  0
  8  9  1  0  0  0
  8 22  1  0  0  0
  9 10  1  0  0  0
  9 27  2  0  0  0
 10 11  2  0  0  0
 10 15  1  0  0  0
 11 12  1  0  0  0
 11 98  1  0  0  0
 12 13  2  0  0  0
 12 99  1  0  0  0
 13 14  1  0  0  0
 13 31  1  0  0  0
 14 15  2  0  0  0
 14100  1  0  0  0
 15101  1  0  0  0
 16 17  2  0  0  0
 16 21  1  0  0  0
 16 31  1  0  0  0
 17 18  1  0  0  0
 17102  1  0  0  0
 18 19  2  0  0  0
 18103  1  0  0  0
 19 20  1  0  0  0
 19 24  1  0  0  0
 20 21  2  0  0  0
 20104  1  0  0  0
 21 23  1  0  0  0
 22 28  1  0  0  0
 22 32  2  0  0  0
 26 27  1  0  0  0
 28105  1  0  0  0
 28106  1  0  0  0
 29107  1  0  0  0
 29108  1  0  0  0
 33 34  1  0  0  0
 33 66  1  0  0  0
 33 70  2  0  0  0
 34 36  1  0  0  0
 34 59  1  0  0  0
 34109  1  0  0  0
 35 44  2  0  0  0
 35 45  1  0  0  0
 35 68  1  0  0  0
 36 56  1  0  0  0
 36110  1  0  0  0
 37 39  1  0  0  0
 37 47  1  0  0  0
 37 66  1  0  0  0
 37111  1  0  0  0
 38 43  2  0  0  0
 38 46  1  0  0  0
 38 47  1  0  0  0
 39 64  1  0  0  0
 39 67  2  0  0  0
 40 52  1  0  0  0
 40 53  2  0  0  0
 40 58  1  0  0  0
 41112  1  0  0  0
 41113  1  0  0  0
 41114  1  0  0  0
 41 48  1  0  0  0
 42 43  1  0  0  0
 42 66  1  0  0  0
 42115  1  0  0  0
 42116  1  0  0  0
 43 44  1  0  0  0
 44117  1  0  0  0
 45 46  2  0  0  0
 45118  1  0  0  0
 46119  1  0  0  0
 47120  1  0  0  0
 47121  1  0  0  0
 48 56  1  0  0  0
 48 65  1  0  0  0
 48122  1  0  0  0
 49 50  1  0  0  0
 49 53  1  0  0  0
 49 64  1  0  0  0
 49123  1  0  0  0
 50 51  1  0  0  0
 50124  1  0  0  0
 50125  1  0  0  0
 51 52  1  0  0  0
 51126  1  0  0  0
 51127  1  0  0  0
 52128  1  0  0  0
 52129  1  0  0  0
 53 54  1  0  0  0
 54 55  2  0  0  0
 54130  1  0  0  0
 55 57  1  0  0  0
 55131  1  0  0  0
 56 69  2  0  0  0
 57 58  2  0  0  0
 57132  1  0  0  0
 58133  1  0  0  0
 59 60  1  0  0  0
 59 61  1  0  0  0
 59 62  1  0  0  0
 60134  1  0  0  0
 60135  1  0  0  0
 60136  1  0  0  0
 61137  1  0  0  0
 61138  1  0  0  0
 61139  1  0  0  0
 62140  1  0  0  0
 62141  1  0  0  0
 62142  1  0  0  0
 63 65  1  0  0  0
 63143  1  0  0  0
 63144  1  0  0  0
 63145  1  0  0  0
 64146  1  0  0  0
 65147  1  0  0  0
 68 84  1  0  0  0
 71 73  2  0  0  0
 71 76  1  0  0  0
 71148  1  0  0  0
 72 74  1  0  0  0
 72 76  2  0  0  0
 72149  1  0  0  0
 73 75  1  0  0  0
 73 78  1  0  0  0
 74 75  2  0  0  0
 74 82  1  0  0  0
 75 83  1  0  0  0
 76 87  1  0  0  0
 77 84  1  0  0  0
 77 86  1  0  0  0
 77 88  2  0  0  0
 78150  1  0  0  0
 78151  1  0  0  0
 78152  1  0  0  0
 79 83  1  0  0  0
 79153  1  0  0  0
 79154  1  0  0  0
 79155  1  0  0  0
 80156  1  0  0  0
 80157  1  0  0  0
 80158  1  0  0  0
 80 86  1  0  0  0
 81 86  1  0  0  0
 81159  1  0  0  0
 81160  1  0  0  0
 81161  1  0  0  0
 82 85  1  0  0  0
 82162  1  0  0  0
 82163  1  0  0  0
 83164  1  0  0  0
 83165  1  0  0  0
 84166  1  0  0  0
 84167  1  0  0  0
 85 86  1  0  0  0
 85168  1  0  0  0
 85169  1  0  0  0
 87170  1  0  0  0
M  ISO  4   1 100  68 101  84 101  87 100
M  END
> <chiral flag>
0

> <version>
0

> <s_m_source_file>
/data/baiqing/PycharmProjects/Reinvent-master-3.2/result/LINK_invent/BTK/process_docking_weight1_custom_product_contain_oxygen_bond_distance_aromatic_linkinvent_7_9_3/rearranged_h_0138.sdf

> <i_m_source_file_index>
96

> <r_mmod_Potential_Energy-OPLS-2005>
179.739547729492

> <r_mmod_Stretch_Energy-OPLS-2005>
78.2001342773438

> <r_mmod_Bend_Energy-OPLS-2005>
156.269317626953

> <r_mmod_Torsional_Energy-OPLS-2005>
278.680847167969

> <r_mmod_Improper_Torsional_Energy-OPLS-2005>
17.3384342193604

> <r_mmod_Van_der_Waal_Energy-OPLS-2005>
159.323791503906

> <r_mmod_Electrostatic_Energy-OPLS-2005>
-337.727569580078

> <r_mmod_Solvation_Energy-OPLS-2005>
-219.256713867188

> <b_mmod_Minimization_Converged-OPLS-2005>
0

> <r_mmod_RMS_Derivative-OPLS-2005>
4.74742698669434

$$$$
96
                    3D
 Structure written by MMmdl.
160169  0  0  1  0            999 V2000
  -30.6162  -14.6599   20.4916 C   0  0  0  0  0  0
  -30.4436  -12.4052   19.4490 C   0  0  0  0  0  0
  -29.5104  -12.5112   18.2220 C   0  0  0  0  0  0
  -28.0334  -12.3444   18.6346 C   0  0  0  0  0  0
  -27.6530  -13.2171   19.8602 C   0  0  2  0  0  0
  -28.7010  -13.0819   20.9885 C   0  0  0  0  0  0
  -25.2561  -13.8165   20.5683 C   0  0  0  0  0  0
  -24.1828  -13.0433   20.9190 C   0  0  0  0  0  0
  -24.6401  -11.6905   20.8739 C   0  0  0  0  0  0
  -23.9068  -10.4291   21.0407 C   0  0  0  0  0  0
  -24.3615   -9.4206   21.9185 C   0  0  0  0  0  0
  -23.6287   -8.2243   22.0757 C   0  0  0  0  0  0
  -22.4269   -8.0284   21.3549 C   0  0  0  0  0  0
  -21.9907   -9.0258   20.4652 C   0  0  0  0  0  0
  -22.7241  -10.2133   20.3056 C   0  0  0  0  0  0
  -21.6853   -6.0733   22.5281 C   0  0  0  0  0  0
  -21.4017   -6.5634   23.8214 C   0  0  0  0  0  0
  -21.3659   -5.6787   24.9174 C   0  0  0  0  0  0
  -21.6039   -4.3050   24.7226 C   0  0  0  0  0  0
  -21.8819   -3.8144   23.4348 C   0  0  0  0  0  0
  -21.9194   -4.6960   22.3405 C   0  0  0  0  0  0
  -22.7848  -13.5230   21.1848 C   0  0  0  0  0  0
  -22.1660   -4.2148   21.0981 F   0  0  0  0  0  0
  -21.5627   -3.4534   25.7738 F   0  0  0  0  0  0
  -30.0135  -13.4295   20.4206 N   0  0  0  0  0  0
  -26.2992  -12.9350   20.3308 N   0  0  0  0  0  0
  -25.9327  -11.6506   20.5746 N   0  0  0  0  0  0
  -22.0482  -12.8235   22.0404 N   0  0  0  0  0  0
  -25.4244  -15.1891   20.4096 N   0  0  0  0  0  0
  -31.7922  -14.8206   20.1532 O   0  0  0  0  0  0
  -21.6636   -6.8879   21.4244 O   0  0  0  0  0  0
  -22.3543  -14.5539   20.6695 O   0  0  0  0  0  0
  -24.6276  -31.8594   23.2035 C   0  0  0  0  0  0
  -25.9123  -32.4774   23.8358 C   0  0  1  0  0  0
  -27.2234  -27.3107   20.1136 C   0  0  0  0  0  0
  -25.5937  -33.8575   24.2284 N   0  0  0  0  0  0
  -23.4213  -30.4848   21.5470 C   0  0  2  0  0  0
  -24.8674  -28.9440   20.1107 C   0  0  0  0  0  0
  -22.7481  -29.4622   22.4938 C   0  0  0  0  0  0
  -18.0288  -28.1384   22.8485 C   0  0  0  0  0  0
  -24.1491  -36.7290   23.2638 C   0  0  0  0  0  0
  -25.9647  -30.7878   21.3772 C   0  0  0  0  0  0
  -26.0385  -29.4161   20.7165 C   0  0  0  0  0  0
  -27.2193  -28.6119   20.7086 C   0  0  0  0  0  0
  -26.0238  -26.8990   19.4823 C   0  0  0  0  0  0
  -24.8632  -27.6912   19.4841 C   0  0  0  0  0  0
  -23.6359  -29.8238   20.1612 C   0  0  0  0  0  0
  -25.4115  -36.3077   24.0327 C   0  0  1  0  0  0
  -20.5889  -28.3687   23.1280 C   0  0  2  0  0  0
  -20.6780  -26.9410   22.5406 C   0  0  0  0  0  0
  -19.5753  -26.6383   21.5209 C   0  0  0  0  0  0
  -18.1932  -26.7928   22.1619 C   0  0  0  0  0  0
  -19.1541  -28.8853   23.2877 C   0  0  0  0  0  0
  -18.9461  -30.1457   23.8890 C   0  0  0  0  0  0
  -17.6458  -30.6588   24.0560 C   0  0  0  0  0  0
  -25.9052  -34.9447   23.5103 C   0  0  0  0  0  0
  -16.5350  -29.9081   23.6333 C   0  0  0  0  0  0
  -16.7274  -28.6501   23.0352 C   0  0  0  0  0  0
  -26.4503  -31.6581   25.0727 C   0  0  0  0  0  0
  -25.3733  -31.3718   26.1450 C   0  0  0  0  0  0
  -27.0347  -30.3002   24.6187 C   0  0  0  0  0  0
  -27.6062  -32.4314   25.7502 C   0  0  0  0  0  0
  -27.5578  -37.1802   24.8462 C   0  0  0  0  0  0
  -21.4194  -29.3043   22.3680 N   0  0  0  0  0  0
  -26.4291  -37.3772   23.9405 N   0  0  0  0  0  0
  -24.6900  -31.0602   22.0995 N   0  0  0  0  0  0
  -23.4202  -28.8150   23.3011 O   0  0  0  0  0  0
  -28.3336  -26.4445   20.1662 O   0  0  0  0  0  0
  -26.5615  -34.8915   22.4666 O   0  0  0  0  0  0
  -23.5438  -32.1393   23.7359 O   0  0  0  0  0  0
  -30.8711  -19.3518   21.2882 C   0  0  0  0  0  0
  -30.8761  -17.9246   21.3257 C   0  0  0  0  0  0
  -28.9825  -17.9198   19.8621 C   0  0  0  0  0  0
  -28.9979  -19.3514   19.7876 C   0  0  0  0  0  0
  -29.9432  -20.1347   20.5270 C   0  0  0  0  0  0
  -29.9212  -17.1626   20.6142 C   0  0  0  0  0  0
  -29.0170  -22.5819   20.3415 C   0  0  0  0  0  0
  -29.2105  -23.9409   20.2023 C   0  0  0  0  0  0
  -30.6235  -24.4954   20.1844 C   0  0  0  0  0  0
  -31.6559  -23.3925   19.8832 C   0  0  0  0  0  0
  -31.4032  -22.0996   20.6834 C   0  0  0  0  0  0
  -27.9893  -20.0010   18.8540 C   0  0  0  0  0  0
  -28.0657  -24.9926   19.9948 C   0  0  0  0  0  0
  -30.0351  -21.5890   20.4966 N   0  0  0  0  0  0
  -29.7722  -15.7119   20.7448 N   0  0  0  0  0  0
  -31.4836  -12.5376   19.1450 H   0  0  0  0  0  0
  -30.3845  -11.4114   19.8945 H   0  0  0  0  0  0
  -29.7775  -11.7608   17.4772 H   0  0  0  0  0  0
  -29.6487  -13.4806   17.7404 H   0  0  0  0  0  0
  -27.8725  -11.2916   18.8685 H   0  0  0  0  0  0
  -27.3788  -12.5719   17.7922 H   0  0  0  0  0  0
  -27.6655  -14.2496   19.5116 H   0  0  0  0  0  0
  -28.7180  -12.0627   21.3766 H   0  0  0  0  0  0
  -28.4473  -13.7195   21.8369 H   0  0  0  0  0  0
  -25.2761   -9.5679   22.4757 H   0  0  0  0  0  0
  -23.9996   -7.4636   22.7478 H   0  0  0  0  0  0
  -21.0836   -8.8782   19.8958 H   0  0  0  0  0  0
  -22.3706  -10.9669   19.6161 H   0  0  0  0  0  0
  -21.2010   -7.6142   23.9717 H   0  0  0  0  0  0
  -21.1476   -6.0515   25.9077 H   0  0  0  0  0  0
  -22.0596   -2.7606   23.2849 H   0  0  0  0  0  0
  -22.4071  -11.9893   22.4803 H   0  0  0  0  0  0
  -21.1100  -13.1285   22.2595 H   0  0  0  0  0  0
  -24.6530  -15.8383   20.5200 H   0  0  0  0  0  0
  -26.2645  -15.6335   20.0641 H   0  0  0  0  0  0
  -26.7187  -32.5441   23.1101 H   0  0  0  0  0  0
  -25.0095  -33.9718   25.0436 H   0  0  0  0  0  0
  -22.7151  -31.3058   21.4063 H   0  0  0  0  0  0
  -23.3750  -35.9625   23.3303 H   0  0  0  0  0  0
  -24.3585  -36.8909   22.2052 H   0  0  0  0  0  0
  -23.7248  -37.6495   23.6658 H   0  0  0  0  0  0
  -26.0989  -31.5527   20.6109 H   0  0  0  0  0  0
  -26.8439  -30.8333   22.0083 H   0  0  0  0  0  0
  -28.1156  -28.9688   21.1963 H   0  0  0  0  0  0
  -25.9399  -25.9456   18.9848 H   0  0  0  0  0  0
  -23.9667  -27.3246   19.0028 H   0  0  0  0  0  0
  -23.7548  -30.6018   19.4062 H   0  0  0  0  0  0
  -22.7555  -29.2539   19.8586 H   0  0  0  0  0  0
  -25.1296  -36.1929   25.0818 H   0  0  0  0  0  0
  -20.9979  -28.3260   24.1400 H   0  0  0  0  0  0
  -20.5690  -26.2289   23.3602 H   0  0  0  0  0  0
  -21.6648  -26.7447   22.1193 H   0  0  0  0  0  0
  -19.6914  -25.6293   21.1242 H   0  0  0  0  0  0
  -19.6690  -27.3194   20.6739 H   0  0  0  0  0  0
  -17.4201  -26.6676   21.4022 H   0  0  0  0  0  0
  -18.0329  -26.0071   22.9016 H   0  0  0  0  0  0
  -19.7936  -30.7279   24.2249 H   0  0  0  0  0  0
  -17.5013  -31.6268   24.5157 H   0  0  0  0  0  0
  -15.5349  -30.2978   23.7664 H   0  0  0  0  0  0
  -15.8675  -28.0819   22.7064 H   0  0  0  0  0  0
  -24.5908  -30.7069   25.7778 H   0  0  0  0  0  0
  -24.8922  -32.2881   26.4878 H   0  0  0  0  0  0
  -25.8053  -30.8892   27.0223 H   0  0  0  0  0  0
  -26.2921  -29.6752   24.1211 H   0  0  0  0  0  0
  -27.4043  -29.7262   25.4695 H   0  0  0  0  0  0
  -27.8795  -30.4288   23.9416 H   0  0  0  0  0  0
  -27.2673  -33.3616   26.2073 H   0  0  0  0  0  0
  -28.3876  -32.6864   25.0332 H   0  0  0  0  0  0
  -28.0720  -31.8439   26.5423 H   0  0  0  0  0  0
  -28.2592  -38.0103   24.7509 H   0  0  0  0  0  0
  -28.1075  -36.2632   24.6284 H   0  0  0  0  0  0
  -27.2296  -37.1455   25.8866 H   0  0  0  0  0  0
  -20.9368  -29.8766   21.6895 H   0  0  0  0  0  0
  -26.0170  -38.2847   24.1399 H   0  0  0  0  0  0
  -31.6162  -19.8438   21.8953 H   0  0  0  0  0  0
  -31.6028  -17.4228   21.9480 H   0  0  0  0  0  0
  -28.2244  -17.3854   19.3076 H   0  0  0  0  0  0
  -28.0132  -22.1838   20.3656 H   0  0  0  0  0  0
  -30.8233  -24.9574   21.1519 H   0  0  0  0  0  0
  -30.7008  -25.2824   19.4334 H   0  0  0  0  0  0
  -32.6637  -23.7624   20.0752 H   0  0  0  0  0  0
  -31.6190  -23.1544   18.8194 H   0  0  0  0  0  0
  -31.5725  -22.2826   21.7459 H   0  0  0  0  0  0
  -32.1477  -21.3698   20.3617 H   0  0  0  0  0  0
  -27.6522  -19.3017   18.0884 H   0  0  0  0  0  0
  -28.4256  -20.8524   18.3316 H   0  0  0  0  0  0
  -27.1127  -20.3340   19.4090 H   0  0  0  0  0  0
  -27.2277  -24.6947   20.6274 H   0  0  0  0  0  0
  -27.7575  -24.8372   18.9608 H   0  0  0  0  0  0
  -28.8239  -15.4020   20.8900 H   0  0  0  0  0  0
  1 25  1  0  0  0
  1 30  2  0  0  0
  1 85  1  0  0  0
  2  3  1  0  0  0
  2 25  1  0  0  0
  2 86  1  0  0  0
  2 87  1  0  0  0
  3  4  1  0  0  0
  3 88  1  0  0  0
  3 89  1  0  0  0
  4  5  1  0  0  0
  4 90  1  0  0  0
  4 91  1  0  0  0
  5  6  1  0  0  0
  5 26  1  0  0  0
  5 92  1  0  0  0
  6 25  1  0  0  0
  6 93  1  0  0  0
  6 94  1  0  0  0
  7  8  2  0  0  0
  7 26  1  0  0  0
  7 29  1  0  0  0
  8  9  1  0  0  0
  8 22  1  0  0  0
  9 10  1  0  0  0
  9 27  2  0  0  0
 10 11  2  0  0  0
 10 15  1  0  0  0
 11 12  1  0  0  0
 11 95  1  0  0  0
 12 13  2  0  0  0
 12 96  1  0  0  0
 13 14  1  0  0  0
 13 31  1  0  0  0
 14 15  2  0  0  0
 14 97  1  0  0  0
 15 98  1  0  0  0
 16 17  2  0  0  0
 16 21  1  0  0  0
 16 31  1  0  0  0
 17 18  1  0  0  0
 17 99  1  0  0  0
 18 19  2  0  0  0
 18100  1  0  0  0
 19 20  1  0  0  0
 19 24  1  0  0  0
 20 21  2  0  0  0
 20101  1  0  0  0
 21 23  1  0  0  0
 22 28  1  0  0  0
 22 32  2  0  0  0
 26 27  1  0  0  0
 28102  1  0  0  0
 28103  1  0  0  0
 29104  1  0  0  0
 29105  1  0  0  0
 33 34  1  0  0  0
 33 66  1  0  0  0
 33 70  2  0  0  0
 34 36  1  0  0  0
 34 59  1  0  0  0
 34106  1  0  0  0
 35 44  2  0  0  0
 35 45  1  0  0  0
 35 68  1  0  0  0
 36 56  1  0  0  0
 36107  1  0  0  0
 37 39  1  0  0  0
 37 47  1  0  0  0
 37 66  1  0  0  0
 37108  1  0  0  0
 38 43  2  0  0  0
 38 46  1  0  0  0
 38 47  1  0  0  0
 39 64  1  0  0  0
 39 67  2  0  0  0
 40 52  1  0  0  0
 40 53  2  0  0  0
 40 58  1  0  0  0
 41109  1  0  0  0
 41110  1  0  0  0
 41111  1  0  0  0
 41 48  1  0  0  0
 42 43  1  0  0  0
 42 66  1  0  0  0
 42112  1  0  0  0
 42113  1  0  0  0
 43 44  1  0  0  0
 44114  1  0  0  0
 45 46  2  0  0  0
 45115  1  0  0  0
 46116  1  0  0  0
 47117  1  0  0  0
 47118  1  0  0  0
 48 56  1  0  0  0
 48 65  1  0  0  0
 48119  1  0  0  0
 49 50  1  0  0  0
 49 53  1  0  0  0
 49 64  1  0  0  0
 49120  1  0  0  0
 50 51  1  0  0  0
 50121  1  0  0  0
 50122  1  0  0  0
 51 52  1  0  0  0
 51123  1  0  0  0
 51124  1  0  0  0
 52125  1  0  0  0
 52126  1  0  0  0
 53 54  1  0  0  0
 54 55  2  0  0  0
 54127  1  0  0  0
 55 57  1  0  0  0
 55128  1  0  0  0
 56 69  2  0  0  0
 57 58  2  0  0  0
 57129  1  0  0  0
 58130  1  0  0  0
 59 60  1  0  0  0
 59 61  1  0  0  0
 59 62  1  0  0  0
 60131  1  0  0  0
 60132  1  0  0  0
 60133  1  0  0  0
 61134  1  0  0  0
 61135  1  0  0  0
 61136  1  0  0  0
 62137  1  0  0  0
 62138  1  0  0  0
 62139  1  0  0  0
 63 65  1  0  0  0
 63140  1  0  0  0
 63141  1  0  0  0
 63142  1  0  0  0
 64143  1  0  0  0
 65144  1  0  0  0
 68 83  1  0  0  0
 71 72  2  0  0  0
 71 75  1  0  0  0
 71145  1  0  0  0
 72 76  1  0  0  0
 72146  1  0  0  0
 73 74  1  0  0  0
 73 76  2  0  0  0
 73147  1  0  0  0
 74 75  2  0  0  0
 74 82  1  0  0  0
 75 84  1  0  0  0
 76 85  1  0  0  0
 77 78  2  0  0  0
 77 84  1  0  0  0
 77148  1  0  0  0
 78 79  1  0  0  0
 78 83  1  0  0  0
 79 80  1  0  0  0
 79149  1  0  0  0
 79150  1  0  0  0
 80 81  1  0  0  0
 80151  1  0  0  0
 80152  1  0  0  0
 81 84  1  0  0  0
 81153  1  0  0  0
 81154  1  0  0  0
 82155  1  0  0  0
 82156  1  0  0  0
 82157  1  0  0  0
 83158  1  0  0  0
 83159  1  0  0  0
 85160  1  0  0  0
M  ISO  4   1 100  68 101  83 101  85 100
M  END
> <chiral flag>
0

> <version>
0

> <s_m_source_file>
/data/baiqing/PycharmProjects/Reinvent-master-3.2/result/LINK_invent/BTK/process_docking_weight1_custom_product_contain_oxygen_bond_distance_aromatic_linkinvent_7_9_3/rearranged_h_0138.sdf

> <i_m_source_file_index>
97

> <r_mmod_Potential_Energy-OPLS-2005>
105.976661682129

> <r_mmod_Stretch_Energy-OPLS-2005>
87.0686798095703

> <r_mmod_Bend_Energy-OPLS-2005>
138.481506347656

> <r_mmod_Torsional_Energy-OPLS-2005>
245.270294189453

> <r_mmod_Improper_Torsional_Energy-OPLS-2005>
6.09427309036255

> <r_mmod_Van_der_Waal_Energy-OPLS-2005>
163.588623046875

> <r_mmod_Electrostatic_Energy-OPLS-2005>
-378.310150146484

> <r_mmod_Solvation_Energy-OPLS-2005>
-211.387100219727

> <b_mmod_Minimization_Converged-OPLS-2005>
0

> <r_mmod_RMS_Derivative-OPLS-2005>
0.822354853153229

$$$$
97
                    3D
 Structure written by MMmdl.
160168  0  0  1  0            999 V2000
  -30.6295  -14.5500   20.4739 C   0  0  0  0  0  0
  -30.4210  -12.3332   19.4249 C   0  0  0  0  0  0
  -29.4828  -12.5019   18.2067 C   0  0  0  0  0  0
  -27.9993  -12.3921   18.6139 C   0  0  0  0  0  0
  -27.6565  -13.2151   19.8837 C   0  0  2  0  0  0
  -28.7106  -13.0009   20.9950 C   0  0  0  0  0  0
  -25.2544  -13.8218   20.5729 C   0  0  0  0  0  0
  -24.1817  -13.0483   20.9175 C   0  0  0  0  0  0
  -24.6387  -11.6929   20.8760 C   0  0  0  0  0  0
  -23.9074  -10.4306   21.0392 C   0  0  0  0  0  0
  -24.3636   -9.4228   21.9180 C   0  0  0  0  0  0
  -23.6304   -8.2264   22.0737 C   0  0  0  0  0  0
  -22.4285   -8.0315   21.3530 C   0  0  0  0  0  0
  -21.9910   -9.0278   20.4629 C   0  0  0  0  0  0
  -22.7237  -10.2153   20.3050 C   0  0  0  0  0  0
  -21.6831   -6.0744   22.5256 C   0  0  0  0  0  0
  -21.4003   -6.5644   23.8190 C   0  0  0  0  0  0
  -21.3662   -5.6795   24.9153 C   0  0  0  0  0  0
  -21.6052   -4.3052   24.7207 C   0  0  0  0  0  0
  -21.8827   -3.8161   23.4315 C   0  0  0  0  0  0
  -21.9184   -4.6978   22.3383 C   0  0  0  0  0  0
  -22.7823  -13.5207   21.1826 C   0  0  0  0  0  0
  -22.1635   -4.2172   21.0951 F   0  0  0  0  0  0
  -21.5658   -3.4540   25.7732 F   0  0  0  0  0  0
  -30.0228  -13.3304   20.4288 N   0  0  0  0  0  0
  -26.3007  -12.9385   20.3484 N   0  0  0  0  0  0
  -25.9339  -11.6537   20.5886 N   0  0  0  0  0  0
  -22.0501  -12.8194   22.0382 N   0  0  0  0  0  0
  -25.4307  -15.1969   20.4138 N   0  0  0  0  0  0
  -31.7945  -14.7244   20.1032 O   0  0  0  0  0  0
  -21.6628   -6.8912   21.4235 O   0  0  0  0  0  0
  -22.3475  -14.5489   20.6638 O   0  0  0  0  0  0
  -24.6183  -31.8646   23.2107 C   0  0  0  0  0  0
  -25.9078  -32.4796   23.8391 C   0  0  1  0  0  0
  -27.2173  -27.3806   20.1116 C   0  0  0  0  0  0
  -25.5934  -33.8599   24.2319 N   0  0  0  0  0  0
  -23.4056  -30.4944   21.5488 C   0  0  2  0  0  0
  -24.8481  -28.9556   20.1163 C   0  0  0  0  0  0
  -22.7415  -29.4659   22.4942 C   0  0  0  0  0  0
  -18.0275  -28.1383   22.8466 C   0  0  0  0  0  0
  -24.1481  -36.7268   23.2638 C   0  0  0  0  0  0
  -25.9430  -30.8153   21.3741 C   0  0  0  0  0  0
  -26.0138  -29.4501   20.7131 C   0  0  0  0  0  0
  -27.2009  -28.6729   20.7006 C   0  0  0  0  0  0
  -26.0270  -26.9175   19.5047 C   0  0  0  0  0  0
  -24.8525  -27.6942   19.5047 C   0  0  0  0  0  0
  -23.6169  -29.8331   20.1616 C   0  0  0  0  0  0
  -25.4117  -36.3082   24.0325 C   0  0  1  0  0  0
  -20.5872  -28.3697   23.1262 C   0  0  2  0  0  0
  -20.6782  -26.9423   22.5401 C   0  0  0  0  0  0
  -19.5770  -26.6379   21.5194 C   0  0  0  0  0  0
  -18.1936  -26.7925   22.1594 C   0  0  0  0  0  0
  -19.1524  -28.8853   23.2860 C   0  0  0  0  0  0
  -18.9461  -30.1454   23.8893 C   0  0  0  0  0  0
  -17.6469  -30.6592   24.0562 C   0  0  0  0  0  0
  -25.9054  -34.9454   23.5114 C   0  0  0  0  0  0
  -16.5357  -29.9101   23.6339 C   0  0  0  0  0  0
  -16.7266  -28.6515   23.0354 C   0  0  0  0  0  0
  -26.4509  -31.6606   25.0746 C   0  0  0  0  0  0
  -25.3763  -31.3706   26.1484 C   0  0  0  0  0  0
  -27.0372  -30.3039   24.6202 C   0  0  0  0  0  0
  -27.6080  -32.4333   25.7523 C   0  0  0  0  0  0
  -27.5571  -37.1788   24.8464 C   0  0  0  0  0  0
  -21.4141  -29.3056   22.3667 N   0  0  0  0  0  0
  -26.4284  -37.3780   23.9411 N   0  0  0  0  0  0
  -24.6731  -31.0734   22.1019 N   0  0  0  0  0  0
  -23.4179  -28.8177   23.2974 O   0  0  0  0  0  0
  -28.3731  -26.6041   20.1458 O   0  0  0  0  0  0
  -26.5598  -34.8895   22.4669 O   0  0  0  0  0  0
  -23.5367  -32.1403   23.7510 O   0  0  0  0  0  0
  -29.1958  -19.0664   18.3213 C   0  0  0  0  0  0
  -29.2549  -16.6389   18.6071 C   0  0  0  0  0  0
  -29.8737  -18.0978   20.4570 C   0  0  0  0  0  0
  -29.0408  -17.7658   17.7922 C   0  0  0  0  0  0
  -29.6173  -19.2563   19.6606 C   0  0  0  0  0  0
  -29.6842  -16.7789   19.9438 C   0  0  0  0  0  0
  -29.2196  -21.7497   19.9977 C   0  0  0  0  0  0
  -28.6850  -17.5518   16.3337 C   0  0  0  0  0  0
  -30.4678  -24.5980   19.1226 C   0  0  0  0  0  0
  -29.6160  -22.9432   20.9181 C   0  0  0  0  0  0
  -28.2291  -25.1531   20.2199 C   0  0  0  0  0  0
  -29.6066  -24.4308   20.3862 C   0  0  2  0  0  0
  -29.8635  -20.5708   20.2085 N   0  0  0  0  0  0
  -29.8185  -15.5977   20.7582 N   0  0  0  0  0  0
  -28.3327  -21.8962   19.1546 O   0  0  0  0  0  0
  -31.4633  -12.4500   19.1194 H   0  0  0  0  0  0
  -30.3311  -11.3270   19.8395 H   0  0  0  0  0  0
  -29.7053  -11.7499   17.4496 H   0  0  0  0  0  0
  -29.6607  -13.4653   17.7302 H   0  0  0  0  0  0
  -27.7706  -11.3406   18.7840 H   0  0  0  0  0  0
  -27.3582  -12.7115   17.7926 H   0  0  0  0  0  0
  -27.6883  -14.2647   19.5941 H   0  0  0  0  0  0
  -28.7128  -11.9594   21.3165 H   0  0  0  0  0  0
  -28.4913  -13.5861   21.8879 H   0  0  0  0  0  0
  -25.2800   -9.5687   22.4738 H   0  0  0  0  0  0
  -23.9994   -7.4636   22.7448 H   0  0  0  0  0  0
  -21.0826   -8.8824   19.8936 H   0  0  0  0  0  0
  -22.3710  -10.9703   19.6166 H   0  0  0  0  0  0
  -21.1975   -7.6150   23.9690 H   0  0  0  0  0  0
  -21.1473   -6.0534   25.9051 H   0  0  0  0  0  0
  -22.0604   -2.7626   23.2821 H   0  0  0  0  0  0
  -22.4127  -11.9838   22.4741 H   0  0  0  0  0  0
  -21.1142  -13.1234   22.2666 H   0  0  0  0  0  0
  -24.6846  -15.8672   20.5618 H   0  0  0  0  0  0
  -26.2906  -15.6285   20.1015 H   0  0  0  0  0  0
  -26.7139  -32.5484   23.1129 H   0  0  0  0  0  0
  -25.0168  -33.9785   25.0521 H   0  0  0  0  0  0
  -22.6965  -31.3137   21.4109 H   0  0  0  0  0  0
  -23.3754  -35.9585   23.3309 H   0  0  0  0  0  0
  -24.3553  -36.8890   22.2046 H   0  0  0  0  0  0
  -23.7229  -37.6462   23.6668 H   0  0  0  0  0  0
  -26.0816  -31.5877   20.6164 H   0  0  0  0  0  0
  -26.8181  -30.8477   22.0106 H   0  0  0  0  0  0
  -28.0983  -29.0511   21.1687 H   0  0  0  0  0  0
  -25.9794  -25.9554   19.0188 H   0  0  0  0  0  0
  -23.9510  -27.3207   19.0357 H   0  0  0  0  0  0
  -23.7354  -30.6091   19.4049 H   0  0  0  0  0  0
  -22.7370  -29.2614   19.8606 H   0  0  0  0  0  0
  -25.1304  -36.1919   25.0815 H   0  0  0  0  0  0
  -20.9958  -28.3288   24.1382 H   0  0  0  0  0  0
  -20.5669  -26.2316   23.3607 H   0  0  0  0  0  0
  -21.6656  -26.7457   22.1208 H   0  0  0  0  0  0
  -19.6953  -25.6270   21.1268 H   0  0  0  0  0  0
  -19.6737  -27.3148   20.6685 H   0  0  0  0  0  0
  -17.4216  -26.6645   21.3995 H   0  0  0  0  0  0
  -18.0365  -26.0060   22.8987 H   0  0  0  0  0  0
  -19.7941  -30.7256   24.2269 H   0  0  0  0  0  0
  -17.5036  -31.6269   24.5162 H   0  0  0  0  0  0
  -15.5366  -30.3021   23.7661 H   0  0  0  0  0  0
  -15.8653  -28.0840   22.7104 H   0  0  0  0  0  0
  -24.5926  -30.7093   25.7772 H   0  0  0  0  0  0
  -24.8990  -32.2873   26.4960 H   0  0  0  0  0  0
  -25.8094  -30.8817   27.0226 H   0  0  0  0  0  0
  -26.2957  -29.6769   24.1250 H   0  0  0  0  0  0
  -27.4096  -29.7316   25.4711 H   0  0  0  0  0  0
  -27.8807  -30.4318   23.9414 H   0  0  0  0  0  0
  -27.2706  -33.3623   26.2125 H   0  0  0  0  0  0
  -28.3897  -32.6915   25.0365 H   0  0  0  0  0  0
  -28.0757  -31.8454   26.5435 H   0  0  0  0  0  0
  -28.2575  -38.0094   24.7530 H   0  0  0  0  0  0
  -28.1083  -36.2629   24.6283 H   0  0  0  0  0  0
  -27.2278  -37.1425   25.8860 H   0  0  0  0  0  0
  -20.9314  -29.8773   21.6872 H   0  0  0  0  0  0
  -26.0152  -38.2833   24.1467 H   0  0  0  0  0  0
  -29.0230  -19.9213   17.6830 H   0  0  0  0  0  0
  -29.0957  -15.6582   18.1825 H   0  0  0  0  0  0
  -30.2168  -18.2283   21.4738 H   0  0  0  0  0  0
  -28.1781  -18.4160   15.9068 H   0  0  0  0  0  0
  -28.0439  -16.6764   16.2101 H   0  0  0  0  0  0
  -29.5957  -17.3783   15.7577 H   0  0  0  0  0  0
  -31.5255  -24.4350   19.3390 H   0  0  0  0  0  0
  -30.3626  -25.6011   18.7053 H   0  0  0  0  0  0
  -30.1675  -23.8972   18.3415 H   0  0  0  0  0  0
  -30.6197  -22.7406   21.2983 H   0  0  0  0  0  0
  -28.9766  -22.8774   21.7975 H   0  0  0  0  0  0
  -27.5883  -24.9045   21.0708 H   0  0  0  0  0  0
  -27.7428  -24.7689   19.3227 H   0  0  0  0  0  0
  -30.1083  -24.9937   21.1767 H   0  0  0  0  0  0
  -30.5819  -20.6124   20.9178 H   0  0  0  0  0  0
  -28.9539  -15.3185   21.2004 H   0  0  0  0  0  0
  1 25  1  0  0  0
  1 30  2  0  0  0
  1 84  1  0  0  0
  2  3  1  0  0  0
  2 25  1  0  0  0
  2 86  1  0  0  0
  2 87  1  0  0  0
  3  4  1  0  0  0
  3 88  1  0  0  0
  3 89  1  0  0  0
  4  5  1  0  0  0
  4 90  1  0  0  0
  4 91  1  0  0  0
  5  6  1  0  0  0
  5 26  1  0  0  0
  5 92  1  0  0  0
  6 25  1  0  0  0
  6 93  1  0  0  0
  6 94  1  0  0  0
  7  8  2  0  0  0
  7 26  1  0  0  0
  7 29  1  0  0  0
  8  9  1  0  0  0
  8 22  1  0  0  0
  9 10  1  0  0  0
  9 27  2  0  0  0
 10 11  2  0  0  0
 10 15  1  0  0  0
 11 12  1  0  0  0
 11 95  1  0  0  0
 12 13  2  0  0  0
 12 96  1  0  0  0
 13 14  1  0  0  0
 13 31  1  0  0  0
 14 15  2  0  0  0
 14 97  1  0  0  0
 15 98  1  0  0  0
 16 17  2  0  0  0
 16 21  1  0  0  0
 16 31  1  0  0  0
 17 18  1  0  0  0
 17 99  1  0  0  0
 18 19  2  0  0  0
 18100  1  0  0  0
 19 20  1  0  0  0
 19 24  1  0  0  0
 20 21  2  0  0  0
 20101  1  0  0  0
 21 23  1  0  0  0
 22 28  1  0  0  0
 22 32  2  0  0  0
 26 27  1  0  0  0
 28102  1  0  0  0
 28103  1  0  0  0
 29104  1  0  0  0
 29105  1  0  0  0
 33 34  1  0  0  0
 33 66  1  0  0  0
 33 70  2  0  0  0
 34 36  1  0  0  0
 34 59  1  0  0  0
 34106  1  0  0  0
 35 44  2  0  0  0
 35 45  1  0  0  0
 35 68  1  0  0  0
 36 56  1  0  0  0
 36107  1  0  0  0
 37 39  1  0  0  0
 37 47  1  0  0  0
 37 66  1  0  0  0
 37108  1  0  0  0
 38 43  2  0  0  0
 38 46  1  0  0  0
 38 47  1  0  0  0
 39 64  1  0  0  0
 39 67  2  0  0  0
 40 52  1  0  0  0
 40 53  2  0  0  0
 40 58  1  0  0  0
 41109  1  0  0  0
 41110  1  0  0  0
 41111  1  0  0  0
 41 48  1  0  0  0
 42 43  1  0  0  0
 42 66  1  0  0  0
 42112  1  0  0  0
 42113  1  0  0  0
 43 44  1  0  0  0
 44114  1  0  0  0
 45 46  2  0  0  0
 45115  1  0  0  0
 46116  1  0  0  0
 47117  1  0  0  0
 47118  1  0  0  0
 48 56  1  0  0  0
 48 65  1  0  0  0
 48119  1  0  0  0
 49 50  1  0  0  0
 49 53  1  0  0  0
 49 64  1  0  0  0
 49120  1  0  0  0
 50 51  1  0  0  0
 50121  1  0  0  0
 50122  1  0  0  0
 51 52  1  0  0  0
 51123  1  0  0  0
 51124  1  0  0  0
 52125  1  0  0  0
 52126  1  0  0  0
 53 54  1  0  0  0
 54 55  2  0  0  0
 54127  1  0  0  0
 55 57  1  0  0  0
 55128  1  0  0  0
 56 69  2  0  0  0
 57 58  2  0  0  0
 57129  1  0  0  0
 58130  1  0  0  0
 59 60  1  0  0  0
 59 61  1  0  0  0
 59 62  1  0  0  0
 60131  1  0  0  0
 60132  1  0  0  0
 60133  1  0  0  0
 61134  1  0  0  0
 61135  1  0  0  0
 61136  1  0  0  0
 62137  1  0  0  0
 62138  1  0  0  0
 62139  1  0  0  0
 63 65  1  0  0  0
 63140  1  0  0  0
 63141  1  0  0  0
 63142  1  0  0  0
 64143  1  0  0  0
 65144  1  0  0  0
 68 81  1  0  0  0
 71 74  2  0  0  0
 71 75  1  0  0  0
 71145  1  0  0  0
 72 74  1  0  0  0
 72 76  2  0  0  0
 72146  1  0  0  0
 73 75  2  0  0  0
 73 76  1  0  0  0
 73147  1  0  0  0
 74 78  1  0  0  0
 75 83  1  0  0  0
 76 84  1  0  0  0
 77 80  1  0  0  0
 77 83  1  0  0  0
 77 85  2  0  0  0
 78148  1  0  0  0
 78149  1  0  0  0
 78150  1  0  0  0
 79151  1  0  0  0
 79152  1  0  0  0
 79153  1  0  0  0
 79 82  1  0  0  0
 80 82  1  0  0  0
 80154  1  0  0  0
 80155  1  0  0  0
 81 82  1  0  0  0
 81156  1  0  0  0
 81157  1  0  0  0
 82158  1  0  0  0
 83159  1  0  0  0
 84160  1  0  0  0
M  ISO  4   1 100  68 101  81 101  84 100
M  END
> <chiral flag>
0

> <version>
0

> <s_m_source_file>
/data/baiqing/PycharmProjects/Reinvent-master-3.2/result/LINK_invent/BTK/process_docking_weight1_custom_product_contain_oxygen_bond_distance_aromatic_linkinvent_7_9_3/rearranged_h_0138.sdf

> <i_m_source_file_index>
98

> <r_mmod_Potential_Energy-OPLS-2005>
-3.06448364257812

> <r_mmod_Stretch_Energy-OPLS-2005>
52.9454231262207

> <r_mmod_Bend_Energy-OPLS-2005>
117.95458984375

> <r_mmod_Torsional_Energy-OPLS-2005>
261.228607177734

> <r_mmod_Improper_Torsional_Energy-OPLS-2005>
7.83910942077637

> <r_mmod_Van_der_Waal_Energy-OPLS-2005>
141.380706787109

> <r_mmod_Electrostatic_Energy-OPLS-2005>
-382.135467529297

> <r_mmod_Solvation_Energy-OPLS-2005>
-228.423934936523

> <b_mmod_Minimization_Converged-OPLS-2005>
0

> <r_mmod_RMS_Derivative-OPLS-2005>
5.56121969223022

$$$$
