0
                    3D
 Structure written by MMmdl.
157166  0  0  1  0            999 V2000
  -30.5234  -14.8616   20.4487 C   0  0  0  0  0  0
  -30.4536  -12.5281   19.4852 C   0  0  0  0  0  0
  -29.5243  -12.5242   18.2472 C   0  0  0  0  0  0
  -28.0522  -12.3221   18.6602 C   0  0  0  0  0  0
  -27.6411  -13.2295   19.8487 C   0  0  2  0  0  0
  -28.6851  -13.1826   20.9863 C   0  0  0  0  0  0
  -25.2507  -13.8172   20.5669 C   0  0  0  0  0  0
  -24.1804  -13.0428   20.9217 C   0  0  0  0  0  0
  -24.6390  -11.6906   20.8753 C   0  0  0  0  0  0
  -23.9066  -10.4286   21.0409 C   0  0  0  0  0  0
  -24.3616   -9.4201   21.9188 C   0  0  0  0  0  0
  -23.6286   -8.2240   22.0761 C   0  0  0  0  0  0
  -22.4268   -8.0280   21.3552 C   0  0  0  0  0  0
  -21.9905   -9.0256   20.4653 C   0  0  0  0  0  0
  -22.7238  -10.2130   20.3060 C   0  0  0  0  0  0
  -21.6851   -6.0730   22.5278 C   0  0  0  0  0  0
  -21.4016   -6.5636   23.8211 C   0  0  0  0  0  0
  -21.3660   -5.6791   24.9174 C   0  0  0  0  0  0
  -21.6042   -4.3053   24.7226 C   0  0  0  0  0  0
  -21.8819   -3.8143   23.4347 C   0  0  0  0  0  0
  -21.9191   -4.6958   22.3403 C   0  0  0  0  0  0
  -22.7826  -13.5221   21.1867 C   0  0  0  0  0  0
  -22.1660   -4.2144   21.0981 F   0  0  0  0  0  0
  -21.5627   -3.4539   25.7739 F   0  0  0  0  0  0
  -29.9756  -13.5879   20.4090 N   0  0  0  0  0  0
  -26.2929  -12.9372   20.3247 N   0  0  0  0  0  0
  -25.9318  -11.6522   20.5739 N   0  0  0  0  0  0
  -22.0462  -12.8226   22.0425 N   0  0  0  0  0  0
  -25.4181  -15.1889   20.4018 N   0  0  0  0  0  0
  -31.7099  -15.0129   20.1353 O   0  0  0  0  0  0
  -21.6637   -6.8873   21.4240 O   0  0  0  0  0  0
  -22.3524  -14.5525   20.6704 O   0  0  0  0  0  0
  -24.6387  -31.8483   23.1919 C   0  0  0  0  0  0
  -25.9180  -32.4715   23.8294 C   0  0  1  0  0  0
  -27.2195  -27.1879   20.1492 C   0  0  0  0  0  0
  -25.5943  -33.8521   24.2213 N   0  0  0  0  0  0
  -23.4397  -30.4684   21.5366 C   0  0  2  0  0  0
  -24.8888  -28.9007   20.1138 C   0  0  0  0  0  0
  -22.7543  -29.4568   22.4882 C   0  0  0  0  0  0
  -18.0299  -28.1391   22.8484 C   0  0  0  0  0  0
  -24.1490  -36.7271   23.2642 C   0  0  0  0  0  0
  -25.9917  -30.7378   21.3834 C   0  0  0  0  0  0
  -26.0642  -29.3528   20.7282 C   0  0  0  0  0  0
  -27.2336  -28.5125   20.7278 C   0  0  0  0  0  0
  -26.0230  -26.8247   19.4949 C   0  0  0  0  0  0
  -24.8779  -27.6477   19.4823 C   0  0  0  0  0  0
  -23.6636  -29.7977   20.1557 C   0  0  0  0  0  0
  -25.4118  -36.3045   24.0320 C   0  0  1  0  0  0
  -20.5909  -28.3713   23.1251 C   0  0  2  0  0  0
  -20.6784  -26.9421   22.5406 C   0  0  0  0  0  0
  -19.5757  -26.6382   21.5214 C   0  0  0  0  0  0
  -18.1938  -26.7931   22.1627 C   0  0  0  0  0  0
  -19.1555  -28.8870   23.2862 C   0  0  0  0  0  0
  -18.9473  -30.1466   23.8887 C   0  0  0  0  0  0
  -17.6470  -30.6591   24.0560 C   0  0  0  0  0  0
  -25.9065  -34.9418   23.5074 C   0  0  0  0  0  0
  -16.5361  -29.9085   23.6332 C   0  0  0  0  0  0
  -16.7285  -28.6501   23.0360 C   0  0  0  0  0  0
  -26.4513  -31.6564   25.0719 C   0  0  0  0  0  0
  -25.3709  -31.3754   26.1426 C   0  0  0  0  0  0
  -27.0367  -30.2960   24.6270 C   0  0  0  0  0  0
  -27.6047  -32.4324   25.7501 C   0  0  0  0  0  0
  -27.5576  -37.1793   24.8465 C   0  0  0  0  0  0
  -21.4239  -29.3050   22.3632 N   0  0  0  0  0  0
  -26.4286  -37.3753   23.9408 N   0  0  0  0  0  0
  -24.7095  -31.0382   22.0930 N   0  0  0  0  0  0
  -23.4207  -28.8114   23.3015 O   0  0  0  0  0  0
  -28.2931  -26.2435   20.1697 O   0  0  0  0  0  0
  -26.5650  -34.8908   22.4652 O   0  0  0  0  0  0
  -23.5517  -32.1336   23.7169 O   0  0  0  0  0  0
  -28.0780  -19.5028   20.6649 C   0  0  0  0  0  0
  -30.4112  -19.8523   20.5392 C   0  0  0  0  0  0
  -28.2948  -18.0780   20.6409 C   0  0  0  0  0  0
  -30.6322  -18.4094   20.5016 C   0  0  0  0  0  0
  -29.1184  -20.4809   20.6440 C   0  0  0  0  0  0
  -29.5746  -17.4413   20.5806 C   0  0  0  0  0  0
  -30.7752  -23.3487   21.7750 C   0  0  0  0  0  0
  -29.6547  -22.4183   22.2673 C   0  0  0  0  0  0
  -30.4244  -23.7529   20.3365 C   0  0  0  0  0  0
  -28.8049  -22.0446   21.0418 C   0  0  1  0  0  0
  -28.9391  -23.4332   20.1515 C   0  0  1  0  0  0
  -28.0399  -24.7782   20.5636 C   0  0  0  0  0  0
  -29.6327  -15.9265   20.6656 N   0  0  0  0  0  0
  -31.4877  -12.6944   19.1793 H   0  0  0  0  0  0
  -30.4416  -11.5568   19.9820 H   0  0  0  0  0  0
  -29.8279  -11.7430   17.5491 H   0  0  0  0  0  0
  -29.6265  -13.4690   17.7109 H   0  0  0  0  0  0
  -27.9288  -11.2748   18.9392 H   0  0  0  0  0  0
  -27.3920  -12.4887   17.8084 H   0  0  0  0  0  0
  -27.6266  -14.2452   19.4535 H   0  0  0  0  0  0
  -28.7496  -12.1809   21.4139 H   0  0  0  0  0  0
  -28.3961  -13.8411   21.8070 H   0  0  0  0  0  0
  -25.2758   -9.5679   22.4766 H   0  0  0  0  0  0
  -23.9992   -7.4631   22.7482 H   0  0  0  0  0  0
  -21.0836   -8.8775   19.8961 H   0  0  0  0  0  0
  -22.3694  -10.9672   19.6172 H   0  0  0  0  0  0
  -21.2016   -7.6144   23.9714 H   0  0  0  0  0  0
  -21.1480   -6.0521   25.9077 H   0  0  0  0  0  0
  -22.0597   -2.7605   23.2849 H   0  0  0  0  0  0
  -22.4069  -11.9891   22.4830 H   0  0  0  0  0  0
  -21.1084  -13.1271   22.2619 H   0  0  0  0  0  0
  -24.6339  -15.8277   20.4781 H   0  0  0  0  0  0
  -26.2268  -15.6093   19.9646 H   0  0  0  0  0  0
  -26.7249  -32.5338   23.1030 H   0  0  0  0  0  0
  -25.0060  -33.9639   25.0339 H   0  0  0  0  0  0
  -22.7399  -31.2929   21.3845 H   0  0  0  0  0  0
  -23.3748  -35.9608   23.3297 H   0  0  0  0  0  0
  -24.3579  -36.8909   22.2059 H   0  0  0  0  0  0
  -23.7251  -37.6470   23.6679 H   0  0  0  0  0  0
  -26.1408  -31.4930   20.6105 H   0  0  0  0  0  0
  -26.8650  -30.7882   22.0224 H   0  0  0  0  0  0
  -28.1334  -28.8557   21.2184 H   0  0  0  0  0  0
  -25.9566  -25.8725   18.9887 H   0  0  0  0  0  0
  -23.9830  -27.2992   18.9851 H   0  0  0  0  0  0
  -23.7977  -30.5720   19.3994 H   0  0  0  0  0  0
  -22.7795  -29.2372   19.8467 H   0  0  0  0  0  0
  -25.1303  -36.1878   25.0811 H   0  0  0  0  0  0
  -21.0002  -28.3296   24.1372 H   0  0  0  0  0  0
  -20.5679  -26.2325   23.3619 H   0  0  0  0  0  0
  -21.6650  -26.7432   22.1203 H   0  0  0  0  0  0
  -19.6915  -25.6288   21.1256 H   0  0  0  0  0  0
  -19.6690  -27.3182   20.6735 H   0  0  0  0  0  0
  -17.4205  -26.6681   21.4032 H   0  0  0  0  0  0
  -18.0336  -26.0075   22.9025 H   0  0  0  0  0  0
  -19.7948  -30.7286   24.2253 H   0  0  0  0  0  0
  -17.5023  -31.6271   24.5162 H   0  0  0  0  0  0
  -15.5360  -30.2985   23.7660 H   0  0  0  0  0  0
  -15.8686  -28.0813   22.7085 H   0  0  0  0  0  0
  -24.5880  -30.7107   25.7758 H   0  0  0  0  0  0
  -24.8909  -32.2941   26.4809 H   0  0  0  0  0  0
  -25.8002  -30.8957   27.0231 H   0  0  0  0  0  0
  -26.2974  -29.6700   24.1261 H   0  0  0  0  0  0
  -27.3970  -29.7241   25.4830 H   0  0  0  0  0  0
  -27.8886  -30.4201   23.9582 H   0  0  0  0  0  0
  -27.2635  -33.3631   26.2044 H   0  0  0  0  0  0
  -28.3876  -32.6875   25.0348 H   0  0  0  0  0  0
  -28.0694  -31.8477   26.5450 H   0  0  0  0  0  0
  -28.2587  -38.0094   24.7499 H   0  0  0  0  0  0
  -28.1076  -36.2622   24.6297 H   0  0  0  0  0  0
  -27.2297  -37.1451   25.8869 H   0  0  0  0  0  0
  -20.9437  -29.8769   21.6824 H   0  0  0  0  0  0
  -26.0155  -38.2824   24.1401 H   0  0  0  0  0  0
  -27.0584  -19.8448   20.7776 H   0  0  0  0  0  0
  -31.2834  -20.4909   20.5538 H   0  0  0  0  0  0
  -27.4160  -17.4528   20.7118 H   0  0  0  0  0  0
  -31.6514  -18.0515   20.4598 H   0  0  0  0  0  0
  -31.7453  -22.8504   21.8055 H   0  0  0  0  0  0
  -30.8453  -24.2269   22.4188 H   0  0  0  0  0  0
  -29.0330  -22.9711   22.9732 H   0  0  0  0  0  0
  -30.0335  -21.5526   22.8122 H   0  0  0  0  0  0
  -31.0083  -23.1462   19.6426 H   0  0  0  0  0  0
  -30.6620  -24.7966   20.1249 H   0  0  0  0  0  0
  -27.7632  -22.0132   21.3639 H   0  0  0  0  0  0
  -28.7305  -23.2163   19.1036 H   0  0  0  0  0  0
  -28.0413  -24.8131   21.6530 H   0  0  0  0  0  0
  -27.0101  -24.5209   20.3235 H   0  0  0  0  0  0
  -28.7284  -15.5362   20.8810 H   0  0  0  0  0  0
  1 25  1  0  0  0
  1 30  2  0  0  0
  1 83  1  0  0  0
  2  3  1  0  0  0
  2 25  1  0  0  0
  2 84  1  0  0  0
  2 85  1  0  0  0
  3  4  1  0  0  0
  3 86  1  0  0  0
  3 87  1  0  0  0
  4  5  1  0  0  0
  4 88  1  0  0  0
  4 89  1  0  0  0
  5  6  1  0  0  0
  5 26  1  0  0  0
  5 90  1  0  0  0
  6 25  1  0  0  0
  6 91  1  0  0  0
  6 92  1  0  0  0
  7  8  2  0  0  0
  7 26  1  0  0  0
  7 29  1  0  0  0
  8  9  1  0  0  0
  8 22  1  0  0  0
  9 10  1  0  0  0
  9 27  2  0  0  0
 10 11  2  0  0  0
 10 15  1  0  0  0
 11 12  1  0  0  0
 11 93  1  0  0  0
 12 13  2  0  0  0
 12 94  1  0  0  0
 13 14  1  0  0  0
 13 31  1  0  0  0
 14 15  2  0  0  0
 14 95  1  0  0  0
 15 96  1  0  0  0
 16 17  2  0  0  0
 16 21  1  0  0  0
 16 31  1  0  0  0
 17 18  1  0  0  0
 17 97  1  0  0  0
 18 19  2  0  0  0
 18 98  1  0  0  0
 19 20  1  0  0  0
 19 24  1  0  0  0
 20 21  2  0  0  0
 20 99  1  0  0  0
 21 23  1  0  0  0
 22 28  1  0  0  0
 22 32  2  0  0  0
 26 27  1  0  0  0
 28100  1  0  0  0
 28101  1  0  0  0
 29102  1  0  0  0
 29103  1  0  0  0
 33 34  1  0  0  0
 33 66  1  0  0  0
 33 70  2  0  0  0
 34 36  1  0  0  0
 34 59  1  0  0  0
 34104  1  0  0  0
 35 44  2  0  0  0
 35 45  1  0  0  0
 35 68  1  0  0  0
 36 56  1  0  0  0
 36105  1  0  0  0
 37 39  1  0  0  0
 37 47  1  0  0  0
 37 66  1  0  0  0
 37106  1  0  0  0
 38 43  2  0  0  0
 38 46  1  0  0  0
 38 47  1  0  0  0
 39 64  1  0  0  0
 39 67  2  0  0  0
 40 52  1  0  0  0
 40 53  2  0  0  0
 40 58  1  0  0  0
 41107  1  0  0  0
 41108  1  0  0  0
 41109  1  0  0  0
 41 48  1  0  0  0
 42 43  1  0  0  0
 42 66  1  0  0  0
 42110  1  0  0  0
 42111  1  0  0  0
 43 44  1  0  0  0
 44112  1  0  0  0
 45 46  2  0  0  0
 45113  1  0  0  0
 46114  1  0  0  0
 47115  1  0  0  0
 47116  1  0  0  0
 48 56  1  0  0  0
 48 65  1  0  0  0
 48117  1  0  0  0
 49 50  1  0  0  0
 49 53  1  0  0  0
 49 64  1  0  0  0
 49118  1  0  0  0
 50 51  1  0  0  0
 50119  1  0  0  0
 50120  1  0  0  0
 51 52  1  0  0  0
 51121  1  0  0  0
 51122  1  0  0  0
 52123  1  0  0  0
 52124  1  0  0  0
 53 54  1  0  0  0
 54 55  2  0  0  0
 54125  1  0  0  0
 55 57  1  0  0  0
 55126  1  0  0  0
 56 69  2  0  0  0
 57 58  2  0  0  0
 57127  1  0  0  0
 58128  1  0  0  0
 59 60  1  0  0  0
 59 61  1  0  0  0
 59 62  1  0  0  0
 60129  1  0  0  0
 60130  1  0  0  0
 60131  1  0  0  0
 61132  1  0  0  0
 61133  1  0  0  0
 61134  1  0  0  0
 62135  1  0  0  0
 62136  1  0  0  0
 62137  1  0  0  0
 63 65  1  0  0  0
 63138  1  0  0  0
 63139  1  0  0  0
 63140  1  0  0  0
 64141  1  0  0  0
 65142  1  0  0  0
 68 82  1  0  0  0
 71 73  2  0  0  0
 71 75  1  0  0  0
 71143  1  0  0  0
 72 74  1  0  0  0
 72 75  2  0  0  0
 72144  1  0  0  0
 73 76  1  0  0  0
 73145  1  0  0  0
 74 76  2  0  0  0
 74146  1  0  0  0
 75 80  1  0  0  0
 76 83  1  0  0  0
 77 78  1  0  0  0
 77 79  1  0  0  0
 77147  1  0  0  0
 77148  1  0  0  0
 78 80  1  0  0  0
 78149  1  0  0  0
 78150  1  0  0  0
 79 81  1  0  0  0
 79151  1  0  0  0
 79152  1  0  0  0
 80 81  1  0  0  0
 80153  1  0  0  0
 81 82  1  0  0  0
 81154  1  0  0  0
 82155  1  0  0  0
 82156  1  0  0  0
 83157  1  0  0  0
M  ISO  4   1 100  68 101  82 101  83 100
M  END
> <chiral flag>
0

> <version>
0

> <s_m_source_file>
/data/baiqing/PycharmProjects/Reinvent-master-3.2/result/LINK_invent/BTK/process_docking_weight1_custom_product_contain_oxygen_bond_distance_aromatic_linkinvent_7_9_3/rearranged_h_0160.sdf

> <i_m_source_file_index>
1

> <r_mmod_Potential_Energy-OPLS-2005>
476.790130615234

> <r_mmod_Stretch_Energy-OPLS-2005>
187.829605102539

> <r_mmod_Bend_Energy-OPLS-2005>
271.662628173828

> <r_mmod_Torsional_Energy-OPLS-2005>
299.253692626953

> <r_mmod_Improper_Torsional_Energy-OPLS-2005>
7.26418685913086

> <r_mmod_Van_der_Waal_Energy-OPLS-2005>
126.583618164062

> <r_mmod_Electrostatic_Energy-OPLS-2005>
-354.725036621094

> <r_mmod_Solvation_Energy-OPLS-2005>
-202.320358276367

> <b_mmod_Minimization_Converged-OPLS-2005>
0

> <r_mmod_RMS_Derivative-OPLS-2005>
0.626331150531769

$$$$
1
                    3D
 Structure written by MMmdl.
154162  0  0  1  0            999 V2000
  -30.5941  -14.7824   20.4406 C   0  0  0  0  0  0
  -30.4308  -12.4759   19.4825 C   0  0  0  0  0  0
  -29.5119  -12.5072   18.2411 C   0  0  0  0  0  0
  -28.0386  -12.3264   18.6541 C   0  0  0  0  0  0
  -27.6375  -13.2346   19.8472 C   0  0  2  0  0  0
  -28.6800  -13.1902   20.9851 C   0  0  0  0  0  0
  -25.2491  -13.8201   20.5695 C   0  0  0  0  0  0
  -24.1791  -13.0441   20.9219 C   0  0  0  0  0  0
  -24.6387  -11.6920   20.8754 C   0  0  0  0  0  0
  -23.9068  -10.4294   21.0411 C   0  0  0  0  0  0
  -24.3620   -9.4208   21.9186 C   0  0  0  0  0  0
  -23.6294   -8.2243   22.0755 C   0  0  0  0  0  0
  -22.4276   -8.0282   21.3545 C   0  0  0  0  0  0
  -21.9912   -9.0256   20.4648 C   0  0  0  0  0  0
  -22.7242  -10.2135   20.3059 C   0  0  0  0  0  0
  -21.6854   -6.0735   22.5278 C   0  0  0  0  0  0
  -21.4016   -6.5639   23.8212 C   0  0  0  0  0  0
  -21.3660   -5.6792   24.9174 C   0  0  0  0  0  0
  -21.6044   -4.3054   24.7225 C   0  0  0  0  0  0
  -21.8819   -3.8147   23.4346 C   0  0  0  0  0  0
  -21.9193   -4.6963   22.3402 C   0  0  0  0  0  0
  -22.7813  -13.5221   21.1874 C   0  0  0  0  0  0
  -22.1661   -4.2149   21.0979 F   0  0  0  0  0  0
  -21.5629   -3.4538   25.7738 F   0  0  0  0  0  0
  -29.9759  -13.5495   20.3993 N   0  0  0  0  0  0
  -26.2912  -12.9411   20.3263 N   0  0  0  0  0  0
  -25.9315  -11.6552   20.5748 N   0  0  0  0  0  0
  -22.0458  -12.8212   22.0430 N   0  0  0  0  0  0
  -25.4170  -15.1927   20.4096 N   0  0  0  0  0  0
  -31.7866  -14.8665   20.1337 O   0  0  0  0  0  0
  -21.6640   -6.8879   21.4240 O   0  0  0  0  0  0
  -22.3499  -14.5525   20.6718 O   0  0  0  0  0  0
  -24.6331  -31.8510   23.1930 C   0  0  0  0  0  0
  -25.9146  -32.4728   23.8290 C   0  0  1  0  0  0
  -27.2264  -27.2345   20.1265 C   0  0  0  0  0  0
  -25.5928  -33.8531   24.2217 N   0  0  0  0  0  0
  -23.4303  -30.4707   21.5372 C   0  0  2  0  0  0
  -24.8757  -28.9060   20.1092 C   0  0  0  0  0  0
  -22.7506  -29.4579   22.4902 C   0  0  0  0  0  0
  -18.0291  -28.1389   22.8483 C   0  0  0  0  0  0
  -24.1490  -36.7274   23.2643 C   0  0  0  0  0  0
  -25.9761  -30.7565   21.3725 C   0  0  0  0  0  0
  -26.0466  -29.3759   20.7138 C   0  0  0  0  0  0
  -27.2185  -28.5531   20.7059 C   0  0  0  0  0  0
  -26.0213  -26.8211   19.5214 C   0  0  0  0  0  0
  -24.8692  -27.6378   19.5036 C   0  0  0  0  0  0
  -23.6480  -29.7973   20.1552 C   0  0  0  0  0  0
  -25.4119  -36.3053   24.0322 C   0  0  1  0  0  0
  -20.5895  -28.3699   23.1269 C   0  0  2  0  0  0
  -20.6777  -26.9414   22.5412 C   0  0  0  0  0  0
  -19.5754  -26.6382   21.5213 C   0  0  0  0  0  0
  -18.1934  -26.7930   22.1624 C   0  0  0  0  0  0
  -19.1545  -28.8861   23.2870 C   0  0  0  0  0  0
  -18.9466  -30.1461   23.8889 C   0  0  0  0  0  0
  -17.6465  -30.6589   24.0562 C   0  0  0  0  0  0
  -25.9061  -34.9426   23.5077 C   0  0  0  0  0  0
  -16.5356  -29.9086   23.6332 C   0  0  0  0  0  0
  -16.7278  -28.6504   23.0353 C   0  0  0  0  0  0
  -26.4504  -31.6573   25.0700 C   0  0  0  0  0  0
  -25.3718  -31.3734   26.1417 C   0  0  0  0  0  0
  -27.0362  -30.2987   24.6211 C   0  0  0  0  0  0
  -27.6048  -32.4327   25.7479 C   0  0  0  0  0  0
  -27.5576  -37.1792   24.8465 C   0  0  0  0  0  0
  -21.4211  -29.3037   22.3651 N   0  0  0  0  0  0
  -26.4289  -37.3757   23.9407 N   0  0  0  0  0  0
  -24.6993  -31.0455   22.0907 N   0  0  0  0  0  0
  -23.4197  -28.8135   23.3021 O   0  0  0  0  0  0
  -28.3704  -26.3996   20.2142 O   0  0  0  0  0  0
  -26.5646  -34.8912   22.4654 O   0  0  0  0  0  0
  -23.5479  -32.1342   23.7219 O   0  0  0  0  0  0
  -28.1660  -18.9072   21.2267 C   0  0  0  0  0  0
  -29.3441  -18.6730   20.5482 C   0  0  0  0  0  0
  -28.7705  -20.8918   20.4691 C   0  0  0  0  0  0
  -30.1792  -25.0577   19.7752 C   0  0  0  0  0  0
  -28.2755  -24.8825   18.2005 C   0  0  0  0  0  0
  -30.2570  -17.3888   20.3078 C   0  0  0  0  0  0
  -28.2144  -23.6234   20.4775 C   0  0  0  0  0  0
  -28.6415  -24.9964   19.6933 C   0  0  0  0  0  0
  -27.8242  -20.2783   21.1782 N   0  0  0  0  0  0
  -28.8985  -22.2960   20.1327 N   0  0  0  0  0  0
  -29.8270  -15.9380   20.5952 N   0  0  0  0  0  0
  -29.7267  -19.9620   20.0573 O   0  0  0  0  0  0
  -31.4720  -12.6017   19.1809 H   0  0  0  0  0  0
  -30.3797  -11.5050   19.9779 H   0  0  0  0  0  0
  -29.8013  -11.7270   17.5358 H   0  0  0  0  0  0
  -29.6333  -13.4560   17.7159 H   0  0  0  0  0  0
  -27.9019  -11.2794   18.9267 H   0  0  0  0  0  0
  -27.3812  -12.5064   17.8027 H   0  0  0  0  0  0
  -27.6253  -14.2517   19.4552 H   0  0  0  0  0  0
  -28.7234  -12.1985   21.4376 H   0  0  0  0  0  0
  -28.4096  -13.8816   21.7848 H   0  0  0  0  0  0
  -25.2764   -9.5684   22.4762 H   0  0  0  0  0  0
  -24.0003   -7.4634   22.7473 H   0  0  0  0  0  0
  -21.0844   -8.8777   19.8953 H   0  0  0  0  0  0
  -22.3700  -10.9676   19.6169 H   0  0  0  0  0  0
  -21.2010   -7.6148   23.9715 H   0  0  0  0  0  0
  -21.1482   -6.0522   25.9077 H   0  0  0  0  0  0
  -22.0597   -2.7609   23.2846 H   0  0  0  0  0  0
  -22.4078  -11.9878   22.4824 H   0  0  0  0  0  0
  -21.1074  -13.1234   22.2633 H   0  0  0  0  0  0
  -24.6422  -15.8399   20.5079 H   0  0  0  0  0  0
  -26.2486  -15.6277   20.0326 H   0  0  0  0  0  0
  -26.7209  -32.5361   23.1024 H   0  0  0  0  0  0
  -25.0053  -33.9657   25.0348 H   0  0  0  0  0  0
  -22.7281  -31.2934   21.3874 H   0  0  0  0  0  0
  -23.3751  -35.9606   23.3301 H   0  0  0  0  0  0
  -24.3575  -36.8906   22.2058 H   0  0  0  0  0  0
  -23.7246  -37.6472   23.6678 H   0  0  0  0  0  0
  -26.1175  -31.5162   20.6026 H   0  0  0  0  0  0
  -26.8525  -30.8053   22.0075 H   0  0  0  0  0  0
  -28.1183  -28.9119   21.1858 H   0  0  0  0  0  0
  -25.9283  -25.8374   19.0961 H   0  0  0  0  0  0
  -23.9654  -27.2643   19.0423 H   0  0  0  0  0  0
  -23.7742  -30.5703   19.3962 H   0  0  0  0  0  0
  -22.7651  -29.2318   19.8520 H   0  0  0  0  0  0
  -25.1305  -36.1890   25.0814 H   0  0  0  0  0  0
  -20.9987  -28.3281   24.1389 H   0  0  0  0  0  0
  -20.5672  -26.2310   23.3619 H   0  0  0  0  0  0
  -21.6645  -26.7432   22.1209 H   0  0  0  0  0  0
  -19.6915  -25.6291   21.1249 H   0  0  0  0  0  0
  -19.6692  -27.3188   20.6740 H   0  0  0  0  0  0
  -17.4203  -26.6675   21.4028 H   0  0  0  0  0  0
  -18.0334  -26.0075   22.9024 H   0  0  0  0  0  0
  -19.7942  -30.7279   24.2255 H   0  0  0  0  0  0
  -17.5019  -31.6268   24.5165 H   0  0  0  0  0  0
  -15.5356  -30.2985   23.7660 H   0  0  0  0  0  0
  -15.8678  -28.0820   22.7072 H   0  0  0  0  0  0
  -24.5896  -30.7080   25.7744 H   0  0  0  0  0  0
  -24.8906  -32.2907   26.4820 H   0  0  0  0  0  0
  -25.8026  -30.8925   27.0208 H   0  0  0  0  0  0
  -26.2954  -29.6720   24.1233 H   0  0  0  0  0  0
  -27.4033  -29.7269   25.4744 H   0  0  0  0  0  0
  -27.8831  -30.4257   23.9465 H   0  0  0  0  0  0
  -27.2645  -33.3634   26.2034 H   0  0  0  0  0  0
  -28.3869  -32.6880   25.0317 H   0  0  0  0  0  0
  -28.0706  -31.8471   26.5416 H   0  0  0  0  0  0
  -28.2593  -38.0089   24.7507 H   0  0  0  0  0  0
  -28.1073  -36.2619   24.6299 H   0  0  0  0  0  0
  -27.2294  -37.1449   25.8869 H   0  0  0  0  0  0
  -20.9403  -29.8747   21.6840 H   0  0  0  0  0  0
  -26.0162  -38.2829   24.1405 H   0  0  0  0  0  0
  -27.5484  -18.2006   21.7637 H   0  0  0  0  0  0
  -30.6564  -24.1830   19.3340 H   0  0  0  0  0  0
  -30.5142  -25.1244   20.8109 H   0  0  0  0  0  0
  -30.5718  -25.9287   19.2488 H   0  0  0  0  0  0
  -28.8491  -24.0910   17.7174 H   0  0  0  0  0  0
  -28.4842  -25.8085   17.6643 H   0  0  0  0  0  0
  -27.2318  -24.6223   18.0422 H   0  0  0  0  0  0
  -31.1807  -17.5433   20.8671 H   0  0  0  0  0  0
  -30.5690  -17.4049   19.2627 H   0  0  0  0  0  0
  -27.1375  -23.4819   20.3766 H   0  0  0  0  0  0
  -28.3804  -23.7839   21.5435 H   0  0  0  0  0  0
  -29.7154  -22.4439   19.5523 H   0  0  0  0  0  0
  -28.8534  -15.7930   20.8122 H   0  0  0  0  0  0
  1 25  1  0  0  0
  1 30  2  0  0  0
  1 81  1  0  0  0
  2  3  1  0  0  0
  2 25  1  0  0  0
  2 83  1  0  0  0
  2 84  1  0  0  0
  3  4  1  0  0  0
  3 85  1  0  0  0
  3 86  1  0  0  0
  4  5  1  0  0  0
  4 87  1  0  0  0
  4 88  1  0  0  0
  5  6  1  0  0  0
  5 26  1  0  0  0
  5 89  1  0  0  0
  6 25  1  0  0  0
  6 90  1  0  0  0
  6 91  1  0  0  0
  7  8  2  0  0  0
  7 26  1  0  0  0
  7 29  1  0  0  0
  8  9  1  0  0  0
  8 22  1  0  0  0
  9 10  1  0  0  0
  9 27  2  0  0  0
 10 11  2  0  0  0
 10 15  1  0  0  0
 11 12  1  0  0  0
 11 92  1  0  0  0
 12 13  2  0  0  0
 12 93  1  0  0  0
 13 14  1  0  0  0
 13 31  1  0  0  0
 14 15  2  0  0  0
 14 94  1  0  0  0
 15 95  1  0  0  0
 16 17  2  0  0  0
 16 21  1  0  0  0
 16 31  1  0  0  0
 17 18  1  0  0  0
 17 96  1  0  0  0
 18 19  2  0  0  0
 18 97  1  0  0  0
 19 20  1  0  0  0
 19 24  1  0  0  0
 20 21  2  0  0  0
 20 98  1  0  0  0
 21 23  1  0  0  0
 22 28  1  0  0  0
 22 32  2  0  0  0
 26 27  1  0  0  0
 28 99  1  0  0  0
 28100  1  0  0  0
 29101  1  0  0  0
 29102  1  0  0  0
 33 34  1  0  0  0
 33 66  1  0  0  0
 33 70  2  0  0  0
 34 36  1  0  0  0
 34 59  1  0  0  0
 34103  1  0  0  0
 35 44  2  0  0  0
 35 45  1  0  0  0
 35 68  1  0  0  0
 36 56  1  0  0  0
 36104  1  0  0  0
 37 39  1  0  0  0
 37 47  1  0  0  0
 37 66  1  0  0  0
 37105  1  0  0  0
 38 43  2  0  0  0
 38 46  1  0  0  0
 38 47  1  0  0  0
 39 64  1  0  0  0
 39 67  2  0  0  0
 40 52  1  0  0  0
 40 53  2  0  0  0
 40 58  1  0  0  0
 41106  1  0  0  0
 41107  1  0  0  0
 41108  1  0  0  0
 41 48  1  0  0  0
 42 43  1  0  0  0
 42 66  1  0  0  0
 42109  1  0  0  0
 42110  1  0  0  0
 43 44  1  0  0  0
 44111  1  0  0  0
 45 46  2  0  0  0
 45112  1  0  0  0
 46113  1  0  0  0
 47114  1  0  0  0
 47115  1  0  0  0
 48 56  1  0  0  0
 48 65  1  0  0  0
 48116  1  0  0  0
 49 50  1  0  0  0
 49 53  1  0  0  0
 49 64  1  0  0  0
 49117  1  0  0  0
 50 51  1  0  0  0
 50118  1  0  0  0
 50119  1  0  0  0
 51 52  1  0  0  0
 51120  1  0  0  0
 51121  1  0  0  0
 52122  1  0  0  0
 52123  1  0  0  0
 53 54  1  0  0  0
 54 55  2  0  0  0
 54124  1  0  0  0
 55 57  1  0  0  0
 55125  1  0  0  0
 56 69  2  0  0  0
 57 58  2  0  0  0
 57126  1  0  0  0
 58127  1  0  0  0
 59 60  1  0  0  0
 59 61  1  0  0  0
 59 62  1  0  0  0
 60128  1  0  0  0
 60129  1  0  0  0
 60130  1  0  0  0
 61131  1  0  0  0
 61132  1  0  0  0
 61133  1  0  0  0
 62134  1  0  0  0
 62135  1  0  0  0
 62136  1  0  0  0
 63 65  1  0  0  0
 63137  1  0  0  0
 63138  1  0  0  0
 63139  1  0  0  0
 64140  1  0  0  0
 65141  1  0  0  0
 68 78  1  0  0  0
 71 72  2  0  0  0
 71 79  1  0  0  0
 71142  1  0  0  0
 72 76  1  0  0  0
 72 82  1  0  0  0
 73 79  2  0  0  0
 73 80  1  0  0  0
 73 82  1  0  0  0
 74143  1  0  0  0
 74144  1  0  0  0
 74145  1  0  0  0
 74 78  1  0  0  0
 75 78  1  0  0  0
 75146  1  0  0  0
 75147  1  0  0  0
 75148  1  0  0  0
 76 81  1  0  0  0
 76149  1  0  0  0
 76150  1  0  0  0
 77 78  1  0  0  0
 77 80  1  0  0  0
 77151  1  0  0  0
 77152  1  0  0  0
 80153  1  0  0  0
 81154  1  0  0  0
M  ISO  4   1 100  68 101  78 101  81 100
M  END
> <chiral flag>
0

> <version>
0

> <s_m_source_file>
/data/baiqing/PycharmProjects/Reinvent-master-3.2/result/LINK_invent/BTK/process_docking_weight1_custom_product_contain_oxygen_bond_distance_aromatic_linkinvent_7_9_3/rearranged_h_0160.sdf

> <i_m_source_file_index>
2

> <r_mmod_Potential_Energy-OPLS-2005>
-7.49438762664795

> <r_mmod_Stretch_Energy-OPLS-2005>
138.213012695312

> <r_mmod_Bend_Energy-OPLS-2005>
220.361038208008

> <r_mmod_Torsional_Energy-OPLS-2005>
196.930633544922

> <r_mmod_Improper_Torsional_Energy-OPLS-2005>
5.69426393508911

> <r_mmod_Van_der_Waal_Energy-OPLS-2005>
114.576232910156

> <r_mmod_Electrostatic_Energy-OPLS-2005>
-552.143859863281

> <r_mmod_Solvation_Energy-OPLS-2005>
-229.131011962891

> <b_mmod_Minimization_Converged-OPLS-2005>
0

> <r_mmod_RMS_Derivative-OPLS-2005>
0.150114998221397

$$$$
2
                    3D
 Structure written by MMmdl.
146154  0  0  1  0            999 V2000
  -30.3891  -15.4500   20.3696 C   0  0  0  0  0  0
  -30.4305  -12.9566   19.5045 C   0  0  0  0  0  0
  -29.5352  -12.6065   18.2880 C   0  0  0  0  0  0
  -28.0985  -12.2902   18.7362 C   0  0  0  0  0  0
  -27.5997  -13.2884   19.8079 C   0  0  2  0  0  0
  -28.6336  -13.5587   20.9218 C   0  0  0  0  0  0
  -25.2368  -13.8259   20.5797 C   0  0  0  0  0  0
  -24.1727  -13.0433   20.9275 C   0  0  0  0  0  0
  -24.6401  -11.6936   20.8766 C   0  0  0  0  0  0
  -23.9102  -10.4291   21.0405 C   0  0  0  0  0  0
  -24.3644   -9.4207   21.9188 C   0  0  0  0  0  0
  -23.6306   -8.2248   22.0760 C   0  0  0  0  0  0
  -22.4289   -8.0286   21.3547 C   0  0  0  0  0  0
  -21.9934   -9.0261   20.4647 C   0  0  0  0  0  0
  -22.7274  -10.2134   20.3054 C   0  0  0  0  0  0
  -21.6856   -6.0742   22.5280 C   0  0  0  0  0  0
  -21.4017   -6.5642   23.8213 C   0  0  0  0  0  0
  -21.3658   -5.6794   24.9174 C   0  0  0  0  0  0
  -21.6044   -4.3056   24.7224 C   0  0  0  0  0  0
  -21.8819   -3.8150   23.4345 C   0  0  0  0  0  0
  -21.9194   -4.6967   22.3401 C   0  0  0  0  0  0
  -22.7741  -13.5181   21.1908 C   0  0  0  0  0  0
  -22.1661   -4.2155   21.0979 F   0  0  0  0  0  0
  -21.5628   -3.4539   25.7736 F   0  0  0  0  0  0
  -29.8207  -14.1301   20.2531 N   0  0  0  0  0  0
  -26.2791  -12.9551   20.3223 N   0  0  0  0  0  0
  -25.9342  -11.6644   20.5713 N   0  0  0  0  0  0
  -22.0393  -12.8162   22.0454 N   0  0  0  0  0  0
  -25.4012  -15.2003   20.4293 N   0  0  0  0  0  0
  -31.6275  -15.3805   20.2819 O   0  0  0  0  0  0
  -21.6644   -6.8887   21.4242 O   0  0  0  0  0  0
  -22.3427  -14.5482   20.6745 O   0  0  0  0  0  0
  -24.6750  -31.8126   23.1616 C   0  0  0  0  0  0
  -25.9383  -32.4531   23.8117 C   0  0  1  0  0  0
  -27.2211  -26.8054   20.2086 C   0  0  0  0  0  0
  -25.6004  -33.8350   24.2017 N   0  0  0  0  0  0
  -23.4957  -30.4190   21.5145 C   0  0  2  0  0  0
  -24.9513  -28.7794   20.1265 C   0  0  0  0  0  0
  -22.7723  -29.4385   22.4759 C   0  0  0  0  0  0
  -18.0333  -28.1412   22.8464 C   0  0  0  0  0  0
  -24.1495  -36.7172   23.2643 C   0  0  0  0  0  0
  -26.0728  -30.5788   21.4114 C   0  0  0  0  0  0
  -26.1407  -29.1522   20.7665 C   0  0  0  0  0  0
  -27.2698  -28.1912   20.7774 C   0  0  0  0  0  0
  -25.9997  -26.6187   19.5199 C   0  0  0  0  0  0
  -24.9124  -27.5340   19.4816 C   0  0  0  0  0  0
  -23.7445  -29.7235   20.1478 C   0  0  0  0  0  0
  -25.4139  -36.2932   24.0289 C   0  0  1  0  0  0
  -20.5963  -28.3770   23.1162 C   0  0  2  0  0  0
  -20.6799  -26.9438   22.5400 C   0  0  0  0  0  0
  -19.5774  -26.6377   21.5209 C   0  0  0  0  0  0
  -18.1959  -26.7941   22.1621 C   0  0  0  0  0  0
  -19.1596  -28.8915   23.2793 C   0  0  0  0  0  0
  -18.9499  -30.1501   23.8836 C   0  0  0  0  0  0
  -17.6490  -30.6597   24.0554 C   0  0  0  0  0  0
  -25.9118  -34.9319   23.4982 C   0  0  0  0  0  0
  -16.5382  -29.9082   23.6345 C   0  0  0  0  0  0
  -16.7313  -28.6501   23.0368 C   0  0  0  0  0  0
  -26.4590  -31.6513   25.0691 C   0  0  0  0  0  0
  -25.3688  -31.3793   26.1329 C   0  0  0  0  0  0
  -27.0498  -30.2860   24.6506 C   0  0  0  0  0  0
  -27.6059  -32.4343   25.7507 C   0  0  0  0  0  0
  -27.5572  -37.1737   24.8461 C   0  0  0  0  0  0
  -21.4381  -29.3039   22.3498 N   0  0  0  0  0  0
  -26.4270  -37.3686   23.9419 N   0  0  0  0  0  0
  -24.7704  -30.9665   22.0821 N   0  0  0  0  0  0
  -23.4211  -28.7963   23.3052 O   0  0  0  0  0  0
  -28.1899  -25.6269   20.1561 O   0  0  0  0  0  0
  -26.5738  -34.8876   22.4584 O   0  0  0  0  0  0
  -23.5793  -32.1155   23.6628 O   0  0  0  0  0  0
  -30.5743  -19.4949   22.9124 C   0  0  0  0  0  0
  -29.4865  -19.7720   20.8634 C   0  0  0  0  0  0
  -29.8268  -18.2189   20.8580 C   0  0  0  0  0  0
  -28.0366  -24.1960   20.7720 C   0  0  0  0  0  0
  -28.9459  -21.2141   20.0890 C   0  0  0  0  0  0
  -28.3141  -22.6867   20.8000 C   0  0  0  0  0  0
  -29.8813  -20.2857   22.1124 N   0  0  0  0  0  0
  -29.6748  -16.8031   20.2800 N   0  0  0  0  0  0
  -27.7348  -22.2199   22.0764 N   0  3  0  0  0  0
  -29.0016  -21.2256   18.8557 O   0  0  0  0  0  0
  -30.8109  -17.9078   22.2956 S   0  0  0  0  0  0
  -31.4315  -13.1985   19.1453 H   0  0  0  0  0  0
  -30.5574  -12.0916   20.1577 H   0  0  0  0  0  0
  -29.9520  -11.7643   17.7344 H   0  0  0  0  0  0
  -29.5219  -13.4514   17.5979 H   0  0  0  0  0  0
  -28.0970  -11.2814   19.1508 H   0  0  0  0  0  0
  -27.4234  -12.2725   17.8799 H   0  0  0  0  0  0
  -27.4795  -14.2272   19.2660 H   0  0  0  0  0  0
  -28.8630  -12.6573   21.4915 H   0  0  0  0  0  0
  -28.2398  -14.2860   21.6335 H   0  0  0  0  0  0
  -25.2783   -9.5682   22.4774 H   0  0  0  0  0  0
  -24.0008   -7.4641   22.7487 H   0  0  0  0  0  0
  -21.0865   -8.8787   19.8950 H   0  0  0  0  0  0
  -22.3736  -10.9677   19.6165 H   0  0  0  0  0  0
  -21.2010   -7.6151   23.9719 H   0  0  0  0  0  0
  -21.1478   -6.0523   25.9077 H   0  0  0  0  0  0
  -22.0599   -2.7613   23.2842 H   0  0  0  0  0  0
  -22.4017  -11.9826   22.4841 H   0  0  0  0  0  0
  -21.1003  -13.1171   22.2650 H   0  0  0  0  0  0
  -24.6377  -15.8545   20.5628 H   0  0  0  0  0  0
  -26.2571  -15.6472   20.1282 H   0  0  0  0  0  0
  -26.7464  -32.5043   23.0834 H   0  0  0  0  0  0
  -25.0092  -33.9404   25.0132 H   0  0  0  0  0  0
  -22.8149  -31.2533   21.3319 H   0  0  0  0  0  0
  -23.3781  -35.9478   23.3258 H   0  0  0  0  0  0
  -24.3568  -36.8871   22.2067 H   0  0  0  0  0  0
  -23.7226  -37.6330   23.6738 H   0  0  0  0  0  0
  -26.2628  -31.3076   20.6221 H   0  0  0  0  0  0
  -26.9287  -30.6476   22.0705 H   0  0  0  0  0  0
  -28.1763  -28.4860   21.2869 H   0  0  0  0  0  0
  -25.8606  -25.6741   19.0137 H   0  0  0  0  0  0
  -24.0150  -27.2406   18.9539 H   0  0  0  0  0  0
  -23.9123  -30.4856   19.3858 H   0  0  0  0  0  0
  -22.8511  -29.1846   19.8265 H   0  0  0  0  0  0
  -25.1337  -36.1707   25.0778 H   0  0  0  0  0  0
  -21.0048  -28.3385   24.1289 H   0  0  0  0  0  0
  -20.5654  -26.2392   23.3651 H   0  0  0  0  0  0
  -21.6661  -26.7388   22.1220 H   0  0  0  0  0  0
  -19.6928  -25.6273   21.1276 H   0  0  0  0  0  0
  -19.6708  -27.3151   20.6708 H   0  0  0  0  0  0
  -17.4222  -26.6682   21.4032 H   0  0  0  0  0  0
  -18.0363  -26.0089   22.9024 H   0  0  0  0  0  0
  -19.7972  -30.7336   24.2176 H   0  0  0  0  0  0
  -17.5038  -31.6272   24.5166 H   0  0  0  0  0  0
  -15.5379  -30.2966   23.7698 H   0  0  0  0  0  0
  -15.8712  -28.0796   22.7128 H   0  0  0  0  0  0
  -24.5906  -30.7100   25.7639 H   0  0  0  0  0  0
  -24.8839  -32.3002   26.4578 H   0  0  0  0  0  0
  -25.7906  -30.9084   27.0219 H   0  0  0  0  0  0
  -26.3194  -29.6514   24.1480 H   0  0  0  0  0  0
  -27.3943  -29.7253   25.5204 H   0  0  0  0  0  0
  -27.9171  -30.3997   24.0002 H   0  0  0  0  0  0
  -27.2618  -33.3709   26.1906 H   0  0  0  0  0  0
  -28.3973  -32.6799   25.0412 H   0  0  0  0  0  0
  -28.0616  -31.8584   26.5572 H   0  0  0  0  0  0
  -28.2537  -38.0082   24.7555 H   0  0  0  0  0  0
  -28.1122  -36.2611   24.6235 H   0  0  0  0  0  0
  -27.2293  -37.1308   25.8861 H   0  0  0  0  0  0
  -20.9665  -29.8718   21.6597 H   0  0  0  0  0  0
  -26.0106  -38.2732   24.1459 H   0  0  0  0  0  0
  -30.9510  -19.8430   23.8651 H   0  0  0  0  0  0
  -27.4690  -24.4687   21.6508 H   0  0  0  0  0  0
  -28.7569  -16.6679   19.8810 H   0  0  0  0  0  0
  -27.7121  -22.9543   22.7566 H   0  0  0  0  0  0
  -26.8075  -21.8576   21.9451 H   0  0  0  0  0  0
  -28.3148  -21.4778   22.4394 H   0  0  0  0  0  0
  1 25  1  0  0  0
  1 30  2  0  0  0
  1 78  1  0  0  0
  2  3  1  0  0  0
  2 25  1  0  0  0
  2 82  1  0  0  0
  2 83  1  0  0  0
  3  4  1  0  0  0
  3 84  1  0  0  0
  3 85  1  0  0  0
  4  5  1  0  0  0
  4 86  1  0  0  0
  4 87  1  0  0  0
  5  6  1  0  0  0
  5 26  1  0  0  0
  5 88  1  0  0  0
  6 25  1  0  0  0
  6 89  1  0  0  0
  6 90  1  0  0  0
  7  8  2  0  0  0
  7 26  1  0  0  0
  7 29  1  0  0  0
  8  9  1  0  0  0
  8 22  1  0  0  0
  9 10  1  0  0  0
  9 27  2  0  0  0
 10 11  2  0  0  0
 10 15  1  0  0  0
 11 12  1  0  0  0
 11 91  1  0  0  0
 12 13  2  0  0  0
 12 92  1  0  0  0
 13 14  1  0  0  0
 13 31  1  0  0  0
 14 15  2  0  0  0
 14 93  1  0  0  0
 15 94  1  0  0  0
 16 17  2  0  0  0
 16 21  1  0  0  0
 16 31  1  0  0  0
 17 18  1  0  0  0
 17 95  1  0  0  0
 18 19  2  0  0  0
 18 96  1  0  0  0
 19 20  1  0  0  0
 19 24  1  0  0  0
 20 21  2  0  0  0
 20 97  1  0  0  0
 21 23  1  0  0  0
 22 28  1  0  0  0
 22 32  2  0  0  0
 26 27  1  0  0  0
 28 98  1  0  0  0
 28 99  1  0  0  0
 29100  1  0  0  0
 29101  1  0  0  0
 33 34  1  0  0  0
 33 66  1  0  0  0
 33 70  2  0  0  0
 34 36  1  0  0  0
 34 59  1  0  0  0
 34102  1  0  0  0
 35 44  2  0  0  0
 35 45  1  0  0  0
 35 68  1  0  0  0
 36 56  1  0  0  0
 36103  1  0  0  0
 37 39  1  0  0  0
 37 47  1  0  0  0
 37 66  1  0  0  0
 37104  1  0  0  0
 38 43  2  0  0  0
 38 46  1  0  0  0
 38 47  1  0  0  0
 39 64  1  0  0  0
 39 67  2  0  0  0
 40 52  1  0  0  0
 40 53  2  0  0  0
 40 58  1  0  0  0
 41105  1  0  0  0
 41106  1  0  0  0
 41107  1  0  0  0
 41 48  1  0  0  0
 42 43  1  0  0  0
 42 66  1  0  0  0
 42108  1  0  0  0
 42109  1  0  0  0
 43 44  1  0  0  0
 44110  1  0  0  0
 45 46  2  0  0  0
 45111  1  0  0  0
 46112  1  0  0  0
 47113  1  0  0  0
 47114  1  0  0  0
 48 56  1  0  0  0
 48 65  1  0  0  0
 48115  1  0  0  0
 49 50  1  0  0  0
 49 53  1  0  0  0
 49 64  1  0  0  0
 49116  1  0  0  0
 50 51  1  0  0  0
 50117  1  0  0  0
 50118  1  0  0  0
 51 52  1  0  0  0
 51119  1  0  0  0
 51120  1  0  0  0
 52121  1  0  0  0
 52122  1  0  0  0
 53 54  1  0  0  0
 54 55  2  0  0  0
 54123  1  0  0  0
 55 57  1  0  0  0
 55124  1  0  0  0
 56 69  2  0  0  0
 57 58  2  0  0  0
 57125  1  0  0  0
 58126  1  0  0  0
 59 60  1  0  0  0
 59 61  1  0  0  0
 59 62  1  0  0  0
 60127  1  0  0  0
 60128  1  0  0  0
 60129  1  0  0  0
 61130  1  0  0  0
 61131  1  0  0  0
 61132  1  0  0  0
 62133  1  0  0  0
 62134  1  0  0  0
 62135  1  0  0  0
 63 65  1  0  0  0
 63136  1  0  0  0
 63137  1  0  0  0
 63138  1  0  0  0
 64139  1  0  0  0
 65140  1  0  0  0
 68 74  1  0  0  0
 71 77  2  0  0  0
 71 81  1  0  0  0
 71141  1  0  0  0
 72 73  2  0  0  0
 72 75  1  0  0  0
 72 77  1  0  0  0
 73 78  1  0  0  0
 73 81  1  0  0  0
 74 76  2  0  0  0
 74142  1  0  0  0
 75 76  1  0  0  0
 75 80  2  0  0  0
 76 79  1  0  0  0
 78143  1  0  0  0
 79144  1  0  0  0
 79145  1  0  0  0
 79146  1  0  0  0
M  CHG  1  79   1
M  ISO  4   1 100  68 101  74 101  78 100
M  END
> <chiral flag>
0

> <version>
0

> <s_m_source_file>
/data/baiqing/PycharmProjects/Reinvent-master-3.2/result/LINK_invent/BTK/process_docking_weight1_custom_product_contain_oxygen_bond_distance_aromatic_linkinvent_7_9_3/rearranged_h_0160.sdf

> <i_m_source_file_index>
3

> <r_mmod_Potential_Energy-OPLS-2005>
1690.52514648438

> <r_mmod_Stretch_Energy-OPLS-2005>
807.0263671875

> <r_mmod_Bend_Energy-OPLS-2005>
728.512084960938

> <r_mmod_Torsional_Energy-OPLS-2005>
255.748123168945

> <r_mmod_Improper_Torsional_Energy-OPLS-2005>
8.5872106552124

> <r_mmod_Van_der_Waal_Energy-OPLS-2005>
120.028144836426

> <r_mmod_Electrostatic_Energy-OPLS-2005>
-337.699035644531

> <r_mmod_Solvation_Energy-OPLS-2005>
-560.09130859375

> <b_mmod_Minimization_Converged-OPLS-2005>
0

> <r_mmod_RMS_Derivative-OPLS-2005>
0.827463686466217

$$$$
3
                    3D
 Structure written by MMmdl.
164173  0  0  1  0            999 V2000
  -30.6498  -14.6491   20.4711 C   0  0  0  0  0  0
  -30.4275  -12.3945   19.4658 C   0  0  0  0  0  0
  -29.5101  -12.5024   18.2293 C   0  0  0  0  0  0
  -28.0343  -12.3349   18.6366 C   0  0  0  0  0  0
  -27.6462  -13.2243   19.8493 C   0  0  2  0  0  0
  -28.6873  -13.1212   20.9870 C   0  0  0  0  0  0
  -25.2513  -13.8190   20.5666 C   0  0  0  0  0  0
  -24.1803  -13.0438   20.9193 C   0  0  0  0  0  0
  -24.6388  -11.6912   20.8729 C   0  0  0  0  0  0
  -23.9056  -10.4292   21.0397 C   0  0  0  0  0  0
  -24.3600   -9.4201   21.9175 C   0  0  0  0  0  0
  -23.6276   -8.2245   22.0752 C   0  0  0  0  0  0
  -22.4256   -8.0287   21.3551 C   0  0  0  0  0  0
  -21.9883   -9.0254   20.4654 C   0  0  0  0  0  0
  -22.7217  -10.2127   20.3051 C   0  0  0  0  0  0
  -21.6855   -6.0726   22.5289 C   0  0  0  0  0  0
  -21.4020   -6.5629   23.8224 C   0  0  0  0  0  0
  -21.3657   -5.6783   24.9183 C   0  0  0  0  0  0
  -21.6052   -4.3046   24.7234 C   0  0  0  0  0  0
  -21.8817   -3.8135   23.4357 C   0  0  0  0  0  0
  -21.9189   -4.6952   22.3409 C   0  0  0  0  0  0
  -22.7826  -13.5232   21.1840 C   0  0  0  0  0  0
  -22.1659   -4.2138   21.0988 F   0  0  0  0  0  0
  -21.5620   -3.4530   25.7744 F   0  0  0  0  0  0
  -30.0042  -13.4402   20.4203 N   0  0  0  0  0  0
  -26.2943  -12.9396   20.3238 N   0  0  0  0  0  0
  -25.9317  -11.6530   20.5707 N   0  0  0  0  0  0
  -22.0444  -12.8252   22.0412 N   0  0  0  0  0  0
  -25.4201  -15.1921   20.4120 N   0  0  0  0  0  0
  -31.8347  -14.7309   20.1418 O   0  0  0  0  0  0
  -21.6632   -6.8873   21.4257 O   0  0  0  0  0  0
  -22.3523  -14.5536   20.6673 O   0  0  0  0  0  0
  -24.6230  -31.8600   23.2036 C   0  0  0  0  0  0
  -25.9088  -32.4774   23.8351 C   0  0  1  0  0  0
  -27.2199  -27.3240   20.1278 C   0  0  0  0  0  0
  -25.5911  -33.8583   24.2257 N   0  0  0  0  0  0
  -23.4175  -30.4836   21.5444 C   0  0  2  0  0  0
  -24.8655  -28.9419   20.1064 C   0  0  0  0  0  0
  -22.7459  -29.4618   22.4923 C   0  0  0  0  0  0
  -18.0284  -28.1394   22.8494 C   0  0  0  0  0  0
  -24.1497  -36.7293   23.2633 C   0  0  0  0  0  0
  -25.9571  -30.7904   21.3780 C   0  0  0  0  0  0
  -26.0305  -29.4203   20.7185 C   0  0  0  0  0  0
  -27.2086  -28.6201   20.7239 C   0  0  0  0  0  0
  -26.0441  -26.9104   19.4617 C   0  0  0  0  0  0
  -24.8731  -27.6910   19.4701 C   0  0  0  0  0  0
  -23.6337  -29.8207   20.1584 C   0  0  0  0  0  0
  -25.4119  -36.3071   24.0312 C   0  0  1  0  0  0
  -20.5887  -28.3686   23.1289 C   0  0  2  0  0  0
  -20.6787  -26.9414   22.5412 C   0  0  0  0  0  0
  -19.5757  -26.6389   21.5225 C   0  0  0  0  0  0
  -18.1934  -26.7937   22.1632 C   0  0  0  0  0  0
  -19.1537  -28.8858   23.2888 C   0  0  0  0  0  0
  -18.9463  -30.1459   23.8902 C   0  0  0  0  0  0
  -17.6463  -30.6591   24.0571 C   0  0  0  0  0  0
  -25.9049  -34.9441   23.5081 C   0  0  0  0  0  0
  -16.5353  -29.9088   23.6332 C   0  0  0  0  0  0
  -16.7271  -28.6509   23.0348 C   0  0  0  0  0  0
  -26.4492  -31.6588   25.0711 C   0  0  0  0  0  0
  -25.3731  -31.3754   26.1443 C   0  0  0  0  0  0
  -27.0313  -30.3001   24.6164 C   0  0  0  0  0  0
  -27.6049  -32.4335   25.7469 C   0  0  0  0  0  0
  -27.5576  -37.1791   24.8448 C   0  0  0  0  0  0
  -21.4173  -29.3032   22.3667 N   0  0  0  0  0  0
  -26.4285  -37.3769   23.9401 N   0  0  0  0  0  0
  -24.6840  -31.0621   22.0991 N   0  0  0  0  0  0
  -23.4186  -28.8152   23.2991 O   0  0  0  0  0  0
  -28.3356  -26.4817   20.2284 O   0  0  0  0  0  0
  -26.5624  -34.8911   22.4649 O   0  0  0  0  0  0
  -23.5393  -32.1403   23.7368 O   0  0  0  0  0  0
  -31.2808  -18.8752   18.9730 C   0  0  0  0  0  0
  -30.3618  -19.8767   19.3442 C   0  0  0  0  0  0
  -31.1582  -17.5532   19.4502 C   0  0  0  0  0  0
  -29.2219  -18.2370   20.7402 C   0  0  0  0  0  0
  -29.3260  -19.5998   20.2580 C   0  0  0  0  0  0
  -30.1092  -17.1757   20.3279 C   0  0  0  0  0  0
  -29.5097  -24.2151   20.3396 C   0  0  0  0  0  0
  -29.5585  -22.8754   20.6757 C   0  0  0  0  0  0
  -28.2800  -20.6582   20.5519 C   0  0  0  0  0  0
  -27.1911  -24.3407   21.0203 C   0  0  0  0  0  0
  -27.0813  -22.8212   20.7407 C   0  0  0  0  0  0
  -28.2044  -25.0074   20.0721 C   0  0  1  0  0  0
  -30.7447  -25.1069   20.3745 C   0  0  0  0  0  0
  -30.8391  -22.2694   21.2545 C   0  0  0  0  0  0
  -28.3816  -22.0607   20.6787 N   0  0  0  0  0  0
  -29.8913  -15.7710   20.7240 N   0  0  0  0  0  0
  -27.0572  -20.1265   20.6521 N   0  3  0  0  0  0
  -31.4730  -12.4970   19.1693 H   0  0  0  0  0  0
  -30.3471  -11.4092   19.9261 H   0  0  0  0  0  0
  -29.7809  -11.7502   17.4878 H   0  0  0  0  0  0
  -29.6538  -13.4699   17.7461 H   0  0  0  0  0  0
  -27.8830  -11.2832   18.8841 H   0  0  0  0  0  0
  -27.3858  -12.5446   17.7855 H   0  0  0  0  0  0
  -27.6499  -14.2499   19.4807 H   0  0  0  0  0  0
  -28.6939  -12.1161   21.4092 H   0  0  0  0  0  0
  -28.4344  -13.7933   21.8086 H   0  0  0  0  0  0
  -25.2755   -9.5662   22.4731 H   0  0  0  0  0  0
  -23.9987   -7.4630   22.7457 H   0  0  0  0  0  0
  -21.0813   -8.8765   19.8963 H   0  0  0  0  0  0
  -22.3677  -10.9657   19.6146 H   0  0  0  0  0  0
  -21.2016   -7.6136   23.9718 H   0  0  0  0  0  0
  -21.1486   -6.0516   25.9085 H   0  0  0  0  0  0
  -22.0590   -2.7592   23.2865 H   0  0  0  0  0  0
  -22.4056  -11.9952   22.4881 H   0  0  0  0  0  0
  -21.1060  -13.1298   22.2567 H   0  0  0  0  0  0
  -24.6415  -15.8356   20.5115 H   0  0  0  0  0  0
  -26.2575  -15.6343   20.0570 H   0  0  0  0  0  0
  -26.7145  -32.5457   23.1088 H   0  0  0  0  0  0
  -25.0062  -33.9760   25.0402 H   0  0  0  0  0  0
  -22.7096  -31.3027   21.4023 H   0  0  0  0  0  0
  -23.3752  -35.9634   23.3286 H   0  0  0  0  0  0
  -24.3572  -36.8937   22.2047 H   0  0  0  0  0  0
  -23.7271  -37.6496   23.6674 H   0  0  0  0  0  0
  -26.0937  -31.5552   20.6130 H   0  0  0  0  0  0
  -26.8362  -30.8333   22.0091 H   0  0  0  0  0  0
  -28.0961  -28.9751   21.2293 H   0  0  0  0  0  0
  -25.9992  -25.9610   18.9506 H   0  0  0  0  0  0
  -23.9819  -27.3186   18.9829 H   0  0  0  0  0  0
  -23.7554  -30.5996   19.4051 H   0  0  0  0  0  0
  -22.7538  -29.2520   19.8522 H   0  0  0  0  0  0
  -25.1309  -36.1911   25.0804 H   0  0  0  0  0  0
  -20.9982  -28.3282   24.1411 H   0  0  0  0  0  0
  -20.5719  -26.2300   23.3612 H   0  0  0  0  0  0
  -21.6656  -26.7462   22.1195 H   0  0  0  0  0  0
  -19.6923  -25.6303   21.1248 H   0  0  0  0  0  0
  -19.6696  -27.3212   20.6768 H   0  0  0  0  0  0
  -17.4209  -26.6683   21.4032 H   0  0  0  0  0  0
  -18.0317  -26.0079   22.9022 H   0  0  0  0  0  0
  -19.7936  -30.7278   24.2274 H   0  0  0  0  0  0
  -17.5011  -31.6273   24.5168 H   0  0  0  0  0  0
  -15.5352  -30.2989   23.7652 H   0  0  0  0  0  0
  -15.8671  -28.0825   22.7050 H   0  0  0  0  0  0
  -24.5870  -30.7146   25.7771 H   0  0  0  0  0  0
  -24.8979  -32.2947   26.4877 H   0  0  0  0  0  0
  -25.8056  -30.8905   27.0201 H   0  0  0  0  0  0
  -26.2870  -29.6760   24.1202 H   0  0  0  0  0  0
  -27.4012  -29.7254   25.4662 H   0  0  0  0  0  0
  -27.8751  -30.4265   23.9376 H   0  0  0  0  0  0
  -27.2643  -33.3632   26.2042 H   0  0  0  0  0  0
  -28.3852  -32.6910   25.0292 H   0  0  0  0  0  0
  -28.0716  -31.8467   26.5389 H   0  0  0  0  0  0
  -28.2582  -38.0098   24.7501 H   0  0  0  0  0  0
  -28.1086  -36.2627   24.6268 H   0  0  0  0  0  0
  -27.2281  -37.1425   25.8847 H   0  0  0  0  0  0
  -20.9341  -29.8733   21.6866 H   0  0  0  0  0  0
  -26.0157  -38.2836   24.1425 H   0  0  0  0  0  0
  -32.0752  -19.1107   18.2782 H   0  0  0  0  0  0
  -30.4503  -20.8605   18.9027 H   0  0  0  0  0  0
  -31.8750  -16.8405   19.0751 H   0  0  0  0  0  0
  -28.4132  -17.9846   21.4099 H   0  0  0  0  0  0
  -27.4842  -24.5067   22.0574 H   0  0  0  0  0  0
  -26.1983  -24.7761   20.9282 H   0  0  0  0  0  0
  -26.5599  -22.6813   19.7919 H   0  0  0  0  0  0
  -26.4337  -22.4033   21.5137 H   0  0  0  0  0  0
  -27.9277  -24.8106   19.0353 H   0  0  0  0  0  0
  -31.6796  -24.5514   20.3763 H   0  0  0  0  0  0
  -30.7274  -25.7394   21.2620 H   0  0  0  0  0  0
  -30.7627  -25.7568   19.4994 H   0  0  0  0  0  0
  -31.2247  -22.9199   22.0416 H   0  0  0  0  0  0
  -31.6190  -22.1743   20.4973 H   0  0  0  0  0  0
  -30.6956  -21.3011   21.7318 H   0  0  0  0  0  0
  -28.9780  -15.5694   21.0984 H   0  0  0  0  0  0
  -26.9474  -19.1386   20.4870 H   0  0  0  0  0  0
  -26.2471  -20.6674   20.8958 H   0  0  0  0  0  0
  1 25  1  0  0  0
  1 30  2  0  0  0
  1 86  1  0  0  0
  2  3  1  0  0  0
  2 25  1  0  0  0
  2 88  1  0  0  0
  2 89  1  0  0  0
  3  4  1  0  0  0
  3 90  1  0  0  0
  3 91  1  0  0  0
  4  5  1  0  0  0
  4 92  1  0  0  0
  4 93  1  0  0  0
  5  6  1  0  0  0
  5 26  1  0  0  0
  5 94  1  0  0  0
  6 25  1  0  0  0
  6 95  1  0  0  0
  6 96  1  0  0  0
  7  8  2  0  0  0
  7 26  1  0  0  0
  7 29  1  0  0  0
  8  9  1  0  0  0
  8 22  1  0  0  0
  9 10  1  0  0  0
  9 27  2  0  0  0
 10 11  2  0  0  0
 10 15  1  0  0  0
 11 12  1  0  0  0
 11 97  1  0  0  0
 12 13  2  0  0  0
 12 98  1  0  0  0
 13 14  1  0  0  0
 13 31  1  0  0  0
 14 15  2  0  0  0
 14 99  1  0  0  0
 15100  1  0  0  0
 16 17  2  0  0  0
 16 21  1  0  0  0
 16 31  1  0  0  0
 17 18  1  0  0  0
 17101  1  0  0  0
 18 19  2  0  0  0
 18102  1  0  0  0
 19 20  1  0  0  0
 19 24  1  0  0  0
 20 21  2  0  0  0
 20103  1  0  0  0
 21 23  1  0  0  0
 22 28  1  0  0  0
 22 32  2  0  0  0
 26 27  1  0  0  0
 28104  1  0  0  0
 28105  1  0  0  0
 29106  1  0  0  0
 29107  1  0  0  0
 33 34  1  0  0  0
 33 66  1  0  0  0
 33 70  2  0  0  0
 34 36  1  0  0  0
 34 59  1  0  0  0
 34108  1  0  0  0
 35 44  2  0  0  0
 35 45  1  0  0  0
 35 68  1  0  0  0
 36 56  1  0  0  0
 36109  1  0  0  0
 37 39  1  0  0  0
 37 47  1  0  0  0
 37 66  1  0  0  0
 37110  1  0  0  0
 38 43  2  0  0  0
 38 46  1  0  0  0
 38 47  1  0  0  0
 39 64  1  0  0  0
 39 67  2  0  0  0
 40 52  1  0  0  0
 40 53  2  0  0  0
 40 58  1  0  0  0
 41111  1  0  0  0
 41112  1  0  0  0
 41113  1  0  0  0
 41 48  1  0  0  0
 42 43  1  0  0  0
 42 66  1  0  0  0
 42114  1  0  0  0
 42115  1  0  0  0
 43 44  1  0  0  0
 44116  1  0  0  0
 45 46  2  0  0  0
 45117  1  0  0  0
 46118  1  0  0  0
 47119  1  0  0  0
 47120  1  0  0  0
 48 56  1  0  0  0
 48 65  1  0  0  0
 48121  1  0  0  0
 49 50  1  0  0  0
 49 53  1  0  0  0
 49 64  1  0  0  0
 49122  1  0  0  0
 50 51  1  0  0  0
 50123  1  0  0  0
 50124  1  0  0  0
 51 52  1  0  0  0
 51125  1  0  0  0
 51126  1  0  0  0
 52127  1  0  0  0
 52128  1  0  0  0
 53 54  1  0  0  0
 54 55  2  0  0  0
 54129  1  0  0  0
 55 57  1  0  0  0
 55130  1  0  0  0
 56 69  2  0  0  0
 57 58  2  0  0  0
 57131  1  0  0  0
 58132  1  0  0  0
 59 60  1  0  0  0
 59 61  1  0  0  0
 59 62  1  0  0  0
 60133  1  0  0  0
 60134  1  0  0  0
 60135  1  0  0  0
 61136  1  0  0  0
 61137  1  0  0  0
 61138  1  0  0  0
 62139  1  0  0  0
 62140  1  0  0  0
 62141  1  0  0  0
 63 65  1  0  0  0
 63142  1  0  0  0
 63143  1  0  0  0
 63144  1  0  0  0
 64145  1  0  0  0
 65146  1  0  0  0
 68 82  1  0  0  0
 71 72  2  0  0  0
 71 73  1  0  0  0
 71147  1  0  0  0
 72 75  1  0  0  0
 72148  1  0  0  0
 73 76  2  0  0  0
 73149  1  0  0  0
 74 75  2  0  0  0
 74 76  1  0  0  0
 74150  1  0  0  0
 75 79  1  0  0  0
 76 86  1  0  0  0
 77 78  2  0  0  0
 77 82  1  0  0  0
 77 83  1  0  0  0
 78 84  1  0  0  0
 78 85  1  0  0  0
 79 85  1  0  0  0
 79 87  2  0  0  0
 80 81  1  0  0  0
 80 82  1  0  0  0
 80151  1  0  0  0
 80152  1  0  0  0
 81 85  1  0  0  0
 81153  1  0  0  0
 81154  1  0  0  0
 82155  1  0  0  0
 83156  1  0  0  0
 83157  1  0  0  0
 83158  1  0  0  0
 84159  1  0  0  0
 84160  1  0  0  0
 84161  1  0  0  0
 86162  1  0  0  0
 87163  1  0  0  0
 87164  1  0  0  0
M  CHG  1  87   1
M  ISO  4   1 100  68 101  82 101  86 100
M  END
> <chiral flag>
0

> <version>
0

> <s_m_source_file>
/data/baiqing/PycharmProjects/Reinvent-master-3.2/result/LINK_invent/BTK/process_docking_weight1_custom_product_contain_oxygen_bond_distance_aromatic_linkinvent_7_9_3/rearranged_h_0160.sdf

> <i_m_source_file_index>
4

> <r_mmod_Potential_Energy-OPLS-2005>
-43.0886573791504

> <r_mmod_Stretch_Energy-OPLS-2005>
97.0109024047852

> <r_mmod_Bend_Energy-OPLS-2005>
158.942413330078

> <r_mmod_Torsional_Energy-OPLS-2005>
226.283752441406

> <r_mmod_Improper_Torsional_Energy-OPLS-2005>
5.94649410247803

> <r_mmod_Van_der_Waal_Energy-OPLS-2005>
186.078765869141

> <r_mmod_Electrostatic_Energy-OPLS-2005>
-362.368011474609

> <r_mmod_Solvation_Energy-OPLS-2005>
-408.522644042969

> <b_mmod_Minimization_Converged-OPLS-2005>
0

> <r_mmod_RMS_Derivative-OPLS-2005>
2.74212837219238

$$$$
4
                    3D
 Structure written by MMmdl.
157166  0  0  1  0            999 V2000
  -30.6180  -14.7320   20.4858 C   0  0  0  0  0  0
  -30.4401  -12.4512   19.4798 C   0  0  0  0  0  0
  -29.5165  -12.5197   18.2405 C   0  0  0  0  0  0
  -28.0394  -12.3532   18.6464 C   0  0  0  0  0  0
  -27.6501  -13.2353   19.8621 C   0  0  2  0  0  0
  -28.6940  -13.1426   20.9994 C   0  0  0  0  0  0
  -25.2535  -13.8201   20.5689 C   0  0  0  0  0  0
  -24.1820  -13.0449   20.9199 C   0  0  0  0  0  0
  -24.6410  -11.6924   20.8737 C   0  0  0  0  0  0
  -23.9076  -10.4306   21.0406 C   0  0  0  0  0  0
  -24.3616   -9.4223   21.9188 C   0  0  0  0  0  0
  -23.6300   -8.2255   22.0755 C   0  0  0  0  0  0
  -22.4269   -8.0291   21.3543 C   0  0  0  0  0  0
  -21.9904   -9.0272   20.4666 C   0  0  0  0  0  0
  -22.7238  -10.2151   20.3069 C   0  0  0  0  0  0
  -21.6851   -6.0742   22.5274 C   0  0  0  0  0  0
  -21.4027   -6.5641   23.8209 C   0  0  0  0  0  0
  -21.3659   -5.6786   24.9171 C   0  0  0  0  0  0
  -21.6033   -4.3045   24.7213 C   0  0  0  0  0  0
  -21.8823   -3.8148   23.4341 C   0  0  0  0  0  0
  -21.9202   -4.6974   22.3398 C   0  0  0  0  0  0
  -22.7836  -13.5229   21.1847 C   0  0  0  0  0  0
  -22.1669   -4.2164   21.0980 F   0  0  0  0  0  0
  -21.5618   -3.4528   25.7727 F   0  0  0  0  0  0
  -30.0043  -13.4968   20.4379 N   0  0  0  0  0  0
  -26.2976  -12.9419   20.3309 N   0  0  0  0  0  0
  -25.9341  -11.6554   20.5730 N   0  0  0  0  0  0
  -22.0469  -12.8235   22.0405 N   0  0  0  0  0  0
  -25.4240  -15.1922   20.4102 N   0  0  0  0  0  0
  -31.7793  -14.8525   20.0778 O   0  0  0  0  0  0
  -21.6639   -6.8888   21.4234 O   0  0  0  0  0  0
  -22.3527  -14.5532   20.6699 O   0  0  0  0  0  0
  -24.6300  -31.8569   23.1992 C   0  0  0  0  0  0
  -25.9120  -32.4772   23.8352 C   0  0  1  0  0  0
  -27.2172  -27.2561   20.1386 C   0  0  0  0  0  0
  -25.5908  -33.8569   24.2281 N   0  0  0  0  0  0
  -23.4268  -30.4801   21.5422 C   0  0  2  0  0  0
  -24.8762  -28.9333   20.1069 C   0  0  0  0  0  0
  -22.7497  -29.4607   22.4912 C   0  0  0  0  0  0
  -18.0290  -28.1376   22.8489 C   0  0  0  0  0  0
  -24.1486  -36.7287   23.2641 C   0  0  0  0  0  0
  -25.9726  -30.7691   21.3812 C   0  0  0  0  0  0
  -26.0445  -29.3895   20.7280 C   0  0  0  0  0  0
  -27.2114  -28.5596   20.7423 C   0  0  0  0  0  0
  -26.0344  -26.8917   19.4498 C   0  0  0  0  0  0
  -24.8787  -27.6940   19.4535 C   0  0  0  0  0  0
  -23.6454  -29.8167   20.1568 C   0  0  0  0  0  0
  -25.4110  -36.3085   24.0338 C   0  0  1  0  0  0
  -20.5897  -28.3690   23.1267 C   0  0  2  0  0  0
  -20.6772  -26.9406   22.5411 C   0  0  0  0  0  0
  -19.5755  -26.6378   21.5204 C   0  0  0  0  0  0
  -18.1933  -26.7920   22.1622 C   0  0  0  0  0  0
  -19.1551  -28.8851   23.2877 C   0  0  0  0  0  0
  -18.9467  -30.1444   23.8906 C   0  0  0  0  0  0
  -17.6471  -30.6584   24.0550 C   0  0  0  0  0  0
  -25.9045  -34.9452   23.5122 C   0  0  0  0  0  0
  -16.5361  -29.9083   23.6318 C   0  0  0  0  0  0
  -16.7279  -28.6491   23.0361 C   0  0  0  0  0  0
  -26.4495  -31.6582   25.0724 C   0  0  0  0  0  0
  -25.3713  -31.3710   26.1440 C   0  0  0  0  0  0
  -27.0325  -30.3006   24.6165 C   0  0  0  0  0  0
  -27.6076  -32.4297   25.7475 C   0  0  0  0  0  0
  -27.5586  -37.1796   24.8466 C   0  0  0  0  0  0
  -21.4213  -29.3038   22.3656 N   0  0  0  0  0  0
  -26.4291  -37.3781   23.9419 N   0  0  0  0  0  0
  -24.6954  -31.0534   22.0974 N   0  0  0  0  0  0
  -23.4206  -28.8148   23.3006 O   0  0  0  0  0  0
  -28.3078  -26.3549   20.2604 O   0  0  0  0  0  0
  -26.5633  -34.8918   22.4698 O   0  0  0  0  0  0
  -23.5443  -32.1399   23.7269 O   0  0  0  0  0  0
  -28.9905  -18.2413   18.1904 C   0  0  0  0  0  0
  -29.0391  -19.4898   18.8279 C   0  0  0  0  0  0
  -29.3184  -17.0721   18.8949 C   0  0  0  0  0  0
  -29.4143  -19.5825   20.1798 C   0  0  0  0  0  0
  -29.7206  -17.1453   20.2508 C   0  0  0  0  0  0
  -28.9642  -23.7754   21.9968 C   0  0  0  0  0  0
  -28.7644  -23.7040   20.6685 C   0  0  0  0  0  0
  -29.3300  -22.5748   22.8675 C   0  0  0  0  0  0
  -28.9423  -22.2977   19.9685 C   0  0  0  0  0  0
  -28.9981  -21.1910   22.2350 C   0  0  0  0  0  0
  -29.5527  -21.0540   20.8055 C   0  0  1  0  0  0
  -28.2033  -24.9201   19.8125 C   0  0  0  0  0  0
  -29.7562  -18.4094   20.8637 N   0  0  0  0  0  0
  -29.8906  -15.8330   20.9117 N   0  0  0  0  0  0
  -29.1970  -15.8799   18.2620 F   0  0  0  0  0  0
  -31.4799  -12.5752   19.1738 H   0  0  0  0  0  0
  -30.3858  -11.4663   19.9457 H   0  0  0  0  0  0
  -29.7938  -11.7500   17.5195 H   0  0  0  0  0  0
  -29.6558  -13.4720   17.7288 H   0  0  0  0  0  0
  -27.8766  -11.3022   18.8861 H   0  0  0  0  0  0
  -27.3907  -12.5792   17.7989 H   0  0  0  0  0  0
  -27.6525  -14.2631   19.4994 H   0  0  0  0  0  0
  -28.7236  -12.1318   21.4113 H   0  0  0  0  0  0
  -28.4235  -13.8014   21.8264 H   0  0  0  0  0  0
  -25.2775   -9.5690   22.4755 H   0  0  0  0  0  0
  -24.0021   -7.4625   22.7428 H   0  0  0  0  0  0
  -21.0845   -8.8786   19.8957 H   0  0  0  0  0  0
  -22.3698  -10.9683   19.6166 H   0  0  0  0  0  0
  -21.2034   -7.6148   23.9713 H   0  0  0  0  0  0
  -21.1459   -6.0517   25.9064 H   0  0  0  0  0  0
  -22.0609   -2.7615   23.2828 H   0  0  0  0  0  0
  -22.4062  -11.9899   22.4818 H   0  0  0  0  0  0
  -21.1087  -13.1265   22.2573 H   0  0  0  0  0  0
  -24.6511  -15.8434   20.4929 H   0  0  0  0  0  0
  -26.2661  -15.6210   20.0479 H   0  0  0  0  0  0
  -26.7179  -32.5438   23.1089 H   0  0  0  0  0  0
  -25.0009  -33.9707   25.0397 H   0  0  0  0  0  0
  -22.7233  -31.3027   21.3969 H   0  0  0  0  0  0
  -23.3757  -35.9609   23.3301 H   0  0  0  0  0  0
  -24.3585  -36.8908   22.2058 H   0  0  0  0  0  0
  -23.7219  -37.6481   23.6662 H   0  0  0  0  0  0
  -26.1050  -31.5250   20.6060 H   0  0  0  0  0  0
  -26.8542  -30.8264   22.0083 H   0  0  0  0  0  0
  -28.0981  -28.8961   21.2614 H   0  0  0  0  0  0
  -25.9473  -25.9719   18.8964 H   0  0  0  0  0  0
  -23.9904  -27.3503   18.9411 H   0  0  0  0  0  0
  -23.7635  -30.5935   19.3995 H   0  0  0  0  0  0
  -22.7657  -29.2445   19.8563 H   0  0  0  0  0  0
  -25.1281  -36.1947   25.0830 H   0  0  0  0  0  0
  -20.9992  -28.3259   24.1389 H   0  0  0  0  0  0
  -20.5642  -26.2302   23.3616 H   0  0  0  0  0  0
  -21.6644  -26.7413   22.1228 H   0  0  0  0  0  0
  -19.6914  -25.6280   21.1249 H   0  0  0  0  0  0
  -19.6687  -27.3177   20.6722 H   0  0  0  0  0  0
  -17.4195  -26.6667   21.4023 H   0  0  0  0  0  0
  -18.0347  -26.0060   22.9027 H   0  0  0  0  0  0
  -19.7939  -30.7252   24.2301 H   0  0  0  0  0  0
  -17.5020  -31.6265   24.5143 H   0  0  0  0  0  0
  -15.5359  -30.2994   23.7614 H   0  0  0  0  0  0
  -15.8678  -28.0792   22.7102 H   0  0  0  0  0  0
  -24.5885  -30.7071   25.7752 H   0  0  0  0  0  0
  -24.8889  -32.2858   26.4886 H   0  0  0  0  0  0
  -25.8017  -30.8860   27.0209 H   0  0  0  0  0  0
  -26.2884  -29.6771   24.1185 H   0  0  0  0  0  0
  -27.4034  -29.7251   25.4658 H   0  0  0  0  0  0
  -27.8765  -30.4315   23.9386 H   0  0  0  0  0  0
  -27.2733  -33.3623   26.2034 H   0  0  0  0  0  0
  -28.3876  -32.6803   25.0273 H   0  0  0  0  0  0
  -28.0748  -31.8414   26.5383 H   0  0  0  0  0  0
  -28.2596  -38.0102   24.7523 H   0  0  0  0  0  0
  -28.1085  -36.2629   24.6268 H   0  0  0  0  0  0
  -27.2313  -37.1427   25.8873 H   0  0  0  0  0  0
  -20.9395  -29.8760   21.6863 H   0  0  0  0  0  0
  -26.0178  -38.2862   24.1409 H   0  0  0  0  0  0
  -28.6892  -18.1744   17.1559 H   0  0  0  0  0  0
  -28.8045  -20.3682   18.2468 H   0  0  0  0  0  0
  -28.8312  -24.7195   22.5081 H   0  0  0  0  0  0
  -28.8009  -22.6706   23.8172 H   0  0  0  0  0  0
  -30.3931  -22.6411   23.1021 H   0  0  0  0  0  0
  -29.5301  -22.4420   19.0625 H   0  0  0  0  0  0
  -27.9393  -22.0207   19.6427 H   0  0  0  0  0  0
  -27.9193  -21.0336   22.2185 H   0  0  0  0  0  0
  -29.4083  -20.4056   22.8700 H   0  0  0  0  0  0
  -30.6301  -21.2210   20.8714 H   0  0  0  0  0  0
  -27.1728  -24.6077   19.6808 H   0  0  0  0  0  0
  -28.6658  -24.8624   18.8278 H   0  0  0  0  0  0
  -29.0848  -15.5743   21.4583 H   0  0  0  0  0  0
  1 25  1  0  0  0
  1 30  2  0  0  0
  1 84  1  0  0  0
  2  3  1  0  0  0
  2 25  1  0  0  0
  2 86  1  0  0  0
  2 87  1  0  0  0
  3  4  1  0  0  0
  3 88  1  0  0  0
  3 89  1  0  0  0
  4  5  1  0  0  0
  4 90  1  0  0  0
  4 91  1  0  0  0
  5  6  1  0  0  0
  5 26  1  0  0  0
  5 92  1  0  0  0
  6 25  1  0  0  0
  6 93  1  0  0  0
  6 94  1  0  0  0
  7  8  2  0  0  0
  7 26  1  0  0  0
  7 29  1  0  0  0
  8  9  1  0  0  0
  8 22  1  0  0  0
  9 10  1  0  0  0
  9 27  2  0  0  0
 10 11  2  0  0  0
 10 15  1  0  0  0
 11 12  1  0  0  0
 11 95  1  0  0  0
 12 13  2  0  0  0
 12 96  1  0  0  0
 13 14  1  0  0  0
 13 31  1  0  0  0
 14 15  2  0  0  0
 14 97  1  0  0  0
 15 98  1  0  0  0
 16 17  2  0  0  0
 16 21  1  0  0  0
 16 31  1  0  0  0
 17 18  1  0  0  0
 17 99  1  0  0  0
 18 19  2  0  0  0
 18100  1  0  0  0
 19 20  1  0  0  0
 19 24  1  0  0  0
 20 21  2  0  0  0
 20101  1  0  0  0
 21 23  1  0  0  0
 22 28  1  0  0  0
 22 32  2  0  0  0
 26 27  1  0  0  0
 28102  1  0  0  0
 28103  1  0  0  0
 29104  1  0  0  0
 29105  1  0  0  0
 33 34  1  0  0  0
 33 66  1  0  0  0
 33 70  2  0  0  0
 34 36  1  0  0  0
 34 59  1  0  0  0
 34106  1  0  0  0
 35 44  2  0  0  0
 35 45  1  0  0  0
 35 68  1  0  0  0
 36 56  1  0  0  0
 36107  1  0  0  0
 37 39  1  0  0  0
 37 47  1  0  0  0
 37 66  1  0  0  0
 37108  1  0  0  0
 38 43  2  0  0  0
 38 46  1  0  0  0
 38 47  1  0  0  0
 39 64  1  0  0  0
 39 67  2  0  0  0
 40 52  1  0  0  0
 40 53  2  0  0  0
 40 58  1  0  0  0
 41109  1  0  0  0
 41110  1  0  0  0
 41111  1  0  0  0
 41 48  1  0  0  0
 42 43  1  0  0  0
 42 66  1  0  0  0
 42112  1  0  0  0
 42113  1  0  0  0
 43 44  1  0  0  0
 44114  1  0  0  0
 45 46  2  0  0  0
 45115  1  0  0  0
 46116  1  0  0  0
 47117  1  0  0  0
 47118  1  0  0  0
 48 56  1  0  0  0
 48 65  1  0  0  0
 48119  1  0  0  0
 49 50  1  0  0  0
 49 53  1  0  0  0
 49 64  1  0  0  0
 49120  1  0  0  0
 50 51  1  0  0  0
 50121  1  0  0  0
 50122  1  0  0  0
 51 52  1  0  0  0
 51123  1  0  0  0
 51124  1  0  0  0
 52125  1  0  0  0
 52126  1  0  0  0
 53 54  1  0  0  0
 54 55  2  0  0  0
 54127  1  0  0  0
 55 57  1  0  0  0
 55128  1  0  0  0
 56 69  2  0  0  0
 57 58  2  0  0  0
 57129  1  0  0  0
 58130  1  0  0  0
 59 60  1  0  0  0
 59 61  1  0  0  0
 59 62  1  0  0  0
 60131  1  0  0  0
 60132  1  0  0  0
 60133  1  0  0  0
 61134  1  0  0  0
 61135  1  0  0  0
 61136  1  0  0  0
 62137  1  0  0  0
 62138  1  0  0  0
 62139  1  0  0  0
 63 65  1  0  0  0
 63140  1  0  0  0
 63141  1  0  0  0
 63142  1  0  0  0
 64143  1  0  0  0
 65144  1  0  0  0
 68 82  1  0  0  0
 71 72  2  0  0  0
 71 73  1  0  0  0
 71145  1  0  0  0
 72 74  1  0  0  0
 72146  1  0  0  0
 73 75  2  0  0  0
 73 85  1  0  0  0
 74 83  2  0  0  0
 74 81  1  0  0  0
 75 83  1  0  0  0
 75 84  1  0  0  0
 76 77  2  0  0  0
 76 78  1  0  0  0
 76147  1  0  0  0
 77 79  1  0  0  0
 77 82  1  0  0  0
 78 80  1  0  0  0
 78148  1  0  0  0
 78149  1  0  0  0
 79 81  1  0  0  0
 79150  1  0  0  0
 79151  1  0  0  0
 80 81  1  0  0  0
 80152  1  0  0  0
 80153  1  0  0  0
 81154  1  0  0  0
 82155  1  0  0  0
 82156  1  0  0  0
 84157  1  0  0  0
M  ISO  4   1 100  68 101  82 101  84 100
M  END
> <chiral flag>
0

> <version>
0

> <s_m_source_file>
/data/baiqing/PycharmProjects/Reinvent-master-3.2/result/LINK_invent/BTK/process_docking_weight1_custom_product_contain_oxygen_bond_distance_aromatic_linkinvent_7_9_3/rearranged_h_0160.sdf

> <i_m_source_file_index>
5

> <r_mmod_Potential_Energy-OPLS-2005>
72.0972595214844

> <r_mmod_Stretch_Energy-OPLS-2005>
126.094909667969

> <r_mmod_Bend_Energy-OPLS-2005>
168.329147338867

> <r_mmod_Torsional_Energy-OPLS-2005>
247.004867553711

> <r_mmod_Improper_Torsional_Energy-OPLS-2005>
6.16108560562134

> <r_mmod_Van_der_Waal_Energy-OPLS-2005>
149.429061889648

> <r_mmod_Electrostatic_Energy-OPLS-2005>
-496.375701904297

> <r_mmod_Solvation_Energy-OPLS-2005>
-213.158050537109

> <b_mmod_Minimization_Converged-OPLS-2005>
0

> <r_mmod_RMS_Derivative-OPLS-2005>
2.53895497322083

$$$$
5
                    3D
 Structure written by MMmdl.
160169  0  0  1  0            999 V2000
  -30.6154  -14.6510   20.5025 C   0  0  0  0  0  0
  -30.4422  -12.4004   19.4540 C   0  0  0  0  0  0
  -29.5104  -12.5099   18.2259 C   0  0  0  0  0  0
  -28.0334  -12.3442   18.6375 C   0  0  0  0  0  0
  -27.6545  -13.2155   19.8644 C   0  0  2  0  0  0
  -28.6992  -13.0711   20.9944 C   0  0  0  0  0  0
  -25.2567  -13.8163   20.5681 C   0  0  0  0  0  0
  -24.1833  -13.0434   20.9192 C   0  0  0  0  0  0
  -24.6398  -11.6904   20.8740 C   0  0  0  0  0  0
  -23.9063  -10.4290   21.0405 C   0  0  0  0  0  0
  -24.3614   -9.4206   21.9184 C   0  0  0  0  0  0
  -23.6289   -8.2243   22.0756 C   0  0  0  0  0  0
  -22.4272   -8.0280   21.3545 C   0  0  0  0  0  0
  -21.9906   -9.0253   20.4648 C   0  0  0  0  0  0
  -22.7234  -10.2132   20.3056 C   0  0  0  0  0  0
  -21.6851   -6.0734   22.5277 C   0  0  0  0  0  0
  -21.4013   -6.5639   23.8211 C   0  0  0  0  0  0
  -21.3660   -5.6792   24.9173 C   0  0  0  0  0  0
  -21.6045   -4.3054   24.7224 C   0  0  0  0  0  0
  -21.8819   -3.8146   23.4345 C   0  0  0  0  0  0
  -21.9192   -4.6962   22.3401 C   0  0  0  0  0  0
  -22.7855  -13.5231   21.1851 C   0  0  0  0  0  0
  -22.1661   -4.2149   21.0978 F   0  0  0  0  0  0
  -21.5631   -3.4538   25.7736 F   0  0  0  0  0  0
  -30.0140  -13.4205   20.4326 N   0  0  0  0  0  0
  -26.2995  -12.9343   20.3318 N   0  0  0  0  0  0
  -25.9326  -11.6499   20.5756 N   0  0  0  0  0  0
  -22.0491  -12.8229   22.0406 N   0  0  0  0  0  0
  -25.4276  -15.1884   20.4076 N   0  0  0  0  0  0
  -31.7742  -14.8213   20.1138 O   0  0  0  0  0  0
  -21.6638   -6.8876   21.4239 O   0  0  0  0  0  0
  -22.3548  -14.5539   20.6697 O   0  0  0  0  0  0
  -24.6263  -31.8598   23.2029 C   0  0  0  0  0  0
  -25.9109  -32.4780   23.8357 C   0  0  1  0  0  0
  -27.2217  -27.3150   20.1230 C   0  0  0  0  0  0
  -25.5926  -33.8580   24.2287 N   0  0  0  0  0  0
  -23.4209  -30.4836   21.5454 C   0  0  2  0  0  0
  -24.8690  -28.9402   20.1109 C   0  0  0  0  0  0
  -22.7480  -29.4621   22.4933 C   0  0  0  0  0  0
  -18.0288  -28.1382   22.8488 C   0  0  0  0  0  0
  -24.1490  -36.7294   23.2638 C   0  0  0  0  0  0
  -25.9626  -30.7893   21.3757 C   0  0  0  0  0  0
  -26.0380  -29.4160   20.7195 C   0  0  0  0  0  0
  -27.2198  -28.6148   20.7172 C   0  0  0  0  0  0
  -26.0377  -26.9037   19.4716 C   0  0  0  0  0  0
  -24.8710  -27.6893   19.4765 C   0  0  0  0  0  0
  -23.6368  -29.8198   20.1604 C   0  0  0  0  0  0
  -25.4113  -36.3085   24.0331 C   0  0  1  0  0  0
  -20.5888  -28.3685   23.1282 C   0  0  2  0  0  0
  -20.6777  -26.9409   22.5407 C   0  0  0  0  0  0
  -19.5754  -26.6383   21.5209 C   0  0  0  0  0  0
  -18.1933  -26.7926   22.1622 C   0  0  0  0  0  0
  -19.1540  -28.8851   23.2881 C   0  0  0  0  0  0
  -18.9463  -30.1453   23.8895 C   0  0  0  0  0  0
  -17.6463  -30.6584   24.0564 C   0  0  0  0  0  0
  -25.9049  -34.9452   23.5108 C   0  0  0  0  0  0
  -16.5354  -29.9084   23.6329 C   0  0  0  0  0  0
  -16.7274  -28.6501   23.0351 C   0  0  0  0  0  0
  -26.4494  -31.6585   25.0723 C   0  0  0  0  0  0
  -25.3729  -31.3719   26.1449 C   0  0  0  0  0  0
  -27.0335  -30.3011   24.6167 C   0  0  0  0  0  0
  -27.6056  -32.4315   25.7494 C   0  0  0  0  0  0
  -27.5580  -37.1804   24.8467 C   0  0  0  0  0  0
  -21.4192  -29.3043   22.3678 N   0  0  0  0  0  0
  -26.4293  -37.3778   23.9409 N   0  0  0  0  0  0
  -24.6888  -31.0607   22.0984 N   0  0  0  0  0  0
  -23.4205  -28.8157   23.3008 O   0  0  0  0  0  0
  -28.3161  -26.4368   20.1615 O   0  0  0  0  0  0
  -26.5614  -34.8919   22.4672 O   0  0  0  0  0  0
  -23.5424  -32.1394   23.7353 O   0  0  0  0  0  0
  -30.9971  -17.8595   20.1705 C   0  0  0  0  0  0
  -30.9801  -19.2839   20.1347 C   0  0  0  0  0  0
  -28.8582  -17.9820   21.2138 C   0  0  0  0  0  0
  -29.9124  -17.1520   20.7448 C   0  0  0  0  0  0
  -29.8955  -20.0362   20.6609 C   0  0  0  0  0  0
  -29.0456  -23.9005   20.2931 C   0  0  0  0  0  0
  -29.8638  -21.7047   23.4240 C   0  0  0  0  0  0
  -28.5844  -22.5523   23.2781 C   0  0  0  0  0  0
  -30.8035  -21.8497   22.2060 C   0  0  0  0  0  0
  -27.9290  -22.3602   21.8949 C   0  0  0  0  0  0
  -30.0616  -21.6067   20.8683 C   0  0  2  0  0  0
  -28.0202  -25.0608   20.6503 C   0  0  0  0  0  0
  -28.8466  -19.3501   21.1856 N   0  0  0  0  0  0
  -28.9319  -22.6295   20.8516 N   0  0  0  0  0  0
  -29.8027  -15.6919   20.8721 N   0  0  0  0  0  0
  -29.9654  -24.1756   19.5154 O   0  0  0  0  0  0
  -31.4826  -12.5316   19.1512 H   0  0  0  0  0  0
  -30.3836  -11.4043   19.8954 H   0  0  0  0  0  0
  -29.7772  -11.7581   17.4819 H   0  0  0  0  0  0
  -29.6497  -13.4790   17.7440 H   0  0  0  0  0  0
  -27.8733  -11.2909   18.8706 H   0  0  0  0  0  0
  -27.3783  -12.5712   17.7957 H   0  0  0  0  0  0
  -27.6722  -14.2506   19.5227 H   0  0  0  0  0  0
  -28.7142  -12.0483   21.3739 H   0  0  0  0  0  0
  -28.4417  -13.6990   21.8487 H   0  0  0  0  0  0
  -25.2759   -9.5683   22.4758 H   0  0  0  0  0  0
  -23.9997   -7.4635   22.7477 H   0  0  0  0  0  0
  -21.0837   -8.8769   19.8955 H   0  0  0  0  0  0
  -22.3689  -10.9671   19.6166 H   0  0  0  0  0  0
  -21.2003   -7.6147   23.9713 H   0  0  0  0  0  0
  -21.1484   -6.0523   25.9077 H   0  0  0  0  0  0
  -22.0598   -2.7608   23.2843 H   0  0  0  0  0  0
  -22.4098  -11.9888   22.4797 H   0  0  0  0  0  0
  -21.1111  -13.1265   22.2606 H   0  0  0  0  0  0
  -24.6528  -15.8366   20.4995 H   0  0  0  0  0  0
  -26.2616  -15.6211   20.0324 H   0  0  0  0  0  0
  -26.7178  -32.5452   23.1108 H   0  0  0  0  0  0
  -25.0083  -33.9727   25.0439 H   0  0  0  0  0  0
  -22.7149  -31.3042   21.4023 H   0  0  0  0  0  0
  -23.3750  -35.9627   23.3302 H   0  0  0  0  0  0
  -24.3584  -36.8907   22.2053 H   0  0  0  0  0  0
  -23.7245  -37.6498   23.6655 H   0  0  0  0  0  0
  -26.0926  -31.5517   20.6065 H   0  0  0  0  0  0
  -26.8438  -30.8402   22.0035 H   0  0  0  0  0  0
  -28.1147  -28.9726   21.2068 H   0  0  0  0  0  0
  -25.9975  -25.9572   18.9530 H   0  0  0  0  0  0
  -23.9799  -27.3245   18.9845 H   0  0  0  0  0  0
  -23.7566  -30.5971   19.4048 H   0  0  0  0  0  0
  -22.7572  -29.2492   19.8569 H   0  0  0  0  0  0
  -25.1293  -36.1937   25.0824 H   0  0  0  0  0  0
  -20.9980  -28.3256   24.1403 H   0  0  0  0  0  0
  -20.5676  -26.2295   23.3605 H   0  0  0  0  0  0
  -21.6646  -26.7439   22.1200 H   0  0  0  0  0  0
  -19.6918  -25.6295   21.1236 H   0  0  0  0  0  0
  -19.6690  -27.3195   20.6740 H   0  0  0  0  0  0
  -17.4203  -26.6671   21.4026 H   0  0  0  0  0  0
  -18.0337  -26.0067   22.9017 H   0  0  0  0  0  0
  -19.7940  -30.7272   24.2260 H   0  0  0  0  0  0
  -17.5019  -31.6263   24.5167 H   0  0  0  0  0  0
  -15.5355  -30.2988   23.7652 H   0  0  0  0  0  0
  -15.8674  -28.0821   22.7064 H   0  0  0  0  0  0
  -24.5916  -30.7052   25.7784 H   0  0  0  0  0  0
  -24.8903  -32.2880   26.4862 H   0  0  0  0  0  0
  -25.8056  -30.8915   27.0233 H   0  0  0  0  0  0
  -26.2906  -29.6764   24.1192 H   0  0  0  0  0  0
  -27.4044  -29.7259   25.4661 H   0  0  0  0  0  0
  -27.8772  -30.4303   23.9383 H   0  0  0  0  0  0
  -27.2673  -33.3620   26.2063 H   0  0  0  0  0  0
  -28.3872  -32.6861   25.0324 H   0  0  0  0  0  0
  -28.0716  -31.8440   26.5415 H   0  0  0  0  0  0
  -28.2599  -38.0100   24.7507 H   0  0  0  0  0  0
  -28.1072  -36.2629   24.6297 H   0  0  0  0  0  0
  -27.2297  -37.1459   25.8871 H   0  0  0  0  0  0
  -20.9365  -29.8775   21.6900 H   0  0  0  0  0  0
  -26.0173  -38.2853   24.1404 H   0  0  0  0  0  0
  -31.8555  -17.3362   19.7771 H   0  0  0  0  0  0
  -31.8462  -19.8013   19.7452 H   0  0  0  0  0  0
  -27.9828  -17.5290   21.6560 H   0  0  0  0  0  0
  -29.5852  -20.6568   23.5409 H   0  0  0  0  0  0
  -30.3903  -21.9778   24.3393 H   0  0  0  0  0  0
  -28.8311  -23.6045   23.4259 H   0  0  0  0  0  0
  -27.8758  -22.2947   24.0666 H   0  0  0  0  0  0
  -31.6557  -21.1751   22.2996 H   0  0  0  0  0  0
  -31.2219  -22.8569   22.2066 H   0  0  0  0  0  0
  -27.0418  -22.9862   21.8092 H   0  0  0  0  0  0
  -27.5347  -21.3525   21.7998 H   0  0  0  0  0  0
  -30.7509  -21.8899   20.0719 H   0  0  0  0  0  0
  -27.9562  -25.1338   21.7359 H   0  0  0  0  0  0
  -27.0475  -24.7077   20.3156 H   0  0  0  0  0  0
  -28.9107  -15.3714   21.2192 H   0  0  0  0  0  0
  1 25  1  0  0  0
  1 30  2  0  0  0
  1 85  1  0  0  0
  2  3  1  0  0  0
  2 25  1  0  0  0
  2 87  1  0  0  0
  2 88  1  0  0  0
  3  4  1  0  0  0
  3 89  1  0  0  0
  3 90  1  0  0  0
  4  5  1  0  0  0
  4 91  1  0  0  0
  4 92  1  0  0  0
  5  6  1  0  0  0
  5 26  1  0  0  0
  5 93  1  0  0  0
  6 25  1  0  0  0
  6 94  1  0  0  0
  6 95  1  0  0  0
  7  8  2  0  0  0
  7 26  1  0  0  0
  7 29  1  0  0  0
  8  9  1  0  0  0
  8 22  1  0  0  0
  9 10  1  0  0  0
  9 27  2  0  0  0
 10 11  2  0  0  0
 10 15  1  0  0  0
 11 12  1  0  0  0
 11 96  1  0  0  0
 12 13  2  0  0  0
 12 97  1  0  0  0
 13 14  1  0  0  0
 13 31  1  0  0  0
 14 15  2  0  0  0
 14 98  1  0  0  0
 15 99  1  0  0  0
 16 17  2  0  0  0
 16 21  1  0  0  0
 16 31  1  0  0  0
 17 18  1  0  0  0
 17100  1  0  0  0
 18 19  2  0  0  0
 18101  1  0  0  0
 19 20  1  0  0  0
 19 24  1  0  0  0
 20 21  2  0  0  0
 20102  1  0  0  0
 21 23  1  0  0  0
 22 28  1  0  0  0
 22 32  2  0  0  0
 26 27  1  0  0  0
 28103  1  0  0  0
 28104  1  0  0  0
 29105  1  0  0  0
 29106  1  0  0  0
 33 34  1  0  0  0
 33 66  1  0  0  0
 33 70  2  0  0  0
 34 36  1  0  0  0
 34 59  1  0  0  0
 34107  1  0  0  0
 35 44  2  0  0  0
 35 45  1  0  0  0
 35 68  1  0  0  0
 36 56  1  0  0  0
 36108  1  0  0  0
 37 39  1  0  0  0
 37 47  1  0  0  0
 37 66  1  0  0  0
 37109  1  0  0  0
 38 43  2  0  0  0
 38 46  1  0  0  0
 38 47  1  0  0  0
 39 64  1  0  0  0
 39 67  2  0  0  0
 40 52  1  0  0  0
 40 53  2  0  0  0
 40 58  1  0  0  0
 41110  1  0  0  0
 41111  1  0  0  0
 41112  1  0  0  0
 41 48  1  0  0  0
 42 43  1  0  0  0
 42 66  1  0  0  0
 42113  1  0  0  0
 42114  1  0  0  0
 43 44  1  0  0  0
 44115  1  0  0  0
 45 46  2  0  0  0
 45116  1  0  0  0
 46117  1  0  0  0
 47118  1  0  0  0
 47119  1  0  0  0
 48 56  1  0  0  0
 48 65  1  0  0  0
 48120  1  0  0  0
 49 50  1  0  0  0
 49 53  1  0  0  0
 49 64  1  0  0  0
 49121  1  0  0  0
 50 51  1  0  0  0
 50122  1  0  0  0
 50123  1  0  0  0
 51 52  1  0  0  0
 51124  1  0  0  0
 51125  1  0  0  0
 52126  1  0  0  0
 52127  1  0  0  0
 53 54  1  0  0  0
 54 55  2  0  0  0
 54128  1  0  0  0
 55 57  1  0  0  0
 55129  1  0  0  0
 56 69  2  0  0  0
 57 58  2  0  0  0
 57130  1  0  0  0
 58131  1  0  0  0
 59 60  1  0  0  0
 59 61  1  0  0  0
 59 62  1  0  0  0
 60132  1  0  0  0
 60133  1  0  0  0
 60134  1  0  0  0
 61135  1  0  0  0
 61136  1  0  0  0
 61137  1  0  0  0
 62138  1  0  0  0
 62139  1  0  0  0
 62140  1  0  0  0
 63 65  1  0  0  0
 63141  1  0  0  0
 63142  1  0  0  0
 63143  1  0  0  0
 64144  1  0  0  0
 65145  1  0  0  0
 68 82  1  0  0  0
 71 72  2  0  0  0
 71 74  1  0  0  0
 71146  1  0  0  0
 72 75  1  0  0  0
 72147  1  0  0  0
 73 74  2  0  0  0
 73 83  1  0  0  0
 73148  1  0  0  0
 74 85  1  0  0  0
 75 83  2  0  0  0
 75 81  1  0  0  0
 76 82  1  0  0  0
 76 84  1  0  0  0
 76 86  2  0  0  0
 77 78  1  0  0  0
 77 79  1  0  0  0
 77149  1  0  0  0
 77150  1  0  0  0
 78 80  1  0  0  0
 78151  1  0  0  0
 78152  1  0  0  0
 79 81  1  0  0  0
 79153  1  0  0  0
 79154  1  0  0  0
 80 84  1  0  0  0
 80155  1  0  0  0
 80156  1  0  0  0
 81 84  1  0  0  0
 81157  1  0  0  0
 82158  1  0  0  0
 82159  1  0  0  0
 85160  1  0  0  0
M  ISO  4   1 100  68 101  82 101  85 100
M  END
> <chiral flag>
0

> <version>
0

> <s_m_source_file>
/data/baiqing/PycharmProjects/Reinvent-master-3.2/result/LINK_invent/BTK/process_docking_weight1_custom_product_contain_oxygen_bond_distance_aromatic_linkinvent_7_9_3/rearranged_h_0160.sdf

> <i_m_source_file_index>
6

> <r_mmod_Potential_Energy-OPLS-2005>
-6.00907135009766

> <r_mmod_Stretch_Energy-OPLS-2005>
93.2098770141602

> <r_mmod_Bend_Energy-OPLS-2005>
158.6650390625

> <r_mmod_Torsional_Energy-OPLS-2005>
283.508605957031

> <r_mmod_Improper_Torsional_Energy-OPLS-2005>
6.80097103118896

> <r_mmod_Van_der_Waal_Energy-OPLS-2005>
161.044860839844

> <r_mmod_Electrostatic_Energy-OPLS-2005>
-522.982177734375

> <r_mmod_Solvation_Energy-OPLS-2005>
-239.189163208008

> <b_mmod_Minimization_Converged-OPLS-2005>
0

> <r_mmod_RMS_Derivative-OPLS-2005>
0.356837093830109

$$$$
6
                    3D
 Structure written by MMmdl.
169178  0  0  1  0            999 V2000
  -30.7120  -14.4657   20.5857 C   0  0  0  0  0  0
  -30.4129  -12.2994   19.4373 C   0  0  0  0  0  0
  -29.4903  -12.4838   18.2152 C   0  0  0  0  0  0
  -28.0120  -12.3538   18.6236 C   0  0  0  0  0  0
  -27.6554  -13.2065   19.8701 C   0  0  2  0  0  0
  -28.6919  -13.0080   20.9984 C   0  0  0  0  0  0
  -25.2552  -13.8178   20.5640 C   0  0  0  0  0  0
  -24.1820  -13.0453   20.9177 C   0  0  0  0  0  0
  -24.6383  -11.6920   20.8762 C   0  0  0  0  0  0
  -23.9067  -10.4302   21.0432 C   0  0  0  0  0  0
  -24.3620   -9.4215   21.9203 C   0  0  0  0  0  0
  -23.6299   -8.2248   22.0766 C   0  0  0  0  0  0
  -22.4284   -8.0290   21.3547 C   0  0  0  0  0  0
  -21.9924   -9.0263   20.4643 C   0  0  0  0  0  0
  -22.7249  -10.2146   20.3063 C   0  0  0  0  0  0
  -21.6846   -6.0744   22.5281 C   0  0  0  0  0  0
  -21.4001   -6.5639   23.8216 C   0  0  0  0  0  0
  -21.3654   -5.6793   24.9181 C   0  0  0  0  0  0
  -21.6044   -4.3059   24.7225 C   0  0  0  0  0  0
  -21.8821   -3.8156   23.4346 C   0  0  0  0  0  0
  -21.9185   -4.6973   22.3403 C   0  0  0  0  0  0
  -22.7842  -13.5238   21.1855 C   0  0  0  0  0  0
  -22.1660   -4.2167   21.0977 F   0  0  0  0  0  0
  -21.5633   -3.4537   25.7741 F   0  0  0  0  0  0
  -30.0248  -13.3001   20.4450 N   0  0  0  0  0  0
  -26.2977  -12.9335   20.3324 N   0  0  0  0  0  0
  -25.9301  -11.6501   20.5774 N   0  0  0  0  0  0
  -22.0504  -12.8225   22.0410 N   0  0  0  0  0  0
  -25.4292  -15.1895   20.4014 N   0  0  0  0  0  0
  -31.8323  -14.6275   20.0926 O   0  0  0  0  0  0
  -21.6630   -6.8895   21.4250 O   0  0  0  0  0  0
  -22.3535  -14.5559   20.6720 O   0  0  0  0  0  0
  -24.6127  -31.8663   23.2074 C   0  0  0  0  0  0
  -25.9026  -32.4813   23.8370 C   0  0  1  0  0  0
  -27.2332  -27.4354   20.0775 C   0  0  0  0  0  0
  -25.5879  -33.8600   24.2301 N   0  0  0  0  0  0
  -23.3976  -30.4880   21.5520 C   0  0  2  0  0  0
  -24.8419  -28.9488   20.1197 C   0  0  0  0  0  0
  -22.7367  -29.4636   22.5029 C   0  0  0  0  0  0
  -18.0252  -28.1341   22.8512 C   0  0  0  0  0  0
  -24.1463  -36.7289   23.2658 C   0  0  0  0  0  0
  -25.9256  -30.8324   21.3580 C   0  0  0  0  0  0
  -26.0019  -29.4640   20.7087 C   0  0  0  0  0  0
  -27.1957  -28.7112   20.6876 C   0  0  0  0  0  0
  -26.0467  -26.9206   19.5072 C   0  0  0  0  0  0
  -24.8574  -27.6753   19.5234 C   0  0  0  0  0  0
  -23.6013  -29.8118   20.1697 C   0  0  0  0  0  0
  -25.4099  -36.3099   24.0347 C   0  0  1  0  0  0
  -20.5844  -28.3615   23.1341 C   0  0  2  0  0  0
  -20.6732  -26.9358   22.5423 C   0  0  0  0  0  0
  -19.5718  -26.6344   21.5214 C   0  0  0  0  0  0
  -18.1897  -26.7894   22.1628 C   0  0  0  0  0  0
  -19.1510  -28.8793   23.2912 C   0  0  0  0  0  0
  -18.9465  -30.1411   23.8910 C   0  0  0  0  0  0
  -17.6480  -30.6569   24.0546 C   0  0  0  0  0  0
  -25.9028  -34.9465   23.5123 C   0  0  0  0  0  0
  -16.5357  -29.9085   23.6330 C   0  0  0  0  0  0
  -16.7256  -28.6476   23.0383 C   0  0  0  0  0  0
  -26.4446  -31.6616   25.0712 C   0  0  0  0  0  0
  -25.3699  -31.3743   26.1452 C   0  0  0  0  0  0
  -27.0312  -30.3072   24.6085 C   0  0  0  0  0  0
  -27.5988  -32.4353   25.7502 C   0  0  0  0  0  0
  -27.5568  -37.1794   24.8489 C   0  0  0  0  0  0
  -21.4104  -29.2991   22.3754 N   0  0  0  0  0  0
  -26.4283  -37.3786   23.9430 N   0  0  0  0  0  0
  -24.6638  -31.0760   22.0978 N   0  0  0  0  0  0
  -23.4147  -28.8184   23.3061 O   0  0  0  0  0  0
  -28.4436  -26.7735   20.0724 O   0  0  0  0  0  0
  -26.5607  -34.8931   22.4690 O   0  0  0  0  0  0
  -23.5328  -32.1428   23.7474 O   0  0  0  0  0  0
  -31.3036  -19.4346   22.1726 C   0  0  0  0  0  0
  -29.5394  -17.8666   21.5506 C   0  0  0  0  0  0
  -31.8506  -17.1099   21.6983 C   0  0  0  0  0  0
  -29.9412  -19.1822   21.9042 C   0  0  0  0  0  0
  -32.2593  -18.4108   22.0510 C   0  0  0  0  0  0
  -30.4868  -16.8138   21.4502 C   0  0  0  0  0  0
  -29.8895  -23.3169   19.8712 C   0  0  0  0  0  0
  -27.5092  -23.4879   20.4553 C   0  0  0  0  0  0
  -30.0512  -22.0909   20.8029 C   0  0  0  0  0  0
  -27.6467  -22.2579   21.3837 C   0  0  0  0  0  0
  -28.8099  -24.3097   20.3626 C   0  0  2  0  0  0
  -30.3425  -25.4269   21.9282 C   0  0  0  0  0  0
  -28.9101  -20.2989   22.1189 C   0  0  0  0  0  0
  -28.6487  -25.5263   19.3922 C   0  0  0  0  0  0
  -33.6045  -18.6815   22.2956 N   0  0  0  0  0  0
  -30.0326  -15.4816   21.1621 N   0  0  0  0  0  0
  -28.7840  -21.3444   21.0544 N   0  3  2  0  0  0
  -29.0944  -24.7681   21.6931 O   0  0  0  0  0  0
  -31.4600  -12.3841   19.1388 H   0  0  0  0  0  0
  -30.3054  -11.2961   19.8536 H   0  0  0  0  0  0
  -29.7290  -11.7404   17.4530 H   0  0  0  0  0  0
  -29.6644  -13.4596   17.7603 H   0  0  0  0  0  0
  -27.8195  -11.3002   18.8286 H   0  0  0  0  0  0
  -27.3675  -12.6218   17.7862 H   0  0  0  0  0  0
  -27.6966  -14.2496   19.5574 H   0  0  0  0  0  0
  -28.6644  -11.9804   21.3642 H   0  0  0  0  0  0
  -28.4471  -13.6306   21.8609 H   0  0  0  0  0  0
  -25.2766   -9.5679   22.4772 H   0  0  0  0  0  0
  -24.0000   -7.4634   22.7482 H   0  0  0  0  0  0
  -21.0861   -8.8790   19.8932 H   0  0  0  0  0  0
  -22.3729  -10.9695   19.6163 H   0  0  0  0  0  0
  -21.1987   -7.6142   23.9731 H   0  0  0  0  0  0
  -21.1467   -6.0519   25.9088 H   0  0  0  0  0  0
  -22.0601   -2.7616   23.2843 H   0  0  0  0  0  0
  -22.4133  -11.9874   22.4767 H   0  0  0  0  0  0
  -21.1133  -13.1242   22.2661 H   0  0  0  0  0  0
  -24.6606  -15.8457   20.4905 H   0  0  0  0  0  0
  -26.2736  -15.6184   20.0454 H   0  0  0  0  0  0
  -26.7109  -32.5534   23.1149 H   0  0  0  0  0  0
  -25.0030  -33.9737   25.0452 H   0  0  0  0  0  0
  -22.6859  -31.3042   21.4079 H   0  0  0  0  0  0
  -23.3727  -35.9613   23.3337 H   0  0  0  0  0  0
  -24.3544  -36.8885   22.2066 H   0  0  0  0  0  0
  -23.7191  -37.6491   23.6654 H   0  0  0  0  0  0
  -26.0308  -31.5958   20.5859 H   0  0  0  0  0  0
  -26.8156  -30.8916   21.9732 H   0  0  0  0  0  0
  -28.0979  -29.1071   21.1327 H   0  0  0  0  0  0
  -26.0056  -25.9435   19.0508 H   0  0  0  0  0  0
  -23.9597  -27.2653   19.0823 H   0  0  0  0  0  0
  -23.6953  -30.5796   19.4010 H   0  0  0  0  0  0
  -22.7285  -29.2221   19.8864 H   0  0  0  0  0  0
  -25.1262  -36.1974   25.0837 H   0  0  0  0  0  0
  -20.9933  -28.3202   24.1467 H   0  0  0  0  0  0
  -20.5637  -26.2232   23.3614 H   0  0  0  0  0  0
  -21.6606  -26.7383   22.1235 H   0  0  0  0  0  0
  -19.6878  -25.6253   21.1261 H   0  0  0  0  0  0
  -19.6673  -27.3135   20.6726 H   0  0  0  0  0  0
  -17.4157  -26.6650   21.4031 H   0  0  0  0  0  0
  -18.0275  -26.0009   22.8995 H   0  0  0  0  0  0
  -19.7953  -30.7185   24.2310 H   0  0  0  0  0  0
  -17.5050  -31.6271   24.5114 H   0  0  0  0  0  0
  -15.5370  -30.3000   23.7634 H   0  0  0  0  0  0
  -15.8642  -28.0786   22.7153 H   0  0  0  0  0  0
  -24.5903  -30.7037   25.7825 H   0  0  0  0  0  0
  -24.8841  -32.2910   26.4808 H   0  0  0  0  0  0
  -25.8033  -30.9022   27.0275 H   0  0  0  0  0  0
  -26.2888  -29.6835   24.1084 H   0  0  0  0  0  0
  -27.4079  -29.7283   25.4532 H   0  0  0  0  0  0
  -27.8699  -30.4426   23.9239 H   0  0  0  0  0  0
  -27.2566  -33.3649   26.2046 H   0  0  0  0  0  0
  -28.3819  -32.6917   25.0362 H   0  0  0  0  0  0
  -28.0609  -31.8507   26.5463 H   0  0  0  0  0  0
  -28.2608  -38.0071   24.7528 H   0  0  0  0  0  0
  -28.1031  -36.2600   24.6323 H   0  0  0  0  0  0
  -27.2265  -37.1472   25.8887 H   0  0  0  0  0  0
  -20.9260  -29.8762   21.7033 H   0  0  0  0  0  0
  -26.0183  -38.2862   24.1439 H   0  0  0  0  0  0
  -31.6171  -20.4184   22.4932 H   0  0  0  0  0  0
  -28.4904  -17.6619   21.3826 H   0  0  0  0  0  0
  -32.6003  -16.3356   21.6424 H   0  0  0  0  0  0
  -29.6417  -22.9794   18.8647 H   0  0  0  0  0  0
  -30.8510  -23.8201   19.7718 H   0  0  0  0  0  0
  -26.6992  -24.1209   20.8193 H   0  0  0  0  0  0
  -27.2060  -23.1574   19.4600 H   0  0  0  0  0  0
  -30.4596  -22.4223   21.7580 H   0  0  0  0  0  0
  -30.7899  -21.4198   20.3660 H   0  0  0  0  0  0
  -26.7177  -21.6875   21.3643 H   0  0  0  0  0  0
  -27.7669  -22.6153   22.4074 H   0  0  0  0  0  0
  -30.3588  -25.7948   22.9537 H   0  0  0  0  0  0
  -30.5072  -26.2844   21.2757 H   0  0  0  0  0  0
  -31.1919  -24.7544   21.8186 H   0  0  0  0  0  0
  -29.1472  -20.7927   23.0629 H   0  0  0  0  0  0
  -27.9331  -19.8372   22.2769 H   0  0  0  0  0  0
  -27.9422  -25.3209   18.5892 H   0  0  0  0  0  0
  -29.5933  -25.6656   18.8667 H   0  0  0  0  0  0
  -33.9460  -19.6379   22.3425 H   0  0  0  0  0  0
  -34.3194  -17.9978   22.0605 H   0  0  0  0  0  0
  -29.0689  -15.2761   21.3775 H   0  0  0  0  0  0
  -28.5453  -20.8586   20.2011 H   0  0  0  0  0  0
  1 25  1  0  0  0
  1 30  2  0  0  0
  1 86  1  0  0  0
  2  3  1  0  0  0
  2 25  1  0  0  0
  2 89  1  0  0  0
  2 90  1  0  0  0
  3  4  1  0  0  0
  3 91  1  0  0  0
  3 92  1  0  0  0
  4  5  1  0  0  0
  4 93  1  0  0  0
  4 94  1  0  0  0
  5  6  1  0  0  0
  5 26  1  0  0  0
  5 95  1  0  0  0
  6 25  1  0  0  0
  6 96  1  0  0  0
  6 97  1  0  0  0
  7  8  2  0  0  0
  7 26  1  0  0  0
  7 29  1  0  0  0
  8  9  1  0  0  0
  8 22  1  0  0  0
  9 10  1  0  0  0
  9 27  2  0  0  0
 10 11  2  0  0  0
 10 15  1  0  0  0
 11 12  1  0  0  0
 11 98  1  0  0  0
 12 13  2  0  0  0
 12 99  1  0  0  0
 13 14  1  0  0  0
 13 31  1  0  0  0
 14 15  2  0  0  0
 14100  1  0  0  0
 15101  1  0  0  0
 16 17  2  0  0  0
 16 21  1  0  0  0
 16 31  1  0  0  0
 17 18  1  0  0  0
 17102  1  0  0  0
 18 19  2  0  0  0
 18103  1  0  0  0
 19 20  1  0  0  0
 19 24  1  0  0  0
 20 21  2  0  0  0
 20104  1  0  0  0
 21 23  1  0  0  0
 22 28  1  0  0  0
 22 32  2  0  0  0
 26 27  1  0  0  0
 28105  1  0  0  0
 28106  1  0  0  0
 29107  1  0  0  0
 29108  1  0  0  0
 33 34  1  0  0  0
 33 66  1  0  0  0
 33 70  2  0  0  0
 34 36  1  0  0  0
 34 59  1  0  0  0
 34109  1  0  0  0
 35 44  2  0  0  0
 35 45  1  0  0  0
 35 68  1  0  0  0
 36 56  1  0  0  0
 36110  1  0  0  0
 37 39  1  0  0  0
 37 47  1  0  0  0
 37 66  1  0  0  0
 37111  1  0  0  0
 38 43  2  0  0  0
 38 46  1  0  0  0
 38 47  1  0  0  0
 39 64  1  0  0  0
 39 67  2  0  0  0
 40 52  1  0  0  0
 40 53  2  0  0  0
 40 58  1  0  0  0
 41112  1  0  0  0
 41113  1  0  0  0
 41114  1  0  0  0
 41 48  1  0  0  0
 42 43  1  0  0  0
 42 66  1  0  0  0
 42115  1  0  0  0
 42116  1  0  0  0
 43 44  1  0  0  0
 44117  1  0  0  0
 45 46  2  0  0  0
 45118  1  0  0  0
 46119  1  0  0  0
 47120  1  0  0  0
 47121  1  0  0  0
 48 56  1  0  0  0
 48 65  1  0  0  0
 48122  1  0  0  0
 49 50  1  0  0  0
 49 53  1  0  0  0
 49 64  1  0  0  0
 49123  1  0  0  0
 50 51  1  0  0  0
 50124  1  0  0  0
 50125  1  0  0  0
 51 52  1  0  0  0
 51126  1  0  0  0
 51127  1  0  0  0
 52128  1  0  0  0
 52129  1  0  0  0
 53 54  1  0  0  0
 54 55  2  0  0  0
 54130  1  0  0  0
 55 57  1  0  0  0
 55131  1  0  0  0
 56 69  2  0  0  0
 57 58  2  0  0  0
 57132  1  0  0  0
 58133  1  0  0  0
 59 60  1  0  0  0
 59 61  1  0  0  0
 59 62  1  0  0  0
 60134  1  0  0  0
 60135  1  0  0  0
 60136  1  0  0  0
 61137  1  0  0  0
 61138  1  0  0  0
 61139  1  0  0  0
 62140  1  0  0  0
 62141  1  0  0  0
 62142  1  0  0  0
 63 65  1  0  0  0
 63143  1  0  0  0
 63144  1  0  0  0
 63145  1  0  0  0
 64146  1  0  0  0
 65147  1  0  0  0
 68 84  1  0  0  0
 71 74  2  0  0  0
 71 75  1  0  0  0
 71148  1  0  0  0
 72 74  1  0  0  0
 72 76  2  0  0  0
 72149  1  0  0  0
 73 75  2  0  0  0
 73 76  1  0  0  0
 73150  1  0  0  0
 74 83  1  0  0  0
 75 85  1  0  0  0
 76 86  1  0  0  0
 77 79  1  0  0  0
 77 81  1  0  0  0
 77151  1  0  0  0
 77152  1  0  0  0
 78 80  1  0  0  0
 78 81  1  0  0  0
 78153  1  0  0  0
 78154  1  0  0  0
 79 87  1  0  0  0
 79155  1  0  0  0
 79156  1  0  0  0
 80 87  1  0  0  0
 80157  1  0  0  0
 80158  1  0  0  0
 81 84  1  0  0  0
 81 88  1  0  0  0
 82 88  1  0  0  0
 82159  1  0  0  0
 82160  1  0  0  0
 82161  1  0  0  0
 83162  1  0  0  0
 83163  1  0  0  0
 83 87  1  0  0  0
 84164  1  0  0  0
 84165  1  0  0  0
 85166  1  0  0  0
 85167  1  0  0  0
 86168  1  0  0  0
 87169  1  0  0  0
M  CHG  1  87   1
M  ISO  4   1 100  68 101  84 101  86 100
M  END
> <chiral flag>
0

> <version>
0

> <s_m_source_file>
/data/baiqing/PycharmProjects/Reinvent-master-3.2/result/LINK_invent/BTK/process_docking_weight1_custom_product_contain_oxygen_bond_distance_aromatic_linkinvent_7_9_3/rearranged_h_0160.sdf

> <i_m_source_file_index>
7

> <r_mmod_Potential_Energy-OPLS-2005>
-149.445388793945

> <r_mmod_Stretch_Energy-OPLS-2005>
42.8711013793945

> <r_mmod_Bend_Energy-OPLS-2005>
133.0078125

> <r_mmod_Torsional_Energy-OPLS-2005>
246.209259033203

> <r_mmod_Improper_Torsional_Energy-OPLS-2005>
5.31880044937134

> <r_mmod_Van_der_Waal_Energy-OPLS-2005>
166.004013061523

> <r_mmod_Electrostatic_Energy-OPLS-2005>
-294.540191650391

> <r_mmod_Solvation_Energy-OPLS-2005>
-461.32421875

> <b_mmod_Minimization_Converged-OPLS-2005>
0

> <r_mmod_RMS_Derivative-OPLS-2005>
2.89104747772217

$$$$
7
                    3D
 Structure written by MMmdl.
157166  0  0  1  0            999 V2000
  -30.7432  -14.4647   20.6202 C   0  0  0  0  0  0
  -30.4194  -12.3264   19.4150 C   0  0  0  0  0  0
  -29.4871  -12.5097   18.2019 C   0  0  0  0  0  0
  -28.0135  -12.3468   18.6201 C   0  0  0  0  0  0
  -27.6548  -13.1953   19.8664 C   0  0  2  0  0  0
  -28.7008  -13.0048   20.9896 C   0  0  0  0  0  0
  -25.2585  -13.8127   20.5680 C   0  0  0  0  0  0
  -24.1831  -13.0423   20.9191 C   0  0  0  0  0  0
  -24.6373  -11.6885   20.8748 C   0  0  0  0  0  0
  -23.9039  -10.4282   21.0417 C   0  0  0  0  0  0
  -24.3599   -9.4199   21.9191 C   0  0  0  0  0  0
  -23.6281   -8.2234   22.0756 C   0  0  0  0  0  0
  -22.4263   -8.0272   21.3545 C   0  0  0  0  0  0
  -21.9895   -9.0244   20.4648 C   0  0  0  0  0  0
  -22.7217  -10.2127   20.3061 C   0  0  0  0  0  0
  -21.6849   -6.0730   22.5280 C   0  0  0  0  0  0
  -21.4009   -6.5636   23.8212 C   0  0  0  0  0  0
  -21.3659   -5.6790   24.9175 C   0  0  0  0  0  0
  -21.6047   -4.3053   24.7226 C   0  0  0  0  0  0
  -21.8819   -3.8143   23.4347 C   0  0  0  0  0  0
  -21.9191   -4.6959   22.3404 C   0  0  0  0  0  0
  -22.7859  -13.5239   21.1854 C   0  0  0  0  0  0
  -22.1660   -4.2146   21.0981 F   0  0  0  0  0  0
  -21.5632   -3.4536   25.7738 F   0  0  0  0  0  0
  -30.0326  -13.3129   20.4383 N   0  0  0  0  0  0
  -26.2990  -12.9263   20.3338 N   0  0  0  0  0  0
  -25.9290  -11.6442   20.5770 N   0  0  0  0  0  0
  -22.0489  -12.8238   22.0407 N   0  0  0  0  0  0
  -25.4315  -15.1845   20.4075 N   0  0  0  0  0  0
  -31.8473  -14.6458   20.0970 O   0  0  0  0  0  0
  -21.6633   -6.8868   21.4239 O   0  0  0  0  0  0
  -22.3556  -14.5553   20.6706 O   0  0  0  0  0  0
  -24.6166  -31.8687   23.2119 C   0  0  0  0  0  0
  -25.9058  -32.4823   23.8410 C   0  0  1  0  0  0
  -27.2277  -27.4187   20.0897 C   0  0  0  0  0  0
  -25.5914  -33.8623   24.2339 N   0  0  0  0  0  0
  -23.4040  -30.4954   21.5534 C   0  0  2  0  0  0
  -24.8477  -28.9671   20.1128 C   0  0  0  0  0  0
  -22.7418  -29.4669   22.4990 C   0  0  0  0  0  0
  -18.0272  -28.1379   22.8493 C   0  0  0  0  0  0
  -24.1487  -36.7315   23.2635 C   0  0  0  0  0  0
  -25.9369  -30.8275   21.3704 C   0  0  0  0  0  0
  -26.0111  -29.4633   20.7135 C   0  0  0  0  0  0
  -27.2022  -28.6964   20.7018 C   0  0  0  0  0  0
  -26.0414  -26.9561   19.4656 C   0  0  0  0  0  0
  -24.8589  -27.7130   19.4862 C   0  0  0  0  0  0
  -23.6117  -29.8351   20.1660 C   0  0  0  0  0  0
  -25.4106  -36.3114   24.0338 C   0  0  1  0  0  0
  -20.5865  -28.3670   23.1314 C   0  0  2  0  0  0
  -20.6767  -26.9406   22.5415 C   0  0  0  0  0  0
  -19.5742  -26.6387   21.5215 C   0  0  0  0  0  0
  -18.1920  -26.7926   22.1625 C   0  0  0  0  0  0
  -19.1522  -28.8840   23.2901 C   0  0  0  0  0  0
  -18.9449  -30.1447   23.8911 C   0  0  0  0  0  0
  -17.6452  -30.6587   24.0564 C   0  0  0  0  0  0
  -25.9038  -34.9477   23.5134 C   0  0  0  0  0  0
  -16.5342  -29.9087   23.6329 C   0  0  0  0  0  0
  -16.7260  -28.6503   23.0352 C   0  0  0  0  0  0
  -26.4479  -31.6598   25.0738 C   0  0  0  0  0  0
  -25.3745  -31.3701   26.1486 C   0  0  0  0  0  0
  -27.0307  -30.3037   24.6123 C   0  0  0  0  0  0
  -27.6057  -32.4314   25.7498 C   0  0  0  0  0  0
  -27.5588  -37.1806   24.8460 C   0  0  0  0  0  0
  -21.4145  -29.3042   22.3726 N   0  0  0  0  0  0
  -26.4291  -37.3802   23.9416 N   0  0  0  0  0  0
  -24.6708  -31.0778   22.1030 N   0  0  0  0  0  0
  -23.4187  -28.8202   23.3028 O   0  0  0  0  0  0
  -28.3848  -26.6537   20.1265 O   0  0  0  0  0  0
  -26.5594  -34.8926   22.4693 O   0  0  0  0  0  0
  -23.5355  -32.1448   23.7505 O   0  0  0  0  0  0
  -30.8372  -19.6744   21.4334 C   0  0  0  0  0  0
  -28.6720  -19.8731   20.3979 C   0  0  0  0  0  0
  -30.6302  -18.2763   21.4755 C   0  0  0  0  0  0
  -29.8377  -20.5149   20.8873 C   0  0  0  0  0  0
  -29.4272  -17.7519   20.9691 C   0  0  0  0  0  0
  -29.3046  -24.3298   20.3833 C   0  0  0  0  0  0
  -31.6741  -17.3388   22.0600 C   0  0  0  0  0  0
  -29.1199  -16.2544   21.0096 C   0  0  0  0  0  0
  -31.0628  -15.9940   22.5069 C   0  0  0  0  0  0
  -29.0043  -22.8146   20.2848 C   0  0  0  0  0  0
  -28.2252  -25.2569   19.7934 C   0  0  0  0  0  0
  -28.4700  -18.5367   20.4363 N   0  0  0  0  0  0
  -30.2225  -15.3852   21.4641 N   0  0  0  0  0  0
  -30.0257  -21.9176   20.8520 N   0  0  0  0  0  0
  -30.3428  -24.7544   20.9054 O   0  0  0  0  0  0
  -31.4618  -12.4255   19.1065 H   0  0  0  0  0  0
  -30.3281  -11.3168   19.8189 H   0  0  0  0  0  0
  -29.7359  -11.7872   17.4233 H   0  0  0  0  0  0
  -29.6391  -13.4974   17.7633 H   0  0  0  0  0  0
  -27.8415  -11.2903   18.8291 H   0  0  0  0  0  0
  -27.3554  -12.6022   17.7887 H   0  0  0  0  0  0
  -27.6770  -14.2298   19.5367 H   0  0  0  0  0  0
  -28.6867  -11.9745   21.3479 H   0  0  0  0  0  0
  -28.4490  -13.6134   21.8585 H   0  0  0  0  0  0
  -25.2746   -9.5679   22.4762 H   0  0  0  0  0  0
  -23.9994   -7.4624   22.7472 H   0  0  0  0  0  0
  -21.0828   -8.8759   19.8951 H   0  0  0  0  0  0
  -22.3678  -10.9666   19.6169 H   0  0  0  0  0  0
  -21.1996   -7.6143   23.9715 H   0  0  0  0  0  0
  -21.1484   -6.0519   25.9078 H   0  0  0  0  0  0
  -22.0599   -2.7604   23.2847 H   0  0  0  0  0  0
  -22.4088  -11.9891   22.4791 H   0  0  0  0  0  0
  -21.1112  -13.1279   22.2614 H   0  0  0  0  0  0
  -24.6626  -15.8370   20.5144 H   0  0  0  0  0  0
  -26.2754  -15.6254   20.0657 H   0  0  0  0  0  0
  -26.7128  -32.5525   23.1171 H   0  0  0  0  0  0
  -25.0077  -33.9786   25.0493 H   0  0  0  0  0  0
  -22.6934  -31.3134   21.4180 H   0  0  0  0  0  0
  -23.3753  -35.9644   23.3289 H   0  0  0  0  0  0
  -24.3591  -36.8938   22.2053 H   0  0  0  0  0  0
  -23.7227  -37.6513   23.6650 H   0  0  0  0  0  0
  -26.0564  -31.5947   20.6042 H   0  0  0  0  0  0
  -26.8224  -30.8753   21.9921 H   0  0  0  0  0  0
  -28.0965  -29.0742   21.1775 H   0  0  0  0  0  0
  -25.9940  -26.0096   18.9480 H   0  0  0  0  0  0
  -23.9673  -27.3292   19.0093 H   0  0  0  0  0  0
  -23.7215  -30.6134   19.4099 H   0  0  0  0  0  0
  -22.7344  -29.2581   19.8677 H   0  0  0  0  0  0
  -25.1280  -36.1982   25.0832 H   0  0  0  0  0  0
  -20.9954  -28.3232   24.1436 H   0  0  0  0  0  0
  -20.5682  -26.2277   23.3601 H   0  0  0  0  0  0
  -21.6636  -26.7459   22.1196 H   0  0  0  0  0  0
  -19.6904  -25.6301   21.1237 H   0  0  0  0  0  0
  -19.6681  -27.3207   20.6752 H   0  0  0  0  0  0
  -17.4194  -26.6680   21.4022 H   0  0  0  0  0  0
  -18.0315  -26.0063   22.9014 H   0  0  0  0  0  0
  -19.7925  -30.7259   24.2287 H   0  0  0  0  0  0
  -17.5006  -31.6272   24.5156 H   0  0  0  0  0  0
  -15.5343  -30.2994   23.7647 H   0  0  0  0  0  0
  -15.8658  -28.0827   22.7062 H   0  0  0  0  0  0
  -24.5917  -30.7051   25.7820 H   0  0  0  0  0  0
  -24.8939  -32.2853   26.4952 H   0  0  0  0  0  0
  -25.8100  -30.8856   27.0233 H   0  0  0  0  0  0
  -26.2855  -29.6799   24.1172 H   0  0  0  0  0  0
  -27.4065  -29.7271   25.4586 H   0  0  0  0  0  0
  -27.8699  -30.4348   23.9287 H   0  0  0  0  0  0
  -27.2681  -33.3604   26.2104 H   0  0  0  0  0  0
  -28.3853  -32.6887   25.0316 H   0  0  0  0  0  0
  -28.0739  -31.8419   26.5391 H   0  0  0  0  0  0
  -28.2586  -38.0125   24.7548 H   0  0  0  0  0  0
  -28.1106  -36.2661   24.6233 H   0  0  0  0  0  0
  -27.2315  -37.1390   25.8863 H   0  0  0  0  0  0
  -20.9303  -29.8777   21.6961 H   0  0  0  0  0  0
  -26.0181  -38.2877   24.1437 H   0  0  0  0  0  0
  -31.7533  -20.0959   21.8218 H   0  0  0  0  0  0
  -27.8632  -20.4402   19.9619 H   0  0  0  0  0  0
  -32.1688  -17.8191   22.9058 H   0  0  0  0  0  0
  -32.4441  -17.1683   21.3059 H   0  0  0  0  0  0
  -28.8153  -15.9865   19.9985 H   0  0  0  0  0  0
  -28.2564  -16.0885   21.6546 H   0  0  0  0  0  0
  -30.4397  -16.1508   23.3886 H   0  0  0  0  0  0
  -31.8539  -15.3098   22.8217 H   0  0  0  0  0  0
  -28.8568  -22.5740   19.2311 H   0  0  0  0  0  0
  -28.0512  -22.6395   20.7859 H   0  0  0  0  0  0
  -27.2809  -24.8782   20.1849 H   0  0  0  0  0  0
  -28.2086  -25.1379   18.7097 H   0  0  0  0  0  0
  -30.8652  -22.3541   21.2302 H   0  0  0  0  0  0
  1 25  1  0  0  0
  1 30  2  0  0  0
  1 83  1  0  0  0
  2  3  1  0  0  0
  2 25  1  0  0  0
  2 86  1  0  0  0
  2 87  1  0  0  0
  3  4  1  0  0  0
  3 88  1  0  0  0
  3 89  1  0  0  0
  4  5  1  0  0  0
  4 90  1  0  0  0
  4 91  1  0  0  0
  5  6  1  0  0  0
  5 26  1  0  0  0
  5 92  1  0  0  0
  6 25  1  0  0  0
  6 93  1  0  0  0
  6 94  1  0  0  0
  7  8  2  0  0  0
  7 26  1  0  0  0
  7 29  1  0  0  0
  8  9  1  0  0  0
  8 22  1  0  0  0
  9 10  1  0  0  0
  9 27  2  0  0  0
 10 11  2  0  0  0
 10 15  1  0  0  0
 11 12  1  0  0  0
 11 95  1  0  0  0
 12 13  2  0  0  0
 12 96  1  0  0  0
 13 14  1  0  0  0
 13 31  1  0  0  0
 14 15  2  0  0  0
 14 97  1  0  0  0
 15 98  1  0  0  0
 16 17  2  0  0  0
 16 21  1  0  0  0
 16 31  1  0  0  0
 17 18  1  0  0  0
 17 99  1  0  0  0
 18 19  2  0  0  0
 18100  1  0  0  0
 19 20  1  0  0  0
 19 24  1  0  0  0
 20 21  2  0  0  0
 20101  1  0  0  0
 21 23  1  0  0  0
 22 28  1  0  0  0
 22 32  2  0  0  0
 26 27  1  0  0  0
 28102  1  0  0  0
 28103  1  0  0  0
 29104  1  0  0  0
 29105  1  0  0  0
 33 34  1  0  0  0
 33 66  1  0  0  0
 33 70  2  0  0  0
 34 36  1  0  0  0
 34 59  1  0  0  0
 34106  1  0  0  0
 35 44  2  0  0  0
 35 45  1  0  0  0
 35 68  1  0  0  0
 36 56  1  0  0  0
 36107  1  0  0  0
 37 39  1  0  0  0
 37 47  1  0  0  0
 37 66  1  0  0  0
 37108  1  0  0  0
 38 43  2  0  0  0
 38 46  1  0  0  0
 38 47  1  0  0  0
 39 64  1  0  0  0
 39 67  2  0  0  0
 40 52  1  0  0  0
 40 53  2  0  0  0
 40 58  1  0  0  0
 41109  1  0  0  0
 41110  1  0  0  0
 41111  1  0  0  0
 41 48  1  0  0  0
 42 43  1  0  0  0
 42 66  1  0  0  0
 42112  1  0  0  0
 42113  1  0  0  0
 43 44  1  0  0  0
 44114  1  0  0  0
 45 46  2  0  0  0
 45115  1  0  0  0
 46116  1  0  0  0
 47117  1  0  0  0
 47118  1  0  0  0
 48 56  1  0  0  0
 48 65  1  0  0  0
 48119  1  0  0  0
 49 50  1  0  0  0
 49 53  1  0  0  0
 49 64  1  0  0  0
 49120  1  0  0  0
 50 51  1  0  0  0
 50121  1  0  0  0
 50122  1  0  0  0
 51 52  1  0  0  0
 51123  1  0  0  0
 51124  1  0  0  0
 52125  1  0  0  0
 52126  1  0  0  0
 53 54  1  0  0  0
 54 55  2  0  0  0
 54127  1  0  0  0
 55 57  1  0  0  0
 55128  1  0  0  0
 56 69  2  0  0  0
 57 58  2  0  0  0
 57129  1  0  0  0
 58130  1  0  0  0
 59 60  1  0  0  0
 59 61  1  0  0  0
 59 62  1  0  0  0
 60131  1  0  0  0
 60132  1  0  0  0
 60133  1  0  0  0
 61134  1  0  0  0
 61135  1  0  0  0
 61136  1  0  0  0
 62137  1  0  0  0
 62138  1  0  0  0
 62139  1  0  0  0
 63 65  1  0  0  0
 63140  1  0  0  0
 63141  1  0  0  0
 63142  1  0  0  0
 64143  1  0  0  0
 65144  1  0  0  0
 68 81  1  0  0  0
 71 73  2  0  0  0
 71 74  1  0  0  0
 71145  1  0  0  0
 72 74  2  0  0  0
 72 82  1  0  0  0
 72146  1  0  0  0
 73 75  1  0  0  0
 73 77  1  0  0  0
 74 84  1  0  0  0
 75 78  1  0  0  0
 75 82  2  0  0  0
 76 80  1  0  0  0
 76 81  1  0  0  0
 76 85  2  0  0  0
 77 79  1  0  0  0
 77147  1  0  0  0
 77148  1  0  0  0
 78 83  1  0  0  0
 78149  1  0  0  0
 78150  1  0  0  0
 79 83  1  0  0  0
 79151  1  0  0  0
 79152  1  0  0  0
 80 84  1  0  0  0
 80153  1  0  0  0
 80154  1  0  0  0
 81155  1  0  0  0
 81156  1  0  0  0
 84157  1  0  0  0
M  ISO  4   1 100  68 101  81 101  83 100
M  END
> <chiral flag>
0

> <version>
0

> <s_m_source_file>
/data/baiqing/PycharmProjects/Reinvent-master-3.2/result/LINK_invent/BTK/process_docking_weight1_custom_product_contain_oxygen_bond_distance_aromatic_linkinvent_7_9_3/rearranged_h_0160.sdf

> <i_m_source_file_index>
8

> <r_mmod_Potential_Energy-OPLS-2005>
-10.8313694000244

> <r_mmod_Stretch_Energy-OPLS-2005>
41.7004508972168

> <r_mmod_Bend_Energy-OPLS-2005>
110.157905578613

> <r_mmod_Torsional_Energy-OPLS-2005>
264.231567382812

> <r_mmod_Improper_Torsional_Energy-OPLS-2005>
4.06895160675049

> <r_mmod_Van_der_Waal_Energy-OPLS-2005>
166.857879638672

> <r_mmod_Electrostatic_Energy-OPLS-2005>
-366.457061767578

> <r_mmod_Solvation_Energy-OPLS-2005>
-246.156829833984

> <b_mmod_Minimization_Converged-OPLS-2005>
0

> <r_mmod_RMS_Derivative-OPLS-2005>
0.331049412488937

$$$$
8
                    3D
 Structure written by MMmdl.
147155  0  0  1  0            999 V2000
  -30.5865  -14.7885   20.4453 C   0  0  0  0  0  0
  -30.4362  -12.4774   19.4848 C   0  0  0  0  0  0
  -29.5151  -12.5129   18.2440 C   0  0  0  0  0  0
  -28.0414  -12.3300   18.6551 C   0  0  0  0  0  0
  -27.6413  -13.2332   19.8517 C   0  0  2  0  0  0
  -28.6844  -13.1771   20.9899 C   0  0  0  0  0  0
  -25.2507  -13.8195   20.5697 C   0  0  0  0  0  0
  -24.1801  -13.0439   20.9213 C   0  0  0  0  0  0
  -24.6394  -11.6917   20.8749 C   0  0  0  0  0  0
  -23.9072  -10.4293   21.0408 C   0  0  0  0  0  0
  -24.3622   -9.4207   21.9185 C   0  0  0  0  0  0
  -23.6296   -8.2243   22.0754 C   0  0  0  0  0  0
  -22.4278   -8.0281   21.3544 C   0  0  0  0  0  0
  -21.9914   -9.0255   20.4646 C   0  0  0  0  0  0
  -22.7244  -10.2134   20.3056 C   0  0  0  0  0  0
  -21.6853   -6.0736   22.5279 C   0  0  0  0  0  0
  -21.4014   -6.5640   23.8212 C   0  0  0  0  0  0
  -21.3660   -5.6793   24.9174 C   0  0  0  0  0  0
  -21.6044   -4.3055   24.7225 C   0  0  0  0  0  0
  -21.8819   -3.8147   23.4346 C   0  0  0  0  0  0
  -21.9193   -4.6964   22.3402 C   0  0  0  0  0  0
  -22.7822  -13.5220   21.1870 C   0  0  0  0  0  0
  -22.1662   -4.2150   21.0980 F   0  0  0  0  0  0
  -21.5629   -3.4539   25.7738 F   0  0  0  0  0  0
  -29.9843  -13.5441   20.4128 N   0  0  0  0  0  0
  -26.2932  -12.9404   20.3278 N   0  0  0  0  0  0
  -25.9325  -11.6546   20.5752 N   0  0  0  0  0  0
  -22.0468  -12.8209   22.0425 N   0  0  0  0  0  0
  -25.4191  -15.1922   20.4109 N   0  0  0  0  0  0
  -31.7727  -14.8785   20.1085 O   0  0  0  0  0  0
  -21.6641   -6.8879   21.4241 O   0  0  0  0  0  0
  -22.3509  -14.5526   20.6717 O   0  0  0  0  0  0
  -24.6341  -31.8520   23.1953 C   0  0  0  0  0  0
  -25.9155  -32.4734   23.8309 C   0  0  1  0  0  0
  -27.2222  -27.2306   20.1258 C   0  0  0  0  0  0
  -25.5941  -33.8538   24.2232 N   0  0  0  0  0  0
  -23.4320  -30.4737   21.5392 C   0  0  2  0  0  0
  -24.8791  -28.9155   20.1075 C   0  0  0  0  0  0
  -22.7517  -29.4585   22.4897 C   0  0  0  0  0  0
  -18.0294  -28.1389   22.8483 C   0  0  0  0  0  0
  -24.1491  -36.7272   23.2641 C   0  0  0  0  0  0
  -25.9801  -30.7545   21.3798 C   0  0  0  0  0  0
  -26.0507  -29.3745   20.7204 C   0  0  0  0  0  0
  -27.2196  -28.5434   20.7202 C   0  0  0  0  0  0
  -26.0216  -26.8443   19.4871 C   0  0  0  0  0  0
  -24.8717  -27.6602   19.4812 C   0  0  0  0  0  0
  -23.6513  -29.8062   20.1556 C   0  0  0  0  0  0
  -25.4120  -36.3056   24.0323 C   0  0  1  0  0  0
  -20.5900  -28.3703   23.1262 C   0  0  2  0  0  0
  -20.6780  -26.9417   22.5408 C   0  0  0  0  0  0
  -19.5755  -26.6382   21.5213 C   0  0  0  0  0  0
  -18.1936  -26.7930   22.1624 C   0  0  0  0  0  0
  -19.1548  -28.8864   23.2866 C   0  0  0  0  0  0
  -18.9468  -30.1464   23.8886 C   0  0  0  0  0  0
  -17.6466  -30.6589   24.0561 C   0  0  0  0  0  0
  -25.9063  -34.9429   23.5082 C   0  0  0  0  0  0
  -16.5357  -29.9085   23.6333 C   0  0  0  0  0  0
  -16.7280  -28.6502   23.0354 C   0  0  0  0  0  0
  -26.4512  -31.6575   25.0716 C   0  0  0  0  0  0
  -25.3723  -31.3737   26.1428 C   0  0  0  0  0  0
  -27.0370  -30.2987   24.6233 C   0  0  0  0  0  0
  -27.6056  -32.4327   25.7494 C   0  0  0  0  0  0
  -27.5576  -37.1793   24.8466 C   0  0  0  0  0  0
  -21.4220  -29.3043   22.3645 N   0  0  0  0  0  0
  -26.4289  -37.3760   23.9408 N   0  0  0  0  0  0
  -24.7013  -31.0458   22.0941 N   0  0  0  0  0  0
  -23.4203  -28.8131   23.3012 O   0  0  0  0  0  0
  -28.3264  -26.3401   20.2208 O   0  0  0  0  0  0
  -26.5640  -34.8912   22.4654 O   0  0  0  0  0  0
  -23.5485  -32.1357   23.7234 O   0  0  0  0  0  0
  -30.6363  -19.2884   19.5342 C   0  0  0  0  0  0
  -29.5568  -19.6310   20.3220 C   0  0  0  0  0  0
  -29.9639  -17.3611   20.4148 C   0  0  0  0  0  0
  -28.5638  -23.6363   20.5039 C   0  0  0  0  0  0
  -29.0656  -22.2231   19.8840 C   0  0  0  0  0  0
  -28.3837  -24.9586   19.5899 C   0  0  0  0  0  0
  -30.8815  -17.8992   19.6012 N   0  0  0  0  0  0
  -28.9059  -20.9012   20.6446 N   0  0  0  0  0  0
  -29.7992  -15.9086   20.7144 N   0  0  0  0  0  0
  -28.3001  -23.6878   21.7099 O   0  0  0  0  0  0
  -29.1247  -18.3894   20.8773 O   0  0  0  0  0  0
  -31.4766  -12.6055   19.1818 H   0  0  0  0  0  0
  -30.3883  -11.5029   19.9734 H   0  0  0  0  0  0
  -29.8048  -11.7356   17.5356 H   0  0  0  0  0  0
  -29.6359  -13.4634   17.7218 H   0  0  0  0  0  0
  -27.9040  -11.2819   18.9233 H   0  0  0  0  0  0
  -27.3842  -12.5140   17.8043 H   0  0  0  0  0  0
  -27.6319  -14.2526   19.4655 H   0  0  0  0  0  0
  -28.7277  -12.1788   21.4283 H   0  0  0  0  0  0
  -28.4090  -13.8525   21.8013 H   0  0  0  0  0  0
  -25.2766   -9.5684   22.4760 H   0  0  0  0  0  0
  -24.0005   -7.4634   22.7473 H   0  0  0  0  0  0
  -21.0846   -8.8775   19.8951 H   0  0  0  0  0  0
  -22.3702  -10.9674   19.6166 H   0  0  0  0  0  0
  -21.2006   -7.6148   23.9716 H   0  0  0  0  0  0
  -21.1482   -6.0523   25.9077 H   0  0  0  0  0  0
  -22.0598   -2.7609   23.2845 H   0  0  0  0  0  0
  -22.4086  -11.9872   22.4814 H   0  0  0  0  0  0
  -21.1084  -13.1230   22.2629 H   0  0  0  0  0  0
  -24.6457  -15.8404   20.5143 H   0  0  0  0  0  0
  -26.2536  -15.6313   20.0447 H   0  0  0  0  0  0
  -26.7219  -32.5369   23.1043 H   0  0  0  0  0  0
  -25.0084  -33.9668   25.0375 H   0  0  0  0  0  0
  -22.7299  -31.2969   21.3916 H   0  0  0  0  0  0
  -23.3755  -35.9603   23.3300 H   0  0  0  0  0  0
  -24.3579  -36.8903   22.2057 H   0  0  0  0  0  0
  -23.7244  -37.6470   23.6673 H   0  0  0  0  0  0
  -26.1245  -31.5143   20.6105 H   0  0  0  0  0  0
  -26.8554  -30.8019   22.0161 H   0  0  0  0  0  0
  -28.1143  -28.8894   21.2188 H   0  0  0  0  0  0
  -25.9167  -25.8829   19.0124 H   0  0  0  0  0  0
  -23.9720  -27.3011   19.0004 H   0  0  0  0  0  0
  -23.7780  -30.5820   19.3997 H   0  0  0  0  0  0
  -22.7685  -29.2418   19.8500 H   0  0  0  0  0  0
  -25.1305  -36.1894   25.0815 H   0  0  0  0  0  0
  -20.9992  -28.3283   24.1383 H   0  0  0  0  0  0
  -20.5677  -26.2315   23.3617 H   0  0  0  0  0  0
  -21.6647  -26.7435   22.1203 H   0  0  0  0  0  0
  -19.6916  -25.6291   21.1249 H   0  0  0  0  0  0
  -19.6692  -27.3187   20.6738 H   0  0  0  0  0  0
  -17.4206  -26.6677   21.4027 H   0  0  0  0  0  0
  -18.0335  -26.0075   22.9023 H   0  0  0  0  0  0
  -19.7944  -30.7283   24.2249 H   0  0  0  0  0  0
  -17.5020  -31.6268   24.5164 H   0  0  0  0  0  0
  -15.5357  -30.2982   23.7665 H   0  0  0  0  0  0
  -15.8680  -28.0818   22.7075 H   0  0  0  0  0  0
  -24.5906  -30.7077   25.7754 H   0  0  0  0  0  0
  -24.8905  -32.2910   26.4822 H   0  0  0  0  0  0
  -25.8029  -30.8935   27.0224 H   0  0  0  0  0  0
  -26.2966  -29.6719   24.1247 H   0  0  0  0  0  0
  -27.4028  -29.7267   25.4771 H   0  0  0  0  0  0
  -27.8853  -30.4251   23.9502 H   0  0  0  0  0  0
  -27.2657  -33.3638   26.2041 H   0  0  0  0  0  0
  -28.3882  -32.6870   25.0334 H   0  0  0  0  0  0
  -28.0706  -31.8472   26.5436 H   0  0  0  0  0  0
  -28.2593  -38.0091   24.7509 H   0  0  0  0  0  0
  -28.1073  -36.2621   24.6299 H   0  0  0  0  0  0
  -27.2293  -37.1448   25.8869 H   0  0  0  0  0  0
  -20.9413  -29.8761   21.6841 H   0  0  0  0  0  0
  -26.0162  -38.2832   24.1406 H   0  0  0  0  0  0
  -31.2653  -19.9323   18.9357 H   0  0  0  0  0  0
  -30.1231  -22.3485   19.6494 H   0  0  0  0  0  0
  -28.5661  -22.1113   18.9209 H   0  0  0  0  0  0
  -27.5454  -24.7762   18.9246 H   0  0  0  0  0  0
  -29.2491  -24.9758   18.9277 H   0  0  0  0  0  0
  -28.1279  -20.9028   21.3008 H   0  0  0  0  0  0
  -28.8982  -15.6808   21.1005 H   0  0  0  0  0  0
  1 25  1  0  0  0
  1 30  2  0  0  0
  1 79  1  0  0  0
  2  3  1  0  0  0
  2 25  1  0  0  0
  2 82  1  0  0  0
  2 83  1  0  0  0
  3  4  1  0  0  0
  3 84  1  0  0  0
  3 85  1  0  0  0
  4  5  1  0  0  0
  4 86  1  0  0  0
  4 87  1  0  0  0
  5  6  1  0  0  0
  5 26  1  0  0  0
  5 88  1  0  0  0
  6 25  1  0  0  0
  6 89  1  0  0  0
  6 90  1  0  0  0
  7  8  2  0  0  0
  7 26  1  0  0  0
  7 29  1  0  0  0
  8  9  1  0  0  0
  8 22  1  0  0  0
  9 10  1  0  0  0
  9 27  2  0  0  0
 10 11  2  0  0  0
 10 15  1  0  0  0
 11 12  1  0  0  0
 11 91  1  0  0  0
 12 13  2  0  0  0
 12 92  1  0  0  0
 13 14  1  0  0  0
 13 31  1  0  0  0
 14 15  2  0  0  0
 14 93  1  0  0  0
 15 94  1  0  0  0
 16 17  2  0  0  0
 16 21  1  0  0  0
 16 31  1  0  0  0
 17 18  1  0  0  0
 17 95  1  0  0  0
 18 19  2  0  0  0
 18 96  1  0  0  0
 19 20  1  0  0  0
 19 24  1  0  0  0
 20 21  2  0  0  0
 20 97  1  0  0  0
 21 23  1  0  0  0
 22 28  1  0  0  0
 22 32  2  0  0  0
 26 27  1  0  0  0
 28 98  1  0  0  0
 28 99  1  0  0  0
 29100  1  0  0  0
 29101  1  0  0  0
 33 34  1  0  0  0
 33 66  1  0  0  0
 33 70  2  0  0  0
 34 36  1  0  0  0
 34 59  1  0  0  0
 34102  1  0  0  0
 35 44  2  0  0  0
 35 45  1  0  0  0
 35 68  1  0  0  0
 36 56  1  0  0  0
 36103  1  0  0  0
 37 39  1  0  0  0
 37 47  1  0  0  0
 37 66  1  0  0  0
 37104  1  0  0  0
 38 43  2  0  0  0
 38 46  1  0  0  0
 38 47  1  0  0  0
 39 64  1  0  0  0
 39 67  2  0  0  0
 40 52  1  0  0  0
 40 53  2  0  0  0
 40 58  1  0  0  0
 41105  1  0  0  0
 41106  1  0  0  0
 41107  1  0  0  0
 41 48  1  0  0  0
 42 43  1  0  0  0
 42 66  1  0  0  0
 42108  1  0  0  0
 42109  1  0  0  0
 43 44  1  0  0  0
 44110  1  0  0  0
 45 46  2  0  0  0
 45111  1  0  0  0
 46112  1  0  0  0
 47113  1  0  0  0
 47114  1  0  0  0
 48 56  1  0  0  0
 48 65  1  0  0  0
 48115  1  0  0  0
 49 50  1  0  0  0
 49 53  1  0  0  0
 49 64  1  0  0  0
 49116  1  0  0  0
 50 51  1  0  0  0
 50117  1  0  0  0
 50118  1  0  0  0
 51 52  1  0  0  0
 51119  1  0  0  0
 51120  1  0  0  0
 52121  1  0  0  0
 52122  1  0  0  0
 53 54  1  0  0  0
 54 55  2  0  0  0
 54123  1  0  0  0
 55 57  1  0  0  0
 55124  1  0  0  0
 56 69  2  0  0  0
 57 58  2  0  0  0
 57125  1  0  0  0
 58126  1  0  0  0
 59 60  1  0  0  0
 59 61  1  0  0  0
 59 62  1  0  0  0
 60127  1  0  0  0
 60128  1  0  0  0
 60129  1  0  0  0
 61130  1  0  0  0
 61131  1  0  0  0
 61132  1  0  0  0
 62133  1  0  0  0
 62134  1  0  0  0
 62135  1  0  0  0
 63 65  1  0  0  0
 63136  1  0  0  0
 63137  1  0  0  0
 63138  1  0  0  0
 64139  1  0  0  0
 65140  1  0  0  0
 68 76  1  0  0  0
 71 72  2  0  0  0
 71 77  1  0  0  0
 71141  1  0  0  0
 72 78  1  0  0  0
 72 81  1  0  0  0
 73 77  2  0  0  0
 73 79  1  0  0  0
 73 81  1  0  0  0
 74 75  1  0  0  0
 74 76  1  0  0  0
 74 80  2  0  0  0
 75 78  1  0  0  0
 75142  1  0  0  0
 75143  1  0  0  0
 76144  1  0  0  0
 76145  1  0  0  0
 78146  1  0  0  0
 79147  1  0  0  0
M  ISO  4   1 100  68 101  76 101  79 100
M  END
> <chiral flag>
0

> <version>
0

> <s_m_source_file>
/data/baiqing/PycharmProjects/Reinvent-master-3.2/result/LINK_invent/BTK/process_docking_weight1_custom_product_contain_oxygen_bond_distance_aromatic_linkinvent_7_9_3/rearranged_h_0160.sdf

> <i_m_source_file_index>
9

> <r_mmod_Potential_Energy-OPLS-2005>
166.275680541992

> <r_mmod_Stretch_Energy-OPLS-2005>
142.048645019531

> <r_mmod_Bend_Energy-OPLS-2005>
190.537002563477

> <r_mmod_Torsional_Energy-OPLS-2005>
201.580780029297

> <r_mmod_Improper_Torsional_Energy-OPLS-2005>
4.25482273101807

> <r_mmod_Van_der_Waal_Energy-OPLS-2005>
116.377326965332

> <r_mmod_Electrostatic_Energy-OPLS-2005>
-316.460510253906

> <r_mmod_Solvation_Energy-OPLS-2005>
-274.820098876953

> <b_mmod_Minimization_Converged-OPLS-2005>
0

> <r_mmod_RMS_Derivative-OPLS-2005>
0.114461429417133

$$$$
9
                    3D
 Structure written by MMmdl.
159168  0  0  1  0            999 V2000
  -30.6476  -14.6179   20.5054 C   0  0  0  0  0  0
  -30.4375  -12.3801   19.4486 C   0  0  0  0  0  0
  -29.5058  -12.4948   18.2214 C   0  0  0  0  0  0
  -28.0294  -12.3354   18.6359 C   0  0  0  0  0  0
  -27.6531  -13.2124   19.8587 C   0  0  2  0  0  0
  -28.6985  -13.0752   20.9895 C   0  0  0  0  0  0
  -25.2571  -13.8159   20.5677 C   0  0  0  0  0  0
  -24.1833  -13.0431   20.9191 C   0  0  0  0  0  0
  -24.6394  -11.6899   20.8739 C   0  0  0  0  0  0
  -23.9060  -10.4287   21.0411 C   0  0  0  0  0  0
  -24.3610   -9.4202   21.9191 C   0  0  0  0  0  0
  -23.6291   -8.2231   22.0754 C   0  0  0  0  0  0
  -22.4269   -8.0276   21.3545 C   0  0  0  0  0  0
  -21.9906   -9.0253   20.4646 C   0  0  0  0  0  0
  -22.7229  -10.2135   20.3062 C   0  0  0  0  0  0
  -21.6849   -6.0737   22.5291 C   0  0  0  0  0  0
  -21.4006   -6.5642   23.8223 C   0  0  0  0  0  0
  -21.3659   -5.6791   24.9185 C   0  0  0  0  0  0
  -21.6048   -4.3056   24.7231 C   0  0  0  0  0  0
  -21.8820   -3.8147   23.4351 C   0  0  0  0  0  0
  -21.9190   -4.6965   22.3409 C   0  0  0  0  0  0
  -22.7859  -13.5233   21.1856 C   0  0  0  0  0  0
  -22.1658   -4.2147   21.0988 F   0  0  0  0  0  0
  -21.5632   -3.4540   25.7746 F   0  0  0  0  0  0
  -30.0167  -13.4042   20.4246 N   0  0  0  0  0  0
  -26.2988  -12.9329   20.3290 N   0  0  0  0  0  0
  -25.9318  -11.6490   20.5745 N   0  0  0  0  0  0
  -22.0486  -12.8240   22.0412 N   0  0  0  0  0  0
  -25.4274  -15.1881   20.4088 N   0  0  0  0  0  0
  -31.8184  -14.7516   20.1362 O   0  0  0  0  0  0
  -21.6634   -6.8877   21.4249 O   0  0  0  0  0  0
  -22.3555  -14.5541   20.6695 O   0  0  0  0  0  0
  -24.6266  -31.8623   23.2067 C   0  0  0  0  0  0
  -25.9119  -32.4792   23.8385 C   0  0  1  0  0  0
  -27.2123  -27.3227   20.1083 C   0  0  0  0  0  0
  -25.5942  -33.8592   24.2306 N   0  0  0  0  0  0
  -23.4188  -30.4901   21.5499 C   0  0  2  0  0  0
  -24.8619  -28.9566   20.1092 C   0  0  0  0  0  0
  -22.7482  -29.4635   22.4944 C   0  0  0  0  0  0
  -18.0289  -28.1384   22.8490 C   0  0  0  0  0  0
  -24.1491  -36.7298   23.2636 C   0  0  0  0  0  0
  -25.9624  -30.7925   21.3810 C   0  0  0  0  0  0
  -26.0327  -29.4226   20.7203 C   0  0  0  0  0  0
  -27.2098  -28.6155   20.7171 C   0  0  0  0  0  0
  -26.0168  -26.9259   19.4563 C   0  0  0  0  0  0
  -24.8559  -27.7129   19.4690 C   0  0  0  0  0  0
  -23.6319  -29.8356   20.1619 C   0  0  0  0  0  0
  -25.4114  -36.3093   24.0332 C   0  0  1  0  0  0
  -20.5889  -28.3691   23.1287 C   0  0  2  0  0  0
  -20.6778  -26.9415   22.5410 C   0  0  0  0  0  0
  -19.5752  -26.6388   21.5216 C   0  0  0  0  0  0
  -18.1933  -26.7930   22.1626 C   0  0  0  0  0  0
  -19.1539  -28.8853   23.2885 C   0  0  0  0  0  0
  -18.9458  -30.1454   23.8901 C   0  0  0  0  0  0
  -17.6456  -30.6584   24.0565 C   0  0  0  0  0  0
  -25.9053  -34.9459   23.5115 C   0  0  0  0  0  0
  -16.5350  -29.9081   23.6329 C   0  0  0  0  0  0
  -16.7275  -28.6498   23.0354 C   0  0  0  0  0  0
  -26.4502  -31.6593   25.0748 C   0  0  0  0  0  0
  -25.3737  -31.3736   26.1478 C   0  0  0  0  0  0
  -27.0332  -30.3011   24.6201 C   0  0  0  0  0  0
  -27.6074  -32.4318   25.7506 C   0  0  0  0  0  0
  -27.5583  -37.1803   24.8463 C   0  0  0  0  0  0
  -21.4196  -29.3047   22.3685 N   0  0  0  0  0  0
  -26.4295  -37.3784   23.9410 N   0  0  0  0  0  0
  -24.6880  -31.0645   22.1021 N   0  0  0  0  0  0
  -23.4211  -28.8163   23.3009 O   0  0  0  0  0  0
  -28.3149  -26.4501   20.1763 O   0  0  0  0  0  0
  -26.5612  -34.8919   22.4675 O   0  0  0  0  0  0
  -23.5428  -32.1424   23.7393 O   0  0  0  0  0  0
  -29.8463  -19.2249   20.5931 C   0  0  0  0  0  0
  -30.0991  -17.0971   20.7120 C   0  0  0  0  0  0
  -29.4162  -21.3213   19.1106 C   0  0  0  0  0  0
  -29.5973  -21.6764   21.5711 C   0  0  0  0  0  0
  -28.6783  -22.6916   18.9801 C   0  0  0  0  0  0
  -28.8682  -23.0660   21.4243 C   0  0  0  0  0  0
  -29.2089  -20.6348   20.4805 C   0  0  2  0  0  0
  -29.0365  -23.7871   20.0390 C   0  0  2  0  0  0
  -31.0890  -24.9029   20.7046 C   0  0  0  0  0  0
  -28.0748  -25.0439   19.7818 C   0  0  0  0  0  0
  -29.1389  -18.0472   20.7516 N   0  0  0  0  0  0
  -31.1625  -19.0389   20.4903 N   0  0  0  0  0  0
  -29.8514  -15.6790   20.8230 N   0  0  0  0  0  0
  -31.3364  -17.6374   20.5620 O   0  0  0  0  0  0
  -30.3938  -24.1197   19.7408 O   0  0  0  0  0  0
  -31.4780  -12.5009   19.1414 H   0  0  0  0  0  0
  -30.3716  -11.3864   19.8946 H   0  0  0  0  0  0
  -29.7679  -11.7394   17.4792 H   0  0  0  0  0  0
  -29.6479  -13.4616   17.7359 H   0  0  0  0  0  0
  -27.8674  -11.2839   18.8750 H   0  0  0  0  0  0
  -27.3732  -12.5585   17.7936 H   0  0  0  0  0  0
  -27.6694  -14.2443   19.5090 H   0  0  0  0  0  0
  -28.7066  -12.0581   21.3840 H   0  0  0  0  0  0
  -28.4462  -13.7192   21.8335 H   0  0  0  0  0  0
  -25.2755   -9.5679   22.4766 H   0  0  0  0  0  0
  -24.0003   -7.4616   22.7467 H   0  0  0  0  0  0
  -21.0837   -8.8769   19.8957 H   0  0  0  0  0  0
  -22.3683  -10.9675   19.6171 H   0  0  0  0  0  0
  -21.1991   -7.6150   23.9727 H   0  0  0  0  0  0
  -21.1483   -6.0521   25.9089 H   0  0  0  0  0  0
  -22.0598   -2.7609   23.2852 H   0  0  0  0  0  0
  -22.4073  -11.9897   22.4819 H   0  0  0  0  0  0
  -21.1102  -13.1291   22.2596 H   0  0  0  0  0  0
  -24.6568  -15.8376   20.5246 H   0  0  0  0  0  0
  -26.2661  -15.6328   20.0580 H   0  0  0  0  0  0
  -26.7186  -32.5462   23.1132 H   0  0  0  0  0  0
  -25.0113  -33.9744   25.0467 H   0  0  0  0  0  0
  -22.7123  -31.3114   21.4128 H   0  0  0  0  0  0
  -23.3752  -35.9630   23.3302 H   0  0  0  0  0  0
  -24.3587  -36.8912   22.2051 H   0  0  0  0  0  0
  -23.7240  -37.6502   23.6649 H   0  0  0  0  0  0
  -26.0982  -31.5569   20.6146 H   0  0  0  0  0  0
  -26.8419  -30.8361   22.0117 H   0  0  0  0  0  0
  -28.1036  -28.9647   21.2152 H   0  0  0  0  0  0
  -25.9270  -25.9885   18.9304 H   0  0  0  0  0  0
  -23.9621  -27.3544   18.9769 H   0  0  0  0  0  0
  -23.7527  -30.6166   19.4105 H   0  0  0  0  0  0
  -22.7516  -29.2673   19.8563 H   0  0  0  0  0  0
  -25.1289  -36.1952   25.0824 H   0  0  0  0  0  0
  -20.9985  -28.3260   24.1407 H   0  0  0  0  0  0
  -20.5691  -26.2299   23.3609 H   0  0  0  0  0  0
  -21.6646  -26.7452   22.1194 H   0  0  0  0  0  0
  -19.6916  -25.6300   21.1245 H   0  0  0  0  0  0
  -19.6690  -27.3201   20.6748 H   0  0  0  0  0  0
  -17.4207  -26.6687   21.4022 H   0  0  0  0  0  0
  -18.0325  -26.0067   22.9015 H   0  0  0  0  0  0
  -19.7933  -30.7273   24.2277 H   0  0  0  0  0  0
  -17.5007  -31.6266   24.5166 H   0  0  0  0  0  0
  -15.5348  -30.2982   23.7649 H   0  0  0  0  0  0
  -15.8677  -28.0815   22.7068 H   0  0  0  0  0  0
  -24.5910  -30.7087   25.7811 H   0  0  0  0  0  0
  -24.8931  -32.2904   26.4901 H   0  0  0  0  0  0
  -25.8063  -30.8918   27.0256 H   0  0  0  0  0  0
  -26.2900  -29.6773   24.1220 H   0  0  0  0  0  0
  -27.4018  -29.7258   25.4704 H   0  0  0  0  0  0
  -27.8783  -30.4289   23.9433 H   0  0  0  0  0  0
  -27.2700  -33.3620   26.2089 H   0  0  0  0  0  0
  -28.3875  -32.6875   25.0323 H   0  0  0  0  0  0
  -28.0754  -31.8441   26.5414 H   0  0  0  0  0  0
  -28.2600  -38.0101   24.7510 H   0  0  0  0  0  0
  -28.1079  -36.2633   24.6282 H   0  0  0  0  0  0
  -27.2307  -37.1447   25.8867 H   0  0  0  0  0  0
  -20.9374  -29.8786   21.6909 H   0  0  0  0  0  0
  -26.0181  -38.2862   24.1406 H   0  0  0  0  0  0
  -30.4827  -21.4674   18.9376 H   0  0  0  0  0  0
  -29.0701  -20.6521   18.3224 H   0  0  0  0  0  0
  -29.3774  -21.2588   22.5542 H   0  0  0  0  0  0
  -30.6758  -21.8338   21.5458 H   0  0  0  0  0  0
  -27.6046  -22.5008   19.0252 H   0  0  0  0  0  0
  -28.8586  -23.0841   17.9782 H   0  0  0  0  0  0
  -29.1628  -23.7280   22.2384 H   0  0  0  0  0  0
  -27.8037  -22.8918   21.5888 H   0  0  0  0  0  0
  -28.1352  -20.4733   20.5841 H   0  0  0  0  0  0
  -32.0605  -25.1851   20.2999 H   0  0  0  0  0  0
  -31.2755  -24.3424   21.6207 H   0  0  0  0  0  0
  -30.5626  -25.8207   20.9607 H   0  0  0  0  0  0
  -27.1179  -24.7326   20.2031 H   0  0  0  0  0  0
  -27.9332  -25.0973   18.7016 H   0  0  0  0  0  0
  -28.9065  -15.4383   21.0632 H   0  0  0  0  0  0
  1 25  1  0  0  0
  1 30  2  0  0  0
  1 83  1  0  0  0
  2  3  1  0  0  0
  2 25  1  0  0  0
  2 86  1  0  0  0
  2 87  1  0  0  0
  3  4  1  0  0  0
  3 88  1  0  0  0
  3 89  1  0  0  0
  4  5  1  0  0  0
  4 90  1  0  0  0
  4 91  1  0  0  0
  5  6  1  0  0  0
  5 26  1  0  0  0
  5 92  1  0  0  0
  6 25  1  0  0  0
  6 93  1  0  0  0
  6 94  1  0  0  0
  7  8  2  0  0  0
  7 26  1  0  0  0
  7 29  1  0  0  0
  8  9  1  0  0  0
  8 22  1  0  0  0
  9 10  1  0  0  0
  9 27  2  0  0  0
 10 11  2  0  0  0
 10 15  1  0  0  0
 11 12  1  0  0  0
 11 95  1  0  0  0
 12 13  2  0  0  0
 12 96  1  0  0  0
 13 14  1  0  0  0
 13 31  1  0  0  0
 14 15  2  0  0  0
 14 97  1  0  0  0
 15 98  1  0  0  0
 16 17  2  0  0  0
 16 21  1  0  0  0
 16 31  1  0  0  0
 17 18  1  0  0  0
 17 99  1  0  0  0
 18 19  2  0  0  0
 18100  1  0  0  0
 19 20  1  0  0  0
 19 24  1  0  0  0
 20 21  2  0  0  0
 20101  1  0  0  0
 21 23  1  0  0  0
 22 28  1  0  0  0
 22 32  2  0  0  0
 26 27  1  0  0  0
 28102  1  0  0  0
 28103  1  0  0  0
 29104  1  0  0  0
 29105  1  0  0  0
 33 34  1  0  0  0
 33 66  1  0  0  0
 33 70  2  0  0  0
 34 36  1  0  0  0
 34 59  1  0  0  0
 34106  1  0  0  0
 35 44  2  0  0  0
 35 45  1  0  0  0
 35 68  1  0  0  0
 36 56  1  0  0  0
 36107  1  0  0  0
 37 39  1  0  0  0
 37 47  1  0  0  0
 37 66  1  0  0  0
 37108  1  0  0  0
 38 43  2  0  0  0
 38 46  1  0  0  0
 38 47  1  0  0  0
 39 64  1  0  0  0
 39 67  2  0  0  0
 40 52  1  0  0  0
 40 53  2  0  0  0
 40 58  1  0  0  0
 41109  1  0  0  0
 41110  1  0  0  0
 41111  1  0  0  0
 41 48  1  0  0  0
 42 43  1  0  0  0
 42 66  1  0  0  0
 42112  1  0  0  0
 42113  1  0  0  0
 43 44  1  0  0  0
 44114  1  0  0  0
 45 46  2  0  0  0
 45115  1  0  0  0
 46116  1  0  0  0
 47117  1  0  0  0
 47118  1  0  0  0
 48 56  1  0  0  0
 48 65  1  0  0  0
 48119  1  0  0  0
 49 50  1  0  0  0
 49 53  1  0  0  0
 49 64  1  0  0  0
 49120  1  0  0  0
 50 51  1  0  0  0
 50121  1  0  0  0
 50122  1  0  0  0
 51 52  1  0  0  0
 51123  1  0  0  0
 51124  1  0  0  0
 52125  1  0  0  0
 52126  1  0  0  0
 53 54  1  0  0  0
 54 55  2  0  0  0
 54127  1  0  0  0
 55 57  1  0  0  0
 55128  1  0  0  0
 56 69  2  0  0  0
 57 58  2  0  0  0
 57129  1  0  0  0
 58130  1  0  0  0
 59 60  1  0  0  0
 59 61  1  0  0  0
 59 62  1  0  0  0
 60131  1  0  0  0
 60132  1  0  0  0
 60133  1  0  0  0
 61134  1  0  0  0
 61135  1  0  0  0
 61136  1  0  0  0
 62137  1  0  0  0
 62138  1  0  0  0
 62139  1  0  0  0
 63 65  1  0  0  0
 63140  1  0  0  0
 63141  1  0  0  0
 63142  1  0  0  0
 64143  1  0  0  0
 65144  1  0  0  0
 68 80  1  0  0  0
 71 81  1  0  0  0
 71 82  2  0  0  0
 71 77  1  0  0  0
 72 81  2  0  0  0
 72 83  1  0  0  0
 72 84  1  0  0  0
 73 75  1  0  0  0
 73 77  1  0  0  0
 73145  1  0  0  0
 73146  1  0  0  0
 74 76  1  0  0  0
 74 77  1  0  0  0
 74147  1  0  0  0
 74148  1  0  0  0
 75 78  1  0  0  0
 75149  1  0  0  0
 75150  1  0  0  0
 76 78  1  0  0  0
 76151  1  0  0  0
 76152  1  0  0  0
 77153  1  0  0  0
 78 80  1  0  0  0
 78 85  1  0  0  0
 79 85  1  0  0  0
 79154  1  0  0  0
 79155  1  0  0  0
 79156  1  0  0  0
 80157  1  0  0  0
 80158  1  0  0  0
 82 84  1  0  0  0
 83159  1  0  0  0
M  ISO  4   1 100  68 101  80 101  83 100
M  END
> <chiral flag>
0

> <version>
0

> <s_m_source_file>
/data/baiqing/PycharmProjects/Reinvent-master-3.2/result/LINK_invent/BTK/process_docking_weight1_custom_product_contain_oxygen_bond_distance_aromatic_linkinvent_7_9_3/rearranged_h_0160.sdf

> <i_m_source_file_index>
10

> <r_mmod_Potential_Energy-OPLS-2005>
-37.1504173278809

> <r_mmod_Stretch_Energy-OPLS-2005>
71.0987014770508

> <r_mmod_Bend_Energy-OPLS-2005>
153.900085449219

> <r_mmod_Torsional_Energy-OPLS-2005>
211.833541870117

> <r_mmod_Improper_Torsional_Energy-OPLS-2005>
4.62768077850342

> <r_mmod_Van_der_Waal_Energy-OPLS-2005>
136.735260009766

> <r_mmod_Electrostatic_Energy-OPLS-2005>
-430.266296386719

> <r_mmod_Solvation_Energy-OPLS-2005>
-232.606994628906

> <b_mmod_Minimization_Converged-OPLS-2005>
0

> <r_mmod_RMS_Derivative-OPLS-2005>
0.895113885402679

$$$$
10
                    3D
 Structure written by MMmdl.
150158  0  0  1  0            999 V2000
  -30.6196  -14.7567   20.5202 C   0  0  0  0  0  0
  -30.4360  -12.4713   19.4767 C   0  0  0  0  0  0
  -29.5119  -12.5193   18.2380 C   0  0  0  0  0  0
  -28.0352  -12.3430   18.6461 C   0  0  0  0  0  0
  -27.6431  -13.2327   19.8554 C   0  0  2  0  0  0
  -28.6862  -13.1405   20.9888 C   0  0  0  0  0  0
  -25.2495  -13.8191   20.5675 C   0  0  0  0  0  0
  -24.1799  -13.0442   20.9213 C   0  0  0  0  0  0
  -24.6397  -11.6920   20.8751 C   0  0  0  0  0  0
  -23.9079  -10.4298   21.0407 C   0  0  0  0  0  0
  -24.3633   -9.4219   21.9183 C   0  0  0  0  0  0
  -23.6308   -8.2256   22.0750 C   0  0  0  0  0  0
  -22.4282   -8.0300   21.3553 C   0  0  0  0  0  0
  -21.9928   -9.0269   20.4648 C   0  0  0  0  0  0
  -22.7256  -10.2143   20.3059 C   0  0  0  0  0  0
  -21.6863   -6.0746   22.5284 C   0  0  0  0  0  0
  -21.4021   -6.5644   23.8221 C   0  0  0  0  0  0
  -21.3656   -5.6785   24.9176 C   0  0  0  0  0  0
  -21.6048   -4.3053   24.7221 C   0  0  0  0  0  0
  -21.8822   -3.8151   23.4342 C   0  0  0  0  0  0
  -21.9202   -4.6971   22.3402 C   0  0  0  0  0  0
  -22.7825  -13.5221   21.1871 C   0  0  0  0  0  0
  -22.1658   -4.2154   21.0975 F   0  0  0  0  0  0
  -21.5624   -3.4543   25.7735 F   0  0  0  0  0  0
  -29.9875  -13.5270   20.4217 N   0  0  0  0  0  0
  -26.2935  -12.9405   20.3284 N   0  0  0  0  0  0
  -25.9328  -11.6551   20.5762 N   0  0  0  0  0  0
  -22.0476  -12.8219   22.0433 N   0  0  0  0  0  0
  -25.4161  -15.1921   20.4044 N   0  0  0  0  0  0
  -31.7587  -14.8564   20.0483 O   0  0  0  0  0  0
  -21.6647   -6.8895   21.4249 O   0  0  0  0  0  0
  -22.3506  -14.5524   20.6724 O   0  0  0  0  0  0
  -24.6329  -31.8542   23.1972 C   0  0  0  0  0  0
  -25.9147  -32.4750   23.8321 C   0  0  1  0  0  0
  -27.2197  -27.2448   20.1270 C   0  0  0  0  0  0
  -25.5937  -33.8550   24.2255 N   0  0  0  0  0  0
  -23.4304  -30.4778   21.5406 C   0  0  2  0  0  0
  -24.8789  -28.9255   20.1068 C   0  0  0  0  0  0
  -22.7516  -29.4599   22.4894 C   0  0  0  0  0  0
  -18.0296  -28.1386   22.8481 C   0  0  0  0  0  0
  -24.1488  -36.7277   23.2642 C   0  0  0  0  0  0
  -25.9790  -30.7610   21.3820 C   0  0  0  0  0  0
  -26.0509  -29.3831   20.7221 C   0  0  0  0  0  0
  -27.2225  -28.5548   20.7225 C   0  0  0  0  0  0
  -26.0269  -26.8684   19.4678 C   0  0  0  0  0  0
  -24.8741  -27.6773   19.4679 C   0  0  0  0  0  0
  -23.6493  -29.8126   20.1570 C   0  0  0  0  0  0
  -25.4116  -36.3067   24.0331 C   0  0  1  0  0  0
  -20.5903  -28.3703   23.1263 C   0  0  2  0  0  0
  -20.6777  -26.9419   22.5406 C   0  0  0  0  0  0
  -19.5745  -26.6381   21.5214 C   0  0  0  0  0  0
  -18.1929  -26.7926   22.1628 C   0  0  0  0  0  0
  -19.1552  -28.8860   23.2866 C   0  0  0  0  0  0
  -18.9471  -30.1458   23.8887 C   0  0  0  0  0  0
  -17.6468  -30.6583   24.0559 C   0  0  0  0  0  0
  -25.9059  -34.9438   23.5098 C   0  0  0  0  0  0
  -16.5361  -29.9079   23.6329 C   0  0  0  0  0  0
  -16.7285  -28.6495   23.0356 C   0  0  0  0  0  0
  -26.4498  -31.6575   25.0716 C   0  0  0  0  0  0
  -25.3711  -31.3729   26.1433 C   0  0  0  0  0  0
  -27.0356  -30.2988   24.6223 C   0  0  0  0  0  0
  -27.6052  -32.4320   25.7484 C   0  0  0  0  0  0
  -27.5579  -37.1792   24.8471 C   0  0  0  0  0  0
  -21.4221  -29.3048   22.3645 N   0  0  0  0  0  0
  -26.4292  -37.3766   23.9416 N   0  0  0  0  0  0
  -24.7000  -31.0493   22.0957 N   0  0  0  0  0  0
  -23.4209  -28.8140   23.3001 O   0  0  0  0  0  0
  -28.3011  -26.3279   20.2087 O   0  0  0  0  0  0
  -26.5637  -34.8916   22.4670 O   0  0  0  0  0  0
  -23.5477  -32.1381   23.7258 O   0  0  0  0  0  0
  -29.2865  -17.7949   19.2093 C   0  0  0  0  0  0
  -29.0978  -19.2268   19.1360 C   0  0  0  0  0  0
  -29.7285  -17.4458   20.4662 C   0  0  0  0  0  0
  -29.4286  -19.7551   20.3574 C   0  0  0  0  0  0
  -28.9033  -22.1828   20.1932 C   0  0  0  0  0  0
  -28.9830  -23.7408   20.5859 C   0  0  0  0  0  0
  -28.0680  -24.8625   19.8893 C   0  0  0  0  0  0
  -30.0177  -16.0792   21.2373 C   0  0  2  0  0  0
  -29.4612  -21.1267   20.7705 N   0  0  0  0  0  0
  -30.9405  -16.4041   22.3283 N   0  3  0  0  0  0
  -29.7594  -24.1058   21.4795 O   0  0  0  0  0  0
  -29.8237  -18.6749   21.1715 O   0  0  0  0  0  0
  -31.4757  -12.5958   19.1705 H   0  0  0  0  0  0
  -30.3897  -11.4888   19.9505 H   0  0  0  0  0  0
  -29.7986  -11.7451   17.5247 H   0  0  0  0  0  0
  -29.6381  -13.4724   17.7219 H   0  0  0  0  0  0
  -27.8852  -11.2932   18.8983 H   0  0  0  0  0  0
  -27.3799  -12.5464   17.7980 H   0  0  0  0  0  0
  -27.6437  -14.2610   19.4920 H   0  0  0  0  0  0
  -28.7299  -12.1217   21.3789 H   0  0  0  0  0  0
  -28.3987  -13.7599   21.8365 H   0  0  0  0  0  0
  -25.2780   -9.5701   22.4761 H   0  0  0  0  0  0
  -24.0031   -7.4636   22.7456 H   0  0  0  0  0  0
  -21.0870   -8.8797   19.8942 H   0  0  0  0  0  0
  -22.3721  -10.9691   19.6179 H   0  0  0  0  0  0
  -21.2010   -7.6146   23.9736 H   0  0  0  0  0  0
  -21.1463   -6.0504   25.9079 H   0  0  0  0  0  0
  -22.0600   -2.7615   23.2828 H   0  0  0  0  0  0
  -22.4089  -11.9890   22.4842 H   0  0  0  0  0  0
  -21.1099  -13.1250   22.2640 H   0  0  0  0  0  0
  -24.6351  -15.8344   20.4914 H   0  0  0  0  0  0
  -26.2465  -15.6346   20.0321 H   0  0  0  0  0  0
  -26.7209  -32.5389   23.1051 H   0  0  0  0  0  0
  -25.0059  -33.9676   25.0385 H   0  0  0  0  0  0
  -22.7270  -31.3006   21.3933 H   0  0  0  0  0  0
  -23.3754  -35.9604   23.3302 H   0  0  0  0  0  0
  -24.3575  -36.8906   22.2058 H   0  0  0  0  0  0
  -23.7234  -37.6474   23.6665 H   0  0  0  0  0  0
  -26.1241  -31.5223   20.6137 H   0  0  0  0  0  0
  -26.8537  -30.8067   22.0180 H   0  0  0  0  0  0
  -28.1161  -28.8975   21.2247 H   0  0  0  0  0  0
  -25.9483  -25.9234   18.9524 H   0  0  0  0  0  0
  -23.9803  -27.3243   18.9730 H   0  0  0  0  0  0
  -23.7727  -30.5897   19.4017 H   0  0  0  0  0  0
  -22.7669  -29.2473   19.8508 H   0  0  0  0  0  0
  -25.1288  -36.1911   25.0822 H   0  0  0  0  0  0
  -20.9996  -28.3283   24.1382 H   0  0  0  0  0  0
  -20.5675  -26.2314   23.3616 H   0  0  0  0  0  0
  -21.6643  -26.7429   22.1199 H   0  0  0  0  0  0
  -19.6913  -25.6290   21.1242 H   0  0  0  0  0  0
  -19.6681  -27.3189   20.6744 H   0  0  0  0  0  0
  -17.4200  -26.6681   21.4032 H   0  0  0  0  0  0
  -18.0329  -26.0068   22.9024 H   0  0  0  0  0  0
  -19.7949  -30.7276   24.2252 H   0  0  0  0  0  0
  -17.5024  -31.6264   24.5160 H   0  0  0  0  0  0
  -15.5359  -30.2975   23.7660 H   0  0  0  0  0  0
  -15.8687  -28.0809   22.7081 H   0  0  0  0  0  0
  -24.5884  -30.7084   25.7746 H   0  0  0  0  0  0
  -24.8900  -32.2904   26.4837 H   0  0  0  0  0  0
  -25.8016  -30.8905   27.0221 H   0  0  0  0  0  0
  -26.2957  -29.6716   24.1241 H   0  0  0  0  0  0
  -27.4024  -29.7259   25.4749 H   0  0  0  0  0  0
  -27.8832  -30.4244   23.9487 H   0  0  0  0  0  0
  -27.2663  -33.3632   26.2038 H   0  0  0  0  0  0
  -28.3869  -32.6874   25.0316 H   0  0  0  0  0  0
  -28.0716  -31.8464   26.5419 H   0  0  0  0  0  0
  -28.2593  -38.0091   24.7515 H   0  0  0  0  0  0
  -28.1074  -36.2620   24.6290 H   0  0  0  0  0  0
  -27.2297  -37.1438   25.8874 H   0  0  0  0  0  0
  -20.9415  -29.8772   21.6848 H   0  0  0  0  0  0
  -26.0169  -38.2840   24.1404 H   0  0  0  0  0  0
  -29.0889  -17.0898   18.4137 H   0  0  0  0  0  0
  -28.7624  -19.7877   18.2737 H   0  0  0  0  0  0
  -28.2848  -22.0026   19.3101 H   0  0  0  0  0  0
  -27.0498  -24.5993   20.1732 H   0  0  0  0  0  0
  -28.1338  -24.7314   18.8088 H   0  0  0  0  0  0
  -29.0783  -15.7985   21.7078 H   0  0  0  0  0  0
  -31.8445  -16.5863   21.9314 H   0  0  0  0  0  0
  -31.0165  -15.6302   22.9617 H   0  0  0  0  0  0
  -30.6165  -17.2179   22.8151 H   0  0  0  0  0  0
  1 25  1  0  0  0
  1 30  2  0  0  0
  1 78  1  0  0  0
  2  3  1  0  0  0
  2 25  1  0  0  0
  2 83  1  0  0  0
  2 84  1  0  0  0
  3  4  1  0  0  0
  3 85  1  0  0  0
  3 86  1  0  0  0
  4  5  1  0  0  0
  4 87  1  0  0  0
  4 88  1  0  0  0
  5  6  1  0  0  0
  5 26  1  0  0  0
  5 89  1  0  0  0
  6 25  1  0  0  0
  6 90  1  0  0  0
  6 91  1  0  0  0
  7  8  2  0  0  0
  7 26  1  0  0  0
  7 29  1  0  0  0
  8  9  1  0  0  0
  8 22  1  0  0  0
  9 10  1  0  0  0
  9 27  2  0  0  0
 10 11  2  0  0  0
 10 15  1  0  0  0
 11 12  1  0  0  0
 11 92  1  0  0  0
 12 13  2  0  0  0
 12 93  1  0  0  0
 13 14  1  0  0  0
 13 31  1  0  0  0
 14 15  2  0  0  0
 14 94  1  0  0  0
 15 95  1  0  0  0
 16 17  2  0  0  0
 16 21  1  0  0  0
 16 31  1  0  0  0
 17 18  1  0  0  0
 17 96  1  0  0  0
 18 19  2  0  0  0
 18 97  1  0  0  0
 19 20  1  0  0  0
 19 24  1  0  0  0
 20 21  2  0  0  0
 20 98  1  0  0  0
 21 23  1  0  0  0
 22 28  1  0  0  0
 22 32  2  0  0  0
 26 27  1  0  0  0
 28 99  1  0  0  0
 28100  1  0  0  0
 29101  1  0  0  0
 29102  1  0  0  0
 33 34  1  0  0  0
 33 66  1  0  0  0
 33 70  2  0  0  0
 34 36  1  0  0  0
 34 59  1  0  0  0
 34103  1  0  0  0
 35 44  2  0  0  0
 35 45  1  0  0  0
 35 68  1  0  0  0
 36 56  1  0  0  0
 36104  1  0  0  0
 37 39  1  0  0  0
 37 47  1  0  0  0
 37 66  1  0  0  0
 37105  1  0  0  0
 38 43  2  0  0  0
 38 46  1  0  0  0
 38 47  1  0  0  0
 39 64  1  0  0  0
 39 67  2  0  0  0
 40 52  1  0  0  0
 40 53  2  0  0  0
 40 58  1  0  0  0
 41106  1  0  0  0
 41107  1  0  0  0
 41108  1  0  0  0
 41 48  1  0  0  0
 42 43  1  0  0  0
 42 66  1  0  0  0
 42109  1  0  0  0
 42110  1  0  0  0
 43 44  1  0  0  0
 44111  1  0  0  0
 45 46  2  0  0  0
 45112  1  0  0  0
 46113  1  0  0  0
 47114  1  0  0  0
 47115  1  0  0  0
 48 56  1  0  0  0
 48 65  1  0  0  0
 48116  1  0  0  0
 49 50  1  0  0  0
 49 53  1  0  0  0
 49 64  1  0  0  0
 49117  1  0  0  0
 50 51  1  0  0  0
 50118  1  0  0  0
 50119  1  0  0  0
 51 52  1  0  0  0
 51120  1  0  0  0
 51121  1  0  0  0
 52122  1  0  0  0
 52123  1  0  0  0
 53 54  1  0  0  0
 54 55  2  0  0  0
 54124  1  0  0  0
 55 57  1  0  0  0
 55125  1  0  0  0
 56 69  2  0  0  0
 57 58  2  0  0  0
 57126  1  0  0  0
 58127  1  0  0  0
 59 60  1  0  0  0
 59 61  1  0  0  0
 59 62  1  0  0  0
 60128  1  0  0  0
 60129  1  0  0  0
 60130  1  0  0  0
 61131  1  0  0  0
 61132  1  0  0  0
 61133  1  0  0  0
 62134  1  0  0  0
 62135  1  0  0  0
 62136  1  0  0  0
 63 65  1  0  0  0
 63137  1  0  0  0
 63138  1  0  0  0
 63139  1  0  0  0
 64140  1  0  0  0
 65141  1  0  0  0
 68 77  1  0  0  0
 71 72  1  0  0  0
 71 73  2  0  0  0
 71142  1  0  0  0
 72 74  2  0  0  0
 72143  1  0  0  0
 73 78  1  0  0  0
 73 82  1  0  0  0
 74 79  1  0  0  0
 74 82  1  0  0  0
 75 76  1  0  0  0
 75 79  2  0  0  0
 75144  1  0  0  0
 76 77  1  0  0  0
 76 81  2  0  0  0
 77145  1  0  0  0
 77146  1  0  0  0
 78 80  1  0  0  0
 78147  1  0  0  0
 80148  1  0  0  0
 80149  1  0  0  0
 80150  1  0  0  0
M  CHG  1  80   1
M  ISO  4   1 100  68 101  77 101  78 100
M  END
> <chiral flag>
0

> <version>
0

> <s_m_source_file>
/data/baiqing/PycharmProjects/Reinvent-master-3.2/result/LINK_invent/BTK/process_docking_weight1_custom_product_contain_oxygen_bond_distance_aromatic_linkinvent_7_9_3/rearranged_h_0160.sdf

> <i_m_source_file_index>
11

> <r_mmod_Potential_Energy-OPLS-2005>
-162.685760498047

> <r_mmod_Stretch_Energy-OPLS-2005>
142.502365112305

> <r_mmod_Bend_Energy-OPLS-2005>
186.966430664062

> <r_mmod_Torsional_Energy-OPLS-2005>
172.356216430664

> <r_mmod_Improper_Torsional_Energy-OPLS-2005>
2.34939360618591

> <r_mmod_Van_der_Waal_Energy-OPLS-2005>
120.533721923828

> <r_mmod_Electrostatic_Energy-OPLS-2005>
-363.368988037109

> <r_mmod_Solvation_Energy-OPLS-2005>
-514.30712890625

> <b_mmod_Minimization_Converged-OPLS-2005>
0

> <r_mmod_RMS_Derivative-OPLS-2005>
1.48824799060822

$$$$
11
                    3D
 Structure written by MMmdl.
153161  0  0  1  0            999 V2000
  -30.6480  -14.7797   20.5701 C   0  0  0  0  0  0
  -30.4302  -12.5028   19.4899 C   0  0  0  0  0  0
  -29.5110  -12.5417   18.2496 C   0  0  0  0  0  0
  -28.0411  -12.3457   18.6607 C   0  0  0  0  0  0
  -27.6449  -13.2366   19.8674 C   0  0  2  0  0  0
  -28.6901  -13.1638   21.0069 C   0  0  0  0  0  0
  -25.2397  -13.8120   20.5452 C   0  0  0  0  0  0
  -24.1767  -13.0392   20.9188 C   0  0  0  0  0  0
  -24.6407  -11.6891   20.8797 C   0  0  0  0  0  0
  -23.9084  -10.4272   21.0438 C   0  0  0  0  0  0
  -24.3627   -9.4183   21.9208 C   0  0  0  0  0  0
  -23.6294   -8.2222   22.0762 C   0  0  0  0  0  0
  -22.4278   -8.0272   21.3546 C   0  0  0  0  0  0
  -21.9922   -9.0251   20.4650 C   0  0  0  0  0  0
  -22.7259  -10.2126   20.3075 C   0  0  0  0  0  0
  -21.6847   -6.0736   22.5281 C   0  0  0  0  0  0
  -21.4008   -6.5640   23.8215 C   0  0  0  0  0  0
  -21.3658   -5.6792   24.9176 C   0  0  0  0  0  0
  -21.6043   -4.3055   24.7225 C   0  0  0  0  0  0
  -21.8818   -3.8148   23.4346 C   0  0  0  0  0  0
  -21.9191   -4.6964   22.3402 C   0  0  0  0  0  0
  -22.7791  -13.5178   21.1855 C   0  0  0  0  0  0
  -22.1663   -4.2152   21.0980 F   0  0  0  0  0  0
  -21.5630   -3.4538   25.7738 F   0  0  0  0  0  0
  -29.9879  -13.5618   20.4430 N   0  0  0  0  0  0
  -26.2937  -12.9397   20.3333 N   0  0  0  0  0  0
  -25.9365  -11.6542   20.5879 N   0  0  0  0  0  0
  -22.0459  -12.8182   22.0437 N   0  0  0  0  0  0
  -25.3854  -15.1758   20.3301 N   0  0  0  0  0  0
  -31.7401  -14.8774   19.9961 O   0  0  0  0  0  0
  -21.6632   -6.8876   21.4243 O   0  0  0  0  0  0
  -22.3465  -14.5486   20.6711 O   0  0  0  0  0  0
  -24.6342  -31.8527   23.1967 C   0  0  0  0  0  0
  -25.9152  -32.4747   23.8319 C   0  0  1  0  0  0
  -27.2213  -27.2318   20.1311 C   0  0  0  0  0  0
  -25.5930  -33.8550   24.2245 N   0  0  0  0  0  0
  -23.4333  -30.4750   21.5419 C   0  0  2  0  0  0
  -24.8807  -28.9190   20.1128 C   0  0  0  0  0  0
  -22.7525  -29.4591   22.4911 C   0  0  0  0  0  0
  -18.0317  -28.1368   22.8478 C   0  0  0  0  0  0
  -24.1489  -36.7277   23.2641 C   0  0  0  0  0  0
  -25.9821  -30.7571   21.3808 C   0  0  0  0  0  0
  -26.0560  -29.3775   20.7212 C   0  0  0  0  0  0
  -27.2298  -28.5490   20.7151 C   0  0  0  0  0  0
  -26.0182  -26.8528   19.4911 C   0  0  0  0  0  0
  -24.8695  -27.6662   19.4854 C   0  0  0  0  0  0
  -23.6526  -29.8086   20.1595 C   0  0  0  0  0  0
  -25.4118  -36.3068   24.0326 C   0  0  1  0  0  0
  -20.5919  -28.3695   23.1256 C   0  0  2  0  0  0
  -20.6804  -26.9411   22.5395 C   0  0  0  0  0  0
  -19.5776  -26.6369   21.5205 C   0  0  0  0  0  0
  -18.1959  -26.7910   22.1621 C   0  0  0  0  0  0
  -19.1569  -28.8845   23.2861 C   0  0  0  0  0  0
  -18.9486  -30.1442   23.8883 C   0  0  0  0  0  0
  -17.6485  -30.6567   24.0556 C   0  0  0  0  0  0
  -25.9058  -34.9438   23.5095 C   0  0  0  0  0  0
  -16.5378  -29.9062   23.6327 C   0  0  0  0  0  0
  -16.7303  -28.6480   23.0349 C   0  0  0  0  0  0
  -26.4502  -31.6579   25.0719 C   0  0  0  0  0  0
  -25.3703  -31.3726   26.1421 C   0  0  0  0  0  0
  -27.0358  -30.2994   24.6228 C   0  0  0  0  0  0
  -27.6050  -32.4325   25.7496 C   0  0  0  0  0  0
  -27.5581  -37.1796   24.8468 C   0  0  0  0  0  0
  -21.4228  -29.3061   22.3660 N   0  0  0  0  0  0
  -26.4294  -37.3769   23.9407 N   0  0  0  0  0  0
  -24.7027  -31.0460   22.0961 N   0  0  0  0  0  0
  -23.4204  -28.8126   23.3021 O   0  0  0  0  0  0
  -28.3015  -26.3063   20.1856 O   0  0  0  0  0  0
  -26.5640  -34.8920   22.4669 O   0  0  0  0  0  0
  -23.5481  -32.1358   23.7242 O   0  0  0  0  0  0
  -28.0769  -19.2611   21.1477 C   0  0  0  0  0  0
  -28.2135  -17.8735   21.5030 C   0  0  0  0  0  0
  -29.4528  -17.4073   21.0810 C   0  0  0  0  0  0
  -29.2686  -19.7038   20.6560 C   0  0  0  0  0  0
  -28.8371  -22.1382   20.4163 C   0  0  0  0  0  0
  -29.1448  -23.7155   20.2667 C   0  0  0  0  0  0
  -27.9755  -24.8190   20.1559 C   0  0  0  0  0  0
  -30.2385  -16.0616   21.4943 C   0  0  2  0  0  0
  -27.1768  -17.1688   22.3498 C   0  0  0  0  0  0
  -29.6341  -21.0697   20.3986 N   0  0  0  0  0  0
  -31.4789  -16.5220   22.1324 N   0  3  0  0  0  0
  -30.3175  -24.1099   20.2170 O   0  0  0  0  0  0
  -30.1271  -18.5722   20.5991 O   0  0  0  0  0  0
  -25.9507  -17.5239   21.9661 F   0  0  0  0  0  0
  -27.3093  -15.8509   22.2837 F   0  0  0  0  0  0
  -27.3476  -17.5453   23.6161 F   0  0  0  0  0  0
  -31.4708  -12.6174   19.1834 H   0  0  0  0  0  0
  -30.3821  -11.5226   19.9669 H   0  0  0  0  0  0
  -29.8063  -11.7724   17.5348 H   0  0  0  0  0  0
  -29.6261  -13.4979   17.7377 H   0  0  0  0  0  0
  -27.9093  -11.2945   18.9203 H   0  0  0  0  0  0
  -27.3803  -12.5351   17.8141 H   0  0  0  0  0  0
  -27.6414  -14.2622   19.4984 H   0  0  0  0  0  0
  -28.7430  -12.1518   21.4115 H   0  0  0  0  0  0
  -28.4030  -13.7930   21.8448 H   0  0  0  0  0  0
  -25.2769   -9.5653   22.4789 H   0  0  0  0  0  0
  -23.9998   -7.4604   22.7476 H   0  0  0  0  0  0
  -21.0858   -8.8775   19.8946 H   0  0  0  0  0  0
  -22.3725  -10.9673   19.6186 H   0  0  0  0  0  0
  -21.1997   -7.6147   23.9717 H   0  0  0  0  0  0
  -21.1482   -6.0523   25.9079 H   0  0  0  0  0  0
  -22.0598   -2.7613   23.2843 H   0  0  0  0  0  0
  -22.4085  -11.9844   22.4819 H   0  0  0  0  0  0
  -21.1081  -13.1212   22.2660 H   0  0  0  0  0  0
  -24.6039  -15.8149   20.4166 H   0  0  0  0  0  0
  -26.1992  -15.5972   19.9065 H   0  0  0  0  0  0
  -26.7217  -32.5389   23.1054 H   0  0  0  0  0  0
  -25.0047  -33.9680   25.0371 H   0  0  0  0  0  0
  -22.7314  -31.2983   21.3940 H   0  0  0  0  0  0
  -23.3760  -35.9601   23.3302 H   0  0  0  0  0  0
  -24.3574  -36.8903   22.2054 H   0  0  0  0  0  0
  -23.7235  -37.6473   23.6668 H   0  0  0  0  0  0
  -26.1242  -31.5178   20.6119 H   0  0  0  0  0  0
  -26.8580  -30.8064   22.0161 H   0  0  0  0  0  0
  -28.1287  -28.8961   21.2048 H   0  0  0  0  0  0
  -25.9252  -25.9014   18.9918 H   0  0  0  0  0  0
  -23.9709  -27.3101   18.9999 H   0  0  0  0  0  0
  -22.7700  -29.2439   19.8540 H   0  0  0  0  0  0
  -23.7787  -30.5845   19.4037 H   0  0  0  0  0  0
  -25.1302  -36.1912   25.0819 H   0  0  0  0  0  0
  -21.0008  -28.3267   24.1378 H   0  0  0  0  0  0
  -20.5698  -26.2305   23.3600 H   0  0  0  0  0  0
  -21.6672  -26.7430   22.1189 H   0  0  0  0  0  0
  -19.6939  -25.6278   21.1240 H   0  0  0  0  0  0
  -19.6705  -27.3175   20.6731 H   0  0  0  0  0  0
  -17.4226  -26.6650   21.4027 H   0  0  0  0  0  0
  -18.0368  -26.0055   22.9025 H   0  0  0  0  0  0
  -19.7961  -30.7260   24.2252 H   0  0  0  0  0  0
  -17.5039  -31.6246   24.5162 H   0  0  0  0  0  0
  -15.5378  -30.2957   23.7659 H   0  0  0  0  0  0
  -15.8703  -28.0797   22.7067 H   0  0  0  0  0  0
  -24.5898  -30.7060   25.7734 H   0  0  0  0  0  0
  -24.8866  -32.2889   26.4812 H   0  0  0  0  0  0
  -25.7998  -30.8921   27.0221 H   0  0  0  0  0  0
  -26.2958  -29.6736   24.1228 H   0  0  0  0  0  0
  -27.4006  -29.7265   25.4764 H   0  0  0  0  0  0
  -27.8848  -30.4267   23.9510 H   0  0  0  0  0  0
  -27.2660  -33.3638   26.2047 H   0  0  0  0  0  0
  -28.3870  -32.6867   25.0327 H   0  0  0  0  0  0
  -28.0709  -31.8465   26.5430 H   0  0  0  0  0  0
  -28.2602  -38.0090   24.7514 H   0  0  0  0  0  0
  -28.1075  -36.2622   24.6300 H   0  0  0  0  0  0
  -27.2296  -37.1450   25.8871 H   0  0  0  0  0  0
  -20.9415  -29.8787   21.6868 H   0  0  0  0  0  0
  -26.0174  -38.2845   24.1402 H   0  0  0  0  0  0
  -27.2172  -19.8783   21.3681 H   0  0  0  0  0  0
  -27.7700  -21.9543   20.5619 H   0  0  0  0  0  0
  -27.2540  -24.6121   20.9467 H   0  0  0  0  0  0
  -27.4773  -24.5931   19.2148 H   0  0  0  0  0  0
  -29.6850  -15.6159   22.3177 H   0  0  0  0  0  0
  -31.2999  -17.2647   22.7810 H   0  0  0  0  0  0
  -32.0980  -16.8448   21.4102 H   0  0  0  0  0  0
  -31.9233  -15.7542   22.6014 H   0  0  0  0  0  0
  1 25  1  0  0  0
  1 30  2  0  0  0
  1 78  1  0  0  0
  2  3  1  0  0  0
  2 25  1  0  0  0
  2 87  1  0  0  0
  2 88  1  0  0  0
  3  4  1  0  0  0
  3 89  1  0  0  0
  3 90  1  0  0  0
  4  5  1  0  0  0
  4 91  1  0  0  0
  4 92  1  0  0  0
  5  6  1  0  0  0
  5 26  1  0  0  0
  5 93  1  0  0  0
  6 25  1  0  0  0
  6 94  1  0  0  0
  6 95  1  0  0  0
  7  8  2  0  0  0
  7 26  1  0  0  0
  7 29  1  0  0  0
  8  9  1  0  0  0
  8 22  1  0  0  0
  9 10  1  0  0  0
  9 27  2  0  0  0
 10 11  2  0  0  0
 10 15  1  0  0  0
 11 12  1  0  0  0
 11 96  1  0  0  0
 12 13  2  0  0  0
 12 97  1  0  0  0
 13 14  1  0  0  0
 13 31  1  0  0  0
 14 15  2  0  0  0
 14 98  1  0  0  0
 15 99  1  0  0  0
 16 17  2  0  0  0
 16 21  1  0  0  0
 16 31  1  0  0  0
 17 18  1  0  0  0
 17100  1  0  0  0
 18 19  2  0  0  0
 18101  1  0  0  0
 19 20  1  0  0  0
 19 24  1  0  0  0
 20 21  2  0  0  0
 20102  1  0  0  0
 21 23  1  0  0  0
 22 28  1  0  0  0
 22 32  2  0  0  0
 26 27  1  0  0  0
 28103  1  0  0  0
 28104  1  0  0  0
 29105  1  0  0  0
 29106  1  0  0  0
 33 34  1  0  0  0
 33 66  1  0  0  0
 33 70  2  0  0  0
 34 36  1  0  0  0
 34 59  1  0  0  0
 34107  1  0  0  0
 35 44  2  0  0  0
 35 45  1  0  0  0
 35 68  1  0  0  0
 36 56  1  0  0  0
 36108  1  0  0  0
 37 39  1  0  0  0
 37 47  1  0  0  0
 37 66  1  0  0  0
 37109  1  0  0  0
 38 43  2  0  0  0
 38 46  1  0  0  0
 38 47  1  0  0  0
 39 64  1  0  0  0
 39 67  2  0  0  0
 40 52  1  0  0  0
 40 53  2  0  0  0
 40 58  1  0  0  0
 41110  1  0  0  0
 41111  1  0  0  0
 41112  1  0  0  0
 41 48  1  0  0  0
 42 43  1  0  0  0
 42 66  1  0  0  0
 42113  1  0  0  0
 42114  1  0  0  0
 43 44  1  0  0  0
 44115  1  0  0  0
 45 46  2  0  0  0
 45116  1  0  0  0
 46117  1  0  0  0
 47118  1  0  0  0
 47119  1  0  0  0
 48 56  1  0  0  0
 48 65  1  0  0  0
 48120  1  0  0  0
 49 50  1  0  0  0
 49 53  1  0  0  0
 49 64  1  0  0  0
 49121  1  0  0  0
 50 51  1  0  0  0
 50122  1  0  0  0
 50123  1  0  0  0
 51 52  1  0  0  0
 51124  1  0  0  0
 51125  1  0  0  0
 52126  1  0  0  0
 52127  1  0  0  0
 53 54  1  0  0  0
 54 55  2  0  0  0
 54128  1  0  0  0
 55 57  1  0  0  0
 55129  1  0  0  0
 56 69  2  0  0  0
 57 58  2  0  0  0
 57130  1  0  0  0
 58131  1  0  0  0
 59 60  1  0  0  0
 59 61  1  0  0  0
 59 62  1  0  0  0
 60132  1  0  0  0
 60133  1  0  0  0
 60134  1  0  0  0
 61135  1  0  0  0
 61136  1  0  0  0
 61137  1  0  0  0
 62138  1  0  0  0
 62139  1  0  0  0
 62140  1  0  0  0
 63 65  1  0  0  0
 63141  1  0  0  0
 63142  1  0  0  0
 63143  1  0  0  0
 64144  1  0  0  0
 65145  1  0  0  0
 68 77  1  0  0  0
 71 72  1  0  0  0
 71 74  2  0  0  0
 71146  1  0  0  0
 72 73  2  0  0  0
 72 79  1  0  0  0
 73 78  1  0  0  0
 73 83  1  0  0  0
 74 80  1  0  0  0
 74 83  1  0  0  0
 75 76  1  0  0  0
 75 80  2  0  0  0
 75147  1  0  0  0
 76 77  1  0  0  0
 76 82  2  0  0  0
 77148  1  0  0  0
 77149  1  0  0  0
 78 81  1  0  0  0
 78150  1  0  0  0
 79 84  1  0  0  0
 79 85  1  0  0  0
 79 86  1  0  0  0
 81151  1  0  0  0
 81152  1  0  0  0
 81153  1  0  0  0
M  CHG  1  81   1
M  ISO  4   1 100  68 101  77 101  78 100
M  END
> <chiral flag>
0

> <version>
0

> <s_m_source_file>
/data/baiqing/PycharmProjects/Reinvent-master-3.2/result/LINK_invent/BTK/process_docking_weight1_custom_product_contain_oxygen_bond_distance_aromatic_linkinvent_7_9_3/rearranged_h_0160.sdf

> <i_m_source_file_index>
12

> <r_mmod_Potential_Energy-OPLS-2005>
-93.1816558837891

> <r_mmod_Stretch_Energy-OPLS-2005>
165.016479492188

> <r_mmod_Bend_Energy-OPLS-2005>
225.950775146484

> <r_mmod_Torsional_Energy-OPLS-2005>
178.290771484375

> <r_mmod_Improper_Torsional_Energy-OPLS-2005>
8.01932907104492

> <r_mmod_Van_der_Waal_Energy-OPLS-2005>
125.489288330078

> <r_mmod_Electrostatic_Energy-OPLS-2005>
-397.004028320312

> <r_mmod_Solvation_Energy-OPLS-2005>
-499.167358398438

> <b_mmod_Minimization_Converged-OPLS-2005>
0

> <r_mmod_RMS_Derivative-OPLS-2005>
0.652794122695923

$$$$
12
                    3D
 Structure written by MMmdl.
157166  0  0  1  0            999 V2000
  -30.5895  -14.7868   20.4604 C   0  0  0  0  0  0
  -30.4370  -12.4699   19.5095 C   0  0  0  0  0  0
  -29.5267  -12.5215   18.2604 C   0  0  0  0  0  0
  -28.0491  -12.3437   18.6599 C   0  0  0  0  0  0
  -27.6474  -13.2387   19.8635 C   0  0  2  0  0  0
  -28.6861  -13.1731   21.0070 C   0  0  0  0  0  0
  -25.2533  -13.8208   20.5736 C   0  0  0  0  0  0
  -24.1820  -13.0447   20.9205 C   0  0  0  0  0  0
  -24.6421  -11.6931   20.8759 C   0  0  0  0  0  0
  -23.9093  -10.4306   21.0413 C   0  0  0  0  0  0
  -24.3644   -9.4207   21.9179 C   0  0  0  0  0  0
  -23.6314   -8.2242   22.0745 C   0  0  0  0  0  0
  -22.4286   -8.0295   21.3542 C   0  0  0  0  0  0
  -21.9930   -9.0279   20.4645 C   0  0  0  0  0  0
  -22.7266  -10.2153   20.3056 C   0  0  0  0  0  0
  -21.6860   -6.0750   22.5298 C   0  0  0  0  0  0
  -21.4025   -6.5655   23.8232 C   0  0  0  0  0  0
  -21.3659   -5.6799   24.9186 C   0  0  0  0  0  0
  -21.6035   -4.3058   24.7228 C   0  0  0  0  0  0
  -21.8823   -3.8156   23.4347 C   0  0  0  0  0  0
  -21.9197   -4.6978   22.3406 C   0  0  0  0  0  0
  -22.7838  -13.5226   21.1859 C   0  0  0  0  0  0
  -22.1664   -4.2163   21.0981 F   0  0  0  0  0  0
  -21.5607   -3.4535   25.7730 F   0  0  0  0  0  0
  -29.9933  -13.5384   20.4422 N   0  0  0  0  0  0
  -26.2977  -12.9429   20.3344 N   0  0  0  0  0  0
  -25.9356  -11.6561   20.5778 N   0  0  0  0  0  0
  -22.0495  -12.8231   22.0431 N   0  0  0  0  0  0
  -25.4183  -15.1939   20.4195 N   0  0  0  0  0  0
  -31.7452  -14.9071   20.0449 O   0  0  0  0  0  0
  -21.6637   -6.8896   21.4257 O   0  0  0  0  0  0
  -22.3525  -14.5547   20.6735 O   0  0  0  0  0  0
  -24.6350  -31.8524   23.1969 C   0  0  0  0  0  0
  -25.9155  -32.4738   23.8320 C   0  0  1  0  0  0
  -27.2154  -27.2192   20.1444 C   0  0  0  0  0  0
  -25.5937  -33.8543   24.2219 N   0  0  0  0  0  0
  -23.4333  -30.4759   21.5411 C   0  0  2  0  0  0
  -24.8812  -28.9198   20.1105 C   0  0  0  0  0  0
  -22.7517  -29.4588   22.4893 C   0  0  0  0  0  0
  -18.0301  -28.1397   22.8477 C   0  0  0  0  0  0
  -24.1485  -36.7272   23.2635 C   0  0  0  0  0  0
  -25.9848  -30.7522   21.3851 C   0  0  0  0  0  0
  -26.0560  -29.3729   20.7240 C   0  0  0  0  0  0
  -27.2241  -28.5369   20.7289 C   0  0  0  0  0  0
  -26.0184  -26.8553   19.4828 C   0  0  0  0  0  0
  -24.8700  -27.6699   19.4770 C   0  0  0  0  0  0
  -23.6547  -29.8116   20.1578 C   0  0  0  0  0  0
  -25.4116  -36.3051   24.0311 C   0  0  1  0  0  0
  -20.5905  -28.3713   23.1256 C   0  0  2  0  0  0
  -20.6786  -26.9424   22.5408 C   0  0  0  0  0  0
  -19.5762  -26.6386   21.5211 C   0  0  0  0  0  0
  -18.1946  -26.7928   22.1629 C   0  0  0  0  0  0
  -19.1549  -28.8876   23.2857 C   0  0  0  0  0  0
  -18.9475  -30.1474   23.8875 C   0  0  0  0  0  0
  -17.6472  -30.6596   24.0568 C   0  0  0  0  0  0
  -25.9066  -34.9427   23.5062 C   0  0  0  0  0  0
  -16.5363  -29.9091   23.6337 C   0  0  0  0  0  0
  -16.7289  -28.6512   23.0353 C   0  0  0  0  0  0
  -26.4503  -31.6595   25.0738 C   0  0  0  0  0  0
  -25.3713  -31.3797   26.1453 C   0  0  0  0  0  0
  -27.0360  -30.2992   24.6293 C   0  0  0  0  0  0
  -27.6036  -32.4362   25.7518 C   0  0  0  0  0  0
  -27.5572  -37.1794   24.8453 C   0  0  0  0  0  0
  -21.4230  -29.3034   22.3620 N   0  0  0  0  0  0
  -26.4276  -37.3764   23.9408 N   0  0  0  0  0  0
  -24.7034  -31.0466   22.0961 N   0  0  0  0  0  0
  -23.4191  -28.8128   23.3011 O   0  0  0  0  0  0
  -28.2820  -26.2754   20.2403 O   0  0  0  0  0  0
  -26.5655  -34.8906   22.4640 O   0  0  0  0  0  0
  -23.5492  -32.1365   23.7245 O   0  0  0  0  0  0
  -29.5033  -17.5502   19.0693 C   0  0  0  0  0  0
  -29.3327  -18.9822   18.9926 C   0  0  0  0  0  0
  -29.4917  -19.5300   20.2512 C   0  0  0  0  0  0
  -29.7924  -17.2221   20.3697 C   0  0  0  0  0  0
  -29.8980  -23.7972   21.4176 C   0  0  0  0  0  0
  -28.9046  -23.5968   20.5374 C   0  0  0  0  0  0
  -29.0568  -19.6751   17.7166 C   0  0  0  0  0  0
  -30.7358  -22.6619   22.0006 C   0  0  0  0  0  0
  -28.6422  -22.0874   20.0728 C   0  0  0  0  0  0
  -30.0292  -21.2796   21.9857 C   0  0  0  0  0  0
  -27.9869  -24.8011   19.9964 C   0  0  0  0  0  0
  -28.4831  -19.1420   16.7217 N   0  0  0  0  0  0
  -29.4626  -20.9462   20.6804 N   0  0  0  0  0  0
  -29.8431  -15.8974   20.8619 N   0  0  0  0  0  0
  -29.7653  -18.4331   21.1218 O   0  0  0  0  0  0
  -31.4819  -12.5860   19.2181 H   0  0  0  0  0  0
  -30.3717  -11.4929   19.9937 H   0  0  0  0  0  0
  -29.8170  -11.7462   17.5490 H   0  0  0  0  0  0
  -29.6569  -13.4755   17.7466 H   0  0  0  0  0  0
  -27.9085  -11.2935   18.9198 H   0  0  0  0  0  0
  -27.3987  -12.5362   17.8065 H   0  0  0  0  0  0
  -27.6382  -14.2620   19.4873 H   0  0  0  0  0  0
  -28.7214  -12.1745   21.4469 H   0  0  0  0  0  0
  -28.4062  -13.8464   21.8189 H   0  0  0  0  0  0
  -25.2788   -9.5662   22.4760 H   0  0  0  0  0  0
  -24.0008   -7.4634   22.7478 H   0  0  0  0  0  0
  -21.0844   -8.8833   19.8970 H   0  0  0  0  0  0
  -22.3740  -10.9710   19.6175 H   0  0  0  0  0  0
  -21.2036   -7.6171   23.9753 H   0  0  0  0  0  0
  -21.1463   -6.0515   25.9091 H   0  0  0  0  0  0
  -22.0592   -2.7623   23.2850 H   0  0  0  0  0  0
  -22.4099  -11.9880   22.4798 H   0  0  0  0  0  0
  -21.1127  -13.1284   22.2640 H   0  0  0  0  0  0
  -24.6436  -15.8385   20.5337 H   0  0  0  0  0  0
  -26.2678  -15.6501   20.1107 H   0  0  0  0  0  0
  -26.7223  -32.5371   23.1064 H   0  0  0  0  0  0
  -25.0059  -33.9676   25.0347 H   0  0  0  0  0  0
  -22.7313  -31.2987   21.3938 H   0  0  0  0  0  0
  -23.3741  -35.9607   23.3285 H   0  0  0  0  0  0
  -24.3566  -36.8917   22.2048 H   0  0  0  0  0  0
  -23.7245  -37.6468   23.6684 H   0  0  0  0  0  0
  -26.1341  -31.5114   20.6168 H   0  0  0  0  0  0
  -26.8579  -30.7960   22.0251 H   0  0  0  0  0  0
  -28.1171  -28.8784   21.2338 H   0  0  0  0  0  0
  -25.9255  -25.9050   18.9811 H   0  0  0  0  0  0
  -23.9712  -27.3159   18.9906 H   0  0  0  0  0  0
  -23.7862  -30.5889   19.4050 H   0  0  0  0  0  0
  -22.7721  -29.2513   19.8458 H   0  0  0  0  0  0
  -25.1303  -36.1883   25.0807 H   0  0  0  0  0  0
  -21.0004  -28.3311   24.1378 H   0  0  0  0  0  0
  -20.5693  -26.2335   23.3626 H   0  0  0  0  0  0
  -21.6657  -26.7443   22.1202 H   0  0  0  0  0  0
  -19.6926  -25.6292   21.1254 H   0  0  0  0  0  0
  -19.6700  -27.3189   20.6732 H   0  0  0  0  0  0
  -17.4214  -26.6672   21.4038 H   0  0  0  0  0  0
  -18.0344  -26.0082   22.9040 H   0  0  0  0  0  0
  -19.7956  -30.7294   24.2236 H   0  0  0  0  0  0
  -17.5033  -31.6270   24.5177 H   0  0  0  0  0  0
  -15.5368  -30.2994   23.7674 H   0  0  0  0  0  0
  -15.8689  -28.0838   22.7067 H   0  0  0  0  0  0
  -24.5833  -30.7213   25.7781 H   0  0  0  0  0  0
  -24.8982  -32.3003   26.4877 H   0  0  0  0  0  0
  -25.7994  -30.8951   27.0235 H   0  0  0  0  0  0
  -26.2981  -29.6737   24.1258 H   0  0  0  0  0  0
  -27.3930  -29.7263   25.4864 H   0  0  0  0  0  0
  -27.8899  -30.4225   23.9627 H   0  0  0  0  0  0
  -27.2603  -33.3645   26.2090 H   0  0  0  0  0  0
  -28.3844  -32.6966   25.0363 H   0  0  0  0  0  0
  -28.0706  -31.8513   26.5452 H   0  0  0  0  0  0
  -28.2583  -38.0101   24.7502 H   0  0  0  0  0  0
  -28.1079  -36.2632   24.6270 H   0  0  0  0  0  0
  -27.2292  -37.1408   25.8857 H   0  0  0  0  0  0
  -20.9432  -29.8758   21.6813 H   0  0  0  0  0  0
  -26.0139  -38.2824   24.1445 H   0  0  0  0  0  0
  -29.4084  -16.8481   18.2519 H   0  0  0  0  0  0
  -30.1308  -24.8001   21.7494 H   0  0  0  0  0  0
  -29.4000  -20.7080   17.6341 H   0  0  0  0  0  0
  -30.9957  -22.9148   23.0296 H   0  0  0  0  0  0
  -31.6750  -22.6144   21.4476 H   0  0  0  0  0  0
  -28.7640  -22.1034   18.9940 H   0  0  0  0  0  0
  -27.5890  -21.8683   20.2505 H   0  0  0  0  0  0
  -29.2210  -21.2833   22.7180 H   0  0  0  0  0  0
  -30.7308  -20.5074   22.3088 H   0  0  0  0  0  0
  -27.0054  -24.5832   20.4200 H   0  0  0  0  0  0
  -27.8967  -24.6621   18.9188 H   0  0  0  0  0  0
  -28.2049  -18.1878   16.9247 H   0  0  0  0  0  0
  -29.0428  -15.6435   21.4202 H   0  0  0  0  0  0
  1 25  1  0  0  0
  1 30  2  0  0  0
  1 84  1  0  0  0
  2  3  1  0  0  0
  2 25  1  0  0  0
  2 86  1  0  0  0
  2 87  1  0  0  0
  3  4  1  0  0  0
  3 88  1  0  0  0
  3 89  1  0  0  0
  4  5  1  0  0  0
  4 90  1  0  0  0
  4 91  1  0  0  0
  5  6  1  0  0  0
  5 26  1  0  0  0
  5 92  1  0  0  0
  6 25  1  0  0  0
  6 93  1  0  0  0
  6 94  1  0  0  0
  7  8  2  0  0  0
  7 26  1  0  0  0
  7 29  1  0  0  0
  8  9  1  0  0  0
  8 22  1  0  0  0
  9 10  1  0  0  0
  9 27  2  0  0  0
 10 11  2  0  0  0
 10 15  1  0  0  0
 11 12  1  0  0  0
 11 95  1  0  0  0
 12 13  2  0  0  0
 12 96  1  0  0  0
 13 14  1  0  0  0
 13 31  1  0  0  0
 14 15  2  0  0  0
 14 97  1  0  0  0
 15 98  1  0  0  0
 16 17  2  0  0  0
 16 21  1  0  0  0
 16 31  1  0  0  0
 17 18  1  0  0  0
 17 99  1  0  0  0
 18 19  2  0  0  0
 18100  1  0  0  0
 19 20  1  0  0  0
 19 24  1  0  0  0
 20 21  2  0  0  0
 20101  1  0  0  0
 21 23  1  0  0  0
 22 28  1  0  0  0
 22 32  2  0  0  0
 26 27  1  0  0  0
 28102  1  0  0  0
 28103  1  0  0  0
 29104  1  0  0  0
 29105  1  0  0  0
 33 34  1  0  0  0
 33 66  1  0  0  0
 33 70  2  0  0  0
 34 36  1  0  0  0
 34 59  1  0  0  0
 34106  1  0  0  0
 35 44  2  0  0  0
 35 45  1  0  0  0
 35 68  1  0  0  0
 36 56  1  0  0  0
 36107  1  0  0  0
 37 39  1  0  0  0
 37 47  1  0  0  0
 37 66  1  0  0  0
 37108  1  0  0  0
 38 43  2  0  0  0
 38 46  1  0  0  0
 38 47  1  0  0  0
 39 64  1  0  0  0
 39 67  2  0  0  0
 40 52  1  0  0  0
 40 53  2  0  0  0
 40 58  1  0  0  0
 41109  1  0  0  0
 41110  1  0  0  0
 41111  1  0  0  0
 41 48  1  0  0  0
 42 43  1  0  0  0
 42 66  1  0  0  0
 42112  1  0  0  0
 42113  1  0  0  0
 43 44  1  0  0  0
 44114  1  0  0  0
 45 46  2  0  0  0
 45115  1  0  0  0
 46116  1  0  0  0
 47117  1  0  0  0
 47118  1  0  0  0
 48 56  1  0  0  0
 48 65  1  0  0  0
 48119  1  0  0  0
 49 50  1  0  0  0
 49 53  1  0  0  0
 49 64  1  0  0  0
 49120  1  0  0  0
 50 51  1  0  0  0
 50121  1  0  0  0
 50122  1  0  0  0
 51 52  1  0  0  0
 51123  1  0  0  0
 51124  1  0  0  0
 52125  1  0  0  0
 52126  1  0  0  0
 53 54  1  0  0  0
 54 55  2  0  0  0
 54127  1  0  0  0
 55 57  1  0  0  0
 55128  1  0  0  0
 56 69  2  0  0  0
 57 58  2  0  0  0
 57129  1  0  0  0
 58130  1  0  0  0
 59 60  1  0  0  0
 59 61  1  0  0  0
 59 62  1  0  0  0
 60131  1  0  0  0
 60132  1  0  0  0
 60133  1  0  0  0
 61134  1  0  0  0
 61135  1  0  0  0
 61136  1  0  0  0
 62137  1  0  0  0
 62138  1  0  0  0
 62139  1  0  0  0
 63 65  1  0  0  0
 63140  1  0  0  0
 63141  1  0  0  0
 63142  1  0  0  0
 64143  1  0  0  0
 65144  1  0  0  0
 68 81  1  0  0  0
 71 72  1  0  0  0
 71 74  2  0  0  0
 71145  1  0  0  0
 72 73  2  0  0  0
 72 77  1  0  0  0
 73 83  1  0  0  0
 73 85  1  0  0  0
 74 84  1  0  0  0
 74 85  1  0  0  0
 75 76  2  0  0  0
 75 78  1  0  0  0
 75146  1  0  0  0
 76 79  1  0  0  0
 76 81  1  0  0  0
 77 82  2  0  0  0
 77147  1  0  0  0
 78 80  1  0  0  0
 78148  1  0  0  0
 78149  1  0  0  0
 79 83  1  0  0  0
 79150  1  0  0  0
 79151  1  0  0  0
 80 83  1  0  0  0
 80152  1  0  0  0
 80153  1  0  0  0
 81154  1  0  0  0
 81155  1  0  0  0
 82156  1  0  0  0
 84157  1  0  0  0
M  ISO  4   1 100  68 101  81 101  84 100
M  END
> <chiral flag>
0

> <version>
0

> <s_m_source_file>
/data/baiqing/PycharmProjects/Reinvent-master-3.2/result/LINK_invent/BTK/process_docking_weight1_custom_product_contain_oxygen_bond_distance_aromatic_linkinvent_7_9_3/rearranged_h_0160.sdf

> <i_m_source_file_index>
13

> <r_mmod_Potential_Energy-OPLS-2005>
269.514190673828

> <r_mmod_Stretch_Energy-OPLS-2005>
149.576950073242

> <r_mmod_Bend_Energy-OPLS-2005>
196.84016418457

> <r_mmod_Torsional_Energy-OPLS-2005>
250.904541015625

> <r_mmod_Improper_Torsional_Energy-OPLS-2005>
5.43358564376831

> <r_mmod_Van_der_Waal_Energy-OPLS-2005>
126.437767028809

> <r_mmod_Electrostatic_Energy-OPLS-2005>
-324.041656494141

> <r_mmod_Solvation_Energy-OPLS-2005>
-246.692291259766

> <b_mmod_Minimization_Converged-OPLS-2005>
0

> <r_mmod_RMS_Derivative-OPLS-2005>
2.89873886108398

$$$$
13
                    3D
 Structure written by MMmdl.
149157  0  0  1  0            999 V2000
  -30.6017  -14.7497   20.4624 C   0  0  0  0  0  0
  -30.4403  -12.4558   19.4734 C   0  0  0  0  0  0
  -29.5123  -12.5072   18.2379 C   0  0  0  0  0  0
  -28.0382  -12.3328   18.6514 C   0  0  0  0  0  0
  -27.6460  -13.2297   19.8548 C   0  0  2  0  0  0
  -28.6919  -13.1512   20.9898 C   0  0  0  0  0  0
  -25.2535  -13.8195   20.5710 C   0  0  0  0  0  0
  -24.1820  -13.0439   20.9203 C   0  0  0  0  0  0
  -24.6405  -11.6915   20.8740 C   0  0  0  0  0  0
  -23.9080  -10.4288   21.0403 C   0  0  0  0  0  0
  -24.3626   -9.4202   21.9180 C   0  0  0  0  0  0
  -23.6296   -8.2240   22.0752 C   0  0  0  0  0  0
  -22.4279   -8.0278   21.3541 C   0  0  0  0  0  0
  -21.9913   -9.0254   20.4649 C   0  0  0  0  0  0
  -22.7247  -10.2131   20.3055 C   0  0  0  0  0  0
  -21.6853   -6.0734   22.5277 C   0  0  0  0  0  0
  -21.4015   -6.5637   23.8208 C   0  0  0  0  0  0
  -21.3658   -5.6793   24.9172 C   0  0  0  0  0  0
  -21.6044   -4.3057   24.7224 C   0  0  0  0  0  0
  -21.8819   -3.8145   23.4346 C   0  0  0  0  0  0
  -21.9193   -4.6962   22.3402 C   0  0  0  0  0  0
  -22.7839  -13.5220   21.1862 C   0  0  0  0  0  0
  -22.1661   -4.2147   21.0980 F   0  0  0  0  0  0
  -21.5629   -3.4541   25.7739 F   0  0  0  0  0  0
  -29.9974  -13.5102   20.4163 N   0  0  0  0  0  0
  -26.2963  -12.9397   20.3296 N   0  0  0  0  0  0
  -25.9337  -11.6542   20.5757 N   0  0  0  0  0  0
  -22.0488  -12.8208   22.0422 N   0  0  0  0  0  0
  -25.4245  -15.1918   20.4143 N   0  0  0  0  0  0
  -31.7766  -14.8718   20.1001 O   0  0  0  0  0  0
  -21.6640   -6.8878   21.4241 O   0  0  0  0  0  0
  -22.3516  -14.5526   20.6712 O   0  0  0  0  0  0
  -24.6329  -31.8543   23.1965 C   0  0  0  0  0  0
  -25.9145  -32.4753   23.8315 C   0  0  1  0  0  0
  -27.2214  -27.2463   20.1274 C   0  0  0  0  0  0
  -25.5930  -33.8553   24.2231 N   0  0  0  0  0  0
  -23.4302  -30.4762   21.5407 C   0  0  2  0  0  0
  -24.8779  -28.9223   20.1088 C   0  0  0  0  0  0
  -22.7511  -29.4595   22.4912 C   0  0  0  0  0  0
  -18.0285  -28.1386   22.8484 C   0  0  0  0  0  0
  -24.1489  -36.7274   23.2638 C   0  0  0  0  0  0
  -25.9786  -30.7604   21.3806 C   0  0  0  0  0  0
  -26.0506  -29.3825   20.7212 C   0  0  0  0  0  0
  -27.2229  -28.5566   20.7206 C   0  0  0  0  0  0
  -26.0251  -26.8640   19.4760 C   0  0  0  0  0  0
  -24.8721  -27.6721   19.4754 C   0  0  0  0  0  0
  -23.6484  -29.8087   20.1576 C   0  0  0  0  0  0
  -25.4115  -36.3067   24.0327 C   0  0  1  0  0  0
  -20.5894  -28.3694   23.1271 C   0  0  2  0  0  0
  -20.6775  -26.9411   22.5410 C   0  0  0  0  0  0
  -19.5750  -26.6376   21.5217 C   0  0  0  0  0  0
  -18.1925  -26.7923   22.1622 C   0  0  0  0  0  0
  -19.1542  -28.8856   23.2868 C   0  0  0  0  0  0
  -18.9467  -30.1455   23.8894 C   0  0  0  0  0  0
  -17.6471  -30.6591   24.0557 C   0  0  0  0  0  0
  -25.9067  -34.9442   23.5088 C   0  0  0  0  0  0
  -16.5358  -29.9089   23.6339 C   0  0  0  0  0  0
  -16.7274  -28.6501   23.0367 C   0  0  0  0  0  0
  -26.4502  -31.6588   25.0718 C   0  0  0  0  0  0
  -25.3709  -31.3761   26.1432 C   0  0  0  0  0  0
  -27.0347  -30.2998   24.6225 C   0  0  0  0  0  0
  -27.6059  -32.4337   25.7479 C   0  0  0  0  0  0
  -27.5586  -37.1775   24.8452 C   0  0  0  0  0  0
  -21.4216  -29.3042   22.3662 N   0  0  0  0  0  0
  -26.4279  -37.3779   23.9430 N   0  0  0  0  0  0
  -24.6998  -31.0481   22.0956 N   0  0  0  0  0  0
  -23.4204  -28.8135   23.3015 O   0  0  0  0  0  0
  -28.3081  -26.3362   20.2053 O   0  0  0  0  0  0
  -26.5644  -34.8925   22.4663 O   0  0  0  0  0  0
  -23.5471  -32.1379   23.7248 O   0  0  0  0  0  0
  -29.1235  -18.2455   21.0498 C   0  0  0  0  0  0
  -29.5690  -19.5395   20.5370 C   0  0  0  0  0  0
  -29.9524  -17.2307   20.5609 C   0  0  0  0  0  0
  -30.6502  -19.1805   19.7682 C   0  0  0  0  0  0
  -28.9872  -20.9614   20.8501 C   0  0  0  0  0  0
  -29.0478  -23.7632   20.5117 C   0  0  0  0  0  0
  -29.1314  -22.2643   19.9169 C   0  0  0  0  0  0
  -28.0745  -24.8750   19.8878 C   0  0  0  0  0  0
  -28.2772  -21.0821   21.8929 N   0  0  0  0  0  0
  -29.8104  -15.8460   20.7791 N   0  0  0  0  0  0
  -29.7940  -24.0852   21.4441 O   0  0  0  0  0  0
  -30.9065  -17.8135   19.7630 O   0  0  0  0  0  0
  -31.4307  -20.0528   19.0859 F   0  0  0  0  0  0
  -31.4791  -12.5877   19.1651 H   0  0  0  0  0  0
  -30.3944  -11.4756   19.9510 H   0  0  0  0  0  0
  -29.7918  -11.7320   17.5234 H   0  0  0  0  0  0
  -29.6390  -13.4592   17.7203 H   0  0  0  0  0  0
  -27.8920  -11.2841   18.9121 H   0  0  0  0  0  0
  -27.3807  -12.5279   17.8028 H   0  0  0  0  0  0
  -27.6437  -14.2529   19.4783 H   0  0  0  0  0  0
  -28.7263  -12.1470   21.4139 H   0  0  0  0  0  0
  -28.4238  -13.8169   21.8114 H   0  0  0  0  0  0
  -25.2774   -9.5672   22.4754 H   0  0  0  0  0  0
  -24.0002   -7.4632   22.7472 H   0  0  0  0  0  0
  -21.0842   -8.8777   19.8958 H   0  0  0  0  0  0
  -22.3706  -10.9672   19.6164 H   0  0  0  0  0  0
  -21.2007   -7.6148   23.9712 H   0  0  0  0  0  0
  -21.1481   -6.0524   25.9074 H   0  0  0  0  0  0
  -22.0600   -2.7608   23.2849 H   0  0  0  0  0  0
  -22.4112  -11.9862   22.4798 H   0  0  0  0  0  0
  -21.1112  -13.1230   22.2650 H   0  0  0  0  0  0
  -24.6583  -15.8467   20.5289 H   0  0  0  0  0  0
  -26.2688  -15.6305   20.0700 H   0  0  0  0  0  0
  -26.7208  -32.5387   23.1044 H   0  0  0  0  0  0
  -25.0047  -33.9677   25.0361 H   0  0  0  0  0  0
  -22.7269  -31.2990   21.3927 H   0  0  0  0  0  0
  -23.3772  -35.9583   23.3272 H   0  0  0  0  0  0
  -24.3581  -36.8928   22.2056 H   0  0  0  0  0  0
  -23.7212  -37.6456   23.6685 H   0  0  0  0  0  0
  -26.1206  -31.5194   20.6104 H   0  0  0  0  0  0
  -26.8560  -30.8077   22.0143 H   0  0  0  0  0  0
  -28.1173  -28.9007   21.2208 H   0  0  0  0  0  0
  -25.9422  -25.9126   18.9720 H   0  0  0  0  0  0
  -23.9754  -27.3148   18.9866 H   0  0  0  0  0  0
  -23.7681  -30.5841   19.4006 H   0  0  0  0  0  0
  -22.7675  -29.2395   19.8556 H   0  0  0  0  0  0
  -25.1289  -36.1905   25.0816 H   0  0  0  0  0  0
  -20.9973  -28.3269   24.1398 H   0  0  0  0  0  0
  -20.5672  -26.2302   23.3614 H   0  0  0  0  0  0
  -21.6643  -26.7427   22.1206 H   0  0  0  0  0  0
  -19.6918  -25.6288   21.1244 H   0  0  0  0  0  0
  -19.6698  -27.3188   20.6750 H   0  0  0  0  0  0
  -17.4200  -26.6677   21.4019 H   0  0  0  0  0  0
  -18.0321  -26.0059   22.9013 H   0  0  0  0  0  0
  -19.7949  -30.7257   24.2270 H   0  0  0  0  0  0
  -17.5032  -31.6278   24.5144 H   0  0  0  0  0  0
  -15.5362  -30.2991   23.7671 H   0  0  0  0  0  0
  -15.8667  -28.0814   22.7112 H   0  0  0  0  0  0
  -24.5885  -30.7108   25.7756 H   0  0  0  0  0  0
  -24.8896  -32.2941   26.4821 H   0  0  0  0  0  0
  -25.8003  -30.8959   27.0231 H   0  0  0  0  0  0
  -26.2937  -29.6738   24.1235 H   0  0  0  0  0  0
  -27.4006  -29.7271   25.4754 H   0  0  0  0  0  0
  -27.8823  -30.4260   23.9483 H   0  0  0  0  0  0
  -27.2681  -33.3655   26.2022 H   0  0  0  0  0  0
  -28.3874  -32.6870   25.0304 H   0  0  0  0  0  0
  -28.0717  -31.8485   26.5414 H   0  0  0  0  0  0
  -28.2566  -38.0113   24.7577 H   0  0  0  0  0  0
  -28.1129  -36.2654   24.6182 H   0  0  0  0  0  0
  -27.2318  -37.1287   25.8855 H   0  0  0  0  0  0
  -20.9413  -29.8754   21.6857 H   0  0  0  0  0  0
  -26.0157  -38.2846   24.1489 H   0  0  0  0  0  0
  -28.2813  -18.0831   21.7063 H   0  0  0  0  0  0
  -28.3775  -22.1905   19.1331 H   0  0  0  0  0  0
  -30.0885  -22.1947   19.4010 H   0  0  0  0  0  0
  -27.0792  -24.5981   20.2349 H   0  0  0  0  0  0
  -28.0722  -24.7512   18.8044 H   0  0  0  0  0  0
  -28.2159  -20.2141   22.4146 H   0  0  0  0  0  0
  -28.9138  -15.5767   21.1527 H   0  0  0  0  0  0
  1 25  1  0  0  0
  1 30  2  0  0  0
  1 80  1  0  0  0
  2  3  1  0  0  0
  2 25  1  0  0  0
  2 84  1  0  0  0
  2 85  1  0  0  0
  3  4  1  0  0  0
  3 86  1  0  0  0
  3 87  1  0  0  0
  4  5  1  0  0  0
  4 88  1  0  0  0
  4 89  1  0  0  0
  5  6  1  0  0  0
  5 26  1  0  0  0
  5 90  1  0  0  0
  6 25  1  0  0  0
  6 91  1  0  0  0
  6 92  1  0  0  0
  7  8  2  0  0  0
  7 26  1  0  0  0
  7 29  1  0  0  0
  8  9  1  0  0  0
  8 22  1  0  0  0
  9 10  1  0  0  0
  9 27  2  0  0  0
 10 11  2  0  0  0
 10 15  1  0  0  0
 11 12  1  0  0  0
 11 93  1  0  0  0
 12 13  2  0  0  0
 12 94  1  0  0  0
 13 14  1  0  0  0
 13 31  1  0  0  0
 14 15  2  0  0  0
 14 95  1  0  0  0
 15 96  1  0  0  0
 16 17  2  0  0  0
 16 21  1  0  0  0
 16 31  1  0  0  0
 17 18  1  0  0  0
 17 97  1  0  0  0
 18 19  2  0  0  0
 18 98  1  0  0  0
 19 20  1  0  0  0
 19 24  1  0  0  0
 20 21  2  0  0  0
 20 99  1  0  0  0
 21 23  1  0  0  0
 22 28  1  0  0  0
 22 32  2  0  0  0
 26 27  1  0  0  0
 28100  1  0  0  0
 28101  1  0  0  0
 29102  1  0  0  0
 29103  1  0  0  0
 33 34  1  0  0  0
 33 66  1  0  0  0
 33 70  2  0  0  0
 34 36  1  0  0  0
 34 59  1  0  0  0
 34104  1  0  0  0
 35 44  2  0  0  0
 35 45  1  0  0  0
 35 68  1  0  0  0
 36 56  1  0  0  0
 36105  1  0  0  0
 37 39  1  0  0  0
 37 47  1  0  0  0
 37 66  1  0  0  0
 37106  1  0  0  0
 38 43  2  0  0  0
 38 46  1  0  0  0
 38 47  1  0  0  0
 39 64  1  0  0  0
 39 67  2  0  0  0
 40 52  1  0  0  0
 40 53  2  0  0  0
 40 58  1  0  0  0
 41107  1  0  0  0
 41108  1  0  0  0
 41109  1  0  0  0
 41 48  1  0  0  0
 42 43  1  0  0  0
 42 66  1  0  0  0
 42110  1  0  0  0
 42111  1  0  0  0
 43 44  1  0  0  0
 44112  1  0  0  0
 45 46  2  0  0  0
 45113  1  0  0  0
 46114  1  0  0  0
 47115  1  0  0  0
 47116  1  0  0  0
 48 56  1  0  0  0
 48 65  1  0  0  0
 48117  1  0  0  0
 49 50  1  0  0  0
 49 53  1  0  0  0
 49 64  1  0  0  0
 49118  1  0  0  0
 50 51  1  0  0  0
 50119  1  0  0  0
 50120  1  0  0  0
 51 52  1  0  0  0
 51121  1  0  0  0
 51122  1  0  0  0
 52123  1  0  0  0
 52124  1  0  0  0
 53 54  1  0  0  0
 54 55  2  0  0  0
 54125  1  0  0  0
 55 57  1  0  0  0
 55126  1  0  0  0
 56 69  2  0  0  0
 57 58  2  0  0  0
 57127  1  0  0  0
 58128  1  0  0  0
 59 60  1  0  0  0
 59 61  1  0  0  0
 59 62  1  0  0  0
 60129  1  0  0  0
 60130  1  0  0  0
 60131  1  0  0  0
 61132  1  0  0  0
 61133  1  0  0  0
 61134  1  0  0  0
 62135  1  0  0  0
 62136  1  0  0  0
 62137  1  0  0  0
 63 65  1  0  0  0
 63138  1  0  0  0
 63139  1  0  0  0
 63140  1  0  0  0
 64141  1  0  0  0
 65142  1  0  0  0
 68 78  1  0  0  0
 71 72  1  0  0  0
 71 73  2  0  0  0
 71143  1  0  0  0
 72 74  2  0  0  0
 72 75  1  0  0  0
 73 80  1  0  0  0
 73 82  1  0  0  0
 74 82  1  0  0  0
 74 83  1  0  0  0
 75 77  1  0  0  0
 75 79  2  0  0  0
 76 77  1  0  0  0
 76 78  1  0  0  0
 76 81  2  0  0  0
 77144  1  0  0  0
 77145  1  0  0  0
 78146  1  0  0  0
 78147  1  0  0  0
 79148  1  0  0  0
 80149  1  0  0  0
M  ISO  4   1 100  68 101  78 101  80 100
M  END
> <chiral flag>
0

> <version>
0

> <s_m_source_file>
/data/baiqing/PycharmProjects/Reinvent-master-3.2/result/LINK_invent/BTK/process_docking_weight1_custom_product_contain_oxygen_bond_distance_aromatic_linkinvent_7_9_3/rearranged_h_0160.sdf

> <i_m_source_file_index>
14

> <r_mmod_Potential_Energy-OPLS-2005>
143.950500488281

> <r_mmod_Stretch_Energy-OPLS-2005>
125.853843688965

> <r_mmod_Bend_Energy-OPLS-2005>
182.617980957031

> <r_mmod_Torsional_Energy-OPLS-2005>
209.383895874023

> <r_mmod_Improper_Torsional_Energy-OPLS-2005>
4.36602258682251

> <r_mmod_Van_der_Waal_Energy-OPLS-2005>
118.881324768066

> <r_mmod_Electrostatic_Energy-OPLS-2005>
-327.074676513672

> <r_mmod_Solvation_Energy-OPLS-2005>
-260.811920166016

> <b_mmod_Minimization_Converged-OPLS-2005>
0

> <r_mmod_RMS_Derivative-OPLS-2005>
1.24768018722534

$$$$
14
                    3D
 Structure written by MMmdl.
159167  0  0  1  0            999 V2000
  -30.5583  -14.7659   20.4481 C   0  0  0  0  0  0
  -30.4384  -12.4558   19.4703 C   0  0  0  0  0  0
  -29.5165  -12.5014   18.2294 C   0  0  0  0  0  0
  -28.0405  -12.3170   18.6488 C   0  0  0  0  0  0
  -27.6388  -13.2219   19.8477 C   0  0  2  0  0  0
  -28.6803  -13.1460   20.9853 C   0  0  0  0  0  0
  -25.2474  -13.8184   20.5624 C   0  0  0  0  0  0
  -24.1763  -13.0511   20.9199 C   0  0  0  0  0  0
  -24.6323  -11.6927   20.8778 C   0  0  0  0  0  0
  -23.8994  -10.4312   21.0458 C   0  0  0  0  0  0
  -24.3566   -9.4224   21.9223 C   0  0  0  0  0  0
  -23.6264   -8.2253   22.0757 C   0  0  0  0  0  0
  -22.4257   -8.0257   21.3539 C   0  0  0  0  0  0
  -21.9869   -9.0232   20.4661 C   0  0  0  0  0  0
  -22.7171  -10.2130   20.3103 C   0  0  0  0  0  0
  -21.6831   -6.0727   22.5262 C   0  0  0  0  0  0
  -21.4001   -6.5636   23.8195 C   0  0  0  0  0  0
  -21.3673   -5.6798   24.9172 C   0  0  0  0  0  0
  -21.6035   -4.3047   24.7240 C   0  0  0  0  0  0
  -21.8816   -3.8137   23.4358 C   0  0  0  0  0  0
  -21.9186   -4.6956   22.3401 C   0  0  0  0  0  0
  -22.7779  -13.5272   21.1884 C   0  0  0  0  0  0
  -22.1650   -4.2147   21.0982 F   0  0  0  0  0  0
  -21.5629   -3.4524   25.7756 F   0  0  0  0  0  0
  -29.9786  -13.5111   20.4065 N   0  0  0  0  0  0
  -26.2895  -12.9380   20.3242 N   0  0  0  0  0  0
  -25.9253  -11.6554   20.5721 N   0  0  0  0  0  0
  -22.0419  -12.8296   22.0461 N   0  0  0  0  0  0
  -25.4261  -15.1893   20.3865 N   0  0  0  0  0  0
  -31.7460  -14.9113   20.1481 O   0  0  0  0  0  0
  -21.6618   -6.8856   21.4221 O   0  0  0  0  0  0
  -22.3525  -14.5640   20.6769 O   0  0  0  0  0  0
  -24.6442  -31.8481   23.1941 C   0  0  0  0  0  0
  -25.9221  -32.4729   23.8372 C   0  0  1  0  0  0
  -27.2286  -27.2086   20.0974 C   0  0  0  0  0  0
  -25.5946  -33.8527   24.2341 N   0  0  0  0  0  0
  -23.4438  -30.4672   21.5403 C   0  0  2  0  0  0
  -24.8834  -28.8984   20.1219 C   0  0  0  0  0  0
  -22.7586  -29.4531   22.4890 C   0  0  0  0  0  0
  -18.0287  -28.1398   22.8523 C   0  0  0  0  0  0
  -24.1433  -36.7213   23.2639 C   0  0  0  0  0  0
  -25.9977  -30.7379   21.3868 C   0  0  0  0  0  0
  -26.0601  -29.3507   20.7369 C   0  0  0  0  0  0
  -27.2234  -28.5061   20.7343 C   0  0  0  0  0  0
  -26.0251  -26.8632   19.4389 C   0  0  0  0  0  0
  -24.8682  -27.6596   19.4740 C   0  0  0  0  0  0
  -23.6662  -29.7993   20.1611 C   0  0  0  0  0  0
  -25.4065  -36.3081   24.0399 C   0  0  1  0  0  0
  -20.5900  -28.3735   23.1289 C   0  0  2  0  0  0
  -20.6737  -26.9440   22.5399 C   0  0  0  0  0  0
  -19.5684  -26.6423   21.5213 C   0  0  0  0  0  0
  -18.1892  -26.7927   22.1658 C   0  0  0  0  0  0
  -19.1551  -28.8888   23.2882 C   0  0  0  0  0  0
  -18.9432  -30.1467   23.8951 C   0  0  0  0  0  0
  -17.6436  -30.6634   24.0592 C   0  0  0  0  0  0
  -25.9032  -34.9414   23.5203 C   0  0  0  0  0  0
  -16.5335  -29.9154   23.6327 C   0  0  0  0  0  0
  -16.7254  -28.6508   23.0455 C   0  0  0  0  0  0
  -26.4559  -31.6543   25.0800 C   0  0  0  0  0  0
  -25.3831  -31.3662   26.1609 C   0  0  0  0  0  0
  -27.0392  -30.2955   24.6277 C   0  0  0  0  0  0
  -27.6117  -32.4248   25.7584 C   0  0  0  0  0  0
  -27.5557  -37.1787   24.8524 C   0  0  0  0  0  0
  -21.4275  -29.3053   22.3661 N   0  0  0  0  0  0
  -26.4230  -37.3788   23.9477 N   0  0  0  0  0  0
  -24.7154  -31.0381   22.0944 N   0  0  0  0  0  0
  -23.4244  -28.8132   23.3079 O   0  0  0  0  0  0
  -28.3188  -26.2840   20.1547 O   0  0  0  0  0  0
  -26.5598  -34.8886   22.4784 O   0  0  0  0  0  0
  -23.5540  -32.1303   23.7190 O   0  0  0  0  0  0
  -30.3941  -19.1686   22.3406 C   0  0  0  0  0  0
  -30.0143  -20.1535   21.3925 C   0  0  0  0  0  0
  -30.3454  -17.7850   22.0345 C   0  0  0  0  0  0
  -29.4901  -18.3474   19.8290 C   0  0  0  0  0  0
  -29.5281  -19.7858   20.1087 C   0  0  0  0  0  0
  -29.9107  -17.3142   20.7691 C   0  0  0  0  0  0
  -29.0931  -20.8635   19.0969 C   0  0  0  0  0  0
  -28.8156  -25.0826   18.0531 C   0  0  0  0  0  0
  -29.8771  -26.1478   17.8227 C   0  0  0  0  0  0
  -28.9054  -23.4917   20.1094 C   0  0  0  0  0  0
  -28.3045  -24.9055   19.4873 C   0  0  1  0  0  0
  -28.3748  -24.3822   17.0949 N   0  0  0  0  0  0
  -28.9744  -20.4386   17.8305 N   0  0  0  0  0  0
  -29.6952  -15.8530   20.5784 N   0  0  0  0  0  0
  -28.7928  -22.2280   19.2008 N   0  3  0  0  0  0
  -31.4740  -12.6109   19.1657 H   0  0  0  0  0  0
  -30.3980  -11.4753   19.9446 H   0  0  0  0  0  0
  -29.8069  -11.7260   17.5130 H   0  0  0  0  0  0
  -29.6382  -13.4623   17.7234 H   0  0  0  0  0  0
  -27.9098  -11.2656   18.9112 H   0  0  0  0  0  0
  -27.3873  -12.4988   17.7952 H   0  0  0  0  0  0
  -27.6310  -14.2458   19.4697 H   0  0  0  0  0  0
  -28.7127  -12.1444   21.4272 H   0  0  0  0  0  0
  -28.4099  -13.8170   21.8032 H   0  0  0  0  0  0
  -25.2728   -9.5687   22.4782 H   0  0  0  0  0  0
  -23.9966   -7.4642   22.7476 H   0  0  0  0  0  0
  -21.0801   -8.8758   19.8963 H   0  0  0  0  0  0
  -22.3652  -10.9661   19.6200 H   0  0  0  0  0  0
  -21.1989   -7.6135   23.9691 H   0  0  0  0  0  0
  -21.1494   -6.0536   25.9069 H   0  0  0  0  0  0
  -22.0597   -2.7595   23.2859 H   0  0  0  0  0  0
  -22.4004  -11.9932   22.4806 H   0  0  0  0  0  0
  -21.1044  -13.1355   22.2701 H   0  0  0  0  0  0
  -24.6570  -15.8454   20.4461 H   0  0  0  0  0  0
  -26.2654  -15.5945   19.9955 H   0  0  0  0  0  0
  -26.7347  -32.5362   23.1126 H   0  0  0  0  0  0
  -25.0191  -33.9646   25.0593 H   0  0  0  0  0  0
  -22.7401  -31.2900   21.3804 H   0  0  0  0  0  0
  -23.3718  -35.9525   23.3367 H   0  0  0  0  0  0
  -24.3475  -36.8739   22.2029 H   0  0  0  0  0  0
  -23.7118  -37.6429   23.6561 H   0  0  0  0  0  0
  -26.1546  -31.4754   20.6007 H   0  0  0  0  0  0
  -26.8740  -30.7883   22.0245 H   0  0  0  0  0  0
  -28.1198  -28.8295   21.2454 H   0  0  0  0  0  0
  -25.9287  -25.9521   18.8763 H   0  0  0  0  0  0
  -23.9730  -27.3049   18.9788 H   0  0  0  0  0  0
  -23.8294  -30.5739   19.4093 H   0  0  0  0  0  0
  -22.7814  -29.2464   19.8338 H   0  0  0  0  0  0
  -25.1179  -36.1953   25.0881 H   0  0  0  0  0  0
  -20.9959  -28.3266   24.1420 H   0  0  0  0  0  0
  -20.5538  -26.2368   23.3617 H   0  0  0  0  0  0
  -21.6623  -26.7405   22.1216 H   0  0  0  0  0  0
  -19.6830  -25.6321   21.1265 H   0  0  0  0  0  0
  -19.6605  -27.3226   20.6705 H   0  0  0  0  0  0
  -17.4124  -26.6706   21.4091 H   0  0  0  0  0  0
  -18.0298  -26.0065   22.9026 H   0  0  0  0  0  0
  -19.7918  -30.7253   24.2397 H   0  0  0  0  0  0
  -17.5022  -31.6322   24.5168 H   0  0  0  0  0  0
  -15.5365  -30.3133   23.7578 H   0  0  0  0  0  0
  -15.8618  -28.0831   22.7310 H   0  0  0  0  0  0
  -24.6050  -30.6872   25.8070 H   0  0  0  0  0  0
  -24.8987  -32.2809   26.5016 H   0  0  0  0  0  0
  -25.8328  -30.8965   27.0381 H   0  0  0  0  0  0
  -26.3005  -29.6768   24.1167 H   0  0  0  0  0  0
  -27.3932  -29.7118   25.4769 H   0  0  0  0  0  0
  -27.8942  -30.4232   23.9645 H   0  0  0  0  0  0
  -27.2734  -33.3513   26.2221 H   0  0  0  0  0  0
  -28.3961  -32.6847   25.0462 H   0  0  0  0  0  0
  -28.0781  -31.8320   26.5472 H   0  0  0  0  0  0
  -28.2645  -38.0013   24.7547 H   0  0  0  0  0  0
  -28.0977  -36.2569   24.6358 H   0  0  0  0  0  0
  -27.2311  -37.1501   25.8936 H   0  0  0  0  0  0
  -20.9472  -29.8838   21.6918 H   0  0  0  0  0  0
  -26.0140  -38.2870   24.1451 H   0  0  0  0  0  0
  -30.7067  -19.4840   23.3329 H   0  0  0  0  0  0
  -30.0865  -21.1929   21.6701 H   0  0  0  0  0  0
  -30.6127  -17.0905   22.8219 H   0  0  0  0  0  0
  -29.1165  -18.0068   18.8715 H   0  0  0  0  0  0
  -29.4108  -27.1324   17.7855 H   0  0  0  0  0  0
  -30.3881  -25.9863   16.8722 H   0  0  0  0  0  0
  -30.6265  -26.1356   18.6166 H   0  0  0  0  0  0
  -28.4008  -23.2738   21.0525 H   0  0  0  0  0  0
  -29.9612  -23.6291   20.3491 H   0  0  0  0  0  0
  -27.2622  -24.6012   19.4236 H   0  0  0  0  0  0
  -28.8271  -24.6119   16.2169 H   0  0  0  0  0  0
  -29.0088  -21.0520   17.0290 H   0  0  0  0  0  0
  -29.1056  -19.4551   17.6420 H   0  0  0  0  0  0
  -28.7346  -15.5719   20.6863 H   0  0  0  0  0  0
  -28.2443  -22.5210   18.3938 H   0  0  0  0  0  0
  1 25  1  0  0  0
  1 30  2  0  0  0
  1 84  1  0  0  0
  2  3  1  0  0  0
  2 25  1  0  0  0
  2 86  1  0  0  0
  2 87  1  0  0  0
  3  4  1  0  0  0
  3 88  1  0  0  0
  3 89  1  0  0  0
  4  5  1  0  0  0
  4 90  1  0  0  0
  4 91  1  0  0  0
  5  6  1  0  0  0
  5 26  1  0  0  0
  5 92  1  0  0  0
  6 25  1  0  0  0
  6 93  1  0  0  0
  6 94  1  0  0  0
  7  8  2  0  0  0
  7 26  1  0  0  0
  7 29  1  0  0  0
  8  9  1  0  0  0
  8 22  1  0  0  0
  9 10  1  0  0  0
  9 27  2  0  0  0
 10 11  2  0  0  0
 10 15  1  0  0  0
 11 12  1  0  0  0
 11 95  1  0  0  0
 12 13  2  0  0  0
 12 96  1  0  0  0
 13 14  1  0  0  0
 13 31  1  0  0  0
 14 15  2  0  0  0
 14 97  1  0  0  0
 15 98  1  0  0  0
 16 17  2  0  0  0
 16 21  1  0  0  0
 16 31  1  0  0  0
 17 18  1  0  0  0
 17 99  1  0  0  0
 18 19  2  0  0  0
 18100  1  0  0  0
 19 20  1  0  0  0
 19 24  1  0  0  0
 20 21  2  0  0  0
 20101  1  0  0  0
 21 23  1  0  0  0
 22 28  1  0  0  0
 22 32  2  0  0  0
 26 27  1  0  0  0
 28102  1  0  0  0
 28103  1  0  0  0
 29104  1  0  0  0
 29105  1  0  0  0
 33 34  1  0  0  0
 33 66  1  0  0  0
 33 70  2  0  0  0
 34 36  1  0  0  0
 34 59  1  0  0  0
 34106  1  0  0  0
 35 44  2  0  0  0
 35 45  1  0  0  0
 35 68  1  0  0  0
 36 56  1  0  0  0
 36107  1  0  0  0
 37 39  1  0  0  0
 37 47  1  0  0  0
 37 66  1  0  0  0
 37108  1  0  0  0
 38 43  2  0  0  0
 38 46  1  0  0  0
 38 47  1  0  0  0
 39 64  1  0  0  0
 39 67  2  0  0  0
 40 52  1  0  0  0
 40 53  2  0  0  0
 40 58  1  0  0  0
 41109  1  0  0  0
 41110  1  0  0  0
 41111  1  0  0  0
 41 48  1  0  0  0
 42 43  1  0  0  0
 42 66  1  0  0  0
 42112  1  0  0  0
 42113  1  0  0  0
 43 44  1  0  0  0
 44114  1  0  0  0
 45 46  2  0  0  0
 45115  1  0  0  0
 46116  1  0  0  0
 47117  1  0  0  0
 47118  1  0  0  0
 48 56  1  0  0  0
 48 65  1  0  0  0
 48119  1  0  0  0
 49 50  1  0  0  0
 49 53  1  0  0  0
 49 64  1  0  0  0
 49120  1  0  0  0
 50 51  1  0  0  0
 50121  1  0  0  0
 50122  1  0  0  0
 51 52  1  0  0  0
 51123  1  0  0  0
 51124  1  0  0  0
 52125  1  0  0  0
 52126  1  0  0  0
 53 54  1  0  0  0
 54 55  2  0  0  0
 54127  1  0  0  0
 55 57  1  0  0  0
 55128  1  0  0  0
 56 69  2  0  0  0
 57 58  2  0  0  0
 57129  1  0  0  0
 58130  1  0  0  0
 59 60  1  0  0  0
 59 61  1  0  0  0
 59 62  1  0  0  0
 60131  1  0  0  0
 60132  1  0  0  0
 60133  1  0  0  0
 61134  1  0  0  0
 61135  1  0  0  0
 61136  1  0  0  0
 62137  1  0  0  0
 62138  1  0  0  0
 62139  1  0  0  0
 63 65  1  0  0  0
 63140  1  0  0  0
 63141  1  0  0  0
 63142  1  0  0  0
 64143  1  0  0  0
 65144  1  0  0  0
 68 81  1  0  0  0
 71 72  2  0  0  0
 71 73  1  0  0  0
 71145  1  0  0  0
 72 75  1  0  0  0
 72146  1  0  0  0
 73 76  2  0  0  0
 73147  1  0  0  0
 74 75  2  0  0  0
 74 76  1  0  0  0
 74148  1  0  0  0
 75 77  1  0  0  0
 76 84  1  0  0  0
 77 83  1  0  0  0
 77 85  2  0  0  0
 78 79  1  0  0  0
 78 81  1  0  0  0
 78 82  2  0  0  0
 79149  1  0  0  0
 79150  1  0  0  0
 79151  1  0  0  0
 80 85  1  0  0  0
 80152  1  0  0  0
 80153  1  0  0  0
 80 81  1  0  0  0
 81154  1  0  0  0
 82155  1  0  0  0
 83156  1  0  0  0
 83157  1  0  0  0
 84158  1  0  0  0
 85159  1  0  0  0
M  CHG  1  85   1
M  ISO  4   1 100  68 101  81 101  84 100
M  END
> <chiral flag>
0

> <version>
0

> <s_m_source_file>
/data/baiqing/PycharmProjects/Reinvent-master-3.2/result/LINK_invent/BTK/process_docking_weight1_custom_product_contain_oxygen_bond_distance_aromatic_linkinvent_7_9_3/rearranged_h_0160.sdf

> <i_m_source_file_index>
15

> <r_mmod_Potential_Energy-OPLS-2005>
96.6206893920898

> <r_mmod_Stretch_Energy-OPLS-2005>
160.644454956055

> <r_mmod_Bend_Energy-OPLS-2005>
230.92839050293

> <r_mmod_Torsional_Energy-OPLS-2005>
243.4296875

> <r_mmod_Improper_Torsional_Energy-OPLS-2005>
8.75342273712158

> <r_mmod_Van_der_Waal_Energy-OPLS-2005>
137.587738037109

> <r_mmod_Electrostatic_Energy-OPLS-2005>
-380.785827636719

> <r_mmod_Solvation_Energy-OPLS-2005>
-412.183258056641

> <b_mmod_Minimization_Converged-OPLS-2005>
0

> <r_mmod_RMS_Derivative-OPLS-2005>
10.9357442855835

$$$$
15
                    3D
 Structure written by MMmdl.
155163  0  0  1  0            999 V2000
  -30.7126  -14.4783   20.5841 C   0  0  0  0  0  0
  -30.4223  -12.3186   19.4232 C   0  0  0  0  0  0
  -29.4938  -12.5052   18.2070 C   0  0  0  0  0  0
  -28.0163  -12.3630   18.6206 C   0  0  0  0  0  0
  -27.6600  -13.2094   19.8720 C   0  0  2  0  0  0
  -28.7012  -13.0062   20.9952 C   0  0  0  0  0  0
  -25.2577  -13.8163   20.5672 C   0  0  0  0  0  0
  -24.1837  -13.0435   20.9178 C   0  0  0  0  0  0
  -24.6395  -11.6901   20.8735 C   0  0  0  0  0  0
  -23.9061  -10.4289   21.0401 C   0  0  0  0  0  0
  -24.3616   -9.4206   21.9178 C   0  0  0  0  0  0
  -23.6293   -8.2244   22.0754 C   0  0  0  0  0  0
  -22.4273   -8.0284   21.3547 C   0  0  0  0  0  0
  -21.9907   -9.0252   20.4647 C   0  0  0  0  0  0
  -22.7233  -10.2131   20.3050 C   0  0  0  0  0  0
  -21.6853   -6.0735   22.5277 C   0  0  0  0  0  0
  -21.4012   -6.5639   23.8211 C   0  0  0  0  0  0
  -21.3657   -5.6791   24.9172 C   0  0  0  0  0  0
  -21.6046   -4.3055   24.7224 C   0  0  0  0  0  0
  -21.8820   -3.8146   23.4344 C   0  0  0  0  0  0
  -21.9194   -4.6962   22.3400 C   0  0  0  0  0  0
  -22.7861  -13.5237   21.1836 C   0  0  0  0  0  0
  -22.1663   -4.2148   21.0978 F   0  0  0  0  0  0
  -21.5626   -3.4539   25.7735 F   0  0  0  0  0  0
  -30.0307  -13.3091   20.4395 N   0  0  0  0  0  0
  -26.3015  -12.9340   20.3349 N   0  0  0  0  0  0
  -25.9323  -11.6498   20.5760 N   0  0  0  0  0  0
  -22.0503  -12.8230   22.0397 N   0  0  0  0  0  0
  -25.4306  -15.1886   20.4083 N   0  0  0  0  0  0
  -31.8406  -14.6439   20.1093 O   0  0  0  0  0  0
  -21.6642   -6.8878   21.4241 O   0  0  0  0  0  0
  -22.3545  -14.5541   20.6685 O   0  0  0  0  0  0
  -24.6163  -31.8671   23.2088 C   0  0  0  0  0  0
  -25.9050  -32.4816   23.8393 C   0  0  1  0  0  0
  -27.2307  -27.4241   20.1134 C   0  0  0  0  0  0
  -25.5914  -33.8618   24.2333 N   0  0  0  0  0  0
  -23.4042  -30.4884   21.5502 C   0  0  2  0  0  0
  -24.8535  -28.9544   20.1122 C   0  0  0  0  0  0
  -22.7416  -29.4651   22.5001 C   0  0  0  0  0  0
  -18.0269  -28.1380   22.8496 C   0  0  0  0  0  0
  -24.1493  -36.7310   23.2638 C   0  0  0  0  0  0
  -25.9344  -30.8309   21.3626 C   0  0  0  0  0  0
  -26.0135  -29.4655   20.7101 C   0  0  0  0  0  0
  -27.2097  -28.7091   20.7042 C   0  0  0  0  0  0
  -26.0600  -26.9329   19.4991 C   0  0  0  0  0  0
  -24.8726  -27.6890   19.4995 C   0  0  0  0  0  0
  -23.6118  -29.8163   20.1656 C   0  0  0  0  0  0
  -25.4113  -36.3108   24.0340 C   0  0  1  0  0  0
  -20.5861  -28.3663   23.1322 C   0  0  2  0  0  0
  -20.6761  -26.9401   22.5417 C   0  0  0  0  0  0
  -19.5733  -26.6380   21.5221 C   0  0  0  0  0  0
  -18.1910  -26.7929   22.1620 C   0  0  0  0  0  0
  -19.1520  -28.8839   23.2902 C   0  0  0  0  0  0
  -18.9449  -30.1450   23.8904 C   0  0  0  0  0  0
  -17.6451  -30.6589   24.0558 C   0  0  0  0  0  0
  -25.9031  -34.9473   23.5124 C   0  0  0  0  0  0
  -16.5339  -29.9087   23.6333 C   0  0  0  0  0  0
  -16.7257  -28.6502   23.0359 C   0  0  0  0  0  0
  -26.4476  -31.6606   25.0727 C   0  0  0  0  0  0
  -25.3740  -31.3720   26.1471 C   0  0  0  0  0  0
  -27.0315  -30.3050   24.6108 C   0  0  0  0  0  0
  -27.6048  -32.4329   25.7486 C   0  0  0  0  0  0
  -27.5586  -37.1807   24.8465 C   0  0  0  0  0  0
  -21.4142  -29.3037   22.3750 N   0  0  0  0  0  0
  -26.4302  -37.3792   23.9407 N   0  0  0  0  0  0
  -24.6697  -31.0764   22.0986 N   0  0  0  0  0  0
  -23.4182  -28.8186   23.3042 O   0  0  0  0  0  0
  -28.3603  -26.6362   20.1450 O   0  0  0  0  0  0
  -26.5582  -34.8927   22.4677 O   0  0  0  0  0  0
  -23.5351  -32.1426   23.7473 O   0  0  0  0  0  0
  -29.5466  -17.9361   21.0730 C   0  0  0  0  0  0
  -31.7733  -17.1765   21.7039 C   0  0  0  0  0  0
  -31.2707  -19.5659   21.6263 C   0  0  0  0  0  0
  -30.4556  -16.8643   21.2933 C   0  0  0  0  0  0
  -29.9475  -19.2949   21.2080 C   0  0  0  0  0  0
  -32.1742  -18.5149   21.8722 C   0  0  0  0  0  0
  -28.0740  -22.7800   22.2329 C   0  0  0  0  0  0
  -28.7782  -22.8746   21.0859 C   0  0  0  0  0  0
  -28.9340  -24.2054   20.3994 C   0  0  0  0  0  0
  -29.4403  -21.6511   20.4246 C   0  0  0  0  0  0
  -28.1892  -25.4477   20.9528 C   0  0  0  0  0  0
  -30.0243  -15.5009   21.1415 N   0  0  0  0  0  0
  -29.0217  -20.3315   20.9465 N   0  0  0  0  0  0
  -29.6418  -24.3419   19.3948 O   0  0  0  0  0  0
  -33.4377  -18.7932   22.2765 F   0  0  0  0  0  0
  -31.4656  -12.4190   19.1177 H   0  0  0  0  0  0
  -30.3294  -11.3093   19.8268 H   0  0  0  0  0  0
  -29.7363  -11.7772   17.4313 H   0  0  0  0  0  0
  -29.6587  -13.4891   17.7639 H   0  0  0  0  0  0
  -27.8304  -11.3075   18.8218 H   0  0  0  0  0  0
  -27.3647  -12.6297   17.7869 H   0  0  0  0  0  0
  -27.6999  -14.2550   19.5649 H   0  0  0  0  0  0
  -28.6807  -11.9747   21.3501 H   0  0  0  0  0  0
  -28.4608  -13.6188   21.8650 H   0  0  0  0  0  0
  -25.2763   -9.5682   22.4748 H   0  0  0  0  0  0
  -24.0001   -7.4636   22.7472 H   0  0  0  0  0  0
  -21.0837   -8.8767   19.8954 H   0  0  0  0  0  0
  -22.3692  -10.9666   19.6157 H   0  0  0  0  0  0
  -21.2006   -7.6148   23.9713 H   0  0  0  0  0  0
  -21.1476   -6.0523   25.9076 H   0  0  0  0  0  0
  -22.0603   -2.7609   23.2843 H   0  0  0  0  0  0
  -22.4113  -11.9891   22.4785 H   0  0  0  0  0  0
  -21.1120  -13.1257   22.2598 H   0  0  0  0  0  0
  -24.6631  -15.8437   20.5123 H   0  0  0  0  0  0
  -26.2798  -15.6251   20.0729 H   0  0  0  0  0  0
  -26.7122  -32.5523   23.1163 H   0  0  0  0  0  0
  -25.0139  -33.9799   25.0525 H   0  0  0  0  0  0
  -22.6935  -31.3050   21.4086 H   0  0  0  0  0  0
  -23.3757  -35.9640   23.3306 H   0  0  0  0  0  0
  -24.3593  -36.8915   22.2052 H   0  0  0  0  0  0
  -23.7241  -37.6521   23.6637 H   0  0  0  0  0  0
  -26.0489  -31.5962   20.5934 H   0  0  0  0  0  0
  -26.8222  -30.8847   21.9818 H   0  0  0  0  0  0
  -28.1026  -29.0963   21.1761 H   0  0  0  0  0  0
  -26.0614  -25.9572   19.0329 H   0  0  0  0  0  0
  -23.9825  -27.2896   19.0332 H   0  0  0  0  0  0
  -23.7091  -30.5866   19.3996 H   0  0  0  0  0  0
  -22.7390  -29.2267   19.8778 H   0  0  0  0  0  0
  -25.1291  -36.1979   25.0834 H   0  0  0  0  0  0
  -20.9942  -28.3216   24.1445 H   0  0  0  0  0  0
  -20.5681  -26.2268   23.3603 H   0  0  0  0  0  0
  -21.6630  -26.7456   22.1192 H   0  0  0  0  0  0
  -19.6892  -25.6291   21.1250 H   0  0  0  0  0  0
  -19.6678  -27.3190   20.6750 H   0  0  0  0  0  0
  -17.4190  -26.6700   21.4010 H   0  0  0  0  0  0
  -18.0287  -26.0070   22.9011 H   0  0  0  0  0  0
  -19.7928  -30.7267   24.2268 H   0  0  0  0  0  0
  -17.5008  -31.6277   24.5147 H   0  0  0  0  0  0
  -15.5340  -30.2991   23.7663 H   0  0  0  0  0  0
  -15.8653  -28.0820   22.7079 H   0  0  0  0  0  0
  -24.5900  -30.7082   25.7809 H   0  0  0  0  0  0
  -24.8949  -32.2887   26.4921 H   0  0  0  0  0  0
  -25.8092  -30.8884   27.0224 H   0  0  0  0  0  0
  -26.2866  -29.6805   24.1161 H   0  0  0  0  0  0
  -27.4098  -29.7288   25.4563 H   0  0  0  0  0  0
  -27.8690  -30.4387   23.9257 H   0  0  0  0  0  0
  -27.2661  -33.3619   26.2084 H   0  0  0  0  0  0
  -28.3840  -32.6909   25.0302 H   0  0  0  0  0  0
  -28.0731  -31.8446   26.5386 H   0  0  0  0  0  0
  -28.2602  -38.0104   24.7515 H   0  0  0  0  0  0
  -28.1086  -36.2641   24.6287 H   0  0  0  0  0  0
  -27.2303  -37.1445   25.8866 H   0  0  0  0  0  0
  -20.9305  -29.8789   21.7003 H   0  0  0  0  0  0
  -26.0194  -38.2875   24.1395 H   0  0  0  0  0  0
  -28.5328  -17.7123   20.7720 H   0  0  0  0  0  0
  -32.4925  -16.3960   21.9049 H   0  0  0  0  0  0
  -31.6155  -20.5760   21.7877 H   0  0  0  0  0  0
  -27.6020  -23.6264   22.7081 H   0  0  0  0  0  0
  -27.9555  -21.8309   22.7339 H   0  0  0  0  0  0
  -30.5198  -21.7896   20.4600 H   0  0  0  0  0  0
  -29.1821  -21.6679   19.3641 H   0  0  0  0  0  0
  -28.5583  -25.6590   21.9567 H   0  0  0  0  0  0
  -27.1355  -25.1871   21.0572 H   0  0  0  0  0  0
  -29.0639  -15.2982   21.3737 H   0  0  0  0  0  0
  -28.0751  -20.0496   20.7022 H   0  0  0  0  0  0
  1 25  1  0  0  0
  1 30  2  0  0  0
  1 82  1  0  0  0
  2  3  1  0  0  0
  2 25  1  0  0  0
  2 86  1  0  0  0
  2 87  1  0  0  0
  3  4  1  0  0  0
  3 88  1  0  0  0
  3 89  1  0  0  0
  4  5  1  0  0  0
  4 90  1  0  0  0
  4 91  1  0  0  0
  5  6  1  0  0  0
  5 26  1  0  0  0
  5 92  1  0  0  0
  6 25  1  0  0  0
  6 93  1  0  0  0
  6 94  1  0  0  0
  7  8  2  0  0  0
  7 26  1  0  0  0
  7 29  1  0  0  0
  8  9  1  0  0  0
  8 22  1  0  0  0
  9 10  1  0  0  0
  9 27  2  0  0  0
 10 11  2  0  0  0
 10 15  1  0  0  0
 11 12  1  0  0  0
 11 95  1  0  0  0
 12 13  2  0  0  0
 12 96  1  0  0  0
 13 14  1  0  0  0
 13 31  1  0  0  0
 14 15  2  0  0  0
 14 97  1  0  0  0
 15 98  1  0  0  0
 16 17  2  0  0  0
 16 21  1  0  0  0
 16 31  1  0  0  0
 17 18  1  0  0  0
 17 99  1  0  0  0
 18 19  2  0  0  0
 18100  1  0  0  0
 19 20  1  0  0  0
 19 24  1  0  0  0
 20 21  2  0  0  0
 20101  1  0  0  0
 21 23  1  0  0  0
 22 28  1  0  0  0
 22 32  2  0  0  0
 26 27  1  0  0  0
 28102  1  0  0  0
 28103  1  0  0  0
 29104  1  0  0  0
 29105  1  0  0  0
 33 34  1  0  0  0
 33 66  1  0  0  0
 33 70  2  0  0  0
 34 36  1  0  0  0
 34 59  1  0  0  0
 34106  1  0  0  0
 35 44  2  0  0  0
 35 45  1  0  0  0
 35 68  1  0  0  0
 36 56  1  0  0  0
 36107  1  0  0  0
 37 39  1  0  0  0
 37 47  1  0  0  0
 37 66  1  0  0  0
 37108  1  0  0  0
 38 43  2  0  0  0
 38 46  1  0  0  0
 38 47  1  0  0  0
 39 64  1  0  0  0
 39 67  2  0  0  0
 40 52  1  0  0  0
 40 53  2  0  0  0
 40 58  1  0  0  0
 41109  1  0  0  0
 41110  1  0  0  0
 41111  1  0  0  0
 41 48  1  0  0  0
 42 43  1  0  0  0
 42 66  1  0  0  0
 42112  1  0  0  0
 42113  1  0  0  0
 43 44  1  0  0  0
 44114  1  0  0  0
 45 46  2  0  0  0
 45115  1  0  0  0
 46116  1  0  0  0
 47117  1  0  0  0
 47118  1  0  0  0
 48 56  1  0  0  0
 48 65  1  0  0  0
 48119  1  0  0  0
 49 50  1  0  0  0
 49 53  1  0  0  0
 49 64  1  0  0  0
 49120  1  0  0  0
 50 51  1  0  0  0
 50121  1  0  0  0
 50122  1  0  0  0
 51 52  1  0  0  0
 51123  1  0  0  0
 51124  1  0  0  0
 52125  1  0  0  0
 52126  1  0  0  0
 53 54  1  0  0  0
 54 55  2  0  0  0
 54127  1  0  0  0
 55 57  1  0  0  0
 55128  1  0  0  0
 56 69  2  0  0  0
 57 58  2  0  0  0
 57129  1  0  0  0
 58130  1  0  0  0
 59 60  1  0  0  0
 59 61  1  0  0  0
 59 62  1  0  0  0
 60131  1  0  0  0
 60132  1  0  0  0
 60133  1  0  0  0
 61134  1  0  0  0
 61135  1  0  0  0
 61136  1  0  0  0
 62137  1  0  0  0
 62138  1  0  0  0
 62139  1  0  0  0
 63 65  1  0  0  0
 63140  1  0  0  0
 63141  1  0  0  0
 63142  1  0  0  0
 64143  1  0  0  0
 65144  1  0  0  0
 68 81  1  0  0  0
 71 74  2  0  0  0
 71 75  1  0  0  0
 71145  1  0  0  0
 72 74  1  0  0  0
 72 76  2  0  0  0
 72146  1  0  0  0
 73 75  2  0  0  0
 73 76  1  0  0  0
 73147  1  0  0  0
 74 82  1  0  0  0
 75 83  1  0  0  0
 76 85  1  0  0  0
 77 78  2  0  0  0
 77148  1  0  0  0
 77149  1  0  0  0
 78 79  1  0  0  0
 78 80  1  0  0  0
 79 81  1  0  0  0
 79 84  2  0  0  0
 80 83  1  0  0  0
 80150  1  0  0  0
 80151  1  0  0  0
 81152  1  0  0  0
 81153  1  0  0  0
 82154  1  0  0  0
 83155  1  0  0  0
M  ISO  4   1 100  68 101  81 101  82 100
M  END
> <chiral flag>
0

> <version>
0

> <s_m_source_file>
/data/baiqing/PycharmProjects/Reinvent-master-3.2/result/LINK_invent/BTK/process_docking_weight1_custom_product_contain_oxygen_bond_distance_aromatic_linkinvent_7_9_3/rearranged_h_0160.sdf

> <i_m_source_file_index>
16

> <r_mmod_Potential_Energy-OPLS-2005>
47.2128105163574

> <r_mmod_Stretch_Energy-OPLS-2005>
44.8490104675293

> <r_mmod_Bend_Energy-OPLS-2005>
100.256050109863

> <r_mmod_Torsional_Energy-OPLS-2005>
221.483093261719

> <r_mmod_Improper_Torsional_Energy-OPLS-2005>
5.35855197906494

> <r_mmod_Van_der_Waal_Energy-OPLS-2005>
161.707763671875

> <r_mmod_Electrostatic_Energy-OPLS-2005>
-268.018310546875

> <r_mmod_Solvation_Energy-OPLS-2005>
-233.765243530273

> <b_mmod_Minimization_Converged-OPLS-2005>
0

> <r_mmod_RMS_Derivative-OPLS-2005>
1.5127044916153

$$$$
16
                    3D
 Structure written by MMmdl.
163172  0  0  1  0            999 V2000
  -30.6438  -14.6063   20.5068 C   0  0  0  0  0  0
  -30.4361  -12.3736   19.4499 C   0  0  0  0  0  0
  -29.5096  -12.5119   18.2218 C   0  0  0  0  0  0
  -28.0326  -12.3452   18.6347 C   0  0  0  0  0  0
  -27.6570  -13.2087   19.8671 C   0  0  2  0  0  0
  -28.7005  -13.0575   20.9971 C   0  0  0  0  0  0
  -25.2580  -13.8146   20.5683 C   0  0  0  0  0  0
  -24.1830  -13.0424   20.9164 C   0  0  0  0  0  0
  -24.6387  -11.6896   20.8716 C   0  0  0  0  0  0
  -23.9053  -10.4289   21.0402 C   0  0  0  0  0  0
  -24.3617   -9.4209   21.9174 C   0  0  0  0  0  0
  -23.6297   -8.2239   22.0750 C   0  0  0  0  0  0
  -22.4270   -8.0282   21.3550 C   0  0  0  0  0  0
  -21.9900   -9.0249   20.4653 C   0  0  0  0  0  0
  -22.7230  -10.2119   20.3059 C   0  0  0  0  0  0
  -21.6835   -6.0738   22.5280 C   0  0  0  0  0  0
  -21.4011   -6.5645   23.8213 C   0  0  0  0  0  0
  -21.3659   -5.6793   24.9171 C   0  0  0  0  0  0
  -21.6041   -4.3050   24.7221 C   0  0  0  0  0  0
  -21.8818   -3.8149   23.4341 C   0  0  0  0  0  0
  -21.9184   -4.6971   22.3402 C   0  0  0  0  0  0
  -22.7852  -13.5225   21.1829 C   0  0  0  0  0  0
  -22.1661   -4.2160   21.0977 F   0  0  0  0  0  0
  -21.5636   -3.4533   25.7734 F   0  0  0  0  0  0
  -30.0229  -13.3867   20.4398 N   0  0  0  0  0  0
  -26.3006  -12.9318   20.3317 N   0  0  0  0  0  0
  -25.9313  -11.6481   20.5718 N   0  0  0  0  0  0
  -22.0484  -12.8237   22.0399 N   0  0  0  0  0  0
  -25.4312  -15.1859   20.4115 N   0  0  0  0  0  0
  -31.7813  -14.7839   20.0639 O   0  0  0  0  0  0
  -21.6637   -6.8875   21.4240 O   0  0  0  0  0  0
  -22.3546  -14.5544   20.6684 O   0  0  0  0  0  0
  -24.6231  -31.8639   23.2033 C   0  0  0  0  0  0
  -25.9086  -32.4807   23.8361 C   0  0  1  0  0  0
  -27.2316  -27.3575   20.1073 C   0  0  0  0  0  0
  -25.5903  -33.8601   24.2289 N   0  0  0  0  0  0
  -23.4147  -30.4856   21.5475 C   0  0  2  0  0  0
  -24.8600  -28.9436   20.1129 C   0  0  0  0  0  0
  -22.7451  -29.4641   22.4970 C   0  0  0  0  0  0
  -18.0279  -28.1386   22.8492 C   0  0  0  0  0  0
  -24.1483  -36.7292   23.2642 C   0  0  0  0  0  0
  -25.9520  -30.8071   21.3668 C   0  0  0  0  0  0
  -26.0275  -29.4370   20.7082 C   0  0  0  0  0  0
  -27.2157  -28.6556   20.6941 C   0  0  0  0  0  0
  -26.0392  -26.9023   19.4976 C   0  0  0  0  0  0
  -24.8656  -27.6793   19.5031 C   0  0  0  0  0  0
  -23.6261  -29.8198   20.1627 C   0  0  0  0  0  0
  -25.4108  -36.3102   24.0334 C   0  0  1  0  0  0
  -20.5878  -28.3684   23.1308 C   0  0  2  0  0  0
  -20.6769  -26.9411   22.5430 C   0  0  0  0  0  0
  -19.5748  -26.6388   21.5226 C   0  0  0  0  0  0
  -18.1921  -26.7936   22.1628 C   0  0  0  0  0  0
  -19.1533  -28.8851   23.2896 C   0  0  0  0  0  0
  -18.9457  -30.1454   23.8914 C   0  0  0  0  0  0
  -17.6459  -30.6593   24.0567 C   0  0  0  0  0  0
  -25.9044  -34.9471   23.5111 C   0  0  0  0  0  0
  -16.5355  -29.9099   23.6327 C   0  0  0  0  0  0
  -16.7266  -28.6516   23.0355 C   0  0  0  0  0  0
  -26.4473  -31.6614   25.0724 C   0  0  0  0  0  0
  -25.3721  -31.3744   26.1468 C   0  0  0  0  0  0
  -27.0301  -30.3050   24.6139 C   0  0  0  0  0  0
  -27.6046  -32.4343   25.7486 C   0  0  0  0  0  0
  -27.5575  -37.1798   24.8462 C   0  0  0  0  0  0
  -21.4172  -29.3040   22.3710 N   0  0  0  0  0  0
  -26.4288  -37.3792   23.9410 N   0  0  0  0  0  0
  -24.6821  -31.0666   22.0976 N   0  0  0  0  0  0
  -23.4188  -28.8187   23.3039 O   0  0  0  0  0  0
  -28.3763  -26.5573   20.1488 O   0  0  0  0  0  0
  -26.5619  -34.8934   22.4679 O   0  0  0  0  0  0
  -23.5400  -32.1427   23.7372 O   0  0  0  0  0  0
  -29.2835  -19.5338   19.2015 C   0  0  0  0  0  0
  -30.3533  -18.1472   20.9048 C   0  0  0  0  0  0
  -28.8830  -17.1133   19.2756 C   0  0  0  0  0  0
  -30.1554  -19.4449   20.3041 C   0  0  0  0  0  0
  -28.6417  -18.3822   18.7003 C   0  0  0  0  0  0
  -29.7526  -16.9601   20.3799 C   0  0  0  0  0  0
  -30.4211  -24.8441   21.1831 C   0  0  0  0  0  0
  -29.4383  -24.2500   20.4863 C   0  0  0  0  0  0
  -31.0041  -20.6207   20.6938 C   0  0  0  0  0  0
  -31.6581  -24.1223   21.6345 C   0  0  0  0  0  0
  -29.4868  -22.7078   20.1671 C   0  0  0  0  0  0
  -31.9372  -22.9212   20.7320 C   0  0  0  0  0  0
  -28.2312  -25.1011   20.0020 C   0  0  0  0  0  0
  -30.7648  -21.9945   20.6023 N   0  0  0  0  0  0
  -27.7739  -18.5074   17.6151 N   0  0  0  0  0  0
  -29.8969  -15.6436   20.9796 N   0  0  0  0  0  0
  -32.1990  -20.2427   21.1541 N   0  3  0  0  0  0
  -31.4809  -12.4806   19.1541 H   0  0  0  0  0  0
  -30.3536  -11.3740   19.8790 H   0  0  0  0  0  0
  -29.7742  -11.7754   17.4619 H   0  0  0  0  0  0
  -29.6525  -13.4895   17.7576 H   0  0  0  0  0  0
  -27.8717  -11.2898   18.8623 H   0  0  0  0  0  0
  -27.3761  -12.5788   17.7961 H   0  0  0  0  0  0
  -27.6768  -14.2440   19.5324 H   0  0  0  0  0  0
  -28.7009  -12.0353   21.3797 H   0  0  0  0  0  0
  -28.4448  -13.6891   21.8485 H   0  0  0  0  0  0
  -25.2770   -9.5680   22.4730 H   0  0  0  0  0  0
  -24.0014   -7.4620   22.7450 H   0  0  0  0  0  0
  -21.0843   -8.8766   19.8945 H   0  0  0  0  0  0
  -22.3709  -10.9653   19.6158 H   0  0  0  0  0  0
  -21.2023   -7.6153   23.9723 H   0  0  0  0  0  0
  -21.1474   -6.0520   25.9069 H   0  0  0  0  0  0
  -22.0604   -2.7617   23.2831 H   0  0  0  0  0  0
  -22.4094  -11.9915   22.4835 H   0  0  0  0  0  0
  -21.1095  -13.1259   22.2565 H   0  0  0  0  0  0
  -24.6683  -15.8438   20.5300 H   0  0  0  0  0  0
  -26.2841  -15.6224   20.0909 H   0  0  0  0  0  0
  -26.7161  -32.5490   23.1119 H   0  0  0  0  0  0
  -25.0027  -33.9751   25.0420 H   0  0  0  0  0  0
  -22.7091  -31.3064   21.4058 H   0  0  0  0  0  0
  -23.3757  -35.9612   23.3310 H   0  0  0  0  0  0
  -24.3583  -36.8903   22.2056 H   0  0  0  0  0  0
  -23.7221  -37.6487   23.6663 H   0  0  0  0  0  0
  -26.0764  -31.5730   20.5999 H   0  0  0  0  0  0
  -26.8355  -30.8573   21.9915 H   0  0  0  0  0  0
  -28.1153  -29.0318   21.1604 H   0  0  0  0  0  0
  -25.9898  -25.9348   19.0206 H   0  0  0  0  0  0
  -23.9665  -27.2915   19.0435 H   0  0  0  0  0  0
  -23.7425  -30.5970   19.4065 H   0  0  0  0  0  0
  -22.7472  -29.2468   19.8630 H   0  0  0  0  0  0
  -25.1289  -36.1955   25.0828 H   0  0  0  0  0  0
  -20.9965  -28.3253   24.1433 H   0  0  0  0  0  0
  -20.5678  -26.2286   23.3620 H   0  0  0  0  0  0
  -21.6637  -26.7457   22.1223 H   0  0  0  0  0  0
  -19.6905  -25.6300   21.1252 H   0  0  0  0  0  0
  -19.6689  -27.3207   20.6762 H   0  0  0  0  0  0
  -17.4197  -26.6698   21.4020 H   0  0  0  0  0  0
  -18.0309  -26.0081   22.9028 H   0  0  0  0  0  0
  -19.7939  -30.7259   24.2296 H   0  0  0  0  0  0
  -17.5025  -31.6280   24.5164 H   0  0  0  0  0  0
  -15.5357  -30.3010   23.7638 H   0  0  0  0  0  0
  -15.8669  -28.0837   22.7066 H   0  0  0  0  0  0
  -24.5889  -30.7094   25.7809 H   0  0  0  0  0  0
  -24.8914  -32.2907   26.4911 H   0  0  0  0  0  0
  -25.8064  -30.8921   27.0236 H   0  0  0  0  0  0
  -26.2854  -29.6824   24.1167 H   0  0  0  0  0  0
  -27.4024  -29.7284   25.4615 H   0  0  0  0  0  0
  -27.8715  -30.4354   23.9329 H   0  0  0  0  0  0
  -27.2662  -33.3635   26.2082 H   0  0  0  0  0  0
  -28.3836  -32.6919   25.0299 H   0  0  0  0  0  0
  -28.0742  -31.8465   26.5382 H   0  0  0  0  0  0
  -28.2606  -38.0087   24.7518 H   0  0  0  0  0  0
  -28.1057  -36.2618   24.6276 H   0  0  0  0  0  0
  -27.2297  -37.1441   25.8869 H   0  0  0  0  0  0
  -20.9342  -29.8756   21.6920 H   0  0  0  0  0  0
  -26.0170  -38.2862   24.1435 H   0  0  0  0  0  0
  -29.1363  -20.4789   18.7034 H   0  0  0  0  0  0
  -31.0085  -18.0469   21.7582 H   0  0  0  0  0  0
  -28.3899  -16.2486   18.8605 H   0  0  0  0  0  0
  -30.3669  -25.8935   21.4326 H   0  0  0  0  0  0
  -31.5493  -23.8210   22.6770 H   0  0  0  0  0  0
  -32.5007  -24.8141   21.5843 H   0  0  0  0  0  0
  -29.3710  -22.6016   19.0882 H   0  0  0  0  0  0
  -28.6213  -22.2314   20.6309 H   0  0  0  0  0  0
  -32.8653  -22.4721   21.0815 H   0  0  0  0  0  0
  -32.1795  -23.2796   19.7300 H   0  0  0  0  0  0
  -27.3586  -24.7551   20.5588 H   0  0  0  0  0  0
  -28.0597  -24.8716   18.9498 H   0  0  0  0  0  0
  -27.7617  -19.3656   17.0729 H   0  0  0  0  0  0
  -27.4983  -17.6876   17.0839 H   0  0  0  0  0  0
  -29.0600  -15.3144   21.4381 H   0  0  0  0  0  0
  -32.4382  -19.2633   21.1431 H   0  0  0  0  0  0
  -32.8566  -20.8915   21.5505 H   0  0  0  0  0  0
  1 25  1  0  0  0
  1 30  2  0  0  0
  1 86  1  0  0  0
  2  3  1  0  0  0
  2 25  1  0  0  0
  2 88  1  0  0  0
  2 89  1  0  0  0
  3  4  1  0  0  0
  3 90  1  0  0  0
  3 91  1  0  0  0
  4  5  1  0  0  0
  4 92  1  0  0  0
  4 93  1  0  0  0
  5  6  1  0  0  0
  5 26  1  0  0  0
  5 94  1  0  0  0
  6 25  1  0  0  0
  6 95  1  0  0  0
  6 96  1  0  0  0
  7  8  2  0  0  0
  7 26  1  0  0  0
  7 29  1  0  0  0
  8  9  1  0  0  0
  8 22  1  0  0  0
  9 10  1  0  0  0
  9 27  2  0  0  0
 10 11  2  0  0  0
 10 15  1  0  0  0
 11 12  1  0  0  0
 11 97  1  0  0  0
 12 13  2  0  0  0
 12 98  1  0  0  0
 13 14  1  0  0  0
 13 31  1  0  0  0
 14 15  2  0  0  0
 14 99  1  0  0  0
 15100  1  0  0  0
 16 17  2  0  0  0
 16 21  1  0  0  0
 16 31  1  0  0  0
 17 18  1  0  0  0
 17101  1  0  0  0
 18 19  2  0  0  0
 18102  1  0  0  0
 19 20  1  0  0  0
 19 24  1  0  0  0
 20 21  2  0  0  0
 20103  1  0  0  0
 21 23  1  0  0  0
 22 28  1  0  0  0
 22 32  2  0  0  0
 26 27  1  0  0  0
 28104  1  0  0  0
 28105  1  0  0  0
 29106  1  0  0  0
 29107  1  0  0  0
 33 34  1  0  0  0
 33 66  1  0  0  0
 33 70  2  0  0  0
 34 36  1  0  0  0
 34 59  1  0  0  0
 34108  1  0  0  0
 35 44  2  0  0  0
 35 45  1  0  0  0
 35 68  1  0  0  0
 36 56  1  0  0  0
 36109  1  0  0  0
 37 39  1  0  0  0
 37 47  1  0  0  0
 37 66  1  0  0  0
 37110  1  0  0  0
 38 43  2  0  0  0
 38 46  1  0  0  0
 38 47  1  0  0  0
 39 64  1  0  0  0
 39 67  2  0  0  0
 40 52  1  0  0  0
 40 53  2  0  0  0
 40 58  1  0  0  0
 41111  1  0  0  0
 41112  1  0  0  0
 41113  1  0  0  0
 41 48  1  0  0  0
 42 43  1  0  0  0
 42 66  1  0  0  0
 42114  1  0  0  0
 42115  1  0  0  0
 43 44  1  0  0  0
 44116  1  0  0  0
 45 46  2  0  0  0
 45117  1  0  0  0
 46118  1  0  0  0
 47119  1  0  0  0
 47120  1  0  0  0
 48 56  1  0  0  0
 48 65  1  0  0  0
 48121  1  0  0  0
 49 50  1  0  0  0
 49 53  1  0  0  0
 49 64  1  0  0  0
 49122  1  0  0  0
 50 51  1  0  0  0
 50123  1  0  0  0
 50124  1  0  0  0
 51 52  1  0  0  0
 51125  1  0  0  0
 51126  1  0  0  0
 52127  1  0  0  0
 52128  1  0  0  0
 53 54  1  0  0  0
 54 55  2  0  0  0
 54129  1  0  0  0
 55 57  1  0  0  0
 55130  1  0  0  0
 56 69  2  0  0  0
 57 58  2  0  0  0
 57131  1  0  0  0
 58132  1  0  0  0
 59 60  1  0  0  0
 59 61  1  0  0  0
 59 62  1  0  0  0
 60133  1  0  0  0
 60134  1  0  0  0
 60135  1  0  0  0
 61136  1  0  0  0
 61137  1  0  0  0
 61138  1  0  0  0
 62139  1  0  0  0
 62140  1  0  0  0
 62141  1  0  0  0
 63 65  1  0  0  0
 63142  1  0  0  0
 63143  1  0  0  0
 63144  1  0  0  0
 64145  1  0  0  0
 65146  1  0  0  0
 68 83  1  0  0  0
 71 74  2  0  0  0
 71 75  1  0  0  0
 71147  1  0  0  0
 72 74  1  0  0  0
 72 76  2  0  0  0
 72148  1  0  0  0
 73 75  2  0  0  0
 73 76  1  0  0  0
 73149  1  0  0  0
 74 79  1  0  0  0
 75 85  1  0  0  0
 76 86  1  0  0  0
 77 78  2  0  0  0
 77 80  1  0  0  0
 77150  1  0  0  0
 78 81  1  0  0  0
 78 83  1  0  0  0
 79 84  1  0  0  0
 79 87  2  0  0  0
 80 82  1  0  0  0
 80151  1  0  0  0
 80152  1  0  0  0
 81 84  1  0  0  0
 81153  1  0  0  0
 81154  1  0  0  0
 82 84  1  0  0  0
 82155  1  0  0  0
 82156  1  0  0  0
 83157  1  0  0  0
 83158  1  0  0  0
 85159  1  0  0  0
 85160  1  0  0  0
 86161  1  0  0  0
 87162  1  0  0  0
 87163  1  0  0  0
M  CHG  1  87   1
M  ISO  4   1 100  68 101  83 101  86 100
M  END
> <chiral flag>
0

> <version>
0

> <s_m_source_file>
/data/baiqing/PycharmProjects/Reinvent-master-3.2/result/LINK_invent/BTK/process_docking_weight1_custom_product_contain_oxygen_bond_distance_aromatic_linkinvent_7_9_3/rearranged_h_0160.sdf

> <i_m_source_file_index>
17

> <r_mmod_Potential_Energy-OPLS-2005>
-101.437156677246

> <r_mmod_Stretch_Energy-OPLS-2005>
78.17529296875

> <r_mmod_Bend_Energy-OPLS-2005>
142.431274414062

> <r_mmod_Torsional_Energy-OPLS-2005>
260.615478515625

> <r_mmod_Improper_Torsional_Energy-OPLS-2005>
9.31933116912842

> <r_mmod_Van_der_Waal_Energy-OPLS-2005>
167.611709594727

> <r_mmod_Electrostatic_Energy-OPLS-2005>
-379.160675048828

> <r_mmod_Solvation_Energy-OPLS-2005>
-415.612640380859

> <b_mmod_Minimization_Converged-OPLS-2005>
0

> <r_mmod_RMS_Derivative-OPLS-2005>
2.49450612068176

$$$$
17
                    3D
 Structure written by MMmdl.
151159  0  0  1  0            999 V2000
  -30.5776  -14.8406   20.4233 C   0  0  0  0  0  0
  -30.4278  -12.5204   19.4806 C   0  0  0  0  0  0
  -29.4973  -12.5037   18.2465 C   0  0  0  0  0  0
  -28.0369  -12.2954   18.6770 C   0  0  0  0  0  0
  -27.6279  -13.2265   19.8460 C   0  0  2  0  0  0
  -28.6745  -13.2249   20.9816 C   0  0  0  0  0  0
  -25.2356  -13.7991   20.5627 C   0  0  0  0  0  0
  -24.1706  -13.0259   20.9263 C   0  0  0  0  0  0
  -24.6375  -11.6809   20.8819 C   0  0  0  0  0  0
  -23.9057  -10.4199   21.0427 C   0  0  0  0  0  0
  -24.3611   -9.4144   21.9210 C   0  0  0  0  0  0
  -23.6281   -8.2189   22.0762 C   0  0  0  0  0  0
  -22.4282   -8.0228   21.3519 C   0  0  0  0  0  0
  -21.9909   -9.0205   20.4643 C   0  0  0  0  0  0
  -22.7232  -10.2075   20.3070 C   0  0  0  0  0  0
  -21.6860   -6.0715   22.5258 C   0  0  0  0  0  0
  -21.4038   -6.5636   23.8183 C   0  0  0  0  0  0
  -21.3648   -5.6792   24.9141 C   0  0  0  0  0  0
  -21.6033   -4.3049   24.7207 C   0  0  0  0  0  0
  -21.8838   -3.8139   23.4331 C   0  0  0  0  0  0
  -21.9207   -4.6949   22.3386 C   0  0  0  0  0  0
  -22.7756  -13.5116   21.1886 C   0  0  0  0  0  0
  -22.1657   -4.2133   21.0960 F   0  0  0  0  0  0
  -21.5639   -3.4538   25.7718 F   0  0  0  0  0  0
  -29.9617  -13.6022   20.3850 N   0  0  0  0  0  0
  -26.2854  -12.9286   20.3311 N   0  0  0  0  0  0
  -25.9318  -11.6447   20.5880 N   0  0  0  0  0  0
  -22.0402  -12.8145   22.0467 N   0  0  0  0  0  0
  -25.3729  -15.1624   20.3825 N   0  0  0  0  0  0
  -31.7804  -14.9063   20.1514 O   0  0  0  0  0  0
  -21.6642   -6.8839   21.4204 O   0  0  0  0  0  0
  -22.3463  -14.5390   20.6669 O   0  0  0  0  0  0
  -24.6337  -31.8467   23.1892 C   0  0  0  0  0  0
  -25.9158  -32.4690   23.8237 C   0  0  1  0  0  0
  -27.2453  -27.2366   20.1231 C   0  0  0  0  0  0
  -25.5941  -33.8493   24.2183 N   0  0  0  0  0  0
  -23.4343  -30.4648   21.5293 C   0  0  2  0  0  0
  -24.8838  -28.8932   20.1159 C   0  0  0  0  0  0
  -22.7495  -29.4528   22.4798 C   0  0  0  0  0  0
  -18.0287  -28.1238   22.8481 C   0  0  0  0  0  0
  -24.1489  -36.7274   23.2634 C   0  0  0  0  0  0
  -25.9802  -30.7495   21.3732 C   0  0  0  0  0  0
  -26.0561  -29.3694   20.7133 C   0  0  0  0  0  0
  -27.2352  -28.5557   20.7013 C   0  0  0  0  0  0
  -26.0348  -26.8107   19.5352 C   0  0  0  0  0  0
  -24.8722  -27.6139   19.5325 C   0  0  0  0  0  0
  -23.6656  -29.7974   20.1478 C   0  0  0  0  0  0
  -25.4120  -36.3030   24.0313 C   0  0  1  0  0  0
  -20.5879  -28.3584   23.1141 C   0  0  2  0  0  0
  -20.6735  -26.9236   22.5369 C   0  0  0  0  0  0
  -19.5613  -26.5962   21.5380 C   0  0  0  0  0  0
  -18.1848  -26.7699   22.1798 C   0  0  0  0  0  0
  -19.1543  -28.8749   23.2771 C   0  0  0  0  0  0
  -18.9478  -30.1351   23.8791 C   0  0  0  0  0  0
  -17.6467  -30.6432   24.0538 C   0  0  0  0  0  0
  -25.9070  -34.9406   23.5056 C   0  0  0  0  0  0
  -16.5350  -29.8909   23.6320 C   0  0  0  0  0  0
  -16.7283  -28.6329   23.0360 C   0  0  0  0  0  0
  -26.4528  -31.6538   25.0661 C   0  0  0  0  0  0
  -25.3723  -31.3708   26.1360 C   0  0  0  0  0  0
  -27.0426  -30.2941   24.6221 C   0  0  0  0  0  0
  -27.6043  -32.4316   25.7456 C   0  0  0  0  0  0
  -27.5582  -37.1808   24.8487 C   0  0  0  0  0  0
  -21.4202  -29.2901   22.3464 N   0  0  0  0  0  0
  -26.4292  -37.3756   23.9421 N   0  0  0  0  0  0
  -24.7004  -31.0386   22.0880 N   0  0  0  0  0  0
  -23.4128  -28.8189   23.3040 O   0  0  0  0  0  0
  -28.3660  -26.3687   20.2062 O   0  0  0  0  0  0
  -26.5647  -34.8912   22.4632 O   0  0  0  0  0  0
  -23.5484  -32.1301   23.7198 O   0  0  0  0  0  0
  -27.8042  -20.5013   20.6733 C   0  0  0  0  0  0
  -28.0316  -19.0750   20.7453 C   0  0  0  0  0  0
  -29.3302  -18.8021   20.3608 C   0  0  0  0  0  0
  -28.9196  -21.1049   20.1660 C   0  0  0  0  0  0
  -28.3936  -23.6354   20.2326 C   0  0  0  0  0  0
  -30.2445  -17.4800   20.2554 C   0  0  0  0  0  0
  -28.5391  -25.0582   19.4655 C   0  0  0  0  0  0
  -26.9811  -18.0694   21.1102 C   0  0  0  0  0  0
  -29.0285  -22.4681   19.7827 N   0  0  0  0  0  0
  -29.8087  -16.0109   20.5289 N   0  0  0  0  0  0
  -27.6848  -23.6095   21.2414 O   0  0  0  0  0  0
  -29.8615  -20.0675   19.9553 O   0  0  0  0  0  0
  -27.4318  -17.1995   22.0136 F   0  0  0  0  0  0
  -25.8810  -18.6691   21.5708 F   0  0  0  0  0  0
  -26.6922  -17.4419   19.9745 F   0  0  0  0  0  0
  -31.4619  -12.6627   19.1659 H   0  0  0  0  0  0
  -30.4007  -11.5611   19.9957 H   0  0  0  0  0  0
  -29.8002  -11.7190   17.5534 H   0  0  0  0  0  0
  -29.5745  -13.4452   17.7013 H   0  0  0  0  0  0
  -27.9375  -11.2516   18.9841 H   0  0  0  0  0  0
  -27.3601  -12.4278   17.8328 H   0  0  0  0  0  0
  -27.5986  -14.2298   19.4220 H   0  0  0  0  0  0
  -28.7466  -12.2428   21.4522 H   0  0  0  0  0  0
  -28.3899  -13.9257   21.7684 H   0  0  0  0  0  0
  -25.2753   -9.5639   22.4775 H   0  0  0  0  0  0
  -23.9993   -7.4595   22.7494 H   0  0  0  0  0  0
  -21.0853   -8.8747   19.8937 H   0  0  0  0  0  0
  -22.3714  -10.9625   19.6186 H   0  0  0  0  0  0
  -21.2049   -7.6153   23.9683 H   0  0  0  0  0  0
  -21.1441   -6.0516   25.9044 H   0  0  0  0  0  0
  -22.0637   -2.7607   23.2821 H   0  0  0  0  0  0
  -22.4073  -11.9832   22.4879 H   0  0  0  0  0  0
  -21.0999  -13.1138   22.2600 H   0  0  0  0  0  0
  -24.5542  -15.7587   20.4017 H   0  0  0  0  0  0
  -26.1784  -15.6182   19.9723 H   0  0  0  0  0  0
  -26.7207  -32.5334   23.0956 H   0  0  0  0  0  0
  -25.0191  -33.9600   25.0398 H   0  0  0  0  0  0
  -22.7333  -31.2877   21.3784 H   0  0  0  0  0  0
  -23.3740  -35.9624   23.3295 H   0  0  0  0  0  0
  -24.3600  -36.8906   22.2054 H   0  0  0  0  0  0
  -23.7262  -37.6476   23.6678 H   0  0  0  0  0  0
  -26.1337  -31.5119   20.6076 H   0  0  0  0  0  0
  -26.8507  -30.7880   22.0169 H   0  0  0  0  0  0
  -28.1322  -28.9303   21.1713 H   0  0  0  0  0  0
  -25.9524  -25.8135   19.1273 H   0  0  0  0  0  0
  -23.9601  -27.2144   19.1086 H   0  0  0  0  0  0
  -23.8424  -30.5776   19.4074 H   0  0  0  0  0  0
  -22.7752  -29.2654   19.8070 H   0  0  0  0  0  0
  -25.1304  -36.1856   25.0808 H   0  0  0  0  0  0
  -20.9980  -28.3175   24.1245 H   0  0  0  0  0  0
  -20.5787  -26.2226   23.3693 H   0  0  0  0  0  0
  -21.6488  -26.7192   22.0968 H   0  0  0  0  0  0
  -19.6659  -25.5671   21.1884 H   0  0  0  0  0  0
  -19.6498  -27.2412   20.6634 H   0  0  0  0  0  0
  -17.4100  -26.6289   21.4241 H   0  0  0  0  0  0
  -18.0243  -26.0027   22.9407 H   0  0  0  0  0  0
  -19.7959  -30.7147   24.2178 H   0  0  0  0  0  0
  -17.4961  -31.6067   24.5207 H   0  0  0  0  0  0
  -15.5327  -30.2710   23.7671 H   0  0  0  0  0  0
  -15.8691  -28.0566   22.7197 H   0  0  0  0  0  0
  -24.5876  -30.7094   25.7659 H   0  0  0  0  0  0
  -24.8945  -32.2894   26.4756 H   0  0  0  0  0  0
  -25.7982  -30.8866   27.0154 H   0  0  0  0  0  0
  -26.3027  -29.6590   24.1318 H   0  0  0  0  0  0
  -27.4164  -29.7298   25.4777 H   0  0  0  0  0  0
  -27.8879  -30.4188   23.9451 H   0  0  0  0  0  0
  -27.2600  -33.3617   26.1994 H   0  0  0  0  0  0
  -28.3875  -32.6873   25.0305 H   0  0  0  0  0  0
  -28.0706  -31.8484   26.5409 H   0  0  0  0  0  0
  -28.2597  -38.0100   24.7496 H   0  0  0  0  0  0
  -28.1072  -36.2621   24.6348 H   0  0  0  0  0  0
  -27.2320  -37.1527   25.8900 H   0  0  0  0  0  0
  -20.9478  -29.8250   21.6313 H   0  0  0  0  0  0
  -26.0136  -38.2821   24.1430 H   0  0  0  0  0  0
  -26.8836  -21.0132   20.9097 H   0  0  0  0  0  0
  -30.6711  -17.4761   19.2515 H   0  0  0  0  0  0
  -31.0946  -17.6481   20.9134 H   0  0  0  0  0  0
  -27.9289  -25.0507   18.5631 H   0  0  0  0  0  0
  -29.5671  -25.0908   19.0997 H   0  0  0  0  0  0
  -29.6396  -22.6323   18.9935 H   0  0  0  0  0  0
  -28.8340  -15.8649   20.7413 H   0  0  0  0  0  0
  1 25  1  0  0  0
  1 30  2  0  0  0
  1 80  1  0  0  0
  2  3  1  0  0  0
  2 25  1  0  0  0
  2 86  1  0  0  0
  2 87  1  0  0  0
  3  4  1  0  0  0
  3 88  1  0  0  0
  3 89  1  0  0  0
  4  5  1  0  0  0
  4 90  1  0  0  0
  4 91  1  0  0  0
  5  6  1  0  0  0
  5 26  1  0  0  0
  5 92  1  0  0  0
  6 25  1  0  0  0
  6 93  1  0  0  0
  6 94  1  0  0  0
  7  8  2  0  0  0
  7 26  1  0  0  0
  7 29  1  0  0  0
  8  9  1  0  0  0
  8 22  1  0  0  0
  9 10  1  0  0  0
  9 27  2  0  0  0
 10 11  2  0  0  0
 10 15  1  0  0  0
 11 12  1  0  0  0
 11 95  1  0  0  0
 12 13  2  0  0  0
 12 96  1  0  0  0
 13 14  1  0  0  0
 13 31  1  0  0  0
 14 15  2  0  0  0
 14 97  1  0  0  0
 15 98  1  0  0  0
 16 17  2  0  0  0
 16 21  1  0  0  0
 16 31  1  0  0  0
 17 18  1  0  0  0
 17 99  1  0  0  0
 18 19  2  0  0  0
 18100  1  0  0  0
 19 20  1  0  0  0
 19 24  1  0  0  0
 20 21  2  0  0  0
 20101  1  0  0  0
 21 23  1  0  0  0
 22 28  1  0  0  0
 22 32  2  0  0  0
 26 27  1  0  0  0
 28102  1  0  0  0
 28103  1  0  0  0
 29104  1  0  0  0
 29105  1  0  0  0
 33 34  1  0  0  0
 33 66  1  0  0  0
 33 70  2  0  0  0
 34 36  1  0  0  0
 34 59  1  0  0  0
 34106  1  0  0  0
 35 44  2  0  0  0
 35 45  1  0  0  0
 35 68  1  0  0  0
 36 56  1  0  0  0
 36107  1  0  0  0
 37 39  1  0  0  0
 37 47  1  0  0  0
 37 66  1  0  0  0
 37108  1  0  0  0
 38 43  2  0  0  0
 38 46  1  0  0  0
 38 47  1  0  0  0
 39 64  1  0  0  0
 39 67  2  0  0  0
 40 52  1  0  0  0
 40 53  2  0  0  0
 40 58  1  0  0  0
 41109  1  0  0  0
 41110  1  0  0  0
 41111  1  0  0  0
 41 48  1  0  0  0
 42 43  1  0  0  0
 42 66  1  0  0  0
 42112  1  0  0  0
 42113  1  0  0  0
 43 44  1  0  0  0
 44114  1  0  0  0
 45 46  2  0  0  0
 45115  1  0  0  0
 46116  1  0  0  0
 47117  1  0  0  0
 47118  1  0  0  0
 48 56  1  0  0  0
 48 65  1  0  0  0
 48119  1  0  0  0
 49 50  1  0  0  0
 49 53  1  0  0  0
 49 64  1  0  0  0
 49120  1  0  0  0
 50 51  1  0  0  0
 50121  1  0  0  0
 50122  1  0  0  0
 51 52  1  0  0  0
 51123  1  0  0  0
 51124  1  0  0  0
 52125  1  0  0  0
 52126  1  0  0  0
 53 54  1  0  0  0
 54 55  2  0  0  0
 54127  1  0  0  0
 55 57  1  0  0  0
 55128  1  0  0  0
 56 69  2  0  0  0
 57 58  2  0  0  0
 57129  1  0  0  0
 58130  1  0  0  0
 59 60  1  0  0  0
 59 61  1  0  0  0
 59 62  1  0  0  0
 60131  1  0  0  0
 60132  1  0  0  0
 60133  1  0  0  0
 61134  1  0  0  0
 61135  1  0  0  0
 61136  1  0  0  0
 62137  1  0  0  0
 62138  1  0  0  0
 62139  1  0  0  0
 63 65  1  0  0  0
 63140  1  0  0  0
 63141  1  0  0  0
 63142  1  0  0  0
 64143  1  0  0  0
 65144  1  0  0  0
 68 77  1  0  0  0
 71 72  1  0  0  0
 71 74  2  0  0  0
 71145  1  0  0  0
 72 73  2  0  0  0
 72 78  1  0  0  0
 73 76  1  0  0  0
 73 82  1  0  0  0
 74 79  1  0  0  0
 74 82  1  0  0  0
 75 77  1  0  0  0
 75 79  1  0  0  0
 75 81  2  0  0  0
 76 80  1  0  0  0
 76146  1  0  0  0
 76147  1  0  0  0
 77148  1  0  0  0
 77149  1  0  0  0
 78 83  1  0  0  0
 78 84  1  0  0  0
 78 85  1  0  0  0
 79150  1  0  0  0
 80151  1  0  0  0
M  ISO  4   1 100  68 101  77 101  80 100
M  END
> <chiral flag>
0

> <version>
0

> <s_m_source_file>
/data/baiqing/PycharmProjects/Reinvent-master-3.2/result/LINK_invent/BTK/process_docking_weight1_custom_product_contain_oxygen_bond_distance_aromatic_linkinvent_7_9_3/rearranged_h_0160.sdf

> <i_m_source_file_index>
18

> <r_mmod_Potential_Energy-OPLS-2005>
130.358505249023

> <r_mmod_Stretch_Energy-OPLS-2005>
153.436141967773

> <r_mmod_Bend_Energy-OPLS-2005>
212.225860595703

> <r_mmod_Torsional_Energy-OPLS-2005>
214.621063232422

> <r_mmod_Improper_Torsional_Energy-OPLS-2005>
6.95528507232666

> <r_mmod_Van_der_Waal_Energy-OPLS-2005>
114.548210144043

> <r_mmod_Electrostatic_Energy-OPLS-2005>
-460.377136230469

> <r_mmod_Solvation_Energy-OPLS-2005>
-231.333877563477

> <b_mmod_Minimization_Converged-OPLS-2005>
0

> <r_mmod_RMS_Derivative-OPLS-2005>
5.45794677734375

$$$$
18
                    3D
 Structure written by MMmdl.
147155  0  0  1  0            999 V2000
  -30.5876  -14.8408   20.4316 C   0  0  0  0  0  0
  -30.4332  -12.5142   19.4898 C   0  0  0  0  0  0
  -29.5147  -12.5098   18.2477 C   0  0  0  0  0  0
  -28.0444  -12.3174   18.6643 C   0  0  0  0  0  0
  -27.6346  -13.2395   19.8432 C   0  0  2  0  0  0
  -28.6779  -13.2274   20.9809 C   0  0  0  0  0  0
  -25.2483  -13.8209   20.5700 C   0  0  0  0  0  0
  -24.1786  -13.0442   20.9214 C   0  0  0  0  0  0
  -24.6391  -11.6923   20.8758 C   0  0  0  0  0  0
  -23.9073  -10.4295   21.0410 C   0  0  0  0  0  0
  -24.3624   -9.4207   21.9184 C   0  0  0  0  0  0
  -23.6296   -8.2241   22.0753 C   0  0  0  0  0  0
  -22.4278   -8.0282   21.3543 C   0  0  0  0  0  0
  -21.9916   -9.0257   20.4646 C   0  0  0  0  0  0
  -22.7247  -10.2136   20.3056 C   0  0  0  0  0  0
  -21.6853   -6.0737   22.5278 C   0  0  0  0  0  0
  -21.4012   -6.5640   23.8211 C   0  0  0  0  0  0
  -21.3658   -5.6794   24.9173 C   0  0  0  0  0  0
  -21.6044   -4.3057   24.7225 C   0  0  0  0  0  0
  -21.8821   -3.8149   23.4346 C   0  0  0  0  0  0
  -21.9192   -4.6965   22.3402 C   0  0  0  0  0  0
  -22.7807  -13.5217   21.1871 C   0  0  0  0  0  0
  -22.1662   -4.2150   21.0978 F   0  0  0  0  0  0
  -21.5628   -3.4540   25.7736 F   0  0  0  0  0  0
  -29.9668  -13.6029   20.3888 N   0  0  0  0  0  0
  -26.2905  -12.9424   20.3260 N   0  0  0  0  0  0
  -25.9320  -11.6563   20.5754 N   0  0  0  0  0  0
  -22.0458  -12.8205   22.0430 N   0  0  0  0  0  0
  -25.4158  -15.1934   20.4113 N   0  0  0  0  0  0
  -31.7892  -14.8864   20.1498 O   0  0  0  0  0  0
  -21.6640   -6.8883   21.4239 O   0  0  0  0  0  0
  -22.3487  -14.5518   20.6713 O   0  0  0  0  0  0
  -24.6365  -31.8498   23.1938 C   0  0  0  0  0  0
  -25.9167  -32.4726   23.8300 C   0  0  1  0  0  0
  -27.2118  -27.1988   20.1468 C   0  0  0  0  0  0
  -25.5936  -33.8529   24.2212 N   0  0  0  0  0  0
  -23.4364  -30.4710   21.5381 C   0  0  2  0  0  0
  -24.8840  -28.9070   20.1122 C   0  0  0  0  0  0
  -22.7526  -29.4577   22.4891 C   0  0  0  0  0  0
  -18.0294  -28.1396   22.8487 C   0  0  0  0  0  0
  -24.1484  -36.7264   23.2644 C   0  0  0  0  0  0
  -25.9874  -30.7428   21.3839 C   0  0  0  0  0  0
  -26.0582  -29.3583   20.7299 C   0  0  0  0  0  0
  -27.2256  -28.5174   20.7350 C   0  0  0  0  0  0
  -26.0171  -26.8325   19.4913 C   0  0  0  0  0  0
  -24.8714  -27.6541   19.4804 C   0  0  0  0  0  0
  -23.6591  -29.8030   20.1558 C   0  0  0  0  0  0
  -25.4118  -36.3046   24.0317 C   0  0  1  0  0  0
  -20.5904  -28.3705   23.1257 C   0  0  2  0  0  0
  -20.6783  -26.9414   22.5409 C   0  0  0  0  0  0
  -19.5757  -26.6384   21.5215 C   0  0  0  0  0  0
  -18.1939  -26.7935   22.1628 C   0  0  0  0  0  0
  -19.1551  -28.8869   23.2866 C   0  0  0  0  0  0
  -18.9472  -30.1474   23.8877 C   0  0  0  0  0  0
  -17.6471  -30.6593   24.0566 C   0  0  0  0  0  0
  -25.9065  -34.9422   23.5070 C   0  0  0  0  0  0
  -16.5360  -29.9089   23.6346 C   0  0  0  0  0  0
  -16.7282  -28.6512   23.0357 C   0  0  0  0  0  0
  -26.4517  -31.6582   25.0721 C   0  0  0  0  0  0
  -25.3717  -31.3762   26.1424 C   0  0  0  0  0  0
  -27.0379  -30.2987   24.6265 C   0  0  0  0  0  0
  -27.6050  -32.4342   25.7501 C   0  0  0  0  0  0
  -27.5568  -37.1788   24.8467 C   0  0  0  0  0  0
  -21.4228  -29.3036   22.3629 N   0  0  0  0  0  0
  -26.4283  -37.3755   23.9407 N   0  0  0  0  0  0
  -24.7061  -31.0411   22.0942 N   0  0  0  0  0  0
  -23.4196  -28.8126   23.3022 O   0  0  0  0  0  0
  -28.2793  -26.2527   20.1686 O   0  0  0  0  0  0
  -26.5648  -34.8914   22.4647 O   0  0  0  0  0  0
  -23.5500  -32.1346   23.7199 O   0  0  0  0  0  0
  -31.4555  -17.8879   20.1518 C   0  0  0  0  0  0
  -30.1729  -17.4833   20.4176 C   0  0  0  0  0  0
  -29.2941  -18.7003   20.4831 C   0  0  0  0  0  0
  -29.8997  -19.9737   20.2547 C   0  0  0  0  0  0
  -28.0372  -24.8411   20.3958 C   0  0  0  0  0  0
  -28.8823  -23.7472   20.1578 C   0  0  0  0  0  0
  -28.5752  -22.2680   20.4518 C   0  0  0  0  0  0
  -29.8246  -16.0171   20.5831 N   0  0  0  0  0  0
  -29.5871  -21.3616   20.1481 N   0  0  0  0  0  0
  -27.5082  -21.8777   20.9272 O   0  0  0  0  0  0
  -30.0829  -24.0141   19.6231 O   0  0  0  0  0  0
  -28.0096  -18.5699   20.7208 F   0  0  0  0  0  0
  -31.5984  -19.6270   19.9706 S   0  0  0  0  0  0
  -31.4718  -12.6456   19.1823 H   0  0  0  0  0  0
  -30.3967  -11.5520   20.0034 H   0  0  0  0  0  0
  -29.8146  -11.7198   17.5577 H   0  0  0  0  0  0
  -29.6236  -13.4500   17.7049 H   0  0  0  0  0  0
  -27.9231  -11.2738   18.9562 H   0  0  0  0  0  0
  -27.3831  -12.4725   17.8112 H   0  0  0  0  0  0
  -27.6123  -14.2495   19.4333 H   0  0  0  0  0  0
  -28.7377  -12.2428   21.4471 H   0  0  0  0  0  0
  -28.3973  -13.9256   21.7713 H   0  0  0  0  0  0
  -25.2773   -9.5681   22.4761 H   0  0  0  0  0  0
  -24.0006   -7.4632   22.7472 H   0  0  0  0  0  0
  -21.0847   -8.8777   19.8951 H   0  0  0  0  0  0
  -22.3707  -10.9673   19.6167 H   0  0  0  0  0  0
  -21.2005   -7.6149   23.9715 H   0  0  0  0  0  0
  -21.1476   -6.0524   25.9076 H   0  0  0  0  0  0
  -22.0601   -2.7611   23.2844 H   0  0  0  0  0  0
  -22.4084  -11.9875   22.4829 H   0  0  0  0  0  0
  -21.1070  -13.1216   22.2631 H   0  0  0  0  0  0
  -24.6473  -15.8456   20.5230 H   0  0  0  0  0  0
  -26.2598  -15.6365   20.0723 H   0  0  0  0  0  0
  -26.7229  -32.5353   23.1029 H   0  0  0  0  0  0
  -25.0058  -33.9651   25.0340 H   0  0  0  0  0  0
  -22.7371  -31.2962   21.3876 H   0  0  0  0  0  0
  -23.3747  -35.9595   23.3306 H   0  0  0  0  0  0
  -24.3572  -36.8891   22.2060 H   0  0  0  0  0  0
  -23.7240  -37.6462   23.6678 H   0  0  0  0  0  0
  -26.1350  -31.4981   20.6106 H   0  0  0  0  0  0
  -26.8620  -30.7938   22.0211 H   0  0  0  0  0  0
  -28.1250  -28.8562   21.2293 H   0  0  0  0  0  0
  -25.9541  -25.8718   19.0007 H   0  0  0  0  0  0
  -23.9739  -27.3058   18.9872 H   0  0  0  0  0  0
  -23.7920  -30.5781   19.3996 H   0  0  0  0  0  0
  -22.7752  -29.2425   19.8469 H   0  0  0  0  0  0
  -25.1306  -36.1879   25.0810 H   0  0  0  0  0  0
  -21.0003  -28.3286   24.1377 H   0  0  0  0  0  0
  -20.5687  -26.2310   23.3620 H   0  0  0  0  0  0
  -21.6653  -26.7434   22.1202 H   0  0  0  0  0  0
  -19.6916  -25.6294   21.1251 H   0  0  0  0  0  0
  -19.6700  -27.3197   20.6747 H   0  0  0  0  0  0
  -17.4209  -26.6686   21.4029 H   0  0  0  0  0  0
  -18.0336  -26.0082   22.9029 H   0  0  0  0  0  0
  -19.7948  -30.7304   24.2225 H   0  0  0  0  0  0
  -17.5024  -31.6273   24.5172 H   0  0  0  0  0  0
  -15.5363  -30.2986   23.7686 H   0  0  0  0  0  0
  -15.8681  -28.0832   22.7070 H   0  0  0  0  0  0
  -24.5890  -30.7112   25.7753 H   0  0  0  0  0  0
  -24.8913  -32.2947   26.4805 H   0  0  0  0  0  0
  -25.8013  -30.8968   27.0227 H   0  0  0  0  0  0
  -26.2989  -29.6716   24.1264 H   0  0  0  0  0  0
  -27.4006  -29.7275   25.4821 H   0  0  0  0  0  0
  -27.8887  -30.4241   23.9562 H   0  0  0  0  0  0
  -27.2639  -33.3652   26.2036 H   0  0  0  0  0  0
  -28.3883  -32.6886   25.0349 H   0  0  0  0  0  0
  -28.0693  -31.8498   26.5452 H   0  0  0  0  0  0
  -28.2592  -38.0078   24.7504 H   0  0  0  0  0  0
  -28.1053  -36.2608   24.6305 H   0  0  0  0  0  0
  -27.2285  -37.1449   25.8871 H   0  0  0  0  0  0
  -20.9420  -29.8736   21.6811 H   0  0  0  0  0  0
  -26.0148  -38.2818   24.1421 H   0  0  0  0  0  0
  -32.3471  -17.2856   20.0355 H   0  0  0  0  0  0
  -27.0566  -24.6808   20.8249 H   0  0  0  0  0  0
  -28.8508  -15.8445   20.7807 H   0  0  0  0  0  0
  -30.3646  -21.8986   19.7851 H   0  0  0  0  0  0
  -30.1207  -24.9534   19.4918 H   0  0  0  0  0  0
  1 25  1  0  0  0
  1 30  2  0  0  0
  1 78  1  0  0  0
  2  3  1  0  0  0
  2 25  1  0  0  0
  2 84  1  0  0  0
  2 85  1  0  0  0
  3  4  1  0  0  0
  3 86  1  0  0  0
  3 87  1  0  0  0
  4  5  1  0  0  0
  4 88  1  0  0  0
  4 89  1  0  0  0
  5  6  1  0  0  0
  5 26  1  0  0  0
  5 90  1  0  0  0
  6 25  1  0  0  0
  6 91  1  0  0  0
  6 92  1  0  0  0
  7  8  2  0  0  0
  7 26  1  0  0  0
  7 29  1  0  0  0
  8  9  1  0  0  0
  8 22  1  0  0  0
  9 10  1  0  0  0
  9 27  2  0  0  0
 10 11  2  0  0  0
 10 15  1  0  0  0
 11 12  1  0  0  0
 11 93  1  0  0  0
 12 13  2  0  0  0
 12 94  1  0  0  0
 13 14  1  0  0  0
 13 31  1  0  0  0
 14 15  2  0  0  0
 14 95  1  0  0  0
 15 96  1  0  0  0
 16 17  2  0  0  0
 16 21  1  0  0  0
 16 31  1  0  0  0
 17 18  1  0  0  0
 17 97  1  0  0  0
 18 19  2  0  0  0
 18 98  1  0  0  0
 19 20  1  0  0  0
 19 24  1  0  0  0
 20 21  2  0  0  0
 20 99  1  0  0  0
 21 23  1  0  0  0
 22 28  1  0  0  0
 22 32  2  0  0  0
 26 27  1  0  0  0
 28100  1  0  0  0
 28101  1  0  0  0
 29102  1  0  0  0
 29103  1  0  0  0
 33 34  1  0  0  0
 33 66  1  0  0  0
 33 70  2  0  0  0
 34 36  1  0  0  0
 34 59  1  0  0  0
 34104  1  0  0  0
 35 44  2  0  0  0
 35 45  1  0  0  0
 35 68  1  0  0  0
 36 56  1  0  0  0
 36105  1  0  0  0
 37 39  1  0  0  0
 37 47  1  0  0  0
 37 66  1  0  0  0
 37106  1  0  0  0
 38 43  2  0  0  0
 38 46  1  0  0  0
 38 47  1  0  0  0
 39 64  1  0  0  0
 39 67  2  0  0  0
 40 52  1  0  0  0
 40 53  2  0  0  0
 40 58  1  0  0  0
 41107  1  0  0  0
 41108  1  0  0  0
 41109  1  0  0  0
 41 48  1  0  0  0
 42 43  1  0  0  0
 42 66  1  0  0  0
 42110  1  0  0  0
 42111  1  0  0  0
 43 44  1  0  0  0
 44112  1  0  0  0
 45 46  2  0  0  0
 45113  1  0  0  0
 46114  1  0  0  0
 47115  1  0  0  0
 47116  1  0  0  0
 48 56  1  0  0  0
 48 65  1  0  0  0
 48117  1  0  0  0
 49 50  1  0  0  0
 49 53  1  0  0  0
 49 64  1  0  0  0
 49118  1  0  0  0
 50 51  1  0  0  0
 50119  1  0  0  0
 50120  1  0  0  0
 51 52  1  0  0  0
 51121  1  0  0  0
 51122  1  0  0  0
 52123  1  0  0  0
 52124  1  0  0  0
 53 54  1  0  0  0
 54 55  2  0  0  0
 54125  1  0  0  0
 55 57  1  0  0  0
 55126  1  0  0  0
 56 69  2  0  0  0
 57 58  2  0  0  0
 57127  1  0  0  0
 58128  1  0  0  0
 59 60  1  0  0  0
 59 61  1  0  0  0
 59 62  1  0  0  0
 60129  1  0  0  0
 60130  1  0  0  0
 60131  1  0  0  0
 61132  1  0  0  0
 61133  1  0  0  0
 61134  1  0  0  0
 62135  1  0  0  0
 62136  1  0  0  0
 62137  1  0  0  0
 63 65  1  0  0  0
 63138  1  0  0  0
 63139  1  0  0  0
 63140  1  0  0  0
 64141  1  0  0  0
 65142  1  0  0  0
 68 75  1  0  0  0
 71 72  2  0  0  0
 71 83  1  0  0  0
 71143  1  0  0  0
 72 73  1  0  0  0
 72 78  1  0  0  0
 73 74  2  0  0  0
 73 82  1  0  0  0
 74 79  1  0  0  0
 74 83  1  0  0  0
 75 76  2  0  0  0
 75144  1  0  0  0
 76 77  1  0  0  0
 76 81  1  0  0  0
 77 79  1  0  0  0
 77 80  2  0  0  0
 78145  1  0  0  0
 79146  1  0  0  0
 81147  1  0  0  0
M  ISO  4   1 100  68 101  75 101  78 100
M  END
> <chiral flag>
0

> <version>
0

> <s_m_source_file>
/data/baiqing/PycharmProjects/Reinvent-master-3.2/result/LINK_invent/BTK/process_docking_weight1_custom_product_contain_oxygen_bond_distance_aromatic_linkinvent_7_9_3/rearranged_h_0160.sdf

> <i_m_source_file_index>
19

> <r_mmod_Potential_Energy-OPLS-2005>
165.424468994141

> <r_mmod_Stretch_Energy-OPLS-2005>
158.064605712891

> <r_mmod_Bend_Energy-OPLS-2005>
221.910827636719

> <r_mmod_Torsional_Energy-OPLS-2005>
208.380645751953

> <r_mmod_Improper_Torsional_Energy-OPLS-2005>
4.54244899749756

> <r_mmod_Van_der_Waal_Energy-OPLS-2005>
119.364158630371

> <r_mmod_Electrostatic_Energy-OPLS-2005>
-457.251922607422

> <r_mmod_Solvation_Energy-OPLS-2005>
-220.241180419922

> <b_mmod_Minimization_Converged-OPLS-2005>
0

> <r_mmod_RMS_Derivative-OPLS-2005>
0.784621179103851

$$$$
19
                    3D
 Structure written by MMmdl.
147155  0  0  1  0            999 V2000
  -30.5574  -14.8099   20.4450 C   0  0  0  0  0  0
  -30.4461  -12.4943   19.4734 C   0  0  0  0  0  0
  -29.5160  -12.5113   18.2381 C   0  0  0  0  0  0
  -28.0433  -12.3207   18.6541 C   0  0  0  0  0  0
  -27.6396  -13.2271   19.8464 C   0  0  2  0  0  0
  -28.6862  -13.1740   20.9810 C   0  0  0  0  0  0
  -25.2509  -13.8173   20.5688 C   0  0  0  0  0  0
  -24.1804  -13.0428   20.9223 C   0  0  0  0  0  0
  -24.6390  -11.6905   20.8758 C   0  0  0  0  0  0
  -23.9065  -10.4286   21.0414 C   0  0  0  0  0  0
  -24.3618   -9.4200   21.9187 C   0  0  0  0  0  0
  -23.6292   -8.2237   22.0754 C   0  0  0  0  0  0
  -22.4274   -8.0278   21.3543 C   0  0  0  0  0  0
  -21.9911   -9.0252   20.4647 C   0  0  0  0  0  0
  -22.7240  -10.2132   20.3060 C   0  0  0  0  0  0
  -21.6851   -6.0735   22.5279 C   0  0  0  0  0  0
  -21.4014   -6.5640   23.8212 C   0  0  0  0  0  0
  -21.3659   -5.6793   24.9174 C   0  0  0  0  0  0
  -21.6044   -4.3056   24.7226 C   0  0  0  0  0  0
  -21.8818   -3.8148   23.4347 C   0  0  0  0  0  0
  -21.9192   -4.6963   22.3403 C   0  0  0  0  0  0
  -22.7827  -13.5217   21.1880 C   0  0  0  0  0  0
  -22.1660   -4.2150   21.0981 F   0  0  0  0  0  0
  -21.5630   -3.4539   25.7738 F   0  0  0  0  0  0
  -29.9792  -13.5554   20.3967 N   0  0  0  0  0  0
  -26.2925  -12.9369   20.3256 N   0  0  0  0  0  0
  -25.9316  -11.6520   20.5746 N   0  0  0  0  0  0
  -22.0472  -12.8208   22.0435 N   0  0  0  0  0  0
  -25.4177  -15.1901   20.4078 N   0  0  0  0  0  0
  -31.7578  -14.9312   20.1749 O   0  0  0  0  0  0
  -21.6638   -6.8875   21.4239 O   0  0  0  0  0  0
  -22.3516  -14.5523   20.6722 O   0  0  0  0  0  0
  -24.6343  -31.8515   23.1939 C   0  0  0  0  0  0
  -25.9151  -32.4735   23.8303 C   0  0  1  0  0  0
  -27.2250  -27.2299   20.1463 C   0  0  0  0  0  0
  -25.5931  -33.8538   24.2226 N   0  0  0  0  0  0
  -23.4336  -30.4706   21.5380 C   0  0  2  0  0  0
  -24.8834  -28.9048   20.1169 C   0  0  0  0  0  0
  -22.7519  -29.4579   22.4902 C   0  0  0  0  0  0
  -18.0294  -28.1387   22.8482 C   0  0  0  0  0  0
  -24.1489  -36.7277   23.2641 C   0  0  0  0  0  0
  -25.9812  -30.7555   21.3770 C   0  0  0  0  0  0
  -26.0565  -29.3726   20.7239 C   0  0  0  0  0  0
  -27.2335  -28.5508   20.7193 C   0  0  0  0  0  0
  -26.0288  -26.8289   19.5184 C   0  0  0  0  0  0
  -24.8758  -27.6421   19.5014 C   0  0  0  0  0  0
  -23.6556  -29.7972   20.1576 C   0  0  0  0  0  0
  -25.4118  -36.3057   24.0321 C   0  0  1  0  0  0
  -20.5899  -28.3701   23.1263 C   0  0  2  0  0  0
  -20.6780  -26.9414   22.5409 C   0  0  0  0  0  0
  -19.5756  -26.6381   21.5212 C   0  0  0  0  0  0
  -18.1938  -26.7927   22.1626 C   0  0  0  0  0  0
  -19.1548  -28.8862   23.2865 C   0  0  0  0  0  0
  -18.9468  -30.1461   23.8885 C   0  0  0  0  0  0
  -17.6467  -30.6587   24.0561 C   0  0  0  0  0  0
  -25.9060  -34.9430   23.5080 C   0  0  0  0  0  0
  -16.5358  -29.9083   23.6332 C   0  0  0  0  0  0
  -16.7281  -28.6501   23.0353 C   0  0  0  0  0  0
  -26.4506  -31.6576   25.0711 C   0  0  0  0  0  0
  -25.3719  -31.3740   26.1425 C   0  0  0  0  0  0
  -27.0363  -30.2987   24.6224 C   0  0  0  0  0  0
  -27.6046  -32.4331   25.7492 C   0  0  0  0  0  0
  -27.5578  -37.1792   24.8463 C   0  0  0  0  0  0
  -21.4221  -29.3041   22.3648 N   0  0  0  0  0  0
  -26.4287  -37.3761   23.9409 N   0  0  0  0  0  0
  -24.7023  -31.0449   22.0928 N   0  0  0  0  0  0
  -23.4202  -28.8129   23.3023 O   0  0  0  0  0  0
  -28.3157  -26.3239   20.1368 O   0  0  0  0  0  0
  -26.5642  -34.8914   22.4656 O   0  0  0  0  0  0
  -23.5484  -32.1347   23.7217 O   0  0  0  0  0  0
  -28.8550  -18.2569   20.1981 C   0  0  0  0  0  0
  -29.4397  -19.5789   20.3799 C   0  0  0  0  0  0
  -29.8354  -17.3072   20.5121 C   0  0  0  0  0  0
  -28.6061  -23.6069   19.9576 C   0  0  0  0  0  0
  -29.0755  -22.2416   20.7056 C   0  0  0  0  0  0
  -28.1515  -24.9446   20.7528 C   0  0  0  0  0  0
  -30.6898  -19.4149   20.8080 N   0  0  0  0  0  0
  -28.8030  -20.8593   20.1012 N   0  0  0  0  0  0
  -29.6916  -15.9010   20.5480 N   0  0  0  0  0  0
  -28.5733  -23.6068   18.7226 O   0  0  0  0  0  0
  -30.9525  -18.0137   20.8769 O   0  0  0  0  0  0
  -31.4819  -12.6485   19.1661 H   0  0  0  0  0  0
  -30.4204  -11.5208   19.9657 H   0  0  0  0  0  0
  -29.8093  -11.7317   17.5338 H   0  0  0  0  0  0
  -29.6269  -13.4588   17.7086 H   0  0  0  0  0  0
  -27.9137  -11.2732   18.9291 H   0  0  0  0  0  0
  -27.3825  -12.4948   17.8041 H   0  0  0  0  0  0
  -27.6253  -14.2434   19.4531 H   0  0  0  0  0  0
  -28.7398  -12.1748   21.4160 H   0  0  0  0  0  0
  -28.4107  -13.8456   21.7961 H   0  0  0  0  0  0
  -25.2762   -9.5678   22.4763 H   0  0  0  0  0  0
  -24.0001   -7.4628   22.7472 H   0  0  0  0  0  0
  -21.0843   -8.8773   19.8953 H   0  0  0  0  0  0
  -22.3695  -10.9674   19.6176 H   0  0  0  0  0  0
  -21.2004   -7.6148   23.9715 H   0  0  0  0  0  0
  -21.1483   -6.0524   25.9077 H   0  0  0  0  0  0
  -22.0598   -2.7610   23.2845 H   0  0  0  0  0  0
  -22.4091  -11.9870   22.4823 H   0  0  0  0  0  0
  -21.1091  -13.1231   22.2644 H   0  0  0  0  0  0
  -24.6395  -15.8330   20.5084 H   0  0  0  0  0  0
  -26.2395  -15.6286   20.0155 H   0  0  0  0  0  0
  -26.7217  -32.5376   23.1043 H   0  0  0  0  0  0
  -25.0063  -33.9666   25.0361 H   0  0  0  0  0  0
  -22.7317  -31.2933   21.3864 H   0  0  0  0  0  0
  -23.3752  -35.9608   23.3297 H   0  0  0  0  0  0
  -24.3576  -36.8911   22.2057 H   0  0  0  0  0  0
  -23.7244  -37.6474   23.6676 H   0  0  0  0  0  0
  -26.1219  -31.5127   20.6045 H   0  0  0  0  0  0
  -26.8574  -30.8082   22.0117 H   0  0  0  0  0  0
  -28.1361  -28.9097   21.1937 H   0  0  0  0  0  0
  -25.9807  -25.8589   19.0435 H   0  0  0  0  0  0
  -23.9783  -27.2780   19.0208 H   0  0  0  0  0  0
  -23.7852  -30.5702   19.3992 H   0  0  0  0  0  0
  -22.7733  -29.2322   19.8515 H   0  0  0  0  0  0
  -25.1304  -36.1893   25.0813 H   0  0  0  0  0  0
  -20.9990  -28.3281   24.1384 H   0  0  0  0  0  0
  -20.5676  -26.2311   23.3617 H   0  0  0  0  0  0
  -21.6648  -26.7430   22.1205 H   0  0  0  0  0  0
  -19.6918  -25.6289   21.1248 H   0  0  0  0  0  0
  -19.6696  -27.3185   20.6738 H   0  0  0  0  0  0
  -17.4206  -26.6667   21.4031 H   0  0  0  0  0  0
  -18.0343  -26.0072   22.9027 H   0  0  0  0  0  0
  -19.7944  -30.7279   24.2249 H   0  0  0  0  0  0
  -17.5021  -31.6267   24.5165 H   0  0  0  0  0  0
  -15.5357  -30.2981   23.7663 H   0  0  0  0  0  0
  -15.8681  -28.0817   22.7072 H   0  0  0  0  0  0
  -24.5891  -30.7094   25.7752 H   0  0  0  0  0  0
  -24.8916  -32.2917   26.4830 H   0  0  0  0  0  0
  -25.8025  -30.8928   27.0215 H   0  0  0  0  0  0
  -26.2958  -29.6723   24.1235 H   0  0  0  0  0  0
  -27.4019  -29.7264   25.4760 H   0  0  0  0  0  0
  -27.8844  -30.4252   23.9491 H   0  0  0  0  0  0
  -27.2635  -33.3633   26.2048 H   0  0  0  0  0  0
  -28.3868  -32.6890   25.0334 H   0  0  0  0  0  0
  -28.0701  -31.8474   26.5429 H   0  0  0  0  0  0
  -28.2587  -38.0096   24.7515 H   0  0  0  0  0  0
  -28.1082  -36.2626   24.6283 H   0  0  0  0  0  0
  -27.2296  -37.1431   25.8866 H   0  0  0  0  0  0
  -20.9416  -29.8753   21.6837 H   0  0  0  0  0  0
  -26.0161  -38.2831   24.1417 H   0  0  0  0  0  0
  -27.8491  -18.0377   19.8735 H   0  0  0  0  0  0
  -28.6322  -22.2581   21.7017 H   0  0  0  0  0  0
  -30.1508  -22.3271   20.8655 H   0  0  0  0  0  0
  -28.6975  -24.9522   21.6959 H   0  0  0  0  0  0
  -27.1057  -24.8075   21.0277 H   0  0  0  0  0  0
  -27.8739  -20.7808   19.7005 H   0  0  0  0  0  0
  -28.7342  -15.6034   20.6233 H   0  0  0  0  0  0
  1 25  1  0  0  0
  1 30  2  0  0  0
  1 79  1  0  0  0
  2  3  1  0  0  0
  2 25  1  0  0  0
  2 82  1  0  0  0
  2 83  1  0  0  0
  3  4  1  0  0  0
  3 84  1  0  0  0
  3 85  1  0  0  0
  4  5  1  0  0  0
  4 86  1  0  0  0
  4 87  1  0  0  0
  5  6  1  0  0  0
  5 26  1  0  0  0
  5 88  1  0  0  0
  6 25  1  0  0  0
  6 89  1  0  0  0
  6 90  1  0  0  0
  7  8  2  0  0  0
  7 26  1  0  0  0
  7 29  1  0  0  0
  8  9  1  0  0  0
  8 22  1  0  0  0
  9 10  1  0  0  0
  9 27  2  0  0  0
 10 11  2  0  0  0
 10 15  1  0  0  0
 11 12  1  0  0  0
 11 91  1  0  0  0
 12 13  2  0  0  0
 12 92  1  0  0  0
 13 14  1  0  0  0
 13 31  1  0  0  0
 14 15  2  0  0  0
 14 93  1  0  0  0
 15 94  1  0  0  0
 16 17  2  0  0  0
 16 21  1  0  0  0
 16 31  1  0  0  0
 17 18  1  0  0  0
 17 95  1  0  0  0
 18 19  2  0  0  0
 18 96  1  0  0  0
 19 20  1  0  0  0
 19 24  1  0  0  0
 20 21  2  0  0  0
 20 97  1  0  0  0
 21 23  1  0  0  0
 22 28  1  0  0  0
 22 32  2  0  0  0
 26 27  1  0  0  0
 28 98  1  0  0  0
 28 99  1  0  0  0
 29100  1  0  0  0
 29101  1  0  0  0
 33 34  1  0  0  0
 33 66  1  0  0  0
 33 70  2  0  0  0
 34 36  1  0  0  0
 34 59  1  0  0  0
 34102  1  0  0  0
 35 44  2  0  0  0
 35 45  1  0  0  0
 35 68  1  0  0  0
 36 56  1  0  0  0
 36103  1  0  0  0
 37 39  1  0  0  0
 37 47  1  0  0  0
 37 66  1  0  0  0
 37104  1  0  0  0
 38 43  2  0  0  0
 38 46  1  0  0  0
 38 47  1  0  0  0
 39 64  1  0  0  0
 39 67  2  0  0  0
 40 52  1  0  0  0
 40 53  2  0  0  0
 40 58  1  0  0  0
 41105  1  0  0  0
 41106  1  0  0  0
 41107  1  0  0  0
 41 48  1  0  0  0
 42 43  1  0  0  0
 42 66  1  0  0  0
 42108  1  0  0  0
 42109  1  0  0  0
 43 44  1  0  0  0
 44110  1  0  0  0
 45 46  2  0  0  0
 45111  1  0  0  0
 46112  1  0  0  0
 47113  1  0  0  0
 47114  1  0  0  0
 48 56  1  0  0  0
 48 65  1  0  0  0
 48115  1  0  0  0
 49 50  1  0  0  0
 49 53  1  0  0  0
 49 64  1  0  0  0
 49116  1  0  0  0
 50 51  1  0  0  0
 50117  1  0  0  0
 50118  1  0  0  0
 51 52  1  0  0  0
 51119  1  0  0  0
 51120  1  0  0  0
 52121  1  0  0  0
 52122  1  0  0  0
 53 54  1  0  0  0
 54 55  2  0  0  0
 54123  1  0  0  0
 55 57  1  0  0  0
 55124  1  0  0  0
 56 69  2  0  0  0
 57 58  2  0  0  0
 57125  1  0  0  0
 58126  1  0  0  0
 59 60  1  0  0  0
 59 61  1  0  0  0
 59 62  1  0  0  0
 60127  1  0  0  0
 60128  1  0  0  0
 60129  1  0  0  0
 61130  1  0  0  0
 61131  1  0  0  0
 61132  1  0  0  0
 62133  1  0  0  0
 62134  1  0  0  0
 62135  1  0  0  0
 63 65  1  0  0  0
 63136  1  0  0  0
 63137  1  0  0  0
 63138  1  0  0  0
 64139  1  0  0  0
 65140  1  0  0  0
 68 76  1  0  0  0
 71 72  1  0  0  0
 71 73  2  0  0  0
 71141  1  0  0  0
 72 77  2  0  0  0
 72 78  1  0  0  0
 73 79  1  0  0  0
 73 81  1  0  0  0
 74 75  1  0  0  0
 74 76  1  0  0  0
 74 80  2  0  0  0
 75 78  1  0  0  0
 75142  1  0  0  0
 75143  1  0  0  0
 76144  1  0  0  0
 76145  1  0  0  0
 77 81  1  0  0  0
 78146  1  0  0  0
 79147  1  0  0  0
M  ISO  4   1 100  68 101  76 101  79 100
M  END
> <chiral flag>
0

> <version>
0

> <s_m_source_file>
/data/baiqing/PycharmProjects/Reinvent-master-3.2/result/LINK_invent/BTK/process_docking_weight1_custom_product_contain_oxygen_bond_distance_aromatic_linkinvent_7_9_3/rearranged_h_0160.sdf

> <i_m_source_file_index>
20

> <r_mmod_Potential_Energy-OPLS-2005>
68.4721832275391

> <r_mmod_Stretch_Energy-OPLS-2005>
133.694198608398

> <r_mmod_Bend_Energy-OPLS-2005>
199.503952026367

> <r_mmod_Torsional_Energy-OPLS-2005>
224.942642211914

> <r_mmod_Improper_Torsional_Energy-OPLS-2005>
7.66502094268799

> <r_mmod_Van_der_Waal_Energy-OPLS-2005>
108.71019744873

> <r_mmod_Electrostatic_Energy-OPLS-2005>
-439.5078125

> <r_mmod_Solvation_Energy-OPLS-2005>
-276.694976806641

> <b_mmod_Minimization_Converged-OPLS-2005>
0

> <r_mmod_RMS_Derivative-OPLS-2005>
0.301415592432022

$$$$
20
                    3D
 Structure written by MMmdl.
147155  0  0  1  0            999 V2000
  -30.5615  -14.9007   20.4329 C   0  0  0  0  0  0
  -30.4372  -12.5569   19.4909 C   0  0  0  0  0  0
  -29.5150  -12.5147   18.2507 C   0  0  0  0  0  0
  -28.0466  -12.3127   18.6703 C   0  0  0  0  0  0
  -27.6300  -13.2434   19.8392 C   0  0  2  0  0  0
  -28.6740  -13.2525   20.9760 C   0  0  0  0  0  0
  -25.2461  -13.8209   20.5700 C   0  0  0  0  0  0
  -24.1776  -13.0441   20.9231 C   0  0  0  0  0  0
  -24.6388  -11.6923   20.8769 C   0  0  0  0  0  0
  -23.9075  -10.4291   21.0414 C   0  0  0  0  0  0
  -24.3626   -9.4200   21.9181 C   0  0  0  0  0  0
  -23.6295   -8.2244   22.0752 C   0  0  0  0  0  0
  -22.4276   -8.0284   21.3546 C   0  0  0  0  0  0
  -21.9918   -9.0258   20.4652 C   0  0  0  0  0  0
  -22.7253  -10.2133   20.3062 C   0  0  0  0  0  0
  -21.6855   -6.0733   22.5276 C   0  0  0  0  0  0
  -21.4016   -6.5638   23.8208 C   0  0  0  0  0  0
  -21.3657   -5.6793   24.9170 C   0  0  0  0  0  0
  -21.6046   -4.3056   24.7227 C   0  0  0  0  0  0
  -21.8821   -3.8145   23.4350 C   0  0  0  0  0  0
  -21.9192   -4.6960   22.3403 C   0  0  0  0  0  0
  -22.7798  -13.5212   21.1887 C   0  0  0  0  0  0
  -22.1665   -4.2140   21.0985 F   0  0  0  0  0  0
  -21.5625   -3.4546   25.7743 F   0  0  0  0  0  0
  -29.9550  -13.6502   20.3802 N   0  0  0  0  0  0
  -26.2882  -12.9436   20.3253 N   0  0  0  0  0  0
  -25.9316  -11.6572   20.5758 N   0  0  0  0  0  0
  -22.0460  -12.8192   22.0452 N   0  0  0  0  0  0
  -25.4126  -15.1937   20.4096 N   0  0  0  0  0  0
  -31.7660  -14.9529   20.1595 O   0  0  0  0  0  0
  -21.6644   -6.8879   21.4242 O   0  0  0  0  0  0
  -22.3472  -14.5504   20.6718 O   0  0  0  0  0  0
  -24.6392  -31.8466   23.1908 C   0  0  0  0  0  0
  -25.9174  -32.4714   23.8285 C   0  0  1  0  0  0
  -27.2193  -27.1638   20.1573 C   0  0  0  0  0  0
  -25.5930  -33.8520   24.2199 N   0  0  0  0  0  0
  -23.4416  -30.4654   21.5356 C   0  0  2  0  0  0
  -24.8931  -28.8946   20.1119 C   0  0  0  0  0  0
  -22.7546  -29.4553   22.4877 C   0  0  0  0  0  0
  -18.0297  -28.1393   22.8484 C   0  0  0  0  0  0
  -24.1491  -36.7270   23.2650 C   0  0  0  0  0  0
  -25.9948  -30.7280   21.3874 C   0  0  0  0  0  0
  -26.0669  -29.3401   20.7338 C   0  0  0  0  0  0
  -27.2308  -28.4885   20.7438 C   0  0  0  0  0  0
  -26.0254  -26.8152   19.4890 C   0  0  0  0  0  0
  -24.8831  -27.6437   19.4747 C   0  0  0  0  0  0
  -23.6676  -29.7933   20.1548 C   0  0  0  0  0  0
  -25.4127  -36.3047   24.0317 C   0  0  1  0  0  0
  -20.5905  -28.3710   23.1250 C   0  0  2  0  0  0
  -20.6780  -26.9416   22.5412 C   0  0  0  0  0  0
  -19.5756  -26.6377   21.5219 C   0  0  0  0  0  0
  -18.1938  -26.7929   22.1633 C   0  0  0  0  0  0
  -19.1553  -28.8872   23.2858 C   0  0  0  0  0  0
  -18.9473  -30.1471   23.8875 C   0  0  0  0  0  0
  -17.6469  -30.6592   24.0559 C   0  0  0  0  0  0
  -25.9063  -34.9418   23.5065 C   0  0  0  0  0  0
  -16.5358  -29.9085   23.6336 C   0  0  0  0  0  0
  -16.7281  -28.6503   23.0358 C   0  0  0  0  0  0
  -26.4509  -31.6580   25.0715 C   0  0  0  0  0  0
  -25.3695  -31.3759   26.1407 C   0  0  0  0  0  0
  -27.0390  -30.2985   24.6287 C   0  0  0  0  0  0
  -27.6025  -32.4362   25.7503 C   0  0  0  0  0  0
  -27.5560  -37.1816   24.8486 C   0  0  0  0  0  0
  -21.4242  -29.3040   22.3628 N   0  0  0  0  0  0
  -26.4309  -37.3737   23.9374 N   0  0  0  0  0  0
  -24.7111  -31.0344   22.0929 N   0  0  0  0  0  0
  -23.4204  -28.8103   23.3017 O   0  0  0  0  0  0
  -28.2818  -26.1990   20.1932 O   0  0  0  0  0  0
  -26.5652  -34.8906   22.4647 O   0  0  0  0  0  0
  -23.5519  -32.1327   23.7146 O   0  0  0  0  0  0
  -31.3495  -18.0086   20.4401 C   0  0  0  0  0  0
  -31.2280  -19.4389   20.3749 C   0  0  0  0  0  0
  -30.0817  -17.4816   20.5058 C   0  0  0  0  0  0
  -29.9201  -19.8471   20.4078 C   0  0  0  0  0  0
  -28.0397  -24.7679   20.3684 C   0  0  0  0  0  0
  -28.9213  -23.6716   20.2450 C   0  0  0  0  0  0
  -28.5890  -22.1731   20.4594 C   0  0  0  0  0  0
  -29.6315  -21.2499   20.3025 N   0  0  0  0  0  0
  -29.7797  -16.0775   20.5780 N   0  0  0  0  0  0
  -27.4621  -21.7780   20.7620 O   0  0  0  0  0  0
  -29.1642  -18.6206   20.4969 O   0  0  0  0  0  0
  -30.1889  -23.9501   19.9084 O   0  0  0  0  0  0
  -32.2809  -20.2873   20.2864 F   0  0  0  0  0  0
  -31.4704  -12.7101   19.1750 H   0  0  0  0  0  0
  -30.4259  -11.6013   20.0175 H   0  0  0  0  0  0
  -29.8250  -11.7158   17.5756 H   0  0  0  0  0  0
  -29.6109  -13.4460   17.6909 H   0  0  0  0  0  0
  -27.9347  -11.2713   18.9748 H   0  0  0  0  0  0
  -27.3810  -12.4518   17.8168 H   0  0  0  0  0  0
  -27.5983  -14.2481   19.4169 H   0  0  0  0  0  0
  -28.7499  -12.2717   21.4470 H   0  0  0  0  0  0
  -28.3809  -13.9506   21.7616 H   0  0  0  0  0  0
  -25.2769   -9.5673   22.4756 H   0  0  0  0  0  0
  -24.0001   -7.4636   22.7468 H   0  0  0  0  0  0
  -21.0848   -8.8787   19.8956 H   0  0  0  0  0  0
  -22.3712  -10.9677   19.6176 H   0  0  0  0  0  0
  -21.2013   -7.6144   23.9706 H   0  0  0  0  0  0
  -21.1474   -6.0523   25.9069 H   0  0  0  0  0  0
  -22.0599   -2.7608   23.2850 H   0  0  0  0  0  0
  -22.4106  -11.9871   22.4853 H   0  0  0  0  0  0
  -21.1075  -13.1200   22.2664 H   0  0  0  0  0  0
  -24.6412  -15.8429   20.5184 H   0  0  0  0  0  0
  -26.2456  -15.6338   20.0415 H   0  0  0  0  0  0
  -26.7239  -32.5331   23.1017 H   0  0  0  0  0  0
  -25.0041  -33.9642   25.0322 H   0  0  0  0  0  0
  -22.7418  -31.2893   21.3825 H   0  0  0  0  0  0
  -23.3716  -35.9650   23.3411 H   0  0  0  0  0  0
  -24.3540  -36.8794   22.2042 H   0  0  0  0  0  0
  -23.7311  -37.6528   23.6617 H   0  0  0  0  0  0
  -26.1463  -31.4819   20.6137 H   0  0  0  0  0  0
  -26.8669  -30.7803   22.0274 H   0  0  0  0  0  0
  -28.1270  -28.8242   21.2470 H   0  0  0  0  0  0
  -25.9587  -25.8584   18.9907 H   0  0  0  0  0  0
  -23.9888  -27.2998   18.9740 H   0  0  0  0  0  0
  -23.7989  -30.5670   19.3975 H   0  0  0  0  0  0
  -22.7839  -29.2312   19.8474 H   0  0  0  0  0  0
  -25.1331  -36.1895   25.0815 H   0  0  0  0  0  0
  -20.9998  -28.3296   24.1371 H   0  0  0  0  0  0
  -20.5673  -26.2320   23.3628 H   0  0  0  0  0  0
  -21.6645  -26.7422   22.1206 H   0  0  0  0  0  0
  -19.6910  -25.6281   21.1265 H   0  0  0  0  0  0
  -19.6695  -27.3171   20.6737 H   0  0  0  0  0  0
  -17.4204  -26.6669   21.4040 H   0  0  0  0  0  0
  -18.0340  -26.0077   22.9037 H   0  0  0  0  0  0
  -19.7950  -30.7298   24.2226 H   0  0  0  0  0  0
  -17.5022  -31.6269   24.5167 H   0  0  0  0  0  0
  -15.5358  -30.2982   23.7673 H   0  0  0  0  0  0
  -15.8679  -28.0815   22.7084 H   0  0  0  0  0  0
  -24.5902  -30.7073   25.7733 H   0  0  0  0  0  0
  -24.8845  -32.2935   26.4748 H   0  0  0  0  0  0
  -25.7979  -30.9004   27.0237 H   0  0  0  0  0  0
  -26.3018  -29.6705   24.1269 H   0  0  0  0  0  0
  -27.3990  -29.7282   25.4861 H   0  0  0  0  0  0
  -27.8922  -30.4241   23.9616 H   0  0  0  0  0  0
  -27.2588  -33.3659   26.2055 H   0  0  0  0  0  0
  -28.3843  -32.6944   25.0346 H   0  0  0  0  0  0
  -28.0692  -31.8519   26.5445 H   0  0  0  0  0  0
  -28.2668  -38.0017   24.7388 H   0  0  0  0  0  0
  -28.0963  -36.2543   24.6517 H   0  0  0  0  0  0
  -27.2246  -37.1710   25.8885 H   0  0  0  0  0  0
  -20.9444  -29.8749   21.6809 H   0  0  0  0  0  0
  -26.0190  -38.2831   24.1284 H   0  0  0  0  0  0
  -32.2727  -17.4490   20.4342 H   0  0  0  0  0  0
  -27.0105  -24.5861   20.6473 H   0  0  0  0  0  0
  -30.4726  -21.7709   20.0877 H   0  0  0  0  0  0
  -28.8023  -15.8785   20.7231 H   0  0  0  0  0  0
  -30.2456  -24.8928   19.8128 H   0  0  0  0  0  0
  1 25  1  0  0  0
  1 30  2  0  0  0
  1 79  1  0  0  0
  2  3  1  0  0  0
  2 25  1  0  0  0
  2 84  1  0  0  0
  2 85  1  0  0  0
  3  4  1  0  0  0
  3 86  1  0  0  0
  3 87  1  0  0  0
  4  5  1  0  0  0
  4 88  1  0  0  0
  4 89  1  0  0  0
  5  6  1  0  0  0
  5 26  1  0  0  0
  5 90  1  0  0  0
  6 25  1  0  0  0
  6 91  1  0  0  0
  6 92  1  0  0  0
  7  8  2  0  0  0
  7 26  1  0  0  0
  7 29  1  0  0  0
  8  9  1  0  0  0
  8 22  1  0  0  0
  9 10  1  0  0  0
  9 27  2  0  0  0
 10 11  2  0  0  0
 10 15  1  0  0  0
 11 12  1  0  0  0
 11 93  1  0  0  0
 12 13  2  0  0  0
 12 94  1  0  0  0
 13 14  1  0  0  0
 13 31  1  0  0  0
 14 15  2  0  0  0
 14 95  1  0  0  0
 15 96  1  0  0  0
 16 17  2  0  0  0
 16 21  1  0  0  0
 16 31  1  0  0  0
 17 18  1  0  0  0
 17 97  1  0  0  0
 18 19  2  0  0  0
 18 98  1  0  0  0
 19 20  1  0  0  0
 19 24  1  0  0  0
 20 21  2  0  0  0
 20 99  1  0  0  0
 21 23  1  0  0  0
 22 28  1  0  0  0
 22 32  2  0  0  0
 26 27  1  0  0  0
 28100  1  0  0  0
 28101  1  0  0  0
 29102  1  0  0  0
 29103  1  0  0  0
 33 34  1  0  0  0
 33 66  1  0  0  0
 33 70  2  0  0  0
 34 36  1  0  0  0
 34 59  1  0  0  0
 34104  1  0  0  0
 35 44  2  0  0  0
 35 45  1  0  0  0
 35 68  1  0  0  0
 36 56  1  0  0  0
 36105  1  0  0  0
 37 39  1  0  0  0
 37 47  1  0  0  0
 37 66  1  0  0  0
 37106  1  0  0  0
 38 43  2  0  0  0
 38 46  1  0  0  0
 38 47  1  0  0  0
 39 64  1  0  0  0
 39 67  2  0  0  0
 40 52  1  0  0  0
 40 53  2  0  0  0
 40 58  1  0  0  0
 41107  1  0  0  0
 41108  1  0  0  0
 41109  1  0  0  0
 41 48  1  0  0  0
 42 43  1  0  0  0
 42 66  1  0  0  0
 42110  1  0  0  0
 42111  1  0  0  0
 43 44  1  0  0  0
 44112  1  0  0  0
 45 46  2  0  0  0
 45113  1  0  0  0
 46114  1  0  0  0
 47115  1  0  0  0
 47116  1  0  0  0
 48 56  1  0  0  0
 48 65  1  0  0  0
 48117  1  0  0  0
 49 50  1  0  0  0
 49 53  1  0  0  0
 49 64  1  0  0  0
 49118  1  0  0  0
 50 51  1  0  0  0
 50119  1  0  0  0
 50120  1  0  0  0
 51 52  1  0  0  0
 51121  1  0  0  0
 51122  1  0  0  0
 52123  1  0  0  0
 52124  1  0  0  0
 53 54  1  0  0  0
 54 55  2  0  0  0
 54125  1  0  0  0
 55 57  1  0  0  0
 55126  1  0  0  0
 56 69  2  0  0  0
 57 58  2  0  0  0
 57127  1  0  0  0
 58128  1  0  0  0
 59 60  1  0  0  0
 59 61  1  0  0  0
 59 62  1  0  0  0
 60129  1  0  0  0
 60130  1  0  0  0
 60131  1  0  0  0
 61132  1  0  0  0
 61133  1  0  0  0
 61134  1  0  0  0
 62135  1  0  0  0
 62136  1  0  0  0
 62137  1  0  0  0
 63 65  1  0  0  0
 63138  1  0  0  0
 63139  1  0  0  0
 63140  1  0  0  0
 64141  1  0  0  0
 65142  1  0  0  0
 68 75  1  0  0  0
 71 72  1  0  0  0
 71 73  2  0  0  0
 71143  1  0  0  0
 72 74  2  0  0  0
 72 83  1  0  0  0
 73 79  1  0  0  0
 73 81  1  0  0  0
 74 78  1  0  0  0
 74 81  1  0  0  0
 75 76  2  0  0  0
 75144  1  0  0  0
 76 77  1  0  0  0
 76 82  1  0  0  0
 77 78  1  0  0  0
 77 80  2  0  0  0
 78145  1  0  0  0
 79146  1  0  0  0
 82147  1  0  0  0
M  ISO  4   1 100  68 101  75 101  79 100
M  END
> <chiral flag>
0

> <version>
0

> <s_m_source_file>
/data/baiqing/PycharmProjects/Reinvent-master-3.2/result/LINK_invent/BTK/process_docking_weight1_custom_product_contain_oxygen_bond_distance_aromatic_linkinvent_7_9_3/rearranged_h_0160.sdf

> <i_m_source_file_index>
21

> <r_mmod_Potential_Energy-OPLS-2005>
247.818283081055

> <r_mmod_Stretch_Energy-OPLS-2005>
189.707382202148

> <r_mmod_Bend_Energy-OPLS-2005>
255.003112792969

> <r_mmod_Torsional_Energy-OPLS-2005>
199.495193481445

> <r_mmod_Improper_Torsional_Energy-OPLS-2005>
4.738205909729

> <r_mmod_Van_der_Waal_Energy-OPLS-2005>
118.783226013184

> <r_mmod_Electrostatic_Energy-OPLS-2005>
-461.577758789062

> <r_mmod_Solvation_Energy-OPLS-2005>
-220.64778137207

> <b_mmod_Minimization_Converged-OPLS-2005>
0

> <r_mmod_RMS_Derivative-OPLS-2005>
1.13694095611572

$$$$
21
                    3D
 Structure written by MMmdl.
160168  0  0  1  0            999 V2000
  -30.7224  -14.4845   20.5531 C   0  0  0  0  0  0
  -30.4122  -12.3084   19.4324 C   0  0  0  0  0  0
  -29.4931  -12.4989   18.2099 C   0  0  0  0  0  0
  -28.0144  -12.3615   18.6214 C   0  0  0  0  0  0
  -27.6572  -13.2143   19.8689 C   0  0  2  0  0  0
  -28.6996  -13.0287   20.9953 C   0  0  0  0  0  0
  -25.2565  -13.8179   20.5681 C   0  0  0  0  0  0
  -24.1827  -13.0445   20.9185 C   0  0  0  0  0  0
  -24.6389  -11.6914   20.8736 C   0  0  0  0  0  0
  -23.9058  -10.4295   21.0402 C   0  0  0  0  0  0
  -24.3611   -9.4209   21.9178 C   0  0  0  0  0  0
  -23.6290   -8.2244   22.0752 C   0  0  0  0  0  0
  -22.4271   -8.0281   21.3546 C   0  0  0  0  0  0
  -21.9906   -9.0251   20.4646 C   0  0  0  0  0  0
  -22.7230  -10.2131   20.3050 C   0  0  0  0  0  0
  -21.6852   -6.0734   22.5279 C   0  0  0  0  0  0
  -21.4013   -6.5638   23.8213 C   0  0  0  0  0  0
  -21.3658   -5.6790   24.9174 C   0  0  0  0  0  0
  -21.6044   -4.3053   24.7223 C   0  0  0  0  0  0
  -21.8818   -3.8147   23.4346 C   0  0  0  0  0  0
  -21.9193   -4.6963   22.3403 C   0  0  0  0  0  0
  -22.7847  -13.5238   21.1849 C   0  0  0  0  0  0
  -22.1662   -4.2152   21.0979 F   0  0  0  0  0  0
  -21.5628   -3.4538   25.7735 F   0  0  0  0  0  0
  -30.0285  -13.3175   20.4350 N   0  0  0  0  0  0
  -26.3001  -12.9361   20.3340 N   0  0  0  0  0  0
  -25.9318  -11.6514   20.5756 N   0  0  0  0  0  0
  -22.0481  -12.8233   22.0401 N   0  0  0  0  0  0
  -25.4283  -15.1899   20.4091 N   0  0  0  0  0  0
  -31.8594  -14.6054   20.0882 O   0  0  0  0  0  0
  -21.6637   -6.8877   21.4241 O   0  0  0  0  0  0
  -22.3532  -14.5540   20.6690 O   0  0  0  0  0  0
  -24.6170  -31.8670   23.2097 C   0  0  0  0  0  0
  -25.9055  -32.4818   23.8400 C   0  0  1  0  0  0
  -27.2263  -27.4216   20.1017 C   0  0  0  0  0  0
  -25.5903  -33.8616   24.2327 N   0  0  0  0  0  0
  -23.4058  -30.4923   21.5501 C   0  0  2  0  0  0
  -24.8529  -28.9615   20.1093 C   0  0  0  0  0  0
  -22.7423  -29.4658   22.4972 C   0  0  0  0  0  0
  -18.0276  -28.1380   22.8495 C   0  0  0  0  0  0
  -24.1483  -36.7307   23.2641 C   0  0  0  0  0  0
  -25.9372  -30.8306   21.3644 C   0  0  0  0  0  0
  -26.0157  -29.4658   20.7081 C   0  0  0  0  0  0
  -27.2098  -28.7045   20.6994 C   0  0  0  0  0  0
  -26.0531  -26.9442   19.4796 C   0  0  0  0  0  0
  -24.8682  -27.7016   19.4878 C   0  0  0  0  0  0
  -23.6151  -29.8290   20.1630 C   0  0  0  0  0  0
  -25.4103  -36.3107   24.0343 C   0  0  1  0  0  0
  -20.5874  -28.3667   23.1313 C   0  0  2  0  0  0
  -20.6766  -26.9400   22.5418 C   0  0  0  0  0  0
  -19.5742  -26.6390   21.5217 C   0  0  0  0  0  0
  -18.1922  -26.7927   22.1629 C   0  0  0  0  0  0
  -19.1528  -28.8840   23.2901 C   0  0  0  0  0  0
  -18.9454  -30.1450   23.8908 C   0  0  0  0  0  0
  -17.6455  -30.6585   24.0570 C   0  0  0  0  0  0
  -25.9032  -34.9473   23.5129 C   0  0  0  0  0  0
  -16.5345  -29.9089   23.6332 C   0  0  0  0  0  0
  -16.7266  -28.6509   23.0350 C   0  0  0  0  0  0
  -26.4479  -31.6594   25.0728 C   0  0  0  0  0  0
  -25.3738  -31.3702   26.1471 C   0  0  0  0  0  0
  -27.0309  -30.3035   24.6100 C   0  0  0  0  0  0
  -27.6058  -32.4309   25.7486 C   0  0  0  0  0  0
  -27.5577  -37.1809   24.8469 C   0  0  0  0  0  0
  -21.4150  -29.3032   22.3713 N   0  0  0  0  0  0
  -26.4288  -37.3791   23.9414 N   0  0  0  0  0  0
  -24.6718  -31.0768   22.0997 N   0  0  0  0  0  0
  -23.4187  -28.8191   23.3014 O   0  0  0  0  0  0
  -28.3416  -26.6107   20.1476 O   0  0  0  0  0  0
  -26.5594  -34.8926   22.4691 O   0  0  0  0  0  0
  -23.5358  -32.1425   23.7479 O   0  0  0  0  0  0
  -31.8323  -17.2574   21.3700 C   0  0  0  0  0  0
  -29.5710  -17.9960   20.9987 C   0  0  0  0  0  0
  -30.4862  -16.9160   21.1272 C   0  0  0  0  0  0
  -32.1916  -18.6113   21.4205 C   0  0  0  0  0  0
  -30.0186  -19.3435   21.0672 C   0  0  0  0  0  0
  -29.3904  -21.6270   20.8348 C   0  0  0  0  0  0
  -33.5770  -19.0274   21.6404 C   0  0  0  0  0  0
  -28.8981  -24.1698   20.4731 C   0  0  0  0  0  0
  -27.7948  -22.8198   22.3753 C   0  0  0  0  0  0
  -28.0996  -25.4155   20.9292 C   0  0  0  0  0  0
  -28.3678  -22.7753   20.9388 C   0  0  2  0  0  0
  -31.3205  -19.6340   21.2784 N   0  0  0  0  0  0
  -29.0699  -20.3883   20.9834 N   0  0  0  0  0  0
  -34.5900  -18.3312   21.1194 N   0  0  0  0  0  0
  -30.0442  -15.5467   21.0525 N   0  0  0  0  0  0
  -33.8055  -20.1177   22.3739 N   0  3  0  0  0  0
  -29.8897  -24.2897   19.7438 O   0  0  0  0  0  0
  -31.4593  -12.3814   19.1337 H   0  0  0  0  0  0
  -30.2947  -11.3054   19.8463 H   0  0  0  0  0  0
  -29.7355  -11.7671   17.4376 H   0  0  0  0  0  0
  -29.6650  -13.4809   17.7658 H   0  0  0  0  0  0
  -27.8268  -11.3070   18.8273 H   0  0  0  0  0  0
  -27.3650  -12.6251   17.7859 H   0  0  0  0  0  0
  -27.6914  -14.2573   19.5525 H   0  0  0  0  0  0
  -28.6744  -12.0050   21.3711 H   0  0  0  0  0  0
  -28.4649  -13.6627   21.8514 H   0  0  0  0  0  0
  -25.2755   -9.5687   22.4752 H   0  0  0  0  0  0
  -24.0003   -7.4633   22.7465 H   0  0  0  0  0  0
  -21.0840   -8.8759   19.8951 H   0  0  0  0  0  0
  -22.3684  -10.9664   19.6156 H   0  0  0  0  0  0
  -21.2003   -7.6147   23.9716 H   0  0  0  0  0  0
  -21.1483   -6.0520   25.9077 H   0  0  0  0  0  0
  -22.0600   -2.7611   23.2841 H   0  0  0  0  0  0
  -22.4090  -11.9900   22.4804 H   0  0  0  0  0  0
  -21.1093  -13.1256   22.2595 H   0  0  0  0  0  0
  -24.6608  -15.8446   20.5146 H   0  0  0  0  0  0
  -26.2772  -15.6279   20.0745 H   0  0  0  0  0  0
  -26.7132  -32.5532   23.1172 H   0  0  0  0  0  0
  -25.0060  -33.9775   25.0477 H   0  0  0  0  0  0
  -22.6954  -31.3101   21.4131 H   0  0  0  0  0  0
  -23.3743  -35.9643   23.3316 H   0  0  0  0  0  0
  -24.3575  -36.8903   22.2052 H   0  0  0  0  0  0
  -23.7239  -37.6520   23.6640 H   0  0  0  0  0  0
  -26.0530  -31.5974   20.5972 H   0  0  0  0  0  0
  -26.8237  -30.8820   21.9847 H   0  0  0  0  0  0
  -28.1038  -29.0826   21.1757 H   0  0  0  0  0  0
  -26.0498  -25.9749   19.0001 H   0  0  0  0  0  0
  -23.9766  -27.3116   19.0153 H   0  0  0  0  0  0
  -23.7230  -30.6065   19.4056 H   0  0  0  0  0  0
  -22.7385  -29.2502   19.8666 H   0  0  0  0  0  0
  -25.1280  -36.1972   25.0836 H   0  0  0  0  0  0
  -20.9978  -28.3236   24.1428 H   0  0  0  0  0  0
  -20.5676  -26.2269   23.3605 H   0  0  0  0  0  0
  -21.6636  -26.7443   22.1208 H   0  0  0  0  0  0
  -19.6898  -25.6305   21.1237 H   0  0  0  0  0  0
  -19.6684  -27.3212   20.6756 H   0  0  0  0  0  0
  -17.4194  -26.6688   21.4026 H   0  0  0  0  0  0
  -18.0313  -26.0065   22.9020 H   0  0  0  0  0  0
  -19.7930  -30.7269   24.2274 H   0  0  0  0  0  0
  -17.5011  -31.6265   24.5174 H   0  0  0  0  0  0
  -15.5347  -30.2994   23.7650 H   0  0  0  0  0  0
  -15.8666  -28.0835   22.7050 H   0  0  0  0  0  0
  -24.5910  -30.7051   25.7806 H   0  0  0  0  0  0
  -24.8931  -32.2858   26.4926 H   0  0  0  0  0  0
  -25.8089  -30.8865   27.0225 H   0  0  0  0  0  0
  -26.2854  -29.6793   24.1159 H   0  0  0  0  0  0
  -27.4089  -29.7272   25.4556 H   0  0  0  0  0  0
  -27.8687  -30.4357   23.9248 H   0  0  0  0  0  0
  -27.2688  -33.3602   26.2091 H   0  0  0  0  0  0
  -28.3854  -32.6875   25.0301 H   0  0  0  0  0  0
  -28.0742  -31.8411   26.5376 H   0  0  0  0  0  0
  -28.2611  -38.0092   24.7508 H   0  0  0  0  0  0
  -28.1057  -36.2627   24.6302 H   0  0  0  0  0  0
  -27.2297  -37.1473   25.8873 H   0  0  0  0  0  0
  -20.9304  -29.8750   21.6940 H   0  0  0  0  0  0
  -26.0177  -38.2871   24.1407 H   0  0  0  0  0  0
  -32.5926  -16.5063   21.5240 H   0  0  0  0  0  0
  -28.5193  -17.7983   20.8410 H   0  0  0  0  0  0
  -30.4222  -21.9464   20.6628 H   0  0  0  0  0  0
  -27.4168  -21.8429   22.6796 H   0  0  0  0  0  0
  -26.9560  -23.5095   22.4671 H   0  0  0  0  0  0
  -28.5542  -23.1157   23.1005 H   0  0  0  0  0  0
  -28.3617  -25.6272   21.9660 H   0  0  0  0  0  0
  -27.0439  -25.1454   20.9287 H   0  0  0  0  0  0
  -27.5501  -22.5302   20.2610 H   0  0  0  0  0  0
  -34.3713  -17.5351   20.5402 H   0  0  0  0  0  0
  -35.5567  -18.5728   21.2496 H   0  0  0  0  0  0
  -29.0798  -15.3689   21.2856 H   0  0  0  0  0  0
  -32.9709  -20.6239   22.6341 H   0  0  0  0  0  0
  -34.7125  -20.4970   22.5789 H   0  0  0  0  0  0
  1 25  1  0  0  0
  1 30  2  0  0  0
  1 85  1  0  0  0
  2  3  1  0  0  0
  2 25  1  0  0  0
  2 88  1  0  0  0
  2 89  1  0  0  0
  3  4  1  0  0  0
  3 90  1  0  0  0
  3 91  1  0  0  0
  4  5  1  0  0  0
  4 92  1  0  0  0
  4 93  1  0  0  0
  5  6  1  0  0  0
  5 26  1  0  0  0
  5 94  1  0  0  0
  6 25  1  0  0  0
  6 95  1  0  0  0
  6 96  1  0  0  0
  7  8  2  0  0  0
  7 26  1  0  0  0
  7 29  1  0  0  0
  8  9  1  0  0  0
  8 22  1  0  0  0
  9 10  1  0  0  0
  9 27  2  0  0  0
 10 11  2  0  0  0
 10 15  1  0  0  0
 11 12  1  0  0  0
 11 97  1  0  0  0
 12 13  2  0  0  0
 12 98  1  0  0  0
 13 14  1  0  0  0
 13 31  1  0  0  0
 14 15  2  0  0  0
 14 99  1  0  0  0
 15100  1  0  0  0
 16 17  2  0  0  0
 16 21  1  0  0  0
 16 31  1  0  0  0
 17 18  1  0  0  0
 17101  1  0  0  0
 18 19  2  0  0  0
 18102  1  0  0  0
 19 20  1  0  0  0
 19 24  1  0  0  0
 20 21  2  0  0  0
 20103  1  0  0  0
 21 23  1  0  0  0
 22 28  1  0  0  0
 22 32  2  0  0  0
 26 27  1  0  0  0
 28104  1  0  0  0
 28105  1  0  0  0
 29106  1  0  0  0
 29107  1  0  0  0
 33 34  1  0  0  0
 33 66  1  0  0  0
 33 70  2  0  0  0
 34 36  1  0  0  0
 34 59  1  0  0  0
 34108  1  0  0  0
 35 44  2  0  0  0
 35 45  1  0  0  0
 35 68  1  0  0  0
 36 56  1  0  0  0
 36109  1  0  0  0
 37 39  1  0  0  0
 37 47  1  0  0  0
 37 66  1  0  0  0
 37110  1  0  0  0
 38 43  2  0  0  0
 38 46  1  0  0  0
 38 47  1  0  0  0
 39 64  1  0  0  0
 39 67  2  0  0  0
 40 52  1  0  0  0
 40 53  2  0  0  0
 40 58  1  0  0  0
 41111  1  0  0  0
 41112  1  0  0  0
 41113  1  0  0  0
 41 48  1  0  0  0
 42 43  1  0  0  0
 42 66  1  0  0  0
 42114  1  0  0  0
 42115  1  0  0  0
 43 44  1  0  0  0
 44116  1  0  0  0
 45 46  2  0  0  0
 45117  1  0  0  0
 46118  1  0  0  0
 47119  1  0  0  0
 47120  1  0  0  0
 48 56  1  0  0  0
 48 65  1  0  0  0
 48121  1  0  0  0
 49 50  1  0  0  0
 49 53  1  0  0  0
 49 64  1  0  0  0
 49122  1  0  0  0
 50 51  1  0  0  0
 50123  1  0  0  0
 50124  1  0  0  0
 51 52  1  0  0  0
 51125  1  0  0  0
 51126  1  0  0  0
 52127  1  0  0  0
 52128  1  0  0  0
 53 54  1  0  0  0
 54 55  2  0  0  0
 54129  1  0  0  0
 55 57  1  0  0  0
 55130  1  0  0  0
 56 69  2  0  0  0
 57 58  2  0  0  0
 57131  1  0  0  0
 58132  1  0  0  0
 59 60  1  0  0  0
 59 61  1  0  0  0
 59 62  1  0  0  0
 60133  1  0  0  0
 60134  1  0  0  0
 60135  1  0  0  0
 61136  1  0  0  0
 61137  1  0  0  0
 61138  1  0  0  0
 62139  1  0  0  0
 62140  1  0  0  0
 62141  1  0  0  0
 63 65  1  0  0  0
 63142  1  0  0  0
 63143  1  0  0  0
 63144  1  0  0  0
 64145  1  0  0  0
 65146  1  0  0  0
 68 80  1  0  0  0
 71 73  2  0  0  0
 71 74  1  0  0  0
 71147  1  0  0  0
 72 73  1  0  0  0
 72 75  2  0  0  0
 72148  1  0  0  0
 73 85  1  0  0  0
 74 77  1  0  0  0
 74 82  2  0  0  0
 75 82  1  0  0  0
 75 83  1  0  0  0
 76 81  1  0  0  0
 76 83  2  0  0  0
 76149  1  0  0  0
 77 84  1  0  0  0
 77 86  2  0  0  0
 78 80  1  0  0  0
 78 81  1  0  0  0
 78 87  2  0  0  0
 79150  1  0  0  0
 79151  1  0  0  0
 79152  1  0  0  0
 79 81  1  0  0  0
 80153  1  0  0  0
 80154  1  0  0  0
 81155  1  0  0  0
 84156  1  0  0  0
 84157  1  0  0  0
 85158  1  0  0  0
 86159  1  0  0  0
 86160  1  0  0  0
M  CHG  1  86   1
M  ISO  4   1 100  68 101  80 101  85 100
M  END
> <chiral flag>
0

> <version>
0

> <s_m_source_file>
/data/baiqing/PycharmProjects/Reinvent-master-3.2/result/LINK_invent/BTK/process_docking_weight1_custom_product_contain_oxygen_bond_distance_aromatic_linkinvent_7_9_3/rearranged_h_0160.sdf

> <i_m_source_file_index>
22

> <r_mmod_Potential_Energy-OPLS-2005>
-537.097290039062

> <r_mmod_Stretch_Energy-OPLS-2005>
45.8249092102051

> <r_mmod_Bend_Energy-OPLS-2005>
110.07160949707

> <r_mmod_Torsional_Energy-OPLS-2005>
250.756896972656

> <r_mmod_Improper_Torsional_Energy-OPLS-2005>
4.29115056991577

> <r_mmod_Van_der_Waal_Energy-OPLS-2005>
178.47331237793

> <r_mmod_Electrostatic_Energy-OPLS-2005>
-670.58251953125

> <r_mmod_Solvation_Energy-OPLS-2005>
-474.208221435547

> <b_mmod_Minimization_Converged-OPLS-2005>
0

> <r_mmod_RMS_Derivative-OPLS-2005>
0.815196812152863

$$$$
22
                    3D
 Structure written by MMmdl.
160169  0  0  1  0            999 V2000
  -30.6977  -14.5261   20.4711 C   0  0  0  0  0  0
  -30.4203  -12.3032   19.4255 C   0  0  0  0  0  0
  -29.4918  -12.4697   18.2038 C   0  0  0  0  0  0
  -28.0206  -12.3227   18.6363 C   0  0  0  0  0  0
  -27.6640  -13.2020   19.8674 C   0  0  2  0  0  0
  -28.7185  -13.0595   20.9951 C   0  0  0  0  0  0
  -25.2692  -13.8197   20.5805 C   0  0  0  0  0  0
  -24.1888  -13.0433   20.9219 C   0  0  0  0  0  0
  -24.6439  -11.6937   20.8752 C   0  0  0  0  0  0
  -23.9101  -10.4302   21.0418 C   0  0  0  0  0  0
  -24.3646   -9.4214   21.9194 C   0  0  0  0  0  0
  -23.6312   -8.2246   22.0753 C   0  0  0  0  0  0
  -22.4283   -8.0293   21.3541 C   0  0  0  0  0  0
  -21.9942   -9.0281   20.4641 C   0  0  0  0  0  0
  -22.7289  -10.2163   20.3067 C   0  0  0  0  0  0
  -21.6861   -6.0744   22.5284 C   0  0  0  0  0  0
  -21.4018   -6.5646   23.8219 C   0  0  0  0  0  0
  -21.3659   -5.6789   24.9172 C   0  0  0  0  0  0
  -21.6044   -4.3054   24.7217 C   0  0  0  0  0  0
  -21.8815   -3.8159   23.4334 C   0  0  0  0  0  0
  -21.9195   -4.6972   22.3398 C   0  0  0  0  0  0
  -22.7936  -13.5266   21.1842 C   0  0  0  0  0  0
  -22.1665   -4.2162   21.0976 F   0  0  0  0  0  0
  -21.5631   -3.4549   25.7727 F   0  0  0  0  0  0
  -30.0406  -13.3325   20.4077 N   0  0  0  0  0  0
  -26.3071  -12.9332   20.3424 N   0  0  0  0  0  0
  -25.9367  -11.6478   20.5806 N   0  0  0  0  0  0
  -22.0563  -12.8227   22.0385 N   0  0  0  0  0  0
  -25.4429  -15.1919   20.4382 N   0  0  0  0  0  0
  -31.8737  -14.6432   20.1071 O   0  0  0  0  0  0
  -21.6647   -6.8894   21.4237 O   0  0  0  0  0  0
  -22.3634  -14.5549   20.6686 O   0  0  0  0  0  0
  -24.6211  -31.8653   23.2055 C   0  0  0  0  0  0
  -25.9075  -32.4815   23.8353 C   0  0  1  0  0  0
  -27.1812  -27.3153   20.0979 C   0  0  0  0  0  0
  -25.5929  -33.8611   24.2247 N   0  0  0  0  0  0
  -23.4068  -30.4897   21.5498 C   0  0  2  0  0  0
  -24.8424  -28.9469   20.1041 C   0  0  0  0  0  0
  -22.7521  -29.4632   22.5048 C   0  0  0  0  0  0
  -18.0215  -28.1588   22.8578 C   0  0  0  0  0  0
  -24.1495  -36.7253   23.2628 C   0  0  0  0  0  0
  -25.9550  -30.7796   21.3822 C   0  0  0  0  0  0
  -26.0117  -29.4096   20.7202 C   0  0  0  0  0  0
  -27.1825  -28.6003   20.7169 C   0  0  0  0  0  0
  -25.9829  -26.8915   19.4756 C   0  0  0  0  0  0
  -24.8258  -27.6920   19.4797 C   0  0  0  0  0  0
  -23.6223  -29.8392   20.1601 C   0  0  0  0  0  0
  -25.4131  -36.3072   24.0327 C   0  0  1  0  0  0
  -20.5861  -28.3862   23.1671 C   0  0  2  0  0  0
  -20.6797  -26.9591   22.5766 C   0  0  0  0  0  0
  -19.5945  -26.7105   21.5198 C   0  0  0  0  0  0
  -18.2096  -26.8210   22.1674 C   0  0  0  0  0  0
  -19.1373  -28.9047   23.3129 C   0  0  0  0  0  0
  -18.9020  -30.1653   23.9008 C   0  0  0  0  0  0
  -17.5917  -30.6692   24.0469 C   0  0  0  0  0  0
  -25.9051  -34.9479   23.5066 C   0  0  0  0  0  0
  -16.4919  -29.9098   23.6172 C   0  0  0  0  0  0
  -16.7040  -28.6489   23.0277 C   0  0  0  0  0  0
  -26.4486  -31.6655   25.0753 C   0  0  0  0  0  0
  -25.3662  -31.3851   26.1442 C   0  0  0  0  0  0
  -27.0342  -30.3078   24.6246 C   0  0  0  0  0  0
  -27.6054  -32.4421   25.7526 C   0  0  0  0  0  0
  -27.5586  -37.1817   24.8487 C   0  0  0  0  0  0
  -21.4185  -29.3182   22.4053 N   0  0  0  0  0  0
  -26.4267  -37.3803   23.9457 N   0  0  0  0  0  0
  -24.6794  -31.0633   22.1021 N   0  0  0  0  0  0
  -23.4336  -28.8174   23.3065 O   0  0  0  0  0  0
  -28.3168  -26.5042   20.1479 O   0  0  0  0  0  0
  -26.5633  -34.8910   22.4627 O   0  0  0  0  0  0
  -23.5413  -32.1540   23.7381 O   0  0  0  0  0  0
  -31.4600  -17.5783   20.7042 C   0  0  0  0  0  0
  -30.2131  -17.0041   20.6816 C   0  0  0  0  0  0
  -29.5865  -19.2349   20.8964 C   0  0  0  0  0  0
  -28.6127  -22.6982   20.3908 C   0  0  0  0  0  0
  -26.0973  -20.3297   22.2949 C   0  0  0  0  0  0
  -25.7135  -21.1032   21.0217 C   0  0  0  0  0  0
  -27.4956  -19.6734   22.2696 C   0  0  0  0  0  0
  -26.8005  -20.9923   19.9348 C   0  0  0  0  0  0
  -28.6396  -20.3434   21.4246 C   0  0  2  0  0  0
  -28.4107  -25.2738   19.3567 C   0  0  0  0  0  0
  -27.7515  -23.8933   19.7826 C   0  0  0  0  0  0
  -29.1866  -17.9643   20.6627 N   0  0  0  0  0  0
  -28.1144  -21.4015   20.4718 N   0  0  0  0  0  0
  -29.9199  -15.6020   20.7272 N   0  0  0  0  0  0
  -29.7251  -22.9688   20.8596 O   0  0  0  0  0  0
  -27.2923  -23.5029   18.5967 F   0  0  0  0  0  0
  -26.7211  -24.1237   20.5981 F   0  0  0  0  0  0
  -31.3617  -19.3284   20.8739 S   0  0  0  0  0  0
  -31.4656  -12.3730   19.1215 H   0  0  0  0  0  0
  -30.3001  -11.3018   19.8486 H   0  0  0  0  0  0
  -29.7216  -11.7259   17.4396 H   0  0  0  0  0  0
  -29.6565  -13.4431   17.7401 H   0  0  0  0  0  0
  -27.8599  -11.2721   18.8821 H   0  0  0  0  0  0
  -27.3531  -12.5427   17.8035 H   0  0  0  0  0  0
  -27.6888  -14.2338   19.5176 H   0  0  0  0  0  0
  -28.7017  -12.0611   21.4392 H   0  0  0  0  0  0
  -28.4960  -13.7448   21.8157 H   0  0  0  0  0  0
  -25.2783   -9.5671   22.4790 H   0  0  0  0  0  0
  -24.0013   -7.4626   22.7477 H   0  0  0  0  0  0
  -21.0882   -8.8812   19.8948 H   0  0  0  0  0  0
  -22.3756  -10.9707   19.6186 H   0  0  0  0  0  0
  -21.2001   -7.6160   23.9717 H   0  0  0  0  0  0
  -21.1494   -6.0530   25.9078 H   0  0  0  0  0  0
  -22.0589   -2.7625   23.2837 H   0  0  0  0  0  0
  -22.4159  -11.9866   22.4750 H   0  0  0  0  0  0
  -21.1160  -13.1253   22.2516 H   0  0  0  0  0  0
  -24.6975  -15.8515   20.6249 H   0  0  0  0  0  0
  -26.3085  -15.6501   20.1797 H   0  0  0  0  0  0
  -26.7091  -32.5469   23.1023 H   0  0  0  0  0  0
  -25.0174  -33.9760   25.0467 H   0  0  0  0  0  0
  -22.7032  -31.3129   21.4065 H   0  0  0  0  0  0
  -23.3786  -35.9544   23.3296 H   0  0  0  0  0  0
  -24.3554  -36.8875   22.2031 H   0  0  0  0  0  0
  -23.7207  -37.6440   23.6648 H   0  0  0  0  0  0
  -26.0903  -31.5474   20.6171 H   0  0  0  0  0  0
  -26.8301  -30.8123   22.0209 H   0  0  0  0  0  0
  -28.0829  -28.9405   21.2049 H   0  0  0  0  0  0
  -25.9010  -25.9229   19.0090 H   0  0  0  0  0  0
  -23.9183  -27.3231   19.0196 H   0  0  0  0  0  0
  -23.7713  -30.6377   19.4380 H   0  0  0  0  0  0
  -22.7258  -29.3127   19.8384 H   0  0  0  0  0  0
  -25.1319  -36.1904   25.0831 H   0  0  0  0  0  0
  -20.9995  -28.3664   24.1803 H   0  0  0  0  0  0
  -20.5537  -26.2319   23.3839 H   0  0  0  0  0  0
  -21.6872  -26.7800   22.1845 H   0  0  0  0  0  0
  -19.7248  -25.7575   21.0019 H   0  0  0  0  0  0
  -19.6722  -27.4854   20.7519 H   0  0  0  0  0  0
  -17.4259  -26.7035   21.4185 H   0  0  0  0  0  0
  -18.0512  -26.0367   22.9066 H   0  0  0  0  0  0
  -19.7258  -30.7624   24.2565 H   0  0  0  0  0  0
  -17.4262  -31.6380   24.4975 H   0  0  0  0  0  0
  -15.4862  -30.2896   23.7398 H   0  0  0  0  0  0
  -15.8492  -28.0658   22.7174 H   0  0  0  0  0  0
  -24.5802  -30.7244   25.7740 H   0  0  0  0  0  0
  -24.8855  -32.3059   26.4790 H   0  0  0  0  0  0
  -25.7882  -30.9057   27.0273 H   0  0  0  0  0  0
  -26.2947  -29.6848   24.1202 H   0  0  0  0  0  0
  -27.3976  -29.7347   25.4785 H   0  0  0  0  0  0
  -27.8837  -30.4415   23.9535 H   0  0  0  0  0  0
  -27.2666  -33.3727   26.2090 H   0  0  0  0  0  0
  -28.3851  -32.6992   25.0340 H   0  0  0  0  0  0
  -28.0722  -31.8563   26.5458 H   0  0  0  0  0  0
  -28.2625  -38.0099   24.7539 H   0  0  0  0  0  0
  -28.1058  -36.2647   24.6307 H   0  0  0  0  0  0
  -27.2301  -37.1458   25.8879 H   0  0  0  0  0  0
  -20.9245  -29.8976   21.7438 H   0  0  0  0  0  0
  -26.0140  -38.2851   24.1520 H   0  0  0  0  0  0
  -32.4165  -17.0763   20.6908 H   0  0  0  0  0  0
  -25.3603  -19.5421   22.4570 H   0  0  0  0  0  0
  -26.0234  -20.9845   23.1601 H   0  0  0  0  0  0
  -25.5610  -22.1468   21.3073 H   0  0  0  0  0  0
  -24.7433  -20.7788   20.6242 H   0  0  0  0  0  0
  -27.2706  -18.6705   21.8968 H   0  0  0  0  0  0
  -27.8445  -19.4943   23.2888 H   0  0  0  0  0  0
  -26.4803  -21.5211   19.0532 H   0  0  0  0  0  0
  -26.8878  -19.9682   19.5692 H   0  0  0  0  0  0
  -29.2396  -20.8803   22.1636 H   0  0  0  0  0  0
  -27.9929  -25.5413   18.3816 H   0  0  0  0  0  0
  -29.4640  -25.0970   19.1332 H   0  0  0  0  0  0
  -28.9605  -15.3710   20.9224 H   0  0  0  0  0  0
  1 25  1  0  0  0
  1 30  2  0  0  0
  1 84  1  0  0  0
  2  3  1  0  0  0
  2 25  1  0  0  0
  2 89  1  0  0  0
  2 90  1  0  0  0
  3  4  1  0  0  0
  3 91  1  0  0  0
  3 92  1  0  0  0
  4  5  1  0  0  0
  4 93  1  0  0  0
  4 94  1  0  0  0
  5  6  1  0  0  0
  5 26  1  0  0  0
  5 95  1  0  0  0
  6 25  1  0  0  0
  6 96  1  0  0  0
  6 97  1  0  0  0
  7  8  2  0  0  0
  7 26  1  0  0  0
  7 29  1  0  0  0
  8  9  1  0  0  0
  8 22  1  0  0  0
  9 10  1  0  0  0
  9 27  2  0  0  0
 10 11  2  0  0  0
 10 15  1  0  0  0
 11 12  1  0  0  0
 11 98  1  0  0  0
 12 13  2  0  0  0
 12 99  1  0  0  0
 13 14  1  0  0  0
 13 31  1  0  0  0
 14 15  2  0  0  0
 14100  1  0  0  0
 15101  1  0  0  0
 16 17  2  0  0  0
 16 21  1  0  0  0
 16 31  1  0  0  0
 17 18  1  0  0  0
 17102  1  0  0  0
 18 19  2  0  0  0
 18103  1  0  0  0
 19 20  1  0  0  0
 19 24  1  0  0  0
 20 21  2  0  0  0
 20104  1  0  0  0
 21 23  1  0  0  0
 22 28  1  0  0  0
 22 32  2  0  0  0
 26 27  1  0  0  0
 28105  1  0  0  0
 28106  1  0  0  0
 29107  1  0  0  0
 29108  1  0  0  0
 33 34  1  0  0  0
 33 66  1  0  0  0
 33 70  2  0  0  0
 34 36  1  0  0  0
 34 59  1  0  0  0
 34109  1  0  0  0
 35 44  2  0  0  0
 35 45  1  0  0  0
 35 68  1  0  0  0
 36 56  1  0  0  0
 36110  1  0  0  0
 37 39  1  0  0  0
 37 47  1  0  0  0
 37 66  1  0  0  0
 37111  1  0  0  0
 38 43  2  0  0  0
 38 46  1  0  0  0
 38 47  1  0  0  0
 39 64  1  0  0  0
 39 67  2  0  0  0
 40 52  1  0  0  0
 40 53  2  0  0  0
 40 58  1  0  0  0
 41112  1  0  0  0
 41113  1  0  0  0
 41114  1  0  0  0
 41 48  1  0  0  0
 42 43  1  0  0  0
 42 66  1  0  0  0
 42115  1  0  0  0
 42116  1  0  0  0
 43 44  1  0  0  0
 44117  1  0  0  0
 45 46  2  0  0  0
 45118  1  0  0  0
 46119  1  0  0  0
 47120  1  0  0  0
 47121  1  0  0  0
 48 56  1  0  0  0
 48 65  1  0  0  0
 48122  1  0  0  0
 49 50  1  0  0  0
 49 53  1  0  0  0
 49 64  1  0  0  0
 49123  1  0  0  0
 50 51  1  0  0  0
 50124  1  0  0  0
 50125  1  0  0  0
 51 52  1  0  0  0
 51126  1  0  0  0
 51127  1  0  0  0
 52128  1  0  0  0
 52129  1  0  0  0
 53 54  1  0  0  0
 54 55  2  0  0  0
 54130  1  0  0  0
 55 57  1  0  0  0
 55131  1  0  0  0
 56 69  2  0  0  0
 57 58  2  0  0  0
 57132  1  0  0  0
 58133  1  0  0  0
 59 60  1  0  0  0
 59 61  1  0  0  0
 59 62  1  0  0  0
 60134  1  0  0  0
 60135  1  0  0  0
 60136  1  0  0  0
 61137  1  0  0  0
 61138  1  0  0  0
 61139  1  0  0  0
 62140  1  0  0  0
 62141  1  0  0  0
 62142  1  0  0  0
 63 65  1  0  0  0
 63143  1  0  0  0
 63144  1  0  0  0
 63145  1  0  0  0
 64146  1  0  0  0
 65147  1  0  0  0
 68 80  1  0  0  0
 71 72  2  0  0  0
 71 88  1  0  0  0
 71148  1  0  0  0
 72 82  1  0  0  0
 72 84  1  0  0  0
 73 82  2  0  0  0
 73 88  1  0  0  0
 73 79  1  0  0  0
 74 81  1  0  0  0
 74 83  1  0  0  0
 74 85  2  0  0  0
 75 76  1  0  0  0
 75 77  1  0  0  0
 75149  1  0  0  0
 75150  1  0  0  0
 76 78  1  0  0  0
 76151  1  0  0  0
 76152  1  0  0  0
 77 79  1  0  0  0
 77153  1  0  0  0
 77154  1  0  0  0
 78 83  1  0  0  0
 78155  1  0  0  0
 78156  1  0  0  0
 79 83  1  0  0  0
 79157  1  0  0  0
 80 81  1  0  0  0
 80158  1  0  0  0
 80159  1  0  0  0
 81 86  1  0  0  0
 81 87  1  0  0  0
 84160  1  0  0  0
M  ISO  4   1 100  68 101  80 101  84 100
M  END
> <chiral flag>
0

> <version>
0

> <s_m_source_file>
/data/baiqing/PycharmProjects/Reinvent-master-3.2/result/LINK_invent/BTK/process_docking_weight1_custom_product_contain_oxygen_bond_distance_aromatic_linkinvent_7_9_3/rearranged_h_0160.sdf

> <i_m_source_file_index>
23

> <r_mmod_Potential_Energy-OPLS-2005>
203.25146484375

> <r_mmod_Stretch_Energy-OPLS-2005>
77.3845672607422

> <r_mmod_Bend_Energy-OPLS-2005>
182.121704101562

> <r_mmod_Torsional_Energy-OPLS-2005>
299.711975097656

> <r_mmod_Improper_Torsional_Energy-OPLS-2005>
8.66183280944824

> <r_mmod_Van_der_Waal_Energy-OPLS-2005>
152.646179199219

> <r_mmod_Electrostatic_Energy-OPLS-2005>
-344.5830078125

> <r_mmod_Solvation_Energy-OPLS-2005>
-213.529586791992

> <b_mmod_Minimization_Converged-OPLS-2005>
0

> <r_mmod_RMS_Derivative-OPLS-2005>
13.3472576141357

$$$$
23
                    3D
 Structure written by MMmdl.
158166  0  0  1  0            999 V2000
  -29.9185  -15.4042   20.4545 C   0  0  0  0  0  0
  -30.3934  -12.9501   19.5949 C   0  0  0  0  0  0
  -29.5375  -12.6106   18.3401 C   0  0  0  0  0  0
  -28.0939  -12.2508   18.7427 C   0  0  0  0  0  0
  -27.5642  -13.2253   19.8225 C   0  0  2  0  0  0
  -28.5272  -13.3422   21.0060 C   0  0  0  0  0  0
  -25.2165  -13.8107   20.5608 C   0  0  0  0  0  0
  -24.1554  -13.0362   20.9257 C   0  0  0  0  0  0
  -24.6156  -11.6832   20.8771 C   0  0  0  0  0  0
  -23.8913  -10.4223   21.0456 C   0  0  0  0  0  0
  -24.3531   -9.4159   21.9208 C   0  0  0  0  0  0
  -23.6243   -8.2182   22.0752 C   0  0  0  0  0  0
  -22.4228   -8.0217   21.3546 C   0  0  0  0  0  0
  -21.9833   -9.0169   20.4650 C   0  0  0  0  0  0
  -22.7114  -10.2064   20.3084 C   0  0  0  0  0  0
  -21.6827   -6.0709   22.5287 C   0  0  0  0  0  0
  -21.3993   -6.5627   23.8215 C   0  0  0  0  0  0
  -21.3654   -5.6786   24.9181 C   0  0  0  0  0  0
  -21.6044   -4.3049   24.7231 C   0  0  0  0  0  0
  -21.8825   -3.8135   23.4354 C   0  0  0  0  0  0
  -21.9184   -4.6946   22.3409 C   0  0  0  0  0  0
  -22.7624  -13.5175   21.1933 C   0  0  0  0  0  0
  -22.1662   -4.2142   21.0984 F   0  0  0  0  0  0
  -21.5626   -3.4528   25.7741 F   0  0  0  0  0  0
  -29.6835  -13.9992   20.4355 N   0  0  0  0  0  0
  -26.2388  -12.9225   20.2921 N   0  0  0  0  0  0
  -25.9008  -11.6402   20.5594 N   0  0  0  0  0  0
  -22.0294  -12.8191   22.0511 N   0  0  0  0  0  0
  -25.3905  -15.1848   20.4048 N   0  0  0  0  0  0
  -31.1187  -15.6170   20.1587 O   0  0  0  0  0  0
  -21.6599   -6.8826   21.4243 O   0  0  0  0  0  0
  -22.3353  -14.5481   20.6738 O   0  0  0  0  0  0
  -24.6815  -31.9230   23.1976 C   0  0  0  0  0  0
  -25.9612  -32.4988   23.8455 C   0  0  1  0  0  0
  -26.2522  -27.0693   20.4390 C   0  0  0  0  0  0
  -25.6388  -33.8731   24.2443 N   0  0  0  0  0  0
  -23.4914  -30.5864   21.5589 C   0  0  2  0  0  0
  -24.7767  -29.1473   19.9152 C   0  0  0  0  0  0
  -23.0920  -29.4954   22.5554 C   0  0  0  0  0  0
  -18.5972  -28.0991   22.1113 C   0  0  0  0  0  0
  -24.1509  -36.7318   23.2603 C   0  0  0  0  0  0
  -26.0051  -30.7704   21.3876 C   0  0  0  0  0  0
  -25.9160  -29.4164   20.6865 C   0  0  0  0  0  0
  -26.8011  -28.3306   20.8678 C   0  0  0  0  0  0
  -25.7605  -27.0569   19.1632 C   0  0  0  0  0  0
  -24.7425  -28.0158   19.0658 C   0  0  0  0  0  0
  -23.6059  -30.0603   20.1013 C   0  0  0  0  0  0
  -25.4138  -36.3146   24.0310 C   0  0  1  0  0  0
  -21.2900  -28.2947   23.5658 C   0  0  2  0  0  0
  -21.8991  -26.1276   23.5198 C   0  0  0  0  0  0
  -20.3947  -25.0580   22.0486 C   0  0  0  0  0  0
  -18.9224  -26.3931   21.3688 C   0  0  0  0  0  0
  -19.6479  -28.8995   22.9872 C   0  0  0  0  0  0
  -19.1644  -30.0272   23.7388 C   0  0  0  0  0  0
  -17.8091  -30.4066   23.8554 C   0  0  0  0  0  0
  -25.9183  -34.9566   23.5104 C   0  0  0  0  0  0
  -16.8327  -29.5998   23.2575 C   0  0  0  0  0  0
  -17.2221  -28.4857   22.4474 C   0  0  0  0  0  0
  -26.4638  -31.6625   25.0845 C   0  0  0  0  0  0
  -25.3704  -31.3819   26.1425 C   0  0  0  0  0  0
  -27.0418  -30.3012   24.6333 C   0  0  0  0  0  0
  -27.6175  -32.4244   25.7760 C   0  0  0  0  0  0
  -27.5612  -37.1842   24.8448 C   0  0  0  0  0  0
  -21.8337  -29.3591   22.7657 N   0  0  0  0  0  0
  -26.4278  -37.3877   23.9460 N   0  0  0  0  0  0
  -24.7497  -31.1617   22.0699 N   0  0  0  0  0  0
  -23.8725  -28.7978   23.1903 O   0  0  0  0  0  0
  -25.1591  -26.5852   21.2517 O   0  0  0  0  0  0
  -26.5583  -34.9006   22.4574 O   0  0  0  0  0  0
  -23.5941  -32.1917   23.7377 O   0  0  0  0  0  0
  -27.1839  -18.9979   21.0037 C   0  0  0  0  0  0
  -27.8281  -20.9968   19.8305 C   0  0  0  0  0  0
  -29.1715  -18.8419   19.6627 C   0  0  0  0  0  0
  -26.8325  -20.5144   20.7085 C   0  0  0  0  0  0
  -28.3648  -18.0554   20.5192 C   0  0  0  0  0  0
  -28.9174  -20.2119   19.3413 C   0  0  0  0  0  0
  -25.6451  -21.6814   21.2271 C   0  0  0  0  0  0
  -21.5335  -27.0239   21.4128 C   0  0  0  0  0  0
  -19.7541  -26.5915   23.5201 C   0  0  0  0  0  0
  -23.8905  -24.2340   21.3850 C   0  0  0  0  0  0
  -23.4451  -26.0496   21.0863 C   0  0  2  0  0  0
  -25.0179  -21.2618   22.3195 N   0  0  0  0  0  0
  -28.8163  -16.4465   20.7155 N   0  0  0  0  0  0
  -25.1046  -23.0713   20.8647 N   0  3  0  0  0  0
  -21.2002  -27.7874   20.4973 O   0  0  0  0  0  0
  -29.7804  -20.8217   18.4941 F   0  0  0  0  0  0
  -31.3728  -13.3120   19.2765 H   0  0  0  0  0  0
  -30.5921  -12.0576   20.1893 H   0  0  0  0  0  0
  -29.9942  -11.7902   17.7822 H   0  0  0  0  0  0
  -29.5225  -13.4697   17.6694 H   0  0  0  0  0  0
  -28.1085  -11.2392   19.1505 H   0  0  0  0  0  0
  -27.4376  -12.2185   17.8713 H   0  0  0  0  0  0
  -27.4925  -14.1912   19.3219 H   0  0  0  0  0  0
  -28.7622  -12.3694   21.4386 H   0  0  0  0  0  0
  -28.1013  -13.9451   21.8116 H   0  0  0  0  0  0
  -25.2680   -9.5652   22.4770 H   0  0  0  0  0  0
  -23.9971   -7.4568   22.7456 H   0  0  0  0  0  0
  -21.0767   -8.8658   19.8955 H   0  0  0  0  0  0
  -22.3556  -10.9604   19.6201 H   0  0  0  0  0  0
  -21.1978   -7.6132   23.9722 H   0  0  0  0  0  0
  -21.1478   -6.0509   25.9086 H   0  0  0  0  0  0
  -22.0614   -2.7600   23.2847 H   0  0  0  0  0  0
  -22.3900  -11.9847   22.4893 H   0  0  0  0  0  0
  -21.0939  -13.1254   22.2762 H   0  0  0  0  0  0
  -24.5882  -15.8008   20.4861 H   0  0  0  0  0  0
  -26.1313  -15.5846   19.8439 H   0  0  0  0  0  0
  -26.7742  -32.5453   23.1219 H   0  0  0  0  0  0
  -25.0640  -33.9844   25.0671 H   0  0  0  0  0  0
  -22.7194  -31.3609   21.5475 H   0  0  0  0  0  0
  -23.3823  -35.9596   23.3175 H   0  0  0  0  0  0
  -24.3631  -36.9040   22.2041 H   0  0  0  0  0  0
  -23.7182  -37.6459   23.6680 H   0  0  0  0  0  0
  -26.2438  -31.5289   20.6402 H   0  0  0  0  0  0
  -26.8677  -30.7220   22.0455 H   0  0  0  0  0  0
  -27.5617  -28.3852   21.6342 H   0  0  0  0  0  0
  -25.5997  -26.1306   18.6296 H   0  0  0  0  0  0
  -23.9217  -27.8672   18.3772 H   0  0  0  0  0  0
  -23.7460  -30.9072   19.4279 H   0  0  0  0  0  0
  -22.6871  -29.5862   19.7730 H   0  0  0  0  0  0
  -25.1285  -36.1981   25.0791 H   0  0  0  0  0  0
  -21.4242  -28.6221   24.6000 H   0  0  0  0  0  0
  -21.8013  -25.7071   24.5280 H   0  0  0  0  0  0
  -22.9681  -25.9789   23.4086 H   0  0  0  0  0  0
  -19.9205  -24.2188   22.5638 H   0  0  0  0  0  0
  -20.8718  -24.5534   21.2046 H   0  0  0  0  0  0
  -19.0313  -26.5296   20.2913 H   0  0  0  0  0  0
  -17.9746  -25.8540   21.4338 H   0  0  0  0  0  0
  -19.8754  -30.5761   24.3426 H   0  0  0  0  0  0
  -17.5241  -31.2537   24.4660 H   0  0  0  0  0  0
  -15.7840  -29.8229   23.4030 H   0  0  0  0  0  0
  -16.4270  -27.8733   22.0440 H   0  0  0  0  0  0
  -24.5862  -30.7256   25.7627 H   0  0  0  0  0  0
  -24.8931  -32.3015   26.4816 H   0  0  0  0  0  0
  -25.7855  -30.8935   27.0247 H   0  0  0  0  0  0
  -26.3024  -29.6857   24.1193 H   0  0  0  0  0  0
  -27.3895  -29.7181   25.4870 H   0  0  0  0  0  0
  -27.9014  -30.4253   23.9745 H   0  0  0  0  0  0
  -27.2806  -33.3539   26.2357 H   0  0  0  0  0  0
  -28.4065  -32.6786   25.0676 H   0  0  0  0  0  0
  -28.0726  -31.8301   26.5688 H   0  0  0  0  0  0
  -28.2511  -38.0254   24.7669 H   0  0  0  0  0  0
  -28.1228  -36.2804   24.6043 H   0  0  0  0  0  0
  -27.2368  -37.1204   25.8848 H   0  0  0  0  0  0
  -21.1757  -29.9430   22.2657 H   0  0  0  0  0  0
  -26.0131  -38.2912   24.1595 H   0  0  0  0  0  0
  -26.4860  -18.5183   21.6743 H   0  0  0  0  0  0
  -27.7759  -22.0269   19.5069 H   0  0  0  0  0  0
  -30.0304  -18.3756   19.2067 H   0  0  0  0  0  0
  -19.8512  -25.6530   24.0856 H   0  0  0  0  0  0
  -18.6835  -26.3688   23.4778 H   0  0  0  0  0  0
  -19.7408  -27.1521   24.4634 H   0  0  0  0  0  0
  -22.9578  -23.6917   21.2406 H   0  0  0  0  0  0
  -24.0218  -24.2014   22.4663 H   0  0  0  0  0  0
  -23.3498  -26.0453   20.0034 H   0  0  0  0  0  0
  -25.2253  -20.3430   22.6787 H   0  0  0  0  0  0
  -24.4072  -21.8620   22.8462 H   0  0  0  0  0  0
  -28.0365  -15.9372   21.1068 H   0  0  0  0  0  0
  -25.5058  -23.3757   19.9843 H   0  0  0  0  0  0
  1 25  1  0  0  0
  1 30  2  0  0  0
  1 83  1  0  0  0
  2  3  1  0  0  0
  2 25  1  0  0  0
  2 87  1  0  0  0
  2 88  1  0  0  0
  3  4  1  0  0  0
  3 89  1  0  0  0
  3 90  1  0  0  0
  4  5  1  0  0  0
  4 91  1  0  0  0
  4 92  1  0  0  0
  5  6  1  0  0  0
  5 26  1  0  0  0
  5 93  1  0  0  0
  6 25  1  0  0  0
  6 94  1  0  0  0
  6 95  1  0  0  0
  7  8  2  0  0  0
  7 26  1  0  0  0
  7 29  1  0  0  0
  8  9  1  0  0  0
  8 22  1  0  0  0
  9 10  1  0  0  0
  9 27  2  0  0  0
 10 11  2  0  0  0
 10 15  1  0  0  0
 11 12  1  0  0  0
 11 96  1  0  0  0
 12 13  2  0  0  0
 12 97  1  0  0  0
 13 14  1  0  0  0
 13 31  1  0  0  0
 14 15  2  0  0  0
 14 98  1  0  0  0
 15 99  1  0  0  0
 16 17  2  0  0  0
 16 21  1  0  0  0
 16 31  1  0  0  0
 17 18  1  0  0  0
 17100  1  0  0  0
 18 19  2  0  0  0
 18101  1  0  0  0
 19 20  1  0  0  0
 19 24  1  0  0  0
 20 21  2  0  0  0
 20102  1  0  0  0
 21 23  1  0  0  0
 22 28  1  0  0  0
 22 32  2  0  0  0
 26 27  1  0  0  0
 28103  1  0  0  0
 28104  1  0  0  0
 29105  1  0  0  0
 29106  1  0  0  0
 33 34  1  0  0  0
 33 66  1  0  0  0
 33 70  2  0  0  0
 34 36  1  0  0  0
 34 59  1  0  0  0
 34107  1  0  0  0
 35 44  2  0  0  0
 35 45  1  0  0  0
 35 68  1  0  0  0
 36 56  1  0  0  0
 36108  1  0  0  0
 37 39  1  0  0  0
 37 47  1  0  0  0
 37 66  1  0  0  0
 37109  1  0  0  0
 38 43  2  0  0  0
 38 46  1  0  0  0
 38 47  1  0  0  0
 39 64  1  0  0  0
 39 67  2  0  0  0
 40 52  1  0  0  0
 40 53  2  0  0  0
 40 58  1  0  0  0
 41110  1  0  0  0
 41111  1  0  0  0
 41112  1  0  0  0
 41 48  1  0  0  0
 42 43  1  0  0  0
 42 66  1  0  0  0
 42113  1  0  0  0
 42114  1  0  0  0
 43 44  1  0  0  0
 44115  1  0  0  0
 45 46  2  0  0  0
 45116  1  0  0  0
 46117  1  0  0  0
 47118  1  0  0  0
 47119  1  0  0  0
 48 56  1  0  0  0
 48 65  1  0  0  0
 48120  1  0  0  0
 49 50  1  0  0  0
 49 53  1  0  0  0
 49 64  1  0  0  0
 49121  1  0  0  0
 50 51  1  0  0  0
 50122  1  0  0  0
 50123  1  0  0  0
 51 52  1  0  0  0
 51124  1  0  0  0
 51125  1  0  0  0
 52126  1  0  0  0
 52127  1  0  0  0
 53 54  1  0  0  0
 54 55  2  0  0  0
 54128  1  0  0  0
 55 57  1  0  0  0
 55129  1  0  0  0
 56 69  2  0  0  0
 57 58  2  0  0  0
 57130  1  0  0  0
 58131  1  0  0  0
 59 60  1  0  0  0
 59 61  1  0  0  0
 59 62  1  0  0  0
 60132  1  0  0  0
 60133  1  0  0  0
 60134  1  0  0  0
 61135  1  0  0  0
 61136  1  0  0  0
 61137  1  0  0  0
 62138  1  0  0  0
 62139  1  0  0  0
 62140  1  0  0  0
 63 65  1  0  0  0
 63141  1  0  0  0
 63142  1  0  0  0
 63143  1  0  0  0
 64144  1  0  0  0
 65145  1  0  0  0
 68 81  1  0  0  0
 71 74  2  0  0  0
 71 75  1  0  0  0
 71146  1  0  0  0
 72 74  1  0  0  0
 72 76  2  0  0  0
 72147  1  0  0  0
 73 75  2  0  0  0
 73 76  1  0  0  0
 73148  1  0  0  0
 74 77  1  0  0  0
 75 83  1  0  0  0
 76 86  1  0  0  0
 77 82  1  0  0  0
 77 84  2  0  0  0
 78 79  1  0  0  0
 78 81  1  0  0  0
 78 85  2  0  0  0
 79149  1  0  0  0
 79150  1  0  0  0
 79151  1  0  0  0
 80 84  1  0  0  0
 80152  1  0  0  0
 80153  1  0  0  0
 80 81  1  0  0  0
 81154  1  0  0  0
 82155  1  0  0  0
 82156  1  0  0  0
 83157  1  0  0  0
 84158  1  0  0  0
M  CHG  1  84   1
M  ISO  4   1 100  68 101  81 101  83 100
M  END
> <chiral flag>
0

> <version>
0

> <s_m_source_file>
/data/baiqing/PycharmProjects/Reinvent-master-3.2/result/LINK_invent/BTK/process_docking_weight1_custom_product_contain_oxygen_bond_distance_aromatic_linkinvent_7_9_3/rearranged_h_0160.sdf

> <i_m_source_file_index>
24

> <r_mmod_Potential_Energy-OPLS-2005>
11709.708984375

> <r_mmod_Stretch_Energy-OPLS-2005>
5925.5810546875

> <r_mmod_Bend_Energy-OPLS-2005>
964.88232421875

> <r_mmod_Torsional_Energy-OPLS-2005>
496.020812988281

> <r_mmod_Improper_Torsional_Energy-OPLS-2005>
43.5694351196289

> <r_mmod_Van_der_Waal_Energy-OPLS-2005>
2043.44409179688

> <r_mmod_Electrostatic_Energy-OPLS-2005>
-445.148559570312

> <r_mmod_Solvation_Energy-OPLS-2005>
-436.633178710938

> <b_mmod_Minimization_Converged-OPLS-2005>
0

> <r_mmod_RMS_Derivative-OPLS-2005>
6.15044736862183

$$$$
24
                    3D
 Structure written by MMmdl.
155163  0  0  1  0            999 V2000
  -30.7134  -14.4893   20.5655 C   0  0  0  0  0  0
  -30.4180  -12.3161   19.4304 C   0  0  0  0  0  0
  -29.4942  -12.5016   18.2099 C   0  0  0  0  0  0
  -28.0165  -12.3594   18.6232 C   0  0  0  0  0  0
  -27.6587  -13.2109   19.8709 C   0  0  2  0  0  0
  -28.7011  -13.0196   20.9966 C   0  0  0  0  0  0
  -25.2578  -13.8168   20.5683 C   0  0  0  0  0  0
  -24.1836  -13.0442   20.9189 C   0  0  0  0  0  0
  -24.6394  -11.6909   20.8740 C   0  0  0  0  0  0
  -23.9061  -10.4294   21.0407 C   0  0  0  0  0  0
  -24.3614   -9.4210   21.9185 C   0  0  0  0  0  0
  -23.6291   -8.2244   22.0754 C   0  0  0  0  0  0
  -22.4273   -8.0282   21.3545 C   0  0  0  0  0  0
  -21.9908   -9.0255   20.4647 C   0  0  0  0  0  0
  -22.7234  -10.2136   20.3056 C   0  0  0  0  0  0
  -21.6854   -6.0736   22.5281 C   0  0  0  0  0  0
  -21.4013   -6.5640   23.8214 C   0  0  0  0  0  0
  -21.3658   -5.6792   24.9175 C   0  0  0  0  0  0
  -21.6044   -4.3055   24.7226 C   0  0  0  0  0  0
  -21.8819   -3.8147   23.4348 C   0  0  0  0  0  0
  -21.9193   -4.6964   22.3404 C   0  0  0  0  0  0
  -22.7859  -13.5242   21.1847 C   0  0  0  0  0  0
  -22.1663   -4.2150   21.0982 F   0  0  0  0  0  0
  -21.5628   -3.4539   25.7738 F   0  0  0  0  0  0
  -30.0298  -13.3176   20.4385 N   0  0  0  0  0  0
  -26.3012  -12.9345   20.3352 N   0  0  0  0  0  0
  -25.9322  -11.6502   20.5768 N   0  0  0  0  0  0
  -22.0494  -12.8234   22.0398 N   0  0  0  0  0  0
  -25.4296  -15.1886   20.4075 N   0  0  0  0  0  0
  -31.8439  -14.6362   20.0935 O   0  0  0  0  0  0
  -21.6639   -6.8878   21.4242 O   0  0  0  0  0  0
  -22.3550  -14.5551   20.6697 O   0  0  0  0  0  0
  -24.6160  -31.8668   23.2091 C   0  0  0  0  0  0
  -25.9046  -32.4816   23.8393 C   0  0  1  0  0  0
  -27.2303  -27.4242   20.1019 C   0  0  0  0  0  0
  -25.5897  -33.8614   24.2324 N   0  0  0  0  0  0
  -23.4054  -30.4905   21.5491 C   0  0  2  0  0  0
  -24.8538  -28.9578   20.1107 C   0  0  0  0  0  0
  -22.7424  -29.4651   22.4973 C   0  0  0  0  0  0
  -18.0275  -28.1378   22.8491 C   0  0  0  0  0  0
  -24.1485  -36.7312   23.2638 C   0  0  0  0  0  0
  -25.9357  -30.8312   21.3631 C   0  0  0  0  0  0
  -26.0155  -29.4658   20.7078 C   0  0  0  0  0  0
  -27.2113  -28.7077   20.6980 C   0  0  0  0  0  0
  -26.0568  -26.9378   19.4886 C   0  0  0  0  0  0
  -24.8703  -27.6944   19.4948 C   0  0  0  0  0  0
  -23.6150  -29.8242   20.1632 C   0  0  0  0  0  0
  -25.4105  -36.3107   24.0338 C   0  0  1  0  0  0
  -20.5869  -28.3665   23.1312 C   0  0  2  0  0  0
  -20.6763  -26.9399   22.5415 C   0  0  0  0  0  0
  -19.5741  -26.6387   21.5211 C   0  0  0  0  0  0
  -18.1921  -26.7926   22.1624 C   0  0  0  0  0  0
  -19.1526  -28.8838   23.2899 C   0  0  0  0  0  0
  -18.9452  -30.1445   23.8908 C   0  0  0  0  0  0
  -17.6452  -30.6582   24.0566 C   0  0  0  0  0  0
  -25.9032  -34.9471   23.5128 C   0  0  0  0  0  0
  -16.5343  -29.9083   23.6329 C   0  0  0  0  0  0
  -16.7264  -28.6503   23.0347 C   0  0  0  0  0  0
  -26.4472  -31.6594   25.0721 C   0  0  0  0  0  0
  -25.3741  -31.3698   26.1472 C   0  0  0  0  0  0
  -27.0299  -30.3035   24.6092 C   0  0  0  0  0  0
  -27.6050  -32.4310   25.7483 C   0  0  0  0  0  0
  -27.5579  -37.1810   24.8465 C   0  0  0  0  0  0
  -21.4149  -29.3031   22.3717 N   0  0  0  0  0  0
  -26.4291  -37.3791   23.9410 N   0  0  0  0  0  0
  -24.6708  -31.0765   22.0991 N   0  0  0  0  0  0
  -23.4193  -28.8188   23.3013 O   0  0  0  0  0  0
  -28.3508  -26.6214   20.1384 O   0  0  0  0  0  0
  -26.5596  -34.8922   22.4691 O   0  0  0  0  0  0
  -23.5349  -32.1415   23.7481 O   0  0  0  0  0  0
  -32.1820  -18.6015   21.5652 C   0  0  0  0  0  0
  -31.2181  -19.6262   21.5174 C   0  0  0  0  0  0
  -31.8001  -17.2539   21.4259 C   0  0  0  0  0  0
  -29.4780  -17.9467   21.1737 C   0  0  0  0  0  0
  -29.8554  -19.3128   21.3277 C   0  0  0  0  0  0
  -30.4434  -16.9016   21.2143 C   0  0  0  0  0  0
  -28.8533  -20.4007   21.3696 C   0  0  0  0  0  0
  -28.8076  -24.1648   20.4753 C   0  0  0  0  0  0
  -28.2174  -22.8419   21.0142 C   0  0  0  0  0  0
  -28.1623  -25.4713   20.9971 C   0  0  0  0  0  0
  -30.0237  -15.5293   21.0913 N   0  0  0  0  0  0
  -29.0937  -21.6400   20.8874 N   0  0  0  0  0  0
  -27.6782  -20.1655   21.9510 N   0  3  0  0  0  0
  -29.7644  -24.1618   19.6907 O   0  0  0  0  0  0
  -31.4634  -12.4028   19.1289 H   0  0  0  0  0  0
  -30.3121  -11.3111   19.8418 H   0  0  0  0  0  0
  -29.7378  -11.7704   17.4379 H   0  0  0  0  0  0
  -29.6607  -13.4837   17.7643 H   0  0  0  0  0  0
  -27.8329  -11.3046   18.8310 H   0  0  0  0  0  0
  -27.3644  -12.6209   17.7891 H   0  0  0  0  0  0
  -27.6949  -14.2544   19.5574 H   0  0  0  0  0  0
  -28.6803  -11.9927   21.3643 H   0  0  0  0  0  0
  -28.4622  -13.6435   21.8589 H   0  0  0  0  0  0
  -25.2761   -9.5686   22.4758 H   0  0  0  0  0  0
  -24.0002   -7.4636   22.7472 H   0  0  0  0  0  0
  -21.0841   -8.8772   19.8954 H   0  0  0  0  0  0
  -22.3693  -10.9673   19.6163 H   0  0  0  0  0  0
  -21.2004   -7.6147   23.9716 H   0  0  0  0  0  0
  -21.1479   -6.0523   25.9078 H   0  0  0  0  0  0
  -22.0599   -2.7609   23.2848 H   0  0  0  0  0  0
  -22.4101  -11.9891   22.4785 H   0  0  0  0  0  0
  -21.1112  -13.1263   22.2600 H   0  0  0  0  0  0
  -24.6576  -15.8396   20.5011 H   0  0  0  0  0  0
  -26.2712  -15.6223   20.0504 H   0  0  0  0  0  0
  -26.7119  -32.5529   23.1160 H   0  0  0  0  0  0
  -25.0055  -33.9774   25.0474 H   0  0  0  0  0  0
  -22.6947  -31.3079   21.4102 H   0  0  0  0  0  0
  -23.3741  -35.9653   23.3310 H   0  0  0  0  0  0
  -24.3579  -36.8915   22.2050 H   0  0  0  0  0  0
  -23.7243  -37.6523   23.6645 H   0  0  0  0  0  0
  -26.0488  -31.5982   20.5955 H   0  0  0  0  0  0
  -26.8233  -30.8844   21.9820 H   0  0  0  0  0  0
  -28.1061  -29.0902   21.1689 H   0  0  0  0  0  0
  -26.0560  -25.9648   19.0172 H   0  0  0  0  0  0
  -23.9785  -27.2991   19.0279 H   0  0  0  0  0  0
  -23.7229  -30.5999   19.4042 H   0  0  0  0  0  0
  -22.7390  -29.2442   19.8669 H   0  0  0  0  0  0
  -25.1281  -36.1975   25.0832 H   0  0  0  0  0  0
  -20.9966  -28.3230   24.1430 H   0  0  0  0  0  0
  -20.5663  -26.2270   23.3600 H   0  0  0  0  0  0
  -21.6633  -26.7439   22.1210 H   0  0  0  0  0  0
  -19.6898  -25.6302   21.1228 H   0  0  0  0  0  0
  -19.6679  -27.3209   20.6750 H   0  0  0  0  0  0
  -17.4192  -26.6677   21.4025 H   0  0  0  0  0  0
  -18.0320  -26.0064   22.9018 H   0  0  0  0  0  0
  -19.7927  -30.7262   24.2280 H   0  0  0  0  0  0
  -17.5007  -31.6263   24.5166 H   0  0  0  0  0  0
  -15.5344  -30.2987   23.7646 H   0  0  0  0  0  0
  -15.8665  -28.0828   22.7050 H   0  0  0  0  0  0
  -24.5910  -30.7048   25.7813 H   0  0  0  0  0  0
  -24.8935  -32.2852   26.4937 H   0  0  0  0  0  0
  -25.8099  -30.8858   27.0221 H   0  0  0  0  0  0
  -26.2840  -29.6800   24.1149 H   0  0  0  0  0  0
  -27.4072  -29.7267   25.4546 H   0  0  0  0  0  0
  -27.8675  -30.4354   23.9238 H   0  0  0  0  0  0
  -27.2676  -33.3600   26.2091 H   0  0  0  0  0  0
  -28.3847  -32.6883   25.0302 H   0  0  0  0  0  0
  -28.0733  -31.8413   26.5373 H   0  0  0  0  0  0
  -28.2605  -38.0101   24.7510 H   0  0  0  0  0  0
  -28.1067  -36.2632   24.6293 H   0  0  0  0  0  0
  -27.2299  -37.1470   25.8870 H   0  0  0  0  0  0
  -20.9308  -29.8758   21.6943 H   0  0  0  0  0  0
  -26.0179  -38.2870   24.1408 H   0  0  0  0  0  0
  -33.2221  -18.8470   21.7281 H   0  0  0  0  0  0
  -31.5317  -20.6518   21.6586 H   0  0  0  0  0  0
  -32.5716  -16.5020   21.5002 H   0  0  0  0  0  0
  -28.4358  -17.6989   21.0286 H   0  0  0  0  0  0
  -27.2778  -22.6598   20.4916 H   0  0  0  0  0  0
  -27.9689  -22.9931   22.0655 H   0  0  0  0  0  0
  -28.5970  -25.6973   21.9706 H   0  0  0  0  0  0
  -27.1050  -25.2717   21.1758 H   0  0  0  0  0  0
  -29.0666  -15.3254   21.3333 H   0  0  0  0  0  0
  -29.9575  -21.7983   20.3795 H   0  0  0  0  0  0
  -27.5254  -19.2734   22.3966 H   0  0  0  0  0  0
  -26.9394  -20.8458   21.9841 H   0  0  0  0  0  0
  1 25  1  0  0  0
  1 30  2  0  0  0
  1 81  1  0  0  0
  2  3  1  0  0  0
  2 25  1  0  0  0
  2 85  1  0  0  0
  2 86  1  0  0  0
  3  4  1  0  0  0
  3 87  1  0  0  0
  3 88  1  0  0  0
  4  5  1  0  0  0
  4 89  1  0  0  0
  4 90  1  0  0  0
  5  6  1  0  0  0
  5 26  1  0  0  0
  5 91  1  0  0  0
  6 25  1  0  0  0
  6 92  1  0  0  0
  6 93  1  0  0  0
  7  8  2  0  0  0
  7 26  1  0  0  0
  7 29  1  0  0  0
  8  9  1  0  0  0
  8 22  1  0  0  0
  9 10  1  0  0  0
  9 27  2  0  0  0
 10 11  2  0  0  0
 10 15  1  0  0  0
 11 12  1  0  0  0
 11 94  1  0  0  0
 12 13  2  0  0  0
 12 95  1  0  0  0
 13 14  1  0  0  0
 13 31  1  0  0  0
 14 15  2  0  0  0
 14 96  1  0  0  0
 15 97  1  0  0  0
 16 17  2  0  0  0
 16 21  1  0  0  0
 16 31  1  0  0  0
 17 18  1  0  0  0
 17 98  1  0  0  0
 18 19  2  0  0  0
 18 99  1  0  0  0
 19 20  1  0  0  0
 19 24  1  0  0  0
 20 21  2  0  0  0
 20100  1  0  0  0
 21 23  1  0  0  0
 22 28  1  0  0  0
 22 32  2  0  0  0
 26 27  1  0  0  0
 28101  1  0  0  0
 28102  1  0  0  0
 29103  1  0  0  0
 29104  1  0  0  0
 33 34  1  0  0  0
 33 66  1  0  0  0
 33 70  2  0  0  0
 34 36  1  0  0  0
 34 59  1  0  0  0
 34105  1  0  0  0
 35 44  2  0  0  0
 35 45  1  0  0  0
 35 68  1  0  0  0
 36 56  1  0  0  0
 36106  1  0  0  0
 37 39  1  0  0  0
 37 47  1  0  0  0
 37 66  1  0  0  0
 37107  1  0  0  0
 38 43  2  0  0  0
 38 46  1  0  0  0
 38 47  1  0  0  0
 39 64  1  0  0  0
 39 67  2  0  0  0
 40 52  1  0  0  0
 40 53  2  0  0  0
 40 58  1  0  0  0
 41108  1  0  0  0
 41109  1  0  0  0
 41110  1  0  0  0
 41 48  1  0  0  0
 42 43  1  0  0  0
 42 66  1  0  0  0
 42111  1  0  0  0
 42112  1  0  0  0
 43 44  1  0  0  0
 44113  1  0  0  0
 45 46  2  0  0  0
 45114  1  0  0  0
 46115  1  0  0  0
 47116  1  0  0  0
 47117  1  0  0  0
 48 56  1  0  0  0
 48 65  1  0  0  0
 48118  1  0  0  0
 49 50  1  0  0  0
 49 53  1  0  0  0
 49 64  1  0  0  0
 49119  1  0  0  0
 50 51  1  0  0  0
 50120  1  0  0  0
 50121  1  0  0  0
 51 52  1  0  0  0
 51122  1  0  0  0
 51123  1  0  0  0
 52124  1  0  0  0
 52125  1  0  0  0
 53 54  1  0  0  0
 54 55  2  0  0  0
 54126  1  0  0  0
 55 57  1  0  0  0
 55127  1  0  0  0
 56 69  2  0  0  0
 57 58  2  0  0  0
 57128  1  0  0  0
 58129  1  0  0  0
 59 60  1  0  0  0
 59 61  1  0  0  0
 59 62  1  0  0  0
 60130  1  0  0  0
 60131  1  0  0  0
 60132  1  0  0  0
 61133  1  0  0  0
 61134  1  0  0  0
 61135  1  0  0  0
 62136  1  0  0  0
 62137  1  0  0  0
 62138  1  0  0  0
 63 65  1  0  0  0
 63139  1  0  0  0
 63140  1  0  0  0
 63141  1  0  0  0
 64142  1  0  0  0
 65143  1  0  0  0
 68 80  1  0  0  0
 71 72  2  0  0  0
 71 73  1  0  0  0
 71144  1  0  0  0
 72 75  1  0  0  0
 72145  1  0  0  0
 73 76  2  0  0  0
 73146  1  0  0  0
 74 75  2  0  0  0
 74 76  1  0  0  0
 74147  1  0  0  0
 75 77  1  0  0  0
 76 81  1  0  0  0
 77 82  1  0  0  0
 77 83  2  0  0  0
 78 79  1  0  0  0
 78 80  1  0  0  0
 78 84  2  0  0  0
 79 82  1  0  0  0
 79148  1  0  0  0
 79149  1  0  0  0
 80150  1  0  0  0
 80151  1  0  0  0
 81152  1  0  0  0
 82153  1  0  0  0
 83154  1  0  0  0
 83155  1  0  0  0
M  CHG  1  83   1
M  ISO  4   1 100  68 101  80 101  81 100
M  END
> <chiral flag>
0

> <version>
0

> <s_m_source_file>
/data/baiqing/PycharmProjects/Reinvent-master-3.2/result/LINK_invent/BTK/process_docking_weight1_custom_product_contain_oxygen_bond_distance_aromatic_linkinvent_7_9_3/rearranged_h_0160.sdf

> <i_m_source_file_index>
25

> <r_mmod_Potential_Energy-OPLS-2005>
-318.435882568359

> <r_mmod_Stretch_Energy-OPLS-2005>
42.6956825256348

> <r_mmod_Bend_Energy-OPLS-2005>
94.7338104248047

> <r_mmod_Torsional_Energy-OPLS-2005>
233.518249511719

> <r_mmod_Improper_Torsional_Energy-OPLS-2005>
4.15099143981934

> <r_mmod_Van_der_Waal_Energy-OPLS-2005>
156.131591796875

> <r_mmod_Electrostatic_Energy-OPLS-2005>
-417.137176513672

> <r_mmod_Solvation_Energy-OPLS-2005>
-449.292572021484

> <b_mmod_Minimization_Converged-OPLS-2005>
0

> <r_mmod_RMS_Derivative-OPLS-2005>
0.422327429056168

$$$$
25
                    3D
 Structure written by MMmdl.
158167  0  0  1  0            999 V2000
  -30.6565  -14.5878   20.4908 C   0  0  0  0  0  0
  -30.4238  -12.3566   19.4459 C   0  0  0  0  0  0
  -29.5024  -12.4972   18.2151 C   0  0  0  0  0  0
  -28.0227  -12.3519   18.6248 C   0  0  0  0  0  0
  -27.6524  -13.2175   19.8596 C   0  0  2  0  0  0
  -28.6958  -13.0689   20.9898 C   0  0  0  0  0  0
  -25.2566  -13.8167   20.5678 C   0  0  0  0  0  0
  -24.1838  -13.0432   20.9183 C   0  0  0  0  0  0
  -24.6404  -11.6903   20.8722 C   0  0  0  0  0  0
  -23.9074  -10.4287   21.0391 C   0  0  0  0  0  0
  -24.3630   -9.4206   21.9168 C   0  0  0  0  0  0
  -23.6301   -8.2243   22.0748 C   0  0  0  0  0  0
  -22.4277   -8.0280   21.3544 C   0  0  0  0  0  0
  -21.9914   -9.0255   20.4646 C   0  0  0  0  0  0
  -22.7244  -10.2131   20.3048 C   0  0  0  0  0  0
  -21.6857   -6.0732   22.5277 C   0  0  0  0  0  0
  -21.4014   -6.5640   23.8206 C   0  0  0  0  0  0
  -21.3655   -5.6792   24.9169 C   0  0  0  0  0  0
  -21.6043   -4.3053   24.7223 C   0  0  0  0  0  0
  -21.8823   -3.8148   23.4342 C   0  0  0  0  0  0
  -21.9196   -4.6962   22.3399 C   0  0  0  0  0  0
  -22.7862  -13.5224   21.1842 C   0  0  0  0  0  0
  -22.1667   -4.2152   21.0973 F   0  0  0  0  0  0
  -21.5629   -3.4537   25.7735 F   0  0  0  0  0  0
  -30.0143  -13.3833   20.4238 N   0  0  0  0  0  0
  -26.2994  -12.9353   20.3291 N   0  0  0  0  0  0
  -25.9328  -11.6505   20.5731 N   0  0  0  0  0  0
  -22.0508  -12.8219   22.0401 N   0  0  0  0  0  0
  -25.4268  -15.1885   20.4085 N   0  0  0  0  0  0
  -31.8327  -14.6954   20.1365 O   0  0  0  0  0  0
  -21.6637   -6.8879   21.4240 O   0  0  0  0  0  0
  -22.3547  -14.5525   20.6681 O   0  0  0  0  0  0
  -24.6220  -31.8632   23.2033 C   0  0  0  0  0  0
  -25.9089  -32.4797   23.8350 C   0  0  1  0  0  0
  -27.2270  -27.3594   20.1079 C   0  0  0  0  0  0
  -25.5924  -33.8591   24.2298 N   0  0  0  0  0  0
  -23.4130  -30.4855   21.5446 C   0  0  2  0  0  0
  -24.8574  -28.9393   20.1096 C   0  0  0  0  0  0
  -22.7446  -29.4652   22.4946 C   0  0  0  0  0  0
  -18.0293  -28.1410   22.8508 C   0  0  0  0  0  0
  -24.1481  -36.7279   23.2642 C   0  0  0  0  0  0
  -25.9481  -30.8045   21.3668 C   0  0  0  0  0  0
  -26.0199  -29.4335   20.7122 C   0  0  0  0  0  0
  -27.2037  -28.6500   20.7064 C   0  0  0  0  0  0
  -26.0444  -26.8972   19.4898 C   0  0  0  0  0  0
  -24.8684  -27.6751   19.4937 C   0  0  0  0  0  0
  -23.6250  -29.8177   20.1598 C   0  0  0  0  0  0
  -25.4109  -36.3092   24.0342 C   0  0  1  0  0  0
  -20.5890  -28.3707   23.1311 C   0  0  2  0  0  0
  -20.6775  -26.9430   22.5439 C   0  0  0  0  0  0
  -19.5753  -26.6410   21.5232 C   0  0  0  0  0  0
  -18.1928  -26.7964   22.1627 C   0  0  0  0  0  0
  -19.1545  -28.8871   23.2912 C   0  0  0  0  0  0
  -18.9464  -30.1477   23.8927 C   0  0  0  0  0  0
  -17.6462  -30.6603   24.0594 C   0  0  0  0  0  0
  -25.9052  -34.9465   23.5117 C   0  0  0  0  0  0
  -16.5359  -29.9111   23.6332 C   0  0  0  0  0  0
  -16.7280  -28.6531   23.0351 C   0  0  0  0  0  0
  -26.4482  -31.6603   25.0707 C   0  0  0  0  0  0
  -25.3730  -31.3747   26.1449 C   0  0  0  0  0  0
  -27.0303  -30.3031   24.6132 C   0  0  0  0  0  0
  -27.6072  -32.4323   25.7453 C   0  0  0  0  0  0
  -27.5588  -37.1791   24.8468 C   0  0  0  0  0  0
  -21.4162  -29.3051   22.3685 N   0  0  0  0  0  0
  -26.4288  -37.3792   23.9433 N   0  0  0  0  0  0
  -24.6797  -31.0674   22.0959 N   0  0  0  0  0  0
  -23.4177  -28.8194   23.3026 O   0  0  0  0  0  0
  -28.3826  -26.5859   20.1634 O   0  0  0  0  0  0
  -26.5615  -34.8928   22.4680 O   0  0  0  0  0  0
  -23.5394  -32.1429   23.7386 O   0  0  0  0  0  0
  -29.2454  -18.1018   21.0803 C   0  0  0  0  0  0
  -30.6122  -19.9120   20.1882 C   0  0  0  0  0  0
  -31.2257  -17.5728   19.7850 C   0  0  0  0  0  0
  -29.4814  -19.5155   20.9279 C   0  0  0  0  0  0
  -30.1287  -17.1026   20.5524 C   0  0  0  0  0  0
  -31.4609  -18.9521   19.6077 C   0  0  0  0  0  0
  -28.3475  -24.1530   20.5302 C   0  0  0  0  0  0
  -28.4452  -25.2570   19.7325 C   0  0  0  0  0  0
  -28.6846  -20.5347   21.6889 C   0  0  0  0  0  0
  -27.9428  -24.1998   21.9756 C   0  0  0  0  0  0
  -28.6546  -22.6795   20.1553 C   0  0  0  0  0  0
  -27.7496  -22.7403   22.4021 C   0  0  0  0  0  0
  -28.4058  -21.8627   21.3932 N   0  0  0  0  0  0
  -29.8866  -15.6790   20.7919 N   0  0  0  0  0  0
  -28.2259  -20.0868   22.8580 N   0  3  0  0  0  0
  -32.5347  -19.3622   18.8920 F   0  0  0  0  0  0
  -31.4690  -12.4536   19.1471 H   0  0  0  0  0  0
  -30.3305  -11.3607   19.8817 H   0  0  0  0  0  0
  -29.7545  -11.7460   17.4652 H   0  0  0  0  0  0
  -29.6634  -13.4664   17.7403 H   0  0  0  0  0  0
  -27.8442  -11.2987   18.8436 H   0  0  0  0  0  0
  -27.3737  -12.5993   17.7835 H   0  0  0  0  0  0
  -27.6722  -14.2541   19.5227 H   0  0  0  0  0  0
  -28.6938  -12.0508   21.3815 H   0  0  0  0  0  0
  -28.4539  -13.7145   21.8360 H   0  0  0  0  0  0
  -25.2781   -9.5677   22.4734 H   0  0  0  0  0  0
  -24.0015   -7.4632   22.7466 H   0  0  0  0  0  0
  -21.0844   -8.8773   19.8954 H   0  0  0  0  0  0
  -22.3702  -10.9669   19.6159 H   0  0  0  0  0  0
  -21.2004   -7.6149   23.9712 H   0  0  0  0  0  0
  -21.1470   -6.0516   25.9069 H   0  0  0  0  0  0
  -22.0606   -2.7613   23.2836 H   0  0  0  0  0  0
  -22.4136  -11.9892   22.4805 H   0  0  0  0  0  0
  -21.1124  -13.1237   22.2594 H   0  0  0  0  0  0
  -24.6515  -15.8357   20.5033 H   0  0  0  0  0  0
  -26.2623  -15.6256   20.0421 H   0  0  0  0  0  0
  -26.7158  -32.5478   23.1099 H   0  0  0  0  0  0
  -25.0076  -33.9744   25.0444 H   0  0  0  0  0  0
  -22.7068  -31.3062   21.4039 H   0  0  0  0  0  0
  -23.3755  -35.9601   23.3302 H   0  0  0  0  0  0
  -24.3576  -36.8894   22.2060 H   0  0  0  0  0  0
  -23.7209  -37.6471   23.6649 H   0  0  0  0  0  0
  -26.0751  -31.5665   20.5972 H   0  0  0  0  0  0
  -26.8302  -30.8546   21.9938 H   0  0  0  0  0  0
  -28.1000  -29.0247   21.1798 H   0  0  0  0  0  0
  -26.0152  -25.9259   19.0183 H   0  0  0  0  0  0
  -23.9747  -27.2901   19.0229 H   0  0  0  0  0  0
  -23.7464  -30.5929   19.4027 H   0  0  0  0  0  0
  -22.7440  -29.2484   19.8570 H   0  0  0  0  0  0
  -25.1285  -36.1944   25.0835 H   0  0  0  0  0  0
  -21.0021  -28.3302   24.1418 H   0  0  0  0  0  0
  -20.5677  -26.2313   23.3637 H   0  0  0  0  0  0
  -21.6644  -26.7467   22.1241 H   0  0  0  0  0  0
  -19.6894  -25.6318   21.1265 H   0  0  0  0  0  0
  -19.6693  -27.3211   20.6754 H   0  0  0  0  0  0
  -17.4211  -26.6760   21.4011 H   0  0  0  0  0  0
  -18.0293  -26.0099   22.9002 H   0  0  0  0  0  0
  -19.7935  -30.7304   24.2298 H   0  0  0  0  0  0
  -17.5008  -31.6281   24.5197 H   0  0  0  0  0  0
  -15.5357  -30.3019   23.7625 H   0  0  0  0  0  0
  -15.8688  -28.0852   22.7051 H   0  0  0  0  0  0
  -24.5936  -30.7038   25.7796 H   0  0  0  0  0  0
  -24.8868  -32.2905   26.4826 H   0  0  0  0  0  0
  -25.8078  -30.8987   27.0248 H   0  0  0  0  0  0
  -26.2845  -29.6790   24.1187 H   0  0  0  0  0  0
  -27.4039  -29.7287   25.4620 H   0  0  0  0  0  0
  -27.8700  -30.4321   23.9301 H   0  0  0  0  0  0
  -27.2720  -33.3635   26.2034 H   0  0  0  0  0  0
  -28.3859  -32.6867   25.0248 H   0  0  0  0  0  0
  -28.0752  -31.8435   26.5356 H   0  0  0  0  0  0
  -28.2624  -38.0077   24.7545 H   0  0  0  0  0  0
  -28.1070  -36.2618   24.6249 H   0  0  0  0  0  0
  -27.2328  -37.1413   25.8879 H   0  0  0  0  0  0
  -20.9318  -29.8738   21.6880 H   0  0  0  0  0  0
  -26.0167  -38.2864   24.1447 H   0  0  0  0  0  0
  -28.3940  -17.7718   21.6592 H   0  0  0  0  0  0
  -30.8766  -20.9510   20.0899 H   0  0  0  0  0  0
  -31.9250  -16.9015   19.3143 H   0  0  0  0  0  0
  -28.7500  -25.1974   18.6964 H   0  0  0  0  0  0
  -27.0280  -24.7817   22.0988 H   0  0  0  0  0  0
  -28.7305  -24.6733   22.5615 H   0  0  0  0  0  0
  -29.6875  -22.6204   19.8195 H   0  0  0  0  0  0
  -28.0095  -22.3526   19.3384 H   0  0  0  0  0  0
  -26.6851  -22.4997   22.4482 H   0  0  0  0  0  0
  -28.1628  -22.5975   23.4020 H   0  0  0  0  0  0
  -28.9752  -15.4468   21.1561 H   0  0  0  0  0  0
  -28.4800  -19.1570   23.1516 H   0  0  0  0  0  0
  -27.6441  -20.6381   23.4638 H   0  0  0  0  0  0
  1 25  1  0  0  0
  1 30  2  0  0  0
  1 84  1  0  0  0
  2  3  1  0  0  0
  2 25  1  0  0  0
  2 87  1  0  0  0
  2 88  1  0  0  0
  3  4  1  0  0  0
  3 89  1  0  0  0
  3 90  1  0  0  0
  4  5  1  0  0  0
  4 91  1  0  0  0
  4 92  1  0  0  0
  5  6  1  0  0  0
  5 26  1  0  0  0
  5 93  1  0  0  0
  6 25  1  0  0  0
  6 94  1  0  0  0
  6 95  1  0  0  0
  7  8  2  0  0  0
  7 26  1  0  0  0
  7 29  1  0  0  0
  8  9  1  0  0  0
  8 22  1  0  0  0
  9 10  1  0  0  0
  9 27  2  0  0  0
 10 11  2  0  0  0
 10 15  1  0  0  0
 11 12  1  0  0  0
 11 96  1  0  0  0
 12 13  2  0  0  0
 12 97  1  0  0  0
 13 14  1  0  0  0
 13 31  1  0  0  0
 14 15  2  0  0  0
 14 98  1  0  0  0
 15 99  1  0  0  0
 16 17  2  0  0  0
 16 21  1  0  0  0
 16 31  1  0  0  0
 17 18  1  0  0  0
 17100  1  0  0  0
 18 19  2  0  0  0
 18101  1  0  0  0
 19 20  1  0  0  0
 19 24  1  0  0  0
 20 21  2  0  0  0
 20102  1  0  0  0
 21 23  1  0  0  0
 22 28  1  0  0  0
 22 32  2  0  0  0
 26 27  1  0  0  0
 28103  1  0  0  0
 28104  1  0  0  0
 29105  1  0  0  0
 29106  1  0  0  0
 33 34  1  0  0  0
 33 66  1  0  0  0
 33 70  2  0  0  0
 34 36  1  0  0  0
 34 59  1  0  0  0
 34107  1  0  0  0
 35 44  2  0  0  0
 35 45  1  0  0  0
 35 68  1  0  0  0
 36 56  1  0  0  0
 36108  1  0  0  0
 37 39  1  0  0  0
 37 47  1  0  0  0
 37 66  1  0  0  0
 37109  1  0  0  0
 38 43  2  0  0  0
 38 46  1  0  0  0
 38 47  1  0  0  0
 39 64  1  0  0  0
 39 67  2  0  0  0
 40 52  1  0  0  0
 40 53  2  0  0  0
 40 58  1  0  0  0
 41110  1  0  0  0
 41111  1  0  0  0
 41112  1  0  0  0
 41 48  1  0  0  0
 42 43  1  0  0  0
 42 66  1  0  0  0
 42113  1  0  0  0
 42114  1  0  0  0
 43 44  1  0  0  0
 44115  1  0  0  0
 45 46  2  0  0  0
 45116  1  0  0  0
 46117  1  0  0  0
 47118  1  0  0  0
 47119  1  0  0  0
 48 56  1  0  0  0
 48 65  1  0  0  0
 48120  1  0  0  0
 49 50  1  0  0  0
 49 53  1  0  0  0
 49 64  1  0  0  0
 49121  1  0  0  0
 50 51  1  0  0  0
 50122  1  0  0  0
 50123  1  0  0  0
 51 52  1  0  0  0
 51124  1  0  0  0
 51125  1  0  0  0
 52126  1  0  0  0
 52127  1  0  0  0
 53 54  1  0  0  0
 54 55  2  0  0  0
 54128  1  0  0  0
 55 57  1  0  0  0
 55129  1  0  0  0
 56 69  2  0  0  0
 57 58  2  0  0  0
 57130  1  0  0  0
 58131  1  0  0  0
 59 60  1  0  0  0
 59 61  1  0  0  0
 59 62  1  0  0  0
 60132  1  0  0  0
 60133  1  0  0  0
 60134  1  0  0  0
 61135  1  0  0  0
 61136  1  0  0  0
 61137  1  0  0  0
 62138  1  0  0  0
 62139  1  0  0  0
 62140  1  0  0  0
 63 65  1  0  0  0
 63141  1  0  0  0
 63142  1  0  0  0
 63143  1  0  0  0
 64144  1  0  0  0
 65145  1  0  0  0
 68 78  1  0  0  0
 71 74  2  0  0  0
 71 75  1  0  0  0
 71146  1  0  0  0
 72 74  1  0  0  0
 72 76  2  0  0  0
 72147  1  0  0  0
 73 75  2  0  0  0
 73 76  1  0  0  0
 73148  1  0  0  0
 74 79  1  0  0  0
 75 84  1  0  0  0
 76 86  1  0  0  0
 77 78  2  0  0  0
 77 80  1  0  0  0
 77 81  1  0  0  0
 78149  1  0  0  0
 79 83  1  0  0  0
 79 85  2  0  0  0
 80 82  1  0  0  0
 80150  1  0  0  0
 80151  1  0  0  0
 81 83  1  0  0  0
 81152  1  0  0  0
 81153  1  0  0  0
 82 83  1  0  0  0
 82154  1  0  0  0
 82155  1  0  0  0
 84156  1  0  0  0
 85157  1  0  0  0
 85158  1  0  0  0
M  CHG  1  85   1
M  ISO  4   1 100  68 101  78 101  84 100
M  END
> <chiral flag>
0

> <version>
0

> <s_m_source_file>
/data/baiqing/PycharmProjects/Reinvent-master-3.2/result/LINK_invent/BTK/process_docking_weight1_custom_product_contain_oxygen_bond_distance_aromatic_linkinvent_7_9_3/rearranged_h_0160.sdf

> <i_m_source_file_index>
26

> <r_mmod_Potential_Energy-OPLS-2005>
-162.573883056641

> <r_mmod_Stretch_Energy-OPLS-2005>
66.0307464599609

> <r_mmod_Bend_Energy-OPLS-2005>
153.479354858398

> <r_mmod_Torsional_Energy-OPLS-2005>
249.654190063477

> <r_mmod_Improper_Torsional_Energy-OPLS-2005>
5.64215850830078

> <r_mmod_Van_der_Waal_Energy-OPLS-2005>
156.392730712891

> <r_mmod_Electrostatic_Energy-OPLS-2005>
-411.867706298828

> <r_mmod_Solvation_Energy-OPLS-2005>
-415.372192382812

> <b_mmod_Minimization_Converged-OPLS-2005>
0

> <r_mmod_RMS_Derivative-OPLS-2005>
1.80793857574463

$$$$
26
                    3D
 Structure written by MMmdl.
151159  0  0  1  0            999 V2000
  -30.6333  -14.5696   20.5637 C   0  0  0  0  0  0
  -30.4440  -12.3637   19.4348 C   0  0  0  0  0  0
  -29.5051  -12.5139   18.2172 C   0  0  0  0  0  0
  -28.0261  -12.3596   18.6284 C   0  0  0  0  0  0
  -27.6618  -13.2056   19.8769 C   0  0  2  0  0  0
  -28.7044  -12.9969   20.9988 C   0  0  0  0  0  0
  -25.2589  -13.8146   20.5666 C   0  0  0  0  0  0
  -24.1834  -13.0433   20.9168 C   0  0  0  0  0  0
  -24.6385  -11.6899   20.8734 C   0  0  0  0  0  0
  -23.9044  -10.4288   21.0397 C   0  0  0  0  0  0
  -24.3599   -9.4209   21.9179 C   0  0  0  0  0  0
  -23.6280   -8.2241   22.0759 C   0  0  0  0  0  0
  -22.4266   -8.0269   21.3543 C   0  0  0  0  0  0
  -21.9890   -9.0242   20.4647 C   0  0  0  0  0  0
  -22.7216  -10.2126   20.3051 C   0  0  0  0  0  0
  -21.6849   -6.0727   22.5277 C   0  0  0  0  0  0
  -21.4011   -6.5633   23.8212 C   0  0  0  0  0  0
  -21.3661   -5.6789   24.9174 C   0  0  0  0  0  0
  -21.6046   -4.3053   24.7225 C   0  0  0  0  0  0
  -21.8820   -3.8143   23.4347 C   0  0  0  0  0  0
  -21.9191   -4.6955   22.3401 C   0  0  0  0  0  0
  -22.7858  -13.5240   21.1832 C   0  0  0  0  0  0
  -22.1660   -4.2141   21.0979 F   0  0  0  0  0  0
  -21.5632   -3.4537   25.7738 F   0  0  0  0  0  0
  -30.0289  -13.3481   20.4517 N   0  0  0  0  0  0
  -26.3023  -12.9312   20.3367 N   0  0  0  0  0  0
  -25.9312  -11.6481   20.5767 N   0  0  0  0  0  0
  -22.0493  -12.8233   22.0391 N   0  0  0  0  0  0
  -25.4315  -15.1863   20.4079 N   0  0  0  0  0  0
  -31.7458  -14.8023   20.0776 O   0  0  0  0  0  0
  -21.6639   -6.8863   21.4239 O   0  0  0  0  0  0
  -22.3544  -14.5548   20.6678 O   0  0  0  0  0  0
  -24.6223  -31.8616   23.2040 C   0  0  0  0  0  0
  -25.9084  -32.4782   23.8351 C   0  0  1  0  0  0
  -27.2344  -27.3690   20.0927 C   0  0  0  0  0  0
  -25.5906  -33.8583   24.2288 N   0  0  0  0  0  0
  -23.4132  -30.4874   21.5449 C   0  0  2  0  0  0
  -24.8593  -28.9479   20.1063 C   0  0  0  0  0  0
  -22.7449  -29.4637   22.4934 C   0  0  0  0  0  0
  -18.0283  -28.1394   22.8489 C   0  0  0  0  0  0
  -24.1488  -36.7297   23.2638 C   0  0  0  0  0  0
  -25.9492  -30.8090   21.3657 C   0  0  0  0  0  0
  -26.0249  -29.4406   20.7062 C   0  0  0  0  0  0
  -27.2122  -28.6591   20.6963 C   0  0  0  0  0  0
  -26.0391  -26.9070   19.4939 C   0  0  0  0  0  0
  -24.8647  -27.6833   19.4973 C   0  0  0  0  0  0
  -23.6243  -29.8225   20.1585 C   0  0  0  0  0  0
  -25.4113  -36.3099   24.0343 C   0  0  1  0  0  0
  -20.5885  -28.3677   23.1298 C   0  0  2  0  0  0
  -20.6773  -26.9403   22.5418 C   0  0  0  0  0  0
  -19.5747  -26.6393   21.5217 C   0  0  0  0  0  0
  -18.1927  -26.7939   22.1629 C   0  0  0  0  0  0
  -19.1540  -28.8851   23.2888 C   0  0  0  0  0  0
  -18.9466  -30.1453   23.8908 C   0  0  0  0  0  0
  -17.6472  -30.6598   24.0573 C   0  0  0  0  0  0
  -25.9042  -34.9465   23.5116 C   0  0  0  0  0  0
  -16.5360  -29.9105   23.6333 C   0  0  0  0  0  0
  -16.7275  -28.6520   23.0351 C   0  0  0  0  0  0
  -26.4476  -31.6592   25.0711 C   0  0  0  0  0  0
  -25.3728  -31.3739   26.1462 C   0  0  0  0  0  0
  -27.0285  -30.3022   24.6126 C   0  0  0  0  0  0
  -27.6040  -32.4305   25.7483 C   0  0  0  0  0  0
  -27.5581  -37.1803   24.8463 C   0  0  0  0  0  0
  -21.4174  -29.3049   22.3698 N   0  0  0  0  0  0
  -26.4285  -37.3795   23.9417 N   0  0  0  0  0  0
  -24.6802  -31.0660   22.0966 N   0  0  0  0  0  0
  -23.4194  -28.8166   23.2990 O   0  0  0  0  0  0
  -28.3810  -26.5755   20.1508 O   0  0  0  0  0  0
  -26.5605  -34.8922   22.4675 O   0  0  0  0  0  0
  -23.5396  -32.1397   23.7386 O   0  0  0  0  0  0
  -29.8603  -17.8713   20.1058 C   0  0  0  0  0  0
  -29.9259  -17.6150   22.4319 C   0  0  0  0  0  0
  -29.9685  -16.9630   21.2255 C   0  0  0  0  0  0
  -29.6924  -19.2073   20.4751 C   0  0  0  0  0  0
  -28.4171  -25.3109   19.5587 C   0  0  0  0  0  0
  -29.3926  -20.3915   19.6375 C   0  0  0  0  0  0
  -28.8600  -24.1634   20.1540 C   0  0  0  0  0  0
  -28.8802  -22.8831   19.4031 C   0  0  0  0  0  0
  -29.8815  -15.5216   21.1779 N   0  0  0  0  0  0
  -29.2819  -21.6754   20.1361 N   0  0  0  0  0  0
  -29.2003  -20.1383   18.3297 N   0  3  0  0  0  0
  -28.5768  -22.7854   18.2058 O   0  0  0  0  0  0
  -29.2835  -24.1899   21.4272 O   0  0  0  0  0  0
  -29.7585  -19.3463   22.2208 S   0  0  0  0  0  0
  -31.4826  -12.5020   19.1304 H   0  0  0  0  0  0
  -30.3873  -11.3539   19.8446 H   0  0  0  0  0  0
  -29.7588  -11.7768   17.4544 H   0  0  0  0  0  0
  -29.6566  -13.4919   17.7596 H   0  0  0  0  0  0
  -27.8459  -11.3028   18.8320 H   0  0  0  0  0  0
  -27.3744  -12.6213   17.7933 H   0  0  0  0  0  0
  -27.7010  -14.2520   19.5726 H   0  0  0  0  0  0
  -28.7053  -11.9561   21.3264 H   0  0  0  0  0  0
  -28.4446  -13.5754   21.8860 H   0  0  0  0  0  0
  -25.2741   -9.5690   22.4753 H   0  0  0  0  0  0
  -23.9990   -7.4636   22.7481 H   0  0  0  0  0  0
  -21.0822   -8.8753   19.8953 H   0  0  0  0  0  0
  -22.3665  -10.9659   19.6161 H   0  0  0  0  0  0
  -21.2002   -7.6143   23.9707 H   0  0  0  0  0  0
  -21.1485   -6.0521   25.9075 H   0  0  0  0  0  0
  -22.0598   -2.7600   23.2849 H   0  0  0  0  0  0
  -22.4088  -11.9877   22.4764 H   0  0  0  0  0  0
  -21.1129  -13.1283   22.2621 H   0  0  0  0  0  0
  -24.6660  -15.8432   20.5111 H   0  0  0  0  0  0
  -26.2859  -15.6244   20.0872 H   0  0  0  0  0  0
  -26.7150  -32.5468   23.1097 H   0  0  0  0  0  0
  -25.0056  -33.9713   25.0439 H   0  0  0  0  0  0
  -22.7082  -31.3099   21.4041 H   0  0  0  0  0  0
  -23.3750  -35.9619   23.3298 H   0  0  0  0  0  0
  -24.3596  -36.8911   22.2048 H   0  0  0  0  0  0
  -23.7231  -37.6500   23.6651 H   0  0  0  0  0  0
  -26.0728  -31.5767   20.5999 H   0  0  0  0  0  0
  -26.8321  -30.8558   21.9921 H   0  0  0  0  0  0
  -28.1081  -29.0328   21.1723 H   0  0  0  0  0  0
  -25.9811  -25.9300   19.0377 H   0  0  0  0  0  0
  -23.9665  -27.2945   19.0370 H   0  0  0  0  0  0
  -23.7386  -30.6000   19.4023 H   0  0  0  0  0  0
  -22.7437  -29.2504   19.8594 H   0  0  0  0  0  0
  -25.1293  -36.1942   25.0837 H   0  0  0  0  0  0
  -20.9977  -28.3242   24.1418 H   0  0  0  0  0  0
  -20.5667  -26.2280   23.3611 H   0  0  0  0  0  0
  -21.6639  -26.7445   22.1206 H   0  0  0  0  0  0
  -19.6899  -25.6307   21.1229 H   0  0  0  0  0  0
  -19.6681  -27.3216   20.6758 H   0  0  0  0  0  0
  -17.4197  -26.6678   21.4036 H   0  0  0  0  0  0
  -18.0328  -26.0103   22.9044 H   0  0  0  0  0  0
  -19.7947  -30.7264   24.2273 H   0  0  0  0  0  0
  -17.5037  -31.6279   24.5170 H   0  0  0  0  0  0
  -15.5358  -30.3011   23.7662 H   0  0  0  0  0  0
  -15.8679  -28.0854   22.7046 H   0  0  0  0  0  0
  -24.5894  -30.7087   25.7833 H   0  0  0  0  0  0
  -24.8919  -32.2902   26.4897 H   0  0  0  0  0  0
  -25.8078  -30.8937   27.0236 H   0  0  0  0  0  0
  -26.2836  -29.6802   24.1156 H   0  0  0  0  0  0
  -27.4007  -29.7261   25.4602 H   0  0  0  0  0  0
  -27.8698  -30.4324   23.9316 H   0  0  0  0  0  0
  -27.2683  -33.3641   26.2021 H   0  0  0  0  0  0
  -28.3889  -32.6803   25.0329 H   0  0  0  0  0  0
  -28.0661  -31.8438   26.5437 H   0  0  0  0  0  0
  -28.2596  -38.0108   24.7540 H   0  0  0  0  0  0
  -28.1085  -36.2638   24.6257 H   0  0  0  0  0  0
  -27.2299  -37.1421   25.8867 H   0  0  0  0  0  0
  -20.9319  -29.8801   21.6954 H   0  0  0  0  0  0
  -26.0168  -38.2863   24.1446 H   0  0  0  0  0  0
  -29.8329  -17.5116   19.0883 H   0  0  0  0  0  0
  -29.9405  -17.2020   23.4349 H   0  0  0  0  0  0
  -28.0678  -25.3368   18.5341 H   0  0  0  0  0  0
  -29.0728  -15.1347   21.6404 H   0  0  0  0  0  0
  -29.5118  -21.7513   21.1137 H   0  0  0  0  0  0
  -29.2738  -19.2059   17.9554 H   0  0  0  0  0  0
  -28.9468  -20.8980   17.7081 H   0  0  0  0  0  0
  -29.2011  -25.0878   21.7234 H   0  0  0  0  0  0
  1 25  1  0  0  0
  1 30  2  0  0  0
  1 79  1  0  0  0
  2  3  1  0  0  0
  2 25  1  0  0  0
  2 85  1  0  0  0
  2 86  1  0  0  0
  3  4  1  0  0  0
  3 87  1  0  0  0
  3 88  1  0  0  0
  4  5  1  0  0  0
  4 89  1  0  0  0
  4 90  1  0  0  0
  5  6  1  0  0  0
  5 26  1  0  0  0
  5 91  1  0  0  0
  6 25  1  0  0  0
  6 92  1  0  0  0
  6 93  1  0  0  0
  7  8  2  0  0  0
  7 26  1  0  0  0
  7 29  1  0  0  0
  8  9  1  0  0  0
  8 22  1  0  0  0
  9 10  1  0  0  0
  9 27  2  0  0  0
 10 11  2  0  0  0
 10 15  1  0  0  0
 11 12  1  0  0  0
 11 94  1  0  0  0
 12 13  2  0  0  0
 12 95  1  0  0  0
 13 14  1  0  0  0
 13 31  1  0  0  0
 14 15  2  0  0  0
 14 96  1  0  0  0
 15 97  1  0  0  0
 16 17  2  0  0  0
 16 21  1  0  0  0
 16 31  1  0  0  0
 17 18  1  0  0  0
 17 98  1  0  0  0
 18 19  2  0  0  0
 18 99  1  0  0  0
 19 20  1  0  0  0
 19 24  1  0  0  0
 20 21  2  0  0  0
 20100  1  0  0  0
 21 23  1  0  0  0
 22 28  1  0  0  0
 22 32  2  0  0  0
 26 27  1  0  0  0
 28101  1  0  0  0
 28102  1  0  0  0
 29103  1  0  0  0
 29104  1  0  0  0
 33 34  1  0  0  0
 33 66  1  0  0  0
 33 70  2  0  0  0
 34 36  1  0  0  0
 34 59  1  0  0  0
 34105  1  0  0  0
 35 44  2  0  0  0
 35 45  1  0  0  0
 35 68  1  0  0  0
 36 56  1  0  0  0
 36106  1  0  0  0
 37 39  1  0  0  0
 37 47  1  0  0  0
 37 66  1  0  0  0
 37107  1  0  0  0
 38 43  2  0  0  0
 38 46  1  0  0  0
 38 47  1  0  0  0
 39 64  1  0  0  0
 39 67  2  0  0  0
 40 52  1  0  0  0
 40 53  2  0  0  0
 40 58  1  0  0  0
 41108  1  0  0  0
 41109  1  0  0  0
 41110  1  0  0  0
 41 48  1  0  0  0
 42 43  1  0  0  0
 42 66  1  0  0  0
 42111  1  0  0  0
 42112  1  0  0  0
 43 44  1  0  0  0
 44113  1  0  0  0
 45 46  2  0  0  0
 45114  1  0  0  0
 46115  1  0  0  0
 47116  1  0  0  0
 47117  1  0  0  0
 48 56  1  0  0  0
 48 65  1  0  0  0
 48118  1  0  0  0
 49 50  1  0  0  0
 49 53  1  0  0  0
 49 64  1  0  0  0
 49119  1  0  0  0
 50 51  1  0  0  0
 50120  1  0  0  0
 50121  1  0  0  0
 51 52  1  0  0  0
 51122  1  0  0  0
 51123  1  0  0  0
 52124  1  0  0  0
 52125  1  0  0  0
 53 54  1  0  0  0
 54 55  2  0  0  0
 54126  1  0  0  0
 55 57  1  0  0  0
 55127  1  0  0  0
 56 69  2  0  0  0
 57 58  2  0  0  0
 57128  1  0  0  0
 58129  1  0  0  0
 59 60  1  0  0  0
 59 61  1  0  0  0
 59 62  1  0  0  0
 60130  1  0  0  0
 60131  1  0  0  0
 60132  1  0  0  0
 61133  1  0  0  0
 61134  1  0  0  0
 61135  1  0  0  0
 62136  1  0  0  0
 62137  1  0  0  0
 62138  1  0  0  0
 63 65  1  0  0  0
 63139  1  0  0  0
 63140  1  0  0  0
 63141  1  0  0  0
 64142  1  0  0  0
 65143  1  0  0  0
 68 75  1  0  0  0
 71 73  1  0  0  0
 71 74  2  0  0  0
 71144  1  0  0  0
 72 73  2  0  0  0
 72 84  1  0  0  0
 72145  1  0  0  0
 73 79  1  0  0  0
 74 76  1  0  0  0
 74 84  1  0  0  0
 75 77  2  0  0  0
 75146  1  0  0  0
 76 80  1  0  0  0
 76 81  2  0  0  0
 77 78  1  0  0  0
 77 83  1  0  0  0
 78 80  1  0  0  0
 78 82  2  0  0  0
 79147  1  0  0  0
 80148  1  0  0  0
 81149  1  0  0  0
 81150  1  0  0  0
 83151  1  0  0  0
M  CHG  1  81   1
M  ISO  4   1 100  68 101  75 101  79 100
M  END
> <chiral flag>
0

> <version>
0

> <s_m_source_file>
/data/baiqing/PycharmProjects/Reinvent-master-3.2/result/LINK_invent/BTK/process_docking_weight1_custom_product_contain_oxygen_bond_distance_aromatic_linkinvent_7_9_3/rearranged_h_0160.sdf

> <i_m_source_file_index>
27

> <r_mmod_Potential_Energy-OPLS-2005>
-218.09797668457

> <r_mmod_Stretch_Energy-OPLS-2005>
57.8171844482422

> <r_mmod_Bend_Energy-OPLS-2005>
125.136444091797

> <r_mmod_Torsional_Energy-OPLS-2005>
221.143356323242

> <r_mmod_Improper_Torsional_Energy-OPLS-2005>
4.43610620498657

> <r_mmod_Van_der_Waal_Energy-OPLS-2005>
142.883239746094

> <r_mmod_Electrostatic_Energy-OPLS-2005>
-340.398040771484

> <r_mmod_Solvation_Energy-OPLS-2005>
-458.057952880859

> <b_mmod_Minimization_Converged-OPLS-2005>
0

> <r_mmod_RMS_Derivative-OPLS-2005>
2.24954056739807

$$$$
27
                    3D
 Structure written by MMmdl.
157165  0  0  1  0            999 V2000
  -30.6058  -14.7549   20.4566 C   0  0  0  0  0  0
  -30.4330  -12.4556   19.4920 C   0  0  0  0  0  0
  -29.5157  -12.5112   18.2487 C   0  0  0  0  0  0
  -28.0408  -12.3338   18.6559 C   0  0  0  0  0  0
  -27.6444  -13.2323   19.8580 C   0  0  2  0  0  0
  -28.6856  -13.1670   20.9994 C   0  0  0  0  0  0
  -25.2508  -13.8185   20.5691 C   0  0  0  0  0  0
  -24.1797  -13.0437   20.9206 C   0  0  0  0  0  0
  -24.6390  -11.6916   20.8746 C   0  0  0  0  0  0
  -23.9067  -10.4293   21.0407 C   0  0  0  0  0  0
  -24.3619   -9.4208   21.9185 C   0  0  0  0  0  0
  -23.6291   -8.2244   22.0758 C   0  0  0  0  0  0
  -22.4274   -8.0281   21.3548 C   0  0  0  0  0  0
  -21.9910   -9.0255   20.4649 C   0  0  0  0  0  0
  -22.7240  -10.2132   20.3057 C   0  0  0  0  0  0
  -21.6854   -6.0732   22.5279 C   0  0  0  0  0  0
  -21.4015   -6.5638   23.8212 C   0  0  0  0  0  0
  -21.3659   -5.6791   24.9175 C   0  0  0  0  0  0
  -21.6044   -4.3053   24.7228 C   0  0  0  0  0  0
  -21.8818   -3.8145   23.4349 C   0  0  0  0  0  0
  -21.9193   -4.6960   22.3404 C   0  0  0  0  0  0
  -22.7819  -13.5221   21.1864 C   0  0  0  0  0  0
  -22.1660   -4.2144   21.0981 F   0  0  0  0  0  0
  -21.5629   -3.4540   25.7743 F   0  0  0  0  0  0
  -29.9926  -13.5189   20.4295 N   0  0  0  0  0  0
  -26.2944  -12.9399   20.3300 N   0  0  0  0  0  0
  -25.9324  -11.6543   20.5763 N   0  0  0  0  0  0
  -22.0464  -12.8213   22.0420 N   0  0  0  0  0  0
  -25.4205  -15.1903   20.4085 N   0  0  0  0  0  0
  -31.7724  -14.8613   20.0682 O   0  0  0  0  0  0
  -21.6641   -6.8877   21.4242 O   0  0  0  0  0  0
  -22.3509  -14.5530   20.6712 O   0  0  0  0  0  0
  -24.6325  -31.8546   23.2000 C   0  0  0  0  0  0
  -25.9144  -32.4751   23.8345 C   0  0  1  0  0  0
  -27.2054  -27.2355   20.1460 C   0  0  0  0  0  0
  -25.5932  -33.8556   24.2254 N   0  0  0  0  0  0
  -23.4317  -30.4776   21.5430 C   0  0  2  0  0  0
  -24.8812  -28.9302   20.1064 C   0  0  0  0  0  0
  -22.7522  -29.4587   22.4899 C   0  0  0  0  0  0
  -18.0296  -28.1388   22.8479 C   0  0  0  0  0  0
  -24.1489  -36.7281   23.2640 C   0  0  0  0  0  0
  -25.9804  -30.7565   21.3913 C   0  0  0  0  0  0
  -26.0509  -29.3773   20.7355 C   0  0  0  0  0  0
  -27.2169  -28.5393   20.7534 C   0  0  0  0  0  0
  -26.0396  -26.9022   19.4247 C   0  0  0  0  0  0
  -24.8814  -27.6997   19.4371 C   0  0  0  0  0  0
  -23.6528  -29.8180   20.1573 C   0  0  0  0  0  0
  -25.4117  -36.3068   24.0325 C   0  0  1  0  0  0
  -20.5901  -28.3700   23.1258 C   0  0  2  0  0  0
  -20.6781  -26.9414   22.5406 C   0  0  0  0  0  0
  -19.5754  -26.6380   21.5213 C   0  0  0  0  0  0
  -18.1933  -26.7927   22.1624 C   0  0  0  0  0  0
  -19.1550  -28.8861   23.2859 C   0  0  0  0  0  0
  -18.9469  -30.1458   23.8885 C   0  0  0  0  0  0
  -17.6467  -30.6584   24.0561 C   0  0  0  0  0  0
  -25.9061  -34.9439   23.5093 C   0  0  0  0  0  0
  -16.5357  -29.9079   23.6338 C   0  0  0  0  0  0
  -16.7282  -28.6500   23.0357 C   0  0  0  0  0  0
  -26.4507  -31.6586   25.0744 C   0  0  0  0  0  0
  -25.3717  -31.3737   26.1454 C   0  0  0  0  0  0
  -27.0364  -30.2997   24.6262 C   0  0  0  0  0  0
  -27.6057  -32.4336   25.7509 C   0  0  0  0  0  0
  -27.5577  -37.1792   24.8464 C   0  0  0  0  0  0
  -21.4226  -29.3039   22.3644 N   0  0  0  0  0  0
  -26.4289  -37.3768   23.9408 N   0  0  0  0  0  0
  -24.7002  -31.0485   22.1002 N   0  0  0  0  0  0
  -23.4211  -28.8123   23.3005 O   0  0  0  0  0  0
  -28.2525  -26.2762   20.1935 O   0  0  0  0  0  0
  -26.5640  -34.8913   22.4666 O   0  0  0  0  0  0
  -23.5468  -32.1387   23.7271 O   0  0  0  0  0  0
  -30.5946  -19.1218   21.5647 C   0  0  0  0  0  0
  -29.0023  -19.8458   20.0690 C   0  0  0  0  0  0
  -29.7881  -18.6797   20.5444 C   0  0  0  0  0  0
  -29.2447  -21.1225   20.6310 C   0  0  0  0  0  0
  -28.0039  -19.6696   19.0098 C   0  0  0  0  0  0
  -29.0372  -23.6902   20.5512 C   0  0  0  0  0  0
  -26.5580  -24.3697   20.8729 C   0  0  0  0  0  0
  -29.8891  -17.2170   19.9190 C   0  0  0  0  0  0
  -28.0089  -24.9104   20.8373 C   0  0  2  0  0  0
  -27.0300  -18.7654   19.1516 N   0  0  0  0  0  0
  -28.6000  -22.3686   20.4581 N   0  0  0  0  0  0
  -29.8321  -15.8879   20.6818 N   0  0  0  0  0  0
  -28.0506  -20.4199   17.9042 N   0  3  0  0  0  0
  -30.2346  -23.9568   20.4238 O   0  0  0  0  0  0
  -30.4832  -20.8648   21.8485 S   0  0  0  0  0  0
  -31.4764  -12.5712   19.1942 H   0  0  0  0  0  0
  -30.3706  -11.4778   19.9725 H   0  0  0  0  0  0
  -29.8010  -11.7389   17.5330 H   0  0  0  0  0  0
  -29.6442  -13.4661   17.7364 H   0  0  0  0  0  0
  -27.8962  -11.2848   18.9162 H   0  0  0  0  0  0
  -27.3861  -12.5273   17.8050 H   0  0  0  0  0  0
  -27.6395  -14.2541   19.4783 H   0  0  0  0  0  0
  -28.7168  -12.1686   21.4382 H   0  0  0  0  0  0
  -28.4160  -13.8473   21.8087 H   0  0  0  0  0  0
  -25.2763   -9.5684   22.4759 H   0  0  0  0  0  0
  -23.9999   -7.4637   22.7480 H   0  0  0  0  0  0
  -21.0841   -8.8774   19.8956 H   0  0  0  0  0  0
  -22.3697  -10.9671   19.6165 H   0  0  0  0  0  0
  -21.2006   -7.6146   23.9713 H   0  0  0  0  0  0
  -21.1482   -6.0523   25.9075 H   0  0  0  0  0  0
  -22.0597   -2.7607   23.2853 H   0  0  0  0  0  0
  -22.4084  -11.9875   22.4806 H   0  0  0  0  0  0
  -21.1081  -13.1235   22.2628 H   0  0  0  0  0  0
  -24.6475  -15.8402   20.5028 H   0  0  0  0  0  0
  -26.2596  -15.6139   20.0381 H   0  0  0  0  0  0
  -26.7206  -32.5399   23.1081 H   0  0  0  0  0  0
  -25.0063  -33.9693   25.0388 H   0  0  0  0  0  0
  -22.7295  -31.3011   21.3986 H   0  0  0  0  0  0
  -23.3753  -35.9609   23.3306 H   0  0  0  0  0  0
  -24.3576  -36.8913   22.2053 H   0  0  0  0  0  0
  -23.7243  -37.6480   23.6669 H   0  0  0  0  0  0
  -26.1269  -31.5154   20.6216 H   0  0  0  0  0  0
  -26.8551  -30.8036   22.0282 H   0  0  0  0  0  0
  -28.1045  -28.8674   21.2760 H   0  0  0  0  0  0
  -26.0022  -25.9818   18.8632 H   0  0  0  0  0  0
  -23.9984  -27.3644   18.9108 H   0  0  0  0  0  0
  -23.7790  -30.5978   19.4054 H   0  0  0  0  0  0
  -22.7713  -29.2527   19.8493 H   0  0  0  0  0  0
  -25.1298  -36.1919   25.0818 H   0  0  0  0  0  0
  -20.9987  -28.3283   24.1382 H   0  0  0  0  0  0
  -20.5680  -26.2313   23.3616 H   0  0  0  0  0  0
  -21.6647  -26.7438   22.1198 H   0  0  0  0  0  0
  -19.6919  -25.6289   21.1248 H   0  0  0  0  0  0
  -19.6692  -27.3189   20.6739 H   0  0  0  0  0  0
  -17.4204  -26.6677   21.4024 H   0  0  0  0  0  0
  -18.0329  -26.0074   22.9026 H   0  0  0  0  0  0
  -19.7947  -30.7270   24.2255 H   0  0  0  0  0  0
  -17.5025  -31.6269   24.5156 H   0  0  0  0  0  0
  -15.5357  -30.2974   23.7666 H   0  0  0  0  0  0
  -15.8686  -28.0809   22.7078 H   0  0  0  0  0  0
  -24.5905  -30.7077   25.7772 H   0  0  0  0  0  0
  -24.8888  -32.2899   26.4855 H   0  0  0  0  0  0
  -25.8020  -30.8930   27.0248 H   0  0  0  0  0  0
  -26.2961  -29.6731   24.1272 H   0  0  0  0  0  0
  -27.4013  -29.7280   25.4805 H   0  0  0  0  0  0
  -27.8860  -30.4261   23.9549 H   0  0  0  0  0  0
  -27.2672  -33.3653   26.2055 H   0  0  0  0  0  0
  -28.3874  -32.6875   25.0338 H   0  0  0  0  0  0
  -28.0718  -31.8488   26.5450 H   0  0  0  0  0  0
  -28.2590  -38.0092   24.7517 H   0  0  0  0  0  0
  -28.1082  -36.2625   24.6286 H   0  0  0  0  0  0
  -27.2295  -37.1440   25.8867 H   0  0  0  0  0  0
  -20.9416  -29.8775   21.6859 H   0  0  0  0  0  0
  -26.0173  -38.2842   24.1413 H   0  0  0  0  0  0
  -31.3120  -18.5404   22.1318 H   0  0  0  0  0  0
  -26.4782  -23.4850   21.5050 H   0  0  0  0  0  0
  -26.1979  -24.0899   19.8837 H   0  0  0  0  0  0
  -25.8685  -25.0886   21.3140 H   0  0  0  0  0  0
  -30.8138  -17.1926   19.3409 H   0  0  0  0  0  0
  -29.1238  -17.1191   19.1500 H   0  0  0  0  0  0
  -28.2195  -25.1350   21.8839 H   0  0  0  0  0  0
  -26.9402  -18.2821   20.0323 H   0  0  0  0  0  0
  -26.3066  -18.6154   18.4672 H   0  0  0  0  0  0
  -27.5946  -22.3094   20.3679 H   0  0  0  0  0  0
  -28.9360  -15.6897   21.1004 H   0  0  0  0  0  0
  -28.8055  -21.0806   17.7931 H   0  0  0  0  0  0
  -27.3904  -20.3360   17.1483 H   0  0  0  0  0  0
  1 25  1  0  0  0
  1 30  2  0  0  0
  1 82  1  0  0  0
  2  3  1  0  0  0
  2 25  1  0  0  0
  2 86  1  0  0  0
  2 87  1  0  0  0
  3  4  1  0  0  0
  3 88  1  0  0  0
  3 89  1  0  0  0
  4  5  1  0  0  0
  4 90  1  0  0  0
  4 91  1  0  0  0
  5  6  1  0  0  0
  5 26  1  0  0  0
  5 92  1  0  0  0
  6 25  1  0  0  0
  6 93  1  0  0  0
  6 94  1  0  0  0
  7  8  2  0  0  0
  7 26  1  0  0  0
  7 29  1  0  0  0
  8  9  1  0  0  0
  8 22  1  0  0  0
  9 10  1  0  0  0
  9 27  2  0  0  0
 10 11  2  0  0  0
 10 15  1  0  0  0
 11 12  1  0  0  0
 11 95  1  0  0  0
 12 13  2  0  0  0
 12 96  1  0  0  0
 13 14  1  0  0  0
 13 31  1  0  0  0
 14 15  2  0  0  0
 14 97  1  0  0  0
 15 98  1  0  0  0
 16 17  2  0  0  0
 16 21  1  0  0  0
 16 31  1  0  0  0
 17 18  1  0  0  0
 17 99  1  0  0  0
 18 19  2  0  0  0
 18100  1  0  0  0
 19 20  1  0  0  0
 19 24  1  0  0  0
 20 21  2  0  0  0
 20101  1  0  0  0
 21 23  1  0  0  0
 22 28  1  0  0  0
 22 32  2  0  0  0
 26 27  1  0  0  0
 28102  1  0  0  0
 28103  1  0  0  0
 29104  1  0  0  0
 29105  1  0  0  0
 33 34  1  0  0  0
 33 66  1  0  0  0
 33 70  2  0  0  0
 34 36  1  0  0  0
 34 59  1  0  0  0
 34106  1  0  0  0
 35 44  2  0  0  0
 35 45  1  0  0  0
 35 68  1  0  0  0
 36 56  1  0  0  0
 36107  1  0  0  0
 37 39  1  0  0  0
 37 47  1  0  0  0
 37 66  1  0  0  0
 37108  1  0  0  0
 38 43  2  0  0  0
 38 46  1  0  0  0
 38 47  1  0  0  0
 39 64  1  0  0  0
 39 67  2  0  0  0
 40 52  1  0  0  0
 40 53  2  0  0  0
 40 58  1  0  0  0
 41109  1  0  0  0
 41110  1  0  0  0
 41111  1  0  0  0
 41 48  1  0  0  0
 42 43  1  0  0  0
 42 66  1  0  0  0
 42112  1  0  0  0
 42113  1  0  0  0
 43 44  1  0  0  0
 44114  1  0  0  0
 45 46  2  0  0  0
 45115  1  0  0  0
 46116  1  0  0  0
 47117  1  0  0  0
 47118  1  0  0  0
 48 56  1  0  0  0
 48 65  1  0  0  0
 48119  1  0  0  0
 49 50  1  0  0  0
 49 53  1  0  0  0
 49 64  1  0  0  0
 49120  1  0  0  0
 50 51  1  0  0  0
 50121  1  0  0  0
 50122  1  0  0  0
 51 52  1  0  0  0
 51123  1  0  0  0
 51124  1  0  0  0
 52125  1  0  0  0
 52126  1  0  0  0
 53 54  1  0  0  0
 54 55  2  0  0  0
 54127  1  0  0  0
 55 57  1  0  0  0
 55128  1  0  0  0
 56 69  2  0  0  0
 57 58  2  0  0  0
 57129  1  0  0  0
 58130  1  0  0  0
 59 60  1  0  0  0
 59 61  1  0  0  0
 59 62  1  0  0  0
 60131  1  0  0  0
 60132  1  0  0  0
 60133  1  0  0  0
 61134  1  0  0  0
 61135  1  0  0  0
 61136  1  0  0  0
 62137  1  0  0  0
 62138  1  0  0  0
 62139  1  0  0  0
 63 65  1  0  0  0
 63140  1  0  0  0
 63141  1  0  0  0
 63142  1  0  0  0
 64143  1  0  0  0
 65144  1  0  0  0
 68 79  1  0  0  0
 71 73  2  0  0  0
 71 85  1  0  0  0
 71145  1  0  0  0
 72 73  1  0  0  0
 72 74  2  0  0  0
 72 75  1  0  0  0
 73 78  1  0  0  0
 74 81  1  0  0  0
 74 85  1  0  0  0
 75 80  1  0  0  0
 75 83  2  0  0  0
 76 79  1  0  0  0
 76 81  1  0  0  0
 76 84  2  0  0  0
 77146  1  0  0  0
 77147  1  0  0  0
 77148  1  0  0  0
 77 79  1  0  0  0
 78 82  1  0  0  0
 78149  1  0  0  0
 78150  1  0  0  0
 79151  1  0  0  0
 80152  1  0  0  0
 80153  1  0  0  0
 81154  1  0  0  0
 82155  1  0  0  0
 83156  1  0  0  0
 83157  1  0  0  0
M  CHG  1  83   1
M  ISO  4   1 100  68 101  79 101  82 100
M  END
> <chiral flag>
0

> <version>
0

> <s_m_source_file>
/data/baiqing/PycharmProjects/Reinvent-master-3.2/result/LINK_invent/BTK/process_docking_weight1_custom_product_contain_oxygen_bond_distance_aromatic_linkinvent_7_9_3/rearranged_h_0160.sdf

> <i_m_source_file_index>
28

> <r_mmod_Potential_Energy-OPLS-2005>
-39.3156547546387

> <r_mmod_Stretch_Energy-OPLS-2005>
135.099319458008

> <r_mmod_Bend_Energy-OPLS-2005>
193.864471435547

> <r_mmod_Torsional_Energy-OPLS-2005>
277.748107910156

> <r_mmod_Improper_Torsional_Energy-OPLS-2005>
9.29004192352295

> <r_mmod_Van_der_Waal_Energy-OPLS-2005>
121.656005859375

> <r_mmod_Electrostatic_Energy-OPLS-2005>
-310.607330322266

> <r_mmod_Solvation_Energy-OPLS-2005>
-566.69970703125

> <b_mmod_Minimization_Converged-OPLS-2005>
0

> <r_mmod_RMS_Derivative-OPLS-2005>
0.7115398645401

$$$$
28
                    3D
 Structure written by MMmdl.
154162  0  0  1  0            999 V2000
  -30.5931  -14.6994   20.4930 C   0  0  0  0  0  0
  -30.4452  -12.4273   19.4638 C   0  0  0  0  0  0
  -29.5142  -12.5177   18.2325 C   0  0  0  0  0  0
  -28.0366  -12.3492   18.6409 C   0  0  0  0  0  0
  -27.6536  -13.2215   19.8659 C   0  0  2  0  0  0
  -28.6988  -13.0848   20.9958 C   0  0  0  0  0  0
  -25.2541  -13.8177   20.5647 C   0  0  0  0  0  0
  -24.1825  -13.0441   20.9191 C   0  0  0  0  0  0
  -24.6405  -11.6916   20.8751 C   0  0  0  0  0  0
  -23.9072  -10.4298   21.0411 C   0  0  0  0  0  0
  -24.3619   -9.4210   21.9188 C   0  0  0  0  0  0
  -23.6291   -8.2247   22.0758 C   0  0  0  0  0  0
  -22.4274   -8.0287   21.3548 C   0  0  0  0  0  0
  -21.9910   -9.0263   20.4653 C   0  0  0  0  0  0
  -22.7241  -10.2142   20.3063 C   0  0  0  0  0  0
  -21.6856   -6.0734   22.5276 C   0  0  0  0  0  0
  -21.4018   -6.5636   23.8210 C   0  0  0  0  0  0
  -21.3658   -5.6789   24.9174 C   0  0  0  0  0  0
  -21.6041   -4.3052   24.7225 C   0  0  0  0  0  0
  -21.8820   -3.8145   23.4348 C   0  0  0  0  0  0
  -21.9195   -4.6961   22.3402 C   0  0  0  0  0  0
  -22.7848  -13.5234   21.1849 C   0  0  0  0  0  0
  -22.1663   -4.2146   21.0981 F   0  0  0  0  0  0
  -21.5624   -3.4538   25.7738 F   0  0  0  0  0  0
  -30.0095  -13.4535   20.4364 N   0  0  0  0  0  0
  -26.2993  -12.9371   20.3333 N   0  0  0  0  0  0
  -25.9340  -11.6522   20.5780 N   0  0  0  0  0  0
  -22.0486  -12.8241   22.0416 N   0  0  0  0  0  0
  -25.4193  -15.1887   20.3933 N   0  0  0  0  0  0
  -31.7500  -14.8613   20.0869 O   0  0  0  0  0  0
  -21.6643   -6.8880   21.4239 O   0  0  0  0  0  0
  -22.3534  -14.5537   20.6688 O   0  0  0  0  0  0
  -24.6280  -31.8576   23.2002 C   0  0  0  0  0  0
  -25.9116  -32.4770   23.8342 C   0  0  1  0  0  0
  -27.2278  -27.2954   20.1285 C   0  0  0  0  0  0
  -25.5922  -33.8569   24.2267 N   0  0  0  0  0  0
  -23.4241  -30.4791   21.5429 C   0  0  2  0  0  0
  -24.8738  -28.9278   20.1128 C   0  0  0  0  0  0
  -22.7486  -29.4609   22.4926 C   0  0  0  0  0  0
  -18.0289  -28.1383   22.8485 C   0  0  0  0  0  0
  -24.1489  -36.7290   23.2639 C   0  0  0  0  0  0
  -25.9671  -30.7802   21.3763 C   0  0  0  0  0  0
  -26.0427  -29.4037   20.7222 C   0  0  0  0  0  0
  -27.2235  -28.5981   20.7222 C   0  0  0  0  0  0
  -26.0398  -26.8787   19.4899 C   0  0  0  0  0  0
  -24.8747  -27.6706   19.4875 C   0  0  0  0  0  0
  -23.6419  -29.8106   20.1595 C   0  0  0  0  0  0
  -25.4114  -36.3078   24.0328 C   0  0  1  0  0  0
  -20.5891  -28.3693   23.1276 C   0  0  2  0  0  0
  -20.6778  -26.9412   22.5411 C   0  0  0  0  0  0
  -19.5754  -26.6382   21.5211 C   0  0  0  0  0  0
  -18.1933  -26.7927   22.1622 C   0  0  0  0  0  0
  -19.1541  -28.8854   23.2877 C   0  0  0  0  0  0
  -18.9463  -30.1454   23.8898 C   0  0  0  0  0  0
  -17.6463  -30.6586   24.0561 C   0  0  0  0  0  0
  -25.9051  -34.9449   23.5100 C   0  0  0  0  0  0
  -16.5354  -29.9083   23.6327 C   0  0  0  0  0  0
  -16.7276  -28.6499   23.0354 C   0  0  0  0  0  0
  -26.4492  -31.6586   25.0723 C   0  0  0  0  0  0
  -25.3722  -31.3735   26.1450 C   0  0  0  0  0  0
  -27.0333  -30.3004   24.6195 C   0  0  0  0  0  0
  -27.6054  -32.4324   25.7489 C   0  0  0  0  0  0
  -27.5580  -37.1798   24.8461 C   0  0  0  0  0  0
  -21.4197  -29.3041   22.3664 N   0  0  0  0  0  0
  -26.4290  -37.3774   23.9408 N   0  0  0  0  0  0
  -24.6917  -31.0562   22.0966 N   0  0  0  0  0  0
  -23.4195  -28.8154   23.3021 O   0  0  0  0  0  0
  -28.3278  -26.4173   20.1426 O   0  0  0  0  0  0
  -26.5625  -34.8919   22.4670 O   0  0  0  0  0  0
  -23.5436  -32.1387   23.7311 O   0  0  0  0  0  0
  -28.6343  -19.3827   21.2997 C   0  0  0  0  0  0
  -30.4716  -19.2769   19.8146 C   0  0  0  0  0  0
  -28.7281  -17.9579   21.4727 C   0  0  0  0  0  0
  -29.5068  -20.1047   20.4478 C   0  0  0  0  0  0
  -29.7417  -17.2053   20.7720 C   0  0  0  0  0  0
  -28.1165  -25.0511   20.4707 C   0  0  0  0  0  0
  -27.7445  -17.3081   22.4123 C   0  0  0  0  0  0
  -28.9284  -23.9705   20.1806 C   0  0  0  0  0  0
  -28.5958  -22.5613   20.6031 C   0  0  0  0  0  0
  -26.6508  -18.1650   23.0455 C   0  0  0  0  0  0
  -30.5833  -17.9161   19.9634 N   0  0  0  0  0  0
  -29.4783  -21.5728   20.2200 N   0  0  0  0  0  0
  -29.7815  -15.7314   20.9167 N   0  0  0  0  0  0
  -27.7633  -16.1107   22.7058 O   0  0  0  0  0  0
  -27.5888  -22.2828   21.2554 O   0  0  0  0  0  0
  -30.0625  -24.1802   19.4956 O   0  0  0  0  0  0
  -31.4848  -12.5623   19.1606 H   0  0  0  0  0  0
  -30.3944  -11.4343   19.9132 H   0  0  0  0  0  0
  -29.7867  -11.7602   17.4963 H   0  0  0  0  0  0
  -29.6494  -13.4825   17.7415 H   0  0  0  0  0  0
  -27.8775  -11.2957   18.8742 H   0  0  0  0  0  0
  -27.3836  -12.5759   17.7972 H   0  0  0  0  0  0
  -27.6679  -14.2561   19.5226 H   0  0  0  0  0  0
  -28.7233  -12.0602   21.3702 H   0  0  0  0  0  0
  -28.4335  -13.7018   21.8541 H   0  0  0  0  0  0
  -25.2765   -9.5680   22.4761 H   0  0  0  0  0  0
  -23.9998   -7.4638   22.7477 H   0  0  0  0  0  0
  -21.0840   -8.8787   19.8961 H   0  0  0  0  0  0
  -22.3700  -10.9682   19.6175 H   0  0  0  0  0  0
  -21.2014   -7.6143   23.9714 H   0  0  0  0  0  0
  -21.1475   -6.0520   25.9075 H   0  0  0  0  0  0
  -22.0600   -2.7607   23.2852 H   0  0  0  0  0  0
  -22.4094  -11.9915   22.4832 H   0  0  0  0  0  0
  -21.1108  -13.1282   22.2612 H   0  0  0  0  0  0
  -24.6420  -15.8343   20.4758 H   0  0  0  0  0  0
  -26.2573  -15.6195   20.0277 H   0  0  0  0  0  0
  -26.7187  -32.5434   23.1090 H   0  0  0  0  0  0
  -25.0055  -33.9710   25.0402 H   0  0  0  0  0  0
  -22.7190  -31.3001   21.3964 H   0  0  0  0  0  0
  -23.3750  -35.9625   23.3302 H   0  0  0  0  0  0
  -24.3583  -36.8911   22.2054 H   0  0  0  0  0  0
  -23.7247  -37.6494   23.6662 H   0  0  0  0  0  0
  -26.1008  -31.5411   20.6059 H   0  0  0  0  0  0
  -26.8465  -30.8319   22.0068 H   0  0  0  0  0  0
  -28.1210  -28.9566   21.2065 H   0  0  0  0  0  0
  -26.0044  -25.9144   19.0032 H   0  0  0  0  0  0
  -23.9806  -27.3007   19.0049 H   0  0  0  0  0  0
  -23.7625  -30.5858   19.4019 H   0  0  0  0  0  0
  -22.7617  -29.2405   19.8571 H   0  0  0  0  0  0
  -25.1295  -36.1927   25.0821 H   0  0  0  0  0  0
  -20.9984  -28.3275   24.1397 H   0  0  0  0  0  0
  -20.5672  -26.2304   23.3615 H   0  0  0  0  0  0
  -21.6648  -26.7438   22.1209 H   0  0  0  0  0  0
  -19.6916  -25.6291   21.1243 H   0  0  0  0  0  0
  -19.6688  -27.3190   20.6739 H   0  0  0  0  0  0
  -17.4202  -26.6673   21.4025 H   0  0  0  0  0  0
  -18.0332  -26.0069   22.9019 H   0  0  0  0  0  0
  -19.7940  -30.7267   24.2272 H   0  0  0  0  0  0
  -17.5018  -31.6268   24.5159 H   0  0  0  0  0  0
  -15.5354  -30.2986   23.7649 H   0  0  0  0  0  0
  -15.8677  -28.0814   22.7076 H   0  0  0  0  0  0
  -24.5885  -30.7099   25.7778 H   0  0  0  0  0  0
  -24.8928  -32.2906   26.4882 H   0  0  0  0  0  0
  -25.8038  -30.8901   27.0223 H   0  0  0  0  0  0
  -26.2910  -29.6756   24.1213 H   0  0  0  0  0  0
  -27.4012  -29.7261   25.4708 H   0  0  0  0  0  0
  -27.8791  -30.4279   23.9433 H   0  0  0  0  0  0
  -27.2667  -33.3624   26.2066 H   0  0  0  0  0  0
  -28.3858  -32.6886   25.0311 H   0  0  0  0  0  0
  -28.0732  -31.8452   26.5401 H   0  0  0  0  0  0
  -28.2596  -38.0097   24.7514 H   0  0  0  0  0  0
  -28.1078  -36.2630   24.6276 H   0  0  0  0  0  0
  -27.2302  -37.1440   25.8865 H   0  0  0  0  0  0
  -20.9378  -29.8757   21.6869 H   0  0  0  0  0  0
  -26.0170  -38.2848   24.1411 H   0  0  0  0  0  0
  -27.8858  -19.9418   21.8347 H   0  0  0  0  0  0
  -31.1940  -19.7225   19.1465 H   0  0  0  0  0  0
  -27.1941  -24.9170   21.0219 H   0  0  0  0  0  0
  -27.0849  -18.9102   23.7118 H   0  0  0  0  0  0
  -25.9753  -17.5424   23.6317 H   0  0  0  0  0  0
  -26.0623  -18.6686   22.2791 H   0  0  0  0  0  0
  -30.2389  -21.9459   19.6645 H   0  0  0  0  0  0
  -28.9575  -15.3798   21.3868 H   0  0  0  0  0  0
  -30.1083  -25.1120   19.3210 H   0  0  0  0  0  0
  1 25  1  0  0  0
  1 30  2  0  0  0
  1 83  1  0  0  0
  2  3  1  0  0  0
  2 25  1  0  0  0
  2 87  1  0  0  0
  2 88  1  0  0  0
  3  4  1  0  0  0
  3 89  1  0  0  0
  3 90  1  0  0  0
  4  5  1  0  0  0
  4 91  1  0  0  0
  4 92  1  0  0  0
  5  6  1  0  0  0
  5 26  1  0  0  0
  5 93  1  0  0  0
  6 25  1  0  0  0
  6 94  1  0  0  0
  6 95  1  0  0  0
  7  8  2  0  0  0
  7 26  1  0  0  0
  7 29  1  0  0  0
  8  9  1  0  0  0
  8 22  1  0  0  0
  9 10  1  0  0  0
  9 27  2  0  0  0
 10 11  2  0  0  0
 10 15  1  0  0  0
 11 12  1  0  0  0
 11 96  1  0  0  0
 12 13  2  0  0  0
 12 97  1  0  0  0
 13 14  1  0  0  0
 13 31  1  0  0  0
 14 15  2  0  0  0
 14 98  1  0  0  0
 15 99  1  0  0  0
 16 17  2  0  0  0
 16 21  1  0  0  0
 16 31  1  0  0  0
 17 18  1  0  0  0
 17100  1  0  0  0
 18 19  2  0  0  0
 18101  1  0  0  0
 19 20  1  0  0  0
 19 24  1  0  0  0
 20 21  2  0  0  0
 20102  1  0  0  0
 21 23  1  0  0  0
 22 28  1  0  0  0
 22 32  2  0  0  0
 26 27  1  0  0  0
 28103  1  0  0  0
 28104  1  0  0  0
 29105  1  0  0  0
 29106  1  0  0  0
 33 34  1  0  0  0
 33 66  1  0  0  0
 33 70  2  0  0  0
 34 36  1  0  0  0
 34 59  1  0  0  0
 34107  1  0  0  0
 35 44  2  0  0  0
 35 45  1  0  0  0
 35 68  1  0  0  0
 36 56  1  0  0  0
 36108  1  0  0  0
 37 39  1  0  0  0
 37 47  1  0  0  0
 37 66  1  0  0  0
 37109  1  0  0  0
 38 43  2  0  0  0
 38 46  1  0  0  0
 38 47  1  0  0  0
 39 64  1  0  0  0
 39 67  2  0  0  0
 40 52  1  0  0  0
 40 53  2  0  0  0
 40 58  1  0  0  0
 41110  1  0  0  0
 41111  1  0  0  0
 41112  1  0  0  0
 41 48  1  0  0  0
 42 43  1  0  0  0
 42 66  1  0  0  0
 42113  1  0  0  0
 42114  1  0  0  0
 43 44  1  0  0  0
 44115  1  0  0  0
 45 46  2  0  0  0
 45116  1  0  0  0
 46117  1  0  0  0
 47118  1  0  0  0
 47119  1  0  0  0
 48 56  1  0  0  0
 48 65  1  0  0  0
 48120  1  0  0  0
 49 50  1  0  0  0
 49 53  1  0  0  0
 49 64  1  0  0  0
 49121  1  0  0  0
 50 51  1  0  0  0
 50122  1  0  0  0
 50123  1  0  0  0
 51 52  1  0  0  0
 51124  1  0  0  0
 51125  1  0  0  0
 52126  1  0  0  0
 52127  1  0  0  0
 53 54  1  0  0  0
 54 55  2  0  0  0
 54128  1  0  0  0
 55 57  1  0  0  0
 55129  1  0  0  0
 56 69  2  0  0  0
 57 58  2  0  0  0
 57130  1  0  0  0
 58131  1  0  0  0
 59 60  1  0  0  0
 59 61  1  0  0  0
 59 62  1  0  0  0
 60132  1  0  0  0
 60133  1  0  0  0
 60134  1  0  0  0
 61135  1  0  0  0
 61136  1  0  0  0
 61137  1  0  0  0
 62138  1  0  0  0
 62139  1  0  0  0
 62140  1  0  0  0
 63 65  1  0  0  0
 63141  1  0  0  0
 63142  1  0  0  0
 63143  1  0  0  0
 64144  1  0  0  0
 65145  1  0  0  0
 68 76  1  0  0  0
 71 73  2  0  0  0
 71 74  1  0  0  0
 71146  1  0  0  0
 72 74  2  0  0  0
 72 81  1  0  0  0
 72147  1  0  0  0
 73 75  1  0  0  0
 73 77  1  0  0  0
 74 82  1  0  0  0
 75 81  2  0  0  0
 75 83  1  0  0  0
 76 78  2  0  0  0
 76148  1  0  0  0
 77 80  1  0  0  0
 77 84  2  0  0  0
 78 79  1  0  0  0
 78 86  1  0  0  0
 79 82  1  0  0  0
 79 85  2  0  0  0
 80149  1  0  0  0
 80150  1  0  0  0
 80151  1  0  0  0
 82152  1  0  0  0
 83153  1  0  0  0
 86154  1  0  0  0
M  ISO  4   1 100  68 101  76 101  83 100
M  END
> <chiral flag>
0

> <version>
0

> <s_m_source_file>
/data/baiqing/PycharmProjects/Reinvent-master-3.2/result/LINK_invent/BTK/process_docking_weight1_custom_product_contain_oxygen_bond_distance_aromatic_linkinvent_7_9_3/rearranged_h_0160.sdf

> <i_m_source_file_index>
29

> <r_mmod_Potential_Energy-OPLS-2005>
-116.487586975098

> <r_mmod_Stretch_Energy-OPLS-2005>
99.583984375

> <r_mmod_Bend_Energy-OPLS-2005>
154.33024597168

> <r_mmod_Torsional_Energy-OPLS-2005>
222.055618286133

> <r_mmod_Improper_Torsional_Energy-OPLS-2005>
3.19797229766846

> <r_mmod_Van_der_Waal_Energy-OPLS-2005>
155.59440612793

> <r_mmod_Electrostatic_Energy-OPLS-2005>
-577.37109375

> <r_mmod_Solvation_Energy-OPLS-2005>
-237.946792602539

> <b_mmod_Minimization_Converged-OPLS-2005>
0

> <r_mmod_RMS_Derivative-OPLS-2005>
0.501282274723053

$$$$
29
                    3D
 Structure written by MMmdl.
153161  0  0  1  0            999 V2000
  -30.4988  -15.0349   20.4031 C   0  0  0  0  0  0
  -30.4472  -12.6436   19.5081 C   0  0  0  0  0  0
  -29.5293  -12.5424   18.2660 C   0  0  0  0  0  0
  -28.0656  -12.3097   18.6853 C   0  0  0  0  0  0
  -27.6278  -13.2526   19.8357 C   0  0  2  0  0  0
  -28.6685  -13.3113   20.9744 C   0  0  0  0  0  0
  -25.2456  -13.8217   20.5715 C   0  0  0  0  0  0
  -24.1775  -13.0438   20.9233 C   0  0  0  0  0  0
  -24.6395  -11.6925   20.8750 C   0  0  0  0  0  0
  -23.9077  -10.4295   21.0407 C   0  0  0  0  0  0
  -24.3624   -9.4210   21.9183 C   0  0  0  0  0  0
  -23.6299   -8.2245   22.0750 C   0  0  0  0  0  0
  -22.4282   -8.0282   21.3543 C   0  0  0  0  0  0
  -21.9918   -9.0258   20.4646 C   0  0  0  0  0  0
  -22.7246  -10.2137   20.3058 C   0  0  0  0  0  0
  -21.6854   -6.0737   22.5280 C   0  0  0  0  0  0
  -21.4015   -6.5640   23.8212 C   0  0  0  0  0  0
  -21.3661   -5.6789   24.9173 C   0  0  0  0  0  0
  -21.6045   -4.3053   24.7223 C   0  0  0  0  0  0
  -21.8818   -3.8147   23.4343 C   0  0  0  0  0  0
  -21.9194   -4.6965   22.3399 C   0  0  0  0  0  0
  -22.7795  -13.5209   21.1889 C   0  0  0  0  0  0
  -22.1662   -4.2151   21.0975 F   0  0  0  0  0  0
  -21.5629   -3.4532   25.7734 F   0  0  0  0  0  0
  -29.9356  -13.7505   20.3734 N   0  0  0  0  0  0
  -26.2877  -12.9456   20.3229 N   0  0  0  0  0  0
  -25.9329  -11.6581   20.5727 N   0  0  0  0  0  0
  -22.0439  -12.8203   22.0443 N   0  0  0  0  0  0
  -25.4108  -15.1948   20.4141 N   0  0  0  0  0  0
  -31.7058  -15.1047   20.1392 O   0  0  0  0  0  0
  -21.6642   -6.8881   21.4244 O   0  0  0  0  0  0
  -22.3482  -14.5511   20.6728 O   0  0  0  0  0  0
  -24.6497  -31.8380   23.1829 C   0  0  0  0  0  0
  -25.9245  -32.4663   23.8242 C   0  0  1  0  0  0
  -27.2189  -27.0743   20.1600 C   0  0  0  0  0  0
  -25.5969  -33.8472   24.2157 N   0  0  0  0  0  0
  -23.4572  -30.4552   21.5293 C   0  0  2  0  0  0
  -24.9091  -28.8713   20.1098 C   0  0  0  0  0  0
  -22.7602  -29.4516   22.4830 C   0  0  0  0  0  0
  -18.0312  -28.1403   22.8470 C   0  0  0  0  0  0
  -24.1495  -36.7241   23.2641 C   0  0  0  0  0  0
  -26.0173  -30.6921   21.3916 C   0  0  0  0  0  0
  -26.0885  -29.2969   20.7338 C   0  0  0  0  0  0
  -27.2428  -28.4158   20.7400 C   0  0  0  0  0  0
  -26.0126  -26.7680   19.4913 C   0  0  0  0  0  0
  -24.8875  -27.6225   19.4713 C   0  0  0  0  0  0
  -23.6888  -29.7811   20.1504 C   0  0  0  0  0  0
  -25.4128  -36.3012   24.0310 C   0  0  1  0  0  0
  -20.5928  -28.3738   23.1217 C   0  0  2  0  0  0
  -20.6796  -26.9435   22.5403 C   0  0  0  0  0  0
  -19.5772  -26.6384   21.5209 C   0  0  0  0  0  0
  -18.1953  -26.7942   22.1618 C   0  0  0  0  0  0
  -19.1570  -28.8890   23.2834 C   0  0  0  0  0  0
  -18.9483  -30.1481   23.8867 C   0  0  0  0  0  0
  -17.6479  -30.6597   24.0556 C   0  0  0  0  0  0
  -25.9085  -34.9390   23.5045 C   0  0  0  0  0  0
  -16.5370  -29.9088   23.6336 C   0  0  0  0  0  0
  -16.7296  -28.6508   23.0355 C   0  0  0  0  0  0
  -26.4544  -31.6551   25.0709 C   0  0  0  0  0  0
  -25.3715  -31.3768   26.1396 C   0  0  0  0  0  0
  -27.0404  -30.2931   24.6342 C   0  0  0  0  0  0
  -27.6070  -32.4319   25.7494 C   0  0  0  0  0  0
  -27.5576  -37.1776   24.8464 C   0  0  0  0  0  0
  -21.4288  -29.3049   22.3578 N   0  0  0  0  0  0
  -26.4284  -37.3733   23.9411 N   0  0  0  0  0  0
  -24.7283  -31.0179   22.0893 N   0  0  0  0  0  0
  -23.4215  -28.8073   23.3012 O   0  0  0  0  0  0
  -28.2454  -26.0418   20.2396 O   0  0  0  0  0  0
  -26.5671  -34.8900   22.4626 O   0  0  0  0  0  0
  -23.5601  -32.1281   23.7011 O   0  0  0  0  0  0
  -31.0009  -18.5221   20.1848 C   0  0  0  0  0  0
  -28.8351  -18.7970   20.4615 C   0  0  0  0  0  0
  -29.8120  -17.7569   20.4062 C   0  0  0  0  0  0
  -30.7125  -19.8841   20.0569 C   0  0  0  0  0  0
  -31.6072  -20.9731   19.7538 C   0  0  0  0  0  0
  -28.9278  -23.2021   20.3724 C   0  0  0  0  0  0
  -28.5405  -21.5713   20.1485 C   0  0  0  0  0  0
  -27.9112  -24.5047   20.0337 C   0  0  0  0  0  0
  -29.3427  -20.1604   20.2558 N   0  0  0  0  0  0
  -32.6536  -21.2016   20.5486 N   0  0  0  0  0  0
  -29.6717  -16.2071   20.5385 N   0  0  0  0  0  0
  -31.4238  -21.7061   18.6519 N   0  3  0  0  0  0
  -30.0427  -23.4603   20.8380 O   0  0  0  0  0  0
  -31.4769  -12.8201   19.1937 H   0  0  0  0  0  0
  -30.4629  -11.7007   20.0570 H   0  0  0  0  0  0
  -29.8654  -11.7390   17.6091 H   0  0  0  0  0  0
  -29.5998  -13.4632   17.6845 H   0  0  0  0  0  0
  -27.9782  -11.2722   19.0107 H   0  0  0  0  0  0
  -27.4006  -12.4173   17.8277 H   0  0  0  0  0  0
  -27.5810  -14.2468   19.3905 H   0  0  0  0  0  0
  -28.7751  -12.3423   21.4636 H   0  0  0  0  0  0
  -28.3517  -14.0133   21.7472 H   0  0  0  0  0  0
  -25.2767   -9.5686   22.4760 H   0  0  0  0  0  0
  -24.0007   -7.4633   22.7465 H   0  0  0  0  0  0
  -21.0847   -8.8778   19.8951 H   0  0  0  0  0  0
  -22.3700  -10.9677   19.6168 H   0  0  0  0  0  0
  -21.2007   -7.6148   23.9717 H   0  0  0  0  0  0
  -21.1484   -6.0518   25.9076 H   0  0  0  0  0  0
  -22.0597   -2.7610   23.2837 H   0  0  0  0  0  0
  -22.4061  -11.9875   22.4847 H   0  0  0  0  0  0
  -21.1054  -13.1227   22.2640 H   0  0  0  0  0  0
  -24.6364  -15.8406   20.5218 H   0  0  0  0  0  0
  -26.2430  -15.6356   20.0458 H   0  0  0  0  0  0
  -26.7311  -32.5252   23.0964 H   0  0  0  0  0  0
  -25.0102  -33.9576   25.0295 H   0  0  0  0  0  0
  -22.7635  -31.2830   21.3691 H   0  0  0  0  0  0
  -23.3763  -35.9567   23.3285 H   0  0  0  0  0  0
  -24.3581  -36.8894   22.2060 H   0  0  0  0  0  0
  -23.7243  -37.6428   23.6693 H   0  0  0  0  0  0
  -26.1800  -31.4430   20.6172 H   0  0  0  0  0  0
  -26.8847  -30.7444   22.0381 H   0  0  0  0  0  0
  -28.1379  -28.7364   21.2545 H   0  0  0  0  0  0
  -25.9017  -25.8156   18.9955 H   0  0  0  0  0  0
  -23.9891  -27.2927   18.9675 H   0  0  0  0  0  0
  -23.8329  -30.5538   19.3942 H   0  0  0  0  0  0
  -22.8026  -29.2274   19.8359 H   0  0  0  0  0  0
  -25.1318  -36.1828   25.0800 H   0  0  0  0  0  0
  -21.0015  -28.3337   24.1337 H   0  0  0  0  0  0
  -20.5679  -26.2360   23.3633 H   0  0  0  0  0  0
  -21.6664  -26.7433   22.1210 H   0  0  0  0  0  0
  -19.6937  -25.6283   21.1270 H   0  0  0  0  0  0
  -19.6713  -27.3169   20.6718 H   0  0  0  0  0  0
  -17.4225  -26.6679   21.4020 H   0  0  0  0  0  0
  -18.0354  -26.0092   22.9023 H   0  0  0  0  0  0
  -19.7960  -30.7302   24.2229 H   0  0  0  0  0  0
  -17.5035  -31.6274   24.5162 H   0  0  0  0  0  0
  -15.5370  -30.2978   23.7682 H   0  0  0  0  0  0
  -15.8698  -28.0816   22.7085 H   0  0  0  0  0  0
  -24.5914  -30.7086   25.7727 H   0  0  0  0  0  0
  -24.8876  -32.2955   26.4721 H   0  0  0  0  0  0
  -25.7988  -30.9019   27.0238 H   0  0  0  0  0  0
  -26.3028  -29.6645   24.1339 H   0  0  0  0  0  0
  -27.3967  -29.7250   25.4947 H   0  0  0  0  0  0
  -27.8965  -30.4134   23.9700 H   0  0  0  0  0  0
  -27.2670  -33.3649   26.2002 H   0  0  0  0  0  0
  -28.3919  -32.6829   25.0345 H   0  0  0  0  0  0
  -28.0702  -31.8488   26.5466 H   0  0  0  0  0  0
  -28.2579  -38.0085   24.7510 H   0  0  0  0  0  0
  -28.1083  -36.2611   24.6282 H   0  0  0  0  0  0
  -27.2300  -37.1418   25.8869 H   0  0  0  0  0  0
  -20.9515  -29.8754   21.6735 H   0  0  0  0  0  0
  -26.0144  -38.2798   24.1412 H   0  0  0  0  0  0
  -31.9979  -18.1191   20.0760 H   0  0  0  0  0  0
  -27.7686  -18.6916   20.6144 H   0  0  0  0  0  0
  -28.1084  -21.5617   19.1481 H   0  0  0  0  0  0
  -27.6756  -21.4397   20.7976 H   0  0  0  0  0  0
  -26.9975  -24.3091   20.5951 H   0  0  0  0  0  0
  -27.6366  -24.3878   18.9857 H   0  0  0  0  0  0
  -32.7728  -20.6327   21.3734 H   0  0  0  0  0  0
  -33.3192  -21.9416   20.3972 H   0  0  0  0  0  0
  -28.7217  -15.9256   20.7277 H   0  0  0  0  0  0
  -30.7077  -21.4323   17.9970 H   0  0  0  0  0  0
  -32.0293  -22.4677   18.3924 H   0  0  0  0  0  0
  1 25  1  0  0  0
  1 30  2  0  0  0
  1 81  1  0  0  0
  2  3  1  0  0  0
  2 25  1  0  0  0
  2 84  1  0  0  0
  2 85  1  0  0  0
  3  4  1  0  0  0
  3 86  1  0  0  0
  3 87  1  0  0  0
  4  5  1  0  0  0
  4 88  1  0  0  0
  4 89  1  0  0  0
  5  6  1  0  0  0
  5 26  1  0  0  0
  5 90  1  0  0  0
  6 25  1  0  0  0
  6 91  1  0  0  0
  6 92  1  0  0  0
  7  8  2  0  0  0
  7 26  1  0  0  0
  7 29  1  0  0  0
  8  9  1  0  0  0
  8 22  1  0  0  0
  9 10  1  0  0  0
  9 27  2  0  0  0
 10 11  2  0  0  0
 10 15  1  0  0  0
 11 12  1  0  0  0
 11 93  1  0  0  0
 12 13  2  0  0  0
 12 94  1  0  0  0
 13 14  1  0  0  0
 13 31  1  0  0  0
 14 15  2  0  0  0
 14 95  1  0  0  0
 15 96  1  0  0  0
 16 17  2  0  0  0
 16 21  1  0  0  0
 16 31  1  0  0  0
 17 18  1  0  0  0
 17 97  1  0  0  0
 18 19  2  0  0  0
 18 98  1  0  0  0
 19 20  1  0  0  0
 19 24  1  0  0  0
 20 21  2  0  0  0
 20 99  1  0  0  0
 21 23  1  0  0  0
 22 28  1  0  0  0
 22 32  2  0  0  0
 26 27  1  0  0  0
 28100  1  0  0  0
 28101  1  0  0  0
 29102  1  0  0  0
 29103  1  0  0  0
 33 34  1  0  0  0
 33 66  1  0  0  0
 33 70  2  0  0  0
 34 36  1  0  0  0
 34 59  1  0  0  0
 34104  1  0  0  0
 35 44  2  0  0  0
 35 45  1  0  0  0
 35 68  1  0  0  0
 36 56  1  0  0  0
 36105  1  0  0  0
 37 39  1  0  0  0
 37 47  1  0  0  0
 37 66  1  0  0  0
 37106  1  0  0  0
 38 43  2  0  0  0
 38 46  1  0  0  0
 38 47  1  0  0  0
 39 64  1  0  0  0
 39 67  2  0  0  0
 40 52  1  0  0  0
 40 53  2  0  0  0
 40 58  1  0  0  0
 41107  1  0  0  0
 41108  1  0  0  0
 41109  1  0  0  0
 41 48  1  0  0  0
 42 43  1  0  0  0
 42 66  1  0  0  0
 42110  1  0  0  0
 42111  1  0  0  0
 43 44  1  0  0  0
 44112  1  0  0  0
 45 46  2  0  0  0
 45113  1  0  0  0
 46114  1  0  0  0
 47115  1  0  0  0
 47116  1  0  0  0
 48 56  1  0  0  0
 48 65  1  0  0  0
 48117  1  0  0  0
 49 50  1  0  0  0
 49 53  1  0  0  0
 49 64  1  0  0  0
 49118  1  0  0  0
 50 51  1  0  0  0
 50119  1  0  0  0
 50120  1  0  0  0
 51 52  1  0  0  0
 51121  1  0  0  0
 51122  1  0  0  0
 52123  1  0  0  0
 52124  1  0  0  0
 53 54  1  0  0  0
 54 55  2  0  0  0
 54125  1  0  0  0
 55 57  1  0  0  0
 55126  1  0  0  0
 56 69  2  0  0  0
 57 58  2  0  0  0
 57127  1  0  0  0
 58128  1  0  0  0
 59 60  1  0  0  0
 59 61  1  0  0  0
 59 62  1  0  0  0
 60129  1  0  0  0
 60130  1  0  0  0
 60131  1  0  0  0
 61132  1  0  0  0
 61133  1  0  0  0
 61134  1  0  0  0
 62135  1  0  0  0
 62136  1  0  0  0
 62137  1  0  0  0
 63 65  1  0  0  0
 63138  1  0  0  0
 63139  1  0  0  0
 63140  1  0  0  0
 64141  1  0  0  0
 65142  1  0  0  0
 68 78  1  0  0  0
 71 73  1  0  0  0
 71 74  2  0  0  0
 71143  1  0  0  0
 72 73  2  0  0  0
 72 79  1  0  0  0
 72144  1  0  0  0
 73 81  1  0  0  0
 74 75  1  0  0  0
 74 79  1  0  0  0
 75 80  1  0  0  0
 75 82  2  0  0  0
 76 77  1  0  0  0
 76 78  1  0  0  0
 76 83  2  0  0  0
 77 79  1  0  0  0
 77145  1  0  0  0
 77146  1  0  0  0
 78147  1  0  0  0
 78148  1  0  0  0
 80149  1  0  0  0
 80150  1  0  0  0
 81151  1  0  0  0
 82152  1  0  0  0
 82153  1  0  0  0
M  CHG  1  82   1
M  ISO  4   1 100  68 101  78 101  81 100
M  END
> <chiral flag>
0

> <version>
0

> <s_m_source_file>
/data/baiqing/PycharmProjects/Reinvent-master-3.2/result/LINK_invent/BTK/process_docking_weight1_custom_product_contain_oxygen_bond_distance_aromatic_linkinvent_7_9_3/rearranged_h_0160.sdf

> <i_m_source_file_index>
30

> <r_mmod_Potential_Energy-OPLS-2005>
389.219085693359

> <r_mmod_Stretch_Energy-OPLS-2005>
321.783813476562

> <r_mmod_Bend_Energy-OPLS-2005>
295.509918212891

> <r_mmod_Torsional_Energy-OPLS-2005>
235.33122253418

> <r_mmod_Improper_Torsional_Energy-OPLS-2005>
4.99665641784668

> <r_mmod_Van_der_Waal_Energy-OPLS-2005>
105.032653808594

> <r_mmod_Electrostatic_Energy-OPLS-2005>
-339.536041259766

> <r_mmod_Solvation_Energy-OPLS-2005>
-491.914947509766

> <b_mmod_Minimization_Converged-OPLS-2005>
0

> <r_mmod_RMS_Derivative-OPLS-2005>
0.770223617553711

$$$$
30
                    3D
 Structure written by MMmdl.
153161  0  0  1  0            999 V2000
  -30.6378  -14.5613   20.5166 C   0  0  0  0  0  0
  -30.4332  -12.3438   19.4457 C   0  0  0  0  0  0
  -29.5060  -12.5030   18.2202 C   0  0  0  0  0  0
  -28.0256  -12.3571   18.6270 C   0  0  0  0  0  0
  -27.6586  -13.2096   19.8715 C   0  0  2  0  0  0
  -28.6990  -13.0188   20.9986 C   0  0  0  0  0  0
  -25.2570  -13.8159   20.5675 C   0  0  0  0  0  0
  -24.1825  -13.0434   20.9175 C   0  0  0  0  0  0
  -24.6386  -11.6902   20.8731 C   0  0  0  0  0  0
  -23.9053  -10.4289   21.0401 C   0  0  0  0  0  0
  -24.3604   -9.4206   21.9181 C   0  0  0  0  0  0
  -23.6277   -8.2244   22.0756 C   0  0  0  0  0  0
  -22.4258   -8.0282   21.3551 C   0  0  0  0  0  0
  -21.9891   -9.0254   20.4654 C   0  0  0  0  0  0
  -22.7222  -10.2132   20.3057 C   0  0  0  0  0  0
  -21.6848   -6.0729   22.5277 C   0  0  0  0  0  0
  -21.4017   -6.5632   23.8211 C   0  0  0  0  0  0
  -21.3659   -5.6785   24.9173 C   0  0  0  0  0  0
  -21.6044   -4.3048   24.7224 C   0  0  0  0  0  0
  -21.8820   -3.8141   23.4345 C   0  0  0  0  0  0
  -21.9189   -4.6958   22.3401 C   0  0  0  0  0  0
  -22.7849  -13.5244   21.1835 C   0  0  0  0  0  0
  -22.1661   -4.2145   21.0979 F   0  0  0  0  0  0
  -21.5625   -3.4534   25.7737 F   0  0  0  0  0  0
  -30.0247  -13.3437   20.4485 N   0  0  0  0  0  0
  -26.3002  -12.9333   20.3335 N   0  0  0  0  0  0
  -25.9312  -11.6493   20.5744 N   0  0  0  0  0  0
  -22.0484  -12.8252   22.0398 N   0  0  0  0  0  0
  -25.4306  -15.1877   20.4111 N   0  0  0  0  0  0
  -31.7787  -14.7457   20.0834 O   0  0  0  0  0  0
  -21.6634   -6.8873   21.4240 O   0  0  0  0  0  0
  -22.3547  -14.5554   20.6676 O   0  0  0  0  0  0
  -24.6188  -31.8627   23.2029 C   0  0  0  0  0  0
  -25.9062  -32.4795   23.8342 C   0  0  1  0  0  0
  -27.2399  -27.3828   20.0955 C   0  0  0  0  0  0
  -25.5905  -33.8591   24.2284 N   0  0  0  0  0  0
  -23.4081  -30.4840   21.5447 C   0  0  2  0  0  0
  -24.8529  -28.9397   20.1082 C   0  0  0  0  0  0
  -22.7430  -29.4632   22.4962 C   0  0  0  0  0  0
  -18.0279  -28.1378   22.8493 C   0  0  0  0  0  0
  -24.1486  -36.7302   23.2642 C   0  0  0  0  0  0
  -25.9405  -30.8144   21.3585 C   0  0  0  0  0  0
  -26.0151  -29.4465   20.6993 C   0  0  0  0  0  0
  -27.2048  -28.6769   20.6808 C   0  0  0  0  0  0
  -26.0453  -26.8877   19.5253 C   0  0  0  0  0  0
  -24.8668  -27.6641   19.5149 C   0  0  0  0  0  0
  -23.6165  -29.8119   20.1601 C   0  0  0  0  0  0
  -25.4111  -36.3096   24.0334 C   0  0  1  0  0  0
  -20.5871  -28.3669   23.1312 C   0  0  2  0  0  0
  -20.6766  -26.9399   22.5422 C   0  0  0  0  0  0
  -19.5746  -26.6381   21.5218 C   0  0  0  0  0  0
  -18.1923  -26.7922   22.1625 C   0  0  0  0  0  0
  -19.1527  -28.8837   23.2900 C   0  0  0  0  0  0
  -18.9457  -30.1444   23.8910 C   0  0  0  0  0  0
  -17.6457  -30.6582   24.0568 C   0  0  0  0  0  0
  -25.9042  -34.9461   23.5110 C   0  0  0  0  0  0
  -16.5349  -29.9084   23.6327 C   0  0  0  0  0  0
  -16.7265  -28.6503   23.0344 C   0  0  0  0  0  0
  -26.4473  -31.6598   25.0695 C   0  0  0  0  0  0
  -25.3733  -31.3736   26.1446 C   0  0  0  0  0  0
  -27.0311  -30.3032   24.6105 C   0  0  0  0  0  0
  -27.6032  -32.4335   25.7470 C   0  0  0  0  0  0
  -27.5580  -37.1809   24.8467 C   0  0  0  0  0  0
  -21.4148  -29.3029   22.3707 N   0  0  0  0  0  0
  -26.4296  -37.3786   23.9410 N   0  0  0  0  0  0
  -24.6746  -31.0693   22.0938 N   0  0  0  0  0  0
  -23.4184  -28.8183   23.3024 O   0  0  0  0  0  0
  -28.4235  -26.6555   20.2089 O   0  0  0  0  0  0
  -26.5611  -34.8924   22.4679 O   0  0  0  0  0  0
  -23.5372  -32.1389   23.7412 O   0  0  0  0  0  0
  -29.4576  -18.1011   21.3602 C   0  0  0  0  0  0
  -29.8723  -16.9654   20.5818 C   0  0  0  0  0  0
  -29.5663  -19.1940   20.5223 C   0  0  0  0  0  0
  -30.1628  -17.4688   19.3402 C   0  0  0  0  0  0
  -29.0718  -22.9082   19.9262 C   0  0  0  0  0  0
  -28.5718  -25.6578   17.9784 C   0  0  0  0  0  0
  -28.5006  -21.4716   20.1492 C   0  0  0  0  0  0
  -28.1525  -24.1761   20.0360 C   0  0  0  0  0  0
  -29.8810  -15.5800   21.0031 N   0  0  0  0  0  0
  -29.4138  -20.5551   20.8780 N   0  0  0  0  0  0
  -28.6766  -25.4232   19.4163 N   0  0  0  0  0  0
  -30.2822  -23.0292   19.7041 O   0  0  0  0  0  0
  -29.9916  -18.8307   19.2760 O   0  0  0  0  0  0
  -30.5296  -16.7329   18.2637 F   0  0  0  0  0  0
  -31.4771  -12.4556   19.1489 H   0  0  0  0  0  0
  -30.3510  -11.3390   19.8626 H   0  0  0  0  0  0
  -29.7566  -11.7643   17.4581 H   0  0  0  0  0  0
  -29.6669  -13.4805   17.7616 H   0  0  0  0  0  0
  -27.8438  -11.3020   18.8353 H   0  0  0  0  0  0
  -27.3782  -12.6166   17.7887 H   0  0  0  0  0  0
  -27.6924  -14.2526   19.5559 H   0  0  0  0  0  0
  -28.6889  -11.9873   21.3536 H   0  0  0  0  0  0
  -28.4499  -13.6295   21.8675 H   0  0  0  0  0  0
  -25.2754   -9.5674   22.4750 H   0  0  0  0  0  0
  -23.9985   -7.4630   22.7469 H   0  0  0  0  0  0
  -21.0821   -8.8769   19.8961 H   0  0  0  0  0  0
  -22.3678  -10.9666   19.6163 H   0  0  0  0  0  0
  -21.2017   -7.6141   23.9711 H   0  0  0  0  0  0
  -21.1482   -6.0519   25.9074 H   0  0  0  0  0  0
  -22.0598   -2.7605   23.2846 H   0  0  0  0  0  0
  -22.4089  -11.9918   22.4802 H   0  0  0  0  0  0
  -21.1111  -13.1300   22.2601 H   0  0  0  0  0  0
  -24.6652  -15.8437   20.5196 H   0  0  0  0  0  0
  -26.2835  -15.6260   20.0880 H   0  0  0  0  0  0
  -26.7131  -32.5483   23.1097 H   0  0  0  0  0  0
  -25.0054  -33.9743   25.0427 H   0  0  0  0  0  0
  -22.6996  -31.3027   21.4030 H   0  0  0  0  0  0
  -23.3743  -35.9641   23.3315 H   0  0  0  0  0  0
  -24.3567  -36.8902   22.2051 H   0  0  0  0  0  0
  -23.7240  -37.6510   23.6649 H   0  0  0  0  0  0
  -26.0591  -31.5810   20.5914 H   0  0  0  0  0  0
  -26.8262  -30.8654   21.9809 H   0  0  0  0  0  0
  -28.1007  -29.0618   21.1478 H   0  0  0  0  0  0
  -25.9979  -25.8929   19.1130 H   0  0  0  0  0  0
  -23.9676  -27.2607   19.0711 H   0  0  0  0  0  0
  -23.7266  -30.5849   19.3988 H   0  0  0  0  0  0
  -22.7381  -29.2344   19.8664 H   0  0  0  0  0  0
  -25.1291  -36.1950   25.0828 H   0  0  0  0  0  0
  -20.9973  -28.3237   24.1429 H   0  0  0  0  0  0
  -20.5660  -26.2276   23.3612 H   0  0  0  0  0  0
  -21.6637  -26.7431   22.1221 H   0  0  0  0  0  0
  -19.6906  -25.6295   21.1238 H   0  0  0  0  0  0
  -19.6683  -27.3201   20.6756 H   0  0  0  0  0  0
  -17.4193  -26.6673   21.4025 H   0  0  0  0  0  0
  -18.0320  -26.0059   22.9016 H   0  0  0  0  0  0
  -19.7932  -30.7263   24.2277 H   0  0  0  0  0  0
  -17.5012  -31.6263   24.5169 H   0  0  0  0  0  0
  -15.5348  -30.2993   23.7646 H   0  0  0  0  0  0
  -15.8666  -28.0835   22.7047 H   0  0  0  0  0  0
  -24.5877  -30.7120   25.7784 H   0  0  0  0  0  0
  -24.8970  -32.2917   26.4901 H   0  0  0  0  0  0
  -25.8071  -30.8886   27.0199 H   0  0  0  0  0  0
  -26.2872  -29.6794   24.1141 H   0  0  0  0  0  0
  -27.4047  -29.7270   25.4579 H   0  0  0  0  0  0
  -27.8716  -30.4337   23.9284 H   0  0  0  0  0  0
  -27.2625  -33.3617   26.2072 H   0  0  0  0  0  0
  -28.3832  -32.6929   25.0302 H   0  0  0  0  0  0
  -28.0716  -31.8454   26.5373 H   0  0  0  0  0  0
  -28.2610  -38.0092   24.7501 H   0  0  0  0  0  0
  -28.1060  -36.2624   24.6310 H   0  0  0  0  0  0
  -27.2301  -37.1484   25.8871 H   0  0  0  0  0  0
  -20.9308  -29.8745   21.6929 H   0  0  0  0  0  0
  -26.0177  -38.2867   24.1392 H   0  0  0  0  0  0
  -29.1467  -18.1192   22.3948 H   0  0  0  0  0  0
  -29.0341  -24.8355   17.4314 H   0  0  0  0  0  0
  -29.1039  -26.5690   17.7028 H   0  0  0  0  0  0
  -27.5465  -25.7413   17.6230 H   0  0  0  0  0  0
  -28.2587  -21.0528   19.1718 H   0  0  0  0  0  0
  -27.5616  -21.5527   20.6972 H   0  0  0  0  0  0
  -28.0061  -24.3570   21.1006 H   0  0  0  0  0  0
  -27.1716  -23.9403   19.6235 H   0  0  0  0  0  0
  -29.0844  -15.2889   21.5483 H   0  0  0  0  0  0
  -30.3265  -21.0062   20.9287 H   0  0  0  0  0  0
  1 25  1  0  0  0
  1 30  2  0  0  0
  1 79  1  0  0  0
  2  3  1  0  0  0
  2 25  1  0  0  0
  2 85  1  0  0  0
  2 86  1  0  0  0
  3  4  1  0  0  0
  3 87  1  0  0  0
  3 88  1  0  0  0
  4  5  1  0  0  0
  4 89  1  0  0  0
  4 90  1  0  0  0
  5  6  1  0  0  0
  5 26  1  0  0  0
  5 91  1  0  0  0
  6 25  1  0  0  0
  6 92  1  0  0  0
  6 93  1  0  0  0
  7  8  2  0  0  0
  7 26  1  0  0  0
  7 29  1  0  0  0
  8  9  1  0  0  0
  8 22  1  0  0  0
  9 10  1  0  0  0
  9 27  2  0  0  0
 10 11  2  0  0  0
 10 15  1  0  0  0
 11 12  1  0  0  0
 11 94  1  0  0  0
 12 13  2  0  0  0
 12 95  1  0  0  0
 13 14  1  0  0  0
 13 31  1  0  0  0
 14 15  2  0  0  0
 14 96  1  0  0  0
 15 97  1  0  0  0
 16 17  2  0  0  0
 16 21  1  0  0  0
 16 31  1  0  0  0
 17 18  1  0  0  0
 17 98  1  0  0  0
 18 19  2  0  0  0
 18 99  1  0  0  0
 19 20  1  0  0  0
 19 24  1  0  0  0
 20 21  2  0  0  0
 20100  1  0  0  0
 21 23  1  0  0  0
 22 28  1  0  0  0
 22 32  2  0  0  0
 26 27  1  0  0  0
 28101  1  0  0  0
 28102  1  0  0  0
 29103  1  0  0  0
 29104  1  0  0  0
 33 34  1  0  0  0
 33 66  1  0  0  0
 33 70  2  0  0  0
 34 36  1  0  0  0
 34 59  1  0  0  0
 34105  1  0  0  0
 35 44  2  0  0  0
 35 45  1  0  0  0
 35 68  1  0  0  0
 36 56  1  0  0  0
 36106  1  0  0  0
 37 39  1  0  0  0
 37 47  1  0  0  0
 37 66  1  0  0  0
 37107  1  0  0  0
 38 43  2  0  0  0
 38 46  1  0  0  0
 38 47  1  0  0  0
 39 64  1  0  0  0
 39 67  2  0  0  0
 40 52  1  0  0  0
 40 53  2  0  0  0
 40 58  1  0  0  0
 41108  1  0  0  0
 41109  1  0  0  0
 41110  1  0  0  0
 41 48  1  0  0  0
 42 43  1  0  0  0
 42 66  1  0  0  0
 42111  1  0  0  0
 42112  1  0  0  0
 43 44  1  0  0  0
 44113  1  0  0  0
 45 46  2  0  0  0
 45114  1  0  0  0
 46115  1  0  0  0
 47116  1  0  0  0
 47117  1  0  0  0
 48 56  1  0  0  0
 48 65  1  0  0  0
 48118  1  0  0  0
 49 50  1  0  0  0
 49 53  1  0  0  0
 49 64  1  0  0  0
 49119  1  0  0  0
 50 51  1  0  0  0
 50120  1  0  0  0
 50121  1  0  0  0
 51 52  1  0  0  0
 51122  1  0  0  0
 51123  1  0  0  0
 52124  1  0  0  0
 52125  1  0  0  0
 53 54  1  0  0  0
 54 55  2  0  0  0
 54126  1  0  0  0
 55 57  1  0  0  0
 55127  1  0  0  0
 56 69  2  0  0  0
 57 58  2  0  0  0
 57128  1  0  0  0
 58129  1  0  0  0
 59 60  1  0  0  0
 59 61  1  0  0  0
 59 62  1  0  0  0
 60130  1  0  0  0
 60131  1  0  0  0
 60132  1  0  0  0
 61133  1  0  0  0
 61134  1  0  0  0
 61135  1  0  0  0
 62136  1  0  0  0
 62137  1  0  0  0
 62138  1  0  0  0
 63 65  1  0  0  0
 63139  1  0  0  0
 63140  1  0  0  0
 63141  1  0  0  0
 64142  1  0  0  0
 65143  1  0  0  0
 68 81  1  0  0  0
 71 72  1  0  0  0
 71 73  2  0  0  0
 71144  1  0  0  0
 72 74  2  0  0  0
 72 79  1  0  0  0
 73 80  1  0  0  0
 73 83  1  0  0  0
 74 83  1  0  0  0
 74 84  1  0  0  0
 75 77  1  0  0  0
 75 78  1  0  0  0
 75 82  2  0  0  0
 76 81  1  0  0  0
 76145  1  0  0  0
 76146  1  0  0  0
 76147  1  0  0  0
 77 80  1  0  0  0
 77148  1  0  0  0
 77149  1  0  0  0
 78 81  1  0  0  0
 78150  1  0  0  0
 78151  1  0  0  0
 79152  1  0  0  0
 80153  1  0  0  0
M  ISO  4   1 100  68 101  79 100  81 101
M  END
> <chiral flag>
0

> <version>
0

> <s_m_source_file>
/data/baiqing/PycharmProjects/Reinvent-master-3.2/result/LINK_invent/BTK/process_docking_weight1_custom_product_contain_oxygen_bond_distance_aromatic_linkinvent_7_9_3/rearranged_h_0160.sdf

> <i_m_source_file_index>
31

> <r_mmod_Potential_Energy-OPLS-2005>
81.6379089355469

> <r_mmod_Stretch_Energy-OPLS-2005>
54.1263275146484

> <r_mmod_Bend_Energy-OPLS-2005>
183.387466430664

> <r_mmod_Torsional_Energy-OPLS-2005>
259.817565917969

> <r_mmod_Improper_Torsional_Energy-OPLS-2005>
9.78041648864746

> <r_mmod_Van_der_Waal_Energy-OPLS-2005>
122.473686218262

> <r_mmod_Electrostatic_Energy-OPLS-2005>
-324.999298095703

> <r_mmod_Solvation_Energy-OPLS-2005>
-250.385925292969

> <b_mmod_Minimization_Converged-OPLS-2005>
0

> <r_mmod_RMS_Derivative-OPLS-2005>
1.32247066497803

$$$$
31
                    3D
 Structure written by MMmdl.
154162  0  0  1  0            999 V2000
  -30.6113  -14.7670   20.4158 C   0  0  0  0  0  0
  -30.4228  -12.4593   19.4923 C   0  0  0  0  0  0
  -29.5106  -12.5038   18.2466 C   0  0  0  0  0  0
  -28.0363  -12.3305   18.6552 C   0  0  0  0  0  0
  -27.6375  -13.2395   19.8488 C   0  0  2  0  0  0
  -28.6785  -13.1966   20.9891 C   0  0  0  0  0  0
  -25.2483  -13.8215   20.5699 C   0  0  0  0  0  0
  -24.1785  -13.0448   20.9210 C   0  0  0  0  0  0
  -24.6386  -11.6929   20.8746 C   0  0  0  0  0  0
  -23.9067  -10.4300   21.0400 C   0  0  0  0  0  0
  -24.3620   -9.4214   21.9179 C   0  0  0  0  0  0
  -23.6297   -8.2247   22.0747 C   0  0  0  0  0  0
  -22.4278   -8.0282   21.3542 C   0  0  0  0  0  0
  -21.9913   -9.0252   20.4641 C   0  0  0  0  0  0
  -22.7237  -10.2134   20.3049 C   0  0  0  0  0  0
  -21.6856   -6.0731   22.5274 C   0  0  0  0  0  0
  -21.4015   -6.5633   23.8207 C   0  0  0  0  0  0
  -21.3661   -5.6786   24.9170 C   0  0  0  0  0  0
  -21.6046   -4.3049   24.7223 C   0  0  0  0  0  0
  -21.8820   -3.8140   23.4345 C   0  0  0  0  0  0
  -21.9192   -4.6957   22.3399 C   0  0  0  0  0  0
  -22.7803  -13.5220   21.1872 C   0  0  0  0  0  0
  -22.1661   -4.2143   21.0975 F   0  0  0  0  0  0
  -21.5633   -3.4532   25.7734 F   0  0  0  0  0  0
  -29.9800  -13.5395   20.4077 N   0  0  0  0  0  0
  -26.2910  -12.9440   20.3270 N   0  0  0  0  0  0
  -25.9318  -11.6573   20.5752 N   0  0  0  0  0  0
  -22.0459  -12.8206   22.0430 N   0  0  0  0  0  0
  -25.4175  -15.1941   20.4121 N   0  0  0  0  0  0
  -31.8133  -14.8163   20.1301 O   0  0  0  0  0  0
  -21.6645   -6.8876   21.4236 O   0  0  0  0  0  0
  -22.3483  -14.5522   20.6714 O   0  0  0  0  0  0
  -24.6318  -31.8525   23.1946 C   0  0  0  0  0  0
  -25.9139  -32.4734   23.8302 C   0  0  1  0  0  0
  -27.2245  -27.2479   20.1303 C   0  0  0  0  0  0
  -25.5927  -33.8538   24.2226 N   0  0  0  0  0  0
  -23.4288  -30.4721   21.5383 C   0  0  2  0  0  0
  -24.8757  -28.9109   20.1078 C   0  0  0  0  0  0
  -22.7504  -29.4586   22.4909 C   0  0  0  0  0  0
  -18.0291  -28.1389   22.8484 C   0  0  0  0  0  0
  -24.1492  -36.7276   23.2642 C   0  0  0  0  0  0
  -25.9736  -30.7607   21.3752 C   0  0  0  0  0  0
  -26.0447  -29.3812   20.7172 C   0  0  0  0  0  0
  -27.2171  -28.5607   20.7164 C   0  0  0  0  0  0
  -26.0311  -26.8393   19.4973 C   0  0  0  0  0  0
  -24.8749  -27.6499   19.4870 C   0  0  0  0  0  0
  -23.6464  -29.7995   20.1559 C   0  0  0  0  0  0
  -25.4121  -36.3058   24.0322 C   0  0  1  0  0  0
  -20.5895  -28.3700   23.1271 C   0  0  2  0  0  0
  -20.6777  -26.9416   22.5413 C   0  0  0  0  0  0
  -19.5755  -26.6383   21.5214 C   0  0  0  0  0  0
  -18.1935  -26.7930   22.1624 C   0  0  0  0  0  0
  -19.1544  -28.8863   23.2870 C   0  0  0  0  0  0
  -18.9464  -30.1464   23.8889 C   0  0  0  0  0  0
  -17.6463  -30.6590   24.0561 C   0  0  0  0  0  0
  -25.9062  -34.9430   23.5081 C   0  0  0  0  0  0
  -16.5355  -29.9086   23.6332 C   0  0  0  0  0  0
  -16.7276  -28.6505   23.0352 C   0  0  0  0  0  0
  -26.4501  -31.6573   25.0706 C   0  0  0  0  0  0
  -25.3715  -31.3728   26.1419 C   0  0  0  0  0  0
  -27.0357  -30.2989   24.6212 C   0  0  0  0  0  0
  -27.6048  -32.4325   25.7480 C   0  0  0  0  0  0
  -27.5578  -37.1795   24.8467 C   0  0  0  0  0  0
  -21.4212  -29.3037   22.3655 N   0  0  0  0  0  0
  -26.4293  -37.3760   23.9404 N   0  0  0  0  0  0
  -24.6970  -31.0480   22.0920 N   0  0  0  0  0  0
  -23.4198  -28.8144   23.3025 O   0  0  0  0  0  0
  -28.3449  -26.3885   20.2244 O   0  0  0  0  0  0
  -26.5648  -34.8912   22.4659 O   0  0  0  0  0  0
  -23.5469  -32.1352   23.7243 O   0  0  0  0  0  0
  -29.9426  -17.7301   17.5039 C   0  0  0  0  0  0
  -29.8472  -17.0388   19.5483 C   0  0  0  0  0  0
  -29.6170  -18.4696   19.5666 C   0  0  0  0  0  0
  -29.0987  -22.2970   20.2953 C   0  0  0  0  0  0
  -29.7732  -20.1622   17.5937 C   0  0  0  0  0  0
  -28.1791  -23.6083   20.4929 C   0  0  0  0  0  0
  -28.5136  -20.7910   20.3225 C   0  0  0  0  0  0
  -28.4455  -24.9887   19.6655 C   0  0  0  0  0  0
  -30.0058  -16.6310   18.2249 N   0  0  0  0  0  0
  -29.7591  -18.8458   18.2117 N   0  0  0  0  0  0
  -29.8766  -15.9488   20.5466 N   0  0  0  0  0  0
  -29.3893  -19.5428   20.5255 N   0  0  0  0  0  0
  -30.3153  -22.4529   20.1572 O   0  0  0  0  0  0
  -31.4667  -12.5669   19.1928 H   0  0  0  0  0  0
  -30.3547  -11.4890   19.9870 H   0  0  0  0  0  0
  -29.7974  -11.7249   17.5387 H   0  0  0  0  0  0
  -29.6399  -13.4550   17.7270 H   0  0  0  0  0  0
  -27.8938  -11.2836   18.9255 H   0  0  0  0  0  0
  -27.3818  -12.5154   17.8028 H   0  0  0  0  0  0
  -27.6268  -14.2572   19.4569 H   0  0  0  0  0  0
  -28.7135  -12.2092   21.4517 H   0  0  0  0  0  0
  -28.4120  -13.8983   21.7805 H   0  0  0  0  0  0
  -25.2761   -9.5693   22.4758 H   0  0  0  0  0  0
  -24.0002   -7.4636   22.7465 H   0  0  0  0  0  0
  -21.0845   -8.8763   19.8947 H   0  0  0  0  0  0
  -22.3684  -10.9669   19.6161 H   0  0  0  0  0  0
  -21.2007   -7.6141   23.9707 H   0  0  0  0  0  0
  -21.1487   -6.0518   25.9073 H   0  0  0  0  0  0
  -22.0601   -2.7600   23.2843 H   0  0  0  0  0  0
  -22.4081  -11.9872   22.4823 H   0  0  0  0  0  0
  -21.1071  -13.1218   22.2634 H   0  0  0  0  0  0
  -24.6518  -15.8506   20.5201 H   0  0  0  0  0  0
  -26.2665  -15.6296   20.0753 H   0  0  0  0  0  0
  -26.7201  -32.5375   23.1038 H   0  0  0  0  0  0
  -25.0047  -33.9665   25.0353 H   0  0  0  0  0  0
  -22.7257  -31.2943   21.3895 H   0  0  0  0  0  0
  -23.3753  -35.9609   23.3307 H   0  0  0  0  0  0
  -24.3575  -36.8898   22.2055 H   0  0  0  0  0  0
  -23.7247  -37.6476   23.6671 H   0  0  0  0  0  0
  -26.1163  -31.5210   20.6062 H   0  0  0  0  0  0
  -26.8497  -30.8084   22.0104 H   0  0  0  0  0  0
  -28.1126  -28.9162   21.2069 H   0  0  0  0  0  0
  -25.9594  -25.8667   19.0347 H   0  0  0  0  0  0
  -23.9761  -27.2825   19.0104 H   0  0  0  0  0  0
  -23.7706  -30.5727   19.3969 H   0  0  0  0  0  0
  -22.7646  -29.2318   19.8532 H   0  0  0  0  0  0
  -25.1308  -36.1897   25.0815 H   0  0  0  0  0  0
  -20.9984  -28.3281   24.1394 H   0  0  0  0  0  0
  -20.5676  -26.2311   23.3619 H   0  0  0  0  0  0
  -21.6644  -26.7439   22.1208 H   0  0  0  0  0  0
  -19.6916  -25.6293   21.1248 H   0  0  0  0  0  0
  -19.6690  -27.3191   20.6744 H   0  0  0  0  0  0
  -17.4202  -26.6676   21.4027 H   0  0  0  0  0  0
  -18.0335  -26.0075   22.9025 H   0  0  0  0  0  0
  -19.7940  -30.7282   24.2252 H   0  0  0  0  0  0
  -17.5017  -31.6267   24.5167 H   0  0  0  0  0  0
  -15.5355  -30.2984   23.7662 H   0  0  0  0  0  0
  -15.8677  -28.0820   22.7071 H   0  0  0  0  0  0
  -24.5896  -30.7074   25.7738 H   0  0  0  0  0  0
  -24.8899  -32.2898   26.4825 H   0  0  0  0  0  0
  -25.8021  -30.8911   27.0206 H   0  0  0  0  0  0
  -26.2948  -29.6724   24.1231 H   0  0  0  0  0  0
  -27.4024  -29.7265   25.4743 H   0  0  0  0  0  0
  -27.8830  -30.4256   23.9469 H   0  0  0  0  0  0
  -27.2649  -33.3627   26.2043 H   0  0  0  0  0  0
  -28.3863  -32.6880   25.0312 H   0  0  0  0  0  0
  -28.0715  -31.8462   26.5405 H   0  0  0  0  0  0
  -28.2602  -38.0086   24.7503 H   0  0  0  0  0  0
  -28.1068  -36.2616   24.6312 H   0  0  0  0  0  0
  -27.2293  -37.1464   25.8870 H   0  0  0  0  0  0
  -20.9410  -29.8737   21.6833 H   0  0  0  0  0  0
  -26.0170  -38.2835   24.1393 H   0  0  0  0  0  0
  -30.0651  -17.7273   16.4299 H   0  0  0  0  0  0
  -30.1955  -20.1012   16.5898 H   0  0  0  0  0  0
  -30.4048  -20.8365   18.1671 H   0  0  0  0  0  0
  -28.7630  -20.5579   17.5064 H   0  0  0  0  0  0
  -28.2653  -23.8491   21.5517 H   0  0  0  0  0  0
  -27.1404  -23.3096   20.3543 H   0  0  0  0  0  0
  -27.8885  -20.6564   19.4421 H   0  0  0  0  0  0
  -27.8022  -20.7842   21.1491 H   0  0  0  0  0  0
  -27.8966  -24.9369   18.7260 H   0  0  0  0  0  0
  -29.4845  -24.9363   19.3404 H   0  0  0  0  0  0
  -29.0397  -15.8789   21.1043 H   0  0  0  0  0  0
  -29.5218  -19.3114   21.5062 H   0  0  0  0  0  0
  1 25  1  0  0  0
  1 30  2  0  0  0
  1 81  1  0  0  0
  2  3  1  0  0  0
  2 25  1  0  0  0
  2 84  1  0  0  0
  2 85  1  0  0  0
  3  4  1  0  0  0
  3 86  1  0  0  0
  3 87  1  0  0  0
  4  5  1  0  0  0
  4 88  1  0  0  0
  4 89  1  0  0  0
  5  6  1  0  0  0
  5 26  1  0  0  0
  5 90  1  0  0  0
  6 25  1  0  0  0
  6 91  1  0  0  0
  6 92  1  0  0  0
  7  8  2  0  0  0
  7 26  1  0  0  0
  7 29  1  0  0  0
  8  9  1  0  0  0
  8 22  1  0  0  0
  9 10  1  0  0  0
  9 27  2  0  0  0
 10 11  2  0  0  0
 10 15  1  0  0  0
 11 12  1  0  0  0
 11 93  1  0  0  0
 12 13  2  0  0  0
 12 94  1  0  0  0
 13 14  1  0  0  0
 13 31  1  0  0  0
 14 15  2  0  0  0
 14 95  1  0  0  0
 15 96  1  0  0  0
 16 17  2  0  0  0
 16 21  1  0  0  0
 16 31  1  0  0  0
 17 18  1  0  0  0
 17 97  1  0  0  0
 18 19  2  0  0  0
 18 98  1  0  0  0
 19 20  1  0  0  0
 19 24  1  0  0  0
 20 21  2  0  0  0
 20 99  1  0  0  0
 21 23  1  0  0  0
 22 28  1  0  0  0
 22 32  2  0  0  0
 26 27  1  0  0  0
 28100  1  0  0  0
 28101  1  0  0  0
 29102  1  0  0  0
 29103  1  0  0  0
 33 34  1  0  0  0
 33 66  1  0  0  0
 33 70  2  0  0  0
 34 36  1  0  0  0
 34 59  1  0  0  0
 34104  1  0  0  0
 35 44  2  0  0  0
 35 45  1  0  0  0
 35 68  1  0  0  0
 36 56  1  0  0  0
 36105  1  0  0  0
 37 39  1  0  0  0
 37 47  1  0  0  0
 37 66  1  0  0  0
 37106  1  0  0  0
 38 43  2  0  0  0
 38 46  1  0  0  0
 38 47  1  0  0  0
 39 64  1  0  0  0
 39 67  2  0  0  0
 40 52  1  0  0  0
 40 53  2  0  0  0
 40 58  1  0  0  0
 41107  1  0  0  0
 41108  1  0  0  0
 41109  1  0  0  0
 41 48  1  0  0  0
 42 43  1  0  0  0
 42 66  1  0  0  0
 42110  1  0  0  0
 42111  1  0  0  0
 43 44  1  0  0  0
 44112  1  0  0  0
 45 46  2  0  0  0
 45113  1  0  0  0
 46114  1  0  0  0
 47115  1  0  0  0
 47116  1  0  0  0
 48 56  1  0  0  0
 48 65  1  0  0  0
 48117  1  0  0  0
 49 50  1  0  0  0
 49 53  1  0  0  0
 49 64  1  0  0  0
 49118  1  0  0  0
 50 51  1  0  0  0
 50119  1  0  0  0
 50120  1  0  0  0
 51 52  1  0  0  0
 51121  1  0  0  0
 51122  1  0  0  0
 52123  1  0  0  0
 52124  1  0  0  0
 53 54  1  0  0  0
 54 55  2  0  0  0
 54125  1  0  0  0
 55 57  1  0  0  0
 55126  1  0  0  0
 56 69  2  0  0  0
 57 58  2  0  0  0
 57127  1  0  0  0
 58128  1  0  0  0
 59 60  1  0  0  0
 59 61  1  0  0  0
 59 62  1  0  0  0
 60129  1  0  0  0
 60130  1  0  0  0
 60131  1  0  0  0
 61132  1  0  0  0
 61133  1  0  0  0
 61134  1  0  0  0
 62135  1  0  0  0
 62136  1  0  0  0
 62137  1  0  0  0
 63 65  1  0  0  0
 63138  1  0  0  0
 63139  1  0  0  0
 63140  1  0  0  0
 64141  1  0  0  0
 65142  1  0  0  0
 68 78  1  0  0  0
 71 79  2  0  0  0
 71 80  1  0  0  0
 71143  1  0  0  0
 72 73  2  0  0  0
 72 79  1  0  0  0
 72 81  1  0  0  0
 73 80  1  0  0  0
 73 82  1  0  0  0
 74 76  1  0  0  0
 74 77  1  0  0  0
 74 83  2  0  0  0
 75 80  1  0  0  0
 75144  1  0  0  0
 75145  1  0  0  0
 75146  1  0  0  0
 76 78  1  0  0  0
 76147  1  0  0  0
 76148  1  0  0  0
 77 82  1  0  0  0
 77149  1  0  0  0
 77150  1  0  0  0
 78151  1  0  0  0
 78152  1  0  0  0
 81153  1  0  0  0
 82154  1  0  0  0
M  ISO  4   1 100  68 101  78 101  81 100
M  END
> <chiral flag>
0

> <version>
0

> <s_m_source_file>
/data/baiqing/PycharmProjects/Reinvent-master-3.2/result/LINK_invent/BTK/process_docking_weight1_custom_product_contain_oxygen_bond_distance_aromatic_linkinvent_7_9_3/rearranged_h_0160.sdf

> <i_m_source_file_index>
32

> <r_mmod_Potential_Energy-OPLS-2005>
184.37532043457

> <r_mmod_Stretch_Energy-OPLS-2005>
147.061706542969

> <r_mmod_Bend_Energy-OPLS-2005>
233.769378662109

> <r_mmod_Torsional_Energy-OPLS-2005>
246.250335693359

> <r_mmod_Improper_Torsional_Energy-OPLS-2005>
8.29996109008789

> <r_mmod_Van_der_Waal_Energy-OPLS-2005>
119.100212097168

> <r_mmod_Electrostatic_Energy-OPLS-2005>
-390.281097412109

> <r_mmod_Solvation_Energy-OPLS-2005>
-273.627075195312

> <b_mmod_Minimization_Converged-OPLS-2005>
0

> <r_mmod_RMS_Derivative-OPLS-2005>
0.708828210830688

$$$$
32
                    3D
 Structure written by MMmdl.
163172  0  0  1  0            999 V2000
  -30.7272  -14.5386   20.4683 C   0  0  0  0  0  0
  -30.4020  -12.3281   19.4414 C   0  0  0  0  0  0
  -29.4897  -12.4858   18.2090 C   0  0  0  0  0  0
  -28.0113  -12.3512   18.6206 C   0  0  0  0  0  0
  -27.6447  -13.2281   19.8512 C   0  0  2  0  0  0
  -28.6921  -13.1107   20.9811 C   0  0  0  0  0  0
  -25.2537  -13.8217   20.5717 C   0  0  0  0  0  0
  -24.1827  -13.0460   20.9200 C   0  0  0  0  0  0
  -24.6405  -11.6934   20.8747 C   0  0  0  0  0  0
  -23.9081  -10.4305   21.0393 C   0  0  0  0  0  0
  -24.3639   -9.4223   21.9178 C   0  0  0  0  0  0
  -23.6305   -8.2257   22.0760 C   0  0  0  0  0  0
  -22.4292   -8.0287   21.3539 C   0  0  0  0  0  0
  -21.9924   -9.0272   20.4654 C   0  0  0  0  0  0
  -22.7244  -10.2155   20.3049 C   0  0  0  0  0  0
  -21.6876   -6.0735   22.5278 C   0  0  0  0  0  0
  -21.4036   -6.5641   23.8206 C   0  0  0  0  0  0
  -21.3657   -5.6789   24.9171 C   0  0  0  0  0  0
  -21.6033   -4.3043   24.7216 C   0  0  0  0  0  0
  -21.8823   -3.8138   23.4340 C   0  0  0  0  0  0
  -21.9213   -4.6959   22.3401 C   0  0  0  0  0  0
  -22.7843  -13.5242   21.1839 C   0  0  0  0  0  0
  -22.1684   -4.2144   21.0980 F   0  0  0  0  0  0
  -21.5612   -3.4528   25.7723 F   0  0  0  0  0  0
  -30.0158  -13.3754   20.4030 N   0  0  0  0  0  0
  -26.2958  -12.9419   20.3295 N   0  0  0  0  0  0
  -25.9341  -11.6561   20.5790 N   0  0  0  0  0  0
  -22.0495  -12.8244   22.0393 N   0  0  0  0  0  0
  -25.4219  -15.1944   20.4167 N   0  0  0  0  0  0
  -31.9248  -14.5529   20.1803 O   0  0  0  0  0  0
  -21.6652   -6.8877   21.4231 O   0  0  0  0  0  0
  -22.3538  -14.5550   20.6682 O   0  0  0  0  0  0
  -24.6198  -31.8664   23.2131 C   0  0  0  0  0  0
  -25.9076  -32.4814   23.8419 C   0  0  1  0  0  0
  -27.2164  -27.3838   20.0851 C   0  0  0  0  0  0
  -25.5928  -33.8616   24.2346 N   0  0  0  0  0  0
  -23.4072  -30.4965   21.5554 C   0  0  2  0  0  0
  -24.8493  -28.9696   20.1099 C   0  0  0  0  0  0
  -22.7421  -29.4665   22.4974 C   0  0  0  0  0  0
  -18.0274  -28.1380   22.8484 C   0  0  0  0  0  0
  -24.1485  -36.7304   23.2631 C   0  0  0  0  0  0
  -25.9461  -30.8120   21.3801 C   0  0  0  0  0  0
  -26.0150  -29.4480   20.7192 C   0  0  0  0  0  0
  -27.1967  -28.6602   20.7115 C   0  0  0  0  0  0
  -26.0273  -26.9573   19.4401 C   0  0  0  0  0  0
  -24.8540  -27.7260   19.4671 C   0  0  0  0  0  0
  -23.6168  -29.8439   20.1655 C   0  0  0  0  0  0
  -25.4108  -36.3108   24.0337 C   0  0  1  0  0  0
  -20.5870  -28.3677   23.1303 C   0  0  2  0  0  0
  -20.6776  -26.9408   22.5418 C   0  0  0  0  0  0
  -19.5759  -26.6389   21.5209 C   0  0  0  0  0  0
  -18.1935  -26.7930   22.1614 C   0  0  0  0  0  0
  -19.1524  -28.8845   23.2893 C   0  0  0  0  0  0
  -18.9451  -30.1445   23.8911 C   0  0  0  0  0  0
  -17.6457  -30.6585   24.0572 C   0  0  0  0  0  0
  -25.9041  -34.9472   23.5134 C   0  0  0  0  0  0
  -16.5346  -29.9095   23.6320 C   0  0  0  0  0  0
  -16.7266  -28.6508   23.0345 C   0  0  0  0  0  0
  -26.4489  -31.6595   25.0748 C   0  0  0  0  0  0
  -25.3754  -31.3728   26.1494 C   0  0  0  0  0  0
  -27.0327  -30.3029   24.6162 C   0  0  0  0  0  0
  -27.6084  -32.4320   25.7494 C   0  0  0  0  0  0
  -27.5586  -37.1797   24.8451 C   0  0  0  0  0  0
  -21.4153  -29.3037   22.3694 N   0  0  0  0  0  0
  -26.4298  -37.3794   23.9409 N   0  0  0  0  0  0
  -24.6759  -31.0729   22.1062 N   0  0  0  0  0  0
  -23.4180  -28.8188   23.3019 O   0  0  0  0  0  0
  -28.3669  -26.5956   20.1451 O   0  0  0  0  0  0
  -26.5584  -34.8918   22.4680 O   0  0  0  0  0  0
  -23.5383  -32.1461   23.7487 O   0  0  0  0  0  0
  -31.4088  -18.9791   19.0466 C   0  0  0  0  0  0
  -30.2096  -19.2565   19.6529 C   0  0  0  0  0  0
  -30.4414  -17.0036   20.1684 C   0  0  0  0  0  0
  -29.2508  -24.2251   20.2598 C   0  0  0  0  0  0
  -29.8725  -21.7799   20.5159 C   0  0  0  0  0  0
  -27.9025  -22.3282   19.2680 C   0  0  0  0  0  0
  -29.5625  -20.6450   19.5167 C   0  0  2  0  0  0
  -28.0533  -20.7851   19.2586 C   0  0  0  0  0  0
  -27.1799  -20.1835   20.3812 C   0  0  0  0  0  0
  -27.6299  -20.1764   17.9085 C   0  0  0  0  0  0
  -28.9091  -25.5151   18.0786 C   0  0  0  0  0  0
  -28.3810  -25.2834   19.5060 C   0  0  2  0  0  0
  -29.6958  -18.1216   20.3453 N   0  0  0  0  0  0
  -28.9924  -22.8904   20.0868 N   0  0  0  0  0  0
  -30.0386  -15.6972   20.6451 N   0  0  0  0  0  0
  -30.1783  -24.6141   20.9763 O   0  0  0  0  0  0
  -31.8949  -17.3245   19.2132 S   0  0  0  0  0  0
  -31.4494  -12.3889   19.1398 H   0  0  0  0  0  0
  -30.2804  -11.3407   19.8916 H   0  0  0  0  0  0
  -29.7356  -11.7356   17.4556 H   0  0  0  0  0  0
  -29.6595  -13.4571   17.7401 H   0  0  0  0  0  0
  -27.8320  -11.2996   18.8475 H   0  0  0  0  0  0
  -27.3618  -12.5900   17.7773 H   0  0  0  0  0  0
  -27.6525  -14.2597   19.4993 H   0  0  0  0  0  0
  -28.6727  -12.1143   21.4247 H   0  0  0  0  0  0
  -28.4670  -13.8105   21.7880 H   0  0  0  0  0  0
  -25.2799   -9.5691   22.4748 H   0  0  0  0  0  0
  -23.9995   -7.4660   22.7515 H   0  0  0  0  0  0
  -21.0829   -8.8794   19.9007 H   0  0  0  0  0  0
  -22.3682  -10.9693   19.6153 H   0  0  0  0  0  0
  -21.2048   -7.6155   23.9704 H   0  0  0  0  0  0
  -21.1476   -6.0527   25.9066 H   0  0  0  0  0  0
  -22.0611   -2.7598   23.2844 H   0  0  0  0  0  0
  -22.4095  -11.9889   22.4761 H   0  0  0  0  0  0
  -21.1130  -13.1284   22.2621 H   0  0  0  0  0  0
  -24.6499  -15.8437   20.5231 H   0  0  0  0  0  0
  -26.2681  -15.6382   20.0831 H   0  0  0  0  0  0
  -26.7130  -32.5499   23.1159 H   0  0  0  0  0  0
  -25.0102  -33.9789   25.0509 H   0  0  0  0  0  0
  -22.6986  -31.3170   21.4237 H   0  0  0  0  0  0
  -23.3756  -35.9622   23.3288 H   0  0  0  0  0  0
  -24.3588  -36.8927   22.2047 H   0  0  0  0  0  0
  -23.7224  -37.6504   23.6651 H   0  0  0  0  0  0
  -26.0776  -31.5798   20.6158 H   0  0  0  0  0  0
  -26.8285  -30.8540   22.0071 H   0  0  0  0  0  0
  -28.0908  -29.0207   21.2006 H   0  0  0  0  0  0
  -25.9439  -26.0352   18.8892 H   0  0  0  0  0  0
  -23.9633  -27.3616   18.9747 H   0  0  0  0  0  0
  -23.7320  -30.6298   19.4185 H   0  0  0  0  0  0
  -22.7369  -29.2758   19.8589 H   0  0  0  0  0  0
  -25.1280  -36.1977   25.0835 H   0  0  0  0  0  0
  -20.9974  -28.3255   24.1419 H   0  0  0  0  0  0
  -20.5696  -26.2274   23.3602 H   0  0  0  0  0  0
  -21.6647  -26.7454   22.1199 H   0  0  0  0  0  0
  -19.6926  -25.6304   21.1230 H   0  0  0  0  0  0
  -19.6718  -27.3204   20.6749 H   0  0  0  0  0  0
  -17.4208  -26.6673   21.4018 H   0  0  0  0  0  0
  -18.0336  -26.0078   22.9016 H   0  0  0  0  0  0
  -19.7934  -30.7247   24.2318 H   0  0  0  0  0  0
  -17.5014  -31.6270   24.5166 H   0  0  0  0  0  0
  -15.5354  -30.3004   23.7642 H   0  0  0  0  0  0
  -15.8665  -28.0835   22.7061 H   0  0  0  0  0  0
  -24.5915  -30.7079   25.7832 H   0  0  0  0  0  0
  -24.8947  -32.2892   26.4935 H   0  0  0  0  0  0
  -25.8092  -30.8901   27.0256 H   0  0  0  0  0  0
  -26.2877  -29.6778   24.1209 H   0  0  0  0  0  0
  -27.4074  -29.7284   25.4641 H   0  0  0  0  0  0
  -27.8733  -30.4341   23.9347 H   0  0  0  0  0  0
  -27.2715  -33.3615   26.2099 H   0  0  0  0  0  0
  -28.3860  -32.6883   25.0286 H   0  0  0  0  0  0
  -28.0775  -31.8419   26.5375 H   0  0  0  0  0  0
  -28.2591  -38.0108   24.7525 H   0  0  0  0  0  0
  -28.1105  -36.2642   24.6246 H   0  0  0  0  0  0
  -27.2308  -37.1399   25.8855 H   0  0  0  0  0  0
  -20.9312  -29.8742   21.6893 H   0  0  0  0  0  0
  -26.0182  -38.2867   24.1447 H   0  0  0  0  0  0
  -32.0282  -19.6497   18.4636 H   0  0  0  0  0  0
  -30.9273  -22.0572   20.4856 H   0  0  0  0  0  0
  -29.6320  -21.4860   21.5378 H   0  0  0  0  0  0
  -26.9249  -22.6321   19.6463 H   0  0  0  0  0  0
  -27.9889  -22.7136   18.2519 H   0  0  0  0  0  0
  -30.0027  -21.0315   18.5938 H   0  0  0  0  0  0
  -27.4643  -20.5498   21.3673 H   0  0  0  0  0  0
  -27.2352  -19.0963   20.4033 H   0  0  0  0  0  0
  -26.1299  -20.4383   20.2339 H   0  0  0  0  0  0
  -28.2027  -20.5921   17.0781 H   0  0  0  0  0  0
  -26.5749  -20.3599   17.7025 H   0  0  0  0  0  0
  -27.7851  -19.0966   17.8985 H   0  0  0  0  0  0
  -28.9727  -24.5899   17.5067 H   0  0  0  0  0  0
  -29.9071  -25.9548   18.1037 H   0  0  0  0  0  0
  -28.2618  -26.1965   17.5269 H   0  0  0  0  0  0
  -27.3951  -24.8368   19.4916 H   0  0  0  0  0  0
  -29.0870  -15.6181   20.9636 H   0  0  0  0  0  0
  1 25  1  0  0  0
  1 30  2  0  0  0
  1 85  1  0  0  0
  2  3  1  0  0  0
  2 25  1  0  0  0
  2 88  1  0  0  0
  2 89  1  0  0  0
  3  4  1  0  0  0
  3 90  1  0  0  0
  3 91  1  0  0  0
  4  5  1  0  0  0
  4 92  1  0  0  0
  4 93  1  0  0  0
  5  6  1  0  0  0
  5 26  1  0  0  0
  5 94  1  0  0  0
  6 25  1  0  0  0
  6 95  1  0  0  0
  6 96  1  0  0  0
  7  8  2  0  0  0
  7 26  1  0  0  0
  7 29  1  0  0  0
  8  9  1  0  0  0
  8 22  1  0  0  0
  9 10  1  0  0  0
  9 27  2  0  0  0
 10 11  2  0  0  0
 10 15  1  0  0  0
 11 12  1  0  0  0
 11 97  1  0  0  0
 12 13  2  0  0  0
 12 98  1  0  0  0
 13 14  1  0  0  0
 13 31  1  0  0  0
 14 15  2  0  0  0
 14 99  1  0  0  0
 15100  1  0  0  0
 16 17  2  0  0  0
 16 21  1  0  0  0
 16 31  1  0  0  0
 17 18  1  0  0  0
 17101  1  0  0  0
 18 19  2  0  0  0
 18102  1  0  0  0
 19 20  1  0  0  0
 19 24  1  0  0  0
 20 21  2  0  0  0
 20103  1  0  0  0
 21 23  1  0  0  0
 22 28  1  0  0  0
 22 32  2  0  0  0
 26 27  1  0  0  0
 28104  1  0  0  0
 28105  1  0  0  0
 29106  1  0  0  0
 29107  1  0  0  0
 33 34  1  0  0  0
 33 66  1  0  0  0
 33 70  2  0  0  0
 34 36  1  0  0  0
 34 59  1  0  0  0
 34108  1  0  0  0
 35 44  2  0  0  0
 35 45  1  0  0  0
 35 68  1  0  0  0
 36 56  1  0  0  0
 36109  1  0  0  0
 37 39  1  0  0  0
 37 47  1  0  0  0
 37 66  1  0  0  0
 37110  1  0  0  0
 38 43  2  0  0  0
 38 46  1  0  0  0
 38 47  1  0  0  0
 39 64  1  0  0  0
 39 67  2  0  0  0
 40 52  1  0  0  0
 40 53  2  0  0  0
 40 58  1  0  0  0
 41111  1  0  0  0
 41112  1  0  0  0
 41113  1  0  0  0
 41 48  1  0  0  0
 42 43  1  0  0  0
 42 66  1  0  0  0
 42114  1  0  0  0
 42115  1  0  0  0
 43 44  1  0  0  0
 44116  1  0  0  0
 45 46  2  0  0  0
 45117  1  0  0  0
 46118  1  0  0  0
 47119  1  0  0  0
 47120  1  0  0  0
 48 56  1  0  0  0
 48 65  1  0  0  0
 48121  1  0  0  0
 49 50  1  0  0  0
 49 53  1  0  0  0
 49 64  1  0  0  0
 49122  1  0  0  0
 50 51  1  0  0  0
 50123  1  0  0  0
 50124  1  0  0  0
 51 52  1  0  0  0
 51125  1  0  0  0
 51126  1  0  0  0
 52127  1  0  0  0
 52128  1  0  0  0
 53 54  1  0  0  0
 54 55  2  0  0  0
 54129  1  0  0  0
 55 57  1  0  0  0
 55130  1  0  0  0
 56 69  2  0  0  0
 57 58  2  0  0  0
 57131  1  0  0  0
 58132  1  0  0  0
 59 60  1  0  0  0
 59 61  1  0  0  0
 59 62  1  0  0  0
 60133  1  0  0  0
 60134  1  0  0  0
 60135  1  0  0  0
 61136  1  0  0  0
 61137  1  0  0  0
 61138  1  0  0  0
 62139  1  0  0  0
 62140  1  0  0  0
 62141  1  0  0  0
 63 65  1  0  0  0
 63142  1  0  0  0
 63143  1  0  0  0
 63144  1  0  0  0
 64145  1  0  0  0
 65146  1  0  0  0
 68 82  1  0  0  0
 71 72  2  0  0  0
 71 87  1  0  0  0
 71147  1  0  0  0
 72 83  1  0  0  0
 72 77  1  0  0  0
 73 83  2  0  0  0
 73 85  1  0  0  0
 73 87  1  0  0  0
 74 82  1  0  0  0
 74 84  1  0  0  0
 74 86  2  0  0  0
 75 77  1  0  0  0
 75 84  1  0  0  0
 75148  1  0  0  0
 75149  1  0  0  0
 76 78  1  0  0  0
 76 84  1  0  0  0
 76150  1  0  0  0
 76151  1  0  0  0
 77 78  1  0  0  0
 77152  1  0  0  0
 78 79  1  0  0  0
 78 80  1  0  0  0
 79153  1  0  0  0
 79154  1  0  0  0
 79155  1  0  0  0
 80156  1  0  0  0
 80157  1  0  0  0
 80158  1  0  0  0
 81159  1  0  0  0
 81160  1  0  0  0
 81161  1  0  0  0
 81 82  1  0  0  0
 82162  1  0  0  0
 85163  1  0  0  0
M  ISO  4   1 100  68 101  82 101  85 100
M  END
> <chiral flag>
0

> <version>
0

> <s_m_source_file>
/data/baiqing/PycharmProjects/Reinvent-master-3.2/result/LINK_invent/BTK/process_docking_weight1_custom_product_contain_oxygen_bond_distance_aromatic_linkinvent_7_9_3/rearranged_h_0160.sdf

> <i_m_source_file_index>
33

> <r_mmod_Potential_Energy-OPLS-2005>
71.475944519043

> <r_mmod_Stretch_Energy-OPLS-2005>
54.1739158630371

> <r_mmod_Bend_Energy-OPLS-2005>
166.516738891602

> <r_mmod_Torsional_Energy-OPLS-2005>
289.291015625

> <r_mmod_Improper_Torsional_Energy-OPLS-2005>
5.65535163879395

> <r_mmod_Van_der_Waal_Energy-OPLS-2005>
142.519546508789

> <r_mmod_Electrostatic_Energy-OPLS-2005>
-384.792755126953

> <r_mmod_Solvation_Energy-OPLS-2005>
-236.362167358398

> <b_mmod_Minimization_Converged-OPLS-2005>
0

> <r_mmod_RMS_Derivative-OPLS-2005>
2.78705215454102

$$$$
34
                    3D
 Structure written by MMmdl.
156165  0  0  1  0            999 V2000
  -30.6493  -14.6670   20.4334 C   0  0  0  0  0  0
  -30.4196  -12.3959   19.4735 C   0  0  0  0  0  0
  -29.5055  -12.4928   18.2332 C   0  0  0  0  0  0
  -28.0286  -12.3357   18.6429 C   0  0  0  0  0  0
  -27.6430  -13.2298   19.8525 C   0  0  2  0  0  0
  -28.6865  -13.1470   20.9890 C   0  0  0  0  0  0
  -25.2511  -13.8200   20.5701 C   0  0  0  0  0  0
  -24.1802  -13.0442   20.9205 C   0  0  0  0  0  0
  -24.6391  -11.6921   20.8748 C   0  0  0  0  0  0
  -23.9073  -10.4294   21.0408 C   0  0  0  0  0  0
  -24.3624   -9.4208   21.9185 C   0  0  0  0  0  0
  -23.6296   -8.2244   22.0757 C   0  0  0  0  0  0
  -22.4278   -8.0281   21.3544 C   0  0  0  0  0  0
  -21.9914   -9.0256   20.4647 C   0  0  0  0  0  0
  -22.7244  -10.2136   20.3055 C   0  0  0  0  0  0
  -21.6853   -6.0736   22.5278 C   0  0  0  0  0  0
  -21.4015   -6.5641   23.8212 C   0  0  0  0  0  0
  -21.3661   -5.6794   24.9173 C   0  0  0  0  0  0
  -21.6044   -4.3057   24.7225 C   0  0  0  0  0  0
  -21.8820   -3.8146   23.4346 C   0  0  0  0  0  0
  -21.9193   -4.6963   22.3402 C   0  0  0  0  0  0
  -22.7822  -13.5223   21.1865 C   0  0  0  0  0  0
  -22.1664   -4.2148   21.0979 F   0  0  0  0  0  0
  -21.5626   -3.4542   25.7738 F   0  0  0  0  0  0
  -29.9987  -13.4589   20.4113 N   0  0  0  0  0  0
  -26.2940  -12.9409   20.3290 N   0  0  0  0  0  0
  -25.9321  -11.6551   20.5755 N   0  0  0  0  0  0
  -22.0471  -12.8209   22.0421 N   0  0  0  0  0  0
  -25.4195  -15.1927   20.4133 N   0  0  0  0  0  0
  -31.8544  -14.7149   20.1656 O   0  0  0  0  0  0
  -21.6640   -6.8879   21.4241 O   0  0  0  0  0  0
  -22.3504  -14.5530   20.6714 O   0  0  0  0  0  0
  -24.6258  -31.8589   23.2013 C   0  0  0  0  0  0
  -25.9108  -32.4771   23.8342 C   0  0  1  0  0  0
  -27.2262  -27.3158   20.1078 C   0  0  0  0  0  0
  -25.5923  -33.8573   24.2270 N   0  0  0  0  0  0
  -23.4191  -30.4822   21.5437 C   0  0  2  0  0  0
  -24.8647  -28.9352   20.1083 C   0  0  0  0  0  0
  -22.7469  -29.4620   22.4930 C   0  0  0  0  0  0
  -18.0285  -28.1386   22.8486 C   0  0  0  0  0  0
  -24.1491  -36.7288   23.2639 C   0  0  0  0  0  0
  -25.9598  -30.7874   21.3728 C   0  0  0  0  0  0
  -26.0321  -29.4144   20.7143 C   0  0  0  0  0  0
  -27.2109  -28.6126   20.7103 C   0  0  0  0  0  0
  -26.0278  -26.8793   19.4978 C   0  0  0  0  0  0
  -24.8640  -27.6725   19.4949 C   0  0  0  0  0  0
  -23.6331  -29.8159   20.1589 C   0  0  0  0  0  0
  -25.4116  -36.3079   24.0328 C   0  0  1  0  0  0
  -20.5885  -28.3689   23.1286 C   0  0  2  0  0  0
  -20.6774  -26.9411   22.5417 C   0  0  0  0  0  0
  -19.5753  -26.6385   21.5214 C   0  0  0  0  0  0
  -18.1929  -26.7930   22.1620 C   0  0  0  0  0  0
  -19.1537  -28.8854   23.2882 C   0  0  0  0  0  0
  -18.9461  -30.1455   23.8899 C   0  0  0  0  0  0
  -17.6461  -30.6587   24.0565 C   0  0  0  0  0  0
  -25.9054  -34.9449   23.5101 C   0  0  0  0  0  0
  -16.5352  -29.9088   23.6330 C   0  0  0  0  0  0
  -16.7273  -28.6506   23.0351 C   0  0  0  0  0  0
  -26.4495  -31.6582   25.0714 C   0  0  0  0  0  0
  -25.3728  -31.3718   26.1440 C   0  0  0  0  0  0
  -27.0339  -30.3006   24.6169 C   0  0  0  0  0  0
  -27.6053  -32.4318   25.7485 C   0  0  0  0  0  0
  -27.5581  -37.1800   24.8463 C   0  0  0  0  0  0
  -21.4183  -29.3040   22.3676 N   0  0  0  0  0  0
  -26.4293  -37.3775   23.9407 N   0  0  0  0  0  0
  -24.6871  -31.0600   22.0960 N   0  0  0  0  0  0
  -23.4194  -28.8166   23.3015 O   0  0  0  0  0  0
  -28.3560  -26.4860   20.1875 O   0  0  0  0  0  0
  -26.5624  -34.8917   22.4670 O   0  0  0  0  0  0
  -23.5425  -32.1391   23.7345 O   0  0  0  0  0  0
  -30.7295  -17.0383   18.5907 C   0  0  0  0  0  0
  -30.8979  -18.1975   17.8426 C   0  0  0  0  0  0
  -30.0820  -17.1013   19.8373 C   0  0  0  0  0  0
  -29.7857  -19.4418   19.4277 C   0  0  0  0  0  0
  -29.8967  -23.3701   20.3284 C   0  0  0  0  0  0
  -28.7064  -23.8543   19.8868 C   0  0  0  0  0  0
  -30.2197  -21.8749   20.5819 C   0  0  0  0  0  0
  -27.5582  -22.8474   19.6350 C   0  0  0  0  0  0
  -27.8497  -21.3245   19.9653 C   0  0  0  0  0  0
  -29.3272  -20.9384   19.7268 C   0  0  2  0  0  0
  -28.5398  -25.3160   19.3084 C   0  0  0  0  0  0
  -30.4303  -19.3730   18.2682 N   0  0  0  0  0  0
  -29.6029  -18.3497   20.2333 N   0  0  0  0  0  0
  -29.8985  -15.8226   20.5449 N   0  0  0  0  0  0
  -31.4665  -12.4857   19.1775 H   0  0  0  0  0  0
  -30.3273  -11.4163   19.9451 H   0  0  0  0  0  0
  -29.7740  -11.7264   17.5047 H   0  0  0  0  0  0
  -29.6518  -13.4533   17.7363 H   0  0  0  0  0  0
  -27.8698  -11.2862   18.8945 H   0  0  0  0  0  0
  -27.3761  -12.5457   17.7946 H   0  0  0  0  0  0
  -27.6432  -14.2544   19.4804 H   0  0  0  0  0  0
  -28.6973  -12.1509   21.4345 H   0  0  0  0  0  0
  -28.4389  -13.8396   21.7951 H   0  0  0  0  0  0
  -25.2771   -9.5685   22.4758 H   0  0  0  0  0  0
  -24.0004   -7.4635   22.7478 H   0  0  0  0  0  0
  -21.0845   -8.8778   19.8952 H   0  0  0  0  0  0
  -22.3702  -10.9678   19.6165 H   0  0  0  0  0  0
  -21.2011   -7.6150   23.9715 H   0  0  0  0  0  0
  -21.1483   -6.0524   25.9077 H   0  0  0  0  0  0
  -22.0597   -2.7607   23.2847 H   0  0  0  0  0  0
  -22.4095  -11.9872   22.4805 H   0  0  0  0  0  0
  -21.1087  -13.1227   22.2634 H   0  0  0  0  0  0
  -24.6490  -15.8428   20.5258 H   0  0  0  0  0  0
  -26.2625  -15.6368   20.0733 H   0  0  0  0  0  0
  -26.7171  -32.5440   23.1085 H   0  0  0  0  0  0
  -25.0064  -33.9714   25.0410 H   0  0  0  0  0  0
  -22.7128  -31.3026   21.4006 H   0  0  0  0  0  0
  -23.3755  -35.9618   23.3302 H   0  0  0  0  0  0
  -24.3577  -36.8910   22.2053 H   0  0  0  0  0  0
  -23.7243  -37.6489   23.6663 H   0  0  0  0  0  0
  -26.0922  -31.5509   20.6051 H   0  0  0  0  0  0
  -26.8399  -30.8350   22.0025 H   0  0  0  0  0  0
  -28.1060  -28.9749   21.1964 H   0  0  0  0  0  0
  -25.9448  -25.8985   19.0560 H   0  0  0  0  0  0
  -23.9629  -27.2921   19.0334 H   0  0  0  0  0  0
  -23.7515  -30.5918   19.4017 H   0  0  0  0  0  0
  -22.7529  -29.2450   19.8579 H   0  0  0  0  0  0
  -25.1299  -36.1929   25.0822 H   0  0  0  0  0  0
  -20.9975  -28.3268   24.1406 H   0  0  0  0  0  0
  -20.5669  -26.2299   23.3617 H   0  0  0  0  0  0
  -21.6645  -26.7439   22.1216 H   0  0  0  0  0  0
  -19.6916  -25.6296   21.1242 H   0  0  0  0  0  0
  -19.6695  -27.3197   20.6745 H   0  0  0  0  0  0
  -17.4204  -26.6683   21.4017 H   0  0  0  0  0  0
  -18.0323  -26.0070   22.9012 H   0  0  0  0  0  0
  -19.7937  -30.7269   24.2270 H   0  0  0  0  0  0
  -17.5018  -31.6266   24.5168 H   0  0  0  0  0  0
  -15.5353  -30.2992   23.7653 H   0  0  0  0  0  0
  -15.8671  -28.0825   22.7064 H   0  0  0  0  0  0
  -24.5913  -30.7054   25.7772 H   0  0  0  0  0  0
  -24.8905  -32.2881   26.4855 H   0  0  0  0  0  0
  -25.8056  -30.8909   27.0220 H   0  0  0  0  0  0
  -26.2912  -29.6754   24.1200 H   0  0  0  0  0  0
  -27.4043  -29.7267   25.4673 H   0  0  0  0  0  0
  -27.8778  -30.4290   23.9387 H   0  0  0  0  0  0
  -27.2660  -33.3613   26.2069 H   0  0  0  0  0  0
  -28.3860  -32.6887   25.0311 H   0  0  0  0  0  0
  -28.0726  -31.8439   26.5395 H   0  0  0  0  0  0
  -28.2601  -38.0095   24.7510 H   0  0  0  0  0  0
  -28.1076  -36.2628   24.6292 H   0  0  0  0  0  0
  -27.2297  -37.1453   25.8866 H   0  0  0  0  0  0
  -20.9359  -29.8757   21.6883 H   0  0  0  0  0  0
  -26.0174  -38.2850   24.1409 H   0  0  0  0  0  0
  -31.1115  -16.1160   18.1766 H   0  0  0  0  0  0
  -31.4017  -18.1812   16.8875 H   0  0  0  0  0  0
  -30.7287  -24.0522   20.4395 H   0  0  0  0  0  0
  -30.1417  -21.6386   21.6433 H   0  0  0  0  0  0
  -31.2602  -21.7117   20.2988 H   0  0  0  0  0  0
  -27.3183  -22.9153   18.5730 H   0  0  0  0  0  0
  -26.6651  -23.1833   20.1635 H   0  0  0  0  0  0
  -27.2042  -20.6965   19.3504 H   0  0  0  0  0  0
  -27.5904  -21.1014   21.0005 H   0  0  0  0  0  0
  -29.4605  -21.3767   18.7348 H   0  0  0  0  0  0
  -27.8481  -25.2932   18.4691 H   0  0  0  0  0  0
  -29.4901  -25.5238   18.8153 H   0  0  0  0  0  0
  -29.0020  -15.7123   20.9892 H   0  0  0  0  0  0
  1 25  1  0  0  0
  1 30  2  0  0  0
  1 84  1  0  0  0
  2  3  1  0  0  0
  2 25  1  0  0  0
  2 85  1  0  0  0
  2 86  1  0  0  0
  3  4  1  0  0  0
  3 87  1  0  0  0
  3 88  1  0  0  0
  4  5  1  0  0  0
  4 89  1  0  0  0
  4 90  1  0  0  0
  5  6  1  0  0  0
  5 26  1  0  0  0
  5 91  1  0  0  0
  6 25  1  0  0  0
  6 92  1  0  0  0
  6 93  1  0  0  0
  7  8  2  0  0  0
  7 26  1  0  0  0
  7 29  1  0  0  0
  8  9  1  0  0  0
  8 22  1  0  0  0
  9 10  1  0  0  0
  9 27  2  0  0  0
 10 11  2  0  0  0
 10 15  1  0  0  0
 11 12  1  0  0  0
 11 94  1  0  0  0
 12 13  2  0  0  0
 12 95  1  0  0  0
 13 14  1  0  0  0
 13 31  1  0  0  0
 14 15  2  0  0  0
 14 96  1  0  0  0
 15 97  1  0  0  0
 16 17  2  0  0  0
 16 21  1  0  0  0
 16 31  1  0  0  0
 17 18  1  0  0  0
 17 98  1  0  0  0
 18 19  2  0  0  0
 18 99  1  0  0  0
 19 20  1  0  0  0
 19 24  1  0  0  0
 20 21  2  0  0  0
 20100  1  0  0  0
 21 23  1  0  0  0
 22 28  1  0  0  0
 22 32  2  0  0  0
 26 27  1  0  0  0
 28101  1  0  0  0
 28102  1  0  0  0
 29103  1  0  0  0
 29104  1  0  0  0
 33 34  1  0  0  0
 33 66  1  0  0  0
 33 70  2  0  0  0
 34 36  1  0  0  0
 34 59  1  0  0  0
 34105  1  0  0  0
 35 44  2  0  0  0
 35 45  1  0  0  0
 35 68  1  0  0  0
 36 56  1  0  0  0
 36106  1  0  0  0
 37 39  1  0  0  0
 37 47  1  0  0  0
 37 66  1  0  0  0
 37107  1  0  0  0
 38 43  2  0  0  0
 38 46  1  0  0  0
 38 47  1  0  0  0
 39 64  1  0  0  0
 39 67  2  0  0  0
 40 52  1  0  0  0
 40 53  2  0  0  0
 40 58  1  0  0  0
 41108  1  0  0  0
 41109  1  0  0  0
 41110  1  0  0  0
 41 48  1  0  0  0
 42 43  1  0  0  0
 42 66  1  0  0  0
 42111  1  0  0  0
 42112  1  0  0  0
 43 44  1  0  0  0
 44113  1  0  0  0
 45 46  2  0  0  0
 45114  1  0  0  0
 46115  1  0  0  0
 47116  1  0  0  0
 47117  1  0  0  0
 48 56  1  0  0  0
 48 65  1  0  0  0
 48118  1  0  0  0
 49 50  1  0  0  0
 49 53  1  0  0  0
 49 64  1  0  0  0
 49119  1  0  0  0
 50 51  1  0  0  0
 50120  1  0  0  0
 50121  1  0  0  0
 51 52  1  0  0  0
 51122  1  0  0  0
 51123  1  0  0  0
 52124  1  0  0  0
 52125  1  0  0  0
 53 54  1  0  0  0
 54 55  2  0  0  0
 54126  1  0  0  0
 55 57  1  0  0  0
 55127  1  0  0  0
 56 69  2  0  0  0
 57 58  2  0  0  0
 57128  1  0  0  0
 58129  1  0  0  0
 59 60  1  0  0  0
 59 61  1  0  0  0
 59 62  1  0  0  0
 60130  1  0  0  0
 60131  1  0  0  0
 60132  1  0  0  0
 61133  1  0  0  0
 61134  1  0  0  0
 61135  1  0  0  0
 62136  1  0  0  0
 62137  1  0  0  0
 62138  1  0  0  0
 63 65  1  0  0  0
 63139  1  0  0  0
 63140  1  0  0  0
 63141  1  0  0  0
 64142  1  0  0  0
 65143  1  0  0  0
 68 81  1  0  0  0
 71 72  2  0  0  0
 71 73  1  0  0  0
 71144  1  0  0  0
 72 82  1  0  0  0
 72145  1  0  0  0
 73 83  2  0  0  0
 73 84  1  0  0  0
 74 82  2  0  0  0
 74 83  1  0  0  0
 74 80  1  0  0  0
 75 76  2  0  0  0
 75 77  1  0  0  0
 75146  1  0  0  0
 76 78  1  0  0  0
 76 81  1  0  0  0
 77 80  1  0  0  0
 77147  1  0  0  0
 77148  1  0  0  0
 78 79  1  0  0  0
 78149  1  0  0  0
 78150  1  0  0  0
 79 80  1  0  0  0
 79151  1  0  0  0
 79152  1  0  0  0
 80153  1  0  0  0
 81154  1  0  0  0
 81155  1  0  0  0
 84156  1  0  0  0
M  ISO  4   1 100  68 101  81 101  84 100
M  END
> <chiral flag>
0

> <version>
0

> <s_m_source_file>
/data/baiqing/PycharmProjects/Reinvent-master-3.2/result/LINK_invent/BTK/process_docking_weight1_custom_product_contain_oxygen_bond_distance_aromatic_linkinvent_7_9_3/rearranged_h_0160.sdf

> <i_m_source_file_index>
34

> <r_mmod_Potential_Energy-OPLS-2005>
-225.58740234375

> <r_mmod_Stretch_Energy-OPLS-2005>
91.21337890625

> <r_mmod_Bend_Energy-OPLS-2005>
187.126876831055

> <r_mmod_Torsional_Energy-OPLS-2005>
229.334777832031

> <r_mmod_Improper_Torsional_Energy-OPLS-2005>
6.41664838790894

> <r_mmod_Van_der_Waal_Energy-OPLS-2005>
163.766235351562

> <r_mmod_Electrostatic_Energy-OPLS-2005>
-734.066589355469

> <r_mmod_Solvation_Energy-OPLS-2005>
-227.320495605469

> <b_mmod_Minimization_Converged-OPLS-2005>
0

> <r_mmod_RMS_Derivative-OPLS-2005>
0.409216552972794

$$$$
35
                    3D
 Structure written by MMmdl.
164173  0  0  1  0            999 V2000
  -30.5822  -14.7336   20.4388 C   0  0  0  0  0  0
  -30.4256  -12.4416   19.4624 C   0  0  0  0  0  0
  -29.5003  -12.4943   18.2274 C   0  0  0  0  0  0
  -28.0266  -12.3218   18.6465 C   0  0  0  0  0  0
  -27.6340  -13.2258   19.8466 C   0  0  2  0  0  0
  -28.6780  -13.1555   20.9794 C   0  0  0  0  0  0
  -25.2477  -13.8185   20.5683 C   0  0  0  0  0  0
  -24.1777  -13.0440   20.9210 C   0  0  0  0  0  0
  -24.6358  -11.6919   20.8750 C   0  0  0  0  0  0
  -23.9048  -10.4293   21.0412 C   0  0  0  0  0  0
  -24.3603   -9.4198   21.9186 C   0  0  0  0  0  0
  -23.6272   -8.2238   22.0759 C   0  0  0  0  0  0
  -22.4265   -8.0266   21.3536 C   0  0  0  0  0  0
  -21.9894   -9.0241   20.4649 C   0  0  0  0  0  0
  -22.7227  -10.2119   20.3059 C   0  0  0  0  0  0
  -21.6841   -6.0715   22.5271 C   0  0  0  0  0  0
  -21.4018   -6.5629   23.8197 C   0  0  0  0  0  0
  -21.3658   -5.6788   24.9161 C   0  0  0  0  0  0
  -21.6048   -4.3046   24.7228 C   0  0  0  0  0  0
  -21.8819   -3.8130   23.4349 C   0  0  0  0  0  0
  -21.9191   -4.6942   22.3400 C   0  0  0  0  0  0
  -22.7804  -13.5219   21.1881 C   0  0  0  0  0  0
  -22.1658   -4.2125   21.0970 F   0  0  0  0  0  0
  -21.5629   -3.4539   25.7739 F   0  0  0  0  0  0
  -29.9729  -13.5037   20.3879 N   0  0  0  0  0  0
  -26.2882  -12.9379   20.3265 N   0  0  0  0  0  0
  -25.9278  -11.6520   20.5763 N   0  0  0  0  0  0
  -22.0441  -12.8204   22.0424 N   0  0  0  0  0  0
  -25.4158  -15.1910   20.4082 N   0  0  0  0  0  0
  -31.7817  -14.8198   20.1556 O   0  0  0  0  0  0
  -21.6631   -6.8861   21.4235 O   0  0  0  0  0  0
  -22.3479  -14.5523   20.6720 O   0  0  0  0  0  0
  -24.6321  -31.8499   23.1971 C   0  0  0  0  0  0
  -25.9146  -32.4720   23.8295 C   0  0  1  0  0  0
  -27.2100  -27.2533   20.1154 C   0  0  0  0  0  0
  -25.5937  -33.8523   24.2220 N   0  0  0  0  0  0
  -23.4256  -30.4746   21.5380 C   0  0  2  0  0  0
  -24.8687  -28.9177   20.1044 C   0  0  0  0  0  0
  -22.7467  -29.4568   22.4884 C   0  0  0  0  0  0
  -18.0279  -28.1372   22.8450 C   0  0  0  0  0  0
  -24.1495  -36.7284   23.2636 C   0  0  0  0  0  0
  -25.9713  -30.7606   21.3753 C   0  0  0  0  0  0
  -26.0387  -29.3842   20.7135 C   0  0  0  0  0  0
  -27.2074  -28.5586   20.7137 C   0  0  0  0  0  0
  -26.0168  -26.8497   19.4790 C   0  0  0  0  0  0
  -24.8618  -27.6611   19.4774 C   0  0  0  0  0  0
  -23.6429  -29.8097   20.1527 C   0  0  0  0  0  0
  -25.4119  -36.3050   24.0329 C   0  0  1  0  0  0
  -20.5878  -28.3672   23.1248 C   0  0  2  0  0  0
  -20.6772  -26.9382   22.5403 C   0  0  0  0  0  0
  -19.5782  -26.6356   21.5185 C   0  0  0  0  0  0
  -18.1946  -26.7899   22.1573 C   0  0  0  0  0  0
  -19.1526  -28.8844   23.2844 C   0  0  0  0  0  0
  -18.9465  -30.1437   23.8881 C   0  0  0  0  0  0
  -17.6472  -30.6576   24.0565 C   0  0  0  0  0  0
  -25.9068  -34.9416   23.5078 C   0  0  0  0  0  0
  -16.5361  -29.9081   23.6340 C   0  0  0  0  0  0
  -16.7267  -28.6502   23.0348 C   0  0  0  0  0  0
  -26.4502  -31.6557   25.0694 C   0  0  0  0  0  0
  -25.3731  -31.3716   26.1422 C   0  0  0  0  0  0
  -27.0368  -30.2986   24.6186 C   0  0  0  0  0  0
  -27.6049  -32.4309   25.7459 C   0  0  0  0  0  0
  -27.5584  -37.1770   24.8448 C   0  0  0  0  0  0
  -21.4180  -29.3021   22.3627 N   0  0  0  0  0  0
  -26.4281  -37.3764   23.9425 N   0  0  0  0  0  0
  -24.6954  -31.0485   22.0923 N   0  0  0  0  0  0
  -23.4166  -28.8106   23.2974 O   0  0  0  0  0  0
  -28.3168  -26.3804   20.2103 O   0  0  0  0  0  0
  -26.5642  -34.8900   22.4651 O   0  0  0  0  0  0
  -23.5480  -32.1307   23.7299 O   0  0  0  0  0  0
  -31.6990  -18.9118   21.6320 C   0  0  0  0  0  0
  -31.3613  -17.6024   21.2788 C   0  0  0  0  0  0
  -29.2314  -18.4493   20.4779 C   0  0  0  0  0  0
  -29.5644  -19.8433   20.8083 C   0  0  0  0  0  0
  -30.8215  -20.0064   21.4709 C   0  0  0  0  0  0
  -30.1052  -17.2992   20.7278 C   0  0  0  0  0  0
  -28.9327  -22.4008   20.2879 C   0  0  0  0  0  0
  -28.6193  -21.0762   20.6217 C   0  0  0  0  0  0
  -28.0602  -23.6913   20.3556 C   0  0  0  0  0  0
  -33.3712  -22.4703   22.6212 C   0  0  0  0  0  0
  -33.1380  -21.4834   23.7651 C   0  0  0  0  0  0
  -32.5205  -21.9170   21.4783 C   0  0  0  0  0  0
  -31.6594  -21.1029   23.6399 C   0  0  0  0  0  0
  -31.2772  -21.3037   22.1518 C   0  0  0  0  0  0
  -28.4129  -25.0318   19.5451 C   0  0  0  0  0  0
  -29.7694  -15.8626   20.5397 N   0  0  0  0  0  0
  -27.0439  -23.7315   21.0580 O   0  0  0  0  0  0
  -27.3584  -20.7598   20.9433 O   0  0  0  0  0  0
  -31.4663  -12.5720   19.1583 H   0  0  0  0  0  0
  -30.3740  -11.4655   19.9489 H   0  0  0  0  0  0
  -29.7775  -11.7172   17.5146 H   0  0  0  0  0  0
  -29.6223  -13.4459   17.7085 H   0  0  0  0  0  0
  -27.8842  -11.2739   18.9141 H   0  0  0  0  0  0
  -27.3653  -12.5109   17.8005 H   0  0  0  0  0  0
  -27.6278  -14.2469   19.4638 H   0  0  0  0  0  0
  -28.7103  -12.1577   21.4188 H   0  0  0  0  0  0
  -28.4205  -13.8375   21.7911 H   0  0  0  0  0  0
  -25.2733   -9.5674   22.4773 H   0  0  0  0  0  0
  -23.9968   -7.4631   22.7489 H   0  0  0  0  0  0
  -21.0812   -8.8765   19.8956 H   0  0  0  0  0  0
  -22.3672  -10.9662   19.6179 H   0  0  0  0  0  0
  -21.2014   -7.6132   23.9693 H   0  0  0  0  0  0
  -21.1486   -6.0514   25.9056 H   0  0  0  0  0  0
  -22.0603   -2.7595   23.2853 H   0  0  0  0  0  0
  -22.4057  -11.9847   22.4800 H   0  0  0  0  0  0
  -21.1069  -13.1232   22.2680 H   0  0  0  0  0  0
  -24.6454  -15.8413   20.5190 H   0  0  0  0  0  0
  -26.2512  -15.6317   20.0499 H   0  0  0  0  0  0
  -26.7195  -32.5362   23.1017 H   0  0  0  0  0  0
  -25.0098  -33.9642   25.0370 H   0  0  0  0  0  0
  -22.7228  -31.2980   21.3931 H   0  0  0  0  0  0
  -23.3770  -35.9605   23.3278 H   0  0  0  0  0  0
  -24.3591  -36.8950   22.2057 H   0  0  0  0  0  0
  -23.7240  -37.6471   23.6685 H   0  0  0  0  0  0
  -26.1129  -31.5200   20.6061 H   0  0  0  0  0  0
  -26.8467  -30.8026   22.0108 H   0  0  0  0  0  0
  -28.1004  -28.9022   21.2163 H   0  0  0  0  0  0
  -25.9403  -25.8791   19.0138 H   0  0  0  0  0  0
  -23.9615  -27.2984   19.0003 H   0  0  0  0  0  0
  -23.7688  -30.5873   19.3981 H   0  0  0  0  0  0
  -22.7614  -29.2454   19.8472 H   0  0  0  0  0  0
  -25.1301  -36.1871   25.0826 H   0  0  0  0  0  0
  -20.9961  -28.3280   24.1374 H   0  0  0  0  0  0
  -20.5662  -26.2279   23.3611 H   0  0  0  0  0  0
  -21.6640  -26.7404   22.1207 H   0  0  0  0  0  0
  -19.6971  -25.6272   21.1216 H   0  0  0  0  0  0
  -19.6774  -27.3154   20.6717 H   0  0  0  0  0  0
  -17.4220  -26.6629   21.3976 H   0  0  0  0  0  0
  -18.0368  -26.0026   22.8957 H   0  0  0  0  0  0
  -19.7956  -30.7225   24.2237 H   0  0  0  0  0  0
  -17.5053  -31.6258   24.5146 H   0  0  0  0  0  0
  -15.5373  -30.3003   23.7686 H   0  0  0  0  0  0
  -15.8646  -28.0846   22.7078 H   0  0  0  0  0  0
  -24.5953  -30.7007   25.7760 H   0  0  0  0  0  0
  -24.8888  -32.2895   26.4764 H   0  0  0  0  0  0
  -25.8063  -30.8966   27.0237 H   0  0  0  0  0  0
  -26.2950  -29.6711   24.1245 H   0  0  0  0  0  0
  -27.4097  -29.7274   25.4694 H   0  0  0  0  0  0
  -27.8796  -30.4290   23.9402 H   0  0  0  0  0  0
  -27.2654  -33.3638   26.1972 H   0  0  0  0  0  0
  -28.3879  -32.6815   25.0286 H   0  0  0  0  0  0
  -28.0681  -31.8473   26.5426 H   0  0  0  0  0  0
  -28.2528  -38.0117   24.7542 H   0  0  0  0  0  0
  -28.1141  -36.2657   24.6209 H   0  0  0  0  0  0
  -27.2315  -37.1348   25.8841 H   0  0  0  0  0  0
  -20.9341  -29.8774   21.6875 H   0  0  0  0  0  0
  -26.0168  -38.2834   24.1466 H   0  0  0  0  0  0
  -32.6533  -19.0598   22.1163 H   0  0  0  0  0  0
  -32.0781  -16.8291   21.5076 H   0  0  0  0  0  0
  -28.2626  -18.2494   20.0403 H   0  0  0  0  0  0
  -29.9489  -22.5916   19.9807 H   0  0  0  0  0  0
  -34.4252  -22.5687   22.3562 H   0  0  0  0  0  0
  -33.0047  -23.4588   22.9015 H   0  0  0  0  0  0
  -33.3813  -21.9000   24.7433 H   0  0  0  0  0  0
  -33.7610  -20.5975   23.6267 H   0  0  0  0  0  0
  -33.1019  -21.1459   20.9728 H   0  0  0  0  0  0
  -32.2736  -22.6635   20.7236 H   0  0  0  0  0  0
  -31.0597  -21.7728   24.2578 H   0  0  0  0  0  0
  -31.4621  -20.0999   24.0213 H   0  0  0  0  0  0
  -30.4858  -22.0450   22.1850 H   0  0  0  0  0  0
  -27.8448  -25.0375   18.6152 H   0  0  0  0  0  0
  -29.4503  -24.9273   19.2306 H   0  0  0  0  0  0
  -28.7849  -15.6455   20.5426 H   0  0  0  0  0  0
  -27.3558  -19.8508   21.2152 H   0  0  0  0  0  0
  1 25  1  0  0  0
  1 30  2  0  0  0
  1 86  1  0  0  0
  2  3  1  0  0  0
  2 25  1  0  0  0
  2 89  1  0  0  0
  2 90  1  0  0  0
  3  4  1  0  0  0
  3 91  1  0  0  0
  3 92  1  0  0  0
  4  5  1  0  0  0
  4 93  1  0  0  0
  4 94  1  0  0  0
  5  6  1  0  0  0
  5 26  1  0  0  0
  5 95  1  0  0  0
  6 25  1  0  0  0
  6 96  1  0  0  0
  6 97  1  0  0  0
  7  8  2  0  0  0
  7 26  1  0  0  0
  7 29  1  0  0  0
  8  9  1  0  0  0
  8 22  1  0  0  0
  9 10  1  0  0  0
  9 27  2  0  0  0
 10 11  2  0  0  0
 10 15  1  0  0  0
 11 12  1  0  0  0
 11 98  1  0  0  0
 12 13  2  0  0  0
 12 99  1  0  0  0
 13 14  1  0  0  0
 13 31  1  0  0  0
 14 15  2  0  0  0
 14100  1  0  0  0
 15101  1  0  0  0
 16 17  2  0  0  0
 16 21  1  0  0  0
 16 31  1  0  0  0
 17 18  1  0  0  0
 17102  1  0  0  0
 18 19  2  0  0  0
 18103  1  0  0  0
 19 20  1  0  0  0
 19 24  1  0  0  0
 20 21  2  0  0  0
 20104  1  0  0  0
 21 23  1  0  0  0
 22 28  1  0  0  0
 22 32  2  0  0  0
 26 27  1  0  0  0
 28105  1  0  0  0
 28106  1  0  0  0
 29107  1  0  0  0
 29108  1  0  0  0
 33 34  1  0  0  0
 33 66  1  0  0  0
 33 70  2  0  0  0
 34 36  1  0  0  0
 34 59  1  0  0  0
 34109  1  0  0  0
 35 44  2  0  0  0
 35 45  1  0  0  0
 35 68  1  0  0  0
 36 56  1  0  0  0
 36110  1  0  0  0
 37 39  1  0  0  0
 37 47  1  0  0  0
 37 66  1  0  0  0
 37111  1  0  0  0
 38 43  2  0  0  0
 38 46  1  0  0  0
 38 47  1  0  0  0
 39 64  1  0  0  0
 39 67  2  0  0  0
 40 52  1  0  0  0
 40 53  2  0  0  0
 40 58  1  0  0  0
 41112  1  0  0  0
 41113  1  0  0  0
 41114  1  0  0  0
 41 48  1  0  0  0
 42 43  1  0  0  0
 42 66  1  0  0  0
 42115  1  0  0  0
 42116  1  0  0  0
 43 44  1  0  0  0
 44117  1  0  0  0
 45 46  2  0  0  0
 45118  1  0  0  0
 46119  1  0  0  0
 47120  1  0  0  0
 47121  1  0  0  0
 48 56  1  0  0  0
 48 65  1  0  0  0
 48122  1  0  0  0
 49 50  1  0  0  0
 49 53  1  0  0  0
 49 64  1  0  0  0
 49123  1  0  0  0
 50 51  1  0  0  0
 50124  1  0  0  0
 50125  1  0  0  0
 51 52  1  0  0  0
 51126  1  0  0  0
 51127  1  0  0  0
 52128  1  0  0  0
 52129  1  0  0  0
 53 54  1  0  0  0
 54 55  2  0  0  0
 54130  1  0  0  0
 55 57  1  0  0  0
 55131  1  0  0  0
 56 69  2  0  0  0
 57 58  2  0  0  0
 57132  1  0  0  0
 58133  1  0  0  0
 59 60  1  0  0  0
 59 61  1  0  0  0
 59 62  1  0  0  0
 60134  1  0  0  0
 60135  1  0  0  0
 60136  1  0  0  0
 61137  1  0  0  0
 61138  1  0  0  0
 61139  1  0  0  0
 62140  1  0  0  0
 62141  1  0  0  0
 62142  1  0  0  0
 63 65  1  0  0  0
 63143  1  0  0  0
 63144  1  0  0  0
 63145  1  0  0  0
 64146  1  0  0  0
 65147  1  0  0  0
 68 85  1  0  0  0
 71 72  2  0  0  0
 71 75  1  0  0  0
 71148  1  0  0  0
 72 76  1  0  0  0
 72149  1  0  0  0
 73 74  1  0  0  0
 73 76  2  0  0  0
 73150  1  0  0  0
 74 75  2  0  0  0
 74 78  1  0  0  0
 75 84  1  0  0  0
 76 86  1  0  0  0
 77 78  2  0  0  0
 77 79  1  0  0  0
 77151  1  0  0  0
 78 88  1  0  0  0
 79 85  1  0  0  0
 79 87  2  0  0  0
 80 81  1  0  0  0
 80 82  1  0  0  0
 80152  1  0  0  0
 80153  1  0  0  0
 81 83  1  0  0  0
 81154  1  0  0  0
 81155  1  0  0  0
 82 84  1  0  0  0
 82156  1  0  0  0
 82157  1  0  0  0
 83 84  1  0  0  0
 83158  1  0  0  0
 83159  1  0  0  0
 84160  1  0  0  0
 85161  1  0  0  0
 85162  1  0  0  0
 86163  1  0  0  0
 88164  1  0  0  0
M  ISO  4   1 100  68 101  85 101  86 100
M  END
> <chiral flag>
0

> <version>
0

> <s_m_source_file>
/data/baiqing/PycharmProjects/Reinvent-master-3.2/result/LINK_invent/BTK/process_docking_weight1_custom_product_contain_oxygen_bond_distance_aromatic_linkinvent_7_9_3/rearranged_h_0160.sdf

> <i_m_source_file_index>
35

> <r_mmod_Potential_Energy-OPLS-2005>
295.055725097656

> <r_mmod_Stretch_Energy-OPLS-2005>
139.153305053711

> <r_mmod_Bend_Energy-OPLS-2005>
199.976058959961

> <r_mmod_Torsional_Energy-OPLS-2005>
286.42431640625

> <r_mmod_Improper_Torsional_Energy-OPLS-2005>
8.7441349029541

> <r_mmod_Van_der_Waal_Energy-OPLS-2005>
147.896667480469

> <r_mmod_Electrostatic_Energy-OPLS-2005>
-330.772521972656

> <r_mmod_Solvation_Energy-OPLS-2005>
-242.789428710938

> <b_mmod_Minimization_Converged-OPLS-2005>
0

> <r_mmod_RMS_Derivative-OPLS-2005>
3.34827661514282

$$$$
36
                    3D
 Structure written by MMmdl.
155163  0  0  1  0            999 V2000
  -30.5854  -14.7390   20.4332 C   0  0  0  0  0  0
  -30.4335  -12.4407   19.4855 C   0  0  0  0  0  0
  -29.5154  -12.5029   18.2434 C   0  0  0  0  0  0
  -28.0390  -12.3314   18.6511 C   0  0  0  0  0  0
  -27.6447  -13.2287   19.8548 C   0  0  2  0  0  0
  -28.6842  -13.1475   20.9945 C   0  0  0  0  0  0
  -25.2519  -13.8199   20.5688 C   0  0  0  0  0  0
  -24.1806  -13.0454   20.9207 C   0  0  0  0  0  0
  -24.6384  -11.6925   20.8750 C   0  0  0  0  0  0
  -23.9066  -10.4303   21.0412 C   0  0  0  0  0  0
  -24.3619   -9.4215   21.9186 C   0  0  0  0  0  0
  -23.6296   -8.2250   22.0754 C   0  0  0  0  0  0
  -22.4273   -8.0285   21.3548 C   0  0  0  0  0  0
  -21.9910   -9.0261   20.4653 C   0  0  0  0  0  0
  -22.7241  -10.2137   20.3063 C   0  0  0  0  0  0
  -21.6849   -6.0739   22.5278 C   0  0  0  0  0  0
  -21.4013   -6.5642   23.8211 C   0  0  0  0  0  0
  -21.3666   -5.6791   24.9177 C   0  0  0  0  0  0
  -21.6041   -4.3054   24.7221 C   0  0  0  0  0  0
  -21.8821   -3.8151   23.4341 C   0  0  0  0  0  0
  -21.9189   -4.6971   22.3398 C   0  0  0  0  0  0
  -22.7827  -13.5247   21.1861 C   0  0  0  0  0  0
  -22.1659   -4.2158   21.0979 F   0  0  0  0  0  0
  -21.5634   -3.4538   25.7740 F   0  0  0  0  0  0
  -29.9901  -13.4979   20.4243 N   0  0  0  0  0  0
  -26.2937  -12.9393   20.3274 N   0  0  0  0  0  0
  -25.9311  -11.6537   20.5753 N   0  0  0  0  0  0
  -22.0454  -12.8249   22.0414 N   0  0  0  0  0  0
  -25.4251  -15.1919   20.4120 N   0  0  0  0  0  0
  -31.7583  -14.8567   20.0654 O   0  0  0  0  0  0
  -21.6636   -6.8880   21.4239 O   0  0  0  0  0  0
  -22.3516  -14.5548   20.6709 O   0  0  0  0  0  0
  -24.6317  -31.8538   23.1956 C   0  0  0  0  0  0
  -25.9142  -32.4742   23.8309 C   0  0  1  0  0  0
  -27.2251  -27.2533   20.1220 C   0  0  0  0  0  0
  -25.5930  -33.8542   24.2241 N   0  0  0  0  0  0
  -23.4299  -30.4756   21.5376 C   0  0  2  0  0  0
  -24.8779  -28.9185   20.1052 C   0  0  0  0  0  0
  -22.7510  -29.4590   22.4875 C   0  0  0  0  0  0
  -18.0296  -28.1373   22.8494 C   0  0  0  0  0  0
  -24.1495  -36.7274   23.2646 C   0  0  0  0  0  0
  -25.9763  -30.7617   21.3798 C   0  0  0  0  0  0
  -26.0469  -29.3841   20.7189 C   0  0  0  0  0  0
  -27.2178  -28.5610   20.7203 C   0  0  0  0  0  0
  -26.0301  -26.8509   19.4868 C   0  0  0  0  0  0
  -24.8754  -27.6610   19.4805 C   0  0  0  0  0  0
  -23.6507  -29.8089   20.1530 C   0  0  0  0  0  0
  -25.4122  -36.3061   24.0332 C   0  0  1  0  0  0
  -20.5905  -28.3692   23.1263 C   0  0  2  0  0  0
  -20.6774  -26.9401   22.5417 C   0  0  0  0  0  0
  -19.5747  -26.6370   21.5219 C   0  0  0  0  0  0
  -18.1927  -26.7916   22.1628 C   0  0  0  0  0  0
  -19.1553  -28.8848   23.2876 C   0  0  0  0  0  0
  -18.9472  -30.1446   23.8898 C   0  0  0  0  0  0
  -17.6470  -30.6576   24.0560 C   0  0  0  0  0  0
  -25.9059  -34.9434   23.5093 C   0  0  0  0  0  0
  -16.5361  -29.9076   23.6324 C   0  0  0  0  0  0
  -16.7282  -28.6490   23.0358 C   0  0  0  0  0  0
  -26.4504  -31.6565   25.0696 C   0  0  0  0  0  0
  -25.3727  -31.3723   26.1416 C   0  0  0  0  0  0
  -27.0368  -30.2984   24.6197 C   0  0  0  0  0  0
  -27.6050  -32.4319   25.7461 C   0  0  0  0  0  0
  -27.5584  -37.1794   24.8470 C   0  0  0  0  0  0
  -21.4213  -29.3042   22.3646 N   0  0  0  0  0  0
  -26.4295  -37.3766   23.9408 N   0  0  0  0  0  0
  -24.6983  -31.0497   22.0937 N   0  0  0  0  0  0
  -23.4207  -28.8135   23.2981 O   0  0  0  0  0  0
  -28.3363  -26.3819   20.2167 O   0  0  0  0  0  0
  -26.5645  -34.8920   22.4669 O   0  0  0  0  0  0
  -23.5466  -32.1363   23.7245 O   0  0  0  0  0  0
  -29.9557  -17.1974   18.6292 C   0  0  0  0  0  0
  -29.7598  -18.3697   17.8707 C   0  0  0  0  0  0
  -29.3833  -18.4547   20.6349 C   0  0  0  0  0  0
  -29.7560  -17.1774   20.0294 C   0  0  0  0  0  0
  -29.2255  -19.6900   19.8692 C   0  0  0  0  0  0
  -29.3789  -19.5868   18.4705 C   0  0  0  0  0  0
  -28.3287  -23.6678   20.3199 C   0  0  0  0  0  0
  -29.2014  -22.3252   20.0150 C   0  0  0  0  0  0
  -31.5772  -21.6780   19.3184 C   0  0  0  0  0  0
  -28.4533  -25.0550   19.5092 C   0  0  0  0  0  0
  -28.7797  -21.0427   20.4000 N   0  0  0  0  0  0
  -29.8083  -15.8573   20.7149 N   0  0  0  0  0  0
  -30.4191  -22.5734   19.4730 N   0  3  0  0  0  0
  -27.4796  -23.5749   21.2132 O   0  0  0  0  0  0
  -29.1453  -20.6646   17.6827 F   0  0  0  0  0  0
  -31.4778  -12.5578   19.1904 H   0  0  0  0  0  0
  -30.3711  -11.4611   19.9621 H   0  0  0  0  0  0
  -29.7976  -11.7294   17.5274 H   0  0  0  0  0  0
  -29.6488  -13.4570   17.7306 H   0  0  0  0  0  0
  -27.8907  -11.2824   18.9108 H   0  0  0  0  0  0
  -27.3855  -12.5279   17.8004 H   0  0  0  0  0  0
  -27.6472  -14.2530   19.4794 H   0  0  0  0  0  0
  -28.7116  -12.1447   21.4233 H   0  0  0  0  0  0
  -28.4188  -13.8187   21.8123 H   0  0  0  0  0  0
  -25.2765   -9.5698   22.4756 H   0  0  0  0  0  0
  -24.0012   -7.4640   22.7470 H   0  0  0  0  0  0
  -21.0840   -8.8789   19.8953 H   0  0  0  0  0  0
  -22.3707  -10.9680   19.6174 H   0  0  0  0  0  0
  -21.2005   -7.6148   23.9728 H   0  0  0  0  0  0
  -21.1484   -6.0515   25.9083 H   0  0  0  0  0  0
  -22.0592   -2.7614   23.2839 H   0  0  0  0  0  0
  -22.4053  -11.9926   22.4839 H   0  0  0  0  0  0
  -21.1068  -13.1284   22.2595 H   0  0  0  0  0  0
  -24.6620  -15.8502   20.5276 H   0  0  0  0  0  0
  -26.2754  -15.6270   20.0784 H   0  0  0  0  0  0
  -26.7202  -32.5394   23.1041 H   0  0  0  0  0  0
  -25.0058  -33.9661   25.0376 H   0  0  0  0  0  0
  -22.7280  -31.2990   21.3897 H   0  0  0  0  0  0
  -23.3761  -35.9602   23.3303 H   0  0  0  0  0  0
  -24.3594  -36.8899   22.2063 H   0  0  0  0  0  0
  -23.7242  -37.6473   23.6671 H   0  0  0  0  0  0
  -26.1261  -31.5252   20.6148 H   0  0  0  0  0  0
  -26.8504  -30.8042   22.0184 H   0  0  0  0  0  0
  -28.1106  -28.9091   21.2219 H   0  0  0  0  0  0
  -25.9442  -25.8809   19.0228 H   0  0  0  0  0  0
  -23.9765  -27.2972   19.0021 H   0  0  0  0  0  0
  -23.7821  -30.5865   19.3995 H   0  0  0  0  0  0
  -22.7681  -29.2470   19.8425 H   0  0  0  0  0  0
  -25.1304  -36.1910   25.0827 H   0  0  0  0  0  0
  -21.0007  -28.3272   24.1379 H   0  0  0  0  0  0
  -20.5654  -26.2303   23.3628 H   0  0  0  0  0  0
  -21.6641  -26.7400   22.1224 H   0  0  0  0  0  0
  -19.6901  -25.6282   21.1242 H   0  0  0  0  0  0
  -19.6673  -27.3185   20.6753 H   0  0  0  0  0  0
  -17.4199  -26.6686   21.4023 H   0  0  0  0  0  0
  -18.0308  -26.0046   22.9010 H   0  0  0  0  0  0
  -19.7950  -30.7264   24.2258 H   0  0  0  0  0  0
  -17.5026  -31.6257   24.5162 H   0  0  0  0  0  0
  -15.5362  -30.2981   23.7635 H   0  0  0  0  0  0
  -15.8685  -28.0805   22.7071 H   0  0  0  0  0  0
  -24.5878  -30.7100   25.7739 H   0  0  0  0  0  0
  -24.8944  -32.2899   26.4853 H   0  0  0  0  0  0
  -25.8036  -30.8877   27.0184 H   0  0  0  0  0  0
  -26.2957  -29.6699   24.1242 H   0  0  0  0  0  0
  -27.4080  -29.7274   25.4716 H   0  0  0  0  0  0
  -27.8819  -30.4262   23.9427 H   0  0  0  0  0  0
  -27.2640  -33.3613   26.2034 H   0  0  0  0  0  0
  -28.3842  -32.6894   25.0273 H   0  0  0  0  0  0
  -28.0735  -31.8454   26.5373 H   0  0  0  0  0  0
  -28.2605  -38.0090   24.7515 H   0  0  0  0  0  0
  -28.1075  -36.2621   24.6292 H   0  0  0  0  0  0
  -27.2305  -37.1443   25.8876 H   0  0  0  0  0  0
  -20.9387  -29.8793   21.6885 H   0  0  0  0  0  0
  -26.0173  -38.2843   24.1396 H   0  0  0  0  0  0
  -30.2119  -16.2904   18.0987 H   0  0  0  0  0  0
  -29.8793  -18.3299   16.7979 H   0  0  0  0  0  0
  -29.1965  -18.4850   21.6976 H   0  0  0  0  0  0
  -32.4947  -22.2639   19.2677 H   0  0  0  0  0  0
  -31.5204  -21.0937   18.4015 H   0  0  0  0  0  0
  -31.6713  -20.9993   20.1664 H   0  0  0  0  0  0
  -27.7623  -25.0089   18.6702 H   0  0  0  0  0  0
  -29.4365  -25.0514   19.0393 H   0  0  0  0  0  0
  -28.1487  -21.0669   21.1884 H   0  0  0  0  0  0
  -28.9919  -15.6507   21.2716 H   0  0  0  0  0  0
  -30.6257  -23.5396   19.2669 H   0  0  0  0  0  0
  1 25  1  0  0  0
  1 30  2  0  0  0
  1 82  1  0  0  0
  2  3  1  0  0  0
  2 25  1  0  0  0
  2 86  1  0  0  0
  2 87  1  0  0  0
  3  4  1  0  0  0
  3 88  1  0  0  0
  3 89  1  0  0  0
  4  5  1  0  0  0
  4 90  1  0  0  0
  4 91  1  0  0  0
  5  6  1  0  0  0
  5 26  1  0  0  0
  5 92  1  0  0  0
  6 25  1  0  0  0
  6 93  1  0  0  0
  6 94  1  0  0  0
  7  8  2  0  0  0
  7 26  1  0  0  0
  7 29  1  0  0  0
  8  9  1  0  0  0
  8 22  1  0  0  0
  9 10  1  0  0  0
  9 27  2  0  0  0
 10 11  2  0  0  0
 10 15  1  0  0  0
 11 12  1  0  0  0
 11 95  1  0  0  0
 12 13  2  0  0  0
 12 96  1  0  0  0
 13 14  1  0  0  0
 13 31  1  0  0  0
 14 15  2  0  0  0
 14 97  1  0  0  0
 15 98  1  0  0  0
 16 17  2  0  0  0
 16 21  1  0  0  0
 16 31  1  0  0  0
 17 18  1  0  0  0
 17 99  1  0  0  0
 18 19  2  0  0  0
 18100  1  0  0  0
 19 20  1  0  0  0
 19 24  1  0  0  0
 20 21  2  0  0  0
 20101  1  0  0  0
 21 23  1  0  0  0
 22 28  1  0  0  0
 22 32  2  0  0  0
 26 27  1  0  0  0
 28102  1  0  0  0
 28103  1  0  0  0
 29104  1  0  0  0
 29105  1  0  0  0
 33 34  1  0  0  0
 33 66  1  0  0  0
 33 70  2  0  0  0
 34 36  1  0  0  0
 34 59  1  0  0  0
 34106  1  0  0  0
 35 44  2  0  0  0
 35 45  1  0  0  0
 35 68  1  0  0  0
 36 56  1  0  0  0
 36107  1  0  0  0
 37 39  1  0  0  0
 37 47  1  0  0  0
 37 66  1  0  0  0
 37108  1  0  0  0
 38 43  2  0  0  0
 38 46  1  0  0  0
 38 47  1  0  0  0
 39 64  1  0  0  0
 39 67  2  0  0  0
 40 52  1  0  0  0
 40 53  2  0  0  0
 40 58  1  0  0  0
 41109  1  0  0  0
 41110  1  0  0  0
 41111  1  0  0  0
 41 48  1  0  0  0
 42 43  1  0  0  0
 42 66  1  0  0  0
 42112  1  0  0  0
 42113  1  0  0  0
 43 44  1  0  0  0
 44114  1  0  0  0
 45 46  2  0  0  0
 45115  1  0  0  0
 46116  1  0  0  0
 47117  1  0  0  0
 47118  1  0  0  0
 48 56  1  0  0  0
 48 65  1  0  0  0
 48119  1  0  0  0
 49 50  1  0  0  0
 49 53  1  0  0  0
 49 64  1  0  0  0
 49120  1  0  0  0
 50 51  1  0  0  0
 50121  1  0  0  0
 50122  1  0  0  0
 51 52  1  0  0  0
 51123  1  0  0  0
 51124  1  0  0  0
 52125  1  0  0  0
 52126  1  0  0  0
 53 54  1  0  0  0
 54 55  2  0  0  0
 54127  1  0  0  0
 55 57  1  0  0  0
 55128  1  0  0  0
 56 69  2  0  0  0
 57 58  2  0  0  0
 57129  1  0  0  0
 58130  1  0  0  0
 59 60  1  0  0  0
 59 61  1  0  0  0
 59 62  1  0  0  0
 60131  1  0  0  0
 60132  1  0  0  0
 60133  1  0  0  0
 61134  1  0  0  0
 61135  1  0  0  0
 61136  1  0  0  0
 62137  1  0  0  0
 62138  1  0  0  0
 62139  1  0  0  0
 63 65  1  0  0  0
 63140  1  0  0  0
 63141  1  0  0  0
 63142  1  0  0  0
 64143  1  0  0  0
 65144  1  0  0  0
 68 80  1  0  0  0
 71 72  2  0  0  0
 71 74  1  0  0  0
 71145  1  0  0  0
 72 76  1  0  0  0
 72146  1  0  0  0
 73 74  2  0  0  0
 73 75  1  0  0  0
 73147  1  0  0  0
 74 82  1  0  0  0
 75 76  2  0  0  0
 75 81  1  0  0  0
 76 85  1  0  0  0
 77 78  1  0  0  0
 77 80  1  0  0  0
 77 84  2  0  0  0
 78 81  1  0  0  0
 78 83  2  0  0  0
 79 83  1  0  0  0
 79148  1  0  0  0
 79149  1  0  0  0
 79150  1  0  0  0
 80151  1  0  0  0
 80152  1  0  0  0
 81153  1  0  0  0
 82154  1  0  0  0
 83155  1  0  0  0
M  CHG  1  83   1
M  ISO  4   1 100  68 101  80 101  82 100
M  END
> <chiral flag>
0

> <version>
0

> <s_m_source_file>
/data/baiqing/PycharmProjects/Reinvent-master-3.2/result/LINK_invent/BTK/process_docking_weight1_custom_product_contain_oxygen_bond_distance_aromatic_linkinvent_7_9_3/rearranged_h_0160.sdf

> <i_m_source_file_index>
36

> <r_mmod_Potential_Energy-OPLS-2005>
66.0241851806641

> <r_mmod_Stretch_Energy-OPLS-2005>
135.418472290039

> <r_mmod_Bend_Energy-OPLS-2005>
176.222244262695

> <r_mmod_Torsional_Energy-OPLS-2005>
254.912155151367

> <r_mmod_Improper_Torsional_Energy-OPLS-2005>
6.83921337127686

> <r_mmod_Van_der_Waal_Energy-OPLS-2005>
138.422744750977

> <r_mmod_Electrostatic_Energy-OPLS-2005>
-269.941375732422

> <r_mmod_Solvation_Energy-OPLS-2005>
-461.752166748047

> <b_mmod_Minimization_Converged-OPLS-2005>
0

> <r_mmod_RMS_Derivative-OPLS-2005>
1.88480138778687

$$$$
37
                    3D
 Structure written by MMmdl.
158167  0  0  1  0            999 V2000
  -30.6711  -14.7122   20.4363 C   0  0  0  0  0  0
  -30.4119  -12.4293   19.4730 C   0  0  0  0  0  0
  -29.4946  -12.4731   18.2348 C   0  0  0  0  0  0
  -28.0270  -12.3054   18.6595 C   0  0  0  0  0  0
  -27.6367  -13.2305   19.8434 C   0  0  2  0  0  0
  -28.6869  -13.2064   20.9765 C   0  0  0  0  0  0
  -25.2476  -13.8182   20.5678 C   0  0  0  0  0  0
  -24.1800  -13.0450   20.9190 C   0  0  0  0  0  0
  -24.6401  -11.6912   20.8769 C   0  0  0  0  0  0
  -23.9099  -10.4304   21.0436 C   0  0  0  0  0  0
  -24.3636   -9.4209   21.9220 C   0  0  0  0  0  0
  -23.6282   -8.2254   22.0793 C   0  0  0  0  0  0
  -22.4264   -8.0287   21.3555 C   0  0  0  0  0  0
  -21.9918   -9.0280   20.4671 C   0  0  0  0  0  0
  -22.7273  -10.2143   20.3089 C   0  0  0  0  0  0
  -21.6856   -6.0733   22.5264 C   0  0  0  0  0  0
  -21.4023   -6.5642   23.8199 C   0  0  0  0  0  0
  -21.3652   -5.6794   24.9161 C   0  0  0  0  0  0
  -21.6024   -4.3051   24.7213 C   0  0  0  0  0  0
  -21.8823   -3.8148   23.4338 C   0  0  0  0  0  0
  -21.9196   -4.6962   22.3389 C   0  0  0  0  0  0
  -22.7817  -13.5222   21.1801 C   0  0  0  0  0  0
  -22.1661   -4.2138   21.0967 F   0  0  0  0  0  0
  -21.5622   -3.4543   25.7737 F   0  0  0  0  0  0
  -29.9898  -13.5199   20.3771 N   0  0  0  0  0  0
  -26.2918  -12.9410   20.3300 N   0  0  0  0  0  0
  -25.9330  -11.6561   20.5817 N   0  0  0  0  0  0
  -22.0498  -12.8237   22.0374 N   0  0  0  0  0  0
  -25.4156  -15.1945   20.4080 N   0  0  0  0  0  0
  -31.8678  -14.7281   20.1413 O   0  0  0  0  0  0
  -21.6639   -6.8867   21.4219 O   0  0  0  0  0  0
  -22.3508  -14.5540   20.6641 O   0  0  0  0  0  0
  -24.6336  -31.8541   23.1963 C   0  0  0  0  0  0
  -25.9154  -32.4724   23.8333 C   0  0  1  0  0  0
  -27.1929  -27.2180   20.1279 C   0  0  0  0  0  0
  -25.5912  -33.8527   24.2225 N   0  0  0  0  0  0
  -23.4277  -30.4826   21.5389 C   0  0  2  0  0  0
  -24.8676  -28.9286   20.0949 C   0  0  0  0  0  0
  -22.7491  -29.4576   22.4814 C   0  0  0  0  0  0
  -18.0274  -28.1358   22.8416 C   0  0  0  0  0  0
  -24.1493  -36.7327   23.2634 C   0  0  0  0  0  0
  -25.9750  -30.7499   21.3813 C   0  0  0  0  0  0
  -26.0368  -29.3682   20.7257 C   0  0  0  0  0  0
  -27.1924  -28.5210   20.7405 C   0  0  0  0  0  0
  -25.9996  -26.8548   19.4564 C   0  0  0  0  0  0
  -24.8566  -27.6859   19.4453 C   0  0  0  0  0  0
  -23.6425  -29.8261   20.1500 C   0  0  0  0  0  0
  -25.4106  -36.3063   24.0313 C   0  0  1  0  0  0
  -20.5879  -28.3687   23.1181 C   0  0  2  0  0  0
  -20.6731  -26.9378   22.5346 C   0  0  0  0  0  0
  -19.5732  -26.6344   21.5144 C   0  0  0  0  0  0
  -18.1918  -26.7897   22.1571 C   0  0  0  0  0  0
  -19.1548  -28.8840   23.2791 C   0  0  0  0  0  0
  -18.9485  -30.1410   23.8826 C   0  0  0  0  0  0
  -17.6476  -30.6548   24.0554 C   0  0  0  0  0  0
  -25.9039  -34.9420   23.5073 C   0  0  0  0  0  0
  -16.5357  -29.9049   23.6336 C   0  0  0  0  0  0
  -16.7284  -28.6468   23.0324 C   0  0  0  0  0  0
  -26.4497  -31.6587   25.0761 C   0  0  0  0  0  0
  -25.3717  -31.3770   26.1496 C   0  0  0  0  0  0
  -27.0388  -30.2989   24.6325 C   0  0  0  0  0  0
  -27.6016  -32.4385   25.7540 C   0  0  0  0  0  0
  -27.5575  -37.1792   24.8440 C   0  0  0  0  0  0
  -21.4197  -29.3046   22.3582 N   0  0  0  0  0  0
  -26.4288  -37.3753   23.9396 N   0  0  0  0  0  0
  -24.6992  -31.0490   22.0953 N   0  0  0  0  0  0
  -23.4197  -28.8107   23.2899 O   0  0  0  0  0  0
  -28.2914  -26.3277   20.2411 O   0  0  0  0  0  0
  -26.5660  -34.8926   22.4667 O   0  0  0  0  0  0
  -23.5477  -32.1360   23.7255 O   0  0  0  0  0  0
  -29.5124  -18.4663   20.6249 C   0  0  0  0  0  0
  -31.7616  -17.6236   20.8373 C   0  0  0  0  0  0
  -31.3126  -20.0398   21.1456 C   0  0  0  0  0  0
  -30.3970  -17.3140   20.6697 C   0  0  0  0  0  0
  -29.9350  -19.8510   20.8044 C   0  0  0  0  0  0
  -32.1993  -18.9369   21.0782 C   0  0  0  0  0  0
  -28.4762  -23.6552   20.6379 C   0  0  0  0  0  0
  -32.7949  -21.4244   22.8584 C   0  0  0  0  0  0
  -31.4511  -22.1037   22.8342 C   0  0  0  0  0  0
  -31.9274  -21.3476   21.6016 C   0  0  0  0  0  0
  -29.2622  -22.3435   20.1340 C   0  0  0  0  0  0
  -28.3392  -24.9290   19.6648 C   0  0  0  0  0  0
  -29.9505  -15.8938   20.5725 N   0  0  0  0  0  0
  -28.9840  -20.9510   20.6909 N   0  0  0  0  0  0
  -27.9444  -23.6531   21.7551 O   0  0  0  0  0  0
  -33.5260  -19.1252   21.2800 F   0  0  0  0  0  0
  -31.4577  -12.5121   19.1755 H   0  0  0  0  0  0
  -30.3250  -11.4691   19.9832 H   0  0  0  0  0  0
  -29.7739  -11.6852   17.5326 H   0  0  0  0  0  0
  -29.6171  -13.4188   17.7038 H   0  0  0  0  0  0
  -27.8935  -11.2639   18.9505 H   0  0  0  0  0  0
  -27.3606  -12.4695   17.8098 H   0  0  0  0  0  0
  -27.6223  -14.2427   19.4353 H   0  0  0  0  0  0
  -28.7117  -12.2352   21.4703 H   0  0  0  0  0  0
  -28.4278  -13.9346   21.7470 H   0  0  0  0  0  0
  -25.2793   -9.5640   22.4793 H   0  0  0  0  0  0
  -23.9952   -7.4653   22.7557 H   0  0  0  0  0  0
  -21.0841   -8.8830   19.9001 H   0  0  0  0  0  0
  -22.3767  -10.9682   19.6194 H   0  0  0  0  0  0
  -21.2042   -7.6160   23.9674 H   0  0  0  0  0  0
  -21.1458   -6.0552   25.9051 H   0  0  0  0  0  0
  -22.0616   -2.7610   23.2857 H   0  0  0  0  0  0
  -22.4121  -11.9871   22.4710 H   0  0  0  0  0  0
  -21.1152  -13.1283   22.2667 H   0  0  0  0  0  0
  -24.6421  -15.8398   20.5208 H   0  0  0  0  0  0
  -26.2560  -15.6415   20.0683 H   0  0  0  0  0  0
  -26.7233  -32.5382   23.1088 H   0  0  0  0  0  0
  -25.0014  -33.9659   25.0341 H   0  0  0  0  0  0
  -22.7264  -31.3091   21.4039 H   0  0  0  0  0  0
  -23.3724  -35.9686   23.3281 H   0  0  0  0  0  0
  -24.3599  -36.9022   22.2062 H   0  0  0  0  0  0
  -23.7290  -37.6530   23.6720 H   0  0  0  0  0  0
  -26.1082  -31.5051   20.6090 H   0  0  0  0  0  0
  -26.8545  -30.8053   22.0106 H   0  0  0  0  0  0
  -28.0714  -28.8353   21.2855 H   0  0  0  0  0  0
  -25.9028  -25.9113   18.9463 H   0  0  0  0  0  0
  -23.9594  -27.3625   18.9305 H   0  0  0  0  0  0
  -23.7637  -30.6108   19.4000 H   0  0  0  0  0  0
  -22.7525  -29.2668   19.8552 H   0  0  0  0  0  0
  -25.1271  -36.1928   25.0805 H   0  0  0  0  0  0
  -20.9956  -28.3319   24.1310 H   0  0  0  0  0  0
  -20.5576  -26.2303   23.3585 H   0  0  0  0  0  0
  -21.6627  -26.7342   22.1184 H   0  0  0  0  0  0
  -19.6924  -25.6258   21.1216 H   0  0  0  0  0  0
  -19.6733  -27.3135   20.6679 H   0  0  0  0  0  0
  -17.4169  -26.6583   21.4017 H   0  0  0  0  0  0
  -18.0340  -26.0061   22.9002 H   0  0  0  0  0  0
  -19.8003  -30.7174   24.2193 H   0  0  0  0  0  0
  -17.5096  -31.6256   24.5140 H   0  0  0  0  0  0
  -15.5375  -30.2929   23.7712 H   0  0  0  0  0  0
  -15.8679  -28.0805   22.7022 H   0  0  0  0  0  0
  -24.5828  -30.7184   25.7825 H   0  0  0  0  0  0
  -24.8950  -32.2945   26.4959 H   0  0  0  0  0  0
  -25.7979  -30.8908   27.0271 H   0  0  0  0  0  0
  -26.3018  -29.6681   24.1323 H   0  0  0  0  0  0
  -27.4005  -29.7322   25.4914 H   0  0  0  0  0  0
  -27.8922  -30.4234   23.9642 H   0  0  0  0  0  0
  -27.2586  -33.3692   26.2088 H   0  0  0  0  0  0
  -28.3834  -32.6966   25.0377 H   0  0  0  0  0  0
  -28.0706  -31.8566   26.5510 H   0  0  0  0  0  0
  -28.2496  -38.0153   24.7491 H   0  0  0  0  0  0
  -28.1137  -36.2678   24.6219 H   0  0  0  0  0  0
  -27.2291  -37.1401   25.8830 H   0  0  0  0  0  0
  -20.9314  -29.8910   21.6965 H   0  0  0  0  0  0
  -26.0174  -38.2818   24.1432 H   0  0  0  0  0  0
  -28.4639  -18.2887   20.4400 H   0  0  0  0  0  0
  -32.5259  -16.8638   20.8414 H   0  0  0  0  0  0
  -32.8819  -20.5661   23.5236 H   0  0  0  0  0  0
  -33.6695  -22.0770   22.8543 H   0  0  0  0  0  0
  -31.4822  -23.1920   22.8384 H   0  0  0  0  0  0
  -30.6734  -21.6639   23.4606 H   0  0  0  0  0  0
  -32.3032  -21.8995   20.7418 H   0  0  0  0  0  0
  -30.3237  -22.5621   20.1730 H   0  0  0  0  0  0
  -29.0452  -22.2856   19.0673 H   0  0  0  0  0  0
  -27.5172  -24.7160   18.9805 H   0  0  0  0  0  0
  -29.2197  -24.9053   19.0200 H   0  0  0  0  0  0
  -28.9530  -15.7662   20.6091 H   0  0  0  0  0  0
  -28.0754  -20.6265   20.3545 H   0  0  0  0  0  0
  1 25  1  0  0  0
  1 30  2  0  0  0
  1 83  1  0  0  0
  2  3  1  0  0  0
  2 25  1  0  0  0
  2 87  1  0  0  0
  2 88  1  0  0  0
  3  4  1  0  0  0
  3 89  1  0  0  0
  3 90  1  0  0  0
  4  5  1  0  0  0
  4 91  1  0  0  0
  4 92  1  0  0  0
  5  6  1  0  0  0
  5 26  1  0  0  0
  5 93  1  0  0  0
  6 25  1  0  0  0
  6 94  1  0  0  0
  6 95  1  0  0  0
  7  8  2  0  0  0
  7 26  1  0  0  0
  7 29  1  0  0  0
  8  9  1  0  0  0
  8 22  1  0  0  0
  9 10  1  0  0  0
  9 27  2  0  0  0
 10 11  2  0  0  0
 10 15  1  0  0  0
 11 12  1  0  0  0
 11 96  1  0  0  0
 12 13  2  0  0  0
 12 97  1  0  0  0
 13 14  1  0  0  0
 13 31  1  0  0  0
 14 15  2  0  0  0
 14 98  1  0  0  0
 15 99  1  0  0  0
 16 17  2  0  0  0
 16 21  1  0  0  0
 16 31  1  0  0  0
 17 18  1  0  0  0
 17100  1  0  0  0
 18 19  2  0  0  0
 18101  1  0  0  0
 19 20  1  0  0  0
 19 24  1  0  0  0
 20 21  2  0  0  0
 20102  1  0  0  0
 21 23  1  0  0  0
 22 28  1  0  0  0
 22 32  2  0  0  0
 26 27  1  0  0  0
 28103  1  0  0  0
 28104  1  0  0  0
 29105  1  0  0  0
 29106  1  0  0  0
 33 34  1  0  0  0
 33 66  1  0  0  0
 33 70  2  0  0  0
 34 36  1  0  0  0
 34 59  1  0  0  0
 34107  1  0  0  0
 35 44  2  0  0  0
 35 45  1  0  0  0
 35 68  1  0  0  0
 36 56  1  0  0  0
 36108  1  0  0  0
 37 39  1  0  0  0
 37 47  1  0  0  0
 37 66  1  0  0  0
 37109  1  0  0  0
 38 43  2  0  0  0
 38 46  1  0  0  0
 38 47  1  0  0  0
 39 64  1  0  0  0
 39 67  2  0  0  0
 40 52  1  0  0  0
 40 53  2  0  0  0
 40 58  1  0  0  0
 41110  1  0  0  0
 41111  1  0  0  0
 41112  1  0  0  0
 41 48  1  0  0  0
 42 43  1  0  0  0
 42 66  1  0  0  0
 42113  1  0  0  0
 42114  1  0  0  0
 43 44  1  0  0  0
 44115  1  0  0  0
 45 46  2  0  0  0
 45116  1  0  0  0
 46117  1  0  0  0
 47118  1  0  0  0
 47119  1  0  0  0
 48 56  1  0  0  0
 48 65  1  0  0  0
 48120  1  0  0  0
 49 50  1  0  0  0
 49 53  1  0  0  0
 49 64  1  0  0  0
 49121  1  0  0  0
 50 51  1  0  0  0
 50122  1  0  0  0
 50123  1  0  0  0
 51 52  1  0  0  0
 51124  1  0  0  0
 51125  1  0  0  0
 52126  1  0  0  0
 52127  1  0  0  0
 53 54  1  0  0  0
 54 55  2  0  0  0
 54128  1  0  0  0
 55 57  1  0  0  0
 55129  1  0  0  0
 56 69  2  0  0  0
 57 58  2  0  0  0
 57130  1  0  0  0
 58131  1  0  0  0
 59 60  1  0  0  0
 59 61  1  0  0  0
 59 62  1  0  0  0
 60132  1  0  0  0
 60133  1  0  0  0
 60134  1  0  0  0
 61135  1  0  0  0
 61136  1  0  0  0
 61137  1  0  0  0
 62138  1  0  0  0
 62139  1  0  0  0
 62140  1  0  0  0
 63 65  1  0  0  0
 63141  1  0  0  0
 63142  1  0  0  0
 63143  1  0  0  0
 64144  1  0  0  0
 65145  1  0  0  0
 68 82  1  0  0  0
 71 74  2  0  0  0
 71 75  1  0  0  0
 71146  1  0  0  0
 72 74  1  0  0  0
 72 76  2  0  0  0
 72147  1  0  0  0
 73 75  2  0  0  0
 73 76  1  0  0  0
 73 80  1  0  0  0
 74 83  1  0  0  0
 75 84  1  0  0  0
 76 86  1  0  0  0
 77 81  1  0  0  0
 77 82  1  0  0  0
 77 85  2  0  0  0
 78 79  1  0  0  0
 78 80  1  0  0  0
 78148  1  0  0  0
 78149  1  0  0  0
 79 80  1  0  0  0
 79150  1  0  0  0
 79151  1  0  0  0
 80152  1  0  0  0
 81 84  1  0  0  0
 81153  1  0  0  0
 81154  1  0  0  0
 82155  1  0  0  0
 82156  1  0  0  0
 83157  1  0  0  0
 84158  1  0  0  0
M  ISO  4   1 100  68 101  82 101  83 100
M  END
> <chiral flag>
0

> <version>
0

> <s_m_source_file>
/data/baiqing/PycharmProjects/Reinvent-master-3.2/result/LINK_invent/BTK/process_docking_weight1_custom_product_contain_oxygen_bond_distance_aromatic_linkinvent_7_9_3/rearranged_h_0160.sdf

> <i_m_source_file_index>
37

> <r_mmod_Potential_Energy-OPLS-2005>
326.850769042969

> <r_mmod_Stretch_Energy-OPLS-2005>
132.07243347168

> <r_mmod_Bend_Energy-OPLS-2005>
190.68098449707

> <r_mmod_Torsional_Energy-OPLS-2005>
243.63459777832

> <r_mmod_Improper_Torsional_Energy-OPLS-2005>
9.93039798736572

> <r_mmod_Van_der_Waal_Energy-OPLS-2005>
141.301895141602

> <r_mmod_Electrostatic_Energy-OPLS-2005>
-236.844665527344

> <r_mmod_Solvation_Energy-OPLS-2005>
-249.8623046875

> <b_mmod_Minimization_Converged-OPLS-2005>
0

> <r_mmod_RMS_Derivative-OPLS-2005>
9.08407211303711

$$$$
38
                    3D
 Structure written by MMmdl.
151159  0  0  1  0            999 V2000
  -30.7138  -14.5294   20.6084 C   0  0  0  0  0  0
  -30.4248  -12.3595   19.4475 C   0  0  0  0  0  0
  -29.5044  -12.5190   18.2194 C   0  0  0  0  0  0
  -28.0287  -12.3567   18.6292 C   0  0  0  0  0  0
  -27.6550  -13.2197   19.8636 C   0  0  2  0  0  0
  -28.6902  -13.0544   20.9979 C   0  0  0  0  0  0
  -25.2559  -13.8199   20.5700 C   0  0  0  0  0  0
  -24.1815  -13.0446   20.9196 C   0  0  0  0  0  0
  -24.6382  -11.6925   20.8702 C   0  0  0  0  0  0
  -23.9057  -10.4291   21.0380 C   0  0  0  0  0  0
  -24.3606   -9.4216   21.9156 C   0  0  0  0  0  0
  -23.6280   -8.2254   22.0738 C   0  0  0  0  0  0
  -22.4266   -8.0272   21.3539 C   0  0  0  0  0  0
  -21.9895   -9.0244   20.4644 C   0  0  0  0  0  0
  -22.7226  -10.2123   20.3042 C   0  0  0  0  0  0
  -21.6840   -6.0745   22.5290 C   0  0  0  0  0  0
  -21.4009   -6.5640   23.8230 C   0  0  0  0  0  0
  -21.3673   -5.6785   24.9187 C   0  0  0  0  0  0
  -21.6042   -4.3042   24.7223 C   0  0  0  0  0  0
  -21.8818   -3.8147   23.4338 C   0  0  0  0  0  0
  -21.9185   -4.6974   22.3404 C   0  0  0  0  0  0
  -22.7839  -13.5238   21.1857 C   0  0  0  0  0  0
  -22.1652   -4.2162   21.0975 F   0  0  0  0  0  0
  -21.5629   -3.4522   25.7732 F   0  0  0  0  0  0
  -30.0216  -13.3619   20.4500 N   0  0  0  0  0  0
  -26.2978  -12.9388   20.3280 N   0  0  0  0  0  0
  -25.9298  -11.6532   20.5677 N   0  0  0  0  0  0
  -22.0463  -12.8226   22.0403 N   0  0  0  0  0  0
  -25.4289  -15.1917   20.4173 N   0  0  0  0  0  0
  -31.8348  -14.6943   20.1229 O   0  0  0  0  0  0
  -21.6628   -6.8875   21.4245 O   0  0  0  0  0  0
  -22.3523  -14.5537   20.6709 O   0  0  0  0  0  0
  -24.6184  -31.8677   23.2089 C   0  0  0  0  0  0
  -25.9056  -32.4825   23.8407 C   0  0  1  0  0  0
  -27.2390  -27.3884   20.1149 C   0  0  0  0  0  0
  -25.5904  -33.8626   24.2326 N   0  0  0  0  0  0
  -23.4097  -30.4895   21.5512 C   0  0  2  0  0  0
  -24.8586  -28.9555   20.1159 C   0  0  0  0  0  0
  -22.7440  -29.4668   22.5002 C   0  0  0  0  0  0
  -18.0266  -28.1382   22.8503 C   0  0  0  0  0  0
  -24.1474  -36.7300   23.2638 C   0  0  0  0  0  0
  -25.9432  -30.8224   21.3667 C   0  0  0  0  0  0
  -26.0242  -29.4546   20.7100 C   0  0  0  0  0  0
  -27.2168  -28.6835   20.6989 C   0  0  0  0  0  0
  -26.0489  -26.9324   19.4944 C   0  0  0  0  0  0
  -24.8686  -27.6956   19.5007 C   0  0  0  0  0  0
  -23.6201  -29.8224   20.1669 C   0  0  0  0  0  0
  -25.4096  -36.3113   24.0339 C   0  0  1  0  0  0
  -20.5869  -28.3672   23.1308 C   0  0  2  0  0  0
  -20.6756  -26.9408   22.5419 C   0  0  0  0  0  0
  -19.5730  -26.6393   21.5212 C   0  0  0  0  0  0
  -18.1910  -26.7927   22.1636 C   0  0  0  0  0  0
  -19.1527  -28.8844   23.2893 C   0  0  0  0  0  0
  -18.9457  -30.1451   23.8904 C   0  0  0  0  0  0
  -17.6453  -30.6590   24.0564 C   0  0  0  0  0  0
  -25.9040  -34.9480   23.5128 C   0  0  0  0  0  0
  -16.5345  -29.9089   23.6326 C   0  0  0  0  0  0
  -16.7259  -28.6501   23.0363 C   0  0  0  0  0  0
  -26.4462  -31.6610   25.0749 C   0  0  0  0  0  0
  -25.3734  -31.3727   26.1505 C   0  0  0  0  0  0
  -27.0285  -30.3049   24.6139 C   0  0  0  0  0  0
  -27.6031  -32.4346   25.7516 C   0  0  0  0  0  0
  -27.5568  -37.1807   24.8474 C   0  0  0  0  0  0
  -21.4177  -29.3035   22.3723 N   0  0  0  0  0  0
  -26.4282  -37.3795   23.9419 N   0  0  0  0  0  0
  -24.6754  -31.0756   22.0998 N   0  0  0  0  0  0
  -23.4179  -28.8196   23.3066 O   0  0  0  0  0  0
  -28.3772  -26.5820   20.1826 O   0  0  0  0  0  0
  -26.5612  -34.8927   22.4692 O   0  0  0  0  0  0
  -23.5366  -32.1454   23.7437 O   0  0  0  0  0  0
  -28.7622  -18.1876   20.1875 C   0  0  0  0  0  0
  -28.4954  -19.5786   20.0096 C   0  0  0  0  0  0
  -29.8555  -18.0770   21.0017 C   0  0  0  0  0  0
  -29.4513  -20.2548   20.7243 C   0  0  0  0  0  0
  -28.8429  -22.6293   20.3468 C   0  0  0  0  0  0
  -30.6394  -16.8873   21.5413 C   0  0  0  0  0  0
  -29.2641  -24.1243   20.5394 C   0  0  0  0  0  0
  -28.1357  -25.1418   20.1357 C   0  0  0  0  0  0
  -29.6323  -21.6216   20.8163 N   0  0  0  0  0  0
  -30.0789  -15.5415   21.2432 N   0  0  0  0  0  0
  -27.7819  -22.4060   19.7598 O   0  0  0  0  0  0
  -30.2902  -19.3487   21.3398 O   0  0  0  0  0  0
  -31.4710  -12.4606   19.1538 H   0  0  0  0  0  0
  -30.3301  -11.3605   19.8749 H   0  0  0  0  0  0
  -29.7699  -11.7919   17.4507 H   0  0  0  0  0  0
  -29.6522  -13.5038   17.7708 H   0  0  0  0  0  0
  -27.8661  -11.3007   18.8479 H   0  0  0  0  0  0
  -27.3772  -12.5957   17.7887 H   0  0  0  0  0  0
  -27.6837  -14.2602   19.5392 H   0  0  0  0  0  0
  -28.6750  -12.0335   21.3785 H   0  0  0  0  0  0
  -28.4251  -13.6880   21.8460 H   0  0  0  0  0  0
  -25.2754   -9.5680   22.4722 H   0  0  0  0  0  0
  -24.0003   -7.4627   22.7442 H   0  0  0  0  0  0
  -21.0842   -8.8766   19.8919 H   0  0  0  0  0  0
  -22.3700  -10.9661   19.6138 H   0  0  0  0  0  0
  -21.2004   -7.6142   23.9743 H   0  0  0  0  0  0
  -21.1498   -6.0505   25.9100 H   0  0  0  0  0  0
  -22.0582   -2.7605   23.2833 H   0  0  0  0  0  0
  -22.4063  -11.9934   22.4881 H   0  0  0  0  0  0
  -21.1061  -13.1267   22.2555 H   0  0  0  0  0  0
  -24.6643  -15.8489   20.5351 H   0  0  0  0  0  0
  -26.2889  -15.6321   20.1139 H   0  0  0  0  0  0
  -26.7130  -32.5520   23.1174 H   0  0  0  0  0  0
  -25.0042  -33.9801   25.0460 H   0  0  0  0  0  0
  -22.6993  -31.3055   21.4098 H   0  0  0  0  0  0
  -23.3741  -35.9633   23.3329 H   0  0  0  0  0  0
  -24.3545  -36.8891   22.2050 H   0  0  0  0  0  0
  -23.7229  -37.6507   23.6633 H   0  0  0  0  0  0
  -26.0659  -31.5895   20.5995 H   0  0  0  0  0  0
  -26.8263  -30.8750   21.9915 H   0  0  0  0  0  0
  -28.1107  -29.0681   21.1681 H   0  0  0  0  0  0
  -25.9960  -25.9723   19.0043 H   0  0  0  0  0  0
  -23.9747  -27.3042   19.0350 H   0  0  0  0  0  0
  -23.7247  -30.5954   19.4050 H   0  0  0  0  0  0
  -22.7433  -29.2407   19.8741 H   0  0  0  0  0  0
  -25.1272  -36.1976   25.0836 H   0  0  0  0  0  0
  -20.9955  -28.3231   24.1430 H   0  0  0  0  0  0
  -20.5640  -26.2293   23.3613 H   0  0  0  0  0  0
  -21.6620  -26.7434   22.1222 H   0  0  0  0  0  0
  -19.6885  -25.6303   21.1233 H   0  0  0  0  0  0
  -19.6647  -27.3202   20.6737 H   0  0  0  0  0  0
  -17.4181  -26.6673   21.4042 H   0  0  0  0  0  0
  -18.0312  -26.0058   22.9028 H   0  0  0  0  0  0
  -19.7932  -30.7267   24.2276 H   0  0  0  0  0  0
  -17.5013  -31.6268   24.5170 H   0  0  0  0  0  0
  -15.5350  -30.2997   23.7652 H   0  0  0  0  0  0
  -15.8657  -28.0814   22.7095 H   0  0  0  0  0  0
  -24.5913  -30.7062   25.7851 H   0  0  0  0  0  0
  -24.8918  -32.2888   26.4944 H   0  0  0  0  0  0
  -25.8107  -30.8917   27.0268 H   0  0  0  0  0  0
  -26.2839  -29.6852   24.1143 H   0  0  0  0  0  0
  -27.3988  -29.7251   25.4599 H   0  0  0  0  0  0
  -27.8696  -30.4348   23.9331 H   0  0  0  0  0  0
  -27.2630  -33.3636   26.2106 H   0  0  0  0  0  0
  -28.3829  -32.6948   25.0345 H   0  0  0  0  0  0
  -28.0714  -31.8485   26.5434 H   0  0  0  0  0  0
  -28.2618  -38.0077   24.7500 H   0  0  0  0  0  0
  -28.1042  -36.2616   24.6324 H   0  0  0  0  0  0
  -27.2295  -37.1483   25.8882 H   0  0  0  0  0  0
  -20.9349  -29.8751   21.6932 H   0  0  0  0  0  0
  -26.0178  -38.2878   24.1408 H   0  0  0  0  0  0
  -28.2228  -17.3585   19.7526 H   0  0  0  0  0  0
  -27.7022  -20.0014   19.4106 H   0  0  0  0  0  0
  -30.7258  -16.9808   22.6251 H   0  0  0  0  0  0
  -31.6629  -16.9569   21.1735 H   0  0  0  0  0  0
  -30.1478  -24.3079   19.9311 H   0  0  0  0  0  0
  -29.5560  -24.2802   21.5777 H   0  0  0  0  0  0
  -27.8362  -24.8970   19.1172 H   0  0  0  0  0  0
  -27.2830  -24.9244   20.7830 H   0  0  0  0  0  0
  -30.4765  -21.9148   21.2919 H   0  0  0  0  0  0
  -29.1489  -15.3484   21.5832 H   0  0  0  0  0  0
  1 25  1  0  0  0
  1 30  2  0  0  0
  1 80  1  0  0  0
  2  3  1  0  0  0
  2 25  1  0  0  0
  2 83  1  0  0  0
  2 84  1  0  0  0
  3  4  1  0  0  0
  3 85  1  0  0  0
  3 86  1  0  0  0
  4  5  1  0  0  0
  4 87  1  0  0  0
  4 88  1  0  0  0
  5  6  1  0  0  0
  5 26  1  0  0  0
  5 89  1  0  0  0
  6 25  1  0  0  0
  6 90  1  0  0  0
  6 91  1  0  0  0
  7  8  2  0  0  0
  7 26  1  0  0  0
  7 29  1  0  0  0
  8  9  1  0  0  0
  8 22  1  0  0  0
  9 10  1  0  0  0
  9 27  2  0  0  0
 10 11  2  0  0  0
 10 15  1  0  0  0
 11 12  1  0  0  0
 11 92  1  0  0  0
 12 13  2  0  0  0
 12 93  1  0  0  0
 13 14  1  0  0  0
 13 31  1  0  0  0
 14 15  2  0  0  0
 14 94  1  0  0  0
 15 95  1  0  0  0
 16 17  2  0  0  0
 16 21  1  0  0  0
 16 31  1  0  0  0
 17 18  1  0  0  0
 17 96  1  0  0  0
 18 19  2  0  0  0
 18 97  1  0  0  0
 19 20  1  0  0  0
 19 24  1  0  0  0
 20 21  2  0  0  0
 20 98  1  0  0  0
 21 23  1  0  0  0
 22 28  1  0  0  0
 22 32  2  0  0  0
 26 27  1  0  0  0
 28 99  1  0  0  0
 28100  1  0  0  0
 29101  1  0  0  0
 29102  1  0  0  0
 33 34  1  0  0  0
 33 66  1  0  0  0
 33 70  2  0  0  0
 34 36  1  0  0  0
 34 59  1  0  0  0
 34103  1  0  0  0
 35 44  2  0  0  0
 35 45  1  0  0  0
 35 68  1  0  0  0
 36 56  1  0  0  0
 36104  1  0  0  0
 37 39  1  0  0  0
 37 47  1  0  0  0
 37 66  1  0  0  0
 37105  1  0  0  0
 38 43  2  0  0  0
 38 46  1  0  0  0
 38 47  1  0  0  0
 39 64  1  0  0  0
 39 67  2  0  0  0
 40 52  1  0  0  0
 40 53  2  0  0  0
 40 58  1  0  0  0
 41106  1  0  0  0
 41107  1  0  0  0
 41108  1  0  0  0
 41 48  1  0  0  0
 42 43  1  0  0  0
 42 66  1  0  0  0
 42109  1  0  0  0
 42110  1  0  0  0
 43 44  1  0  0  0
 44111  1  0  0  0
 45 46  2  0  0  0
 45112  1  0  0  0
 46113  1  0  0  0
 47114  1  0  0  0
 47115  1  0  0  0
 48 56  1  0  0  0
 48 65  1  0  0  0
 48116  1  0  0  0
 49 50  1  0  0  0
 49 53  1  0  0  0
 49 64  1  0  0  0
 49117  1  0  0  0
 50 51  1  0  0  0
 50118  1  0  0  0
 50119  1  0  0  0
 51 52  1  0  0  0
 51120  1  0  0  0
 51121  1  0  0  0
 52122  1  0  0  0
 52123  1  0  0  0
 53 54  1  0  0  0
 54 55  2  0  0  0
 54124  1  0  0  0
 55 57  1  0  0  0
 55125  1  0  0  0
 56 69  2  0  0  0
 57 58  2  0  0  0
 57126  1  0  0  0
 58127  1  0  0  0
 59 60  1  0  0  0
 59 61  1  0  0  0
 59 62  1  0  0  0
 60128  1  0  0  0
 60129  1  0  0  0
 60130  1  0  0  0
 61131  1  0  0  0
 61132  1  0  0  0
 61133  1  0  0  0
 62134  1  0  0  0
 62135  1  0  0  0
 62136  1  0  0  0
 63 65  1  0  0  0
 63137  1  0  0  0
 63138  1  0  0  0
 63139  1  0  0  0
 64140  1  0  0  0
 65141  1  0  0  0
 68 78  1  0  0  0
 71 72  1  0  0  0
 71 73  2  0  0  0
 71142  1  0  0  0
 72 74  2  0  0  0
 72143  1  0  0  0
 73 76  1  0  0  0
 73 82  1  0  0  0
 74 79  1  0  0  0
 74 82  1  0  0  0
 75 77  1  0  0  0
 75 79  1  0  0  0
 75 81  2  0  0  0
 76 80  1  0  0  0
 76144  1  0  0  0
 76145  1  0  0  0
 77 78  1  0  0  0
 77146  1  0  0  0
 77147  1  0  0  0
 78148  1  0  0  0
 78149  1  0  0  0
 79150  1  0  0  0
 80151  1  0  0  0
M  ISO  4   1 100  68 101  78 101  80 100
M  END
> <chiral flag>
0

> <version>
0

> <s_m_source_file>
/data/baiqing/PycharmProjects/Reinvent-master-3.2/result/LINK_invent/BTK/process_docking_weight1_custom_product_contain_oxygen_bond_distance_aromatic_linkinvent_7_9_3/rearranged_h_0160.sdf

> <i_m_source_file_index>
38

> <r_mmod_Potential_Energy-OPLS-2005>
-180.624313354492

> <r_mmod_Stretch_Energy-OPLS-2005>
51.5366897583008

> <r_mmod_Bend_Energy-OPLS-2005>
115.955123901367

> <r_mmod_Torsional_Energy-OPLS-2005>
195.981475830078

> <r_mmod_Improper_Torsional_Energy-OPLS-2005>
2.30108523368835

> <r_mmod_Van_der_Waal_Energy-OPLS-2005>
143.387924194336

> <r_mmod_Electrostatic_Energy-OPLS-2005>
-482.837768554688

> <r_mmod_Solvation_Energy-OPLS-2005>
-231.045745849609

> <b_mmod_Minimization_Converged-OPLS-2005>
0

> <r_mmod_RMS_Derivative-OPLS-2005>
3.52635622024536

$$$$
39
                    3D
 Structure written by MMmdl.
157166  0  0  1  0            999 V2000
  -30.5773  -14.7669   20.4736 C   0  0  0  0  0  0
  -30.4485  -12.4672   19.4860 C   0  0  0  0  0  0
  -29.5250  -12.5133   18.2457 C   0  0  0  0  0  0
  -28.0495  -12.3298   18.6539 C   0  0  0  0  0  0
  -27.6491  -13.2248   19.8573 C   0  0  2  0  0  0
  -28.6900  -13.1447   20.9968 C   0  0  0  0  0  0
  -25.2558  -13.8180   20.5672 C   0  0  0  0  0  0
  -24.1838  -13.0444   20.9190 C   0  0  0  0  0  0
  -24.6411  -11.6913   20.8744 C   0  0  0  0  0  0
  -23.9078  -10.4302   21.0420 C   0  0  0  0  0  0
  -24.3625   -9.4216   21.9196 C   0  0  0  0  0  0
  -23.6302   -8.2248   22.0760 C   0  0  0  0  0  0
  -22.4280   -8.0290   21.3545 C   0  0  0  0  0  0
  -21.9924   -9.0265   20.4644 C   0  0  0  0  0  0
  -22.7254  -10.2146   20.3062 C   0  0  0  0  0  0
  -21.6858   -6.0744   22.5280 C   0  0  0  0  0  0
  -21.4014   -6.5645   23.8216 C   0  0  0  0  0  0
  -21.3660   -5.6793   24.9178 C   0  0  0  0  0  0
  -21.6043   -4.3056   24.7227 C   0  0  0  0  0  0
  -21.8820   -3.8153   23.4346 C   0  0  0  0  0  0
  -21.9190   -4.6972   22.3405 C   0  0  0  0  0  0
  -22.7861  -13.5240   21.1846 C   0  0  0  0  0  0
  -22.1662   -4.2156   21.0982 F   0  0  0  0  0  0
  -21.5629   -3.4539   25.7741 F   0  0  0  0  0  0
  -29.9943  -13.5163   20.4284 N   0  0  0  0  0  0
  -26.2977  -12.9367   20.3276 N   0  0  0  0  0  0
  -25.9342  -11.6517   20.5746 N   0  0  0  0  0  0
  -22.0487  -12.8235   22.0395 N   0  0  0  0  0  0
  -25.4268  -15.1904   20.4090 N   0  0  0  0  0  0
  -31.7443  -14.9186   20.0987 O   0  0  0  0  0  0
  -21.6641   -6.8889   21.4244 O   0  0  0  0  0  0
  -22.3557  -14.5551   20.6702 O   0  0  0  0  0  0
  -24.6349  -31.8539   23.2010 C   0  0  0  0  0  0
  -25.9173  -32.4750   23.8343 C   0  0  1  0  0  0
  -27.2124  -27.2374   20.1100 C   0  0  0  0  0  0
  -25.5970  -33.8554   24.2277 N   0  0  0  0  0  0
  -23.4309  -30.4809   21.5437 C   0  0  2  0  0  0
  -24.8772  -28.9324   20.1091 C   0  0  0  0  0  0
  -22.7517  -29.4600   22.4890 C   0  0  0  0  0  0
  -18.0292  -28.1405   22.8487 C   0  0  0  0  0  0
  -24.1490  -36.7278   23.2629 C   0  0  0  0  0  0
  -25.9820  -30.7584   21.3864 C   0  0  0  0  0  0
  -26.0529  -29.3797   20.7253 C   0  0  0  0  0  0
  -27.2208  -28.5432   20.7194 C   0  0  0  0  0  0
  -26.0167  -26.8893   19.4366 C   0  0  0  0  0  0
  -24.8658  -27.6962   19.4549 C   0  0  0  0  0  0
  -23.6517  -29.8236   20.1582 C   0  0  0  0  0  0
  -25.4116  -36.3063   24.0317 C   0  0  1  0  0  0
  -20.5902  -28.3715   23.1263 C   0  0  2  0  0  0
  -20.6777  -26.9433   22.5403 C   0  0  0  0  0  0
  -19.5751  -26.6404   21.5204 C   0  0  0  0  0  0
  -18.1934  -26.7950   22.1629 C   0  0  0  0  0  0
  -19.1546  -28.8881   23.2869 C   0  0  0  0  0  0
  -18.9457  -30.1476   23.8899 C   0  0  0  0  0  0
  -17.6454  -30.6597   24.0574 C   0  0  0  0  0  0
  -25.9059  -34.9433   23.5092 C   0  0  0  0  0  0
  -16.5349  -29.9096   23.6342 C   0  0  0  0  0  0
  -16.7280  -28.6521   23.0356 C   0  0  0  0  0  0
  -26.4525  -31.6560   25.0721 C   0  0  0  0  0  0
  -25.3745  -31.3708   26.1432 C   0  0  0  0  0  0
  -27.0345  -30.2967   24.6206 C   0  0  0  0  0  0
  -27.6090  -32.4275   25.7504 C   0  0  0  0  0  0
  -27.5580  -37.1794   24.8468 C   0  0  0  0  0  0
  -21.4221  -29.3054   22.3646 N   0  0  0  0  0  0
  -26.4296  -37.3763   23.9402 N   0  0  0  0  0  0
  -24.7023  -31.0484   22.1005 N   0  0  0  0  0  0
  -23.4212  -28.8129   23.2983 O   0  0  0  0  0  0
  -28.2805  -26.2968   20.1860 O   0  0  0  0  0  0
  -26.5612  -34.8898   22.4646 O   0  0  0  0  0  0
  -23.5494  -32.1369   23.7284 O   0  0  0  0  0  0
  -30.7193  -18.0733   19.9831 C   0  0  0  0  0  0
  -29.8496  -17.2413   20.6767 C   0  0  0  0  0  0
  -29.4568  -19.8574   20.8646 C   0  0  0  0  0  0
  -28.9608  -23.6316   20.2439 C   0  0  0  0  0  0
  -29.6388  -22.9290   23.4129 C   0  0  0  0  0  0
  -28.0913  -23.0771   23.3838 C   0  0  0  0  0  0
  -30.1688  -21.7059   22.6169 C   0  0  0  0  0  0
  -27.4369  -22.8980   21.9773 C   0  0  0  0  0  0
  -29.1667  -21.2714   21.5322 C   0  0  2  0  0  0
  -28.0315  -24.8638   19.7493 C   0  0  0  0  0  0
  -30.4977  -19.4898   20.0904 N   0  0  0  0  0  0
  -28.4616  -22.5390   20.9648 N   0  0  0  0  0  0
  -29.7577  -15.8380   20.8081 N   0  0  0  0  0  0
  -30.1392  -23.6358   19.8743 O   0  0  0  0  0  0
  -28.6637  -18.3372   21.4428 S   0  0  0  0  0  0
  -31.4886  -12.6090   19.1881 H   0  0  0  0  0  0
  -30.4056  -11.4863   19.9638 H   0  0  0  0  0  0
  -29.8160  -11.7401   17.5334 H   0  0  0  0  0  0
  -29.6468  -13.4668   17.7293 H   0  0  0  0  0  0
  -27.9118  -11.2805   18.9167 H   0  0  0  0  0  0
  -27.3944  -12.5197   17.8035 H   0  0  0  0  0  0
  -27.6472  -14.2482   19.4827 H   0  0  0  0  0  0
  -28.7292  -12.1392   21.4183 H   0  0  0  0  0  0
  -28.4110  -13.8024   21.8215 H   0  0  0  0  0  0
  -25.2775   -9.5691   22.4768 H   0  0  0  0  0  0
  -24.0010   -7.4641   22.7486 H   0  0  0  0  0  0
  -21.0849   -8.8794   19.8949 H   0  0  0  0  0  0
  -22.3723  -10.9688   19.6167 H   0  0  0  0  0  0
  -21.2006   -7.6151   23.9721 H   0  0  0  0  0  0
  -21.1479   -6.0524   25.9080 H   0  0  0  0  0  0
  -22.0595   -2.7613   23.2846 H   0  0  0  0  0  0
  -22.4093  -11.9898   22.4795 H   0  0  0  0  0  0
  -21.1099  -13.1273   22.2571 H   0  0  0  0  0  0
  -24.6562  -15.8419   20.5105 H   0  0  0  0  0  0
  -26.2679  -15.6267   20.0545 H   0  0  0  0  0  0
  -26.7230  -32.5388   23.1069 H   0  0  0  0  0  0
  -25.0143  -33.9697   25.0442 H   0  0  0  0  0  0
  -22.7278  -31.3039   21.4003 H   0  0  0  0  0  0
  -23.3752  -35.9611   23.3288 H   0  0  0  0  0  0
  -24.3586  -36.8904   22.2047 H   0  0  0  0  0  0
  -23.7246  -37.6476   23.6659 H   0  0  0  0  0  0
  -26.1210  -31.5194   20.6177 H   0  0  0  0  0  0
  -26.8613  -30.8086   22.0164 H   0  0  0  0  0  0
  -28.1179  -28.8783   21.2211 H   0  0  0  0  0  0
  -25.9186  -25.9725   18.8777 H   0  0  0  0  0  0
  -23.9709  -27.3595   18.9498 H   0  0  0  0  0  0
  -23.7832  -30.6037   19.4069 H   0  0  0  0  0  0
  -22.7688  -29.2614   19.8490 H   0  0  0  0  0  0
  -25.1296  -36.1908   25.0811 H   0  0  0  0  0  0
  -20.9988  -28.3294   24.1387 H   0  0  0  0  0  0
  -20.5668  -26.2329   23.3605 H   0  0  0  0  0  0
  -21.6640  -26.7444   22.1202 H   0  0  0  0  0  0
  -19.6905  -25.6310   21.1247 H   0  0  0  0  0  0
  -19.6695  -27.3202   20.6720 H   0  0  0  0  0  0
  -17.4203  -26.6694   21.4040 H   0  0  0  0  0  0
  -18.0348  -26.0085   22.9020 H   0  0  0  0  0  0
  -19.7925  -30.7295   24.2278 H   0  0  0  0  0  0
  -17.5003  -31.6277   24.5169 H   0  0  0  0  0  0
  -15.5353  -30.3001   23.7655 H   0  0  0  0  0  0
  -15.8678  -28.0839   22.7075 H   0  0  0  0  0  0
  -24.5974  -30.6989   25.7776 H   0  0  0  0  0  0
  -24.8866  -32.2858   26.4800 H   0  0  0  0  0  0
  -25.8071  -30.8955   27.0243 H   0  0  0  0  0  0
  -26.2924  -29.6745   24.1195 H   0  0  0  0  0  0
  -27.3959  -29.7205   25.4732 H   0  0  0  0  0  0
  -27.8841  -30.4208   23.9489 H   0  0  0  0  0  0
  -27.2737  -33.3597   26.2058 H   0  0  0  0  0  0
  -28.3937  -32.6784   25.0357 H   0  0  0  0  0  0
  -28.0706  -31.8389   26.5438 H   0  0  0  0  0  0
  -28.2592  -38.0094   24.7509 H   0  0  0  0  0  0
  -28.1078  -36.2626   24.6308 H   0  0  0  0  0  0
  -27.2288  -37.1455   25.8866 H   0  0  0  0  0  0
  -20.9403  -29.8803   21.6878 H   0  0  0  0  0  0
  -26.0166  -38.2829   24.1420 H   0  0  0  0  0  0
  -31.5543  -17.7431   19.3794 H   0  0  0  0  0  0
  -29.9939  -22.8904   24.4439 H   0  0  0  0  0  0
  -30.0795  -23.8330   22.9900 H   0  0  0  0  0  0
  -27.8209  -24.0533   23.7890 H   0  0  0  0  0  0
  -27.6539  -22.3484   24.0678 H   0  0  0  0  0  0
  -30.3432  -20.8747   23.3011 H   0  0  0  0  0  0
  -31.1344  -21.9371   22.1666 H   0  0  0  0  0  0
  -26.8645  -23.7994   21.7755 H   0  0  0  0  0  0
  -26.6693  -22.1223   22.0083 H   0  0  0  0  0  0
  -28.3891  -20.8551   22.1720 H   0  0  0  0  0  0
  -28.1409  -24.8775   18.6644 H   0  0  0  0  0  0
  -26.9998  -24.5605   19.8936 H   0  0  0  0  0  0
  -28.8750  -15.5243   21.1811 H   0  0  0  0  0  0
  1 25  1  0  0  0
  1 30  2  0  0  0
  1 83  1  0  0  0
  2  3  1  0  0  0
  2 25  1  0  0  0
  2 86  1  0  0  0
  2 87  1  0  0  0
  3  4  1  0  0  0
  3 88  1  0  0  0
  3 89  1  0  0  0
  4  5  1  0  0  0
  4 90  1  0  0  0
  4 91  1  0  0  0
  5  6  1  0  0  0
  5 26  1  0  0  0
  5 92  1  0  0  0
  6 25  1  0  0  0
  6 93  1  0  0  0
  6 94  1  0  0  0
  7  8  2  0  0  0
  7 26  1  0  0  0
  7 29  1  0  0  0
  8  9  1  0  0  0
  8 22  1  0  0  0
  9 10  1  0  0  0
  9 27  2  0  0  0
 10 11  2  0  0  0
 10 15  1  0  0  0
 11 12  1  0  0  0
 11 95  1  0  0  0
 12 13  2  0  0  0
 12 96  1  0  0  0
 13 14  1  0  0  0
 13 31  1  0  0  0
 14 15  2  0  0  0
 14 97  1  0  0  0
 15 98  1  0  0  0
 16 17  2  0  0  0
 16 21  1  0  0  0
 16 31  1  0  0  0
 17 18  1  0  0  0
 17 99  1  0  0  0
 18 19  2  0  0  0
 18100  1  0  0  0
 19 20  1  0  0  0
 19 24  1  0  0  0
 20 21  2  0  0  0
 20101  1  0  0  0
 21 23  1  0  0  0
 22 28  1  0  0  0
 22 32  2  0  0  0
 26 27  1  0  0  0
 28102  1  0  0  0
 28103  1  0  0  0
 29104  1  0  0  0
 29105  1  0  0  0
 33 34  1  0  0  0
 33 66  1  0  0  0
 33 70  2  0  0  0
 34 36  1  0  0  0
 34 59  1  0  0  0
 34106  1  0  0  0
 35 44  2  0  0  0
 35 45  1  0  0  0
 35 68  1  0  0  0
 36 56  1  0  0  0
 36107  1  0  0  0
 37 39  1  0  0  0
 37 47  1  0  0  0
 37 66  1  0  0  0
 37108  1  0  0  0
 38 43  2  0  0  0
 38 46  1  0  0  0
 38 47  1  0  0  0
 39 64  1  0  0  0
 39 67  2  0  0  0
 40 52  1  0  0  0
 40 53  2  0  0  0
 40 58  1  0  0  0
 41109  1  0  0  0
 41110  1  0  0  0
 41111  1  0  0  0
 41 48  1  0  0  0
 42 43  1  0  0  0
 42 66  1  0  0  0
 42112  1  0  0  0
 42113  1  0  0  0
 43 44  1  0  0  0
 44114  1  0  0  0
 45 46  2  0  0  0
 45115  1  0  0  0
 46116  1  0  0  0
 47117  1  0  0  0
 47118  1  0  0  0
 48 56  1  0  0  0
 48 65  1  0  0  0
 48119  1  0  0  0
 49 50  1  0  0  0
 49 53  1  0  0  0
 49 64  1  0  0  0
 49120  1  0  0  0
 50 51  1  0  0  0
 50121  1  0  0  0
 50122  1  0  0  0
 51 52  1  0  0  0
 51123  1  0  0  0
 51124  1  0  0  0
 52125  1  0  0  0
 52126  1  0  0  0
 53 54  1  0  0  0
 54 55  2  0  0  0
 54127  1  0  0  0
 55 57  1  0  0  0
 55128  1  0  0  0
 56 69  2  0  0  0
 57 58  2  0  0  0
 57129  1  0  0  0
 58130  1  0  0  0
 59 60  1  0  0  0
 59 61  1  0  0  0
 59 62  1  0  0  0
 60131  1  0  0  0
 60132  1  0  0  0
 60133  1  0  0  0
 61134  1  0  0  0
 61135  1  0  0  0
 61136  1  0  0  0
 62137  1  0  0  0
 62138  1  0  0  0
 62139  1  0  0  0
 63 65  1  0  0  0
 63140  1  0  0  0
 63141  1  0  0  0
 63142  1  0  0  0
 64143  1  0  0  0
 65144  1  0  0  0
 68 80  1  0  0  0
 71 72  2  0  0  0
 71 81  1  0  0  0
 71145  1  0  0  0
 72 83  1  0  0  0
 72 85  1  0  0  0
 73 81  2  0  0  0
 73 85  1  0  0  0
 73 79  1  0  0  0
 74 80  1  0  0  0
 74 82  1  0  0  0
 74 84  2  0  0  0
 75 76  1  0  0  0
 75 77  1  0  0  0
 75146  1  0  0  0
 75147  1  0  0  0
 76 78  1  0  0  0
 76148  1  0  0  0
 76149  1  0  0  0
 77 79  1  0  0  0
 77150  1  0  0  0
 77151  1  0  0  0
 78 82  1  0  0  0
 78152  1  0  0  0
 78153  1  0  0  0
 79 82  1  0  0  0
 79154  1  0  0  0
 80155  1  0  0  0
 80156  1  0  0  0
 83157  1  0  0  0
M  ISO  4   1 100  68 101  80 101  83 100
M  END
> <chiral flag>
0

> <version>
0

> <s_m_source_file>
/data/baiqing/PycharmProjects/Reinvent-master-3.2/result/LINK_invent/BTK/process_docking_weight1_custom_product_contain_oxygen_bond_distance_aromatic_linkinvent_7_9_3/rearranged_h_0160.sdf

> <i_m_source_file_index>
39

> <r_mmod_Potential_Energy-OPLS-2005>
370.16357421875

> <r_mmod_Stretch_Energy-OPLS-2005>
142.985107421875

> <r_mmod_Bend_Energy-OPLS-2005>
271.227508544922

> <r_mmod_Torsional_Energy-OPLS-2005>
280.096038818359

> <r_mmod_Improper_Torsional_Energy-OPLS-2005>
11.1345338821411

> <r_mmod_Van_der_Waal_Energy-OPLS-2005>
151.032150268555

> <r_mmod_Electrostatic_Energy-OPLS-2005>
-337.886505126953

> <r_mmod_Solvation_Energy-OPLS-2005>
-248.960861206055

> <b_mmod_Minimization_Converged-OPLS-2005>
0

> <r_mmod_RMS_Derivative-OPLS-2005>
1.84946620464325

$$$$
40
                    3D
 Structure written by MMmdl.
157166  0  0  1  0            999 V2000
  -30.5707  -14.7659   20.5134 C   0  0  0  0  0  0
  -30.4466  -12.4732   19.4913 C   0  0  0  0  0  0
  -29.5282  -12.5366   18.2486 C   0  0  0  0  0  0
  -28.0502  -12.3566   18.6442 C   0  0  0  0  0  0
  -27.6537  -13.2297   19.8640 C   0  0  2  0  0  0
  -28.6903  -13.1275   21.0062 C   0  0  0  0  0  0
  -25.2532  -13.8173   20.5636 C   0  0  0  0  0  0
  -24.1821  -13.0415   20.9158 C   0  0  0  0  0  0
  -24.6404  -11.6893   20.8722 C   0  0  0  0  0  0
  -23.9060  -10.4276   21.0399 C   0  0  0  0  0  0
  -24.3617   -9.4186   21.9185 C   0  0  0  0  0  0
  -23.6295   -8.2207   22.0752 C   0  0  0  0  0  0
  -22.4279   -8.0272   21.3545 C   0  0  0  0  0  0
  -21.9911   -9.0238   20.4628 C   0  0  0  0  0  0
  -22.7234  -10.2108   20.3029 C   0  0  0  0  0  0
  -21.6842   -6.0715   22.5297 C   0  0  0  0  0  0
  -21.4008   -6.5629   23.8230 C   0  0  0  0  0  0
  -21.3658   -5.6785   24.9200 C   0  0  0  0  0  0
  -21.6069   -4.3039   24.7241 C   0  0  0  0  0  0
  -21.8819   -3.8130   23.4354 C   0  0  0  0  0  0
  -21.9182   -4.6951   22.3407 C   0  0  0  0  0  0
  -22.7846  -13.5193   21.1823 C   0  0  0  0  0  0
  -22.1651   -4.2133   21.0984 F   0  0  0  0  0  0
  -21.5636   -3.4521   25.7750 F   0  0  0  0  0  0
  -29.9951  -13.5110   20.4545 N   0  0  0  0  0  0
  -26.2993  -12.9386   20.3280 N   0  0  0  0  0  0
  -25.9351  -11.6517   20.5716 N   0  0  0  0  0  0
  -22.0473  -12.8218   22.0392 N   0  0  0  0  0  0
  -25.4182  -15.1901   20.4034 N   0  0  0  0  0  0
  -31.7158  -14.9244   20.0719 O   0  0  0  0  0  0
  -21.6616   -6.8896   21.4278 O   0  0  0  0  0  0
  -22.3546  -14.5494   20.6657 O   0  0  0  0  0  0
  -24.6360  -31.8549   23.2000 C   0  0  0  0  0  0
  -25.9208  -32.4737   23.8345 C   0  0  1  0  0  0
  -27.1968  -27.2172   20.1692 C   0  0  0  0  0  0
  -25.5998  -33.8530   24.2269 N   0  0  0  0  0  0
  -23.4321  -30.4839   21.5394 C   0  0  2  0  0  0
  -24.8772  -28.9270   20.1116 C   0  0  0  0  0  0
  -22.7507  -29.4641   22.4855 C   0  0  0  0  0  0
  -18.0292  -28.1387   22.8455 C   0  0  0  0  0  0
  -24.1505  -36.7246   23.2647 C   0  0  0  0  0  0
  -25.9835  -30.7611   21.3838 C   0  0  0  0  0  0
  -26.0550  -29.3811   20.7232 C   0  0  0  0  0  0
  -27.2182  -28.5427   20.7344 C   0  0  0  0  0  0
  -26.0028  -26.8550   19.5002 C   0  0  0  0  0  0
  -24.8593  -27.6735   19.4883 C   0  0  0  0  0  0
  -23.6575  -29.8278   20.1527 C   0  0  0  0  0  0
  -25.4130  -36.3038   24.0335 C   0  0  1  0  0  0
  -20.5900  -28.3732   23.1201 C   0  0  2  0  0  0
  -20.6770  -26.9446   22.5371 C   0  0  0  0  0  0
  -19.5760  -26.6383   21.5165 C   0  0  0  0  0  0
  -18.1942  -26.7928   22.1578 C   0  0  0  0  0  0
  -19.1548  -28.8858   23.2824 C   0  0  0  0  0  0
  -18.9480  -30.1454   23.8877 C   0  0  0  0  0  0
  -17.6486  -30.6585   24.0548 C   0  0  0  0  0  0
  -25.9084  -34.9422   23.5088 C   0  0  0  0  0  0
  -16.5376  -29.9091   23.6330 C   0  0  0  0  0  0
  -16.7277  -28.6499   23.0360 C   0  0  0  0  0  0
  -26.4573  -31.6551   25.0744 C   0  0  0  0  0  0
  -25.3804  -31.3680   26.1464 C   0  0  0  0  0  0
  -27.0412  -30.2949   24.6270 C   0  0  0  0  0  0
  -27.6138  -32.4270   25.7509 C   0  0  0  0  0  0
  -27.5570  -37.1784   24.8467 C   0  0  0  0  0  0
  -21.4215  -29.3074   22.3568 N   0  0  0  0  0  0
  -26.4285  -37.3749   23.9425 N   0  0  0  0  0  0
  -24.7024  -31.0506   22.0979 N   0  0  0  0  0  0
  -23.4182  -28.8196   23.2971 O   0  0  0  0  0  0
  -28.2306  -26.2488   20.3087 O   0  0  0  0  0  0
  -26.5616  -34.8883   22.4650 O   0  0  0  0  0  0
  -23.5501  -32.1380   23.7289 O   0  0  0  0  0  0
  -29.6244  -17.6693   19.3003 C   0  0  0  0  0  0
  -29.7162  -17.2680   20.6137 C   0  0  0  0  0  0
  -29.2418  -19.6336   20.8681 C   0  0  0  0  0  0
  -28.7598  -23.5925   20.8332 C   0  0  0  0  0  0
  -26.8331  -20.6361   22.7853 C   0  0  0  0  0  0
  -26.1783  -21.7001   21.8824 C   0  0  0  0  0  0
  -28.3460  -20.8983   22.9513 C   0  0  0  0  0  0
  -26.9649  -21.8609   20.5598 C   0  0  0  0  0  0
  -29.0760  -21.0592   21.5841 C   0  0  2  0  0  0
  -27.8450  -24.7748   20.2020 C   0  0  0  0  0  0
  -29.4930  -18.4132   21.4735 N   0  0  0  0  0  0
  -28.3613  -22.2365   20.8643 N   0  0  0  0  0  0
  -29.8202  -15.8329   21.0103 N   0  0  0  0  0  0
  -29.8521  -23.9222   21.3079 O   0  0  0  0  0  0
  -29.2494  -19.3907   19.1163 S   0  0  0  0  0  0
  -31.4896  -12.6112   19.2006 H   0  0  0  0  0  0
  -30.3977  -11.4821   19.9455 H   0  0  0  0  0  0
  -29.8217  -11.7768   17.5235 H   0  0  0  0  0  0
  -29.6590  -13.4974   17.7506 H   0  0  0  0  0  0
  -27.8885  -11.3026   18.8749 H   0  0  0  0  0  0
  -27.4015  -12.5829   17.7984 H   0  0  0  0  0  0
  -27.6588  -14.2605   19.5074 H   0  0  0  0  0  0
  -28.7358  -12.1076   21.3926 H   0  0  0  0  0  0
  -28.4081  -13.7557   21.8495 H   0  0  0  0  0  0
  -25.2778   -9.5667   22.4737 H   0  0  0  0  0  0
  -24.0013   -7.4582   22.7451 H   0  0  0  0  0  0
  -21.0837   -8.8738   19.8937 H   0  0  0  0  0  0
  -22.3713  -10.9628   19.6097 H   0  0  0  0  0  0
  -21.1994   -7.6148   23.9741 H   0  0  0  0  0  0
  -21.1497   -6.0503   25.9113 H   0  0  0  0  0  0
  -22.0599   -2.7587   23.2830 H   0  0  0  0  0  0
  -22.4087  -11.9897   22.4818 H   0  0  0  0  0  0
  -21.1085  -13.1288   22.2523 H   0  0  0  0  0  0
  -24.6359  -15.8310   20.4888 H   0  0  0  0  0  0
  -26.2576  -15.6333   20.0538 H   0  0  0  0  0  0
  -26.7285  -32.5359   23.1068 H   0  0  0  0  0  0
  -25.0214  -33.9658   25.0457 H   0  0  0  0  0  0
  -22.7328  -31.3104   21.3957 H   0  0  0  0  0  0
  -23.3755  -35.9590   23.3329 H   0  0  0  0  0  0
  -24.3586  -36.8844   22.2057 H   0  0  0  0  0  0
  -23.7255  -37.6461   23.6644 H   0  0  0  0  0  0
  -26.1298  -31.5234   20.6158 H   0  0  0  0  0  0
  -26.8570  -30.8023   22.0256 H   0  0  0  0  0  0
  -28.1115  -28.8800   21.2447 H   0  0  0  0  0  0
  -25.9024  -25.8970   19.0155 H   0  0  0  0  0  0
  -23.9532  -27.3155   19.0174 H   0  0  0  0  0  0
  -23.8106  -30.6121   19.4093 H   0  0  0  0  0  0
  -22.7689  -29.2851   19.8273 H   0  0  0  0  0  0
  -25.1307  -36.1882   25.0822 H   0  0  0  0  0  0
  -20.9994  -28.3337   24.1318 H   0  0  0  0  0  0
  -20.5624  -26.2384   23.3602 H   0  0  0  0  0  0
  -21.6654  -26.7446   22.1214 H   0  0  0  0  0  0
  -19.6952  -25.6278   21.1233 H   0  0  0  0  0  0
  -19.6698  -27.3156   20.6668 H   0  0  0  0  0  0
  -17.4218  -26.6647   21.3985 H   0  0  0  0  0  0
  -18.0384  -26.0073   22.8984 H   0  0  0  0  0  0
  -19.7975  -30.7227   24.2267 H   0  0  0  0  0  0
  -17.5075  -31.6268   24.5157 H   0  0  0  0  0  0
  -15.5379  -30.3003   23.7668 H   0  0  0  0  0  0
  -15.8677  -28.0799   22.7120 H   0  0  0  0  0  0
  -24.6017  -30.6986   25.7782 H   0  0  0  0  0  0
  -24.8946  -32.2827   26.4872 H   0  0  0  0  0  0
  -25.8147  -30.8879   27.0250 H   0  0  0  0  0  0
  -26.2997  -29.6654   24.1336 H   0  0  0  0  0  0
  -27.4101  -29.7257   25.4816 H   0  0  0  0  0  0
  -27.8885  -30.4153   23.9512 H   0  0  0  0  0  0
  -27.2788  -33.3593   26.2042 H   0  0  0  0  0  0
  -28.3980  -32.6772   25.0359 H   0  0  0  0  0  0
  -28.0790  -31.8424   26.5450 H   0  0  0  0  0  0
  -28.2590  -38.0078   24.7511 H   0  0  0  0  0  0
  -28.1058  -36.2602   24.6300 H   0  0  0  0  0  0
  -27.2287  -37.1450   25.8870 H   0  0  0  0  0  0
  -20.9426  -29.8780   21.6740 H   0  0  0  0  0  0
  -26.0146  -38.2823   24.1419 H   0  0  0  0  0  0
  -29.7001  -17.0535   18.4134 H   0  0  0  0  0  0
  -26.6763  -19.6455   22.3529 H   0  0  0  0  0  0
  -26.3346  -20.6094   23.7568 H   0  0  0  0  0  0
  -26.1395  -22.6526   22.4133 H   0  0  0  0  0  0
  -25.1406  -21.4231   21.6847 H   0  0  0  0  0  0
  -28.8102  -20.1057   23.5430 H   0  0  0  0  0  0
  -28.4766  -21.8023   23.5487 H   0  0  0  0  0  0
  -26.4625  -22.5712   19.9030 H   0  0  0  0  0  0
  -26.9343  -20.9204   20.0115 H   0  0  0  0  0  0
  -30.0934  -21.3871   21.8048 H   0  0  0  0  0  0
  -26.8632  -24.6561   20.6624 H   0  0  0  0  0  0
  -27.7331  -24.5424   19.1402 H   0  0  0  0  0  0
  -29.0692  -15.5263   21.6119 H   0  0  0  0  0  0
  1 25  1  0  0  0
  1 30  2  0  0  0
  1 83  1  0  0  0
  2  3  1  0  0  0
  2 25  1  0  0  0
  2 86  1  0  0  0
  2 87  1  0  0  0
  3  4  1  0  0  0
  3 88  1  0  0  0
  3 89  1  0  0  0
  4  5  1  0  0  0
  4 90  1  0  0  0
  4 91  1  0  0  0
  5  6  1  0  0  0
  5 26  1  0  0  0
  5 92  1  0  0  0
  6 25  1  0  0  0
  6 93  1  0  0  0
  6 94  1  0  0  0
  7  8  2  0  0  0
  7 26  1  0  0  0
  7 29  1  0  0  0
  8  9  1  0  0  0
  8 22  1  0  0  0
  9 10  1  0  0  0
  9 27  2  0  0  0
 10 11  2  0  0  0
 10 15  1  0  0  0
 11 12  1  0  0  0
 11 95  1  0  0  0
 12 13  2  0  0  0
 12 96  1  0  0  0
 13 14  1  0  0  0
 13 31  1  0  0  0
 14 15  2  0  0  0
 14 97  1  0  0  0
 15 98  1  0  0  0
 16 17  2  0  0  0
 16 21  1  0  0  0
 16 31  1  0  0  0
 17 18  1  0  0  0
 17 99  1  0  0  0
 18 19  2  0  0  0
 18100  1  0  0  0
 19 20  1  0  0  0
 19 24  1  0  0  0
 20 21  2  0  0  0
 20101  1  0  0  0
 21 23  1  0  0  0
 22 28  1  0  0  0
 22 32  2  0  0  0
 26 27  1  0  0  0
 28102  1  0  0  0
 28103  1  0  0  0
 29104  1  0  0  0
 29105  1  0  0  0
 33 34  1  0  0  0
 33 66  1  0  0  0
 33 70  2  0  0  0
 34 36  1  0  0  0
 34 59  1  0  0  0
 34106  1  0  0  0
 35 44  2  0  0  0
 35 45  1  0  0  0
 35 68  1  0  0  0
 36 56  1  0  0  0
 36107  1  0  0  0
 37 39  1  0  0  0
 37 47  1  0  0  0
 37 66  1  0  0  0
 37108  1  0  0  0
 38 43  2  0  0  0
 38 46  1  0  0  0
 38 47  1  0  0  0
 39 64  1  0  0  0
 39 67  2  0  0  0
 40 52  1  0  0  0
 40 53  2  0  0  0
 40 58  1  0  0  0
 41109  1  0  0  0
 41110  1  0  0  0
 41111  1  0  0  0
 41 48  1  0  0  0
 42 43  1  0  0  0
 42 66  1  0  0  0
 42112  1  0  0  0
 42113  1  0  0  0
 43 44  1  0  0  0
 44114  1  0  0  0
 45 46  2  0  0  0
 45115  1  0  0  0
 46116  1  0  0  0
 47117  1  0  0  0
 47118  1  0  0  0
 48 56  1  0  0  0
 48 65  1  0  0  0
 48119  1  0  0  0
 49 50  1  0  0  0
 49 53  1  0  0  0
 49 64  1  0  0  0
 49120  1  0  0  0
 50 51  1  0  0  0
 50121  1  0  0  0
 50122  1  0  0  0
 51 52  1  0  0  0
 51123  1  0  0  0
 51124  1  0  0  0
 52125  1  0  0  0
 52126  1  0  0  0
 53 54  1  0  0  0
 54 55  2  0  0  0
 54127  1  0  0  0
 55 57  1  0  0  0
 55128  1  0  0  0
 56 69  2  0  0  0
 57 58  2  0  0  0
 57129  1  0  0  0
 58130  1  0  0  0
 59 60  1  0  0  0
 59 61  1  0  0  0
 59 62  1  0  0  0
 60131  1  0  0  0
 60132  1  0  0  0
 60133  1  0  0  0
 61134  1  0  0  0
 61135  1  0  0  0
 61136  1  0  0  0
 62137  1  0  0  0
 62138  1  0  0  0
 62139  1  0  0  0
 63 65  1  0  0  0
 63140  1  0  0  0
 63141  1  0  0  0
 63142  1  0  0  0
 64143  1  0  0  0
 65144  1  0  0  0
 68 80  1  0  0  0
 71 72  2  0  0  0
 71 85  1  0  0  0
 71145  1  0  0  0
 72 81  1  0  0  0
 72 83  1  0  0  0
 73 81  2  0  0  0
 73 85  1  0  0  0
 73 79  1  0  0  0
 74 80  1  0  0  0
 74 82  1  0  0  0
 74 84  2  0  0  0
 75 76  1  0  0  0
 75 77  1  0  0  0
 75146  1  0  0  0
 75147  1  0  0  0
 76 78  1  0  0  0
 76148  1  0  0  0
 76149  1  0  0  0
 77 79  1  0  0  0
 77150  1  0  0  0
 77151  1  0  0  0
 78 82  1  0  0  0
 78152  1  0  0  0
 78153  1  0  0  0
 79 82  1  0  0  0
 79154  1  0  0  0
 80155  1  0  0  0
 80156  1  0  0  0
 83157  1  0  0  0
M  ISO  4   1 100  68 101  80 101  83 100
M  END
> <chiral flag>
0

> <version>
0

> <s_m_source_file>
/data/baiqing/PycharmProjects/Reinvent-master-3.2/result/LINK_invent/BTK/process_docking_weight1_custom_product_contain_oxygen_bond_distance_aromatic_linkinvent_7_9_3/rearranged_h_0160.sdf

> <i_m_source_file_index>
40

> <r_mmod_Potential_Energy-OPLS-2005>
289.051544189453

> <r_mmod_Stretch_Energy-OPLS-2005>
158.568832397461

> <r_mmod_Bend_Energy-OPLS-2005>
187.667877197266

> <r_mmod_Torsional_Energy-OPLS-2005>
293.090942382812

> <r_mmod_Improper_Torsional_Energy-OPLS-2005>
5.55309724807739

> <r_mmod_Van_der_Waal_Energy-OPLS-2005>
122.775787353516

> <r_mmod_Electrostatic_Energy-OPLS-2005>
-347.738403320312

> <r_mmod_Solvation_Energy-OPLS-2005>
-243.123794555664

> <b_mmod_Minimization_Converged-OPLS-2005>
0

> <r_mmod_RMS_Derivative-OPLS-2005>
5.09416389465332

$$$$
41
                    3D
 Structure written by MMmdl.
153161  0  0  1  0            999 V2000
  -30.5991  -14.7932   20.4539 C   0  0  0  0  0  0
  -30.4315  -12.4898   19.4737 C   0  0  0  0  0  0
  -29.5085  -12.5065   18.2355 C   0  0  0  0  0  0
  -28.0374  -12.3213   18.6542 C   0  0  0  0  0  0
  -27.6358  -13.2351   19.8422 C   0  0  2  0  0  0
  -28.6802  -13.2014   20.9773 C   0  0  0  0  0  0
  -25.2496  -13.8211   20.5681 C   0  0  0  0  0  0
  -24.1800  -13.0452   20.9229 C   0  0  0  0  0  0
  -24.6394  -11.6929   20.8764 C   0  0  0  0  0  0
  -23.9074  -10.4300   21.0419 C   0  0  0  0  0  0
  -24.3625   -9.4212   21.9193 C   0  0  0  0  0  0
  -23.6301   -8.2245   22.0757 C   0  0  0  0  0  0
  -22.4283   -8.0284   21.3548 C   0  0  0  0  0  0
  -21.9919   -9.0260   20.4652 C   0  0  0  0  0  0
  -22.7246  -10.2141   20.3067 C   0  0  0  0  0  0
  -21.6856   -6.0739   22.5279 C   0  0  0  0  0  0
  -21.4013   -6.5643   23.8212 C   0  0  0  0  0  0
  -21.3658   -5.6796   24.9175 C   0  0  0  0  0  0
  -21.6043   -4.3058   24.7226 C   0  0  0  0  0  0
  -21.8818   -3.8150   23.4347 C   0  0  0  0  0  0
  -21.9193   -4.6966   22.3402 C   0  0  0  0  0  0
  -22.7821  -13.5232   21.1883 C   0  0  0  0  0  0
  -22.1662   -4.2149   21.0980 F   0  0  0  0  0  0
  -21.5628   -3.4541   25.7739 F   0  0  0  0  0  0
  -29.9708  -13.5662   20.3841 N   0  0  0  0  0  0
  -26.2911  -12.9418   20.3247 N   0  0  0  0  0  0
  -25.9321  -11.6559   20.5753 N   0  0  0  0  0  0
  -22.0470  -12.8215   22.0435 N   0  0  0  0  0  0
  -25.4175  -15.1930   20.4042 N   0  0  0  0  0  0
  -31.8007  -14.8650   20.1815 O   0  0  0  0  0  0
  -21.6645   -6.8882   21.4241 O   0  0  0  0  0  0
  -22.3502  -14.5532   20.6722 O   0  0  0  0  0  0
  -24.6337  -31.8522   23.1944 C   0  0  0  0  0  0
  -25.9149  -32.4740   23.8306 C   0  0  1  0  0  0
  -27.2189  -27.2323   20.1463 C   0  0  0  0  0  0
  -25.5934  -33.8542   24.2232 N   0  0  0  0  0  0
  -23.4323  -30.4721   21.5384 C   0  0  2  0  0  0
  -24.8808  -28.9068   20.1165 C   0  0  0  0  0  0
  -22.7516  -29.4587   22.4906 C   0  0  0  0  0  0
  -18.0294  -28.1391   22.8484 C   0  0  0  0  0  0
  -24.1491  -36.7271   23.2642 C   0  0  0  0  0  0
  -25.9799  -30.7573   21.3768 C   0  0  0  0  0  0
  -26.0541  -29.3743   20.7240 C   0  0  0  0  0  0
  -27.2298  -28.5518   20.7208 C   0  0  0  0  0  0
  -26.0240  -26.8301   19.5191 C   0  0  0  0  0  0
  -24.8717  -27.6437   19.5017 C   0  0  0  0  0  0
  -23.6534  -29.7993   20.1576 C   0  0  0  0  0  0
  -25.4120  -36.3059   24.0325 C   0  0  1  0  0  0
  -20.5901  -28.3701   23.1266 C   0  0  2  0  0  0
  -20.6782  -26.9416   22.5411 C   0  0  0  0  0  0
  -19.5759  -26.6384   21.5216 C   0  0  0  0  0  0
  -18.1936  -26.7934   22.1623 C   0  0  0  0  0  0
  -19.1550  -28.8865   23.2868 C   0  0  0  0  0  0
  -18.9470  -30.1465   23.8888 C   0  0  0  0  0  0
  -17.6467  -30.6591   24.0564 C   0  0  0  0  0  0
  -25.9060  -34.9432   23.5082 C   0  0  0  0  0  0
  -16.5358  -29.9088   23.6336 C   0  0  0  0  0  0
  -16.7281  -28.6506   23.0355 C   0  0  0  0  0  0
  -26.4507  -31.6578   25.0709 C   0  0  0  0  0  0
  -25.3721  -31.3745   26.1423 C   0  0  0  0  0  0
  -27.0352  -30.2988   24.6212 C   0  0  0  0  0  0
  -27.6057  -32.4325   25.7481 C   0  0  0  0  0  0
  -27.5579  -37.1790   24.8468 C   0  0  0  0  0  0
  -21.4221  -29.3043   22.3651 N   0  0  0  0  0  0
  -26.4292  -37.3762   23.9410 N   0  0  0  0  0  0
  -24.7012  -31.0461   22.0929 N   0  0  0  0  0  0
  -23.4203  -28.8136   23.3022 O   0  0  0  0  0  0
  -28.3059  -26.3251   20.1293 O   0  0  0  0  0  0
  -26.5640  -34.8916   22.4657 O   0  0  0  0  0  0
  -23.5481  -32.1349   23.7226 O   0  0  0  0  0  0
  -29.8494  -20.1253   20.9290 C   0  0  0  0  0  0
  -29.5191  -18.7771   20.4483 C   0  0  0  0  0  0
  -28.3941  -19.0438   19.6812 C   0  0  0  0  0  0
  -28.9802  -21.0857   20.4097 C   0  0  0  0  0  0
  -27.5122  -18.1376   18.9417 C   0  0  0  0  0  0
  -28.3870  -23.5827   20.0684 C   0  0  0  0  0  0
  -26.4155  -18.7516   18.0836 C   0  0  0  0  0  0
  -30.3454  -17.4095   20.7247 C   0  0  0  0  0  0
  -28.1849  -24.9937   20.8428 C   0  0  0  0  0  0
  -28.9192  -22.4652   20.7175 N   0  0  0  0  0  0
  -29.8460  -15.9559   20.6314 N   0  0  0  0  0  0
  -27.6057  -16.9091   19.0089 O   0  0  0  0  0  0
  -28.0411  -23.5161   18.8853 O   0  0  0  0  0  0
  -28.0838  -20.4094   19.6385 O   0  0  0  0  0  0
  -31.4699  -12.6243   19.1663 H   0  0  0  0  0  0
  -30.3911  -11.5217   19.9751 H   0  0  0  0  0  0
  -29.7999  -11.7220   17.5358 H   0  0  0  0  0  0
  -29.6231  -13.4516   17.7023 H   0  0  0  0  0  0
  -27.9069  -11.2756   18.9348 H   0  0  0  0  0  0
  -27.3759  -12.4924   17.8040 H   0  0  0  0  0  0
  -27.6203  -14.2489   19.4433 H   0  0  0  0  0  0
  -28.7310  -12.2126   21.4357 H   0  0  0  0  0  0
  -28.4078  -13.8975   21.7725 H   0  0  0  0  0  0
  -25.2769   -9.5688   22.4769 H   0  0  0  0  0  0
  -24.0012   -7.4634   22.7473 H   0  0  0  0  0  0
  -21.0851   -8.8780   19.8956 H   0  0  0  0  0  0
  -22.3705  -10.9684   19.6177 H   0  0  0  0  0  0
  -21.2004   -7.6151   23.9716 H   0  0  0  0  0  0
  -21.1480   -6.0527   25.9079 H   0  0  0  0  0  0
  -22.0596   -2.7611   23.2847 H   0  0  0  0  0  0
  -22.4094  -11.9878   22.4820 H   0  0  0  0  0  0
  -21.1086  -13.1233   22.2644 H   0  0  0  0  0  0
  -24.6373  -15.8348   20.4871 H   0  0  0  0  0  0
  -26.2393  -15.6213   19.9871 H   0  0  0  0  0  0
  -26.7211  -32.5381   23.1042 H   0  0  0  0  0  0
  -25.0079  -33.9676   25.0376 H   0  0  0  0  0  0
  -22.7299  -31.2944   21.3873 H   0  0  0  0  0  0
  -23.3757  -35.9599   23.3307 H   0  0  0  0  0  0
  -24.3574  -36.8892   22.2055 H   0  0  0  0  0  0
  -23.7243  -37.6471   23.6665 H   0  0  0  0  0  0
  -26.1204  -31.5146   20.6041 H   0  0  0  0  0  0
  -26.8566  -30.8092   22.0110 H   0  0  0  0  0  0
  -28.1331  -28.9098   21.1944 H   0  0  0  0  0  0
  -25.9781  -25.8581   19.0474 H   0  0  0  0  0  0
  -23.9734  -27.2800   19.0217 H   0  0  0  0  0  0
  -23.7824  -30.5718   19.3987 H   0  0  0  0  0  0
  -22.7711  -29.2343   19.8520 H   0  0  0  0  0  0
  -25.1307  -36.1897   25.0817 H   0  0  0  0  0  0
  -20.9989  -28.3283   24.1388 H   0  0  0  0  0  0
  -20.5682  -26.2315   23.3619 H   0  0  0  0  0  0
  -21.6650  -26.7441   22.1203 H   0  0  0  0  0  0
  -19.6920  -25.6293   21.1250 H   0  0  0  0  0  0
  -19.6698  -27.3192   20.6745 H   0  0  0  0  0  0
  -17.4208  -26.6686   21.4022 H   0  0  0  0  0  0
  -18.0330  -26.0080   22.9021 H   0  0  0  0  0  0
  -19.7947  -30.7282   24.2253 H   0  0  0  0  0  0
  -17.5024  -31.6273   24.5163 H   0  0  0  0  0  0
  -15.5358  -30.2986   23.7668 H   0  0  0  0  0  0
  -15.8680  -28.0821   22.7078 H   0  0  0  0  0  0
  -24.5904  -30.7083   25.7754 H   0  0  0  0  0  0
  -24.8903  -32.2923   26.4807 H   0  0  0  0  0  0
  -25.8028  -30.8954   27.0224 H   0  0  0  0  0  0
  -26.2936  -29.6731   24.1230 H   0  0  0  0  0  0
  -27.4020  -29.7258   25.4737 H   0  0  0  0  0  0
  -27.8820  -30.4254   23.9464 H   0  0  0  0  0  0
  -27.2664  -33.3640   26.2023 H   0  0  0  0  0  0
  -28.3880  -32.6863   25.0315 H   0  0  0  0  0  0
  -28.0708  -31.8472   26.5422 H   0  0  0  0  0  0
  -28.2601  -38.0083   24.7503 H   0  0  0  0  0  0
  -28.1071  -36.2612   24.6308 H   0  0  0  0  0  0
  -27.2294  -37.1451   25.8871 H   0  0  0  0  0  0
  -20.9412  -29.8750   21.6837 H   0  0  0  0  0  0
  -26.0168  -38.2836   24.1410 H   0  0  0  0  0  0
  -30.6704  -20.3631   21.5915 H   0  0  0  0  0  0
  -25.6593  -19.2123   18.7181 H   0  0  0  0  0  0
  -25.9380  -17.9893   17.4693 H   0  0  0  0  0  0
  -26.8337  -19.5147   17.4282 H   0  0  0  0  0  0
  -30.7514  -17.5107   21.7319 H   0  0  0  0  0  0
  -31.2169  -17.4750   20.0720 H   0  0  0  0  0  0
  -28.9119  -25.0173   21.6543 H   0  0  0  0  0  0
  -27.2133  -24.9449   21.3357 H   0  0  0  0  0  0
  -29.3104  -22.6940   21.6209 H   0  0  0  0  0  0
  -28.8490  -15.8271   20.7200 H   0  0  0  0  0  0
  1 25  1  0  0  0
  1 30  2  0  0  0
  1 81  1  0  0  0
  2  3  1  0  0  0
  2 25  1  0  0  0
  2 85  1  0  0  0
  2 86  1  0  0  0
  3  4  1  0  0  0
  3 87  1  0  0  0
  3 88  1  0  0  0
  4  5  1  0  0  0
  4 89  1  0  0  0
  4 90  1  0  0  0
  5  6  1  0  0  0
  5 26  1  0  0  0
  5 91  1  0  0  0
  6 25  1  0  0  0
  6 92  1  0  0  0
  6 93  1  0  0  0
  7  8  2  0  0  0
  7 26  1  0  0  0
  7 29  1  0  0  0
  8  9  1  0  0  0
  8 22  1  0  0  0
  9 10  1  0  0  0
  9 27  2  0  0  0
 10 11  2  0  0  0
 10 15  1  0  0  0
 11 12  1  0  0  0
 11 94  1  0  0  0
 12 13  2  0  0  0
 12 95  1  0  0  0
 13 14  1  0  0  0
 13 31  1  0  0  0
 14 15  2  0  0  0
 14 96  1  0  0  0
 15 97  1  0  0  0
 16 17  2  0  0  0
 16 21  1  0  0  0
 16 31  1  0  0  0
 17 18  1  0  0  0
 17 98  1  0  0  0
 18 19  2  0  0  0
 18 99  1  0  0  0
 19 20  1  0  0  0
 19 24  1  0  0  0
 20 21  2  0  0  0
 20100  1  0  0  0
 21 23  1  0  0  0
 22 28  1  0  0  0
 22 32  2  0  0  0
 26 27  1  0  0  0
 28101  1  0  0  0
 28102  1  0  0  0
 29103  1  0  0  0
 29104  1  0  0  0
 33 34  1  0  0  0
 33 66  1  0  0  0
 33 70  2  0  0  0
 34 36  1  0  0  0
 34 59  1  0  0  0
 34105  1  0  0  0
 35 44  2  0  0  0
 35 45  1  0  0  0
 35 68  1  0  0  0
 36 56  1  0  0  0
 36106  1  0  0  0
 37 39  1  0  0  0
 37 47  1  0  0  0
 37 66  1  0  0  0
 37107  1  0  0  0
 38 43  2  0  0  0
 38 46  1  0  0  0
 38 47  1  0  0  0
 39 64  1  0  0  0
 39 67  2  0  0  0
 40 52  1  0  0  0
 40 53  2  0  0  0
 40 58  1  0  0  0
 41108  1  0  0  0
 41109  1  0  0  0
 41110  1  0  0  0
 41 48  1  0  0  0
 42 43  1  0  0  0
 42 66  1  0  0  0
 42111  1  0  0  0
 42112  1  0  0  0
 43 44  1  0  0  0
 44113  1  0  0  0
 45 46  2  0  0  0
 45114  1  0  0  0
 46115  1  0  0  0
 47116  1  0  0  0
 47117  1  0  0  0
 48 56  1  0  0  0
 48 65  1  0  0  0
 48118  1  0  0  0
 49 50  1  0  0  0
 49 53  1  0  0  0
 49 64  1  0  0  0
 49119  1  0  0  0
 50 51  1  0  0  0
 50120  1  0  0  0
 50121  1  0  0  0
 51 52  1  0  0  0
 51122  1  0  0  0
 51123  1  0  0  0
 52124  1  0  0  0
 52125  1  0  0  0
 53 54  1  0  0  0
 54 55  2  0  0  0
 54126  1  0  0  0
 55 57  1  0  0  0
 55127  1  0  0  0
 56 69  2  0  0  0
 57 58  2  0  0  0
 57128  1  0  0  0
 58129  1  0  0  0
 59 60  1  0  0  0
 59 61  1  0  0  0
 59 62  1  0  0  0
 60130  1  0  0  0
 60131  1  0  0  0
 60132  1  0  0  0
 61133  1  0  0  0
 61134  1  0  0  0
 61135  1  0  0  0
 62136  1  0  0  0
 62137  1  0  0  0
 62138  1  0  0  0
 63 65  1  0  0  0
 63139  1  0  0  0
 63140  1  0  0  0
 63141  1  0  0  0
 64142  1  0  0  0
 65143  1  0  0  0
 68 79  1  0  0  0
 71 72  1  0  0  0
 71 74  2  0  0  0
 71144  1  0  0  0
 72 73  2  0  0  0
 72 78  1  0  0  0
 73 75  1  0  0  0
 73 84  1  0  0  0
 74 80  1  0  0  0
 74 84  1  0  0  0
 75 77  1  0  0  0
 75 82  2  0  0  0
 76 79  1  0  0  0
 76 80  1  0  0  0
 76 83  2  0  0  0
 77145  1  0  0  0
 77146  1  0  0  0
 77147  1  0  0  0
 78 81  1  0  0  0
 78148  1  0  0  0
 78149  1  0  0  0
 79150  1  0  0  0
 79151  1  0  0  0
 80152  1  0  0  0
 81153  1  0  0  0
M  ISO  4   1 100  68 101  79 101  81 100
M  END
> <chiral flag>
0

> <version>
0

> <s_m_source_file>
/data/baiqing/PycharmProjects/Reinvent-master-3.2/result/LINK_invent/BTK/process_docking_weight1_custom_product_contain_oxygen_bond_distance_aromatic_linkinvent_7_9_3/rearranged_h_0160.sdf

> <i_m_source_file_index>
41

> <r_mmod_Potential_Energy-OPLS-2005>
81.6350936889648

> <r_mmod_Stretch_Energy-OPLS-2005>
136.811889648438

> <r_mmod_Bend_Energy-OPLS-2005>
196.418685913086

> <r_mmod_Torsional_Energy-OPLS-2005>
232.690170288086

> <r_mmod_Improper_Torsional_Energy-OPLS-2005>
5.14328336715698

> <r_mmod_Van_der_Waal_Energy-OPLS-2005>
103.85279083252

> <r_mmod_Electrostatic_Energy-OPLS-2005>
-460.687194824219

> <r_mmod_Solvation_Energy-OPLS-2005>
-238.043670654297

> <b_mmod_Minimization_Converged-OPLS-2005>
0

> <r_mmod_RMS_Derivative-OPLS-2005>
0.603120386600494

$$$$
42
                    3D
 Structure written by MMmdl.
155163  0  0  1  0            999 V2000
  -30.6261  -14.7551   20.4604 C   0  0  0  0  0  0
  -30.4249  -12.4619   19.4827 C   0  0  0  0  0  0
  -29.5079  -12.5029   18.2413 C   0  0  0  0  0  0
  -28.0354  -12.3242   18.6557 C   0  0  0  0  0  0
  -27.6370  -13.2351   19.8477 C   0  0  2  0  0  0
  -28.6794  -13.1920   20.9861 C   0  0  0  0  0  0
  -25.2478  -13.8207   20.5688 C   0  0  0  0  0  0
  -24.1779  -13.0444   20.9213 C   0  0  0  0  0  0
  -24.6383  -11.6924   20.8755 C   0  0  0  0  0  0
  -23.9067  -10.4295   21.0411 C   0  0  0  0  0  0
  -24.3618   -9.4209   21.9186 C   0  0  0  0  0  0
  -23.6291   -8.2245   22.0753 C   0  0  0  0  0  0
  -22.4276   -8.0283   21.3541 C   0  0  0  0  0  0
  -21.9916   -9.0255   20.4644 C   0  0  0  0  0  0
  -22.7241  -10.2134   20.3053 C   0  0  0  0  0  0
  -21.6856   -6.0738   22.5275 C   0  0  0  0  0  0
  -21.4015   -6.5639   23.8209 C   0  0  0  0  0  0
  -21.3657   -5.6787   24.9170 C   0  0  0  0  0  0
  -21.6046   -4.3051   24.7219 C   0  0  0  0  0  0
  -21.8820   -3.8144   23.4339 C   0  0  0  0  0  0
  -21.9193   -4.6964   22.3397 C   0  0  0  0  0  0
  -22.7802  -13.5218   21.1872 C   0  0  0  0  0  0
  -22.1660   -4.2150   21.0975 F   0  0  0  0  0  0
  -21.5630   -3.4537   25.7731 F   0  0  0  0  0  0
  -29.9798  -13.5388   20.4014 N   0  0  0  0  0  0
  -26.2909  -12.9423   20.3270 N   0  0  0  0  0  0
  -25.9314  -11.6565   20.5759 N   0  0  0  0  0  0
  -22.0456  -12.8196   22.0428 N   0  0  0  0  0  0
  -25.4170  -15.1936   20.4091 N   0  0  0  0  0  0
  -31.8167  -14.7965   20.1426 O   0  0  0  0  0  0
  -21.6639   -6.8880   21.4236 O   0  0  0  0  0  0
  -22.3489  -14.5529   20.6728 O   0  0  0  0  0  0
  -24.6324  -31.8524   23.1970 C   0  0  0  0  0  0
  -25.9140  -32.4742   23.8319 C   0  0  1  0  0  0
  -27.2231  -27.2632   20.1240 C   0  0  0  0  0  0
  -25.5928  -33.8546   24.2251 N   0  0  0  0  0  0
  -23.4287  -30.4743   21.5396 C   0  0  2  0  0  0
  -24.8739  -28.9205   20.1060 C   0  0  0  0  0  0
  -22.7508  -29.4573   22.4906 C   0  0  0  0  0  0
  -18.0290  -28.1384   22.8482 C   0  0  0  0  0  0
  -24.1488  -36.7275   23.2649 C   0  0  0  0  0  0
  -25.9732  -30.7679   21.3737 C   0  0  0  0  0  0
  -26.0434  -29.3902   20.7158 C   0  0  0  0  0  0
  -27.2155  -28.5716   20.7155 C   0  0  0  0  0  0
  -26.0264  -26.8505   19.4981 C   0  0  0  0  0  0
  -24.8708  -27.6592   19.4891 C   0  0  0  0  0  0
  -23.6450  -29.8091   20.1539 C   0  0  0  0  0  0
  -25.4111  -36.3061   24.0338 C   0  0  1  0  0  0
  -20.5896  -28.3681   23.1285 C   0  0  2  0  0  0
  -20.6776  -26.9399   22.5421 C   0  0  0  0  0  0
  -19.5754  -26.6377   21.5219 C   0  0  0  0  0  0
  -18.1929  -26.7932   22.1620 C   0  0  0  0  0  0
  -19.1545  -28.8848   23.2876 C   0  0  0  0  0  0
  -18.9465  -30.1448   23.8893 C   0  0  0  0  0  0
  -17.6464  -30.6582   24.0565 C   0  0  0  0  0  0
  -25.9047  -34.9434   23.5093 C   0  0  0  0  0  0
  -16.5352  -29.9082   23.6332 C   0  0  0  0  0  0
  -16.7275  -28.6500   23.0350 C   0  0  0  0  0  0
  -26.4514  -31.6567   25.0707 C   0  0  0  0  0  0
  -25.3747  -31.3713   26.1435 C   0  0  0  0  0  0
  -27.0373  -30.2992   24.6177 C   0  0  0  0  0  0
  -27.6055  -32.4319   25.7482 C   0  0  0  0  0  0
  -27.5572  -37.1789   24.8471 C   0  0  0  0  0  0
  -21.4209  -29.3030   22.3668 N   0  0  0  0  0  0
  -26.4280  -37.3764   23.9417 N   0  0  0  0  0  0
  -24.6975  -31.0490   22.0938 N   0  0  0  0  0  0
  -23.4211  -28.8111   23.2998 O   0  0  0  0  0  0
  -28.3453  -26.4095   20.2123 O   0  0  0  0  0  0
  -26.5628  -34.8922   22.4670 O   0  0  0  0  0  0
  -23.5470  -32.1333   23.7268 O   0  0  0  0  0  0
  -32.0632  -19.0727   20.5004 C   0  0  0  0  0  0
  -31.1452  -20.1377   20.5152 C   0  0  0  0  0  0
  -31.6405  -17.7313   20.5471 C   0  0  0  0  0  0
  -29.3394  -18.5044   20.6176 C   0  0  0  0  0  0
  -29.7542  -19.9098   20.5700 C   0  0  0  0  0  0
  -30.2697  -17.3713   20.5979 C   0  0  0  0  0  0
  -28.8663  -21.1636   20.7443 C   0  0  0  0  0  0
  -28.3165  -23.7321   20.4681 C   0  0  0  0  0  0
  -29.8127  -22.4638   18.8564 C   0  0  0  0  0  0
  -28.4594  -25.0573   19.5642 C   0  0  0  0  0  0
  -29.8828  -15.9226   20.6622 N   0  0  0  0  0  0
  -28.9694  -22.4071   20.0766 N   0  0  0  0  0  0
  -27.9449  -21.0371   21.6989 N   0  3  0  0  0  0
  -27.6404  -23.7908   21.5025 O   0  0  0  0  0  0
  -31.4670  -12.5735   19.1786 H   0  0  0  0  0  0
  -30.3649  -11.4916   19.9785 H   0  0  0  0  0  0
  -29.7952  -11.7245   17.5329 H   0  0  0  0  0  0
  -29.6315  -13.4535   17.7207 H   0  0  0  0  0  0
  -27.8971  -11.2774   18.9293 H   0  0  0  0  0  0
  -27.3778  -12.5036   17.8042 H   0  0  0  0  0  0
  -27.6250  -14.2516   19.4540 H   0  0  0  0  0  0
  -28.7160  -12.2032   21.4450 H   0  0  0  0  0  0
  -28.4105  -13.8896   21.7809 H   0  0  0  0  0  0
  -25.2767   -9.5687   22.4758 H   0  0  0  0  0  0
  -24.0001   -7.4637   22.7471 H   0  0  0  0  0  0
  -21.0852   -8.8774   19.8943 H   0  0  0  0  0  0
  -22.3707  -10.9672   19.6158 H   0  0  0  0  0  0
  -21.2006   -7.6148   23.9714 H   0  0  0  0  0  0
  -21.1479   -6.0518   25.9073 H   0  0  0  0  0  0
  -22.0603   -2.7609   23.2836 H   0  0  0  0  0  0
  -22.4073  -11.9853   22.4801 H   0  0  0  0  0  0
  -21.1074  -13.1213   22.2638 H   0  0  0  0  0  0
  -24.6453  -15.8445   20.5084 H   0  0  0  0  0  0
  -26.2552  -15.6305   20.0489 H   0  0  0  0  0  0
  -26.7208  -32.5388   23.1059 H   0  0  0  0  0  0
  -25.0095  -33.9684   25.0412 H   0  0  0  0  0  0
  -22.7252  -31.2962   21.3941 H   0  0  0  0  0  0
  -23.3754  -35.9600   23.3300 H   0  0  0  0  0  0
  -24.3583  -36.8904   22.2064 H   0  0  0  0  0  0
  -23.7234  -37.6475   23.6671 H   0  0  0  0  0  0
  -26.1110  -31.5285   20.6040 H   0  0  0  0  0  0
  -26.8516  -30.8168   22.0048 H   0  0  0  0  0  0
  -28.1111  -28.9265   21.2055 H   0  0  0  0  0  0
  -25.9413  -25.8779   19.0391 H   0  0  0  0  0  0
  -23.9719  -27.2897   19.0150 H   0  0  0  0  0  0
  -23.7729  -30.5871   19.3998 H   0  0  0  0  0  0
  -22.7620  -29.2453   19.8464 H   0  0  0  0  0  0
  -25.1294  -36.1899   25.0829 H   0  0  0  0  0  0
  -20.9982  -28.3249   24.1408 H   0  0  0  0  0  0
  -20.5681  -26.2283   23.3623 H   0  0  0  0  0  0
  -21.6639  -26.7425   22.1200 H   0  0  0  0  0  0
  -19.6918  -25.6290   21.1235 H   0  0  0  0  0  0
  -19.6696  -27.3206   20.6764 H   0  0  0  0  0  0
  -17.4206  -26.6687   21.4019 H   0  0  0  0  0  0
  -18.0299  -26.0078   22.9012 H   0  0  0  0  0  0
  -19.7942  -30.7258   24.2263 H   0  0  0  0  0  0
  -17.5022  -31.6268   24.5158 H   0  0  0  0  0  0
  -15.5353  -30.2987   23.7663 H   0  0  0  0  0  0
  -15.8670  -28.0821   22.7073 H   0  0  0  0  0  0
  -24.5936  -30.7034   25.7784 H   0  0  0  0  0  0
  -24.8931  -32.2885   26.4832 H   0  0  0  0  0  0
  -25.8093  -30.8927   27.0221 H   0  0  0  0  0  0
  -26.2949  -29.6719   24.1227 H   0  0  0  0  0  0
  -27.4116  -29.7263   25.4671 H   0  0  0  0  0  0
  -27.8799  -30.4297   23.9383 H   0  0  0  0  0  0
  -27.2644  -33.3639   26.2004 H   0  0  0  0  0  0
  -28.3893  -32.6839   25.0325 H   0  0  0  0  0  0
  -28.0684  -31.8474   26.5442 H   0  0  0  0  0  0
  -28.2583  -38.0092   24.7508 H   0  0  0  0  0  0
  -28.1075  -36.2617   24.6298 H   0  0  0  0  0  0
  -27.2293  -37.1438   25.8879 H   0  0  0  0  0  0
  -20.9382  -29.8759   21.6888 H   0  0  0  0  0  0
  -26.0158  -38.2839   24.1418 H   0  0  0  0  0  0
  -33.1227  -19.2867   20.4769 H   0  0  0  0  0  0
  -31.5355  -21.1462   20.5330 H   0  0  0  0  0  0
  -32.4260  -16.9951   20.5635 H   0  0  0  0  0  0
  -28.2815  -18.2945   20.6924 H   0  0  0  0  0  0
  -30.0111  -21.4847   18.4194 H   0  0  0  0  0  0
  -30.7730  -22.9348   19.0711 H   0  0  0  0  0  0
  -29.3308  -23.0294   18.0586 H   0  0  0  0  0  0
  -27.8091  -24.9661   18.6968 H   0  0  0  0  0  0
  -29.4664  -25.0598   19.1506 H   0  0  0  0  0  0
  -28.9047  -15.7488   20.8317 H   0  0  0  0  0  0
  -27.8865  -20.1936   22.2464 H   0  0  0  0  0  0
  -27.4192  -21.8575   21.9758 H   0  0  0  0  0  0
  1 25  1  0  0  0
  1 30  2  0  0  0
  1 81  1  0  0  0
  2  3  1  0  0  0
  2 25  1  0  0  0
  2 85  1  0  0  0
  2 86  1  0  0  0
  3  4  1  0  0  0
  3 87  1  0  0  0
  3 88  1  0  0  0
  4  5  1  0  0  0
  4 89  1  0  0  0
  4 90  1  0  0  0
  5  6  1  0  0  0
  5 26  1  0  0  0
  5 91  1  0  0  0
  6 25  1  0  0  0
  6 92  1  0  0  0
  6 93  1  0  0  0
  7  8  2  0  0  0
  7 26  1  0  0  0
  7 29  1  0  0  0
  8  9  1  0  0  0
  8 22  1  0  0  0
  9 10  1  0  0  0
  9 27  2  0  0  0
 10 11  2  0  0  0
 10 15  1  0  0  0
 11 12  1  0  0  0
 11 94  1  0  0  0
 12 13  2  0  0  0
 12 95  1  0  0  0
 13 14  1  0  0  0
 13 31  1  0  0  0
 14 15  2  0  0  0
 14 96  1  0  0  0
 15 97  1  0  0  0
 16 17  2  0  0  0
 16 21  1  0  0  0
 16 31  1  0  0  0
 17 18  1  0  0  0
 17 98  1  0  0  0
 18 19  2  0  0  0
 18 99  1  0  0  0
 19 20  1  0  0  0
 19 24  1  0  0  0
 20 21  2  0  0  0
 20100  1  0  0  0
 21 23  1  0  0  0
 22 28  1  0  0  0
 22 32  2  0  0  0
 26 27  1  0  0  0
 28101  1  0  0  0
 28102  1  0  0  0
 29103  1  0  0  0
 29104  1  0  0  0
 33 34  1  0  0  0
 33 66  1  0  0  0
 33 70  2  0  0  0
 34 36  1  0  0  0
 34 59  1  0  0  0
 34105  1  0  0  0
 35 44  2  0  0  0
 35 45  1  0  0  0
 35 68  1  0  0  0
 36 56  1  0  0  0
 36106  1  0  0  0
 37 39  1  0  0  0
 37 47  1  0  0  0
 37 66  1  0  0  0
 37107  1  0  0  0
 38 43  2  0  0  0
 38 46  1  0  0  0
 38 47  1  0  0  0
 39 64  1  0  0  0
 39 67  2  0  0  0
 40 52  1  0  0  0
 40 53  2  0  0  0
 40 58  1  0  0  0
 41108  1  0  0  0
 41109  1  0  0  0
 41110  1  0  0  0
 41 48  1  0  0  0
 42 43  1  0  0  0
 42 66  1  0  0  0
 42111  1  0  0  0
 42112  1  0  0  0
 43 44  1  0  0  0
 44113  1  0  0  0
 45 46  2  0  0  0
 45114  1  0  0  0
 46115  1  0  0  0
 47116  1  0  0  0
 47117  1  0  0  0
 48 56  1  0  0  0
 48 65  1  0  0  0
 48118  1  0  0  0
 49 50  1  0  0  0
 49 53  1  0  0  0
 49 64  1  0  0  0
 49119  1  0  0  0
 50 51  1  0  0  0
 50120  1  0  0  0
 50121  1  0  0  0
 51 52  1  0  0  0
 51122  1  0  0  0
 51123  1  0  0  0
 52124  1  0  0  0
 52125  1  0  0  0
 53 54  1  0  0  0
 54 55  2  0  0  0
 54126  1  0  0  0
 55 57  1  0  0  0
 55127  1  0  0  0
 56 69  2  0  0  0
 57 58  2  0  0  0
 57128  1  0  0  0
 58129  1  0  0  0
 59 60  1  0  0  0
 59 61  1  0  0  0
 59 62  1  0  0  0
 60130  1  0  0  0
 60131  1  0  0  0
 60132  1  0  0  0
 61133  1  0  0  0
 61134  1  0  0  0
 61135  1  0  0  0
 62136  1  0  0  0
 62137  1  0  0  0
 62138  1  0  0  0
 63 65  1  0  0  0
 63139  1  0  0  0
 63140  1  0  0  0
 63141  1  0  0  0
 64142  1  0  0  0
 65143  1  0  0  0
 68 80  1  0  0  0
 71 72  2  0  0  0
 71 73  1  0  0  0
 71144  1  0  0  0
 72 75  1  0  0  0
 72145  1  0  0  0
 73 76  2  0  0  0
 73146  1  0  0  0
 74 75  2  0  0  0
 74 76  1  0  0  0
 74147  1  0  0  0
 75 77  1  0  0  0
 76 81  1  0  0  0
 77 82  1  0  0  0
 77 83  2  0  0  0
 78 80  1  0  0  0
 78 82  1  0  0  0
 78 84  2  0  0  0
 79 82  1  0  0  0
 79148  1  0  0  0
 79149  1  0  0  0
 79150  1  0  0  0
 80151  1  0  0  0
 80152  1  0  0  0
 81153  1  0  0  0
 83154  1  0  0  0
 83155  1  0  0  0
M  CHG  1  83   1
M  ISO  4   1 100  68 101  80 101  81 100
M  END
> <chiral flag>
0

> <version>
0

> <s_m_source_file>
/data/baiqing/PycharmProjects/Reinvent-master-3.2/result/LINK_invent/BTK/process_docking_weight1_custom_product_contain_oxygen_bond_distance_aromatic_linkinvent_7_9_3/rearranged_h_0160.sdf

> <i_m_source_file_index>
42

> <r_mmod_Potential_Energy-OPLS-2005>
-12.2592477798462

> <r_mmod_Stretch_Energy-OPLS-2005>
146.40168762207

> <r_mmod_Bend_Energy-OPLS-2005>
184.591506958008

> <r_mmod_Torsional_Energy-OPLS-2005>
225.286773681641

> <r_mmod_Improper_Torsional_Energy-OPLS-2005>
6.25996589660645

> <r_mmod_Van_der_Waal_Energy-OPLS-2005>
162.999435424805

> <r_mmod_Electrostatic_Energy-OPLS-2005>
-399.428649902344

> <r_mmod_Solvation_Energy-OPLS-2005>
-424.132659912109

> <b_mmod_Minimization_Converged-OPLS-2005>
0

> <r_mmod_RMS_Derivative-OPLS-2005>
1.4000256061554

$$$$
43
                    3D
 Structure written by MMmdl.
154163  0  0  1  0            999 V2000
  -30.6378  -14.6079   20.5099 C   0  0  0  0  0  0
  -30.4373  -12.3719   19.4530 C   0  0  0  0  0  0
  -29.5085  -12.5035   18.2253 C   0  0  0  0  0  0
  -28.0305  -12.3476   18.6360 C   0  0  0  0  0  0
  -27.6573  -13.2142   19.8686 C   0  0  2  0  0  0
  -28.7005  -13.0538   20.9986 C   0  0  0  0  0  0
  -25.2578  -13.8169   20.5688 C   0  0  0  0  0  0
  -24.1837  -13.0441   20.9191 C   0  0  0  0  0  0
  -24.6399  -11.6909   20.8742 C   0  0  0  0  0  0
  -23.9063  -10.4295   21.0409 C   0  0  0  0  0  0
  -24.3614   -9.4211   21.9187 C   0  0  0  0  0  0
  -23.6294   -8.2243   22.0753 C   0  0  0  0  0  0
  -22.4276   -8.0282   21.3541 C   0  0  0  0  0  0
  -21.9911   -9.0257   20.4645 C   0  0  0  0  0  0
  -22.7236  -10.2138   20.3058 C   0  0  0  0  0  0
  -21.6852   -6.0739   22.5281 C   0  0  0  0  0  0
  -21.4012   -6.5642   23.8216 C   0  0  0  0  0  0
  -21.3660   -5.6793   24.9178 C   0  0  0  0  0  0
  -21.6045   -4.3055   24.7227 C   0  0  0  0  0  0
  -21.8818   -3.8149   23.4348 C   0  0  0  0  0  0
  -21.9194   -4.6966   22.3404 C   0  0  0  0  0  0
  -22.7861  -13.5237   21.1862 C   0  0  0  0  0  0
  -22.1662   -4.2152   21.0981 F   0  0  0  0  0  0
  -21.5632   -3.4538   25.7740 F   0  0  0  0  0  0
  -30.0223  -13.3868   20.4412 N   0  0  0  0  0  0
  -26.3010  -12.9346   20.3342 N   0  0  0  0  0  0
  -25.9327  -11.6502   20.5763 N   0  0  0  0  0  0
  -22.0495  -12.8225   22.0408 N   0  0  0  0  0  0
  -25.4306  -15.1887   20.4097 N   0  0  0  0  0  0
  -31.7832  -14.7816   20.0826 O   0  0  0  0  0  0
  -21.6640   -6.8880   21.4241 O   0  0  0  0  0  0
  -22.3551  -14.5550   20.6719 O   0  0  0  0  0  0
  -24.6230  -31.8621   23.2046 C   0  0  0  0  0  0
  -25.9081  -32.4796   23.8374 C   0  0  1  0  0  0
  -27.2279  -27.3537   20.1146 C   0  0  0  0  0  0
  -25.5903  -33.8597   24.2299 N   0  0  0  0  0  0
  -23.4170  -30.4855   21.5454 C   0  0  2  0  0  0
  -24.8676  -28.9466   20.1078 C   0  0  0  0  0  0
  -22.7465  -29.4633   22.4936 C   0  0  0  0  0  0
  -18.0286  -28.1392   22.8496 C   0  0  0  0  0  0
  -24.1485  -36.7306   23.2638 C   0  0  0  0  0  0
  -25.9553  -30.8037   21.3716 C   0  0  0  0  0  0
  -26.0338  -29.4337   20.7141 C   0  0  0  0  0  0
  -27.2212  -28.6468   20.7121 C   0  0  0  0  0  0
  -26.0489  -26.9161   19.4749 C   0  0  0  0  0  0
  -24.8742  -27.6912   19.4794 C   0  0  0  0  0  0
  -23.6315  -29.8205   20.1599 C   0  0  0  0  0  0
  -25.4109  -36.3098   24.0333 C   0  0  1  0  0  0
  -20.5886  -28.3691   23.1293 C   0  0  2  0  0  0
  -20.6775  -26.9416   22.5414 C   0  0  0  0  0  0
  -19.5749  -26.6397   21.5215 C   0  0  0  0  0  0
  -18.1928  -26.7938   22.1627 C   0  0  0  0  0  0
  -19.1539  -28.8857   23.2890 C   0  0  0  0  0  0
  -18.9462  -30.1462   23.8907 C   0  0  0  0  0  0
  -17.6463  -30.6594   24.0570 C   0  0  0  0  0  0
  -25.9043  -34.9463   23.5120 C   0  0  0  0  0  0
  -16.5355  -29.9095   23.6332 C   0  0  0  0  0  0
  -16.7273  -28.6511   23.0353 C   0  0  0  0  0  0
  -26.4475  -31.6593   25.0727 C   0  0  0  0  0  0
  -25.3718  -31.3731   26.1459 C   0  0  0  0  0  0
  -27.0302  -30.3016   24.6157 C   0  0  0  0  0  0
  -27.6053  -32.4310   25.7488 C   0  0  0  0  0  0
  -27.5581  -37.1810   24.8463 C   0  0  0  0  0  0
  -21.4179  -29.3047   22.3687 N   0  0  0  0  0  0
  -26.4295  -37.3784   23.9404 N   0  0  0  0  0  0
  -24.6836  -31.0662   22.0981 N   0  0  0  0  0  0
  -23.4198  -28.8166   23.3002 O   0  0  0  0  0  0
  -28.3076  -26.4706   20.1738 O   0  0  0  0  0  0
  -26.5614  -34.8924   22.4687 O   0  0  0  0  0  0
  -23.5399  -32.1406   23.7389 O   0  0  0  0  0  0
  -30.7844  -17.7330   19.8771 C   0  0  0  0  0  0
  -29.9577  -17.0072   20.7174 C   0  0  0  0  0  0
  -29.5539  -19.5431   20.6434 C   0  0  0  0  0  0
  -29.5119  -23.3675   21.7325 C   0  0  0  0  0  0
  -28.7371  -23.9176   20.7668 C   0  0  0  0  0  0
  -29.9701  -21.9006   21.7507 C   0  0  0  0  0  0
  -28.2971  -23.0293   19.5820 C   0  0  0  0  0  0
  -29.0785  -21.0021   20.8592 C   0  0  1  0  0  0
  -28.0193  -25.2911   21.0006 C   0  0  0  0  0  0
  -30.5435  -19.1312   19.8337 N   0  0  0  0  0  0
  -29.8665  -15.6441   20.9519 N   0  0  0  0  0  0
  -28.9346  -21.6619   19.5373 N   0  3  0  0  0  0
  -28.8625  -18.1472   21.5126 S   0  0  0  0  0  0
  -31.4803  -12.4890   19.1528 H   0  0  0  0  0  0
  -30.3636  -11.3729   19.8858 H   0  0  0  0  0  0
  -29.7677  -11.7538   17.4764 H   0  0  0  0  0  0
  -29.6588  -13.4743   17.7504 H   0  0  0  0  0  0
  -27.8627  -11.2940   18.8631 H   0  0  0  0  0  0
  -27.3768  -12.5839   17.7954 H   0  0  0  0  0  0
  -27.6822  -14.2523   19.5364 H   0  0  0  0  0  0
  -28.7023  -12.0294   21.3741 H   0  0  0  0  0  0
  -28.4465  -13.6797   21.8554 H   0  0  0  0  0  0
  -25.2758   -9.5690   22.4761 H   0  0  0  0  0  0
  -24.0009   -7.4632   22.7464 H   0  0  0  0  0  0
  -21.0846   -8.8773   19.8946 H   0  0  0  0  0  0
  -22.3695  -10.9678   19.6167 H   0  0  0  0  0  0
  -21.1996   -7.6149   23.9719 H   0  0  0  0  0  0
  -21.1485   -6.0524   25.9082 H   0  0  0  0  0  0
  -22.0595   -2.7611   23.2847 H   0  0  0  0  0  0
  -22.4098  -11.9877   22.4790 H   0  0  0  0  0  0
  -21.1112  -13.1252   22.2609 H   0  0  0  0  0  0
  -24.6632  -15.8438   20.5121 H   0  0  0  0  0  0
  -26.2811  -15.6247   20.0764 H   0  0  0  0  0  0
  -26.7156  -32.5484   23.1139 H   0  0  0  0  0  0
  -25.0034  -33.9748   25.0434 H   0  0  0  0  0  0
  -22.7095  -31.3053   21.4030 H   0  0  0  0  0  0
  -23.3746  -35.9637   23.3303 H   0  0  0  0  0  0
  -24.3586  -36.8920   22.2052 H   0  0  0  0  0  0
  -23.7237  -37.6512   23.6655 H   0  0  0  0  0  0
  -26.0808  -31.5684   20.6039 H   0  0  0  0  0  0
  -26.8382  -30.8560   21.9969 H   0  0  0  0  0  0
  -28.1122  -29.0092   21.2049 H   0  0  0  0  0  0
  -26.0274  -25.9481   18.9948 H   0  0  0  0  0  0
  -23.9811  -27.3139   19.0009 H   0  0  0  0  0  0
  -23.7465  -30.5976   19.4034 H   0  0  0  0  0  0
  -22.7532  -29.2462   19.8591 H   0  0  0  0  0  0
  -25.1290  -36.1957   25.0828 H   0  0  0  0  0  0
  -20.9991  -28.3262   24.1410 H   0  0  0  0  0  0
  -20.5680  -26.2298   23.3610 H   0  0  0  0  0  0
  -21.6641  -26.7449   22.1201 H   0  0  0  0  0  0
  -19.6903  -25.6308   21.1240 H   0  0  0  0  0  0
  -19.6683  -27.3215   20.6751 H   0  0  0  0  0  0
  -17.4198  -26.6699   21.4027 H   0  0  0  0  0  0
  -18.0321  -26.0082   22.9027 H   0  0  0  0  0  0
  -19.7937  -30.7281   24.2277 H   0  0  0  0  0  0
  -17.5016  -31.6271   24.5176 H   0  0  0  0  0  0
  -15.5354  -30.3000   23.7652 H   0  0  0  0  0  0
  -15.8674  -28.0835   22.7058 H   0  0  0  0  0  0
  -24.5883  -30.7088   25.7794 H   0  0  0  0  0  0
  -24.8915  -32.2898   26.4893 H   0  0  0  0  0  0
  -25.8044  -30.8904   27.0229 H   0  0  0  0  0  0
  -26.2865  -29.6783   24.1178 H   0  0  0  0  0  0
  -27.4004  -29.7252   25.4645 H   0  0  0  0  0  0
  -27.8733  -30.4308   23.9366 H   0  0  0  0  0  0
  -27.2684  -33.3612   26.2077 H   0  0  0  0  0  0
  -28.3856  -32.6865   25.0307 H   0  0  0  0  0  0
  -28.0724  -31.8420   26.5391 H   0  0  0  0  0  0
  -28.2607  -38.0099   24.7508 H   0  0  0  0  0  0
  -28.1073  -36.2636   24.6294 H   0  0  0  0  0  0
  -27.2306  -37.1460   25.8868 H   0  0  0  0  0  0
  -20.9351  -29.8775   21.6908 H   0  0  0  0  0  0
  -26.0182  -38.2863   24.1401 H   0  0  0  0  0  0
  -31.5638  -17.3340   19.2421 H   0  0  0  0  0  0
  -29.7696  -23.9475   22.6081 H   0  0  0  0  0  0
  -29.9448  -21.5284   22.7753 H   0  0  0  0  0  0
  -31.0108  -21.8573   21.4278 H   0  0  0  0  0  0
  -28.4872  -23.5533   18.6447 H   0  0  0  0  0  0
  -27.2167  -22.8967   19.6517 H   0  0  0  0  0  0
  -28.0852  -20.9474   21.3077 H   0  0  0  0  0  0
  -28.2380  -25.6024   22.0229 H   0  0  0  0  0  0
  -26.9538  -25.0597   21.0153 H   0  0  0  0  0  0
  -29.0140  -15.3465   21.4023 H   0  0  0  0  0  0
  -29.8569  -21.7330   19.1416 H   0  0  0  0  0  0
  -28.4001  -21.0598   18.9334 H   0  0  0  0  0  0
  1 25  1  0  0  0
  1 30  2  0  0  0
  1 81  1  0  0  0
  2  3  1  0  0  0
  2 25  1  0  0  0
  2 84  1  0  0  0
  2 85  1  0  0  0
  3  4  1  0  0  0
  3 86  1  0  0  0
  3 87  1  0  0  0
  4  5  1  0  0  0
  4 88  1  0  0  0
  4 89  1  0  0  0
  5  6  1  0  0  0
  5 26  1  0  0  0
  5 90  1  0  0  0
  6 25  1  0  0  0
  6 91  1  0  0  0
  6 92  1  0  0  0
  7  8  2  0  0  0
  7 26  1  0  0  0
  7 29  1  0  0  0
  8  9  1  0  0  0
  8 22  1  0  0  0
  9 10  1  0  0  0
  9 27  2  0  0  0
 10 11  2  0  0  0
 10 15  1  0  0  0
 11 12  1  0  0  0
 11 93  1  0  0  0
 12 13  2  0  0  0
 12 94  1  0  0  0
 13 14  1  0  0  0
 13 31  1  0  0  0
 14 15  2  0  0  0
 14 95  1  0  0  0
 15 96  1  0  0  0
 16 17  2  0  0  0
 16 21  1  0  0  0
 16 31  1  0  0  0
 17 18  1  0  0  0
 17 97  1  0  0  0
 18 19  2  0  0  0
 18 98  1  0  0  0
 19 20  1  0  0  0
 19 24  1  0  0  0
 20 21  2  0  0  0
 20 99  1  0  0  0
 21 23  1  0  0  0
 22 28  1  0  0  0
 22 32  2  0  0  0
 26 27  1  0  0  0
 28100  1  0  0  0
 28101  1  0  0  0
 29102  1  0  0  0
 29103  1  0  0  0
 33 34  1  0  0  0
 33 66  1  0  0  0
 33 70  2  0  0  0
 34 36  1  0  0  0
 34 59  1  0  0  0
 34104  1  0  0  0
 35 44  2  0  0  0
 35 45  1  0  0  0
 35 68  1  0  0  0
 36 56  1  0  0  0
 36105  1  0  0  0
 37 39  1  0  0  0
 37 47  1  0  0  0
 37 66  1  0  0  0
 37106  1  0  0  0
 38 43  2  0  0  0
 38 46  1  0  0  0
 38 47  1  0  0  0
 39 64  1  0  0  0
 39 67  2  0  0  0
 40 52  1  0  0  0
 40 53  2  0  0  0
 40 58  1  0  0  0
 41107  1  0  0  0
 41108  1  0  0  0
 41109  1  0  0  0
 41 48  1  0  0  0
 42 43  1  0  0  0
 42 66  1  0  0  0
 42110  1  0  0  0
 42111  1  0  0  0
 43 44  1  0  0  0
 44112  1  0  0  0
 45 46  2  0  0  0
 45113  1  0  0  0
 46114  1  0  0  0
 47115  1  0  0  0
 47116  1  0  0  0
 48 56  1  0  0  0
 48 65  1  0  0  0
 48117  1  0  0  0
 49 50  1  0  0  0
 49 53  1  0  0  0
 49 64  1  0  0  0
 49118  1  0  0  0
 50 51  1  0  0  0
 50119  1  0  0  0
 50120  1  0  0  0
 51 52  1  0  0  0
 51121  1  0  0  0
 51122  1  0  0  0
 52123  1  0  0  0
 52124  1  0  0  0
 53 54  1  0  0  0
 54 55  2  0  0  0
 54125  1  0  0  0
 55 57  1  0  0  0
 55126  1  0  0  0
 56 69  2  0  0  0
 57 58  2  0  0  0
 57127  1  0  0  0
 58128  1  0  0  0
 59 60  1  0  0  0
 59 61  1  0  0  0
 59 62  1  0  0  0
 60129  1  0  0  0
 60130  1  0  0  0
 60131  1  0  0  0
 61132  1  0  0  0
 61133  1  0  0  0
 61134  1  0  0  0
 62135  1  0  0  0
 62136  1  0  0  0
 62137  1  0  0  0
 63 65  1  0  0  0
 63138  1  0  0  0
 63139  1  0  0  0
 63140  1  0  0  0
 64141  1  0  0  0
 65142  1  0  0  0
 68 79  1  0  0  0
 71 72  2  0  0  0
 71 80  1  0  0  0
 71143  1  0  0  0
 72 81  1  0  0  0
 72 83  1  0  0  0
 73 80  2  0  0  0
 73 83  1  0  0  0
 73 78  1  0  0  0
 74 75  2  0  0  0
 74 76  1  0  0  0
 74144  1  0  0  0
 75 77  1  0  0  0
 75 79  1  0  0  0
 76 78  1  0  0  0
 76145  1  0  0  0
 76146  1  0  0  0
 77 82  1  0  0  0
 77147  1  0  0  0
 77148  1  0  0  0
 78 82  1  0  0  0
 78149  1  0  0  0
 79150  1  0  0  0
 79151  1  0  0  0
 81152  1  0  0  0
 82153  1  0  0  0
 82154  1  0  0  0
M  CHG  1  82   1
M  ISO  4   1 100  68 101  79 101  81 100
M  END
> <chiral flag>
0

> <version>
0

> <s_m_source_file>
/data/baiqing/PycharmProjects/Reinvent-master-3.2/result/LINK_invent/BTK/process_docking_weight1_custom_product_contain_oxygen_bond_distance_aromatic_linkinvent_7_9_3/rearranged_h_0160.sdf

> <i_m_source_file_index>
43

> <r_mmod_Potential_Energy-OPLS-2005>
-235.649749755859

> <r_mmod_Stretch_Energy-OPLS-2005>
62.6963500976562

> <r_mmod_Bend_Energy-OPLS-2005>
131.289398193359

> <r_mmod_Torsional_Energy-OPLS-2005>
226.148223876953

> <r_mmod_Improper_Torsional_Energy-OPLS-2005>
4.31597423553467

> <r_mmod_Van_der_Waal_Energy-OPLS-2005>
129.339767456055

> <r_mmod_Electrostatic_Energy-OPLS-2005>
-365.469116210938

> <r_mmod_Solvation_Energy-OPLS-2005>
-464.954254150391

> <b_mmod_Minimization_Converged-OPLS-2005>
0

> <r_mmod_RMS_Derivative-OPLS-2005>
0.735756099224091

$$$$
44
                    3D
 Structure written by MMmdl.
157166  0  0  1  0            999 V2000
  -30.5598  -14.8057   20.4394 C   0  0  0  0  0  0
  -30.4383  -12.4894   19.4793 C   0  0  0  0  0  0
  -29.5168  -12.5348   18.2383 C   0  0  0  0  0  0
  -28.0414  -12.3549   18.6441 C   0  0  0  0  0  0
  -27.6435  -13.2387   19.8578 C   0  0  2  0  0  0
  -28.6875  -13.1638   20.9919 C   0  0  0  0  0  0
  -25.2529  -13.8215   20.5757 C   0  0  0  0  0  0
  -24.1795  -13.0449   20.9145 C   0  0  0  0  0  0
  -24.6386  -11.6925   20.8674 C   0  0  0  0  0  0
  -23.9057  -10.4307   21.0377 C   0  0  0  0  0  0
  -24.3612   -9.4232   21.9174 C   0  0  0  0  0  0
  -23.6284   -8.2269   22.0764 C   0  0  0  0  0  0
  -22.4279   -8.0287   21.3544 C   0  0  0  0  0  0
  -21.9885   -9.0264   20.4650 C   0  0  0  0  0  0
  -22.7210  -10.2149   20.3041 C   0  0  0  0  0  0
  -21.6870   -6.0722   22.5265 C   0  0  0  0  0  0
  -21.4031   -6.5644   23.8191 C   0  0  0  0  0  0
  -21.3651   -5.6784   24.9147 C   0  0  0  0  0  0
  -21.6041   -4.3046   24.7209 C   0  0  0  0  0  0
  -21.8826   -3.8127   23.4339 C   0  0  0  0  0  0
  -21.9198   -4.6942   22.3386 C   0  0  0  0  0  0
  -22.7818  -13.5233   21.1815 C   0  0  0  0  0  0
  -22.1677   -4.2134   21.0969 F   0  0  0  0  0  0
  -21.5598   -3.4524   25.7718 F   0  0  0  0  0  0
  -29.9875  -13.5463   20.4179 N   0  0  0  0  0  0
  -26.2945  -12.9422   20.3295 N   0  0  0  0  0  0
  -25.9326  -11.6552   20.5691 N   0  0  0  0  0  0
  -22.0456  -12.8229   22.0362 N   0  0  0  0  0  0
  -25.4270  -15.1952   20.4458 N   0  0  0  0  0  0
  -31.7258  -14.9461   20.0562 O   0  0  0  0  0  0
  -21.6649   -6.8889   21.4240 O   0  0  0  0  0  0
  -22.3504  -14.5534   20.6643 O   0  0  0  0  0  0
  -24.6369  -31.8499   23.1947 C   0  0  0  0  0  0
  -25.9171  -32.4714   23.8308 C   0  0  1  0  0  0
  -27.2100  -27.2051   20.1268 C   0  0  0  0  0  0
  -25.5952  -33.8519   24.2224 N   0  0  0  0  0  0
  -23.4367  -30.4727   21.5374 C   0  0  2  0  0  0
  -24.8824  -28.9135   20.1059 C   0  0  0  0  0  0
  -22.7530  -29.4574   22.4862 C   0  0  0  0  0  0
  -18.0298  -28.1377   22.8464 C   0  0  0  0  0  0
  -24.1496  -36.7274   23.2636 C   0  0  0  0  0  0
  -25.9883  -30.7418   21.3865 C   0  0  0  0  0  0
  -26.0568  -29.3614   20.7241 C   0  0  0  0  0  0
  -27.2220  -28.5190   20.7234 C   0  0  0  0  0  0
  -26.0127  -26.8456   19.4662 C   0  0  0  0  0  0
  -24.8679  -27.6671   19.4653 C   0  0  0  0  0  0
  -23.6585  -29.8099   20.1527 C   0  0  0  0  0  0
  -25.4120  -36.3042   24.0310 C   0  0  1  0  0  0
  -20.5907  -28.3706   23.1238 C   0  0  2  0  0  0
  -20.6783  -26.9411   22.5397 C   0  0  0  0  0  0
  -19.5761  -26.6367   21.5194 C   0  0  0  0  0  0
  -18.1944  -26.7918   22.1607 C   0  0  0  0  0  0
  -19.1553  -28.8855   23.2852 C   0  0  0  0  0  0
  -18.9473  -30.1448   23.8885 C   0  0  0  0  0  0
  -17.6474  -30.6574   24.0556 C   0  0  0  0  0  0
  -25.9068  -34.9413   23.5070 C   0  0  0  0  0  0
  -16.5369  -29.9063   23.6327 C   0  0  0  0  0  0
  -16.7289  -28.6482   23.0353 C   0  0  0  0  0  0
  -26.4509  -31.6562   25.0732 C   0  0  0  0  0  0
  -25.3703  -31.3747   26.1439 C   0  0  0  0  0  0
  -27.0358  -30.2962   24.6282 C   0  0  0  0  0  0
  -27.6066  -32.4305   25.7511 C   0  0  0  0  0  0
  -27.5580  -37.1791   24.8448 C   0  0  0  0  0  0
  -21.4237  -29.3050   22.3623 N   0  0  0  0  0  0
  -26.4284  -37.3755   23.9402 N   0  0  0  0  0  0
  -24.7061  -31.0418   22.0945 N   0  0  0  0  0  0
  -23.4213  -28.8103   23.2976 O   0  0  0  0  0  0
  -28.2784  -26.2626   20.2006 O   0  0  0  0  0  0
  -26.5650  -34.8899   22.4650 O   0  0  0  0  0  0
  -23.5508  -32.1350   23.7213 O   0  0  0  0  0  0
  -28.5824  -17.4938   19.2917 C   0  0  0  0  0  0
  -30.0372  -18.5113   20.9318 C   0  0  0  0  0  0
  -28.0563  -18.7830   18.9264 C   0  0  0  0  0  0
  -29.5447  -19.8216   20.5331 C   0  0  0  0  0  0
  -28.5648  -19.9557   19.5658 C   0  0  0  0  0  0
  -29.5584  -17.2870   20.3119 C   0  0  0  0  0  0
  -26.9767  -18.8807   17.8907 C   0  0  0  0  0  0
  -29.0245  -23.6708   20.5536 C   0  0  0  0  0  0
  -29.8675  -21.2565   21.0447 C   0  0  0  0  0  0
  -28.1604  -21.4546   19.4043 C   0  0  0  0  0  0
  -26.1904  -17.6134   17.5557 C   0  0  0  0  0  0
  -28.0281  -24.7763   19.9172 C   0  0  0  0  0  0
  -28.9858  -22.2744   20.3417 N   0  0  0  0  0  0
  -29.7615  -15.8866   20.8158 N   0  0  0  0  0  0
  -26.6698  -19.9296   17.3160 O   0  0  0  0  0  0
  -29.8820  -24.1160   21.3264 O   0  0  0  0  0  0
  -31.4819  -12.6200   19.1866 H   0  0  0  0  0  0
  -30.3831  -11.5102   19.9559 H   0  0  0  0  0  0
  -29.8030  -11.7602   17.5251 H   0  0  0  0  0  0
  -29.6411  -13.4879   17.7216 H   0  0  0  0  0  0
  -27.8915  -11.3017   18.8823 H   0  0  0  0  0  0
  -27.3922  -12.5712   17.7947 H   0  0  0  0  0  0
  -27.6345  -14.2643   19.4916 H   0  0  0  0  0  0
  -28.7298  -12.1576   21.4095 H   0  0  0  0  0  0
  -28.4100  -13.8205   21.8184 H   0  0  0  0  0  0
  -25.2776   -9.5690   22.4733 H   0  0  0  0  0  0
  -23.9969   -7.4662   22.7514 H   0  0  0  0  0  0
  -21.0791   -8.8785   19.8993 H   0  0  0  0  0  0
  -22.3667  -10.9672   19.6132 H   0  0  0  0  0  0
  -21.2079   -7.6162   23.9677 H   0  0  0  0  0  0
  -21.1450   -6.0534   25.9043 H   0  0  0  0  0  0
  -22.0620   -2.7577   23.2842 H   0  0  0  0  0  0
  -22.4059  -11.9908   22.4770 H   0  0  0  0  0  0
  -21.1074  -13.1283   22.2570 H   0  0  0  0  0  0
  -24.6841  -15.8588   20.6397 H   0  0  0  0  0  0
  -26.3104  -15.6421   20.2442 H   0  0  0  0  0  0
  -26.7241  -32.5336   23.1047 H   0  0  0  0  0  0
  -25.0064  -33.9643   25.0343 H   0  0  0  0  0  0
  -22.7343  -31.2954   21.3896 H   0  0  0  0  0  0
  -23.3744  -35.9621   23.3274 H   0  0  0  0  0  0
  -24.3599  -36.8930   22.2057 H   0  0  0  0  0  0
  -23.7252  -37.6462   23.6691 H   0  0  0  0  0  0
  -26.1405  -31.4996   20.6168 H   0  0  0  0  0  0
  -26.8612  -30.7874   22.0265 H   0  0  0  0  0  0
  -28.1166  -28.8504   21.2327 H   0  0  0  0  0  0
  -25.9240  -25.8984   18.9559 H   0  0  0  0  0  0
  -23.9703  -27.3264   18.9663 H   0  0  0  0  0  0
  -23.7936  -30.5883   19.4005 H   0  0  0  0  0  0
  -22.7745  -29.2504   19.8428 H   0  0  0  0  0  0
  -25.1304  -36.1874   25.0801 H   0  0  0  0  0  0
  -20.9996  -28.3286   24.1360 H   0  0  0  0  0  0
  -20.5657  -26.2314   23.3610 H   0  0  0  0  0  0
  -21.6657  -26.7400   22.1226 H   0  0  0  0  0  0
  -19.6931  -25.6269   21.1241 H   0  0  0  0  0  0
  -19.6698  -27.3156   20.6708 H   0  0  0  0  0  0
  -17.4213  -26.6645   21.4023 H   0  0  0  0  0  0
  -18.0357  -26.0066   22.9007 H   0  0  0  0  0  0
  -19.7954  -30.7260   24.2266 H   0  0  0  0  0  0
  -17.5027  -31.6263   24.5144 H   0  0  0  0  0  0
  -15.5372  -30.2969   23.7642 H   0  0  0  0  0  0
  -15.8692  -28.0792   22.7078 H   0  0  0  0  0  0
  -24.5881  -30.7099   25.7749 H   0  0  0  0  0  0
  -24.8899  -32.2934   26.4824 H   0  0  0  0  0  0
  -25.7993  -30.8938   27.0242 H   0  0  0  0  0  0
  -26.2965  -29.6699   24.1283 H   0  0  0  0  0  0
  -27.3957  -29.7248   25.4845 H   0  0  0  0  0  0
  -27.8882  -30.4192   23.9598 H   0  0  0  0  0  0
  -27.2683  -33.3612   26.2082 H   0  0  0  0  0  0
  -28.3896  -32.6849   25.0351 H   0  0  0  0  0  0
  -28.0723  -31.8432   26.5437 H   0  0  0  0  0  0
  -28.2564  -38.0119   24.7523 H   0  0  0  0  0  0
  -28.1103  -36.2646   24.6227 H   0  0  0  0  0  0
  -27.2315  -37.1393   25.8855 H   0  0  0  0  0  0
  -20.9405  -29.8787   21.6844 H   0  0  0  0  0  0
  -26.0138  -38.2818   24.1409 H   0  0  0  0  0  0
  -28.1932  -16.6106   18.8047 H   0  0  0  0  0  0
  -30.7441  -18.4487   21.7478 H   0  0  0  0  0  0
  -30.9157  -21.4892   20.8507 H   0  0  0  0  0  0
  -29.7110  -21.3050   22.1231 H   0  0  0  0  0  0
  -27.1005  -21.5821   19.6322 H   0  0  0  0  0  0
  -28.3300  -21.7832   18.3778 H   0  0  0  0  0  0
  -26.7066  -17.0318   16.7909 H   0  0  0  0  0  0
  -25.1977  -17.8630   17.1802 H   0  0  0  0  0  0
  -26.0551  -16.9920   18.4398 H   0  0  0  0  0  0
  -27.0383  -24.5050   20.2859 H   0  0  0  0  0  0
  -28.0062  -24.6282   18.8366 H   0  0  0  0  0  0
  -28.9213  -15.5216   21.2377 H   0  0  0  0  0  0
  1 25  1  0  0  0
  1 30  2  0  0  0
  1 84  1  0  0  0
  2  3  1  0  0  0
  2 25  1  0  0  0
  2 87  1  0  0  0
  2 88  1  0  0  0
  3  4  1  0  0  0
  3 89  1  0  0  0
  3 90  1  0  0  0
  4  5  1  0  0  0
  4 91  1  0  0  0
  4 92  1  0  0  0
  5  6  1  0  0  0
  5 26  1  0  0  0
  5 93  1  0  0  0
  6 25  1  0  0  0
  6 94  1  0  0  0
  6 95  1  0  0  0
  7  8  2  0  0  0
  7 26  1  0  0  0
  7 29  1  0  0  0
  8  9  1  0  0  0
  8 22  1  0  0  0
  9 10  1  0  0  0
  9 27  2  0  0  0
 10 11  2  0  0  0
 10 15  1  0  0  0
 11 12  1  0  0  0
 11 96  1  0  0  0
 12 13  2  0  0  0
 12 97  1  0  0  0
 13 14  1  0  0  0
 13 31  1  0  0  0
 14 15  2  0  0  0
 14 98  1  0  0  0
 15 99  1  0  0  0
 16 17  2  0  0  0
 16 21  1  0  0  0
 16 31  1  0  0  0
 17 18  1  0  0  0
 17100  1  0  0  0
 18 19  2  0  0  0
 18101  1  0  0  0
 19 20  1  0  0  0
 19 24  1  0  0  0
 20 21  2  0  0  0
 20102  1  0  0  0
 21 23  1  0  0  0
 22 28  1  0  0  0
 22 32  2  0  0  0
 26 27  1  0  0  0
 28103  1  0  0  0
 28104  1  0  0  0
 29105  1  0  0  0
 29106  1  0  0  0
 33 34  1  0  0  0
 33 66  1  0  0  0
 33 70  2  0  0  0
 34 36  1  0  0  0
 34 59  1  0  0  0
 34107  1  0  0  0
 35 44  2  0  0  0
 35 45  1  0  0  0
 35 68  1  0  0  0
 36 56  1  0  0  0
 36108  1  0  0  0
 37 39  1  0  0  0
 37 47  1  0  0  0
 37 66  1  0  0  0
 37109  1  0  0  0
 38 43  2  0  0  0
 38 46  1  0  0  0
 38 47  1  0  0  0
 39 64  1  0  0  0
 39 67  2  0  0  0
 40 52  1  0  0  0
 40 53  2  0  0  0
 40 58  1  0  0  0
 41110  1  0  0  0
 41111  1  0  0  0
 41112  1  0  0  0
 41 48  1  0  0  0
 42 43  1  0  0  0
 42 66  1  0  0  0
 42113  1  0  0  0
 42114  1  0  0  0
 43 44  1  0  0  0
 44115  1  0  0  0
 45 46  2  0  0  0
 45116  1  0  0  0
 46117  1  0  0  0
 47118  1  0  0  0
 47119  1  0  0  0
 48 56  1  0  0  0
 48 65  1  0  0  0
 48120  1  0  0  0
 49 50  1  0  0  0
 49 53  1  0  0  0
 49 64  1  0  0  0
 49121  1  0  0  0
 50 51  1  0  0  0
 50122  1  0  0  0
 50123  1  0  0  0
 51 52  1  0  0  0
 51124  1  0  0  0
 51125  1  0  0  0
 52126  1  0  0  0
 52127  1  0  0  0
 53 54  1  0  0  0
 54 55  2  0  0  0
 54128  1  0  0  0
 55 57  1  0  0  0
 55129  1  0  0  0
 56 69  2  0  0  0
 57 58  2  0  0  0
 57130  1  0  0  0
 58131  1  0  0  0
 59 60  1  0  0  0
 59 61  1  0  0  0
 59 62  1  0  0  0
 60132  1  0  0  0
 60133  1  0  0  0
 60134  1  0  0  0
 61135  1  0  0  0
 61136  1  0  0  0
 61137  1  0  0  0
 62138  1  0  0  0
 62139  1  0  0  0
 62140  1  0  0  0
 63 65  1  0  0  0
 63141  1  0  0  0
 63142  1  0  0  0
 63143  1  0  0  0
 64144  1  0  0  0
 65145  1  0  0  0
 68 82  1  0  0  0
 71 73  2  0  0  0
 71 76  1  0  0  0
 71146  1  0  0  0
 72 74  1  0  0  0
 72 76  2  0  0  0
 72147  1  0  0  0
 73 75  1  0  0  0
 73 77  1  0  0  0
 74 75  2  0  0  0
 74 79  1  0  0  0
 75 80  1  0  0  0
 76 84  1  0  0  0
 77 81  1  0  0  0
 77 85  2  0  0  0
 78 82  1  0  0  0
 78 83  1  0  0  0
 78 86  2  0  0  0
 79 83  1  0  0  0
 79148  1  0  0  0
 79149  1  0  0  0
 80 83  1  0  0  0
 80150  1  0  0  0
 80151  1  0  0  0
 81152  1  0  0  0
 81153  1  0  0  0
 81154  1  0  0  0
 82155  1  0  0  0
 82156  1  0  0  0
 84157  1  0  0  0
M  ISO  4   1 100  68 101  82 101  84 100
M  END
> <chiral flag>
0

> <version>
0

> <s_m_source_file>
/data/baiqing/PycharmProjects/Reinvent-master-3.2/result/LINK_invent/BTK/process_docking_weight1_custom_product_contain_oxygen_bond_distance_aromatic_linkinvent_7_9_3/rearranged_h_0160.sdf

> <i_m_source_file_index>
44

> <r_mmod_Potential_Energy-OPLS-2005>
270.934204101562

> <r_mmod_Stretch_Energy-OPLS-2005>
153.072631835938

> <r_mmod_Bend_Energy-OPLS-2005>
228.261596679688

> <r_mmod_Torsional_Energy-OPLS-2005>
279.542266845703

> <r_mmod_Improper_Torsional_Energy-OPLS-2005>
6.71051168441772

> <r_mmod_Van_der_Waal_Energy-OPLS-2005>
128.610656738281

> <r_mmod_Electrostatic_Energy-OPLS-2005>
-379.104217529297

> <r_mmod_Solvation_Energy-OPLS-2005>
-266.035736083984

> <b_mmod_Minimization_Converged-OPLS-2005>
0

> <r_mmod_RMS_Derivative-OPLS-2005>
3.25342178344727

$$$$
45
                    3D
 Structure written by MMmdl.
163172  0  0  1  0            999 V2000
  -30.7041  -14.4906   20.5443 C   0  0  0  0  0  0
  -30.4322  -12.3177   19.4266 C   0  0  0  0  0  0
  -29.4960  -12.5165   18.2159 C   0  0  0  0  0  0
  -28.0194  -12.3807   18.6314 C   0  0  0  0  0  0
  -27.6656  -13.2132   19.8930 C   0  0  2  0  0  0
  -28.7149  -13.0027   21.0126 C   0  0  0  0  0  0
  -25.2545  -13.8149   20.5646 C   0  0  0  0  0  0
  -24.1800  -13.0429   20.9148 C   0  0  0  0  0  0
  -24.6387  -11.6901   20.8735 C   0  0  0  0  0  0
  -23.9069  -10.4264   21.0377 C   0  0  0  0  0  0
  -24.3604   -9.4183   21.9170 C   0  0  0  0  0  0
  -23.6269   -8.2213   22.0732 C   0  0  0  0  0  0
  -22.4237   -8.0274   21.3521 C   0  0  0  0  0  0
  -21.9879   -9.0271   20.4634 C   0  0  0  0  0  0
  -22.7228  -10.2145   20.3034 C   0  0  0  0  0  0
  -21.6861   -6.0712   22.5234 C   0  0  0  0  0  0
  -21.4032   -6.5608   23.8179 C   0  0  0  0  0  0
  -21.3664   -5.6757   24.9138 C   0  0  0  0  0  0
  -21.6054   -4.3020   24.7189 C   0  0  0  0  0  0
  -21.8821   -3.8123   23.4306 C   0  0  0  0  0  0
  -21.9200   -4.6939   22.3372 C   0  0  0  0  0  0
  -22.7825  -13.5221   21.1836 C   0  0  0  0  0  0
  -22.1638   -4.2134   21.0949 F   0  0  0  0  0  0
  -21.5664   -3.4506   25.7709 F   0  0  0  0  0  0
  -30.0472  -13.3006   20.4542 N   0  0  0  0  0  0
  -26.3039  -12.9358   20.3487 N   0  0  0  0  0  0
  -25.9338  -11.6520   20.5829 N   0  0  0  0  0  0
  -22.0471  -12.8191   22.0385 N   0  0  0  0  0  0
  -25.4317  -15.1845   20.3992 N   0  0  0  0  0  0
  -31.8378  -14.6730   20.0906 O   0  0  0  0  0  0
  -21.6621   -6.8846   21.4195 O   0  0  0  0  0  0
  -22.3513  -14.5537   20.6726 O   0  0  0  0  0  0
  -24.6157  -31.8667   23.2122 C   0  0  0  0  0  0
  -25.9055  -32.4820   23.8394 C   0  0  1  0  0  0
  -27.2310  -27.3995   20.0944 C   0  0  0  0  0  0
  -25.5913  -33.8627   24.2311 N   0  0  0  0  0  0
  -23.4038  -30.4933   21.5531 C   0  0  2  0  0  0
  -24.8484  -28.9582   20.1170 C   0  0  0  0  0  0
  -22.7422  -29.4651   22.5001 C   0  0  0  0  0  0
  -18.0266  -28.1378   22.8482 C   0  0  0  0  0  0
  -24.1502  -36.7297   23.2641 C   0  0  0  0  0  0
  -25.9388  -30.8215   21.3737 C   0  0  0  0  0  0
  -26.0107  -29.4550   20.7164 C   0  0  0  0  0  0
  -27.1990  -28.6825   20.7004 C   0  0  0  0  0  0
  -26.0340  -26.9265   19.4986 C   0  0  0  0  0  0
  -24.8566  -27.6955   19.5107 C   0  0  0  0  0  0
  -23.6124  -29.8289   20.1669 C   0  0  0  0  0  0
  -25.4119  -36.3106   24.0330 C   0  0  1  0  0  0
  -20.5859  -28.3663   23.1323 C   0  0  2  0  0  0
  -20.6761  -26.9392   22.5432 C   0  0  0  0  0  0
  -19.5752  -26.6377   21.5211 C   0  0  0  0  0  0
  -18.1917  -26.7930   22.1593 C   0  0  0  0  0  0
  -19.1516  -28.8827   23.2892 C   0  0  0  0  0  0
  -18.9442  -30.1441   23.8890 C   0  0  0  0  0  0
  -17.6455  -30.6592   24.0546 C   0  0  0  0  0  0
  -25.9042  -34.9472   23.5110 C   0  0  0  0  0  0
  -16.5339  -29.9087   23.6327 C   0  0  0  0  0  0
  -16.7266  -28.6495   23.0350 C   0  0  0  0  0  0
  -26.4474  -31.6628   25.0744 C   0  0  0  0  0  0
  -25.3739  -31.3757   26.1496 C   0  0  0  0  0  0
  -27.0298  -30.3055   24.6164 C   0  0  0  0  0  0
  -27.6043  -32.4363   25.7496 C   0  0  0  0  0  0
  -27.5586  -37.1805   24.8456 C   0  0  0  0  0  0
  -21.4135  -29.3037   22.3738 N   0  0  0  0  0  0
  -26.4295  -37.3792   23.9404 N   0  0  0  0  0  0
  -24.6703  -31.0768   22.1023 N   0  0  0  0  0  0
  -23.4186  -28.8177   23.3028 O   0  0  0  0  0  0
  -28.4236  -26.6842   20.1248 O   0  0  0  0  0  0
  -26.5588  -34.8913   22.4663 O   0  0  0  0  0  0
  -23.5344  -32.1416   23.7518 O   0  0  0  0  0  0
  -30.5042  -17.9599   20.9443 C   0  0  0  0  0  0
  -29.6539  -19.2999   19.0786 C   0  0  0  0  0  0
  -29.2072  -16.9071   19.1583 C   0  0  0  0  0  0
  -30.3484  -19.2234   20.3039 C   0  0  0  0  0  0
  -29.9236  -16.7953   20.3717 C   0  0  0  0  0  0
  -29.0786  -18.1502   18.5120 C   0  0  0  0  0  0
  -30.9369  -20.4520   20.8601 C   0  0  0  0  0  0
  -30.3842  -24.0835   20.8632 C   0  0  0  0  0  0
  -28.3380  -22.8415   20.0855 C   0  0  0  0  0  0
  -30.7854  -22.8383   21.6936 C   0  0  0  0  0  0
  -28.7385  -21.6680   21.0021 C   0  0  0  0  0  0
  -28.8632  -24.2118   20.5870 C   0  0  0  0  0  0
  -28.5355  -25.3511   19.5667 C   0  0  0  0  0  0
  -30.2163  -21.5876   21.1196 N   0  0  0  0  0  0
  -29.9790  -15.5197   21.0210 N   0  0  0  0  0  0
  -32.2483  -20.4440   21.0780 N   0  3  0  0  0  0
  -28.3933  -18.2423   17.3473 F   0  0  0  0  0  0
  -28.2220  -24.4744   21.7284 F   0  0  0  0  0  0
  -31.4716  -12.4302   19.1109 H   0  0  0  0  0  0
  -30.3544  -11.3059   19.8255 H   0  0  0  0  0  0
  -29.7253  -11.7931   17.4345 H   0  0  0  0  0  0
  -29.6686  -13.5025   17.7786 H   0  0  0  0  0  0
  -27.8231  -11.3240   18.8225 H   0  0  0  0  0  0
  -27.3720  -12.6675   17.8021 H   0  0  0  0  0  0
  -27.7036  -14.2609   19.6045 H   0  0  0  0  0  0
  -28.6861  -11.9716   21.3686 H   0  0  0  0  0  0
  -28.4857  -13.6151   21.8868 H   0  0  0  0  0  0
  -25.2727   -9.5695   22.4779 H   0  0  0  0  0  0
  -24.0007   -7.4566   22.7435 H   0  0  0  0  0  0
  -21.0812   -8.8800   19.8903 H   0  0  0  0  0  0
  -22.3663  -10.9710   19.6155 H   0  0  0  0  0  0
  -21.2011   -7.6115   23.9673 H   0  0  0  0  0  0
  -21.1496   -6.0484   25.9042 H   0  0  0  0  0  0
  -22.0609   -2.7596   23.2800 H   0  0  0  0  0  0
  -22.4049  -11.9818   22.4742 H   0  0  0  0  0  0
  -21.1134  -13.1293   22.2679 H   0  0  0  0  0  0
  -24.6827  -15.8552   20.5197 H   0  0  0  0  0  0
  -26.2984  -15.6116   20.0987 H   0  0  0  0  0  0
  -26.7147  -32.5516   23.1173 H   0  0  0  0  0  0
  -25.0111  -33.9790   25.0493 H   0  0  0  0  0  0
  -22.6925  -31.3108   21.4181 H   0  0  0  0  0  0
  -23.3763  -35.9633   23.3321 H   0  0  0  0  0  0
  -24.3595  -36.8894   22.2050 H   0  0  0  0  0  0
  -23.7257  -37.6502   23.6659 H   0  0  0  0  0  0
  -26.0696  -31.5889   20.6103 H   0  0  0  0  0  0
  -26.8202  -30.8639   22.0026 H   0  0  0  0  0  0
  -28.0998  -29.0619   21.1631 H   0  0  0  0  0  0
  -25.9406  -25.9668   19.0228 H   0  0  0  0  0  0
  -23.9590  -27.3038   19.0548 H   0  0  0  0  0  0
  -23.7340  -30.6049   19.4100 H   0  0  0  0  0  0
  -22.7298  -29.2592   19.8671 H   0  0  0  0  0  0
  -25.1296  -36.1961   25.0818 H   0  0  0  0  0  0
  -20.9920  -28.3237   24.1455 H   0  0  0  0  0  0
  -20.5670  -26.2243   23.3605 H   0  0  0  0  0  0
  -21.6642  -26.7461   22.1232 H   0  0  0  0  0  0
  -19.6910  -25.6289   21.1242 H   0  0  0  0  0  0
  -19.6704  -27.3175   20.6727 H   0  0  0  0  0  0
  -17.4184  -26.6700   21.3989 H   0  0  0  0  0  0
  -18.0292  -26.0092   22.8996 H   0  0  0  0  0  0
  -19.7916  -30.7255   24.2270 H   0  0  0  0  0  0
  -17.5008  -31.6273   24.5147 H   0  0  0  0  0  0
  -15.5345  -30.2967   23.7677 H   0  0  0  0  0  0
  -15.8665  -28.0824   22.7067 H   0  0  0  0  0  0
  -24.5881  -30.7142   25.7833 H   0  0  0  0  0  0
  -24.8980  -32.2930   26.4968 H   0  0  0  0  0  0
  -25.8087  -30.8895   27.0239 H   0  0  0  0  0  0
  -26.2845  -29.6834   24.1191 H   0  0  0  0  0  0
  -27.4000  -29.7296   25.4657 H   0  0  0  0  0  0
  -27.8728  -30.4351   23.9371 H   0  0  0  0  0  0
  -27.2651  -33.3648   26.2109 H   0  0  0  0  0  0
  -28.3820  -32.6948   25.0300 H   0  0  0  0  0  0
  -28.0757  -31.8478   26.5383 H   0  0  0  0  0  0
  -28.2599  -38.0107   24.7506 H   0  0  0  0  0  0
  -28.1082  -36.2628   24.6273 H   0  0  0  0  0  0
  -27.2317  -37.1464   25.8867 H   0  0  0  0  0  0
  -20.9285  -29.8736   21.6955 H   0  0  0  0  0  0
  -26.0171  -38.2871   24.1397 H   0  0  0  0  0  0
  -31.0553  -17.8939   21.8704 H   0  0  0  0  0  0
  -29.5532  -20.2442   18.5651 H   0  0  0  0  0  0
  -28.7445  -16.0456   18.7029 H   0  0  0  0  0  0
  -30.9269  -24.0495   19.9178 H   0  0  0  0  0  0
  -30.7341  -24.9812   21.3736 H   0  0  0  0  0  0
  -27.2503  -22.8704   20.0044 H   0  0  0  0  0  0
  -28.7096  -22.6460   19.0772 H   0  0  0  0  0  0
  -30.4195  -22.9357   22.7177 H   0  0  0  0  0  0
  -31.8731  -22.8051   21.7731 H   0  0  0  0  0  0
  -28.2789  -20.7445   20.6534 H   0  0  0  0  0  0
  -28.3246  -21.8231   22.0022 H   0  0  0  0  0  0
  -27.6878  -25.0456   18.9675 H   0  0  0  0  0  0
  -29.3369  -25.3942   18.8285 H   0  0  0  0  0  0
  -29.1151  -15.2257   21.4496 H   0  0  0  0  0  0
  -32.7863  -19.6362   20.7966 H   0  0  0  0  0  0
  -32.7440  -21.2499   21.4197 H   0  0  0  0  0  0
  1 25  1  0  0  0
  1 30  2  0  0  0
  1 85  1  0  0  0
  2  3  1  0  0  0
  2 25  1  0  0  0
  2 89  1  0  0  0
  2 90  1  0  0  0
  3  4  1  0  0  0
  3 91  1  0  0  0
  3 92  1  0  0  0
  4  5  1  0  0  0
  4 93  1  0  0  0
  4 94  1  0  0  0
  5  6  1  0  0  0
  5 26  1  0  0  0
  5 95  1  0  0  0
  6 25  1  0  0  0
  6 96  1  0  0  0
  6 97  1  0  0  0
  7  8  2  0  0  0
  7 26  1  0  0  0
  7 29  1  0  0  0
  8  9  1  0  0  0
  8 22  1  0  0  0
  9 10  1  0  0  0
  9 27  2  0  0  0
 10 11  2  0  0  0
 10 15  1  0  0  0
 11 12  1  0  0  0
 11 98  1  0  0  0
 12 13  2  0  0  0
 12 99  1  0  0  0
 13 14  1  0  0  0
 13 31  1  0  0  0
 14 15  2  0  0  0
 14100  1  0  0  0
 15101  1  0  0  0
 16 17  2  0  0  0
 16 21  1  0  0  0
 16 31  1  0  0  0
 17 18  1  0  0  0
 17102  1  0  0  0
 18 19  2  0  0  0
 18103  1  0  0  0
 19 20  1  0  0  0
 19 24  1  0  0  0
 20 21  2  0  0  0
 20104  1  0  0  0
 21 23  1  0  0  0
 22 28  1  0  0  0
 22 32  2  0  0  0
 26 27  1  0  0  0
 28105  1  0  0  0
 28106  1  0  0  0
 29107  1  0  0  0
 29108  1  0  0  0
 33 34  1  0  0  0
 33 66  1  0  0  0
 33 70  2  0  0  0
 34 36  1  0  0  0
 34 59  1  0  0  0
 34109  1  0  0  0
 35 44  2  0  0  0
 35 45  1  0  0  0
 35 68  1  0  0  0
 36 56  1  0  0  0
 36110  1  0  0  0
 37 39  1  0  0  0
 37 47  1  0  0  0
 37 66  1  0  0  0
 37111  1  0  0  0
 38 43  2  0  0  0
 38 46  1  0  0  0
 38 47  1  0  0  0
 39 64  1  0  0  0
 39 67  2  0  0  0
 40 52  1  0  0  0
 40 53  2  0  0  0
 40 58  1  0  0  0
 41112  1  0  0  0
 41113  1  0  0  0
 41114  1  0  0  0
 41 48  1  0  0  0
 42 43  1  0  0  0
 42 66  1  0  0  0
 42115  1  0  0  0
 42116  1  0  0  0
 43 44  1  0  0  0
 44117  1  0  0  0
 45 46  2  0  0  0
 45118  1  0  0  0
 46119  1  0  0  0
 47120  1  0  0  0
 47121  1  0  0  0
 48 56  1  0  0  0
 48 65  1  0  0  0
 48122  1  0  0  0
 49 50  1  0  0  0
 49 53  1  0  0  0
 49 64  1  0  0  0
 49123  1  0  0  0
 50 51  1  0  0  0
 50124  1  0  0  0
 50125  1  0  0  0
 51 52  1  0  0  0
 51126  1  0  0  0
 51127  1  0  0  0
 52128  1  0  0  0
 52129  1  0  0  0
 53 54  1  0  0  0
 54 55  2  0  0  0
 54130  1  0  0  0
 55 57  1  0  0  0
 55131  1  0  0  0
 56 69  2  0  0  0
 57 58  2  0  0  0
 57132  1  0  0  0
 58133  1  0  0  0
 59 60  1  0  0  0
 59 61  1  0  0  0
 59 62  1  0  0  0
 60134  1  0  0  0
 60135  1  0  0  0
 60136  1  0  0  0
 61137  1  0  0  0
 61138  1  0  0  0
 61139  1  0  0  0
 62140  1  0  0  0
 62141  1  0  0  0
 62142  1  0  0  0
 63 65  1  0  0  0
 63143  1  0  0  0
 63144  1  0  0  0
 63145  1  0  0  0
 64146  1  0  0  0
 65147  1  0  0  0
 68 83  1  0  0  0
 71 74  2  0  0  0
 71 75  1  0  0  0
 71148  1  0  0  0
 72 74  1  0  0  0
 72 76  2  0  0  0
 72149  1  0  0  0
 73 75  2  0  0  0
 73 76  1  0  0  0
 73150  1  0  0  0
 74 77  1  0  0  0
 75 85  1  0  0  0
 76 87  1  0  0  0
 77 84  1  0  0  0
 77 86  2  0  0  0
 78 80  1  0  0  0
 78 82  1  0  0  0
 78151  1  0  0  0
 78152  1  0  0  0
 79 81  1  0  0  0
 79 82  1  0  0  0
 79153  1  0  0  0
 79154  1  0  0  0
 80 84  1  0  0  0
 80155  1  0  0  0
 80156  1  0  0  0
 81 84  1  0  0  0
 81157  1  0  0  0
 81158  1  0  0  0
 82 83  1  0  0  0
 82 88  1  0  0  0
 83159  1  0  0  0
 83160  1  0  0  0
 85161  1  0  0  0
 86162  1  0  0  0
 86163  1  0  0  0
M  CHG  1  86   1
M  ISO  4   1 100  68 101  83 101  85 100
M  END
> <chiral flag>
0

> <version>
0

> <s_m_source_file>
/data/baiqing/PycharmProjects/Reinvent-master-3.2/result/LINK_invent/BTK/process_docking_weight1_custom_product_contain_oxygen_bond_distance_aromatic_linkinvent_7_9_3/rearranged_h_0160.sdf

> <i_m_source_file_index>
45

> <r_mmod_Potential_Energy-OPLS-2005>
-206.562240600586

> <r_mmod_Stretch_Energy-OPLS-2005>
46.2418518066406

> <r_mmod_Bend_Energy-OPLS-2005>
118.580177307129

> <r_mmod_Torsional_Energy-OPLS-2005>
288.369476318359

> <r_mmod_Improper_Torsional_Energy-OPLS-2005>
6.86121368408203

> <r_mmod_Van_der_Waal_Energy-OPLS-2005>
163.72444152832

> <r_mmod_Electrostatic_Energy-OPLS-2005>
-429.608459472656

> <r_mmod_Solvation_Energy-OPLS-2005>
-417.21875

> <b_mmod_Minimization_Converged-OPLS-2005>
0

> <r_mmod_RMS_Derivative-OPLS-2005>
4.72809410095215

$$$$
46
                    3D
 Structure written by MMmdl.
159168  0  0  1  0            999 V2000
  -30.5714  -14.6910   20.5126 C   0  0  0  0  0  0
  -30.4500  -12.4266   19.4649 C   0  0  0  0  0  0
  -29.5187  -12.5286   18.2338 C   0  0  0  0  0  0
  -28.0404  -12.3535   18.6380 C   0  0  0  0  0  0
  -27.6559  -13.2144   19.8695 C   0  0  2  0  0  0
  -28.6972  -13.0597   21.0012 C   0  0  0  0  0  0
  -25.2573  -13.8157   20.5668 C   0  0  0  0  0  0
  -24.1829  -13.0436   20.9163 C   0  0  0  0  0  0
  -24.6382  -11.6902   20.8713 C   0  0  0  0  0  0
  -23.9039  -10.4292   21.0391 C   0  0  0  0  0  0
  -24.3596   -9.4220   21.9176 C   0  0  0  0  0  0
  -23.6278   -8.2255   22.0754 C   0  0  0  0  0  0
  -22.4263   -8.0282   21.3541 C   0  0  0  0  0  0
  -21.9885   -9.0249   20.4645 C   0  0  0  0  0  0
  -22.7208  -10.2133   20.3047 C   0  0  0  0  0  0
  -21.6857   -6.0725   22.5274 C   0  0  0  0  0  0
  -21.4021   -6.5629   23.8205 C   0  0  0  0  0  0
  -21.3662   -5.6782   24.9165 C   0  0  0  0  0  0
  -21.6044   -4.3045   24.7221 C   0  0  0  0  0  0
  -21.8822   -3.8136   23.4341 C   0  0  0  0  0  0
  -21.9196   -4.6955   22.3395 C   0  0  0  0  0  0
  -22.7853  -13.5250   21.1828 C   0  0  0  0  0  0
  -22.1665   -4.2137   21.0971 F   0  0  0  0  0  0
  -21.5625   -3.4531   25.7738 F   0  0  0  0  0  0
  -30.0107  -13.4366   20.4517 N   0  0  0  0  0  0
  -26.2996  -12.9325   20.3318 N   0  0  0  0  0  0
  -25.9315  -11.6486   20.5735 N   0  0  0  0  0  0
  -22.0473  -12.8263   22.0382 N   0  0  0  0  0  0
  -25.4314  -15.1877   20.4074 N   0  0  0  0  0  0
  -31.6996  -14.9065   20.0580 O   0  0  0  0  0  0
  -21.6636   -6.8873   21.4236 O   0  0  0  0  0  0
  -22.3561  -14.5564   20.6686 O   0  0  0  0  0  0
  -24.6277  -31.8566   23.1997 C   0  0  0  0  0  0
  -25.9117  -32.4759   23.8334 C   0  0  1  0  0  0
  -27.2254  -27.2869   20.1065 C   0  0  0  0  0  0
  -25.5926  -33.8559   24.2261 N   0  0  0  0  0  0
  -23.4225  -30.4794   21.5424 C   0  0  2  0  0  0
  -24.8677  -28.9299   20.1071 C   0  0  0  0  0  0
  -22.7477  -29.4603   22.4916 C   0  0  0  0  0  0
  -18.0286  -28.1388   22.8482 C   0  0  0  0  0  0
  -24.1490  -36.7284   23.2643 C   0  0  0  0  0  0
  -25.9661  -30.7754   21.3775 C   0  0  0  0  0  0
  -26.0370  -29.4016   20.7143 C   0  0  0  0  0  0
  -27.2122  -28.5894   20.7067 C   0  0  0  0  0  0
  -26.0243  -26.8697   19.4909 C   0  0  0  0  0  0
  -24.8648  -27.6700   19.4889 C   0  0  0  0  0  0
  -23.6375  -29.8144   20.1572 C   0  0  0  0  0  0
  -25.4116  -36.3071   24.0327 C   0  0  1  0  0  0
  -20.5884  -28.3689   23.1276 C   0  0  2  0  0  0
  -20.6776  -26.9408   22.5410 C   0  0  0  0  0  0
  -19.5751  -26.6380   21.5212 C   0  0  0  0  0  0
  -18.1929  -26.7932   22.1620 C   0  0  0  0  0  0
  -19.1539  -28.8856   23.2875 C   0  0  0  0  0  0
  -18.9463  -30.1458   23.8894 C   0  0  0  0  0  0
  -17.6462  -30.6587   24.0561 C   0  0  0  0  0  0
  -25.9051  -34.9442   23.5096 C   0  0  0  0  0  0
  -16.5354  -29.9084   23.6329 C   0  0  0  0  0  0
  -16.7273  -28.6503   23.0348 C   0  0  0  0  0  0
  -26.4491  -31.6584   25.0723 C   0  0  0  0  0  0
  -25.3717  -31.3730   26.1449 C   0  0  0  0  0  0
  -27.0339  -30.3001   24.6211 C   0  0  0  0  0  0
  -27.6048  -32.4321   25.7488 C   0  0  0  0  0  0
  -27.5572  -37.1805   24.8462 C   0  0  0  0  0  0
  -21.4188  -29.3044   22.3669 N   0  0  0  0  0  0
  -26.4294  -37.3765   23.9394 N   0  0  0  0  0  0
  -24.6906  -31.0552   22.0959 N   0  0  0  0  0  0
  -23.4193  -28.8145   23.3004 O   0  0  0  0  0  0
  -28.3674  -26.4608   20.1844 O   0  0  0  0  0  0
  -26.5620  -34.8911   22.4662 O   0  0  0  0  0  0
  -23.5436  -32.1381   23.7310 O   0  0  0  0  0  0
  -28.4545  -19.1520   21.7778 C   0  0  0  0  0  0
  -30.0338  -17.9725   19.8047 C   0  0  0  0  0  0
  -28.7885  -19.9822   20.6709 C   0  0  0  0  0  0
  -29.6155  -17.1344   20.8857 C   0  0  0  0  0  0
  -28.8347  -17.7853   21.8731 C   0  0  0  0  0  0
  -29.6260  -19.3548   19.6952 C   0  0  0  0  0  0
  -27.7346  -23.8784   20.1673 C   0  0  0  0  0  0
  -28.0636  -21.3309   20.5497 C   0  0  0  0  0  0
  -29.9580  -24.5624   19.9734 C   0  0  0  0  0  0
  -29.9112  -23.0067   19.9527 C   0  0  0  0  0  0
  -28.5566  -25.0915   19.5909 C   0  0  2  0  0  0
  -28.4563  -25.1588   18.0481 C   0  0  0  0  0  0
  -28.5240  -22.6196   20.2550 N   0  0  0  0  0  0
  -29.7705  -15.6750   21.0392 N   0  0  0  0  0  0
  -26.7500  -21.2247   20.7882 N   0  3  0  0  0  0
  -26.5368  -23.9388   20.4655 O   0  0  0  0  0  0
  -28.3861  -17.0600   22.9267 F   0  0  0  0  0  0
  -29.9895  -20.0547   18.5932 F   0  0  0  0  0  0
  -31.4898  -12.5721   19.1670 H   0  0  0  0  0  0
  -30.4017  -11.4278   19.9016 H   0  0  0  0  0  0
  -29.7926  -11.7807   17.4888 H   0  0  0  0  0  0
  -29.6543  -13.4998   17.7548 H   0  0  0  0  0  0
  -27.8804  -11.2982   18.8625 H   0  0  0  0  0  0
  -27.3895  -12.5891   17.7946 H   0  0  0  0  0  0
  -27.6755  -14.2513   19.5373 H   0  0  0  0  0  0
  -28.7209  -12.0289   21.3568 H   0  0  0  0  0  0
  -28.4227  -13.6591   21.8703 H   0  0  0  0  0  0
  -25.2739   -9.5707   22.4748 H   0  0  0  0  0  0
  -23.9990   -7.4651   22.7482 H   0  0  0  0  0  0
  -21.0808   -8.8762   19.8956 H   0  0  0  0  0  0
  -22.3654  -10.9667   19.6159 H   0  0  0  0  0  0
  -21.2016   -7.6138   23.9704 H   0  0  0  0  0  0
  -21.1478   -6.0510   25.9065 H   0  0  0  0  0  0
  -22.0599   -2.7597   23.2844 H   0  0  0  0  0  0
  -22.4057  -11.9928   22.4803 H   0  0  0  0  0  0
  -21.1097  -13.1330   22.2557 H   0  0  0  0  0  0
  -24.6627  -15.8428   20.5008 H   0  0  0  0  0  0
  -26.2777  -15.6175   20.0578 H   0  0  0  0  0  0
  -26.7181  -32.5412   23.1071 H   0  0  0  0  0  0
  -25.0052  -33.9693   25.0394 H   0  0  0  0  0  0
  -22.7171  -31.3005   21.3989 H   0  0  0  0  0  0
  -23.3745  -35.9626   23.3326 H   0  0  0  0  0  0
  -24.3575  -36.8883   22.2053 H   0  0  0  0  0  0
  -23.7255  -37.6496   23.6655 H   0  0  0  0  0  0
  -26.1083  -31.5417   20.6148 H   0  0  0  0  0  0
  -26.8424  -30.8174   22.0127 H   0  0  0  0  0  0
  -28.1079  -28.9442   21.1979 H   0  0  0  0  0  0
  -25.9355  -25.8995   19.0325 H   0  0  0  0  0  0
  -23.9649  -27.2979   19.0185 H   0  0  0  0  0  0
  -23.7557  -30.5921   19.4013 H   0  0  0  0  0  0
  -22.7567  -29.2452   19.8550 H   0  0  0  0  0  0
  -25.1303  -36.1923   25.0822 H   0  0  0  0  0  0
  -20.9972  -28.3278   24.1397 H   0  0  0  0  0  0
  -20.5670  -26.2297   23.3612 H   0  0  0  0  0  0
  -21.6647  -26.7432   22.1208 H   0  0  0  0  0  0
  -19.6907  -25.6291   21.1241 H   0  0  0  0  0  0
  -19.6688  -27.3190   20.6742 H   0  0  0  0  0  0
  -17.4192  -26.6670   21.4029 H   0  0  0  0  0  0
  -18.0329  -26.0078   22.9018 H   0  0  0  0  0  0
  -19.7940  -30.7275   24.2259 H   0  0  0  0  0  0
  -17.5016  -31.6265   24.5160 H   0  0  0  0  0  0
  -15.5354  -30.2981   23.7657 H   0  0  0  0  0  0
  -15.8674  -28.0819   22.7063 H   0  0  0  0  0  0
  -24.5883  -30.7091   25.7779 H   0  0  0  0  0  0
  -24.8921  -32.2897   26.4887 H   0  0  0  0  0  0
  -25.8037  -30.8892   27.0218 H   0  0  0  0  0  0
  -26.2927  -29.6745   24.1226 H   0  0  0  0  0  0
  -27.4008  -29.7270   25.4736 H   0  0  0  0  0  0
  -27.8809  -30.4277   23.9467 H   0  0  0  0  0  0
  -27.2666  -33.3623   26.2063 H   0  0  0  0  0  0
  -28.3859  -32.6874   25.0316 H   0  0  0  0  0  0
  -28.0718  -31.8448   26.5404 H   0  0  0  0  0  0
  -28.2608  -38.0083   24.7482 H   0  0  0  0  0  0
  -28.1047  -36.2612   24.6325 H   0  0  0  0  0  0
  -27.2280  -37.1501   25.8864 H   0  0  0  0  0  0
  -20.9360  -29.8770   21.6887 H   0  0  0  0  0  0
  -26.0173  -38.2844   24.1376 H   0  0  0  0  0  0
  -27.8236  -19.5453   22.5615 H   0  0  0  0  0  0
  -30.6193  -17.5444   19.0055 H   0  0  0  0  0  0
  -30.7297  -24.9375   19.3011 H   0  0  0  0  0  0
  -30.2297  -24.9036   20.9730 H   0  0  0  0  0  0
  -30.6182  -22.5813   20.6671 H   0  0  0  0  0  0
  -30.1762  -22.6323   18.9629 H   0  0  0  0  0  0
  -28.5604  -24.1710   17.5969 H   0  0  0  0  0  0
  -29.2475  -25.7857   17.6368 H   0  0  0  0  0  0
  -27.5165  -25.5643   17.6852 H   0  0  0  0  0  0
  -29.0318  -15.2832   21.6030 H   0  0  0  0  0  0
  -26.3178  -20.3287   20.9495 H   0  0  0  0  0  0
  -26.1794  -22.0627   20.7595 H   0  0  0  0  0  0
  1 25  1  0  0  0
  1 30  2  0  0  0
  1 84  1  0  0  0
  2  3  1  0  0  0
  2 25  1  0  0  0
  2 89  1  0  0  0
  2 90  1  0  0  0
  3  4  1  0  0  0
  3 91  1  0  0  0
  3 92  1  0  0  0
  4  5  1  0  0  0
  4 93  1  0  0  0
  4 94  1  0  0  0
  5  6  1  0  0  0
  5 26  1  0  0  0
  5 95  1  0  0  0
  6 25  1  0  0  0
  6 96  1  0  0  0
  6 97  1  0  0  0
  7  8  2  0  0  0
  7 26  1  0  0  0
  7 29  1  0  0  0
  8  9  1  0  0  0
  8 22  1  0  0  0
  9 10  1  0  0  0
  9 27  2  0  0  0
 10 11  2  0  0  0
 10 15  1  0  0  0
 11 12  1  0  0  0
 11 98  1  0  0  0
 12 13  2  0  0  0
 12 99  1  0  0  0
 13 14  1  0  0  0
 13 31  1  0  0  0
 14 15  2  0  0  0
 14100  1  0  0  0
 15101  1  0  0  0
 16 17  2  0  0  0
 16 21  1  0  0  0
 16 31  1  0  0  0
 17 18  1  0  0  0
 17102  1  0  0  0
 18 19  2  0  0  0
 18103  1  0  0  0
 19 20  1  0  0  0
 19 24  1  0  0  0
 20 21  2  0  0  0
 20104  1  0  0  0
 21 23  1  0  0  0
 22 28  1  0  0  0
 22 32  2  0  0  0
 26 27  1  0  0  0
 28105  1  0  0  0
 28106  1  0  0  0
 29107  1  0  0  0
 29108  1  0  0  0
 33 34  1  0  0  0
 33 66  1  0  0  0
 33 70  2  0  0  0
 34 36  1  0  0  0
 34 59  1  0  0  0
 34109  1  0  0  0
 35 44  2  0  0  0
 35 45  1  0  0  0
 35 68  1  0  0  0
 36 56  1  0  0  0
 36110  1  0  0  0
 37 39  1  0  0  0
 37 47  1  0  0  0
 37 66  1  0  0  0
 37111  1  0  0  0
 38 43  2  0  0  0
 38 46  1  0  0  0
 38 47  1  0  0  0
 39 64  1  0  0  0
 39 67  2  0  0  0
 40 52  1  0  0  0
 40 53  2  0  0  0
 40 58  1  0  0  0
 41112  1  0  0  0
 41113  1  0  0  0
 41114  1  0  0  0
 41 48  1  0  0  0
 42 43  1  0  0  0
 42 66  1  0  0  0
 42115  1  0  0  0
 42116  1  0  0  0
 43 44  1  0  0  0
 44117  1  0  0  0
 45 46  2  0  0  0
 45118  1  0  0  0
 46119  1  0  0  0
 47120  1  0  0  0
 47121  1  0  0  0
 48 56  1  0  0  0
 48 65  1  0  0  0
 48122  1  0  0  0
 49 50  1  0  0  0
 49 53  1  0  0  0
 49 64  1  0  0  0
 49123  1  0  0  0
 50 51  1  0  0  0
 50124  1  0  0  0
 50125  1  0  0  0
 51 52  1  0  0  0
 51126  1  0  0  0
 51127  1  0  0  0
 52128  1  0  0  0
 52129  1  0  0  0
 53 54  1  0  0  0
 54 55  2  0  0  0
 54130  1  0  0  0
 55 57  1  0  0  0
 55131  1  0  0  0
 56 69  2  0  0  0
 57 58  2  0  0  0
 57132  1  0  0  0
 58133  1  0  0  0
 59 60  1  0  0  0
 59 61  1  0  0  0
 59 62  1  0  0  0
 60134  1  0  0  0
 60135  1  0  0  0
 60136  1  0  0  0
 61137  1  0  0  0
 61138  1  0  0  0
 61139  1  0  0  0
 62140  1  0  0  0
 62141  1  0  0  0
 62142  1  0  0  0
 63 65  1  0  0  0
 63143  1  0  0  0
 63144  1  0  0  0
 63145  1  0  0  0
 64146  1  0  0  0
 65147  1  0  0  0
 68 81  1  0  0  0
 71 73  2  0  0  0
 71 75  1  0  0  0
 71148  1  0  0  0
 72 74  1  0  0  0
 72 76  2  0  0  0
 72149  1  0  0  0
 73 76  1  0  0  0
 73 78  1  0  0  0
 74 75  2  0  0  0
 74 84  1  0  0  0
 75 87  1  0  0  0
 76 88  1  0  0  0
 77 81  1  0  0  0
 77 83  1  0  0  0
 77 86  2  0  0  0
 78 83  1  0  0  0
 78 85  2  0  0  0
 79 80  1  0  0  0
 79 81  1  0  0  0
 79150  1  0  0  0
 79151  1  0  0  0
 80 83  1  0  0  0
 80152  1  0  0  0
 80153  1  0  0  0
 81 82  1  0  0  0
 82154  1  0  0  0
 82155  1  0  0  0
 82156  1  0  0  0
 84157  1  0  0  0
 85158  1  0  0  0
 85159  1  0  0  0
M  CHG  1  85   1
M  ISO  4   1 100  68 101  81 101  84 100
M  END
> <chiral flag>
0

> <version>
0

> <s_m_source_file>
/data/baiqing/PycharmProjects/Reinvent-master-3.2/result/LINK_invent/BTK/process_docking_weight1_custom_product_contain_oxygen_bond_distance_aromatic_linkinvent_7_9_3/rearranged_h_0160.sdf

> <i_m_source_file_index>
46

> <r_mmod_Potential_Energy-OPLS-2005>
-73.636833190918

> <r_mmod_Stretch_Energy-OPLS-2005>
102.918930053711

> <r_mmod_Bend_Energy-OPLS-2005>
236.673812866211

> <r_mmod_Torsional_Energy-OPLS-2005>
251.496459960938

> <r_mmod_Improper_Torsional_Energy-OPLS-2005>
4.96178674697876

> <r_mmod_Van_der_Waal_Energy-OPLS-2005>
150.175689697266

> <r_mmod_Electrostatic_Energy-OPLS-2005>
-464.807281494141

> <r_mmod_Solvation_Energy-OPLS-2005>
-419.153839111328

> <b_mmod_Minimization_Converged-OPLS-2005>
0

> <r_mmod_RMS_Derivative-OPLS-2005>
1.38585937023163

$$$$
47
                    3D
 Structure written by MMmdl.
155163  0  0  1  0            999 V2000
  -30.5965  -14.7369   20.4056 C   0  0  0  0  0  0
  -30.4214  -12.4406   19.4654 C   0  0  0  0  0  0
  -29.5025  -12.5105   18.2295 C   0  0  0  0  0  0
  -28.0258  -12.3552   18.6382 C   0  0  0  0  0  0
  -27.6391  -13.2368   19.8577 C   0  0  2  0  0  0
  -28.6853  -13.1504   20.9863 C   0  0  0  0  0  0
  -25.2517  -13.8252   20.5708 C   0  0  0  0  0  0
  -24.1852  -13.0461   20.9210 C   0  0  0  0  0  0
  -24.6443  -11.6937   20.8699 C   0  0  0  0  0  0
  -23.9094  -10.4322   21.0366 C   0  0  0  0  0  0
  -24.3643   -9.4258   21.9162 C   0  0  0  0  0  0
  -23.6327   -8.2278   22.0732 C   0  0  0  0  0  0
  -22.4293   -8.0305   21.3541 C   0  0  0  0  0  0
  -21.9916   -9.0268   20.4617 C   0  0  0  0  0  0
  -22.7234  -10.2158   20.3037 C   0  0  0  0  0  0
  -21.6888   -6.0756   22.5277 C   0  0  0  0  0  0
  -21.4030   -6.5650   23.8214 C   0  0  0  0  0  0
  -21.3672   -5.6779   24.9170 C   0  0  0  0  0  0
  -21.6060   -4.3051   24.7215 C   0  0  0  0  0  0
  -21.8839   -3.8161   23.4330 C   0  0  0  0  0  0
  -21.9220   -4.6976   22.3392 C   0  0  0  0  0  0
  -22.7872  -13.5190   21.1923 C   0  0  0  0  0  0
  -22.1694   -4.2170   21.0965 F   0  0  0  0  0  0
  -21.5605   -3.4525   25.7721 F   0  0  0  0  0  0
  -29.9807  -13.5051   20.3954 N   0  0  0  0  0  0
  -26.2932  -12.9468   20.3348 N   0  0  0  0  0  0
  -25.9380  -11.6578   20.5746 N   0  0  0  0  0  0
  -22.0556  -12.8106   22.0445 N   0  0  0  0  0  0
  -25.4169  -15.1993   20.4110 N   0  0  0  0  0  0
  -31.8045  -14.7882   20.1503 O   0  0  0  0  0  0
  -21.6665   -6.8896   21.4237 O   0  0  0  0  0  0
  -22.3548  -14.5520   20.6803 O   0  0  0  0  0  0
  -24.6320  -31.8584   23.2039 C   0  0  0  0  0  0
  -25.9146  -32.4767   23.8359 C   0  0  1  0  0  0
  -27.2204  -27.2485   20.1495 C   0  0  0  0  0  0
  -25.5965  -33.8579   24.2269 N   0  0  0  0  0  0
  -23.4297  -30.4749   21.5463 C   0  0  2  0  0  0
  -24.8811  -28.9129   20.1293 C   0  0  0  0  0  0
  -22.7489  -29.4615   22.4987 C   0  0  0  0  0  0
  -18.0294  -28.1407   22.8521 C   0  0  0  0  0  0
  -24.1507  -36.7252   23.2639 C   0  0  0  0  0  0
  -25.9770  -30.7559   21.4010 C   0  0  0  0  0  0
  -26.0486  -29.3743   20.7488 C   0  0  0  0  0  0
  -27.2184  -28.5488   20.7625 C   0  0  0  0  0  0
  -26.0419  -26.8638   19.4843 C   0  0  0  0  0  0
  -24.8793  -27.6605   19.4942 C   0  0  0  0  0  0
  -23.6536  -29.8050   20.1665 C   0  0  0  0  0  0
  -25.4138  -36.3065   24.0329 C   0  0  1  0  0  0
  -20.5912  -28.3719   23.1319 C   0  0  2  0  0  0
  -20.6842  -26.9463   22.5441 C   0  0  0  0  0  0
  -19.5803  -26.6410   21.5269 C   0  0  0  0  0  0
  -18.1958  -26.7964   22.1653 C   0  0  0  0  0  0
  -19.1550  -28.8876   23.2905 C   0  0  0  0  0  0
  -18.9467  -30.1503   23.8903 C   0  0  0  0  0  0
  -17.6467  -30.6614   24.0584 C   0  0  0  0  0  0
  -25.9083  -34.9442   23.5088 C   0  0  0  0  0  0
  -16.5354  -29.9108   23.6373 C   0  0  0  0  0  0
  -16.7289  -28.6534   23.0371 C   0  0  0  0  0  0
  -26.4521  -31.6571   25.0736 C   0  0  0  0  0  0
  -25.3668  -31.3747   26.1378 C   0  0  0  0  0  0
  -27.0412  -30.2983   24.6295 C   0  0  0  0  0  0
  -27.6090  -32.4299   25.7477 C   0  0  0  0  0  0
  -27.5607  -37.1778   24.8458 C   0  0  0  0  0  0
  -21.4212  -29.3033   22.3657 N   0  0  0  0  0  0
  -26.4303  -37.3778   23.9408 N   0  0  0  0  0  0
  -24.6952  -31.0516   22.1028 N   0  0  0  0  0  0
  -23.4179  -28.8185   23.3105 O   0  0  0  0  0  0
  -28.3262  -26.3688   20.0670 O   0  0  0  0  0  0
  -26.5653  -34.8919   22.4662 O   0  0  0  0  0  0
  -23.5457  -32.1409   23.7322 O   0  0  0  0  0  0
  -31.2001  -18.7040   18.4012 C   0  0  0  0  0  0
  -30.9854  -17.4547   19.0001 C   0  0  0  0  0  0
  -30.4252  -19.8246   18.7680 C   0  0  0  0  0  0
  -29.4867  -19.6914   19.8337 C   0  0  0  0  0  0
  -30.0220  -17.2769   20.0081 C   0  0  0  0  0  0
  -29.1308  -22.4199   20.4948 C   0  0  0  0  0  0
  -27.1968  -24.9192   21.7565 C   0  0  0  0  0  0
  -28.4206  -23.7678   19.9461 C   0  0  0  0  0  0
  -28.5456  -20.9367   20.2523 C   0  0  0  0  0  0
  -29.2993  -18.4115   20.3947 N   0  0  0  0  0  0
  -30.6018  -20.9927   18.0079 N   0  0  0  0  0  0
  -29.8075  -15.8854   20.5049 N   0  0  0  0  0  0
  -28.3288  -25.0100   20.8288 N   0  0  0  0  0  0
  -30.1453  -22.5525   21.1916 O   0  0  0  0  0  0
  -27.9435  -20.5838   21.3923 F   0  0  0  0  0  0
  -27.5796  -21.0074   19.3347 F   0  0  0  0  0  0
  -31.4630  -12.5542   19.1594 H   0  0  0  0  0  0
  -30.3591  -11.4636   19.9486 H   0  0  0  0  0  0
  -29.7662  -11.7337   17.5096 H   0  0  0  0  0  0
  -29.6500  -13.4694   17.7275 H   0  0  0  0  0  0
  -27.8507  -11.3036   18.8670 H   0  0  0  0  0  0
  -27.3895  -12.5922   17.7842 H   0  0  0  0  0  0
  -27.6372  -14.2672   19.5011 H   0  0  0  0  0  0
  -28.7230  -12.1456   21.4055 H   0  0  0  0  0  0
  -28.4325  -13.8167   21.8142 H   0  0  0  0  0  0
  -25.2808   -9.5747   22.4722 H   0  0  0  0  0  0
  -24.0054   -7.4666   22.7458 H   0  0  0  0  0  0
  -21.0858   -8.8787   19.8897 H   0  0  0  0  0  0
  -22.3707  -10.9694   19.6136 H   0  0  0  0  0  0
  -21.2026   -7.6148   23.9708 H   0  0  0  0  0  0
  -21.1471   -6.0521   25.9062 H   0  0  0  0  0  0
  -22.0613   -2.7617   23.2834 H   0  0  0  0  0  0
  -22.4187  -11.9718   22.4708 H   0  0  0  0  0  0
  -21.1162  -13.1109   22.2683 H   0  0  0  0  0  0
  -24.6491  -15.8484   20.5445 H   0  0  0  0  0  0
  -26.2581  -15.6494   20.0719 H   0  0  0  0  0  0
  -26.7198  -32.5415   23.1075 H   0  0  0  0  0  0
  -25.0132  -33.9708   25.0423 H   0  0  0  0  0  0
  -22.7280  -31.2978   21.3999 H   0  0  0  0  0  0
  -23.3826  -35.9532   23.3255 H   0  0  0  0  0  0
  -24.3609  -36.8917   22.2073 H   0  0  0  0  0  0
  -23.7205  -37.6412   23.6681 H   0  0  0  0  0  0
  -26.1294  -31.5206   20.6366 H   0  0  0  0  0  0
  -26.8420  -30.7935   22.0475 H   0  0  0  0  0  0
  -28.1116  -28.8982   21.2617 H   0  0  0  0  0  0
  -26.0256  -25.9157   18.9722 H   0  0  0  0  0  0
  -23.9866  -27.2989   19.0001 H   0  0  0  0  0  0
  -23.7896  -30.5785   19.4126 H   0  0  0  0  0  0
  -22.7717  -29.2453   19.8569 H   0  0  0  0  0  0
  -25.1337  -36.1908   25.0834 H   0  0  0  0  0  0
  -21.0000  -28.3303   24.1446 H   0  0  0  0  0  0
  -20.5888  -26.2321   23.3629 H   0  0  0  0  0  0
  -21.6685  -26.7591   22.1128 H   0  0  0  0  0  0
  -19.6995  -25.6313   21.1327 H   0  0  0  0  0  0
  -19.6752  -27.3220   20.6811 H   0  0  0  0  0  0
  -17.4267  -26.6759   21.4006 H   0  0  0  0  0  0
  -18.0314  -26.0050   22.9004 H   0  0  0  0  0  0
  -19.7908  -30.7350   24.2248 H   0  0  0  0  0  0
  -17.4989  -31.6307   24.5179 H   0  0  0  0  0  0
  -15.5350  -30.3008   23.7705 H   0  0  0  0  0  0
  -15.8684  -28.0876   22.7083 H   0  0  0  0  0  0
  -24.5830  -30.7171   25.7594 H   0  0  0  0  0  0
  -24.8887  -32.2947   26.4752 H   0  0  0  0  0  0
  -25.7857  -30.8870   27.0167 H   0  0  0  0  0  0
  -26.3058  -29.6665   24.1309 H   0  0  0  0  0  0
  -27.4058  -29.7328   25.4868 H   0  0  0  0  0  0
  -27.8926  -30.4258   23.9602 H   0  0  0  0  0  0
  -27.2729  -33.3595   26.2056 H   0  0  0  0  0  0
  -28.3851  -32.6843   25.0248 H   0  0  0  0  0  0
  -28.0769  -31.8405   26.5348 H   0  0  0  0  0  0
  -28.2576  -38.0128   24.7598 H   0  0  0  0  0  0
  -28.1158  -36.2673   24.6170 H   0  0  0  0  0  0
  -27.2325  -37.1262   25.8854 H   0  0  0  0  0  0
  -20.9445  -29.8574   21.6681 H   0  0  0  0  0  0
  -26.0192  -38.2853   24.1429 H   0  0  0  0  0  0
  -31.9380  -18.7747   17.6128 H   0  0  0  0  0  0
  -31.5546  -16.6263   18.6082 H   0  0  0  0  0  0
  -27.2986  -24.0430   22.3985 H   0  0  0  0  0  0
  -26.2447  -24.8110   21.2339 H   0  0  0  0  0  0
  -27.1365  -25.7850   22.4175 H   0  0  0  0  0  0
  -27.4108  -23.4975   19.6347 H   0  0  0  0  0  0
  -28.9489  -24.0369   19.0291 H   0  0  0  0  0  0
  -31.1755  -20.9261   17.1662 H   0  0  0  0  0  0
  -29.8137  -21.6123   17.8492 H   0  0  0  0  0  0
  -28.8736  -15.7117   20.8452 H   0  0  0  0  0  0
  1 25  1  0  0  0
  1 30  2  0  0  0
  1 82  1  0  0  0
  2  3  1  0  0  0
  2 25  1  0  0  0
  2 87  1  0  0  0
  2 88  1  0  0  0
  3  4  1  0  0  0
  3 89  1  0  0  0
  3 90  1  0  0  0
  4  5  1  0  0  0
  4 91  1  0  0  0
  4 92  1  0  0  0
  5  6  1  0  0  0
  5 26  1  0  0  0
  5 93  1  0  0  0
  6 25  1  0  0  0
  6 94  1  0  0  0
  6 95  1  0  0  0
  7  8  2  0  0  0
  7 26  1  0  0  0
  7 29  1  0  0  0
  8  9  1  0  0  0
  8 22  1  0  0  0
  9 10  1  0  0  0
  9 27  2  0  0  0
 10 11  2  0  0  0
 10 15  1  0  0  0
 11 12  1  0  0  0
 11 96  1  0  0  0
 12 13  2  0  0  0
 12 97  1  0  0  0
 13 14  1  0  0  0
 13 31  1  0  0  0
 14 15  2  0  0  0
 14 98  1  0  0  0
 15 99  1  0  0  0
 16 17  2  0  0  0
 16 21  1  0  0  0
 16 31  1  0  0  0
 17 18  1  0  0  0
 17100  1  0  0  0
 18 19  2  0  0  0
 18101  1  0  0  0
 19 20  1  0  0  0
 19 24  1  0  0  0
 20 21  2  0  0  0
 20102  1  0  0  0
 21 23  1  0  0  0
 22 28  1  0  0  0
 22 32  2  0  0  0
 26 27  1  0  0  0
 28103  1  0  0  0
 28104  1  0  0  0
 29105  1  0  0  0
 29106  1  0  0  0
 33 34  1  0  0  0
 33 66  1  0  0  0
 33 70  2  0  0  0
 34 36  1  0  0  0
 34 59  1  0  0  0
 34107  1  0  0  0
 35 44  2  0  0  0
 35 45  1  0  0  0
 35 68  1  0  0  0
 36 56  1  0  0  0
 36108  1  0  0  0
 37 39  1  0  0  0
 37 47  1  0  0  0
 37 66  1  0  0  0
 37109  1  0  0  0
 38 43  2  0  0  0
 38 46  1  0  0  0
 38 47  1  0  0  0
 39 64  1  0  0  0
 39 67  2  0  0  0
 40 52  1  0  0  0
 40 53  2  0  0  0
 40 58  1  0  0  0
 41110  1  0  0  0
 41111  1  0  0  0
 41112  1  0  0  0
 41 48  1  0  0  0
 42 43  1  0  0  0
 42 66  1  0  0  0
 42113  1  0  0  0
 42114  1  0  0  0
 43 44  1  0  0  0
 44115  1  0  0  0
 45 46  2  0  0  0
 45116  1  0  0  0
 46117  1  0  0  0
 47118  1  0  0  0
 47119  1  0  0  0
 48 56  1  0  0  0
 48 65  1  0  0  0
 48120  1  0  0  0
 49 50  1  0  0  0
 49 53  1  0  0  0
 49 64  1  0  0  0
 49121  1  0  0  0
 50 51  1  0  0  0
 50122  1  0  0  0
 50123  1  0  0  0
 51 52  1  0  0  0
 51124  1  0  0  0
 51125  1  0  0  0
 52126  1  0  0  0
 52127  1  0  0  0
 53 54  1  0  0  0
 54 55  2  0  0  0
 54128  1  0  0  0
 55 57  1  0  0  0
 55129  1  0  0  0
 56 69  2  0  0  0
 57 58  2  0  0  0
 57130  1  0  0  0
 58131  1  0  0  0
 59 60  1  0  0  0
 59 61  1  0  0  0
 59 62  1  0  0  0
 60132  1  0  0  0
 60133  1  0  0  0
 60134  1  0  0  0
 61135  1  0  0  0
 61136  1  0  0  0
 61137  1  0  0  0
 62138  1  0  0  0
 62139  1  0  0  0
 62140  1  0  0  0
 63 65  1  0  0  0
 63141  1  0  0  0
 63142  1  0  0  0
 63143  1  0  0  0
 64144  1  0  0  0
 65145  1  0  0  0
 68 83  1  0  0  0
 71 72  2  0  0  0
 71 73  1  0  0  0
 71146  1  0  0  0
 72 75  1  0  0  0
 72147  1  0  0  0
 73 74  2  0  0  0
 73 81  1  0  0  0
 74 79  1  0  0  0
 74 80  1  0  0  0
 75 80  2  0  0  0
 75 82  1  0  0  0
 76 78  1  0  0  0
 76 79  1  0  0  0
 76 84  2  0  0  0
 77 83  1  0  0  0
 77148  1  0  0  0
 77149  1  0  0  0
 77150  1  0  0  0
 78 83  1  0  0  0
 78151  1  0  0  0
 78152  1  0  0  0
 79 85  1  0  0  0
 79 86  1  0  0  0
 81153  1  0  0  0
 81154  1  0  0  0
 82155  1  0  0  0
M  ISO  4   1 100  68 101  82 100  83 101
M  END
> <chiral flag>
0

> <version>
0

> <s_m_source_file>
/data/baiqing/PycharmProjects/Reinvent-master-3.2/result/LINK_invent/BTK/process_docking_weight1_custom_product_contain_oxygen_bond_distance_aromatic_linkinvent_7_9_3/rearranged_h_0160.sdf

> <i_m_source_file_index>
47

> <r_mmod_Potential_Energy-OPLS-2005>
268.734832763672

> <r_mmod_Stretch_Energy-OPLS-2005>
150.076309204102

> <r_mmod_Bend_Energy-OPLS-2005>
196.914428710938

> <r_mmod_Torsional_Energy-OPLS-2005>
263.522857666016

> <r_mmod_Improper_Torsional_Energy-OPLS-2005>
9.79881381988525

> <r_mmod_Van_der_Waal_Energy-OPLS-2005>
145.701278686523

> <r_mmod_Electrostatic_Energy-OPLS-2005>
-334.230010986328

> <r_mmod_Solvation_Energy-OPLS-2005>
-246.773071289062

> <b_mmod_Minimization_Converged-OPLS-2005>
0

> <r_mmod_RMS_Derivative-OPLS-2005>
6.73983478546143

$$$$
48
                    3D
 Structure written by MMmdl.
159167  0  0  1  0            999 V2000
  -30.7373  -14.4565   20.6100 C   0  0  0  0  0  0
  -30.4218  -12.3106   19.4264 C   0  0  0  0  0  0
  -29.4954  -12.5088   18.2104 C   0  0  0  0  0  0
  -28.0177  -12.3679   18.6237 C   0  0  0  0  0  0
  -27.6645  -13.2104   19.8787 C   0  0  2  0  0  0
  -28.7055  -13.0003   21.0024 C   0  0  0  0  0  0
  -25.2606  -13.8153   20.5694 C   0  0  0  0  0  0
  -24.1860  -13.0427   20.9183 C   0  0  0  0  0  0
  -24.6418  -11.6898   20.8735 C   0  0  0  0  0  0
  -23.9080  -10.4280   21.0404 C   0  0  0  0  0  0
  -24.3624   -9.4197   21.9180 C   0  0  0  0  0  0
  -23.6284   -8.2248   22.0765 C   0  0  0  0  0  0
  -22.4270   -8.0282   21.3558 C   0  0  0  0  0  0
  -21.9907   -9.0261   20.4665 C   0  0  0  0  0  0
  -22.7250  -10.2128   20.3061 C   0  0  0  0  0  0
  -21.6840   -6.0731   22.5276 C   0  0  0  0  0  0
  -21.4004   -6.5642   23.8210 C   0  0  0  0  0  0
  -21.3665   -5.6801   24.9174 C   0  0  0  0  0  0
  -21.6053   -4.3061   24.7223 C   0  0  0  0  0  0
  -21.8814   -3.8150   23.4345 C   0  0  0  0  0  0
  -21.9185   -4.6962   22.3399 C   0  0  0  0  0  0
  -22.7883  -13.5225   21.1837 C   0  0  0  0  0  0
  -22.1656   -4.2149   21.0979 F   0  0  0  0  0  0
  -21.5647   -3.4552   25.7737 F   0  0  0  0  0  0
  -30.0412  -13.2956   20.4525 N   0  0  0  0  0  0
  -26.3055  -12.9341   20.3392 N   0  0  0  0  0  0
  -25.9353  -11.6499   20.5794 N   0  0  0  0  0  0
  -22.0509  -12.8224   22.0393 N   0  0  0  0  0  0
  -25.4313  -15.1863   20.4089 N   0  0  0  0  0  0
  -31.8285  -14.6582   20.0709 O   0  0  0  0  0  0
  -21.6637   -6.8881   21.4244 O   0  0  0  0  0  0
  -22.3573  -14.5532   20.6681 O   0  0  0  0  0  0
  -24.6182  -31.8668   23.2095 C   0  0  0  0  0  0
  -25.9069  -32.4808   23.8396 C   0  0  1  0  0  0
  -27.2296  -27.4026   20.0994 C   0  0  0  0  0  0
  -25.5911  -33.8610   24.2319 N   0  0  0  0  0  0
  -23.4071  -30.4934   21.5516 C   0  0  2  0  0  0
  -24.8523  -28.9634   20.1122 C   0  0  0  0  0  0
  -22.7436  -29.4658   22.4977 C   0  0  0  0  0  0
  -18.0279  -28.1373   22.8493 C   0  0  0  0  0  0
  -24.1495  -36.7324   23.2637 C   0  0  0  0  0  0
  -25.9420  -30.8237   21.3688 C   0  0  0  0  0  0
  -26.0179  -29.4589   20.7104 C   0  0  0  0  0  0
  -27.2100  -28.6886   20.6976 C   0  0  0  0  0  0
  -26.0392  -26.9417   19.4839 C   0  0  0  0  0  0
  -24.8600  -27.7043   19.4947 C   0  0  0  0  0  0
  -23.6158  -29.8328   20.1651 C   0  0  0  0  0  0
  -25.4110  -36.3103   24.0337 C   0  0  1  0  0  0
  -20.5874  -28.3679   23.1300 C   0  0  2  0  0  0
  -20.6773  -26.9412   22.5411 C   0  0  0  0  0  0
  -19.5746  -26.6383   21.5215 C   0  0  0  0  0  0
  -18.1924  -26.7919   22.1625 C   0  0  0  0  0  0
  -19.1530  -28.8839   23.2896 C   0  0  0  0  0  0
  -18.9455  -30.1441   23.8914 C   0  0  0  0  0  0
  -17.6454  -30.6579   24.0564 C   0  0  0  0  0  0
  -25.9038  -34.9470   23.5127 C   0  0  0  0  0  0
  -16.5345  -29.9081   23.6320 C   0  0  0  0  0  0
  -16.7268  -28.6495   23.0349 C   0  0  0  0  0  0
  -26.4485  -31.6587   25.0730 C   0  0  0  0  0  0
  -25.3752  -31.3697   26.1479 C   0  0  0  0  0  0
  -27.0321  -30.3024   24.6116 C   0  0  0  0  0  0
  -27.6054  -32.4311   25.7494 C   0  0  0  0  0  0
  -27.5583  -37.1814   24.8464 C   0  0  0  0  0  0
  -21.4161  -29.3044   22.3708 N   0  0  0  0  0  0
  -26.4298  -37.3784   23.9401 N   0  0  0  0  0  0
  -24.6745  -31.0754   22.1006 N   0  0  0  0  0  0
  -23.4195  -28.8194   23.3023 O   0  0  0  0  0  0
  -28.3759  -26.6135   20.1435 O   0  0  0  0  0  0
  -26.5609  -34.8920   22.4688 O   0  0  0  0  0  0
  -23.5363  -32.1431   23.7465 O   0  0  0  0  0  0
  -28.9683  -17.6033   19.8250 C   0  0  0  0  0  0
  -28.6244  -19.9504   19.3008 C   0  0  0  0  0  0
  -30.2824  -19.3188   20.9906 C   0  0  0  0  0  0
  -29.9471  -17.9342   20.7906 C   0  0  0  0  0  0
  -29.5792  -20.3452   20.2687 C   0  0  0  0  0  0
  -28.3213  -18.5990   19.0812 C   0  0  0  0  0  0
  -31.3298  -19.6796   21.9935 C   0  0  0  0  0  0
  -28.8805  -22.7352   20.5083 C   0  0  0  0  0  0
  -32.5518  -20.4166   21.4615 C   0  0  0  0  0  0
  -30.6318  -16.7885   21.5751 C   0  0  0  0  0  0
  -29.3137  -24.2283   20.4918 C   0  0  0  0  0  0
  -28.1520  -25.1815   20.0705 C   0  0  0  0  0  0
  -29.8227  -21.7615   20.4441 N   0  0  0  0  0  0
  -30.1311  -15.4213   21.3247 N   0  0  0  0  0  0
  -31.2782  -19.3726   23.1865 O   0  0  0  0  0  0
  -27.6820  -22.4596   20.6086 O   0  0  0  0  0  0
  -27.4001  -18.2531   18.1510 F   0  0  0  0  0  0
  -31.4653  -12.4024   19.1222 H   0  0  0  0  0  0
  -30.3186  -11.3015   19.8288 H   0  0  0  0  0  0
  -29.7352  -11.7822   17.4317 H   0  0  0  0  0  0
  -29.6670  -13.4940   17.7731 H   0  0  0  0  0  0
  -27.8291  -11.3123   18.8225 H   0  0  0  0  0  0
  -27.3660  -12.6396   17.7923 H   0  0  0  0  0  0
  -27.7065  -14.2572   19.5791 H   0  0  0  0  0  0
  -28.4606  -13.6093   21.8727 H   0  0  0  0  0  0
  -28.6772  -11.9687   21.3571 H   0  0  0  0  0  0
  -25.2770   -9.5660   22.4748 H   0  0  0  0  0  0
  -23.9975   -7.4637   22.7489 H   0  0  0  0  0  0
  -21.0835   -8.8792   19.8965 H   0  0  0  0  0  0
  -22.3721  -10.9669   19.6169 H   0  0  0  0  0  0
  -21.1988   -7.6149   23.9707 H   0  0  0  0  0  0
  -21.1503   -6.0539   25.9079 H   0  0  0  0  0  0
  -22.0586   -2.7608   23.2846 H   0  0  0  0  0  0
  -22.4106  -11.9885   22.4794 H   0  0  0  0  0  0
  -21.1143  -13.1287   22.2615 H   0  0  0  0  0  0
  -24.6605  -15.8378   20.5070 H   0  0  0  0  0  0
  -26.2820  -15.6264   20.0827 H   0  0  0  0  0  0
  -26.7145  -32.5503   23.1160 H   0  0  0  0  0  0
  -25.0052  -33.9766   25.0456 H   0  0  0  0  0  0
  -22.6962  -31.3105   21.4152 H   0  0  0  0  0  0
  -23.3743  -35.9674   23.3300 H   0  0  0  0  0  0
  -24.3594  -36.8933   22.2051 H   0  0  0  0  0  0
  -23.7261  -37.6533   23.6655 H   0  0  0  0  0  0
  -26.0610  -31.5911   20.6026 H   0  0  0  0  0  0
  -26.8274  -30.8706   21.9914 H   0  0  0  0  0  0
  -28.1055  -29.0663   21.1706 H   0  0  0  0  0  0
  -25.9866  -25.9822   18.9929 H   0  0  0  0  0  0
  -23.9670  -27.3138   19.0263 H   0  0  0  0  0  0
  -23.7262  -30.6115   19.4097 H   0  0  0  0  0  0
  -22.7367  -29.2582   19.8676 H   0  0  0  0  0  0
  -25.1281  -36.1974   25.0833 H   0  0  0  0  0  0
  -20.9969  -28.3255   24.1419 H   0  0  0  0  0  0
  -20.5676  -26.2297   23.3609 H   0  0  0  0  0  0
  -21.6643  -26.7450   22.1200 H   0  0  0  0  0  0
  -19.6914  -25.6301   21.1227 H   0  0  0  0  0  0
  -19.6670  -27.3210   20.6760 H   0  0  0  0  0  0
  -17.4193  -26.6670   21.4026 H   0  0  0  0  0  0
  -18.0327  -26.0058   22.9021 H   0  0  0  0  0  0
  -19.7931  -30.7251   24.2294 H   0  0  0  0  0  0
  -17.5009  -31.6262   24.5165 H   0  0  0  0  0  0
  -15.5344  -30.2984   23.7635 H   0  0  0  0  0  0
  -15.8673  -28.0813   22.7056 H   0  0  0  0  0  0
  -24.5932  -30.7030   25.7826 H   0  0  0  0  0  0
  -24.8941  -32.2855   26.4929 H   0  0  0  0  0  0
  -25.8107  -30.8869   27.0237 H   0  0  0  0  0  0
  -26.2872  -29.6778   24.1167 H   0  0  0  0  0  0
  -27.4088  -29.7254   25.4571 H   0  0  0  0  0  0
  -27.8714  -30.4336   23.9278 H   0  0  0  0  0  0
  -27.2665  -33.3598   26.2100 H   0  0  0  0  0  0
  -28.3849  -32.6892   25.0313 H   0  0  0  0  0  0
  -28.0756  -31.8426   26.5382 H   0  0  0  0  0  0
  -28.2599  -38.0110   24.7483 H   0  0  0  0  0  0
  -28.1074  -36.2631   24.6318 H   0  0  0  0  0  0
  -27.2302  -37.1505   25.8870 H   0  0  0  0  0  0
  -20.9329  -29.8785   21.6943 H   0  0  0  0  0  0
  -26.0188  -38.2869   24.1369 H   0  0  0  0  0  0
  -28.7026  -16.5774   19.6231 H   0  0  0  0  0  0
  -28.1027  -20.6885   18.7103 H   0  0  0  0  0  0
  -32.7436  -20.1334   20.4272 H   0  0  0  0  0  0
  -33.4312  -20.1625   22.0534 H   0  0  0  0  0  0
  -32.4017  -21.4933   21.5118 H   0  0  0  0  0  0
  -31.7085  -16.8360   21.4002 H   0  0  0  0  0  0
  -30.4924  -16.9641   22.6428 H   0  0  0  0  0  0
  -30.1573  -24.3500   19.8121 H   0  0  0  0  0  0
  -29.6684  -24.4941   21.4877 H   0  0  0  0  0  0
  -27.2946  -24.9526   20.7073 H   0  0  0  0  0  0
  -27.8743  -24.9225   19.0481 H   0  0  0  0  0  0
  -30.7851  -22.0670   20.5014 H   0  0  0  0  0  0
  -29.2446  -15.1802   21.7392 H   0  0  0  0  0  0
  1 25  1  0  0  0
  1 30  2  0  0  0
  1 84  1  0  0  0
  2  3  1  0  0  0
  2 25  1  0  0  0
  2 88  1  0  0  0
  2 89  1  0  0  0
  3  4  1  0  0  0
  3 90  1  0  0  0
  3 91  1  0  0  0
  4  5  1  0  0  0
  4 92  1  0  0  0
  4 93  1  0  0  0
  5  6  1  0  0  0
  5 26  1  0  0  0
  5 94  1  0  0  0
  6 25  1  0  0  0
  6 95  1  0  0  0
  6 96  1  0  0  0
  7  8  2  0  0  0
  7 26  1  0  0  0
  7 29  1  0  0  0
  8  9  1  0  0  0
  8 22  1  0  0  0
  9 10  1  0  0  0
  9 27  2  0  0  0
 10 11  2  0  0  0
 10 15  1  0  0  0
 11 12  1  0  0  0
 11 97  1  0  0  0
 12 13  2  0  0  0
 12 98  1  0  0  0
 13 14  1  0  0  0
 13 31  1  0  0  0
 14 15  2  0  0  0
 14 99  1  0  0  0
 15100  1  0  0  0
 16 17  2  0  0  0
 16 21  1  0  0  0
 16 31  1  0  0  0
 17 18  1  0  0  0
 17101  1  0  0  0
 18 19  2  0  0  0
 18102  1  0  0  0
 19 20  1  0  0  0
 19 24  1  0  0  0
 20 21  2  0  0  0
 20103  1  0  0  0
 21 23  1  0  0  0
 22 28  1  0  0  0
 22 32  2  0  0  0
 26 27  1  0  0  0
 28104  1  0  0  0
 28105  1  0  0  0
 29106  1  0  0  0
 29107  1  0  0  0
 33 34  1  0  0  0
 33 66  1  0  0  0
 33 70  2  0  0  0
 34 36  1  0  0  0
 34 59  1  0  0  0
 34108  1  0  0  0
 35 44  2  0  0  0
 35 45  1  0  0  0
 35 68  1  0  0  0
 36 56  1  0  0  0
 36109  1  0  0  0
 37 39  1  0  0  0
 37 47  1  0  0  0
 37 66  1  0  0  0
 37110  1  0  0  0
 38 43  2  0  0  0
 38 46  1  0  0  0
 38 47  1  0  0  0
 39 64  1  0  0  0
 39 67  2  0  0  0
 40 52  1  0  0  0
 40 53  2  0  0  0
 40 58  1  0  0  0
 41111  1  0  0  0
 41112  1  0  0  0
 41113  1  0  0  0
 41 48  1  0  0  0
 42 43  1  0  0  0
 42 66  1  0  0  0
 42114  1  0  0  0
 42115  1  0  0  0
 43 44  1  0  0  0
 44116  1  0  0  0
 45 46  2  0  0  0
 45117  1  0  0  0
 46118  1  0  0  0
 47119  1  0  0  0
 47120  1  0  0  0
 48 56  1  0  0  0
 48 65  1  0  0  0
 48121  1  0  0  0
 49 50  1  0  0  0
 49 53  1  0  0  0
 49 64  1  0  0  0
 49122  1  0  0  0
 50 51  1  0  0  0
 50123  1  0  0  0
 50124  1  0  0  0
 51 52  1  0  0  0
 51125  1  0  0  0
 51126  1  0  0  0
 52127  1  0  0  0
 52128  1  0  0  0
 53 54  1  0  0  0
 54 55  2  0  0  0
 54129  1  0  0  0
 55 57  1  0  0  0
 55130  1  0  0  0
 56 69  2  0  0  0
 57 58  2  0  0  0
 57131  1  0  0  0
 58132  1  0  0  0
 59 60  1  0  0  0
 59 61  1  0  0  0
 59 62  1  0  0  0
 60133  1  0  0  0
 60134  1  0  0  0
 60135  1  0  0  0
 61136  1  0  0  0
 61137  1  0  0  0
 61138  1  0  0  0
 62139  1  0  0  0
 62140  1  0  0  0
 62141  1  0  0  0
 63 65  1  0  0  0
 63142  1  0  0  0
 63143  1  0  0  0
 63144  1  0  0  0
 64145  1  0  0  0
 65146  1  0  0  0
 68 82  1  0  0  0
 71 74  2  0  0  0
 71 76  1  0  0  0
 71147  1  0  0  0
 72 75  1  0  0  0
 72 76  2  0  0  0
 72148  1  0  0  0
 73 74  1  0  0  0
 73 75  2  0  0  0
 73 77  1  0  0  0
 74 80  1  0  0  0
 75 83  1  0  0  0
 76 87  1  0  0  0
 77 79  1  0  0  0
 77 85  2  0  0  0
 78 81  1  0  0  0
 78 83  1  0  0  0
 78 86  2  0  0  0
 79149  1  0  0  0
 79150  1  0  0  0
 79151  1  0  0  0
 80 84  1  0  0  0
 80152  1  0  0  0
 80153  1  0  0  0
 81 82  1  0  0  0
 81154  1  0  0  0
 81155  1  0  0  0
 82156  1  0  0  0
 82157  1  0  0  0
 83158  1  0  0  0
 84159  1  0  0  0
M  ISO  4   1 100  68 101  82 101  84 100
M  END
> <chiral flag>
0

> <version>
0

> <s_m_source_file>
/data/baiqing/PycharmProjects/Reinvent-master-3.2/result/LINK_invent/BTK/process_docking_weight1_custom_product_contain_oxygen_bond_distance_aromatic_linkinvent_7_9_3/rearranged_h_0160.sdf

> <i_m_source_file_index>
48

> <r_mmod_Potential_Energy-OPLS-2005>
-72.5369644165039

> <r_mmod_Stretch_Energy-OPLS-2005>
51.3788833618164

> <r_mmod_Bend_Energy-OPLS-2005>
99.7908630371094

> <r_mmod_Torsional_Energy-OPLS-2005>
252.92546081543

> <r_mmod_Improper_Torsional_Energy-OPLS-2005>
2.61567783355713

> <r_mmod_Van_der_Waal_Energy-OPLS-2005>
168.497619628906

> <r_mmod_Electrostatic_Energy-OPLS-2005>
-421.071350097656

> <r_mmod_Solvation_Energy-OPLS-2005>
-241.810806274414

> <b_mmod_Minimization_Converged-OPLS-2005>
0

> <r_mmod_RMS_Derivative-OPLS-2005>
1.55594038963318

$$$$
49
                    3D
 Structure written by MMmdl.
167176  0  0  1  0            999 V2000
  -30.6369  -14.4781   20.5525 C   0  0  0  0  0  0
  -30.4343  -12.3076   19.3964 C   0  0  0  0  0  0
  -29.4880  -12.5044   18.1894 C   0  0  0  0  0  0
  -28.0069  -12.3568   18.6039 C   0  0  0  0  0  0
  -27.6537  -13.1854   19.8662 C   0  0  2  0  0  0
  -28.7031  -12.9444   20.9766 C   0  0  0  0  0  0
  -25.2560  -13.8091   20.5658 C   0  0  0  0  0  0
  -24.1823  -13.0394   20.9200 C   0  0  0  0  0  0
  -24.6352  -11.6856   20.8761 C   0  0  0  0  0  0
  -23.9014  -10.4262   21.0416 C   0  0  0  0  0  0
  -24.3605   -9.4191   21.9175 C   0  0  0  0  0  0
  -23.6295   -8.2220   22.0752 C   0  0  0  0  0  0
  -22.4273   -8.0262   21.3544 C   0  0  0  0  0  0
  -21.9871   -9.0240   20.4685 C   0  0  0  0  0  0
  -22.7181  -10.2115   20.3094 C   0  0  0  0  0  0
  -21.6857   -6.0715   22.5267 C   0  0  0  0  0  0
  -21.4012   -6.5625   23.8203 C   0  0  0  0  0  0
  -21.3667   -5.6782   24.9165 C   0  0  0  0  0  0
  -21.6046   -4.3041   24.7229 C   0  0  0  0  0  0
  -21.8816   -3.8136   23.4347 C   0  0  0  0  0  0
  -21.9199   -4.6941   22.3407 C   0  0  0  0  0  0
  -22.7859  -13.5225   21.1887 C   0  0  0  0  0  0
  -22.1669   -4.2133   21.0977 F   0  0  0  0  0  0
  -21.5630   -3.4526   25.7736 F   0  0  0  0  0  0
  -30.0281  -13.2719   20.4202 N   0  0  0  0  0  0
  -26.2977  -12.9216   20.3340 N   0  0  0  0  0  0
  -25.9265  -11.6404   20.5779 N   0  0  0  0  0  0
  -22.0506  -12.8203   22.0445 N   0  0  0  0  0  0
  -25.4289  -15.1810   20.4019 N   0  0  0  0  0  0
  -31.8074  -14.7052   20.2298 O   0  0  0  0  0  0
  -21.6648   -6.8853   21.4235 O   0  0  0  0  0  0
  -22.3577  -14.5551   20.6754 O   0  0  0  0  0  0
  -24.6130  -31.8719   23.2096 C   0  0  0  0  0  0
  -25.9051  -32.4845   23.8385 C   0  0  1  0  0  0
  -27.2399  -27.4518   20.0823 C   0  0  0  0  0  0
  -25.5912  -33.8634   24.2334 N   0  0  0  0  0  0
  -23.4002  -30.4948   21.5477 C   0  0  2  0  0  0
  -24.8478  -28.9498   20.1275 C   0  0  0  0  0  0
  -22.7386  -29.4703   22.4974 C   0  0  0  0  0  0
  -18.0280  -28.1359   22.8502 C   0  0  0  0  0  0
  -24.1480  -36.7310   23.2632 C   0  0  0  0  0  0
  -25.9257  -30.8383   21.3608 C   0  0  0  0  0  0
  -26.0067  -29.4660   20.7235 C   0  0  0  0  0  0
  -27.2081  -28.7200   20.7070 C   0  0  0  0  0  0
  -26.0656  -26.9423   19.4971 C   0  0  0  0  0  0
  -24.8663  -27.6806   19.5237 C   0  0  0  0  0  0
  -23.6111  -29.8193   20.1654 C   0  0  0  0  0  0
  -25.4100  -36.3117   24.0341 C   0  0  1  0  0  0
  -20.5866  -28.3689   23.1276 C   0  0  2  0  0  0
  -20.6761  -26.9425   22.5399 C   0  0  0  0  0  0
  -19.5753  -26.6388   21.5175 C   0  0  0  0  0  0
  -18.1934  -26.7913   22.1600 C   0  0  0  0  0  0
  -19.1529  -28.8831   23.2899 C   0  0  0  0  0  0
  -18.9471  -30.1424   23.8934 C   0  0  0  0  0  0
  -17.6478  -30.6587   24.0558 C   0  0  0  0  0  0
  -25.9032  -34.9490   23.5140 C   0  0  0  0  0  0
  -16.5363  -29.9098   23.6312 C   0  0  0  0  0  0
  -16.7271  -28.6488   23.0383 C   0  0  0  0  0  0
  -26.4469  -31.6598   25.0710 C   0  0  0  0  0  0
  -25.3741  -31.3730   26.1470 C   0  0  0  0  0  0
  -27.0268  -30.3028   24.6070 C   0  0  0  0  0  0
  -27.6046  -32.4283   25.7498 C   0  0  0  0  0  0
  -27.5574  -37.1811   24.8468 C   0  0  0  0  0  0
  -21.4119  -29.3063   22.3680 N   0  0  0  0  0  0
  -26.4289  -37.3803   23.9412 N   0  0  0  0  0  0
  -24.6643  -31.0827   22.0994 N   0  0  0  0  0  0
  -23.4153  -28.8278   23.3053 O   0  0  0  0  0  0
  -28.4058  -26.7484   19.9026 O   0  0  0  0  0  0
  -26.5582  -34.8951   22.4691 O   0  0  0  0  0  0
  -23.5330  -32.1456   23.7509 O   0  0  0  0  0  0
  -29.5743  -17.8994   20.6735 C   0  0  0  0  0  0
  -29.9313  -16.7545   22.7931 C   0  0  0  0  0  0
  -29.3157  -19.1430   21.3239 C   0  0  0  0  0  0
  -29.8479  -16.7119   21.3910 C   0  0  0  0  0  0
  -29.6921  -17.9653   23.4620 C   0  0  0  0  0  0
  -29.3697  -19.1422   22.7498 C   0  0  0  0  0  0
  -28.9324  -20.2962   20.4374 C   0  0  0  0  0  0
  -29.8826  -23.7937   21.7603 C   0  0  0  0  0  0
  -28.9278  -23.9977   19.4969 C   0  0  0  0  0  0
  -29.6913  -22.2598   21.8195 C   0  0  0  0  0  0
  -29.3383  -22.5085   19.3288 C   0  0  0  0  0  0
  -28.7902  -24.5228   20.9444 C   0  0  0  0  0  0
  -27.0778  -24.3409   22.7190 C   0  0  0  0  0  0
  -28.9704  -26.0765   21.0223 C   0  0  0  0  0  0
  -29.2433  -21.6320   20.5485 N   0  0  0  0  0  0
  -29.7380  -15.4601   20.7382 N   0  0  0  0  0  0
  -28.2131  -19.9750   19.3581 N   0  3  0  0  0  0
  -27.4585  -24.1702   21.3534 O   0  0  0  0  0  0
  -29.7074  -17.9825   24.8189 F   0  0  0  0  0  0
  -29.0705  -20.2300   23.4916 F   0  0  0  0  0  0
  -31.4746  -12.4464   19.0969 H   0  0  0  0  0  0
  -30.3589  -11.2916   19.7841 H   0  0  0  0  0  0
  -29.7235  -11.7902   17.3985 H   0  0  0  0  0  0
  -29.6431  -13.4961   17.7606 H   0  0  0  0  0  0
  -27.8162  -11.2988   18.7834 H   0  0  0  0  0  0
  -27.3561  -12.6462   17.7780 H   0  0  0  0  0  0
  -27.6887  -14.2295   19.5596 H   0  0  0  0  0  0
  -28.6869  -11.9000   21.2921 H   0  0  0  0  0  0
  -28.4748  -13.5246   21.8730 H   0  0  0  0  0  0
  -25.2755   -9.5660   22.4741 H   0  0  0  0  0  0
  -24.0004   -7.4627   22.7477 H   0  0  0  0  0  0
  -21.0778   -8.8772   19.9031 H   0  0  0  0  0  0
  -22.3617  -10.9661   19.6238 H   0  0  0  0  0  0
  -21.1995   -7.6134   23.9687 H   0  0  0  0  0  0
  -21.1495   -6.0510   25.9061 H   0  0  0  0  0  0
  -22.0579   -2.7596   23.2848 H   0  0  0  0  0  0
  -22.4125  -11.9856   22.4830 H   0  0  0  0  0  0
  -21.1109  -13.1208   22.2627 H   0  0  0  0  0  0
  -24.6526  -15.8291   20.4878 H   0  0  0  0  0  0
  -26.2663  -15.6140   20.0369 H   0  0  0  0  0  0
  -26.7139  -32.5577   23.1165 H   0  0  0  0  0  0
  -25.0101  -33.9783   25.0502 H   0  0  0  0  0  0
  -22.6904  -31.3121   21.4025 H   0  0  0  0  0  0
  -23.3744  -35.9640   23.3316 H   0  0  0  0  0  0
  -24.3570  -36.8895   22.2039 H   0  0  0  0  0  0
  -23.7227  -37.6529   23.6618 H   0  0  0  0  0  0
  -26.0313  -31.5988   20.5865 H   0  0  0  0  0  0
  -26.8141  -30.9003   21.9777 H   0  0  0  0  0  0
  -28.1135  -29.1331   21.1301 H   0  0  0  0  0  0
  -26.0887  -25.9814   19.0026 H   0  0  0  0  0  0
  -23.9719  -27.2741   19.0700 H   0  0  0  0  0  0
  -23.7199  -30.5867   19.3974 H   0  0  0  0  0  0
  -22.7343  -29.2381   19.8724 H   0  0  0  0  0  0
  -25.1265  -36.1993   25.0832 H   0  0  0  0  0  0
  -20.9975  -28.3290   24.1387 H   0  0  0  0  0  0
  -20.5605  -26.2342   23.3624 H   0  0  0  0  0  0
  -21.6650  -26.7428   22.1244 H   0  0  0  0  0  0
  -19.6929  -25.6294   21.1233 H   0  0  0  0  0  0
  -19.6674  -27.3167   20.6687 H   0  0  0  0  0  0
  -17.4204  -26.6663   21.4009 H   0  0  0  0  0  0
  -18.0360  -26.0007   22.8957 H   0  0  0  0  0  0
  -19.7957  -30.7203   24.2339 H   0  0  0  0  0  0
  -17.5058  -31.6273   24.5153 H   0  0  0  0  0  0
  -15.5382  -30.3039   23.7584 H   0  0  0  0  0  0
  -15.8665  -28.0799   22.7127 H   0  0  0  0  0  0
  -24.5962  -30.7003   25.7857 H   0  0  0  0  0  0
  -24.8886  -32.2893   26.4834 H   0  0  0  0  0  0
  -25.8118  -30.9015   27.0279 H   0  0  0  0  0  0
  -26.2808  -29.6855   24.1072 H   0  0  0  0  0  0
  -27.3963  -29.7214   25.4526 H   0  0  0  0  0  0
  -27.8673  -30.4311   23.9250 H   0  0  0  0  0  0
  -27.2660  -33.3579   26.2080 H   0  0  0  0  0  0
  -28.3879  -32.6830   25.0351 H   0  0  0  0  0  0
  -28.0686  -31.8399   26.5428 H   0  0  0  0  0  0
  -28.2607  -38.0098   24.7512 H   0  0  0  0  0  0
  -28.1052  -36.2630   24.6286 H   0  0  0  0  0  0
  -27.2299  -37.1469   25.8876 H   0  0  0  0  0  0
  -20.9295  -29.8799   21.6894 H   0  0  0  0  0  0
  -26.0188  -38.2886   24.1425 H   0  0  0  0  0  0
  -29.4968  -17.8251   19.5978 H   0  0  0  0  0  0
  -30.0930  -15.8518   23.3613 H   0  0  0  0  0  0
  -30.8676  -24.0213   21.3488 H   0  0  0  0  0  0
  -29.9073  -24.1880   22.7771 H   0  0  0  0  0  0
  -28.0190  -24.2010   18.9280 H   0  0  0  0  0  0
  -29.7023  -24.5799   18.9926 H   0  0  0  0  0  0
  -28.8836  -22.1165   22.5313 H   0  0  0  0  0  0
  -30.5822  -21.7717   22.2180 H   0  0  0  0  0  0
  -30.3791  -22.4640   19.0038 H   0  0  0  0  0  0
  -28.7777  -22.1280   18.4755 H   0  0  0  0  0  0
  -27.6401  -23.6965   23.3928 H   0  0  0  0  0  0
  -26.0294  -24.0590   22.8209 H   0  0  0  0  0  0
  -27.1632  -25.3656   23.0756 H   0  0  0  0  0  0
  -30.0351  -26.3131   20.9898 H   0  0  0  0  0  0
  -28.6159  -26.4992   21.9610 H   0  0  0  0  0  0
  -28.7963  -15.1056   20.6897 H   0  0  0  0  0  0
  -27.9200  -19.0213   19.2124 H   0  0  0  0  0  0
  -27.7983  -20.6904   18.7881 H   0  0  0  0  0  0
  1 25  1  0  0  0
  1 30  2  0  0  0
  1 86  1  0  0  0
  2  3  1  0  0  0
  2 25  1  0  0  0
  2 91  1  0  0  0
  2 92  1  0  0  0
  3  4  1  0  0  0
  3 93  1  0  0  0
  3 94  1  0  0  0
  4  5  1  0  0  0
  4 95  1  0  0  0
  4 96  1  0  0  0
  5  6  1  0  0  0
  5 26  1  0  0  0
  5 97  1  0  0  0
  6 25  1  0  0  0
  6 98  1  0  0  0
  6 99  1  0  0  0
  7  8  2  0  0  0
  7 26  1  0  0  0
  7 29  1  0  0  0
  8  9  1  0  0  0
  8 22  1  0  0  0
  9 10  1  0  0  0
  9 27  2  0  0  0
 10 11  2  0  0  0
 10 15  1  0  0  0
 11 12  1  0  0  0
 11100  1  0  0  0
 12 13  2  0  0  0
 12101  1  0  0  0
 13 14  1  0  0  0
 13 31  1  0  0  0
 14 15  2  0  0  0
 14102  1  0  0  0
 15103  1  0  0  0
 16 17  2  0  0  0
 16 21  1  0  0  0
 16 31  1  0  0  0
 17 18  1  0  0  0
 17104  1  0  0  0
 18 19  2  0  0  0
 18105  1  0  0  0
 19 20  1  0  0  0
 19 24  1  0  0  0
 20 21  2  0  0  0
 20106  1  0  0  0
 21 23  1  0  0  0
 22 28  1  0  0  0
 22 32  2  0  0  0
 26 27  1  0  0  0
 28107  1  0  0  0
 28108  1  0  0  0
 29109  1  0  0  0
 29110  1  0  0  0
 33 34  1  0  0  0
 33 66  1  0  0  0
 33 70  2  0  0  0
 34 36  1  0  0  0
 34 59  1  0  0  0
 34111  1  0  0  0
 35 44  2  0  0  0
 35 45  1  0  0  0
 35 68  1  0  0  0
 36 56  1  0  0  0
 36112  1  0  0  0
 37 39  1  0  0  0
 37 47  1  0  0  0
 37 66  1  0  0  0
 37113  1  0  0  0
 38 43  2  0  0  0
 38 46  1  0  0  0
 38 47  1  0  0  0
 39 64  1  0  0  0
 39 67  2  0  0  0
 40 52  1  0  0  0
 40 53  2  0  0  0
 40 58  1  0  0  0
 41114  1  0  0  0
 41115  1  0  0  0
 41116  1  0  0  0
 41 48  1  0  0  0
 42 43  1  0  0  0
 42 66  1  0  0  0
 42117  1  0  0  0
 42118  1  0  0  0
 43 44  1  0  0  0
 44119  1  0  0  0
 45 46  2  0  0  0
 45120  1  0  0  0
 46121  1  0  0  0
 47122  1  0  0  0
 47123  1  0  0  0
 48 56  1  0  0  0
 48 65  1  0  0  0
 48124  1  0  0  0
 49 50  1  0  0  0
 49 53  1  0  0  0
 49 64  1  0  0  0
 49125  1  0  0  0
 50 51  1  0  0  0
 50126  1  0  0  0
 50127  1  0  0  0
 51 52  1  0  0  0
 51128  1  0  0  0
 51129  1  0  0  0
 52130  1  0  0  0
 52131  1  0  0  0
 53 54  1  0  0  0
 54 55  2  0  0  0
 54132  1  0  0  0
 55 57  1  0  0  0
 55133  1  0  0  0
 56 69  2  0  0  0
 57 58  2  0  0  0
 57134  1  0  0  0
 58135  1  0  0  0
 59 60  1  0  0  0
 59 61  1  0  0  0
 59 62  1  0  0  0
 60136  1  0  0  0
 60137  1  0  0  0
 60138  1  0  0  0
 61139  1  0  0  0
 61140  1  0  0  0
 61141  1  0  0  0
 62142  1  0  0  0
 62143  1  0  0  0
 62144  1  0  0  0
 63 65  1  0  0  0
 63145  1  0  0  0
 63146  1  0  0  0
 63147  1  0  0  0
 64148  1  0  0  0
 65149  1  0  0  0
 68 84  1  0  0  0
 71 73  2  0  0  0
 71 74  1  0  0  0
 71150  1  0  0  0
 72 74  2  0  0  0
 72 75  1  0  0  0
 72151  1  0  0  0
 73 76  1  0  0  0
 73 77  1  0  0  0
 74 86  1  0  0  0
 75 76  2  0  0  0
 75 89  1  0  0  0
 76 90  1  0  0  0
 77 85  1  0  0  0
 77 87  2  0  0  0
 78 80  1  0  0  0
 78 82  1  0  0  0
 78152  1  0  0  0
 78153  1  0  0  0
 79 81  1  0  0  0
 79 82  1  0  0  0
 79154  1  0  0  0
 79155  1  0  0  0
 80 85  1  0  0  0
 80156  1  0  0  0
 80157  1  0  0  0
 81 85  1  0  0  0
 81158  1  0  0  0
 81159  1  0  0  0
 82 84  1  0  0  0
 82 88  1  0  0  0
 83 88  1  0  0  0
 83160  1  0  0  0
 83161  1  0  0  0
 83162  1  0  0  0
 84163  1  0  0  0
 84164  1  0  0  0
 86165  1  0  0  0
 87166  1  0  0  0
 87167  1  0  0  0
M  CHG  1  87   1
M  ISO  4   1 100  68 101  84 101  86 100
M  END
> <chiral flag>
0

> <version>
0

> <s_m_source_file>
/data/baiqing/PycharmProjects/Reinvent-master-3.2/result/LINK_invent/BTK/process_docking_weight1_custom_product_contain_oxygen_bond_distance_aromatic_linkinvent_7_9_3/rearranged_h_0160.sdf

> <i_m_source_file_index>
49

> <r_mmod_Potential_Energy-OPLS-2005>
-35.4880752563477

> <r_mmod_Stretch_Energy-OPLS-2005>
47.3029251098633

> <r_mmod_Bend_Energy-OPLS-2005>
145.907913208008

> <r_mmod_Torsional_Energy-OPLS-2005>
359.921783447266

> <r_mmod_Improper_Torsional_Energy-OPLS-2005>
13.7812490463257

> <r_mmod_Van_der_Waal_Energy-OPLS-2005>
174.736557006836

> <r_mmod_Electrostatic_Energy-OPLS-2005>
-371.334655761719

> <r_mmod_Solvation_Energy-OPLS-2005>
-422.397277832031

> <b_mmod_Minimization_Converged-OPLS-2005>
0

> <r_mmod_RMS_Derivative-OPLS-2005>
3.44967126846313

$$$$
50
                    3D
 Structure written by MMmdl.
154162  0  0  1  0            999 V2000
  -30.6072  -14.8006   20.4404 C   0  0  0  0  0  0
  -30.4235  -12.4980   19.4635 C   0  0  0  0  0  0
  -29.5023  -12.5076   18.2248 C   0  0  0  0  0  0
  -28.0299  -12.3267   18.6416 C   0  0  0  0  0  0
  -27.6268  -13.2372   19.8342 C   0  0  2  0  0  0
  -28.6755  -13.2160   20.9652 C   0  0  0  0  0  0
  -25.2436  -13.8177   20.5718 C   0  0  0  0  0  0
  -24.1747  -13.0407   20.9230 C   0  0  0  0  0  0
  -24.6347  -11.6901   20.8744 C   0  0  0  0  0  0
  -23.9033  -10.4283   21.0390 C   0  0  0  0  0  0
  -24.3607   -9.4213   21.9167 C   0  0  0  0  0  0
  -23.6303   -8.2234   22.0729 C   0  0  0  0  0  0
  -22.4280   -8.0260   21.3536 C   0  0  0  0  0  0
  -21.9905   -9.0214   20.4623 C   0  0  0  0  0  0
  -22.7208  -10.2109   20.3036 C   0  0  0  0  0  0
  -21.6856   -6.0733   22.5281 C   0  0  0  0  0  0
  -21.4011   -6.5631   23.8216 C   0  0  0  0  0  0
  -21.3661   -5.6778   24.9179 C   0  0  0  0  0  0
  -21.6058   -4.3045   24.7226 C   0  0  0  0  0  0
  -21.8817   -3.8140   23.4342 C   0  0  0  0  0  0
  -21.9191   -4.6962   22.3404 C   0  0  0  0  0  0
  -22.7784  -13.5203   21.1896 C   0  0  0  0  0  0
  -22.1666   -4.2145   21.0978 F   0  0  0  0  0  0
  -21.5638   -3.4530   25.7737 F   0  0  0  0  0  0
  -29.9614  -13.5824   20.3636 N   0  0  0  0  0  0
  -26.2848  -12.9396   20.3236 N   0  0  0  0  0  0
  -25.9277  -11.6536   20.5735 N   0  0  0  0  0  0
  -22.0427  -12.8189   22.0454 N   0  0  0  0  0  0
  -25.4086  -15.1892   20.4173 N   0  0  0  0  0  0
  -31.8207  -14.8207   20.2120 O   0  0  0  0  0  0
  -21.6645   -6.8860   21.4234 O   0  0  0  0  0  0
  -22.3474  -14.5503   20.6725 O   0  0  0  0  0  0
  -24.6352  -31.8480   23.1916 C   0  0  0  0  0  0
  -25.9159  -32.4701   23.8287 C   0  0  1  0  0  0
  -27.2138  -27.2195   20.1485 C   0  0  0  0  0  0
  -25.5942  -33.8506   24.2210 N   0  0  0  0  0  0
  -23.4338  -30.4671   21.5353 C   0  0  2  0  0  0
  -24.8801  -28.9011   20.1124 C   0  0  0  0  0  0
  -22.7533  -29.4559   22.4900 C   0  0  0  0  0  0
  -18.0302  -28.1369   22.8481 C   0  0  0  0  0  0
  -24.1488  -36.7256   23.2642 C   0  0  0  0  0  0
  -25.9816  -30.7473   21.3794 C   0  0  0  0  0  0
  -26.0509  -29.3651   20.7250 C   0  0  0  0  0  0
  -27.2237  -28.5394   20.7247 C   0  0  0  0  0  0
  -26.0232  -26.8250   19.5076 C   0  0  0  0  0  0
  -24.8733  -27.6411   19.4897 C   0  0  0  0  0  0
  -23.6534  -29.7933   20.1543 C   0  0  0  0  0  0
  -25.4115  -36.3033   24.0321 C   0  0  1  0  0  0
  -20.5914  -28.3682   23.1260 C   0  0  2  0  0  0
  -20.6776  -26.9393   22.5409 C   0  0  0  0  0  0
  -19.5746  -26.6368   21.5205 C   0  0  0  0  0  0
  -18.1933  -26.7912   22.1625 C   0  0  0  0  0  0
  -19.1552  -28.8850   23.2855 C   0  0  0  0  0  0
  -18.9465  -30.1459   23.8862 C   0  0  0  0  0  0
  -17.6455  -30.6561   24.0558 C   0  0  0  0  0  0
  -25.9057  -34.9404   23.5068 C   0  0  0  0  0  0
  -16.5356  -29.9047   23.6342 C   0  0  0  0  0  0
  -16.7285  -28.6476   23.0347 C   0  0  0  0  0  0
  -26.4526  -31.6542   25.0696 C   0  0  0  0  0  0
  -25.3739  -31.3692   26.1407 C   0  0  0  0  0  0
  -27.0388  -30.2946   24.6227 C   0  0  0  0  0  0
  -27.6070  -32.4302   25.7459 C   0  0  0  0  0  0
  -27.5577  -37.1772   24.8464 C   0  0  0  0  0  0
  -21.4234  -29.3014   22.3643 N   0  0  0  0  0  0
  -26.4279  -37.3743   23.9423 N   0  0  0  0  0  0
  -24.7023  -31.0422   22.0897 N   0  0  0  0  0  0
  -23.4206  -28.8121   23.3030 O   0  0  0  0  0  0
  -28.3142  -26.3231   20.1440 O   0  0  0  0  0  0
  -26.5635  -34.8901   22.4644 O   0  0  0  0  0  0
  -23.5497  -32.1320   23.7194 O   0  0  0  0  0  0
  -28.0284  -20.2251   19.4806 C   0  0  0  0  0  0
  -28.3265  -18.8054   19.4878 C   0  0  0  0  0  0
  -29.4176  -18.5826   20.3128 C   0  0  0  0  0  0
  -28.9417  -20.8658   20.2705 C   0  0  0  0  0  0
  -30.2914  -17.3080   20.6140 C   0  0  0  0  0  0
  -27.5626  -17.7714   18.6958 C   0  0  0  0  0  0
  -27.1462  -24.7639   21.7690 C   0  0  0  0  0  0
  -28.4320  -23.5011   19.8969 C   0  0  0  0  0  0
  -28.2741  -24.9135   20.7320 C   0  0  1  0  0  0
  -29.0314  -22.2845   20.6144 N   0  0  0  0  0  0
  -29.8523  -15.9815   20.5105 N   0  0  0  0  0  0
  -31.4445  -17.5498   20.9875 O   0  0  0  0  0  0
  -29.7932  -19.8732   20.7875 O   0  0  0  0  0  0
  -31.4611  -12.6309   19.1508 H   0  0  0  0  0  0
  -30.3815  -11.5332   19.9719 H   0  0  0  0  0  0
  -29.7915  -11.7189   17.5287 H   0  0  0  0  0  0
  -29.6186  -13.4495   17.6854 H   0  0  0  0  0  0
  -27.8911  -11.2781   18.9105 H   0  0  0  0  0  0
  -27.3728  -12.5061   17.7899 H   0  0  0  0  0  0
  -27.5999  -14.2505   19.4344 H   0  0  0  0  0  0
  -28.7326  -12.2283   21.4216 H   0  0  0  0  0  0
  -28.4043  -13.9138   21.7599 H   0  0  0  0  0  0
  -25.2749   -9.5723   22.4746 H   0  0  0  0  0  0
  -24.0030   -7.4634   22.7444 H   0  0  0  0  0  0
  -21.0842   -8.8689   19.8940 H   0  0  0  0  0  0
  -22.3619  -10.9632   19.6151 H   0  0  0  0  0  0
  -21.1977   -7.6138   23.9714 H   0  0  0  0  0  0
  -21.1508   -6.0514   25.9081 H   0  0  0  0  0  0
  -22.0597   -2.7600   23.2838 H   0  0  0  0  0  0
  -22.4056  -11.9874   22.4881 H   0  0  0  0  0  0
  -21.1022  -13.1183   22.2627 H   0  0  0  0  0  0
  -24.6300  -15.8319   20.5109 H   0  0  0  0  0  0
  -26.2486  -15.6356   20.0804 H   0  0  0  0  0  0
  -26.7216  -32.5320   23.1011 H   0  0  0  0  0  0
  -25.0115  -33.9634   25.0377 H   0  0  0  0  0  0
  -22.7320  -31.2888   21.3828 H   0  0  0  0  0  0
  -23.3751  -35.9584   23.3278 H   0  0  0  0  0  0
  -24.3584  -36.8898   22.2063 H   0  0  0  0  0  0
  -23.7235  -37.6448   23.6678 H   0  0  0  0  0  0
  -26.1353  -31.5067   20.6119 H   0  0  0  0  0  0
  -26.8539  -30.7877   22.0208 H   0  0  0  0  0  0
  -28.1241  -28.8956   21.2028 H   0  0  0  0  0  0
  -25.9821  -25.8555   19.0300 H   0  0  0  0  0  0
  -23.9809  -27.2813   18.9957 H   0  0  0  0  0  0
  -23.7838  -30.5627   19.3919 H   0  0  0  0  0  0
  -22.7726  -29.2241   19.8524 H   0  0  0  0  0  0
  -25.1299  -36.1855   25.0810 H   0  0  0  0  0  0
  -21.0001  -28.3234   24.1376 H   0  0  0  0  0  0
  -20.5646  -26.2289   23.3611 H   0  0  0  0  0  0
  -21.6636  -26.7376   22.1210 H   0  0  0  0  0  0
  -19.6892  -25.6272   21.1232 H   0  0  0  0  0  0
  -19.6669  -27.3180   20.6732 H   0  0  0  0  0  0
  -17.4204  -26.6668   21.4028 H   0  0  0  0  0  0
  -18.0318  -26.0046   22.9014 H   0  0  0  0  0  0
  -19.7939  -30.7295   24.2191 H   0  0  0  0  0  0
  -17.5002  -31.6233   24.5150 H   0  0  0  0  0  0
  -15.5348  -30.2921   23.7674 H   0  0  0  0  0  0
  -15.8703  -28.0783   22.7059 H   0  0  0  0  0  0
  -24.5935  -30.7015   25.7734 H   0  0  0  0  0  0
  -24.8920  -32.2856   26.4815 H   0  0  0  0  0  0
  -25.8068  -30.8886   27.0186 H   0  0  0  0  0  0
  -26.2982  -29.6648   24.1278 H   0  0  0  0  0  0
  -27.4078  -29.7259   25.4775 H   0  0  0  0  0  0
  -27.8859  -30.4208   23.9476 H   0  0  0  0  0  0
  -27.2670  -33.3616   26.1995 H   0  0  0  0  0  0
  -28.3886  -32.6823   25.0277 H   0  0  0  0  0  0
  -28.0720  -31.8443   26.5395 H   0  0  0  0  0  0
  -28.2568  -38.0098   24.7549 H   0  0  0  0  0  0
  -28.1100  -36.2630   24.6231 H   0  0  0  0  0  0
  -27.2307  -37.1349   25.8869 H   0  0  0  0  0  0
  -20.9423  -29.8742   21.6855 H   0  0  0  0  0  0
  -26.0141  -38.2804   24.1438 H   0  0  0  0  0  0
  -27.2241  -20.7117   18.9470 H   0  0  0  0  0  0
  -26.7073  -17.4138   19.2675 H   0  0  0  0  0  0
  -28.1879  -16.9178   18.4328 H   0  0  0  0  0  0
  -27.1872  -18.2048   17.7674 H   0  0  0  0  0  0
  -27.2704  -23.8470   22.3463 H   0  0  0  0  0  0
  -26.1677  -24.7052   21.2918 H   0  0  0  0  0  0
  -27.1337  -25.5913   22.4783 H   0  0  0  0  0  0
  -29.0631  -23.6916   19.0263 H   0  0  0  0  0  0
  -27.4587  -23.2202   19.4940 H   0  0  0  0  0  0
  -29.1892  -24.9488   21.3242 H   0  0  0  0  0  0
  -29.7496  -22.5199   21.2938 H   0  0  0  0  0  0
  -28.8582  -15.8665   20.4317 H   0  0  0  0  0  0
  1 25  1  0  0  0
  1 30  2  0  0  0
  1 81  1  0  0  0
  2  3  1  0  0  0
  2 25  1  0  0  0
  2 84  1  0  0  0
  2 85  1  0  0  0
  3  4  1  0  0  0
  3 86  1  0  0  0
  3 87  1  0  0  0
  4  5  1  0  0  0
  4 88  1  0  0  0
  4 89  1  0  0  0
  5  6  1  0  0  0
  5 26  1  0  0  0
  5 90  1  0  0  0
  6 25  1  0  0  0
  6 91  1  0  0  0
  6 92  1  0  0  0
  7  8  2  0  0  0
  7 26  1  0  0  0
  7 29  1  0  0  0
  8  9  1  0  0  0
  8 22  1  0  0  0
  9 10  1  0  0  0
  9 27  2  0  0  0
 10 11  2  0  0  0
 10 15  1  0  0  0
 11 12  1  0  0  0
 11 93  1  0  0  0
 12 13  2  0  0  0
 12 94  1  0  0  0
 13 14  1  0  0  0
 13 31  1  0  0  0
 14 15  2  0  0  0
 14 95  1  0  0  0
 15 96  1  0  0  0
 16 17  2  0  0  0
 16 21  1  0  0  0
 16 31  1  0  0  0
 17 18  1  0  0  0
 17 97  1  0  0  0
 18 19  2  0  0  0
 18 98  1  0  0  0
 19 20  1  0  0  0
 19 24  1  0  0  0
 20 21  2  0  0  0
 20 99  1  0  0  0
 21 23  1  0  0  0
 22 28  1  0  0  0
 22 32  2  0  0  0
 26 27  1  0  0  0
 28100  1  0  0  0
 28101  1  0  0  0
 29102  1  0  0  0
 29103  1  0  0  0
 33 34  1  0  0  0
 33 66  1  0  0  0
 33 70  2  0  0  0
 34 36  1  0  0  0
 34 59  1  0  0  0
 34104  1  0  0  0
 35 44  2  0  0  0
 35 45  1  0  0  0
 35 68  1  0  0  0
 36 56  1  0  0  0
 36105  1  0  0  0
 37 39  1  0  0  0
 37 47  1  0  0  0
 37 66  1  0  0  0
 37106  1  0  0  0
 38 43  2  0  0  0
 38 46  1  0  0  0
 38 47  1  0  0  0
 39 64  1  0  0  0
 39 67  2  0  0  0
 40 52  1  0  0  0
 40 53  2  0  0  0
 40 58  1  0  0  0
 41107  1  0  0  0
 41108  1  0  0  0
 41109  1  0  0  0
 41 48  1  0  0  0
 42 43  1  0  0  0
 42 66  1  0  0  0
 42110  1  0  0  0
 42111  1  0  0  0
 43 44  1  0  0  0
 44112  1  0  0  0
 45 46  2  0  0  0
 45113  1  0  0  0
 46114  1  0  0  0
 47115  1  0  0  0
 47116  1  0  0  0
 48 56  1  0  0  0
 48 65  1  0  0  0
 48117  1  0  0  0
 49 50  1  0  0  0
 49 53  1  0  0  0
 49 64  1  0  0  0
 49118  1  0  0  0
 50 51  1  0  0  0
 50119  1  0  0  0
 50120  1  0  0  0
 51 52  1  0  0  0
 51121  1  0  0  0
 51122  1  0  0  0
 52123  1  0  0  0
 52124  1  0  0  0
 53 54  1  0  0  0
 54 55  2  0  0  0
 54125  1  0  0  0
 55 57  1  0  0  0
 55126  1  0  0  0
 56 69  2  0  0  0
 57 58  2  0  0  0
 57127  1  0  0  0
 58128  1  0  0  0
 59 60  1  0  0  0
 59 61  1  0  0  0
 59 62  1  0  0  0
 60129  1  0  0  0
 60130  1  0  0  0
 60131  1  0  0  0
 61132  1  0  0  0
 61133  1  0  0  0
 61134  1  0  0  0
 62135  1  0  0  0
 62136  1  0  0  0
 62137  1  0  0  0
 63 65  1  0  0  0
 63138  1  0  0  0
 63139  1  0  0  0
 63140  1  0  0  0
 64141  1  0  0  0
 65142  1  0  0  0
 68 79  1  0  0  0
 71 72  1  0  0  0
 71 74  2  0  0  0
 71143  1  0  0  0
 72 73  2  0  0  0
 72 76  1  0  0  0
 73 75  1  0  0  0
 73 83  1  0  0  0
 74 80  1  0  0  0
 74 83  1  0  0  0
 75 81  1  0  0  0
 75 82  2  0  0  0
 76144  1  0  0  0
 76145  1  0  0  0
 76146  1  0  0  0
 77147  1  0  0  0
 77148  1  0  0  0
 77149  1  0  0  0
 77 79  1  0  0  0
 78 79  1  0  0  0
 78 80  1  0  0  0
 78150  1  0  0  0
 78151  1  0  0  0
 79152  1  0  0  0
 80153  1  0  0  0
 81154  1  0  0  0
M  ISO  4   1 100  68 101  79 101  81 100
M  END
> <chiral flag>
0

> <version>
0

> <s_m_source_file>
/data/baiqing/PycharmProjects/Reinvent-master-3.2/result/LINK_invent/BTK/process_docking_weight1_custom_product_contain_oxygen_bond_distance_aromatic_linkinvent_7_9_3/rearranged_h_0160.sdf

> <i_m_source_file_index>
50

> <r_mmod_Potential_Energy-OPLS-2005>
146.083740234375

> <r_mmod_Stretch_Energy-OPLS-2005>
148.466720581055

> <r_mmod_Bend_Energy-OPLS-2005>
209.99690246582

> <r_mmod_Torsional_Energy-OPLS-2005>
250.691070556641

> <r_mmod_Improper_Torsional_Energy-OPLS-2005>
7.08208179473877

> <r_mmod_Van_der_Waal_Energy-OPLS-2005>
111.429016113281

> <r_mmod_Electrostatic_Energy-OPLS-2005>
-453.984161376953

> <r_mmod_Solvation_Energy-OPLS-2005>
-238.846572875977

> <b_mmod_Minimization_Converged-OPLS-2005>
0

> <r_mmod_RMS_Derivative-OPLS-2005>
2.64442348480225

$$$$
51
                    3D
 Structure written by MMmdl.
156165  0  0  1  0            999 V2000
  -30.6737  -14.6147   20.4751 C   0  0  0  0  0  0
  -30.4272  -12.3710   19.4674 C   0  0  0  0  0  0
  -29.5117  -12.4960   18.2316 C   0  0  0  0  0  0
  -28.0319  -12.3447   18.6386 C   0  0  0  0  0  0
  -27.6548  -13.2202   19.8646 C   0  0  2  0  0  0
  -28.6987  -13.1100   21.0009 C   0  0  0  0  0  0
  -25.2540  -13.8175   20.5651 C   0  0  0  0  0  0
  -24.1807  -13.0438   20.9210 C   0  0  0  0  0  0
  -24.6387  -11.6914   20.8773 C   0  0  0  0  0  0
  -23.9036  -10.4296   21.0416 C   0  0  0  0  0  0
  -24.3580   -9.4191   21.9195 C   0  0  0  0  0  0
  -23.6275   -8.2218   22.0768 C   0  0  0  0  0  0
  -22.4257   -8.0266   21.3552 C   0  0  0  0  0  0
  -21.9891   -9.0239   20.4655 C   0  0  0  0  0  0
  -22.7211  -10.2136   20.3063 C   0  0  0  0  0  0
  -21.6828   -6.0731   22.5292 C   0  0  0  0  0  0
  -21.3993   -6.5642   23.8226 C   0  0  0  0  0  0
  -21.3654   -5.6797   24.9193 C   0  0  0  0  0  0
  -21.6047   -4.3055   24.7222 C   0  0  0  0  0  0
  -21.8811   -3.8140   23.4344 C   0  0  0  0  0  0
  -21.9164   -4.6964   22.3404 C   0  0  0  0  0  0
  -22.7830  -13.5253   21.1844 C   0  0  0  0  0  0
  -22.1640   -4.2155   21.0982 F   0  0  0  0  0  0
  -21.5624   -3.4532   25.7726 F   0  0  0  0  0  0
  -30.0179  -13.4151   20.4297 N   0  0  0  0  0  0
  -26.2988  -12.9370   20.3330 N   0  0  0  0  0  0
  -25.9323  -11.6524   20.5792 N   0  0  0  0  0  0
  -22.0452  -12.8291   22.0416 N   0  0  0  0  0  0
  -25.4224  -15.1867   20.3951 N   0  0  0  0  0  0
  -31.8519  -14.6966   20.1160 O   0  0  0  0  0  0
  -21.6607   -6.8872   21.4261 O   0  0  0  0  0  0
  -22.3553  -14.5568   20.6691 O   0  0  0  0  0  0
  -24.6254  -31.8608   23.2032 C   0  0  0  0  0  0
  -25.9120  -32.4773   23.8358 C   0  0  1  0  0  0
  -27.2215  -27.3522   20.1189 C   0  0  0  0  0  0
  -25.5949  -33.8581   24.2313 N   0  0  0  0  0  0
  -23.4165  -30.4844   21.5459 C   0  0  2  0  0  0
  -24.8635  -28.9428   20.1080 C   0  0  0  0  0  0
  -22.7471  -29.4620   22.4944 C   0  0  0  0  0  0
  -18.0289  -28.1381   22.8482 C   0  0  0  0  0  0
  -24.1488  -36.7298   23.2641 C   0  0  0  0  0  0
  -25.9519  -30.8054   21.3656 C   0  0  0  0  0  0
  -26.0287  -29.4342   20.7121 C   0  0  0  0  0  0
  -27.2161  -28.6491   20.7059 C   0  0  0  0  0  0
  -26.0425  -26.9046   19.4878 C   0  0  0  0  0  0
  -24.8704  -27.6847   19.4819 C   0  0  0  0  0  0
  -23.6295  -29.8206   20.1591 C   0  0  0  0  0  0
  -25.4104  -36.3086   24.0346 C   0  0  1  0  0  0
  -20.5882  -28.3681   23.1291 C   0  0  2  0  0  0
  -20.6778  -26.9411   22.5414 C   0  0  0  0  0  0
  -19.5765  -26.6384   21.5213 C   0  0  0  0  0  0
  -18.1933  -26.7931   22.1614 C   0  0  0  0  0  0
  -19.1535  -28.8848   23.2879 C   0  0  0  0  0  0
  -18.9468  -30.1452   23.8895 C   0  0  0  0  0  0
  -17.6466  -30.6586   24.0557 C   0  0  0  0  0  0
  -25.9037  -34.9456   23.5119 C   0  0  0  0  0  0
  -16.5352  -29.9087   23.6321 C   0  0  0  0  0  0
  -16.7270  -28.6503   23.0330 C   0  0  0  0  0  0
  -26.4531  -31.6544   25.0694 C   0  0  0  0  0  0
  -25.3798  -31.3632   26.1437 C   0  0  0  0  0  0
  -27.0349  -30.2967   24.6101 C   0  0  0  0  0  0
  -27.6104  -32.4259   25.7460 C   0  0  0  0  0  0
  -27.5580  -37.1788   24.8462 C   0  0  0  0  0  0
  -21.4181  -29.3036   22.3689 N   0  0  0  0  0  0
  -26.4278  -37.3782   23.9445 N   0  0  0  0  0  0
  -24.6832  -31.0653   22.0973 N   0  0  0  0  0  0
  -23.4216  -28.8182   23.3026 O   0  0  0  0  0  0
  -28.3249  -26.5010   20.1578 O   0  0  0  0  0  0
  -26.5595  -34.8922   22.4679 O   0  0  0  0  0  0
  -23.5428  -32.1396   23.7397 O   0  0  0  0  0  0
  -30.8033  -19.1696   19.0977 C   0  0  0  0  0  0
  -30.0001  -19.4268   20.1854 C   0  0  0  0  0  0
  -30.2002  -17.0876   20.3037 C   0  0  0  0  0  0
  -28.1093  -21.2297   20.2777 C   0  0  0  0  0  0
  -30.4656  -22.0078   20.1393 C   0  0  0  0  0  0
  -27.6909  -22.6600   20.7598 C   0  0  0  0  0  0
  -30.0454  -23.4447   20.6046 C   0  0  0  0  0  0
  -29.5607  -20.8428   20.6591 C   0  0  2  0  0  0
  -28.5812  -23.8397   20.2565 C   0  0  2  0  0  0
  -28.1064  -25.2306   20.8674 C   0  0  0  0  0  0
  -29.6432  -18.2069   20.8452 N   0  0  0  0  0  0
  -29.9505  -15.7360   20.7789 N   0  0  0  0  0  0
  -31.1838  -17.4754   18.8910 S   0  0  0  0  0  0
  -31.4760  -12.4526   19.1745 H   0  0  0  0  0  0
  -30.3271  -11.3829   19.9188 H   0  0  0  0  0  0
  -29.7808  -11.7412   17.4918 H   0  0  0  0  0  0
  -29.6700  -13.4651   17.7535 H   0  0  0  0  0  0
  -27.8609  -11.2920   18.8669 H   0  0  0  0  0  0
  -27.3803  -12.5771   17.7962 H   0  0  0  0  0  0
  -27.6685  -14.2523   19.5160 H   0  0  0  0  0  0
  -28.7025  -12.1087   21.4337 H   0  0  0  0  0  0
  -28.4526  -13.7896   21.8181 H   0  0  0  0  0  0
  -25.2719   -9.5639   22.4773 H   0  0  0  0  0  0
  -23.9971   -7.4583   22.7477 H   0  0  0  0  0  0
  -21.0824   -8.8733   19.8964 H   0  0  0  0  0  0
  -22.3660  -10.9659   19.6155 H   0  0  0  0  0  0
  -21.2019   -7.6158   23.9741 H   0  0  0  0  0  0
  -21.1489   -6.0526   25.9097 H   0  0  0  0  0  0
  -22.0606   -2.7610   23.2827 H   0  0  0  0  0  0
  -22.4008  -11.9935   22.4827 H   0  0  0  0  0  0
  -21.1077  -13.1358   22.2598 H   0  0  0  0  0  0
  -24.6490  -15.8364   20.4876 H   0  0  0  0  0  0
  -26.2492  -15.6122   19.9947 H   0  0  0  0  0  0
  -26.7186  -32.5469   23.1110 H   0  0  0  0  0  0
  -25.0083  -33.9701   25.0452 H   0  0  0  0  0  0
  -22.7102  -31.3044   21.4032 H   0  0  0  0  0  0
  -23.3747  -35.9613   23.3253 H   0  0  0  0  0  0
  -24.3588  -36.8967   22.2059 H   0  0  0  0  0  0
  -23.7213  -37.6482   23.6684 H   0  0  0  0  0  0
  -26.0678  -31.5686   20.5942 H   0  0  0  0  0  0
  -26.8391  -30.8633   21.9833 H   0  0  0  0  0  0
  -28.1116  -29.0169   21.1888 H   0  0  0  0  0  0
  -26.0243  -25.9333   19.0156 H   0  0  0  0  0  0
  -23.9779  -27.3082   18.9989 H   0  0  0  0  0  0
  -23.7470  -30.5999   19.4042 H   0  0  0  0  0  0
  -22.7494  -29.2500   19.8555 H   0  0  0  0  0  0
  -25.1270  -36.1929   25.0827 H   0  0  0  0  0  0
  -20.9966  -28.3255   24.1410 H   0  0  0  0  0  0
  -20.5676  -26.2295   23.3613 H   0  0  0  0  0  0
  -21.6643  -26.7436   22.1207 H   0  0  0  0  0  0
  -19.6929  -25.6303   21.1228 H   0  0  0  0  0  0
  -19.6711  -27.3202   20.6758 H   0  0  0  0  0  0
  -17.4214  -26.6681   21.4001 H   0  0  0  0  0  0
  -18.0315  -26.0069   22.9009 H   0  0  0  0  0  0
  -19.7942  -30.7268   24.2251 H   0  0  0  0  0  0
  -17.5020  -31.6264   24.5168 H   0  0  0  0  0  0
  -15.5347  -30.2998   23.7636 H   0  0  0  0  0  0
  -15.8669  -28.0837   22.7022 H   0  0  0  0  0  0
  -24.6012  -30.6937   25.7785 H   0  0  0  0  0  0
  -24.8940  -32.2758   26.4894 H   0  0  0  0  0  0
  -25.8160  -30.8815   27.0198 H   0  0  0  0  0  0
  -26.2878  -29.6695   24.1218 H   0  0  0  0  0  0
  -27.4164  -29.7237   25.4571 H   0  0  0  0  0  0
  -27.8711  -30.4247   23.9213 H   0  0  0  0  0  0
  -27.2726  -33.3556   26.2051 H   0  0  0  0  0  0
  -28.3894  -32.6819   25.0264 H   0  0  0  0  0  0
  -28.0800  -31.8375   26.5353 H   0  0  0  0  0  0
  -28.2544  -38.0139   24.7565 H   0  0  0  0  0  0
  -28.1119  -36.2667   24.6194 H   0  0  0  0  0  0
  -27.2314  -37.1328   25.8865 H   0  0  0  0  0  0
  -20.9375  -29.8748   21.6876 H   0  0  0  0  0  0
  -26.0152  -38.2840   24.1488 H   0  0  0  0  0  0
  -31.2235  -19.8835   18.4011 H   0  0  0  0  0  0
  -27.9854  -21.1627   19.1955 H   0  0  0  0  0  0
  -27.4211  -20.4963   20.7028 H   0  0  0  0  0  0
  -31.4974  -21.8217   20.4443 H   0  0  0  0  0  0
  -30.4714  -21.9998   19.0491 H   0  0  0  0  0  0
  -27.6905  -22.6650   21.8507 H   0  0  0  0  0  0
  -26.6541  -22.8403   20.4666 H   0  0  0  0  0  0
  -30.7257  -24.1794   20.1704 H   0  0  0  0  0  0
  -30.1897  -23.5111   21.6838 H   0  0  0  0  0  0
  -29.6275  -20.8558   21.7473 H   0  0  0  0  0  0
  -28.4737  -23.8954   19.1730 H   0  0  0  0  0  0
  -28.5626  -25.3459   21.8510 H   0  0  0  0  0  0
  -27.0450  -25.1297   21.1013 H   0  0  0  0  0  0
  -29.0583  -15.5877   21.2226 H   0  0  0  0  0  0
  1 25  1  0  0  0
  1 30  2  0  0  0
  1 82  1  0  0  0
  2  3  1  0  0  0
  2 25  1  0  0  0
  2 84  1  0  0  0
  2 85  1  0  0  0
  3  4  1  0  0  0
  3 86  1  0  0  0
  3 87  1  0  0  0
  4  5  1  0  0  0
  4 88  1  0  0  0
  4 89  1  0  0  0
  5  6  1  0  0  0
  5 26  1  0  0  0
  5 90  1  0  0  0
  6 25  1  0  0  0
  6 91  1  0  0  0
  6 92  1  0  0  0
  7  8  2  0  0  0
  7 26  1  0  0  0
  7 29  1  0  0  0
  8  9  1  0  0  0
  8 22  1  0  0  0
  9 10  1  0  0  0
  9 27  2  0  0  0
 10 11  2  0  0  0
 10 15  1  0  0  0
 11 12  1  0  0  0
 11 93  1  0  0  0
 12 13  2  0  0  0
 12 94  1  0  0  0
 13 14  1  0  0  0
 13 31  1  0  0  0
 14 15  2  0  0  0
 14 95  1  0  0  0
 15 96  1  0  0  0
 16 17  2  0  0  0
 16 21  1  0  0  0
 16 31  1  0  0  0
 17 18  1  0  0  0
 17 97  1  0  0  0
 18 19  2  0  0  0
 18 98  1  0  0  0
 19 20  1  0  0  0
 19 24  1  0  0  0
 20 21  2  0  0  0
 20 99  1  0  0  0
 21 23  1  0  0  0
 22 28  1  0  0  0
 22 32  2  0  0  0
 26 27  1  0  0  0
 28100  1  0  0  0
 28101  1  0  0  0
 29102  1  0  0  0
 29103  1  0  0  0
 33 34  1  0  0  0
 33 66  1  0  0  0
 33 70  2  0  0  0
 34 36  1  0  0  0
 34 59  1  0  0  0
 34104  1  0  0  0
 35 44  2  0  0  0
 35 45  1  0  0  0
 35 68  1  0  0  0
 36 56  1  0  0  0
 36105  1  0  0  0
 37 39  1  0  0  0
 37 47  1  0  0  0
 37 66  1  0  0  0
 37106  1  0  0  0
 38 43  2  0  0  0
 38 46  1  0  0  0
 38 47  1  0  0  0
 39 64  1  0  0  0
 39 67  2  0  0  0
 40 52  1  0  0  0
 40 53  2  0  0  0
 40 58  1  0  0  0
 41107  1  0  0  0
 41108  1  0  0  0
 41109  1  0  0  0
 41 48  1  0  0  0
 42 43  1  0  0  0
 42 66  1  0  0  0
 42110  1  0  0  0
 42111  1  0  0  0
 43 44  1  0  0  0
 44112  1  0  0  0
 45 46  2  0  0  0
 45113  1  0  0  0
 46114  1  0  0  0
 47115  1  0  0  0
 47116  1  0  0  0
 48 56  1  0  0  0
 48 65  1  0  0  0
 48117  1  0  0  0
 49 50  1  0  0  0
 49 53  1  0  0  0
 49 64  1  0  0  0
 49118  1  0  0  0
 50 51  1  0  0  0
 50119  1  0  0  0
 50120  1  0  0  0
 51 52  1  0  0  0
 51121  1  0  0  0
 51122  1  0  0  0
 52123  1  0  0  0
 52124  1  0  0  0
 53 54  1  0  0  0
 54 55  2  0  0  0
 54125  1  0  0  0
 55 57  1  0  0  0
 55126  1  0  0  0
 56 69  2  0  0  0
 57 58  2  0  0  0
 57127  1  0  0  0
 58128  1  0  0  0
 59 60  1  0  0  0
 59 61  1  0  0  0
 59 62  1  0  0  0
 60129  1  0  0  0
 60130  1  0  0  0
 60131  1  0  0  0
 61132  1  0  0  0
 61133  1  0  0  0
 61134  1  0  0  0
 62135  1  0  0  0
 62136  1  0  0  0
 62137  1  0  0  0
 63 65  1  0  0  0
 63138  1  0  0  0
 63139  1  0  0  0
 63140  1  0  0  0
 64141  1  0  0  0
 65142  1  0  0  0
 68 80  1  0  0  0
 71 72  2  0  0  0
 71 83  1  0  0  0
 71143  1  0  0  0
 72 81  1  0  0  0
 72 78  1  0  0  0
 73 81  2  0  0  0
 73 82  1  0  0  0
 73 83  1  0  0  0
 74 76  1  0  0  0
 74 78  1  0  0  0
 74144  1  0  0  0
 74145  1  0  0  0
 75 77  1  0  0  0
 75 78  1  0  0  0
 75146  1  0  0  0
 75147  1  0  0  0
 76 79  1  0  0  0
 76148  1  0  0  0
 76149  1  0  0  0
 77 79  1  0  0  0
 77150  1  0  0  0
 77151  1  0  0  0
 78152  1  0  0  0
 79 80  1  0  0  0
 79153  1  0  0  0
 80154  1  0  0  0
 80155  1  0  0  0
 82156  1  0  0  0
M  ISO  4   1 100  68 101  80 101  82 100
M  END
> <chiral flag>
0

> <version>
0

> <s_m_source_file>
/data/baiqing/PycharmProjects/Reinvent-master-3.2/result/LINK_invent/BTK/process_docking_weight1_custom_product_contain_oxygen_bond_distance_aromatic_linkinvent_7_9_3/rearranged_h_0160.sdf

> <i_m_source_file_index>
51

> <r_mmod_Potential_Energy-OPLS-2005>
-15.0914325714111

> <r_mmod_Stretch_Energy-OPLS-2005>
66.2803649902344

> <r_mmod_Bend_Energy-OPLS-2005>
122.893760681152

> <r_mmod_Torsional_Energy-OPLS-2005>
251.702270507812

> <r_mmod_Improper_Torsional_Energy-OPLS-2005>
4.34760999679565

> <r_mmod_Van_der_Waal_Energy-OPLS-2005>
125.861831665039

> <r_mmod_Electrostatic_Energy-OPLS-2005>
-422.340789794922

> <r_mmod_Solvation_Energy-OPLS-2005>
-205.920989990234

> <b_mmod_Minimization_Converged-OPLS-2005>
0

> <r_mmod_RMS_Derivative-OPLS-2005>
3.45528626441956

$$$$
52
                    3D
 Structure written by MMmdl.
163172  0  0  1  0            999 V2000
  -30.6663  -14.5818   20.5387 C   0  0  0  0  0  0
  -30.4379  -12.3707   19.4394 C   0  0  0  0  0  0
  -29.5038  -12.4920   18.2177 C   0  0  0  0  0  0
  -28.0291  -12.3303   18.6386 C   0  0  0  0  0  0
  -27.6529  -13.2100   19.8604 C   0  0  2  0  0  0
  -28.6987  -13.0596   20.9868 C   0  0  0  0  0  0
  -25.2563  -13.8171   20.5672 C   0  0  0  0  0  0
  -24.1822  -13.0452   20.9177 C   0  0  0  0  0  0
  -24.6381  -11.6913   20.8749 C   0  0  0  0  0  0
  -23.9064  -10.4294   21.0412 C   0  0  0  0  0  0
  -24.3616   -9.4211   21.9180 C   0  0  0  0  0  0
  -23.6289   -8.2251   22.0754 C   0  0  0  0  0  0
  -22.4271   -8.0288   21.3547 C   0  0  0  0  0  0
  -21.9910   -9.0266   20.4645 C   0  0  0  0  0  0
  -22.7246  -10.2145   20.3054 C   0  0  0  0  0  0
  -21.6837   -6.0743   22.5276 C   0  0  0  0  0  0
  -21.4009   -6.5642   23.8212 C   0  0  0  0  0  0
  -21.3660   -5.6794   24.9174 C   0  0  0  0  0  0
  -21.6037   -4.3053   24.7223 C   0  0  0  0  0  0
  -21.8816   -3.8152   23.4337 C   0  0  0  0  0  0
  -21.9186   -4.6973   22.3400 C   0  0  0  0  0  0
  -22.7842  -13.5242   21.1820 C   0  0  0  0  0  0
  -22.1649   -4.2164   21.0974 F   0  0  0  0  0  0
  -21.5634   -3.4539   25.7732 F   0  0  0  0  0  0
  -30.0120  -13.3896   20.4145 N   0  0  0  0  0  0
  -26.2980  -12.9332   20.3302 N   0  0  0  0  0  0
  -25.9299  -11.6501   20.5771 N   0  0  0  0  0  0
  -22.0457  -12.8273   22.0384 N   0  0  0  0  0  0
  -25.4302  -15.1893   20.4085 N   0  0  0  0  0  0
  -31.8391  -14.7157   20.1802 O   0  0  0  0  0  0
  -21.6621   -6.8894   21.4242 O   0  0  0  0  0  0
  -22.3550  -14.5548   20.6646 O   0  0  0  0  0  0
  -24.6209  -31.8642   23.2051 C   0  0  0  0  0  0
  -25.9076  -32.4803   23.8371 C   0  0  1  0  0  0
  -27.2266  -27.3720   20.1059 C   0  0  0  0  0  0
  -25.5915  -33.8596   24.2298 N   0  0  0  0  0  0
  -23.4129  -30.4871   21.5482 C   0  0  2  0  0  0
  -24.8626  -28.9471   20.1092 C   0  0  0  0  0  0
  -22.7444  -29.4638   22.4965 C   0  0  0  0  0  0
  -18.0279  -28.1383   22.8502 C   0  0  0  0  0  0
  -24.1481  -36.7301   23.2641 C   0  0  0  0  0  0
  -25.9485  -30.8084   21.3707 C   0  0  0  0  0  0
  -26.0271  -29.4390   20.7153 C   0  0  0  0  0  0
  -27.2148  -28.6582   20.7151 C   0  0  0  0  0  0
  -26.0502  -26.9165   19.4807 C   0  0  0  0  0  0
  -24.8725  -27.6888   19.4840 C   0  0  0  0  0  0
  -23.6260  -29.8216   20.1620 C   0  0  0  0  0  0
  -25.4110  -36.3098   24.0328 C   0  0  1  0  0  0
  -20.5873  -28.3674   23.1296 C   0  0  2  0  0  0
  -20.6766  -26.9408   22.5414 C   0  0  0  0  0  0
  -19.5743  -26.6383   21.5213 C   0  0  0  0  0  0
  -18.1922  -26.7929   22.1626 C   0  0  0  0  0  0
  -19.1530  -28.8847   23.2893 C   0  0  0  0  0  0
  -18.9460  -30.1453   23.8904 C   0  0  0  0  0  0
  -17.6459  -30.6588   24.0574 C   0  0  0  0  0  0
  -25.9044  -34.9464   23.5110 C   0  0  0  0  0  0
  -16.5349  -29.9093   23.6325 C   0  0  0  0  0  0
  -16.7264  -28.6507   23.0350 C   0  0  0  0  0  0
  -26.4480  -31.6592   25.0718 C   0  0  0  0  0  0
  -25.3716  -31.3737   26.1448 C   0  0  0  0  0  0
  -27.0316  -30.3023   24.6132 C   0  0  0  0  0  0
  -27.6046  -32.4321   25.7491 C   0  0  0  0  0  0
  -27.5579  -37.1812   24.8468 C   0  0  0  0  0  0
  -21.4163  -29.3039   22.3703 N   0  0  0  0  0  0
  -26.4291  -37.3789   23.9409 N   0  0  0  0  0  0
  -24.6790  -31.0684   22.0988 N   0  0  0  0  0  0
  -23.4180  -28.8177   23.3031 O   0  0  0  0  0  0
  -28.3061  -26.4994   20.1357 O   0  0  0  0  0  0
  -26.5615  -34.8921   22.4679 O   0  0  0  0  0  0
  -23.5377  -32.1429   23.7393 O   0  0  0  0  0  0
  -30.3371  -18.8412   19.6438 C   0  0  0  0  0  0
  -30.0275  -20.2481   19.4862 C   0  0  0  0  0  0
  -30.0339  -18.2967   20.8654 C   0  0  0  0  0  0
  -29.4392  -20.8182   20.6130 C   0  0  0  0  0  0
  -28.3845  -25.7122   21.2768 C   0  0  0  0  0  0
  -28.6922  -24.3878   21.4690 C   0  0  0  0  0  0
  -29.0379  -23.3556   20.4544 C   0  0  0  0  0  0
  -27.9026  -20.4676   17.3748 C   0  0  0  0  0  0
  -28.8476  -19.6918   16.4960 C   0  0  0  0  0  0
  -29.3088  -20.9913   17.1271 C   0  0  0  0  0  0
  -29.5036  -22.1886   16.2116 C   0  0  0  0  0  0
  -30.4029  -20.9358   18.1982 C   0  0  0  0  0  0
  -30.4495  -16.9456   21.4780 C   0  0  0  0  0  0
  -29.0251  -22.0896   20.9847 N   0  0  0  0  0  0
  -29.9284  -15.6535   20.9430 N   0  0  0  0  0  0
  -29.2831  -23.6059   19.2781 O   0  0  0  0  0  0
  -28.7136  -23.9975   22.7567 O   0  0  0  0  0  0
  -29.2567  -19.5425   21.8264 S   0  0  0  0  0  0
  -31.4781  -12.4972   19.1328 H   0  0  0  0  0  0
  -30.3813  -11.3740   19.8815 H   0  0  0  0  0  0
  -29.7638  -11.7428   17.4702 H   0  0  0  0  0  0
  -29.6474  -13.4631   17.7412 H   0  0  0  0  0  0
  -27.8670  -11.2800   18.8822 H   0  0  0  0  0  0
  -27.3710  -12.5485   17.7970 H   0  0  0  0  0  0
  -27.6787  -14.2429   19.5151 H   0  0  0  0  0  0
  -28.7031  -12.0360   21.3665 H   0  0  0  0  0  0
  -28.4539  -13.6926   21.8409 H   0  0  0  0  0  0
  -25.2767   -9.5669   22.4761 H   0  0  0  0  0  0
  -23.9984   -7.4633   22.7475 H   0  0  0  0  0  0
  -21.0840   -8.8797   19.8949 H   0  0  0  0  0  0
  -22.3713  -10.9686   19.6165 H   0  0  0  0  0  0
  -21.1999   -7.6151   23.9728 H   0  0  0  0  0  0
  -21.1477   -6.0515   25.9080 H   0  0  0  0  0  0
  -22.0595   -2.7616   23.2827 H   0  0  0  0  0  0
  -22.4045  -11.9978   22.4866 H   0  0  0  0  0  0
  -21.1059  -13.1317   22.2501 H   0  0  0  0  0  0
  -24.6690  -15.8506   20.5228 H   0  0  0  0  0  0
  -26.2795  -15.6238   20.0711 H   0  0  0  0  0  0
  -26.7148  -32.5504   23.1134 H   0  0  0  0  0  0
  -25.0091  -33.9753   25.0460 H   0  0  0  0  0  0
  -22.7055  -31.3067   21.4081 H   0  0  0  0  0  0
  -23.3738  -35.9643   23.3318 H   0  0  0  0  0  0
  -24.3575  -36.8899   22.2054 H   0  0  0  0  0  0
  -23.7219  -37.6506   23.6643 H   0  0  0  0  0  0
  -26.0682  -31.5697   20.5989 H   0  0  0  0  0  0
  -26.8335  -30.8644   21.9930 H   0  0  0  0  0  0
  -28.1067  -29.0239   21.2034 H   0  0  0  0  0  0
  -26.0422  -25.9408   19.0162 H   0  0  0  0  0  0
  -23.9797  -27.3046   19.0098 H   0  0  0  0  0  0
  -23.7446  -30.6002   19.4075 H   0  0  0  0  0  0
  -22.7466  -29.2501   19.8592 H   0  0  0  0  0  0
  -25.1281  -36.1977   25.0819 H   0  0  0  0  0  0
  -20.9968  -28.3253   24.1417 H   0  0  0  0  0  0
  -20.5659  -26.2295   23.3618 H   0  0  0  0  0  0
  -21.6635  -26.7445   22.1221 H   0  0  0  0  0  0
  -19.6904  -25.6293   21.1249 H   0  0  0  0  0  0
  -19.6674  -27.3188   20.6745 H   0  0  0  0  0  0
  -17.4192  -26.6679   21.4027 H   0  0  0  0  0  0
  -18.0326  -26.0068   22.9022 H   0  0  0  0  0  0
  -19.7930  -30.7276   24.2272 H   0  0  0  0  0  0
  -17.5008  -31.6267   24.5176 H   0  0  0  0  0  0
  -15.5346  -30.3002   23.7634 H   0  0  0  0  0  0
  -15.8664  -28.0826   22.7062 H   0  0  0  0  0  0
  -24.5884  -30.7093   25.7777 H   0  0  0  0  0  0
  -24.8920  -32.2918   26.4864 H   0  0  0  0  0  0
  -25.8040  -30.8923   27.0226 H   0  0  0  0  0  0
  -26.2883  -29.6794   24.1139 H   0  0  0  0  0  0
  -27.4024  -29.7252   25.4614 H   0  0  0  0  0  0
  -27.8743  -30.4333   23.9333 H   0  0  0  0  0  0
  -27.2662  -33.3628   26.2063 H   0  0  0  0  0  0
  -28.3867  -32.6865   25.0323 H   0  0  0  0  0  0
  -28.0698  -31.8445   26.5421 H   0  0  0  0  0  0
  -28.2608  -38.0096   24.7508 H   0  0  0  0  0  0
  -28.1058  -36.2629   24.6304 H   0  0  0  0  0  0
  -27.2305  -37.1480   25.8873 H   0  0  0  0  0  0
  -20.9332  -29.8788   21.6945 H   0  0  0  0  0  0
  -26.0178  -38.2869   24.1406 H   0  0  0  0  0  0
  -30.8459  -18.2927   18.8628 H   0  0  0  0  0  0
  -28.1558  -26.3195   22.1440 H   0  0  0  0  0  0
  -27.6572  -20.0292   18.3403 H   0  0  0  0  0  0
  -27.0797  -20.9886   16.8894 H   0  0  0  0  0  0
  -28.6521  -19.6891   15.4251 H   0  0  0  0  0  0
  -29.2604  -18.7650   16.8898 H   0  0  0  0  0  0
  -28.7849  -22.1748   15.3916 H   0  0  0  0  0  0
  -30.5080  -22.1827   15.7862 H   0  0  0  0  0  0
  -29.3644  -23.1199   16.7593 H   0  0  0  0  0  0
  -31.2573  -20.4248   17.7503 H   0  0  0  0  0  0
  -30.7829  -21.9343   18.4022 H   0  0  0  0  0  0
  -30.1718  -16.9571   22.5331 H   0  0  0  0  0  0
  -31.5402  -16.9103   21.4921 H   0  0  0  0  0  0
  -28.6237  -22.1044   21.9111 H   0  0  0  0  0  0
  -28.9479  -15.4734   21.0989 H   0  0  0  0  0  0
  -29.3319  -23.2802   22.8238 H   0  0  0  0  0  0
  1 25  1  0  0  0
  1 30  2  0  0  0
  1 85  1  0  0  0
  2  3  1  0  0  0
  2 25  1  0  0  0
  2 89  1  0  0  0
  2 90  1  0  0  0
  3  4  1  0  0  0
  3 91  1  0  0  0
  3 92  1  0  0  0
  4  5  1  0  0  0
  4 93  1  0  0  0
  4 94  1  0  0  0
  5  6  1  0  0  0
  5 26  1  0  0  0
  5 95  1  0  0  0
  6 25  1  0  0  0
  6 96  1  0  0  0
  6 97  1  0  0  0
  7  8  2  0  0  0
  7 26  1  0  0  0
  7 29  1  0  0  0
  8  9  1  0  0  0
  8 22  1  0  0  0
  9 10  1  0  0  0
  9 27  2  0  0  0
 10 11  2  0  0  0
 10 15  1  0  0  0
 11 12  1  0  0  0
 11 98  1  0  0  0
 12 13  2  0  0  0
 12 99  1  0  0  0
 13 14  1  0  0  0
 13 31  1  0  0  0
 14 15  2  0  0  0
 14100  1  0  0  0
 15101  1  0  0  0
 16 17  2  0  0  0
 16 21  1  0  0  0
 16 31  1  0  0  0
 17 18  1  0  0  0
 17102  1  0  0  0
 18 19  2  0  0  0
 18103  1  0  0  0
 19 20  1  0  0  0
 19 24  1  0  0  0
 20 21  2  0  0  0
 20104  1  0  0  0
 21 23  1  0  0  0
 22 28  1  0  0  0
 22 32  2  0  0  0
 26 27  1  0  0  0
 28105  1  0  0  0
 28106  1  0  0  0
 29107  1  0  0  0
 29108  1  0  0  0
 33 34  1  0  0  0
 33 66  1  0  0  0
 33 70  2  0  0  0
 34 36  1  0  0  0
 34 59  1  0  0  0
 34109  1  0  0  0
 35 44  2  0  0  0
 35 45  1  0  0  0
 35 68  1  0  0  0
 36 56  1  0  0  0
 36110  1  0  0  0
 37 39  1  0  0  0
 37 47  1  0  0  0
 37 66  1  0  0  0
 37111  1  0  0  0
 38 43  2  0  0  0
 38 46  1  0  0  0
 38 47  1  0  0  0
 39 64  1  0  0  0
 39 67  2  0  0  0
 40 52  1  0  0  0
 40 53  2  0  0  0
 40 58  1  0  0  0
 41112  1  0  0  0
 41113  1  0  0  0
 41114  1  0  0  0
 41 48  1  0  0  0
 42 43  1  0  0  0
 42 66  1  0  0  0
 42115  1  0  0  0
 42116  1  0  0  0
 43 44  1  0  0  0
 44117  1  0  0  0
 45 46  2  0  0  0
 45118  1  0  0  0
 46119  1  0  0  0
 47120  1  0  0  0
 47121  1  0  0  0
 48 56  1  0  0  0
 48 65  1  0  0  0
 48122  1  0  0  0
 49 50  1  0  0  0
 49 53  1  0  0  0
 49 64  1  0  0  0
 49123  1  0  0  0
 50 51  1  0  0  0
 50124  1  0  0  0
 50125  1  0  0  0
 51 52  1  0  0  0
 51126  1  0  0  0
 51127  1  0  0  0
 52128  1  0  0  0
 52129  1  0  0  0
 53 54  1  0  0  0
 54 55  2  0  0  0
 54130  1  0  0  0
 55 57  1  0  0  0
 55131  1  0  0  0
 56 69  2  0  0  0
 57 58  2  0  0  0
 57132  1  0  0  0
 58133  1  0  0  0
 59 60  1  0  0  0
 59 61  1  0  0  0
 59 62  1  0  0  0
 60134  1  0  0  0
 60135  1  0  0  0
 60136  1  0  0  0
 61137  1  0  0  0
 61138  1  0  0  0
 61139  1  0  0  0
 62140  1  0  0  0
 62141  1  0  0  0
 62142  1  0  0  0
 63 65  1  0  0  0
 63143  1  0  0  0
 63144  1  0  0  0
 63145  1  0  0  0
 64146  1  0  0  0
 65147  1  0  0  0
 68 75  1  0  0  0
 71 72  1  0  0  0
 71 73  2  0  0  0
 71148  1  0  0  0
 72 74  2  0  0  0
 72 82  1  0  0  0
 73 83  1  0  0  0
 73 88  1  0  0  0
 74 84  1  0  0  0
 74 88  1  0  0  0
 75 76  2  0  0  0
 75149  1  0  0  0
 76 77  1  0  0  0
 76 87  1  0  0  0
 77 84  1  0  0  0
 77 86  2  0  0  0
 78 79  1  0  0  0
 78 80  1  0  0  0
 78150  1  0  0  0
 78151  1  0  0  0
 79 80  1  0  0  0
 79152  1  0  0  0
 79153  1  0  0  0
 80 81  1  0  0  0
 80 82  1  0  0  0
 81154  1  0  0  0
 81155  1  0  0  0
 81156  1  0  0  0
 82157  1  0  0  0
 82158  1  0  0  0
 83 85  1  0  0  0
 83159  1  0  0  0
 83160  1  0  0  0
 84161  1  0  0  0
 85162  1  0  0  0
 87163  1  0  0  0
M  ISO  4   1 100  68 101  75 101  85 100
M  END
> <chiral flag>
0

> <version>
0

> <s_m_source_file>
/data/baiqing/PycharmProjects/Reinvent-master-3.2/result/LINK_invent/BTK/process_docking_weight1_custom_product_contain_oxygen_bond_distance_aromatic_linkinvent_7_9_3/rearranged_h_0160.sdf

> <i_m_source_file_index>
52

> <r_mmod_Potential_Energy-OPLS-2005>
17.5396976470947

> <r_mmod_Stretch_Energy-OPLS-2005>
57.9048919677734

> <r_mmod_Bend_Energy-OPLS-2005>
181.751312255859

> <r_mmod_Torsional_Energy-OPLS-2005>
280.921813964844

> <r_mmod_Improper_Torsional_Energy-OPLS-2005>
4.63007116317749

> <r_mmod_Van_der_Waal_Energy-OPLS-2005>
121.211471557617

> <r_mmod_Electrostatic_Energy-OPLS-2005>
-432.582061767578

> <r_mmod_Solvation_Energy-OPLS-2005>
-232.042892456055

> <b_mmod_Minimization_Converged-OPLS-2005>
0

> <r_mmod_RMS_Derivative-OPLS-2005>
2.44155788421631

$$$$
53
                    3D
 Structure written by MMmdl.
149157  0  0  1  0            999 V2000
  -30.5998  -14.8533   20.4327 C   0  0  0  0  0  0
  -30.4364  -12.5272   19.4877 C   0  0  0  0  0  0
  -29.5182  -12.5071   18.2460 C   0  0  0  0  0  0
  -28.0468  -12.3190   18.6607 C   0  0  0  0  0  0
  -27.6330  -13.2438   19.8364 C   0  0  2  0  0  0
  -28.6785  -13.2470   20.9731 C   0  0  0  0  0  0
  -25.2467  -13.8217   20.5688 C   0  0  0  0  0  0
  -24.1778  -13.0438   20.9207 C   0  0  0  0  0  0
  -24.6398  -11.6932   20.8748 C   0  0  0  0  0  0
  -23.9069  -10.4310   21.0427 C   0  0  0  0  0  0
  -24.3629   -9.4219   21.9192 C   0  0  0  0  0  0
  -23.6319   -8.2242   22.0745 C   0  0  0  0  0  0
  -22.4297   -8.0282   21.3530 C   0  0  0  0  0  0
  -21.9928   -9.0253   20.4625 C   0  0  0  0  0  0
  -22.7250  -10.2141   20.3062 C   0  0  0  0  0  0
  -21.6858   -6.0748   22.5281 C   0  0  0  0  0  0
  -21.4006   -6.5639   23.8215 C   0  0  0  0  0  0
  -21.3661   -5.6781   24.9169 C   0  0  0  0  0  0
  -21.6062   -4.3051   24.7212 C   0  0  0  0  0  0
  -21.8820   -3.8144   23.4328 C   0  0  0  0  0  0
  -21.9192   -4.6971   22.3390 C   0  0  0  0  0  0
  -22.7799  -13.5213   21.1876 C   0  0  0  0  0  0
  -22.1671   -4.2171   21.0970 F   0  0  0  0  0  0
  -21.5635   -3.4524   25.7716 F   0  0  0  0  0  0
  -29.9638  -13.6220   20.3747 N   0  0  0  0  0  0
  -26.2906  -12.9445   20.3226 N   0  0  0  0  0  0
  -25.9326  -11.6579   20.5721 N   0  0  0  0  0  0
  -22.0446  -12.8208   22.0431 N   0  0  0  0  0  0
  -25.4096  -15.1948   20.4093 N   0  0  0  0  0  0
  -31.8038  -14.8972   20.1683 O   0  0  0  0  0  0
  -21.6641   -6.8895   21.4251 O   0  0  0  0  0  0
  -22.3480  -14.5517   20.6715 O   0  0  0  0  0  0
  -24.6375  -31.8527   23.1898 C   0  0  0  0  0  0
  -25.9182  -32.4721   23.8288 C   0  0  1  0  0  0
  -27.2194  -27.2009   20.1374 C   0  0  0  0  0  0
  -25.5951  -33.8525   24.2191 N   0  0  0  0  0  0
  -23.4334  -30.4732   21.5350 C   0  0  2  0  0  0
  -24.8797  -28.9054   20.1096 C   0  0  0  0  0  0
  -22.7539  -29.4597   22.4887 C   0  0  0  0  0  0
  -18.0290  -28.1396   22.8476 C   0  0  0  0  0  0
  -24.1489  -36.7255   23.2639 C   0  0  0  0  0  0
  -25.9846  -30.7435   21.3792 C   0  0  0  0  0  0
  -26.0532  -29.3611   20.7207 C   0  0  0  0  0  0
  -27.2222  -28.5245   20.7193 C   0  0  0  0  0  0
  -26.0202  -26.8287   19.4915 C   0  0  0  0  0  0
  -24.8715  -27.6500   19.4836 C   0  0  0  0  0  0
  -23.6541  -29.8023   20.1535 C   0  0  0  0  0  0
  -25.4118  -36.3027   24.0318 C   0  0  1  0  0  0
  -20.5897  -28.3707   23.1248 C   0  0  2  0  0  0
  -20.6783  -26.9424   22.5395 C   0  0  0  0  0  0
  -19.5753  -26.6381   21.5205 C   0  0  0  0  0  0
  -18.1927  -26.7926   22.1612 C   0  0  0  0  0  0
  -19.1543  -28.8876   23.2848 C   0  0  0  0  0  0
  -18.9462  -30.1480   23.8871 C   0  0  0  0  0  0
  -17.6458  -30.6590   24.0577 C   0  0  0  0  0  0
  -25.9074  -34.9415   23.5050 C   0  0  0  0  0  0
  -16.5352  -29.9090   23.6344 C   0  0  0  0  0  0
  -16.7276  -28.6508   23.0366 C   0  0  0  0  0  0
  -26.4521  -31.6576   25.0717 C   0  0  0  0  0  0
  -25.3740  -31.3774   26.1447 C   0  0  0  0  0  0
  -27.0395  -30.2974   24.6270 C   0  0  0  0  0  0
  -27.6044  -32.4360   25.7502 C   0  0  0  0  0  0
  -27.5568  -37.1783   24.8465 C   0  0  0  0  0  0
  -21.4234  -29.3054   22.3654 N   0  0  0  0  0  0
  -26.4270  -37.3751   23.9416 N   0  0  0  0  0  0
  -24.7037  -31.0456   22.0881 N   0  0  0  0  0  0
  -23.4225  -28.8154   23.3012 O   0  0  0  0  0  0
  -28.3242  -26.2998   20.2120 O   0  0  0  0  0  0
  -26.5647  -34.8914   22.4621 O   0  0  0  0  0  0
  -23.5515  -32.1383   23.7163 O   0  0  0  0  0  0
  -29.8742  -20.1455   21.2134 C   0  0  0  0  0  0
  -29.6602  -18.9099   20.4626 C   0  0  0  0  0  0
  -29.1204  -21.1826   20.6575 C   0  0  0  0  0  0
  -28.5677  -23.7398   21.1058 C   0  0  0  0  0  0
  -28.3905  -24.5057   22.4055 C   0  0  0  0  0  0
  -30.4472  -17.4914   20.5412 C   0  0  0  0  0  0
  -28.2935  -24.7903   19.9056 C   0  0  0  0  0  0
  -28.7915  -19.2417   19.4935 N   0  0  0  0  0  0
  -28.8967  -22.4523   21.2977 N   0  0  0  0  0  0
  -29.8757  -16.0479   20.5724 N   0  0  0  0  0  0
  -28.4258  -20.6222   19.6224 O   0  0  0  0  0  0
  -31.4730  -12.6671   19.1750 H   0  0  0  0  0  0
  -30.4103  -11.5708   20.0128 H   0  0  0  0  0  0
  -29.8213  -11.7093   17.5679 H   0  0  0  0  0  0
  -29.6289  -13.4394   17.6905 H   0  0  0  0  0  0
  -27.9262  -11.2766   18.9569 H   0  0  0  0  0  0
  -27.3881  -12.4703   17.8043 H   0  0  0  0  0  0
  -27.6041  -14.2523   19.4228 H   0  0  0  0  0  0
  -28.7411  -12.2712   21.4586 H   0  0  0  0  0  0
  -28.3963  -13.9609   21.7486 H   0  0  0  0  0  0
  -25.2787   -9.5694   22.4747 H   0  0  0  0  0  0
  -24.0035   -7.4636   22.7458 H   0  0  0  0  0  0
  -21.0856   -8.8765   19.8927 H   0  0  0  0  0  0
  -22.3719  -10.9671   19.6155 H   0  0  0  0  0  0
  -21.1995   -7.6146   23.9726 H   0  0  0  0  0  0
  -21.1487   -6.0505   25.9081 H   0  0  0  0  0  0
  -22.0601   -2.7611   23.2802 H   0  0  0  0  0  0
  -22.4068  -11.9891   22.4852 H   0  0  0  0  0  0
  -21.1051  -13.1206   22.2601 H   0  0  0  0  0  0
  -24.6328  -15.8397   20.5138 H   0  0  0  0  0  0
  -26.2424  -15.6362   20.0423 H   0  0  0  0  0  0
  -26.7265  -32.5340   23.1050 H   0  0  0  0  0  0
  -25.0131  -33.9648   25.0354 H   0  0  0  0  0  0
  -22.7274  -31.2948   21.3874 H   0  0  0  0  0  0
  -23.3748  -35.9590   23.3291 H   0  0  0  0  0  0
  -24.3570  -36.8892   22.2051 H   0  0  0  0  0  0
  -23.7254  -37.6454   23.6698 H   0  0  0  0  0  0
  -26.1435  -31.5011   20.6108 H   0  0  0  0  0  0
  -26.8540  -30.7861   22.0245 H   0  0  0  0  0  0
  -28.1208  -28.8772   21.2062 H   0  0  0  0  0  0
  -25.9265  -25.8807   18.9907 H   0  0  0  0  0  0
  -23.9748  -27.2947   18.9941 H   0  0  0  0  0  0
  -23.7819  -30.5785   19.3975 H   0  0  0  0  0  0
  -22.7692  -29.2438   19.8461 H   0  0  0  0  0  0
  -25.1311  -36.1837   25.0813 H   0  0  0  0  0  0
  -20.9993  -28.3281   24.1372 H   0  0  0  0  0  0
  -20.5671  -26.2327   23.3604 H   0  0  0  0  0  0
  -21.6645  -26.7434   22.1205 H   0  0  0  0  0  0
  -19.6909  -25.6289   21.1241 H   0  0  0  0  0  0
  -19.6679  -27.3204   20.6736 H   0  0  0  0  0  0
  -17.4205  -26.6685   21.4015 H   0  0  0  0  0  0
  -18.0321  -26.0065   22.9003 H   0  0  0  0  0  0
  -19.7943  -30.7319   24.2198 H   0  0  0  0  0  0
  -17.5013  -31.6259   24.5210 H   0  0  0  0  0  0
  -15.5357  -30.3005   23.7671 H   0  0  0  0  0  0
  -15.8663  -28.0838   22.7093 H   0  0  0  0  0  0
  -24.5866  -30.7170   25.7797 H   0  0  0  0  0  0
  -24.9007  -32.2985   26.4878 H   0  0  0  0  0  0
  -25.8050  -30.8944   27.0226 H   0  0  0  0  0  0
  -26.3006  -29.6694   24.1280 H   0  0  0  0  0  0
  -27.4039  -29.7268   25.4822 H   0  0  0  0  0  0
  -27.8907  -30.4217   23.9564 H   0  0  0  0  0  0
  -27.2606  -33.3670   26.2026 H   0  0  0  0  0  0
  -28.3890  -32.6909   25.0366 H   0  0  0  0  0  0
  -28.0700  -31.8544   26.5474 H   0  0  0  0  0  0
  -28.2588  -38.0077   24.7516 H   0  0  0  0  0  0
  -28.1051  -36.2609   24.6282 H   0  0  0  0  0  0
  -27.2292  -37.1424   25.8868 H   0  0  0  0  0  0
  -20.9429  -29.8760   21.6838 H   0  0  0  0  0  0
  -26.0118  -38.2811   24.1427 H   0  0  0  0  0  0
  -30.5225  -20.2515   22.0723 H   0  0  0  0  0  0
  -27.4320  -25.0269   22.4095 H   0  0  0  0  0  0
  -29.1846  -25.2432   22.5206 H   0  0  0  0  0  0
  -28.4174  -23.8431   23.2720 H   0  0  0  0  0  0
  -31.0976  -17.5444   21.4152 H   0  0  0  0  0  0
  -31.1529  -17.4969   19.7102 H   0  0  0  0  0  0
  -27.3781  -24.4835   19.4077 H   0  0  0  0  0  0
  -29.0763  -24.6223   19.1662 H   0  0  0  0  0  0
  -28.8790  -15.9731   20.7007 H   0  0  0  0  0  0
  1 25  1  0  0  0
  1 30  2  0  0  0
  1 80  1  0  0  0
  2  3  1  0  0  0
  2 25  1  0  0  0
  2 82  1  0  0  0
  2 83  1  0  0  0
  3  4  1  0  0  0
  3 84  1  0  0  0
  3 85  1  0  0  0
  4  5  1  0  0  0
  4 86  1  0  0  0
  4 87  1  0  0  0
  5  6  1  0  0  0
  5 26  1  0  0  0
  5 88  1  0  0  0
  6 25  1  0  0  0
  6 89  1  0  0  0
  6 90  1  0  0  0
  7  8  2  0  0  0
  7 26  1  0  0  0
  7 29  1  0  0  0
  8  9  1  0  0  0
  8 22  1  0  0  0
  9 10  1  0  0  0
  9 27  2  0  0  0
 10 11  2  0  0  0
 10 15  1  0  0  0
 11 12  1  0  0  0
 11 91  1  0  0  0
 12 13  2  0  0  0
 12 92  1  0  0  0
 13 14  1  0  0  0
 13 31  1  0  0  0
 14 15  2  0  0  0
 14 93  1  0  0  0
 15 94  1  0  0  0
 16 17  2  0  0  0
 16 21  1  0  0  0
 16 31  1  0  0  0
 17 18  1  0  0  0
 17 95  1  0  0  0
 18 19  2  0  0  0
 18 96  1  0  0  0
 19 20  1  0  0  0
 19 24  1  0  0  0
 20 21  2  0  0  0
 20 97  1  0  0  0
 21 23  1  0  0  0
 22 28  1  0  0  0
 22 32  2  0  0  0
 26 27  1  0  0  0
 28 98  1  0  0  0
 28 99  1  0  0  0
 29100  1  0  0  0
 29101  1  0  0  0
 33 34  1  0  0  0
 33 66  1  0  0  0
 33 70  2  0  0  0
 34 36  1  0  0  0
 34 59  1  0  0  0
 34102  1  0  0  0
 35 44  2  0  0  0
 35 45  1  0  0  0
 35 68  1  0  0  0
 36 56  1  0  0  0
 36103  1  0  0  0
 37 39  1  0  0  0
 37 47  1  0  0  0
 37 66  1  0  0  0
 37104  1  0  0  0
 38 43  2  0  0  0
 38 46  1  0  0  0
 38 47  1  0  0  0
 39 64  1  0  0  0
 39 67  2  0  0  0
 40 52  1  0  0  0
 40 53  2  0  0  0
 40 58  1  0  0  0
 41105  1  0  0  0
 41106  1  0  0  0
 41107  1  0  0  0
 41 48  1  0  0  0
 42 43  1  0  0  0
 42 66  1  0  0  0
 42108  1  0  0  0
 42109  1  0  0  0
 43 44  1  0  0  0
 44110  1  0  0  0
 45 46  2  0  0  0
 45111  1  0  0  0
 46112  1  0  0  0
 47113  1  0  0  0
 47114  1  0  0  0
 48 56  1  0  0  0
 48 65  1  0  0  0
 48115  1  0  0  0
 49 50  1  0  0  0
 49 53  1  0  0  0
 49 64  1  0  0  0
 49116  1  0  0  0
 50 51  1  0  0  0
 50117  1  0  0  0
 50118  1  0  0  0
 51 52  1  0  0  0
 51119  1  0  0  0
 51120  1  0  0  0
 52121  1  0  0  0
 52122  1  0  0  0
 53 54  1  0  0  0
 54 55  2  0  0  0
 54123  1  0  0  0
 55 57  1  0  0  0
 55124  1  0  0  0
 56 69  2  0  0  0
 57 58  2  0  0  0
 57125  1  0  0  0
 58126  1  0  0  0
 59 60  1  0  0  0
 59 61  1  0  0  0
 59 62  1  0  0  0
 60127  1  0  0  0
 60128  1  0  0  0
 60129  1  0  0  0
 61130  1  0  0  0
 61131  1  0  0  0
 61132  1  0  0  0
 62133  1  0  0  0
 62134  1  0  0  0
 62135  1  0  0  0
 63 65  1  0  0  0
 63136  1  0  0  0
 63137  1  0  0  0
 63138  1  0  0  0
 64139  1  0  0  0
 65140  1  0  0  0
 68 77  1  0  0  0
 71 72  1  0  0  0
 71 73  2  0  0  0
 71141  1  0  0  0
 72 76  1  0  0  0
 72 78  2  0  0  0
 73 79  1  0  0  0
 73 81  1  0  0  0
 74 75  1  0  0  0
 74 77  1  0  0  0
 74 79  2  0  0  0
 75142  1  0  0  0
 75143  1  0  0  0
 75144  1  0  0  0
 76 80  1  0  0  0
 76145  1  0  0  0
 76146  1  0  0  0
 77147  1  0  0  0
 77148  1  0  0  0
 78 81  1  0  0  0
 80149  1  0  0  0
M  ISO  4   1 100  68 101  77 101  80 100
M  END
> <chiral flag>
0

> <version>
0

> <s_m_source_file>
/data/baiqing/PycharmProjects/Reinvent-master-3.2/result/LINK_invent/BTK/process_docking_weight1_custom_product_contain_oxygen_bond_distance_aromatic_linkinvent_7_9_3/rearranged_h_0160.sdf

> <i_m_source_file_index>
53

> <r_mmod_Potential_Energy-OPLS-2005>
206.146743774414

> <r_mmod_Stretch_Energy-OPLS-2005>
166.124908447266

> <r_mmod_Bend_Energy-OPLS-2005>
321.098724365234

> <r_mmod_Torsional_Energy-OPLS-2005>
211.884613037109

> <r_mmod_Improper_Torsional_Energy-OPLS-2005>
7.58777475357056

> <r_mmod_Van_der_Waal_Energy-OPLS-2005>
115.003784179688

> <r_mmod_Electrostatic_Energy-OPLS-2005>
-522.336364746094

> <r_mmod_Solvation_Energy-OPLS-2005>
-224.956512451172

> <b_mmod_Minimization_Converged-OPLS-2005>
0

> <r_mmod_RMS_Derivative-OPLS-2005>
2.71549558639526

$$$$
54
                    3D
 Structure written by MMmdl.
152160  0  0  1  0            999 V2000
  -30.6919  -14.5198   20.5523 C   0  0  0  0  0  0
  -30.4221  -12.3315   19.4351 C   0  0  0  0  0  0
  -29.4955  -12.5054   18.2135 C   0  0  0  0  0  0
  -28.0173  -12.3599   18.6261 C   0  0  0  0  0  0
  -27.6569  -13.2131   19.8718 C   0  0  2  0  0  0
  -28.7000  -13.0276   20.9975 C   0  0  0  0  0  0
  -25.2568  -13.8171   20.5694 C   0  0  0  0  0  0
  -24.1829  -13.0439   20.9190 C   0  0  0  0  0  0
  -24.6390  -11.6908   20.8752 C   0  0  0  0  0  0
  -23.9058  -10.4290   21.0406 C   0  0  0  0  0  0
  -24.3613   -9.4210   21.9180 C   0  0  0  0  0  0
  -23.6290   -8.2242   22.0754 C   0  0  0  0  0  0
  -22.4275   -8.0280   21.3543 C   0  0  0  0  0  0
  -21.9905   -9.0253   20.4646 C   0  0  0  0  0  0
  -22.7233  -10.2130   20.3053 C   0  0  0  0  0  0
  -21.6853   -6.0730   22.5280 C   0  0  0  0  0  0
  -21.4016   -6.5633   23.8217 C   0  0  0  0  0  0
  -21.3658   -5.6788   24.9175 C   0  0  0  0  0  0
  -21.6045   -4.3049   24.7229 C   0  0  0  0  0  0
  -21.8817   -3.8143   23.4352 C   0  0  0  0  0  0
  -21.9197   -4.6958   22.3407 C   0  0  0  0  0  0
  -22.7854  -13.5235   21.1858 C   0  0  0  0  0  0
  -22.1664   -4.2141   21.0982 F   0  0  0  0  0  0
  -21.5627   -3.4536   25.7740 F   0  0  0  0  0  0
  -30.0254  -13.3358   20.4379 N   0  0  0  0  0  0
  -26.3003  -12.9354   20.3361 N   0  0  0  0  0  0
  -25.9320  -11.6509   20.5778 N   0  0  0  0  0  0
  -22.0495  -12.8218   22.0408 N   0  0  0  0  0  0
  -25.4295  -15.1889   20.4100 N   0  0  0  0  0  0
  -31.8382  -14.6611   20.1170 O   0  0  0  0  0  0
  -21.6645   -6.8871   21.4241 O   0  0  0  0  0  0
  -22.3547  -14.5550   20.6719 O   0  0  0  0  0  0
  -24.6173  -31.8658   23.2090 C   0  0  0  0  0  0
  -25.9057  -32.4814   23.8382 C   0  0  1  0  0  0
  -27.2328  -27.4115   20.1082 C   0  0  0  0  0  0
  -25.5911  -33.8612   24.2326 N   0  0  0  0  0  0
  -23.4071  -30.4887   21.5495 C   0  0  2  0  0  0
  -24.8563  -28.9532   20.1139 C   0  0  0  0  0  0
  -22.7426  -29.4648   22.4985 C   0  0  0  0  0  0
  -18.0273  -28.1375   22.8497 C   0  0  0  0  0  0
  -24.1489  -36.7299   23.2638 C   0  0  0  0  0  0
  -25.9379  -30.8273   21.3641 C   0  0  0  0  0  0
  -26.0184  -29.4600   20.7109 C   0  0  0  0  0  0
  -27.2136  -28.6976   20.7030 C   0  0  0  0  0  0
  -26.0575  -26.9294   19.4949 C   0  0  0  0  0  0
  -24.8725  -27.6890   19.5003 C   0  0  0  0  0  0
  -23.6176  -29.8202   20.1643 C   0  0  0  0  0  0
  -25.4112  -36.3107   24.0339 C   0  0  1  0  0  0
  -20.5867  -28.3662   23.1324 C   0  0  2  0  0  0
  -20.6769  -26.9396   22.5432 C   0  0  0  0  0  0
  -19.5755  -26.6384   21.5222 C   0  0  0  0  0  0
  -18.1922  -26.7928   22.1617 C   0  0  0  0  0  0
  -19.1522  -28.8836   23.2908 C   0  0  0  0  0  0
  -18.9453  -30.1444   23.8910 C   0  0  0  0  0  0
  -17.6454  -30.6590   24.0564 C   0  0  0  0  0  0
  -25.9039  -34.9476   23.5130 C   0  0  0  0  0  0
  -16.5345  -29.9086   23.6331 C   0  0  0  0  0  0
  -16.7259  -28.6502   23.0352 C   0  0  0  0  0  0
  -26.4483  -31.6588   25.0709 C   0  0  0  0  0  0
  -25.3753  -31.3682   26.1454 C   0  0  0  0  0  0
  -27.0304  -30.3030   24.6069 C   0  0  0  0  0  0
  -27.6066  -32.4298   25.7469 C   0  0  0  0  0  0
  -27.5584  -37.1805   24.8466 C   0  0  0  0  0  0
  -21.4151  -29.3026   22.3729 N   0  0  0  0  0  0
  -26.4294  -37.3797   23.9416 N   0  0  0  0  0  0
  -24.6725  -31.0743   22.0997 N   0  0  0  0  0  0
  -23.4191  -28.8187   23.3033 O   0  0  0  0  0  0
  -28.3520  -26.6014   20.1391 O   0  0  0  0  0  0
  -26.5594  -34.8927   22.4684 O   0  0  0  0  0  0
  -23.5363  -32.1404   23.7485 O   0  0  0  0  0  0
  -31.5743  -18.9036   21.1534 C   0  0  0  0  0  0
  -31.5688  -17.4786   21.0292 C   0  0  0  0  0  0
  -30.3287  -19.4605   21.2968 C   0  0  0  0  0  0
  -30.3164  -16.9026   21.0647 C   0  0  0  0  0  0
  -30.0256  -20.8665   21.5798 C   0  0  0  0  0  0
  -28.7985  -24.1323   20.5496 C   0  0  0  0  0  0
  -28.4651  -22.8884   21.4125 C   0  0  0  0  0  0
  -28.1969  -25.4775   21.0447 C   0  0  0  0  0  0
  -29.9652  -15.5737   21.0081 N   0  0  0  0  0  0
  -29.0121  -21.5575   21.0006 N   0  0  0  0  0  0
  -30.8042  -21.4847   22.4806 N   0  3  0  0  0  0
  -29.5033  -24.0552   19.5357 O   0  0  0  0  0  0
  -29.1125  -18.1894   21.2329 S   0  0  0  0  0  0
  -31.4661  -12.4297   19.1322 H   0  0  0  0  0  0
  -30.3278  -11.3273   19.8503 H   0  0  0  0  0  0
  -29.7424  -11.7713   17.4456 H   0  0  0  0  0  0
  -29.6572  -13.4866   17.7633 H   0  0  0  0  0  0
  -27.8359  -11.3053   18.8362 H   0  0  0  0  0  0
  -27.3644  -12.6189   17.7917 H   0  0  0  0  0  0
  -27.6896  -14.2561   19.5574 H   0  0  0  0  0  0
  -28.6847  -12.0006   21.3644 H   0  0  0  0  0  0
  -28.4603  -13.6516   21.8598 H   0  0  0  0  0  0
  -25.2754   -9.5690   22.4758 H   0  0  0  0  0  0
  -24.0007   -7.4630   22.7468 H   0  0  0  0  0  0
  -21.0837   -8.8768   19.8952 H   0  0  0  0  0  0
  -22.3691  -10.9667   19.6166 H   0  0  0  0  0  0
  -21.2004   -7.6142   23.9717 H   0  0  0  0  0  0
  -21.1479   -6.0514   25.9076 H   0  0  0  0  0  0
  -22.0595   -2.7604   23.2852 H   0  0  0  0  0  0
  -22.4104  -11.9864   22.4774 H   0  0  0  0  0  0
  -21.1112  -13.1242   22.2617 H   0  0  0  0  0  0
  -24.6617  -15.8439   20.5106 H   0  0  0  0  0  0
  -26.2774  -15.6242   20.0685 H   0  0  0  0  0  0
  -26.7129  -32.5528   23.1143 H   0  0  0  0  0  0
  -25.0098  -33.9776   25.0498 H   0  0  0  0  0  0
  -22.6967  -31.3065   21.4099 H   0  0  0  0  0  0
  -23.3761  -35.9622   23.3308 H   0  0  0  0  0  0
  -24.3587  -36.8903   22.2050 H   0  0  0  0  0  0
  -23.7228  -37.6502   23.6642 H   0  0  0  0  0  0
  -26.0505  -31.5932   20.5959 H   0  0  0  0  0  0
  -26.8259  -30.8830   21.9817 H   0  0  0  0  0  0
  -28.1085  -29.0790   21.1755 H   0  0  0  0  0  0
  -26.0551  -25.9561   19.0246 H   0  0  0  0  0  0
  -23.9793  -27.2946   19.0358 H   0  0  0  0  0  0
  -23.7253  -30.5949   19.4043 H   0  0  0  0  0  0
  -22.7419  -29.2397   19.8683 H   0  0  0  0  0  0
  -25.1292  -36.1964   25.0830 H   0  0  0  0  0  0
  -20.9954  -28.3222   24.1446 H   0  0  0  0  0  0
  -20.5685  -26.2262   23.3615 H   0  0  0  0  0  0
  -21.6642  -26.7452   22.1211 H   0  0  0  0  0  0
  -19.6919  -25.6301   21.1230 H   0  0  0  0  0  0
  -19.6701  -27.3215   20.6767 H   0  0  0  0  0  0
  -17.4209  -26.6692   21.4002 H   0  0  0  0  0  0
  -18.0304  -26.0057   22.8988 H   0  0  0  0  0  0
  -19.7926  -30.7253   24.2282 H   0  0  0  0  0  0
  -17.5012  -31.6276   24.5155 H   0  0  0  0  0  0
  -15.5344  -30.2992   23.7670 H   0  0  0  0  0  0
  -15.8652  -28.0834   22.7060 H   0  0  0  0  0  0
  -24.5964  -30.6979   25.7800 H   0  0  0  0  0  0
  -24.8887  -32.2822   26.4874 H   0  0  0  0  0  0
  -25.8112  -30.8890   27.0229 H   0  0  0  0  0  0
  -26.2827  -29.6801   24.1142 H   0  0  0  0  0  0
  -27.4102  -29.7258   25.4509 H   0  0  0  0  0  0
  -27.8659  -30.4354   23.9192 H   0  0  0  0  0  0
  -27.2701  -33.3609   26.2048 H   0  0  0  0  0  0
  -28.3877  -32.6840   25.0289 H   0  0  0  0  0  0
  -28.0733  -31.8411   26.5379 H   0  0  0  0  0  0
  -28.2604  -38.0103   24.7524 H   0  0  0  0  0  0
  -28.1078  -36.2635   24.6277 H   0  0  0  0  0  0
  -27.2302  -37.1432   25.8870 H   0  0  0  0  0  0
  -20.9317  -29.8730   21.6933 H   0  0  0  0  0  0
  -26.0180  -38.2873   24.1424 H   0  0  0  0  0  0
  -32.4966  -19.4660   21.1635 H   0  0  0  0  0  0
  -32.5002  -16.9370   20.9376 H   0  0  0  0  0  0
  -27.3785  -22.8019   21.4382 H   0  0  0  0  0  0
  -28.7624  -23.0985   22.4391 H   0  0  0  0  0  0
  -28.6731  -25.7344   21.9907 H   0  0  0  0  0  0
  -27.1440  -25.3006   21.2693 H   0  0  0  0  0  0
  -29.0120  -15.3542   21.2564 H   0  0  0  0  0  0
  -28.5071  -21.0977   20.2571 H   0  0  0  0  0  0
  -31.5344  -20.9626   22.9423 H   0  0  0  0  0  0
  -30.7229  -22.4598   22.7129 H   0  0  0  0  0  0
  1 25  1  0  0  0
  1 30  2  0  0  0
  1 79  1  0  0  0
  2  3  1  0  0  0
  2 25  1  0  0  0
  2 84  1  0  0  0
  2 85  1  0  0  0
  3  4  1  0  0  0
  3 86  1  0  0  0
  3 87  1  0  0  0
  4  5  1  0  0  0
  4 88  1  0  0  0
  4 89  1  0  0  0
  5  6  1  0  0  0
  5 26  1  0  0  0
  5 90  1  0  0  0
  6 25  1  0  0  0
  6 91  1  0  0  0
  6 92  1  0  0  0
  7  8  2  0  0  0
  7 26  1  0  0  0
  7 29  1  0  0  0
  8  9  1  0  0  0
  8 22  1  0  0  0
  9 10  1  0  0  0
  9 27  2  0  0  0
 10 11  2  0  0  0
 10 15  1  0  0  0
 11 12  1  0  0  0
 11 93  1  0  0  0
 12 13  2  0  0  0
 12 94  1  0  0  0
 13 14  1  0  0  0
 13 31  1  0  0  0
 14 15  2  0  0  0
 14 95  1  0  0  0
 15 96  1  0  0  0
 16 17  2  0  0  0
 16 21  1  0  0  0
 16 31  1  0  0  0
 17 18  1  0  0  0
 17 97  1  0  0  0
 18 19  2  0  0  0
 18 98  1  0  0  0
 19 20  1  0  0  0
 19 24  1  0  0  0
 20 21  2  0  0  0
 20 99  1  0  0  0
 21 23  1  0  0  0
 22 28  1  0  0  0
 22 32  2  0  0  0
 26 27  1  0  0  0
 28100  1  0  0  0
 28101  1  0  0  0
 29102  1  0  0  0
 29103  1  0  0  0
 33 34  1  0  0  0
 33 66  1  0  0  0
 33 70  2  0  0  0
 34 36  1  0  0  0
 34 59  1  0  0  0
 34104  1  0  0  0
 35 44  2  0  0  0
 35 45  1  0  0  0
 35 68  1  0  0  0
 36 56  1  0  0  0
 36105  1  0  0  0
 37 39  1  0  0  0
 37 47  1  0  0  0
 37 66  1  0  0  0
 37106  1  0  0  0
 38 43  2  0  0  0
 38 46  1  0  0  0
 38 47  1  0  0  0
 39 64  1  0  0  0
 39 67  2  0  0  0
 40 52  1  0  0  0
 40 53  2  0  0  0
 40 58  1  0  0  0
 41107  1  0  0  0
 41108  1  0  0  0
 41109  1  0  0  0
 41 48  1  0  0  0
 42 43  1  0  0  0
 42 66  1  0  0  0
 42110  1  0  0  0
 42111  1  0  0  0
 43 44  1  0  0  0
 44112  1  0  0  0
 45 46  2  0  0  0
 45113  1  0  0  0
 46114  1  0  0  0
 47115  1  0  0  0
 47116  1  0  0  0
 48 56  1  0  0  0
 48 65  1  0  0  0
 48117  1  0  0  0
 49 50  1  0  0  0
 49 53  1  0  0  0
 49 64  1  0  0  0
 49118  1  0  0  0
 50 51  1  0  0  0
 50119  1  0  0  0
 50120  1  0  0  0
 51 52  1  0  0  0
 51121  1  0  0  0
 51122  1  0  0  0
 52123  1  0  0  0
 52124  1  0  0  0
 53 54  1  0  0  0
 54 55  2  0  0  0
 54125  1  0  0  0
 55 57  1  0  0  0
 55126  1  0  0  0
 56 69  2  0  0  0
 57 58  2  0  0  0
 57127  1  0  0  0
 58128  1  0  0  0
 59 60  1  0  0  0
 59 61  1  0  0  0
 59 62  1  0  0  0
 60129  1  0  0  0
 60130  1  0  0  0
 60131  1  0  0  0
 61132  1  0  0  0
 61133  1  0  0  0
 61134  1  0  0  0
 62135  1  0  0  0
 62136  1  0  0  0
 62137  1  0  0  0
 63 65  1  0  0  0
 63138  1  0  0  0
 63139  1  0  0  0
 63140  1  0  0  0
 64141  1  0  0  0
 65142  1  0  0  0
 68 78  1  0  0  0
 71 72  1  0  0  0
 71 73  2  0  0  0
 71143  1  0  0  0
 72 74  2  0  0  0
 72144  1  0  0  0
 73 75  1  0  0  0
 73 83  1  0  0  0
 74 79  1  0  0  0
 74 83  1  0  0  0
 75 80  1  0  0  0
 75 81  2  0  0  0
 76 77  1  0  0  0
 76 78  1  0  0  0
 76 82  2  0  0  0
 77 80  1  0  0  0
 77145  1  0  0  0
 77146  1  0  0  0
 78147  1  0  0  0
 78148  1  0  0  0
 79149  1  0  0  0
 80150  1  0  0  0
 81151  1  0  0  0
 81152  1  0  0  0
M  CHG  1  81   1
M  ISO  4   1 100  68 101  78 101  79 100
M  END
> <chiral flag>
0

> <version>
0

> <s_m_source_file>
/data/baiqing/PycharmProjects/Reinvent-master-3.2/result/LINK_invent/BTK/process_docking_weight1_custom_product_contain_oxygen_bond_distance_aromatic_linkinvent_7_9_3/rearranged_h_0160.sdf

> <i_m_source_file_index>
54

> <r_mmod_Potential_Energy-OPLS-2005>
-273.601013183594

> <r_mmod_Stretch_Energy-OPLS-2005>
43.4950790405273

> <r_mmod_Bend_Energy-OPLS-2005>
109.487525939941

> <r_mmod_Torsional_Energy-OPLS-2005>
237.034774780273

> <r_mmod_Improper_Torsional_Energy-OPLS-2005>
4.27279663085938

> <r_mmod_Van_der_Waal_Energy-OPLS-2005>
128.973815917969

> <r_mmod_Electrostatic_Energy-OPLS-2005>
-327.608764648438

> <r_mmod_Solvation_Energy-OPLS-2005>
-489.25341796875

> <b_mmod_Minimization_Converged-OPLS-2005>
0

> <r_mmod_RMS_Derivative-OPLS-2005>
1.33368122577667

$$$$
55
                    3D
 Structure written by MMmdl.
150158  0  0  1  0            999 V2000
  -30.6730  -14.5512   20.5419 C   0  0  0  0  0  0
  -30.4262  -12.3505   19.4317 C   0  0  0  0  0  0
  -29.4953  -12.5007   18.2100 C   0  0  0  0  0  0
  -28.0188  -12.3507   18.6272 C   0  0  0  0  0  0
  -27.6545  -13.2126   19.8658 C   0  0  2  0  0  0
  -28.6993  -13.0395   20.9902 C   0  0  0  0  0  0
  -25.2565  -13.8171   20.5690 C   0  0  0  0  0  0
  -24.1828  -13.0439   20.9191 C   0  0  0  0  0  0
  -24.6389  -11.6908   20.8743 C   0  0  0  0  0  0
  -23.9059  -10.4292   21.0411 C   0  0  0  0  0  0
  -24.3612   -9.4206   21.9188 C   0  0  0  0  0  0
  -23.6290   -8.2241   22.0755 C   0  0  0  0  0  0
  -22.4273   -8.0278   21.3546 C   0  0  0  0  0  0
  -21.9908   -9.0253   20.4648 C   0  0  0  0  0  0
  -22.7235  -10.2131   20.3059 C   0  0  0  0  0  0
  -21.6852   -6.0735   22.5280 C   0  0  0  0  0  0
  -21.4014   -6.5638   23.8214 C   0  0  0  0  0  0
  -21.3657   -5.6790   24.9178 C   0  0  0  0  0  0
  -21.6043   -4.3056   24.7229 C   0  0  0  0  0  0
  -21.8818   -3.8147   23.4350 C   0  0  0  0  0  0
  -21.9194   -4.6962   22.3406 C   0  0  0  0  0  0
  -22.7850  -13.5234   21.1857 C   0  0  0  0  0  0
  -22.1662   -4.2147   21.0983 F   0  0  0  0  0  0
  -21.5628   -3.4542   25.7742 F   0  0  0  0  0  0
  -30.0177  -13.3601   20.4240 N   0  0  0  0  0  0
  -26.2994  -12.9346   20.3341 N   0  0  0  0  0  0
  -25.9316  -11.6503   20.5771 N   0  0  0  0  0  0
  -22.0495  -12.8223   22.0414 N   0  0  0  0  0  0
  -25.4284  -15.1892   20.4097 N   0  0  0  0  0  0
  -31.8257  -14.7056   20.1307 O   0  0  0  0  0  0
  -21.6638   -6.8877   21.4240 O   0  0  0  0  0  0
  -22.3537  -14.5545   20.6714 O   0  0  0  0  0  0
  -24.6193  -31.8634   23.2054 C   0  0  0  0  0  0
  -25.9063  -32.4799   23.8370 C   0  0  1  0  0  0
  -27.2306  -27.3840   20.1126 C   0  0  0  0  0  0
  -25.5899  -33.8598   24.2300 N   0  0  0  0  0  0
  -23.4103  -30.4858   21.5469 C   0  0  2  0  0  0
  -24.8579  -28.9420   20.1162 C   0  0  0  0  0  0
  -22.7434  -29.4639   22.4967 C   0  0  0  0  0  0
  -18.0273  -28.1377   22.8493 C   0  0  0  0  0  0
  -24.1486  -36.7302   23.2641 C   0  0  0  0  0  0
  -25.9438  -30.8152   21.3644 C   0  0  0  0  0  0
  -26.0221  -29.4455   20.7113 C   0  0  0  0  0  0
  -27.2155  -28.6778   20.6977 C   0  0  0  0  0  0
  -26.0497  -26.9054   19.5099 C   0  0  0  0  0  0
  -24.8694  -27.6745   19.5084 C   0  0  0  0  0  0
  -23.6218  -29.8150   20.1633 C   0  0  0  0  0  0
  -25.4110  -36.3098   24.0334 C   0  0  1  0  0  0
  -20.5870  -28.3671   23.1303 C   0  0  2  0  0  0
  -20.6767  -26.9400   22.5416 C   0  0  0  0  0  0
  -19.5747  -26.6381   21.5213 C   0  0  0  0  0  0
  -18.1922  -26.7921   22.1622 C   0  0  0  0  0  0
  -19.1524  -28.8840   23.2897 C   0  0  0  0  0  0
  -18.9455  -30.1446   23.8910 C   0  0  0  0  0  0
  -17.6457  -30.6585   24.0565 C   0  0  0  0  0  0
  -25.9039  -34.9464   23.5118 C   0  0  0  0  0  0
  -16.5347  -29.9084   23.6331 C   0  0  0  0  0  0
  -16.7263  -28.6499   23.0354 C   0  0  0  0  0  0
  -26.4480  -31.6590   25.0713 C   0  0  0  0  0  0
  -25.3735  -31.3686   26.1452 C   0  0  0  0  0  0
  -27.0322  -30.3032   24.6107 C   0  0  0  0  0  0
  -27.6053  -32.4319   25.7472 C   0  0  0  0  0  0
  -27.5579  -37.1807   24.8467 C   0  0  0  0  0  0
  -21.4155  -29.3036   22.3709 N   0  0  0  0  0  0
  -26.4293  -37.3787   23.9407 N   0  0  0  0  0  0
  -24.6766  -31.0698   22.0972 N   0  0  0  0  0  0
  -23.4184  -28.8177   23.3026 O   0  0  0  0  0  0
  -28.3702  -26.5954   20.1035 O   0  0  0  0  0  0
  -26.5609  -34.8923   22.4685 O   0  0  0  0  0  0
  -23.5374  -32.1396   23.7427 O   0  0  0  0  0  0
  -29.7855  -19.5559   20.8954 C   0  0  0  0  0  0
  -29.6962  -18.1494   20.6035 C   0  0  0  0  0  0
  -28.9928  -20.1809   19.9658 C   0  0  0  0  0  0
  -28.5268  -24.0616   19.8709 C   0  0  0  0  0  0
  -30.4375  -16.9772   21.2662 C   0  0  0  0  0  0
  -28.8030  -22.6728   20.5414 C   0  0  0  0  0  0
  -28.2613  -25.3044   20.7774 C   0  0  0  0  0  0
  -28.8704  -17.9497   19.5843 N   0  0  0  0  0  0
  -28.6777  -21.5130   19.6287 N   0  0  0  0  0  0
  -29.9492  -15.5968   21.0061 N   0  0  0  0  0  0
  -28.4958  -24.1564   18.6384 O   0  0  0  0  0  0
  -28.4345  -19.2218   19.1754 O   0  0  0  0  0  0
  -31.4686  -12.4607   19.1276 H   0  0  0  0  0  0
  -30.3446  -11.3495   19.8581 H   0  0  0  0  0  0
  -29.7452  -11.7571   17.4520 H   0  0  0  0  0  0
  -29.6491  -13.4757   17.7451 H   0  0  0  0  0  0
  -27.8451  -11.2970   18.8487 H   0  0  0  0  0  0
  -27.3629  -12.5967   17.7911 H   0  0  0  0  0  0
  -27.6835  -14.2531   19.5409 H   0  0  0  0  0  0
  -28.6960  -12.0137   21.3616 H   0  0  0  0  0  0
  -28.4571  -13.6652   21.8504 H   0  0  0  0  0  0
  -25.2756   -9.5687   22.4764 H   0  0  0  0  0  0
  -24.0002   -7.4633   22.7474 H   0  0  0  0  0  0
  -21.0839   -8.8772   19.8953 H   0  0  0  0  0  0
  -22.3694  -10.9674   19.6168 H   0  0  0  0  0  0
  -21.2002   -7.6146   23.9719 H   0  0  0  0  0  0
  -21.1479   -6.0521   25.9079 H   0  0  0  0  0  0
  -22.0598   -2.7609   23.2854 H   0  0  0  0  0  0
  -22.4106  -11.9873   22.4783 H   0  0  0  0  0  0
  -21.1116  -13.1249   22.2632 H   0  0  0  0  0  0
  -24.6609  -15.8438   20.5154 H   0  0  0  0  0  0
  -26.2774  -15.6287   20.0751 H   0  0  0  0  0  0
  -26.7131  -32.5495   23.1127 H   0  0  0  0  0  0
  -25.0052  -33.9749   25.0449 H   0  0  0  0  0  0
  -22.7014  -31.3042   21.4039 H   0  0  0  0  0  0
  -23.3745  -35.9637   23.3319 H   0  0  0  0  0  0
  -24.3578  -36.8906   22.2054 H   0  0  0  0  0  0
  -23.7248  -37.6513   23.6652 H   0  0  0  0  0  0
  -26.0626  -31.5790   20.5946 H   0  0  0  0  0  0
  -26.8292  -30.8683   21.9868 H   0  0  0  0  0  0
  -28.1155  -29.0635   21.1557 H   0  0  0  0  0  0
  -26.0411  -25.9326   19.0387 H   0  0  0  0  0  0
  -23.9761  -27.2818   19.0430 H   0  0  0  0  0  0
  -23.7331  -30.5887   19.4024 H   0  0  0  0  0  0
  -22.7440  -29.2376   19.8677 H   0  0  0  0  0  0
  -25.1294  -36.1956   25.0828 H   0  0  0  0  0  0
  -20.9966  -28.3240   24.1422 H   0  0  0  0  0  0
  -20.5670  -26.2275   23.3606 H   0  0  0  0  0  0
  -21.6639  -26.7436   22.1208 H   0  0  0  0  0  0
  -19.6911  -25.6296   21.1233 H   0  0  0  0  0  0
  -19.6687  -27.3202   20.6752 H   0  0  0  0  0  0
  -17.4194  -26.6675   21.4021 H   0  0  0  0  0  0
  -18.0320  -26.0052   22.9008 H   0  0  0  0  0  0
  -19.7932  -30.7259   24.2280 H   0  0  0  0  0  0
  -17.5010  -31.6267   24.5162 H   0  0  0  0  0  0
  -15.5349  -30.2990   23.7648 H   0  0  0  0  0  0
  -15.8661  -28.0823   22.7067 H   0  0  0  0  0  0
  -24.5922  -30.7017   25.7783 H   0  0  0  0  0  0
  -24.8904  -32.2830   26.4909 H   0  0  0  0  0  0
  -25.8088  -30.8853   27.0206 H   0  0  0  0  0  0
  -26.2873  -29.6773   24.1174 H   0  0  0  0  0  0
  -27.4106  -29.7288   25.4572 H   0  0  0  0  0  0
  -27.8696  -30.4351   23.9250 H   0  0  0  0  0  0
  -27.2682  -33.3624   26.2053 H   0  0  0  0  0  0
  -28.3859  -32.6873   25.0292 H   0  0  0  0  0  0
  -28.0716  -31.8432   26.5382 H   0  0  0  0  0  0
  -28.2609  -38.0093   24.7514 H   0  0  0  0  0  0
  -28.1071  -36.2630   24.6304 H   0  0  0  0  0  0
  -27.2292  -37.1468   25.8868 H   0  0  0  0  0  0
  -20.9316  -29.8749   21.6922 H   0  0  0  0  0  0
  -26.0179  -38.2866   24.1401 H   0  0  0  0  0  0
  -30.3844  -20.0303   21.6582 H   0  0  0  0  0  0
  -30.4093  -17.1163   22.3470 H   0  0  0  0  0  0
  -31.4939  -17.0503   21.0059 H   0  0  0  0  0  0
  -28.1081  -22.5486   21.3731 H   0  0  0  0  0  0
  -29.8066  -22.6902   20.9682 H   0  0  0  0  0  0
  -28.9838  -25.2871   21.5933 H   0  0  0  0  0  0
  -27.2793  -25.1903   21.2378 H   0  0  0  0  0  0
  -28.0756  -21.6731   18.8259 H   0  0  0  0  0  0
  -28.9875  -15.4151   21.2454 H   0  0  0  0  0  0
  1 25  1  0  0  0
  1 30  2  0  0  0
  1 80  1  0  0  0
  2  3  1  0  0  0
  2 25  1  0  0  0
  2 83  1  0  0  0
  2 84  1  0  0  0
  3  4  1  0  0  0
  3 85  1  0  0  0
  3 86  1  0  0  0
  4  5  1  0  0  0
  4 87  1  0  0  0
  4 88  1  0  0  0
  5  6  1  0  0  0
  5 26  1  0  0  0
  5 89  1  0  0  0
  6 25  1  0  0  0
  6 90  1  0  0  0
  6 91  1  0  0  0
  7  8  2  0  0  0
  7 26  1  0  0  0
  7 29  1  0  0  0
  8  9  1  0  0  0
  8 22  1  0  0  0
  9 10  1  0  0  0
  9 27  2  0  0  0
 10 11  2  0  0  0
 10 15  1  0  0  0
 11 12  1  0  0  0
 11 92  1  0  0  0
 12 13  2  0  0  0
 12 93  1  0  0  0
 13 14  1  0  0  0
 13 31  1  0  0  0
 14 15  2  0  0  0
 14 94  1  0  0  0
 15 95  1  0  0  0
 16 17  2  0  0  0
 16 21  1  0  0  0
 16 31  1  0  0  0
 17 18  1  0  0  0
 17 96  1  0  0  0
 18 19  2  0  0  0
 18 97  1  0  0  0
 19 20  1  0  0  0
 19 24  1  0  0  0
 20 21  2  0  0  0
 20 98  1  0  0  0
 21 23  1  0  0  0
 22 28  1  0  0  0
 22 32  2  0  0  0
 26 27  1  0  0  0
 28 99  1  0  0  0
 28100  1  0  0  0
 29101  1  0  0  0
 29102  1  0  0  0
 33 34  1  0  0  0
 33 66  1  0  0  0
 33 70  2  0  0  0
 34 36  1  0  0  0
 34 59  1  0  0  0
 34103  1  0  0  0
 35 44  2  0  0  0
 35 45  1  0  0  0
 35 68  1  0  0  0
 36 56  1  0  0  0
 36104  1  0  0  0
 37 39  1  0  0  0
 37 47  1  0  0  0
 37 66  1  0  0  0
 37105  1  0  0  0
 38 43  2  0  0  0
 38 46  1  0  0  0
 38 47  1  0  0  0
 39 64  1  0  0  0
 39 67  2  0  0  0
 40 52  1  0  0  0
 40 53  2  0  0  0
 40 58  1  0  0  0
 41106  1  0  0  0
 41107  1  0  0  0
 41108  1  0  0  0
 41 48  1  0  0  0
 42 43  1  0  0  0
 42 66  1  0  0  0
 42109  1  0  0  0
 42110  1  0  0  0
 43 44  1  0  0  0
 44111  1  0  0  0
 45 46  2  0  0  0
 45112  1  0  0  0
 46113  1  0  0  0
 47114  1  0  0  0
 47115  1  0  0  0
 48 56  1  0  0  0
 48 65  1  0  0  0
 48116  1  0  0  0
 49 50  1  0  0  0
 49 53  1  0  0  0
 49 64  1  0  0  0
 49117  1  0  0  0
 50 51  1  0  0  0
 50118  1  0  0  0
 50119  1  0  0  0
 51 52  1  0  0  0
 51120  1  0  0  0
 51121  1  0  0  0
 52122  1  0  0  0
 52123  1  0  0  0
 53 54  1  0  0  0
 54 55  2  0  0  0
 54124  1  0  0  0
 55 57  1  0  0  0
 55125  1  0  0  0
 56 69  2  0  0  0
 57 58  2  0  0  0
 57126  1  0  0  0
 58127  1  0  0  0
 59 60  1  0  0  0
 59 61  1  0  0  0
 59 62  1  0  0  0
 60128  1  0  0  0
 60129  1  0  0  0
 60130  1  0  0  0
 61131  1  0  0  0
 61132  1  0  0  0
 61133  1  0  0  0
 62134  1  0  0  0
 62135  1  0  0  0
 62136  1  0  0  0
 63 65  1  0  0  0
 63137  1  0  0  0
 63138  1  0  0  0
 63139  1  0  0  0
 64140  1  0  0  0
 65141  1  0  0  0
 68 77  1  0  0  0
 71 72  1  0  0  0
 71 73  2  0  0  0
 71142  1  0  0  0
 72 75  1  0  0  0
 72 78  2  0  0  0
 73 79  1  0  0  0
 73 82  1  0  0  0
 74 76  1  0  0  0
 74 77  1  0  0  0
 74 81  2  0  0  0
 75 80  1  0  0  0
 75143  1  0  0  0
 75144  1  0  0  0
 76 79  1  0  0  0
 76145  1  0  0  0
 76146  1  0  0  0
 77147  1  0  0  0
 77148  1  0  0  0
 78 82  1  0  0  0
 79149  1  0  0  0
 80150  1  0  0  0
M  ISO  4   1 100  68 101  77 101  80 100
M  END
> <chiral flag>
0

> <version>
0

> <s_m_source_file>
/data/baiqing/PycharmProjects/Reinvent-master-3.2/result/LINK_invent/BTK/process_docking_weight1_custom_product_contain_oxygen_bond_distance_aromatic_linkinvent_7_9_3/rearranged_h_0160.sdf

> <i_m_source_file_index>
55

> <r_mmod_Potential_Energy-OPLS-2005>
-256.279998779297

> <r_mmod_Stretch_Energy-OPLS-2005>
48.262451171875

> <r_mmod_Bend_Energy-OPLS-2005>
108.418960571289

> <r_mmod_Torsional_Energy-OPLS-2005>
214.769638061523

> <r_mmod_Improper_Torsional_Energy-OPLS-2005>
4.04875421524048

> <r_mmod_Van_der_Waal_Energy-OPLS-2005>
121.518424987793

> <r_mmod_Electrostatic_Energy-OPLS-2005>
-521.185546875

> <r_mmod_Solvation_Energy-OPLS-2005>
-256.4140625

> <b_mmod_Minimization_Converged-OPLS-2005>
0

> <r_mmod_RMS_Derivative-OPLS-2005>
0.747076153755188

$$$$
56
                    3D
 Structure written by MMmdl.
156165  0  0  1  0            999 V2000
  -30.5608  -14.8080   20.4656 C   0  0  0  0  0  0
  -30.4456  -12.4956   19.4843 C   0  0  0  0  0  0
  -29.5194  -12.5200   18.2455 C   0  0  0  0  0  0
  -28.0462  -12.3283   18.6564 C   0  0  0  0  0  0
  -27.6419  -13.2298   19.8520 C   0  0  2  0  0  0
  -28.6847  -13.1685   20.9908 C   0  0  0  0  0  0
  -25.2470  -13.8145   20.5567 C   0  0  0  0  0  0
  -24.1803  -13.0416   20.9236 C   0  0  0  0  0  0
  -24.6406  -11.6901   20.8793 C   0  0  0  0  0  0
  -23.9077  -10.4281   21.0437 C   0  0  0  0  0  0
  -24.3621   -9.4189   21.9204 C   0  0  0  0  0  0
  -23.6292   -8.2226   22.0761 C   0  0  0  0  0  0
  -22.4275   -8.0273   21.3546 C   0  0  0  0  0  0
  -21.9918   -9.0255   20.4655 C   0  0  0  0  0  0
  -22.7252  -10.2134   20.3079 C   0  0  0  0  0  0
  -21.6847   -6.0734   22.5280 C   0  0  0  0  0  0
  -21.4014   -6.5640   23.8212 C   0  0  0  0  0  0
  -21.3659   -5.6795   24.9175 C   0  0  0  0  0  0
  -21.6043   -4.3057   24.7229 C   0  0  0  0  0  0
  -21.8816   -3.8147   23.4349 C   0  0  0  0  0  0
  -21.9191   -4.6962   22.3405 C   0  0  0  0  0  0
  -22.7830  -13.5213   21.1879 C   0  0  0  0  0  0
  -22.1658   -4.2147   21.0983 F   0  0  0  0  0  0
  -21.5631   -3.4541   25.7742 F   0  0  0  0  0  0
  -29.9829  -13.5524   20.4176 N   0  0  0  0  0  0
  -26.2927  -12.9368   20.3246 N   0  0  0  0  0  0
  -25.9336  -11.6525   20.5790 N   0  0  0  0  0  0
  -22.0471  -12.8214   22.0438 N   0  0  0  0  0  0
  -25.4048  -15.1823   20.3655 N   0  0  0  0  0  0
  -31.7428  -14.9387   20.1281 O   0  0  0  0  0  0
  -21.6636   -6.8873   21.4239 O   0  0  0  0  0  0
  -22.3524  -14.5515   20.6710 O   0  0  0  0  0  0
  -24.6342  -31.8514   23.1940 C   0  0  0  0  0  0
  -25.9150  -32.4737   23.8303 C   0  0  1  0  0  0
  -27.2263  -27.2304   20.1495 C   0  0  0  0  0  0
  -25.5930  -33.8539   24.2227 N   0  0  0  0  0  0
  -23.4335  -30.4702   21.5382 C   0  0  2  0  0  0
  -24.8833  -28.9030   20.1184 C   0  0  0  0  0  0
  -22.7517  -29.4578   22.4908 C   0  0  0  0  0  0
  -18.0294  -28.1381   22.8482 C   0  0  0  0  0  0
  -24.1489  -36.7281   23.2638 C   0  0  0  0  0  0
  -25.9803  -30.7557   21.3764 C   0  0  0  0  0  0
  -26.0559  -29.3720   20.7254 C   0  0  0  0  0  0
  -27.2331  -28.5512   20.7220 C   0  0  0  0  0  0
  -26.0303  -26.8262   19.5234 C   0  0  0  0  0  0
  -24.8767  -27.6391   19.5048 C   0  0  0  0  0  0
  -23.6558  -29.7960   20.1579 C   0  0  0  0  0  0
  -25.4116  -36.3059   24.0320 C   0  0  1  0  0  0
  -20.5899  -28.3696   23.1267 C   0  0  2  0  0  0
  -20.6781  -26.9410   22.5411 C   0  0  0  0  0  0
  -19.5756  -26.6379   21.5213 C   0  0  0  0  0  0
  -18.1937  -26.7923   22.1626 C   0  0  0  0  0  0
  -19.1547  -28.8856   23.2869 C   0  0  0  0  0  0
  -18.9466  -30.1457   23.8888 C   0  0  0  0  0  0
  -17.6465  -30.6584   24.0561 C   0  0  0  0  0  0
  -25.9059  -34.9432   23.5081 C   0  0  0  0  0  0
  -16.5357  -29.9080   23.6328 C   0  0  0  0  0  0
  -16.7282  -28.6497   23.0351 C   0  0  0  0  0  0
  -26.4504  -31.6576   25.0708 C   0  0  0  0  0  0
  -25.3719  -31.3741   26.1425 C   0  0  0  0  0  0
  -27.0358  -30.2988   24.6215 C   0  0  0  0  0  0
  -27.6045  -32.4328   25.7490 C   0  0  0  0  0  0
  -27.5581  -37.1792   24.8459 C   0  0  0  0  0  0
  -21.4221  -29.3040   22.3652 N   0  0  0  0  0  0
  -26.4288  -37.3765   23.9410 N   0  0  0  0  0  0
  -24.7019  -31.0450   22.0927 N   0  0  0  0  0  0
  -23.4200  -28.8129   23.3029 O   0  0  0  0  0  0
  -28.3228  -26.3327   20.1296 O   0  0  0  0  0  0
  -26.5642  -34.8916   22.4657 O   0  0  0  0  0  0
  -23.5483  -32.1346   23.7217 O   0  0  0  0  0  0
  -28.8385  -18.2900   20.7875 C   0  0  0  0  0  0
  -29.3883  -19.5898   20.4091 C   0  0  0  0  0  0
  -29.8181  -17.3011   20.5859 C   0  0  0  0  0  0
  -27.4590  -18.0746   21.2833 C   0  0  0  0  0  0
  -28.5377  -23.6091   19.9676 C   0  0  0  0  0  0
  -28.2146  -17.2212   23.6234 C   0  0  0  0  0  0
  -26.7727  -17.6463   23.7295 C   0  0  0  0  0  0
  -27.2998  -17.0969   22.4199 C   0  0  0  0  0  0
  -29.2048  -22.2898   20.6445 C   0  0  0  0  0  0
  -28.2059  -24.9682   20.7858 C   0  0  0  0  0  0
  -30.6676  -19.3882   20.0916 N   0  0  0  0  0  0
  -28.7029  -20.8777   20.3261 N   0  0  0  0  0  0
  -29.7209  -15.8917   20.7321 N   0  0  0  0  0  0
  -26.4795  -18.6855   20.8479 O   0  0  0  0  0  0
  -28.2492  -23.5549   18.7677 O   0  0  0  0  0  0
  -30.9359  -17.9864   20.1742 O   0  0  0  0  0  0
  -31.4831  -12.6446   19.1804 H   0  0  0  0  0  0
  -30.4149  -11.5195   19.9710 H   0  0  0  0  0  0
  -29.8143  -11.7436   17.5385 H   0  0  0  0  0  0
  -29.6327  -13.4699   17.7208 H   0  0  0  0  0  0
  -27.9145  -11.2802   18.9271 H   0  0  0  0  0  0
  -27.3871  -12.5068   17.8060 H   0  0  0  0  0  0
  -27.6336  -14.2496   19.4675 H   0  0  0  0  0  0
  -28.7358  -12.1657   21.4174 H   0  0  0  0  0  0
  -28.4031  -13.8296   21.8123 H   0  0  0  0  0  0
  -25.2763   -9.5658   22.4788 H   0  0  0  0  0  0
  -23.9996   -7.4612   22.7477 H   0  0  0  0  0  0
  -21.0852   -8.8782   19.8957 H   0  0  0  0  0  0
  -22.3711  -10.9683   19.6200 H   0  0  0  0  0  0
  -21.2005   -7.6148   23.9716 H   0  0  0  0  0  0
  -21.1487   -6.0526   25.9079 H   0  0  0  0  0  0
  -22.0594   -2.7610   23.2852 H   0  0  0  0  0  0
  -22.4084  -11.9878   22.4834 H   0  0  0  0  0  0
  -21.1093  -13.1249   22.2645 H   0  0  0  0  0  0
  -24.5856  -15.7802   20.3844 H   0  0  0  0  0  0
  -26.1368  -15.5505   19.7733 H   0  0  0  0  0  0
  -26.7215  -32.5380   23.1041 H   0  0  0  0  0  0
  -25.0070  -33.9668   25.0368 H   0  0  0  0  0  0
  -22.7316  -31.2930   21.3862 H   0  0  0  0  0  0
  -23.3754  -35.9613   23.3290 H   0  0  0  0  0  0
  -24.3579  -36.8919   22.2055 H   0  0  0  0  0  0
  -23.7243  -37.6476   23.6675 H   0  0  0  0  0  0
  -26.1190  -31.5117   20.6024 H   0  0  0  0  0  0
  -26.8575  -30.8104   22.0097 H   0  0  0  0  0  0
  -28.1360  -28.9118   21.1947 H   0  0  0  0  0  0
  -25.9854  -25.8550   19.0499 H   0  0  0  0  0  0
  -23.9798  -27.2735   19.0241 H   0  0  0  0  0  0
  -23.7862  -30.5688   19.3994 H   0  0  0  0  0  0
  -22.7732  -29.2316   19.8513 H   0  0  0  0  0  0
  -25.1301  -36.1898   25.0813 H   0  0  0  0  0  0
  -20.9990  -28.3273   24.1388 H   0  0  0  0  0  0
  -20.5676  -26.2305   23.3618 H   0  0  0  0  0  0
  -21.6649  -26.7426   22.1207 H   0  0  0  0  0  0
  -19.6921  -25.6288   21.1245 H   0  0  0  0  0  0
  -19.6699  -27.3188   20.6740 H   0  0  0  0  0  0
  -17.4209  -26.6665   21.4029 H   0  0  0  0  0  0
  -18.0345  -26.0066   22.9023 H   0  0  0  0  0  0
  -19.7943  -30.7274   24.2256 H   0  0  0  0  0  0
  -17.5018  -31.6261   24.5166 H   0  0  0  0  0  0
  -15.5356  -30.2979   23.7654 H   0  0  0  0  0  0
  -15.8681  -28.0814   22.7066 H   0  0  0  0  0  0
  -24.5893  -30.7091   25.7756 H   0  0  0  0  0  0
  -24.8915  -32.2919   26.4825 H   0  0  0  0  0  0
  -25.8030  -30.8935   27.0217 H   0  0  0  0  0  0
  -26.2951  -29.6728   24.1225 H   0  0  0  0  0  0
  -27.4016  -29.7259   25.4748 H   0  0  0  0  0  0
  -27.8837  -30.4255   23.9480 H   0  0  0  0  0  0
  -27.2636  -33.3630   26.2050 H   0  0  0  0  0  0
  -28.3868  -32.6888   25.0331 H   0  0  0  0  0  0
  -28.0701  -31.8467   26.5425 H   0  0  0  0  0  0
  -28.2579  -38.0106   24.7523 H   0  0  0  0  0  0
  -28.1096  -36.2638   24.6260 H   0  0  0  0  0  0
  -27.2304  -37.1407   25.8862 H   0  0  0  0  0  0
  -20.9414  -29.8754   21.6845 H   0  0  0  0  0  0
  -26.0162  -38.2835   24.1424 H   0  0  0  0  0  0
  -28.5078  -16.2994   24.1220 H   0  0  0  0  0  0
  -28.9663  -18.0093   23.6298 H   0  0  0  0  0  0
  -26.5670  -18.7138   23.7930 H   0  0  0  0  0  0
  -26.1003  -17.0103   24.3016 H   0  0  0  0  0  0
  -26.9458  -16.1040   22.1585 H   0  0  0  0  0  0
  -29.1380  -22.4236   21.7245 H   0  0  0  0  0  0
  -30.2701  -22.3247   20.4144 H   0  0  0  0  0  0
  -28.8550  -24.9780   21.6610 H   0  0  0  0  0  0
  -27.1944  -24.8606   21.1783 H   0  0  0  0  0  0
  -27.6956  -20.7958   20.4280 H   0  0  0  0  0  0
  -28.8099  -15.5726   21.0123 H   0  0  0  0  0  0
  1 25  1  0  0  0
  1 30  2  0  0  0
  1 83  1  0  0  0
  2  3  1  0  0  0
  2 25  1  0  0  0
  2 87  1  0  0  0
  2 88  1  0  0  0
  3  4  1  0  0  0
  3 89  1  0  0  0
  3 90  1  0  0  0
  4  5  1  0  0  0
  4 91  1  0  0  0
  4 92  1  0  0  0
  5  6  1  0  0  0
  5 26  1  0  0  0
  5 93  1  0  0  0
  6 25  1  0  0  0
  6 94  1  0  0  0
  6 95  1  0  0  0
  7  8  2  0  0  0
  7 26  1  0  0  0
  7 29  1  0  0  0
  8  9  1  0  0  0
  8 22  1  0  0  0
  9 10  1  0  0  0
  9 27  2  0  0  0
 10 11  2  0  0  0
 10 15  1  0  0  0
 11 12  1  0  0  0
 11 96  1  0  0  0
 12 13  2  0  0  0
 12 97  1  0  0  0
 13 14  1  0  0  0
 13 31  1  0  0  0
 14 15  2  0  0  0
 14 98  1  0  0  0
 15 99  1  0  0  0
 16 17  2  0  0  0
 16 21  1  0  0  0
 16 31  1  0  0  0
 17 18  1  0  0  0
 17100  1  0  0  0
 18 19  2  0  0  0
 18101  1  0  0  0
 19 20  1  0  0  0
 19 24  1  0  0  0
 20 21  2  0  0  0
 20102  1  0  0  0
 21 23  1  0  0  0
 22 28  1  0  0  0
 22 32  2  0  0  0
 26 27  1  0  0  0
 28103  1  0  0  0
 28104  1  0  0  0
 29105  1  0  0  0
 29106  1  0  0  0
 33 34  1  0  0  0
 33 66  1  0  0  0
 33 70  2  0  0  0
 34 36  1  0  0  0
 34 59  1  0  0  0
 34107  1  0  0  0
 35 44  2  0  0  0
 35 45  1  0  0  0
 35 68  1  0  0  0
 36 56  1  0  0  0
 36108  1  0  0  0
 37 39  1  0  0  0
 37 47  1  0  0  0
 37 66  1  0  0  0
 37109  1  0  0  0
 38 43  2  0  0  0
 38 46  1  0  0  0
 38 47  1  0  0  0
 39 64  1  0  0  0
 39 67  2  0  0  0
 40 52  1  0  0  0
 40 53  2  0  0  0
 40 58  1  0  0  0
 41110  1  0  0  0
 41111  1  0  0  0
 41112  1  0  0  0
 41 48  1  0  0  0
 42 43  1  0  0  0
 42 66  1  0  0  0
 42113  1  0  0  0
 42114  1  0  0  0
 43 44  1  0  0  0
 44115  1  0  0  0
 45 46  2  0  0  0
 45116  1  0  0  0
 46117  1  0  0  0
 47118  1  0  0  0
 47119  1  0  0  0
 48 56  1  0  0  0
 48 65  1  0  0  0
 48120  1  0  0  0
 49 50  1  0  0  0
 49 53  1  0  0  0
 49 64  1  0  0  0
 49121  1  0  0  0
 50 51  1  0  0  0
 50122  1  0  0  0
 50123  1  0  0  0
 51 52  1  0  0  0
 51124  1  0  0  0
 51125  1  0  0  0
 52126  1  0  0  0
 52127  1  0  0  0
 53 54  1  0  0  0
 54 55  2  0  0  0
 54128  1  0  0  0
 55 57  1  0  0  0
 55129  1  0  0  0
 56 69  2  0  0  0
 57 58  2  0  0  0
 57130  1  0  0  0
 58131  1  0  0  0
 59 60  1  0  0  0
 59 61  1  0  0  0
 59 62  1  0  0  0
 60132  1  0  0  0
 60133  1  0  0  0
 60134  1  0  0  0
 61135  1  0  0  0
 61136  1  0  0  0
 61137  1  0  0  0
 62138  1  0  0  0
 62139  1  0  0  0
 62140  1  0  0  0
 63 65  1  0  0  0
 63141  1  0  0  0
 63142  1  0  0  0
 63143  1  0  0  0
 64144  1  0  0  0
 65145  1  0  0  0
 68 80  1  0  0  0
 71 72  1  0  0  0
 71 73  2  0  0  0
 71 74  1  0  0  0
 72 81  2  0  0  0
 72 82  1  0  0  0
 73 83  1  0  0  0
 73 86  1  0  0  0
 74 84  2  0  0  0
 74 78  1  0  0  0
 75 79  1  0  0  0
 75 80  1  0  0  0
 75 85  2  0  0  0
 76 77  1  0  0  0
 76 78  1  0  0  0
 76146  1  0  0  0
 76147  1  0  0  0
 77 78  1  0  0  0
 77148  1  0  0  0
 77149  1  0  0  0
 78150  1  0  0  0
 79 82  1  0  0  0
 79151  1  0  0  0
 79152  1  0  0  0
 80153  1  0  0  0
 80154  1  0  0  0
 81 86  1  0  0  0
 82155  1  0  0  0
 83156  1  0  0  0
M  ISO  4   1 100  68 101  80 101  83 100
M  END
> <chiral flag>
0

> <version>
0

> <s_m_source_file>
/data/baiqing/PycharmProjects/Reinvent-master-3.2/result/LINK_invent/BTK/process_docking_weight1_custom_product_contain_oxygen_bond_distance_aromatic_linkinvent_7_9_3/rearranged_h_0160.sdf

> <i_m_source_file_index>
56

> <r_mmod_Potential_Energy-OPLS-2005>
189.797485351562

> <r_mmod_Stretch_Energy-OPLS-2005>
138.791320800781

> <r_mmod_Bend_Energy-OPLS-2005>
214.231460571289

> <r_mmod_Torsional_Energy-OPLS-2005>
288.635467529297

> <r_mmod_Improper_Torsional_Energy-OPLS-2005>
8.18598365783691

> <r_mmod_Van_der_Waal_Energy-OPLS-2005>
99.5905609130859

> <r_mmod_Electrostatic_Energy-OPLS-2005>
-395.903717041016

> <r_mmod_Solvation_Energy-OPLS-2005>
-271.036804199219

> <b_mmod_Minimization_Converged-OPLS-2005>
0

> <r_mmod_RMS_Derivative-OPLS-2005>
0.756457686424255

$$$$
57
                    3D
 Structure written by MMmdl.
167176  0  0  1  0            999 V2000
  -30.6471  -14.5607   20.5605 C   0  0  0  0  0  0
  -30.4398  -12.3565   19.4389 C   0  0  0  0  0  0
  -29.5072  -12.5194   18.2181 C   0  0  0  0  0  0
  -28.0280  -12.3634   18.6255 C   0  0  0  0  0  0
  -27.6611  -13.2084   19.8741 C   0  0  2  0  0  0
  -28.7031  -13.0045   20.9984 C   0  0  0  0  0  0
  -25.2546  -13.8114   20.5634 C   0  0  0  0  0  0
  -24.1830  -13.0404   20.9211 C   0  0  0  0  0  0
  -24.6401  -11.6881   20.8761 C   0  0  0  0  0  0
  -23.9066  -10.4276   21.0423 C   0  0  0  0  0  0
  -24.3617   -9.4190   21.9198 C   0  0  0  0  0  0
  -23.6287   -8.2230   22.0761 C   0  0  0  0  0  0
  -22.4270   -8.0278   21.3547 C   0  0  0  0  0  0
  -21.9908   -9.0254   20.4651 C   0  0  0  0  0  0
  -22.7242  -10.2128   20.3066 C   0  0  0  0  0  0
  -21.6847   -6.0733   22.5279 C   0  0  0  0  0  0
  -21.4008   -6.5636   23.8213 C   0  0  0  0  0  0
  -21.3657   -5.6789   24.9175 C   0  0  0  0  0  0
  -21.6044   -4.3053   24.7226 C   0  0  0  0  0  0
  -21.8820   -3.8144   23.4346 C   0  0  0  0  0  0
  -21.9191   -4.6961   22.3401 C   0  0  0  0  0  0
  -22.7854  -13.5217   21.1859 C   0  0  0  0  0  0
  -22.1663   -4.2148   21.0978 F   0  0  0  0  0  0
  -21.5629   -3.4536   25.7739 F   0  0  0  0  0  0
  -30.0318  -13.3437   20.4552 N   0  0  0  0  0  0
  -26.3010  -12.9310   20.3331 N   0  0  0  0  0  0
  -25.9327  -11.6473   20.5768 N   0  0  0  0  0  0
  -22.0479  -12.8227   22.0413 N   0  0  0  0  0  0
  -25.4155  -15.1806   20.3878 N   0  0  0  0  0  0
  -31.7665  -14.7793   20.0850 O   0  0  0  0  0  0
  -21.6633   -6.8877   21.4243 O   0  0  0  0  0  0
  -22.3555  -14.5526   20.6698 O   0  0  0  0  0  0
  -24.6191  -31.8647   23.2071 C   0  0  0  0  0  0
  -25.9066  -32.4806   23.8384 C   0  0  1  0  0  0
  -27.2389  -27.3902   20.1110 C   0  0  0  0  0  0
  -25.5904  -33.8604   24.2309 N   0  0  0  0  0  0
  -23.4119  -30.4860   21.5473 C   0  0  2  0  0  0
  -24.8639  -28.9436   20.1183 C   0  0  0  0  0  0
  -22.7440  -29.4643   22.4967 C   0  0  0  0  0  0
  -18.0278  -28.1385   22.8491 C   0  0  0  0  0  0
  -24.1485  -36.7309   23.2638 C   0  0  0  0  0  0
  -25.9455  -30.8129   21.3724 C   0  0  0  0  0  0
  -26.0252  -29.4408   20.7266 C   0  0  0  0  0  0
  -27.2171  -28.6688   20.7285 C   0  0  0  0  0  0
  -26.0656  -26.9221   19.4892 C   0  0  0  0  0  0
  -24.8804  -27.6825   19.4979 C   0  0  0  0  0  0
  -23.6269  -29.8156   20.1640 C   0  0  0  0  0  0
  -25.4107  -36.3102   24.0335 C   0  0  1  0  0  0
  -20.5873  -28.3681   23.1299 C   0  0  2  0  0  0
  -20.6769  -26.9410   22.5415 C   0  0  0  0  0  0
  -19.5747  -26.6388   21.5212 C   0  0  0  0  0  0
  -18.1926  -26.7931   22.1623 C   0  0  0  0  0  0
  -19.1530  -28.8850   23.2892 C   0  0  0  0  0  0
  -18.9456  -30.1456   23.8905 C   0  0  0  0  0  0
  -17.6457  -30.6589   24.0567 C   0  0  0  0  0  0
  -25.9040  -34.9467   23.5122 C   0  0  0  0  0  0
  -16.5348  -29.9090   23.6329 C   0  0  0  0  0  0
  -16.7267  -28.6507   23.0350 C   0  0  0  0  0  0
  -26.4475  -31.6595   25.0729 C   0  0  0  0  0  0
  -25.3728  -31.3717   26.1472 C   0  0  0  0  0  0
  -27.0310  -30.3026   24.6143 C   0  0  0  0  0  0
  -27.6046  -32.4320   25.7489 C   0  0  0  0  0  0
  -27.5578  -37.1807   24.8463 C   0  0  0  0  0  0
  -21.4163  -29.3038   22.3697 N   0  0  0  0  0  0
  -26.4290  -37.3789   23.9410 N   0  0  0  0  0  0
  -24.6767  -31.0703   22.1000 N   0  0  0  0  0  0
  -23.4183  -28.8195   23.3040 O   0  0  0  0  0  0
  -28.3543  -26.5699   20.0559 O   0  0  0  0  0  0
  -26.5606  -34.8925   22.4686 O   0  0  0  0  0  0
  -23.5369  -32.1425   23.7428 O   0  0  0  0  0  0
  -30.5723  -17.9952   20.5979 C   0  0  0  0  0  0
  -28.4283  -17.3377   20.3972 C   0  0  0  0  0  0
  -29.6729  -16.8847   20.7192 C   0  0  0  0  0  0
  -29.8523  -19.0974   20.1559 C   0  0  0  0  0  0
  -30.2599  -20.4315   19.6747 C   0  0  0  0  0  0
  -30.3715  -24.1965   20.1555 C   0  0  0  0  0  0
  -28.2129  -23.3745   21.1477 C   0  0  0  0  0  0
  -30.1497  -22.9177   19.2870 C   0  0  0  0  0  0
  -28.7783  -21.9106   21.1223 C   0  0  0  0  0  0
  -29.3151  -24.4653   21.2693 C   0  0  0  0  0  0
  -30.0126  -24.2810   22.6404 C   0  0  0  0  0  0
  -27.4385  -19.3708   19.3506 C   0  0  0  0  0  0
  -28.7529  -25.9520   21.2943 C   0  0  0  0  0  0
  -28.5410  -18.6512   19.9650 N   0  0  0  0  0  0
  -29.7747  -21.6783   20.0423 N   0  0  0  0  0  0
  -29.9047  -15.5295   21.1553 N   0  0  0  0  0  0
  -31.2250  -20.3614   18.7451 N   0  3  0  0  0  0
  -31.4818  -12.4802   19.1387 H   0  0  0  0  0  0
  -30.3663  -11.3470   19.8464 H   0  0  0  0  0  0
  -29.7613  -11.7890   17.4489 H   0  0  0  0  0  0
  -29.6608  -13.5018   17.7684 H   0  0  0  0  0  0
  -27.8506  -11.3067   18.8296 H   0  0  0  0  0  0
  -27.3783  -12.6239   17.7892 H   0  0  0  0  0  0
  -27.6983  -14.2544   19.5694 H   0  0  0  0  0  0
  -28.6987  -11.9664   21.3336 H   0  0  0  0  0  0
  -28.4452  -13.5902   21.8815 H   0  0  0  0  0  0
  -25.2761   -9.5660   22.4775 H   0  0  0  0  0  0
  -23.9991   -7.4618   22.7480 H   0  0  0  0  0  0
  -21.0838   -8.8778   19.8957 H   0  0  0  0  0  0
  -22.3708  -10.9674   19.6178 H   0  0  0  0  0  0
  -21.1999   -7.6145   23.9715 H   0  0  0  0  0  0
  -21.1479   -6.0520   25.9078 H   0  0  0  0  0  0
  -22.0602   -2.7607   23.2848 H   0  0  0  0  0  0
  -22.4072  -11.9881   22.4806 H   0  0  0  0  0  0
  -21.1101  -13.1274   22.2610 H   0  0  0  0  0  0
  -24.6209  -15.8088   20.4397 H   0  0  0  0  0  0
  -26.1974  -15.5704   19.8810 H   0  0  0  0  0  0
  -26.7141  -32.5512   23.1148 H   0  0  0  0  0  0
  -25.0045  -33.9758   25.0450 H   0  0  0  0  0  0
  -22.7032  -31.3041   21.4030 H   0  0  0  0  0  0
  -23.3741  -35.9648   23.3312 H   0  0  0  0  0  0
  -24.3577  -36.8915   22.2050 H   0  0  0  0  0  0
  -23.7245  -37.6519   23.6650 H   0  0  0  0  0  0
  -26.0646  -31.5730   20.5991 H   0  0  0  0  0  0
  -26.8302  -30.8695   21.9948 H   0  0  0  0  0  0
  -28.1133  -29.0488   21.1987 H   0  0  0  0  0  0
  -26.0689  -25.9541   19.0079 H   0  0  0  0  0  0
  -23.9906  -27.2930   19.0226 H   0  0  0  0  0  0
  -23.7402  -30.5894   19.4040 H   0  0  0  0  0  0
  -22.7502  -29.2379   19.8655 H   0  0  0  0  0  0
  -25.1281  -36.1963   25.0827 H   0  0  0  0  0  0
  -20.9962  -28.3256   24.1422 H   0  0  0  0  0  0
  -20.5666  -26.2292   23.3610 H   0  0  0  0  0  0
  -21.6641  -26.7449   22.1210 H   0  0  0  0  0  0
  -19.6909  -25.6300   21.1237 H   0  0  0  0  0  0
  -19.6684  -27.3202   20.6745 H   0  0  0  0  0  0
  -17.4194  -26.6681   21.4026 H   0  0  0  0  0  0
  -18.0328  -26.0069   22.9015 H   0  0  0  0  0  0
  -19.7933  -30.7272   24.2273 H   0  0  0  0  0  0
  -17.5013  -31.6267   24.5172 H   0  0  0  0  0  0
  -15.5351  -30.2993   23.7654 H   0  0  0  0  0  0
  -15.8667  -28.0831   22.7059 H   0  0  0  0  0  0
  -24.5898  -30.7067   25.7809 H   0  0  0  0  0  0
  -24.8923  -32.2878   26.4918 H   0  0  0  0  0  0
  -25.8071  -30.8886   27.0234 H   0  0  0  0  0  0
  -26.2871  -29.6788   24.1174 H   0  0  0  0  0  0
  -27.4031  -29.7267   25.4626 H   0  0  0  0  0  0
  -27.8729  -30.4323   23.9338 H   0  0  0  0  0  0
  -27.2661  -33.3610   26.2089 H   0  0  0  0  0  0
  -28.3841  -32.6897   25.0307 H   0  0  0  0  0  0
  -28.0732  -31.8435   26.5387 H   0  0  0  0  0  0
  -28.2603  -38.0098   24.7509 H   0  0  0  0  0  0
  -28.1067  -36.2632   24.6286 H   0  0  0  0  0  0
  -27.2302  -37.1459   25.8869 H   0  0  0  0  0  0
  -20.9337  -29.8745   21.6898 H   0  0  0  0  0  0
  -26.0178  -38.2868   24.1411 H   0  0  0  0  0  0
  -31.6377  -17.9906   20.7814 H   0  0  0  0  0  0
  -27.4738  -16.8355   20.3683 H   0  0  0  0  0  0
  -30.3837  -25.0472   19.4732 H   0  0  0  0  0  0
  -31.3798  -24.1712   20.5710 H   0  0  0  0  0  0
  -27.5101  -23.4691   21.9765 H   0  0  0  0  0  0
  -27.6185  -23.5526   20.2503 H   0  0  0  0  0  0
  -31.0456  -22.7708   18.6882 H   0  0  0  0  0  0
  -29.3505  -23.1055   18.5693 H   0  0  0  0  0  0
  -27.9465  -21.2227   21.0216 H   0  0  0  0  0  0
  -29.2441  -21.6586   22.0738 H   0  0  0  0  0  0
  -30.5114  -23.3171   22.7369 H   0  0  0  0  0  0
  -29.3034  -24.3683   23.4646 H   0  0  0  0  0  0
  -30.7824  -25.0373   22.8009 H   0  0  0  0  0  0
  -26.9455  -18.7265   18.6220 H   0  0  0  0  0  0
  -27.7911  -20.2581   18.8263 H   0  0  0  0  0  0
  -26.7042  -19.6518   20.1056 H   0  0  0  0  0  0
  -29.5177  -26.6160   21.6999 H   0  0  0  0  0  0
  -27.9307  -25.9944   22.0120 H   0  0  0  0  0  0
  -29.0975  -15.1129   21.5944 H   0  0  0  0  0  0
  -31.5676  -19.4580   18.4553 H   0  0  0  0  0  0
  -31.6306  -21.1809   18.3223 H   0  0  0  0  0  0
  1 25  1  0  0  0
  1 30  2  0  0  0
  1 86  1  0  0  0
  2  3  1  0  0  0
  2 25  1  0  0  0
  2 88  1  0  0  0
  2 89  1  0  0  0
  3  4  1  0  0  0
  3 90  1  0  0  0
  3 91  1  0  0  0
  4  5  1  0  0  0
  4 92  1  0  0  0
  4 93  1  0  0  0
  5  6  1  0  0  0
  5 26  1  0  0  0
  5 94  1  0  0  0
  6 25  1  0  0  0
  6 95  1  0  0  0
  6 96  1  0  0  0
  7  8  2  0  0  0
  7 26  1  0  0  0
  7 29  1  0  0  0
  8  9  1  0  0  0
  8 22  1  0  0  0
  9 10  1  0  0  0
  9 27  2  0  0  0
 10 11  2  0  0  0
 10 15  1  0  0  0
 11 12  1  0  0  0
 11 97  1  0  0  0
 12 13  2  0  0  0
 12 98  1  0  0  0
 13 14  1  0  0  0
 13 31  1  0  0  0
 14 15  2  0  0  0
 14 99  1  0  0  0
 15100  1  0  0  0
 16 17  2  0  0  0
 16 21  1  0  0  0
 16 31  1  0  0  0
 17 18  1  0  0  0
 17101  1  0  0  0
 18 19  2  0  0  0
 18102  1  0  0  0
 19 20  1  0  0  0
 19 24  1  0  0  0
 20 21  2  0  0  0
 20103  1  0  0  0
 21 23  1  0  0  0
 22 28  1  0  0  0
 22 32  2  0  0  0
 26 27  1  0  0  0
 28104  1  0  0  0
 28105  1  0  0  0
 29106  1  0  0  0
 29107  1  0  0  0
 33 34  1  0  0  0
 33 66  1  0  0  0
 33 70  2  0  0  0
 34 36  1  0  0  0
 34 59  1  0  0  0
 34108  1  0  0  0
 35 44  2  0  0  0
 35 45  1  0  0  0
 35 68  1  0  0  0
 36 56  1  0  0  0
 36109  1  0  0  0
 37 39  1  0  0  0
 37 47  1  0  0  0
 37 66  1  0  0  0
 37110  1  0  0  0
 38 43  2  0  0  0
 38 46  1  0  0  0
 38 47  1  0  0  0
 39 64  1  0  0  0
 39 67  2  0  0  0
 40 52  1  0  0  0
 40 53  2  0  0  0
 40 58  1  0  0  0
 41111  1  0  0  0
 41112  1  0  0  0
 41113  1  0  0  0
 41 48  1  0  0  0
 42 43  1  0  0  0
 42 66  1  0  0  0
 42114  1  0  0  0
 42115  1  0  0  0
 43 44  1  0  0  0
 44116  1  0  0  0
 45 46  2  0  0  0
 45117  1  0  0  0
 46118  1  0  0  0
 47119  1  0  0  0
 47120  1  0  0  0
 48 56  1  0  0  0
 48 65  1  0  0  0
 48121  1  0  0  0
 49 50  1  0  0  0
 49 53  1  0  0  0
 49 64  1  0  0  0
 49122  1  0  0  0
 50 51  1  0  0  0
 50123  1  0  0  0
 50124  1  0  0  0
 51 52  1  0  0  0
 51125  1  0  0  0
 51126  1  0  0  0
 52127  1  0  0  0
 52128  1  0  0  0
 53 54  1  0  0  0
 54 55  2  0  0  0
 54129  1  0  0  0
 55 57  1  0  0  0
 55130  1  0  0  0
 56 69  2  0  0  0
 57 58  2  0  0  0
 57131  1  0  0  0
 58132  1  0  0  0
 59 60  1  0  0  0
 59 61  1  0  0  0
 59 62  1  0  0  0
 60133  1  0  0  0
 60134  1  0  0  0
 60135  1  0  0  0
 61136  1  0  0  0
 61137  1  0  0  0
 61138  1  0  0  0
 62139  1  0  0  0
 62140  1  0  0  0
 62141  1  0  0  0
 63 65  1  0  0  0
 63142  1  0  0  0
 63143  1  0  0  0
 63144  1  0  0  0
 64145  1  0  0  0
 65146  1  0  0  0
 68 83  1  0  0  0
 71 73  1  0  0  0
 71 74  2  0  0  0
 71147  1  0  0  0
 72 73  2  0  0  0
 72 84  1  0  0  0
 72148  1  0  0  0
 73 86  1  0  0  0
 74 75  1  0  0  0
 74 84  1  0  0  0
 75 85  1  0  0  0
 75 87  2  0  0  0
 76 78  1  0  0  0
 76 80  1  0  0  0
 76149  1  0  0  0
 76150  1  0  0  0
 77 79  1  0  0  0
 77 80  1  0  0  0
 77151  1  0  0  0
 77152  1  0  0  0
 78 85  1  0  0  0
 78153  1  0  0  0
 78154  1  0  0  0
 79 85  1  0  0  0
 79155  1  0  0  0
 79156  1  0  0  0
 80 81  1  0  0  0
 80 83  1  0  0  0
 81157  1  0  0  0
 81158  1  0  0  0
 81159  1  0  0  0
 82 84  1  0  0  0
 82160  1  0  0  0
 82161  1  0  0  0
 82162  1  0  0  0
 83163  1  0  0  0
 83164  1  0  0  0
 86165  1  0  0  0
 87166  1  0  0  0
 87167  1  0  0  0
M  CHG  1  87   1
M  ISO  4   1 100  68 101  83 101  86 100
M  END
> <chiral flag>
0

> <version>
0

> <s_m_source_file>
/data/baiqing/PycharmProjects/Reinvent-master-3.2/result/LINK_invent/BTK/process_docking_weight1_custom_product_contain_oxygen_bond_distance_aromatic_linkinvent_7_9_3/rearranged_h_0160.sdf

> <i_m_source_file_index>
57

> <r_mmod_Potential_Energy-OPLS-2005>
39.0316123962402

> <r_mmod_Stretch_Energy-OPLS-2005>
58.192626953125

> <r_mmod_Bend_Energy-OPLS-2005>
150.027740478516

> <r_mmod_Torsional_Energy-OPLS-2005>
340.786193847656

> <r_mmod_Improper_Torsional_Energy-OPLS-2005>
8.05119609832764

> <r_mmod_Van_der_Waal_Energy-OPLS-2005>
134.431411743164

> <r_mmod_Electrostatic_Energy-OPLS-2005>
-249.435043334961

> <r_mmod_Solvation_Energy-OPLS-2005>
-427.347961425781

> <b_mmod_Minimization_Converged-OPLS-2005>
0

> <r_mmod_RMS_Derivative-OPLS-2005>
0.612475216388702

$$$$
58
                    3D
 Structure written by MMmdl.
156165  0  0  1  0            999 V2000
  -30.7048  -14.6537   20.4678 C   0  0  0  0  0  0
  -30.4185  -12.3957   19.4861 C   0  0  0  0  0  0
  -29.5097  -12.4777   18.2450 C   0  0  0  0  0  0
  -28.0297  -12.3419   18.6397 C   0  0  0  0  0  0
  -27.6425  -13.2350   19.8492 C   0  0  2  0  0  0
  -28.6845  -13.1806   20.9870 C   0  0  0  0  0  0
  -25.2508  -13.8238   20.5642 C   0  0  0  0  0  0
  -24.1805  -13.0451   20.9182 C   0  0  0  0  0  0
  -24.6431  -11.6951   20.8762 C   0  0  0  0  0  0
  -23.9143  -10.4318   21.0422 C   0  0  0  0  0  0
  -24.3672   -9.4229   21.9198 C   0  0  0  0  0  0
  -23.6332   -8.2262   22.0750 C   0  0  0  0  0  0
  -22.4316   -8.0338   21.3525 C   0  0  0  0  0  0
  -21.9983   -9.0310   20.4605 C   0  0  0  0  0  0
  -22.7330  -10.2178   20.3037 C   0  0  0  0  0  0
  -21.6885   -6.0797   22.5283 C   0  0  0  0  0  0
  -21.4022   -6.5681   23.8237 C   0  0  0  0  0  0
  -21.3655   -5.6795   24.9177 C   0  0  0  0  0  0
  -21.6056   -4.3081   24.7213 C   0  0  0  0  0  0
  -21.8812   -3.8191   23.4330 C   0  0  0  0  0  0
  -21.9201   -4.7009   22.3392 C   0  0  0  0  0  0
  -22.7814  -13.5208   21.1879 C   0  0  0  0  0  0
  -22.1658   -4.2226   21.0954 F   0  0  0  0  0  0
  -21.5651   -3.4545   25.7723 F   0  0  0  0  0  0
  -30.0039  -13.4754   20.4033 N   0  0  0  0  0  0
  -26.2948  -12.9425   20.3312 N   0  0  0  0  0  0
  -25.9372  -11.6573   20.5788 N   0  0  0  0  0  0
  -22.0475  -12.8111   22.0373 N   0  0  0  0  0  0
  -25.4182  -15.1967   20.4022 N   0  0  0  0  0  0
  -31.8951  -14.6853   20.1459 O   0  0  0  0  0  0
  -21.6661   -6.8945   21.4254 O   0  0  0  0  0  0
  -22.3482  -14.5526   20.6809 O   0  0  0  0  0  0
  -24.6268  -31.8617   23.2050 C   0  0  0  0  0  0
  -25.9125  -32.4798   23.8352 C   0  0  1  0  0  0
  -27.2246  -27.3187   20.1219 C   0  0  0  0  0  0
  -25.5947  -33.8597   24.2268 N   0  0  0  0  0  0
  -23.4195  -30.4908   21.5470 C   0  0  2  0  0  0
  -24.8654  -28.9503   20.1145 C   0  0  0  0  0  0
  -22.7435  -29.4672   22.4934 C   0  0  0  0  0  0
  -18.0275  -28.1395   22.8501 C   0  0  0  0  0  0
  -24.1485  -36.7272   23.2627 C   0  0  0  0  0  0
  -25.9637  -30.7980   21.3752 C   0  0  0  0  0  0
  -26.0391  -29.4269   20.7142 C   0  0  0  0  0  0
  -27.2224  -28.6245   20.7096 C   0  0  0  0  0  0
  -26.0187  -26.9052   19.5030 C   0  0  0  0  0  0
  -24.8565  -27.6913   19.5078 C   0  0  0  0  0  0
  -23.6340  -29.8288   20.1620 C   0  0  0  0  0  0
  -25.4123  -36.3082   24.0300 C   0  0  1  0  0  0
  -20.5875  -28.3695   23.1275 C   0  0  2  0  0  0
  -20.6779  -26.9428   22.5396 C   0  0  0  0  0  0
  -19.5749  -26.6403   21.5211 C   0  0  0  0  0  0
  -18.1926  -26.7939   22.1625 C   0  0  0  0  0  0
  -19.1529  -28.8865   23.2892 C   0  0  0  0  0  0
  -18.9462  -30.1470   23.8900 C   0  0  0  0  0  0
  -17.6474  -30.6597   24.0583 C   0  0  0  0  0  0
  -25.9063  -34.9466   23.5080 C   0  0  0  0  0  0
  -16.5367  -29.9099   23.6348 C   0  0  0  0  0  0
  -16.7274  -28.6521   23.0370 C   0  0  0  0  0  0
  -26.4504  -31.6601   25.0726 C   0  0  0  0  0  0
  -25.3712  -31.3692   26.1400 C   0  0  0  0  0  0
  -27.0371  -30.3047   24.6182 C   0  0  0  0  0  0
  -27.6019  -32.4333   25.7532 C   0  0  0  0  0  0
  -27.5587  -37.1811   24.8454 C   0  0  0  0  0  0
  -21.4153  -29.3078   22.3650 N   0  0  0  0  0  0
  -26.4293  -37.3791   23.9405 N   0  0  0  0  0  0
  -24.6879  -31.0629   22.1010 N   0  0  0  0  0  0
  -23.4154  -28.8198   23.2995 O   0  0  0  0  0  0
  -28.3300  -26.4415   20.1823 O   0  0  0  0  0  0
  -26.5627  -34.8925   22.4648 O   0  0  0  0  0  0
  -23.5434  -32.1414   23.7390 O   0  0  0  0  0  0
  -31.7874  -17.5504   21.0589 C   0  0  0  0  0  0
  -30.5418  -17.1970   20.5968 C   0  0  0  0  0  0
  -30.5282  -19.5157   20.1629 C   0  0  0  0  0  0
  -30.9683  -22.1542   19.7767 C   0  0  0  0  0  0
  -30.2371  -23.5315   19.5112 C   0  0  0  0  0  0
  -28.1161  -22.4232   20.1469 C   0  0  0  0  0  0
  -30.0291  -20.9018   19.6742 C   0  0  2  0  0  0
  -28.9475  -23.7367   20.3541 C   0  0  2  0  0  0
  -28.0229  -24.9961   20.0054 C   0  0  0  0  0  0
  -29.8261  -18.3419   20.1204 N   0  0  0  0  0  0
  -30.0196  -15.8284   20.6593 N   0  0  0  0  0  0
  -28.8471  -21.1710   20.5109 N   0  3  0  0  0  0
  -29.2828  -23.7938   21.6448 F   0  0  0  0  0  0
  -32.1281  -19.2621   20.8677 S   0  0  0  0  0  0
  -31.4636  -12.4891   19.1889 H   0  0  0  0  0  0
  -30.3350  -11.4282   19.9814 H   0  0  0  0  0  0
  -29.7779  -11.6934   17.5416 H   0  0  0  0  0  0
  -29.6752  -13.4227   17.7278 H   0  0  0  0  0  0
  -27.8439  -11.2932   18.8688 H   0  0  0  0  0  0
  -27.3947  -12.5819   17.7879 H   0  0  0  0  0  0
  -27.6388  -14.2587   19.4759 H   0  0  0  0  0  0
  -28.6839  -12.2029   21.4716 H   0  0  0  0  0  0
  -28.4243  -13.9024   21.7680 H   0  0  0  0  0  0
  -25.2856   -9.5730   22.4739 H   0  0  0  0  0  0
  -24.0088   -7.4671   22.7445 H   0  0  0  0  0  0
  -21.0967   -8.8835   19.8851 H   0  0  0  0  0  0
  -22.3871  -10.9710   19.6104 H   0  0  0  0  0  0
  -21.1989   -7.6190   23.9771 H   0  0  0  0  0  0
  -21.1472   -6.0523   25.9083 H   0  0  0  0  0  0
  -22.0588   -2.7664   23.2810 H   0  0  0  0  0  0
  -22.4143  -11.9744   22.4656 H   0  0  0  0  0  0
  -21.1064  -13.1043   22.2599 H   0  0  0  0  0  0
  -24.6568  -15.8570   20.5247 H   0  0  0  0  0  0
  -26.2743  -15.6337   20.0830 H   0  0  0  0  0  0
  -26.7211  -32.5455   23.1107 H   0  0  0  0  0  0
  -25.0090  -33.9739   25.0415 H   0  0  0  0  0  0
  -22.7171  -31.3145   21.4028 H   0  0  0  0  0  0
  -23.3778  -35.9578   23.3265 H   0  0  0  0  0  0
  -24.3571  -36.8932   22.2053 H   0  0  0  0  0  0
  -23.7217  -37.6444   23.6682 H   0  0  0  0  0  0
  -26.0974  -31.5684   20.6126 H   0  0  0  0  0  0
  -26.8422  -30.8421   22.0088 H   0  0  0  0  0  0
  -28.1183  -28.9851   21.1962 H   0  0  0  0  0  0
  -25.9143  -25.9422   19.0310 H   0  0  0  0  0  0
  -23.9536  -27.3046   19.0543 H   0  0  0  0  0  0
  -23.7534  -30.6064   19.4068 H   0  0  0  0  0  0
  -22.7534  -29.2587   19.8577 H   0  0  0  0  0  0
  -25.1327  -36.1910   25.0795 H   0  0  0  0  0  0
  -21.0015  -28.3306   24.1376 H   0  0  0  0  0  0
  -20.5706  -26.2318   23.3600 H   0  0  0  0  0  0
  -21.6648  -26.7472   22.1187 H   0  0  0  0  0  0
  -19.6919  -25.6311   21.1233 H   0  0  0  0  0  0
  -19.6696  -27.3225   20.6752 H   0  0  0  0  0  0
  -17.4205  -26.6714   21.4022 H   0  0  0  0  0  0
  -18.0333  -26.0068   22.9002 H   0  0  0  0  0  0
  -19.7932  -30.7294   24.2264 H   0  0  0  0  0  0
  -17.5015  -31.6275   24.5186 H   0  0  0  0  0  0
  -15.5362  -30.3015   23.7660 H   0  0  0  0  0  0
  -15.8673  -28.0846   22.7090 H   0  0  0  0  0  0
  -24.5921  -30.7027   25.7689 H   0  0  0  0  0  0
  -24.8852  -32.2825   26.4834 H   0  0  0  0  0  0
  -25.7998  -30.8842   27.0177 H   0  0  0  0  0  0
  -26.2981  -29.6786   24.1172 H   0  0  0  0  0  0
  -27.4055  -29.7307   25.4693 H   0  0  0  0  0  0
  -27.8836  -30.4356   23.9437 H   0  0  0  0  0  0
  -27.2634  -33.3664   26.2050 H   0  0  0  0  0  0
  -28.3901  -32.6843   25.0423 H   0  0  0  0  0  0
  -28.0608  -31.8481   26.5516 H   0  0  0  0  0  0
  -28.2547  -38.0168   24.7576 H   0  0  0  0  0  0
  -28.1133  -36.2689   24.6193 H   0  0  0  0  0  0
  -27.2265  -37.1350   25.8840 H   0  0  0  0  0  0
  -20.9297  -29.8804   21.6881 H   0  0  0  0  0  0
  -26.0139  -38.2838   24.1459 H   0  0  0  0  0  0
  -32.5461  -16.9124   21.4972 H   0  0  0  0  0  0
  -31.4140  -22.1905   20.7702 H   0  0  0  0  0  0
  -31.8009  -22.0435   19.0783 H   0  0  0  0  0  0
  -29.9655  -23.5725   18.4561 H   0  0  0  0  0  0
  -30.9219  -24.3663   19.6803 H   0  0  0  0  0  0
  -27.8288  -22.3486   19.0972 H   0  0  0  0  0  0
  -27.1928  -22.4533   20.7193 H   0  0  0  0  0  0
  -29.7215  -20.7847   18.6326 H   0  0  0  0  0  0
  -27.1252  -24.8184   20.5968 H   0  0  0  0  0  0
  -27.7358  -24.8653   18.9621 H   0  0  0  0  0  0
  -29.0240  -15.7344   20.7803 H   0  0  0  0  0  0
  -28.2400  -20.3732   20.4272 H   0  0  0  0  0  0
  -29.1480  -21.2361   21.4687 H   0  0  0  0  0  0
  1 25  1  0  0  0
  1 30  2  0  0  0
  1 81  1  0  0  0
  2  3  1  0  0  0
  2 25  1  0  0  0
  2 85  1  0  0  0
  2 86  1  0  0  0
  3  4  1  0  0  0
  3 87  1  0  0  0
  3 88  1  0  0  0
  4  5  1  0  0  0
  4 89  1  0  0  0
  4 90  1  0  0  0
  5  6  1  0  0  0
  5 26  1  0  0  0
  5 91  1  0  0  0
  6 25  1  0  0  0
  6 92  1  0  0  0
  6 93  1  0  0  0
  7  8  2  0  0  0
  7 26  1  0  0  0
  7 29  1  0  0  0
  8  9  1  0  0  0
  8 22  1  0  0  0
  9 10  1  0  0  0
  9 27  2  0  0  0
 10 11  2  0  0  0
 10 15  1  0  0  0
 11 12  1  0  0  0
 11 94  1  0  0  0
 12 13  2  0  0  0
 12 95  1  0  0  0
 13 14  1  0  0  0
 13 31  1  0  0  0
 14 15  2  0  0  0
 14 96  1  0  0  0
 15 97  1  0  0  0
 16 17  2  0  0  0
 16 21  1  0  0  0
 16 31  1  0  0  0
 17 18  1  0  0  0
 17 98  1  0  0  0
 18 19  2  0  0  0
 18 99  1  0  0  0
 19 20  1  0  0  0
 19 24  1  0  0  0
 20 21  2  0  0  0
 20100  1  0  0  0
 21 23  1  0  0  0
 22 28  1  0  0  0
 22 32  2  0  0  0
 26 27  1  0  0  0
 28101  1  0  0  0
 28102  1  0  0  0
 29103  1  0  0  0
 29104  1  0  0  0
 33 34  1  0  0  0
 33 66  1  0  0  0
 33 70  2  0  0  0
 34 36  1  0  0  0
 34 59  1  0  0  0
 34105  1  0  0  0
 35 44  2  0  0  0
 35 45  1  0  0  0
 35 68  1  0  0  0
 36 56  1  0  0  0
 36106  1  0  0  0
 37 39  1  0  0  0
 37 47  1  0  0  0
 37 66  1  0  0  0
 37107  1  0  0  0
 38 43  2  0  0  0
 38 46  1  0  0  0
 38 47  1  0  0  0
 39 64  1  0  0  0
 39 67  2  0  0  0
 40 52  1  0  0  0
 40 53  2  0  0  0
 40 58  1  0  0  0
 41108  1  0  0  0
 41109  1  0  0  0
 41110  1  0  0  0
 41 48  1  0  0  0
 42 43  1  0  0  0
 42 66  1  0  0  0
 42111  1  0  0  0
 42112  1  0  0  0
 43 44  1  0  0  0
 44113  1  0  0  0
 45 46  2  0  0  0
 45114  1  0  0  0
 46115  1  0  0  0
 47116  1  0  0  0
 47117  1  0  0  0
 48 56  1  0  0  0
 48 65  1  0  0  0
 48118  1  0  0  0
 49 50  1  0  0  0
 49 53  1  0  0  0
 49 64  1  0  0  0
 49119  1  0  0  0
 50 51  1  0  0  0
 50120  1  0  0  0
 50121  1  0  0  0
 51 52  1  0  0  0
 51122  1  0  0  0
 51123  1  0  0  0
 52124  1  0  0  0
 52125  1  0  0  0
 53 54  1  0  0  0
 54 55  2  0  0  0
 54126  1  0  0  0
 55 57  1  0  0  0
 55127  1  0  0  0
 56 69  2  0  0  0
 57 58  2  0  0  0
 57128  1  0  0  0
 58129  1  0  0  0
 59 60  1  0  0  0
 59 61  1  0  0  0
 59 62  1  0  0  0
 60130  1  0  0  0
 60131  1  0  0  0
 60132  1  0  0  0
 61133  1  0  0  0
 61134  1  0  0  0
 61135  1  0  0  0
 62136  1  0  0  0
 62137  1  0  0  0
 62138  1  0  0  0
 63 65  1  0  0  0
 63139  1  0  0  0
 63140  1  0  0  0
 63141  1  0  0  0
 64142  1  0  0  0
 65143  1  0  0  0
 68 79  1  0  0  0
 71 72  2  0  0  0
 71 84  1  0  0  0
 71144  1  0  0  0
 72 80  1  0  0  0
 72 81  1  0  0  0
 73 80  2  0  0  0
 73 84  1  0  0  0
 73 77  1  0  0  0
 74 75  1  0  0  0
 74 77  1  0  0  0
 74145  1  0  0  0
 74146  1  0  0  0
 75 78  1  0  0  0
 75147  1  0  0  0
 75148  1  0  0  0
 76 78  1  0  0  0
 76 82  1  0  0  0
 76149  1  0  0  0
 76150  1  0  0  0
 77 82  1  0  0  0
 77151  1  0  0  0
 78 79  1  0  0  0
 78 83  1  0  0  0
 79152  1  0  0  0
 79153  1  0  0  0
 81154  1  0  0  0
 82155  1  0  0  0
 82156  1  0  0  0
M  CHG  1  82   1
M  ISO  4   1 100  68 101  79 101  81 100
M  END
> <chiral flag>
0

> <version>
0

> <s_m_source_file>
/data/baiqing/PycharmProjects/Reinvent-master-3.2/result/LINK_invent/BTK/process_docking_weight1_custom_product_contain_oxygen_bond_distance_aromatic_linkinvent_7_9_3/rearranged_h_0160.sdf

> <i_m_source_file_index>
58

> <r_mmod_Potential_Energy-OPLS-2005>
-189.475799560547

> <r_mmod_Stretch_Energy-OPLS-2005>
80.7500610351562

> <r_mmod_Bend_Energy-OPLS-2005>
150.28678894043

> <r_mmod_Torsional_Energy-OPLS-2005>
244.029296875

> <r_mmod_Improper_Torsional_Energy-OPLS-2005>
5.30885744094849

> <r_mmod_Van_der_Waal_Energy-OPLS-2005>
139.220474243164

> <r_mmod_Electrostatic_Energy-OPLS-2005>
-392.282806396484

> <r_mmod_Solvation_Energy-OPLS-2005>
-475.78369140625

> <b_mmod_Minimization_Converged-OPLS-2005>
0

> <r_mmod_RMS_Derivative-OPLS-2005>
6.61789417266846

$$$$
59
                    3D
 Structure written by MMmdl.
156164  0  0  1  0            999 V2000
  -30.6191  -14.7292   20.4440 C   0  0  0  0  0  0
  -30.4307  -12.4382   19.4848 C   0  0  0  0  0  0
  -29.5133  -12.5027   18.2433 C   0  0  0  0  0  0
  -28.0389  -12.3318   18.6536 C   0  0  0  0  0  0
  -27.6455  -13.2320   19.8557 C   0  0  2  0  0  0
  -28.6880  -13.1617   20.9948 C   0  0  0  0  0  0
  -25.2521  -13.8202   20.5695 C   0  0  0  0  0  0
  -24.1813  -13.0446   20.9199 C   0  0  0  0  0  0
  -24.6404  -11.6922   20.8745 C   0  0  0  0  0  0
  -23.9077  -10.4297   21.0404 C   0  0  0  0  0  0
  -24.3622   -9.4211   21.9183 C   0  0  0  0  0  0
  -23.6292   -8.2250   22.0754 C   0  0  0  0  0  0
  -22.4277   -8.0286   21.3542 C   0  0  0  0  0  0
  -21.9915   -9.0264   20.4645 C   0  0  0  0  0  0
  -22.7247  -10.2141   20.3054 C   0  0  0  0  0  0
  -21.6855   -6.0733   22.5276 C   0  0  0  0  0  0
  -21.4015   -6.5635   23.8210 C   0  0  0  0  0  0
  -21.3661   -5.6788   24.9173 C   0  0  0  0  0  0
  -21.6046   -4.3052   24.7223 C   0  0  0  0  0  0
  -21.8821   -3.8143   23.4346 C   0  0  0  0  0  0
  -21.9193   -4.6958   22.3401 C   0  0  0  0  0  0
  -22.7832  -13.5224   21.1856 C   0  0  0  0  0  0
  -22.1661   -4.2142   21.0977 F   0  0  0  0  0  0
  -21.5630   -3.4535   25.7737 F   0  0  0  0  0  0
  -29.9959  -13.5015   20.4208 N   0  0  0  0  0  0
  -26.2956  -12.9413   20.3298 N   0  0  0  0  0  0
  -25.9336  -11.6553   20.5761 N   0  0  0  0  0  0
  -22.0476  -12.8218   22.0411 N   0  0  0  0  0  0
  -25.4213  -15.1929   20.4118 N   0  0  0  0  0  0
  -31.7979  -14.8201   20.0894 O   0  0  0  0  0  0
  -21.6642   -6.8881   21.4240 O   0  0  0  0  0  0
  -22.3519  -14.5533   20.6705 O   0  0  0  0  0  0
  -24.6314  -31.8558   23.2009 C   0  0  0  0  0  0
  -25.9142  -32.4756   23.8343 C   0  0  1  0  0  0
  -27.2109  -27.2604   20.1259 C   0  0  0  0  0  0
  -25.5932  -33.8561   24.2258 N   0  0  0  0  0  0
  -23.4277  -30.4795   21.5448 C   0  0  2  0  0  0
  -24.8744  -28.9351   20.1030 C   0  0  0  0  0  0
  -22.7509  -29.4598   22.4917 C   0  0  0  0  0  0
  -18.0289  -28.1383   22.8486 C   0  0  0  0  0  0
  -24.1491  -36.7288   23.2639 C   0  0  0  0  0  0
  -25.9746  -30.7681   21.3824 C   0  0  0  0  0  0
  -26.0461  -29.3935   20.7187 C   0  0  0  0  0  0
  -27.2174  -28.5684   20.7207 C   0  0  0  0  0  0
  -26.0262  -26.8895   19.4504 C   0  0  0  0  0  0
  -24.8708  -27.6917   19.4561 C   0  0  0  0  0  0
  -23.6443  -29.8198   20.1579 C   0  0  0  0  0  0
  -25.4115  -36.3072   24.0323 C   0  0  1  0  0  0
  -20.5895  -28.3697   23.1269 C   0  0  2  0  0  0
  -20.6780  -26.9413   22.5414 C   0  0  0  0  0  0
  -19.5753  -26.6384   21.5219 C   0  0  0  0  0  0
  -18.1930  -26.7923   22.1628 C   0  0  0  0  0  0
  -19.1543  -28.8854   23.2872 C   0  0  0  0  0  0
  -18.9465  -30.1451   23.8896 C   0  0  0  0  0  0
  -17.6465  -30.6586   24.0557 C   0  0  0  0  0  0
  -25.9060  -34.9444   23.5096 C   0  0  0  0  0  0
  -16.5355  -29.9084   23.6328 C   0  0  0  0  0  0
  -16.7276  -28.6500   23.0354 C   0  0  0  0  0  0
  -26.4508  -31.6579   25.0731 C   0  0  0  0  0  0
  -25.3725  -31.3725   26.1446 C   0  0  0  0  0  0
  -27.0351  -30.2989   24.6230 C   0  0  0  0  0  0
  -27.6061  -32.4321   25.7500 C   0  0  0  0  0  0
  -27.5582  -37.1792   24.8461 C   0  0  0  0  0  0
  -21.4217  -29.3040   22.3662 N   0  0  0  0  0  0
  -26.4293  -37.3767   23.9403 N   0  0  0  0  0  0
  -24.6967  -31.0522   22.0986 N   0  0  0  0  0  0
  -23.4215  -28.8132   23.3005 O   0  0  0  0  0  0
  -28.2856  -26.3407   20.2248 O   0  0  0  0  0  0
  -26.5647  -34.8920   22.4676 O   0  0  0  0  0  0
  -23.5465  -32.1387   23.7306 O   0  0  0  0  0  0
  -30.6620  -18.6047   18.1757 C   0  0  0  0  0  0
  -30.2490  -19.7936   18.8094 C   0  0  0  0  0  0
  -30.5509  -17.3534   18.8129 C   0  0  0  0  0  0
  -29.6956  -19.7815   20.1083 C   0  0  0  0  0  0
  -30.0134  -17.2300   20.1158 C   0  0  0  0  0  0
  -29.5739  -18.4696   20.7450 C   0  0  0  0  0  0
  -29.4080  -21.1550   20.7378 C   0  0  0  0  0  0
  -26.9843  -24.4753   21.2771 C   0  0  0  0  0  0
  -29.2495  -23.8197   20.4185 C   0  0  0  0  0  0
  -28.0247  -24.8476   20.1978 C   0  0  2  0  0  0
  -29.5462  -21.2793   22.0552 N   0  0  0  0  0  0
  -29.8709  -15.8687   20.6989 N   0  0  0  0  0  0
  -29.0944  -22.3239   20.0503 N   0  3  0  0  0  0
  -29.0611  -18.3943   21.9985 F   0  0  0  0  0  0
  -31.4745  -12.5475   19.1852 H   0  0  0  0  0  0
  -30.3628  -11.4606   19.9650 H   0  0  0  0  0  0
  -29.7942  -11.7297   17.5267 H   0  0  0  0  0  0
  -29.6463  -13.4580   17.7324 H   0  0  0  0  0  0
  -27.8946  -11.2834   18.9170 H   0  0  0  0  0  0
  -27.3838  -12.5239   17.8031 H   0  0  0  0  0  0
  -27.6434  -14.2540   19.4767 H   0  0  0  0  0  0
  -28.7148  -12.1648   21.4376 H   0  0  0  0  0  0
  -28.4254  -13.8469   21.8016 H   0  0  0  0  0  0
  -25.2765   -9.5686   22.4757 H   0  0  0  0  0  0
  -23.9994   -7.4646   22.7482 H   0  0  0  0  0  0
  -21.0841   -8.8793   19.8954 H   0  0  0  0  0  0
  -22.3709  -10.9682   19.6165 H   0  0  0  0  0  0
  -21.2008   -7.6142   23.9711 H   0  0  0  0  0  0
  -21.1480   -6.0517   25.9076 H   0  0  0  0  0  0
  -22.0598   -2.7603   23.2850 H   0  0  0  0  0  0
  -22.4086  -11.9872   22.4796 H   0  0  0  0  0  0
  -21.1097  -13.1255   22.2619 H   0  0  0  0  0  0
  -24.6529  -15.8450   20.5252 H   0  0  0  0  0  0
  -26.2676  -15.6345   20.0767 H   0  0  0  0  0  0
  -26.7208  -32.5401   23.1081 H   0  0  0  0  0  0
  -25.0015  -33.9688   25.0359 H   0  0  0  0  0  0
  -22.7234  -31.3017   21.4028 H   0  0  0  0  0  0
  -23.3757  -35.9619   23.3291 H   0  0  0  0  0  0
  -24.3579  -36.8928   22.2057 H   0  0  0  0  0  0
  -23.7247  -37.6481   23.6681 H   0  0  0  0  0  0
  -26.1178  -31.5325   20.6175 H   0  0  0  0  0  0
  -26.8510  -30.8131   22.0173 H   0  0  0  0  0  0
  -28.1095  -28.9090   21.2274 H   0  0  0  0  0  0
  -25.9532  -25.9418   18.9393 H   0  0  0  0  0  0
  -23.9774  -27.3394   18.9588 H   0  0  0  0  0  0
  -23.7665  -30.6007   19.4066 H   0  0  0  0  0  0
  -22.7626  -29.2538   19.8519 H   0  0  0  0  0  0
  -25.1296  -36.1921   25.0815 H   0  0  0  0  0  0
  -20.9976  -28.3289   24.1395 H   0  0  0  0  0  0
  -20.5682  -26.2306   23.3621 H   0  0  0  0  0  0
  -21.6643  -26.7438   22.1200 H   0  0  0  0  0  0
  -19.6911  -25.6298   21.1244 H   0  0  0  0  0  0
  -19.6686  -27.3200   20.6753 H   0  0  0  0  0  0
  -17.4198  -26.6670   21.4034 H   0  0  0  0  0  0
  -18.0320  -26.0070   22.9025 H   0  0  0  0  0  0
  -19.7943  -30.7254   24.2281 H   0  0  0  0  0  0
  -17.5027  -31.6266   24.5156 H   0  0  0  0  0  0
  -15.5355  -30.2984   23.7658 H   0  0  0  0  0  0
  -15.8675  -28.0817   22.7073 H   0  0  0  0  0  0
  -24.5918  -30.7053   25.7767 H   0  0  0  0  0  0
  -24.8891  -32.2888   26.4850 H   0  0  0  0  0  0
  -25.8040  -30.8921   27.0238 H   0  0  0  0  0  0
  -26.2934  -29.6727   24.1258 H   0  0  0  0  0  0
  -27.4010  -29.7260   25.4758 H   0  0  0  0  0  0
  -27.8827  -30.4232   23.9490 H   0  0  0  0  0  0
  -27.2679  -33.3646   26.2034 H   0  0  0  0  0  0
  -28.3895  -32.6840   25.0339 H   0  0  0  0  0  0
  -28.0707  -31.8475   26.5449 H   0  0  0  0  0  0
  -28.2585  -38.0105   24.7525 H   0  0  0  0  0  0
  -28.1095  -36.2633   24.6270 H   0  0  0  0  0  0
  -27.2300  -37.1413   25.8865 H   0  0  0  0  0  0
  -20.9414  -29.8770   21.6866 H   0  0  0  0  0  0
  -26.0176  -38.2840   24.1415 H   0  0  0  0  0  0
  -31.0843  -18.6513   17.1811 H   0  0  0  0  0  0
  -30.3928  -20.7292   18.2872 H   0  0  0  0  0  0
  -30.8744  -16.4802   18.2655 H   0  0  0  0  0  0
  -26.8028  -23.4004   21.2854 H   0  0  0  0  0  0
  -26.0135  -24.9442   21.1329 H   0  0  0  0  0  0
  -27.3378  -24.7563   22.2694 H   0  0  0  0  0  0
  -29.5907  -23.9022   21.4505 H   0  0  0  0  0  0
  -30.0862  -24.1851   19.8219 H   0  0  0  0  0  0
  -27.6168  -24.6078   19.2161 H   0  0  0  0  0  0
  -29.7199  -20.4456   22.5993 H   0  0  0  0  0  0
  -29.3428  -22.1348   22.5416 H   0  0  0  0  0  0
  -29.0137  -15.7148   21.2077 H   0  0  0  0  0  0
  -28.8651  -22.1806   19.0740 H   0  0  0  0  0  0
  1 25  1  0  0  0
  1 30  2  0  0  0
  1 82  1  0  0  0
  2  3  1  0  0  0
  2 25  1  0  0  0
  2 85  1  0  0  0
  2 86  1  0  0  0
  3  4  1  0  0  0
  3 87  1  0  0  0
  3 88  1  0  0  0
  4  5  1  0  0  0
  4 89  1  0  0  0
  4 90  1  0  0  0
  5  6  1  0  0  0
  5 26  1  0  0  0
  5 91  1  0  0  0
  6 25  1  0  0  0
  6 92  1  0  0  0
  6 93  1  0  0  0
  7  8  2  0  0  0
  7 26  1  0  0  0
  7 29  1  0  0  0
  8  9  1  0  0  0
  8 22  1  0  0  0
  9 10  1  0  0  0
  9 27  2  0  0  0
 10 11  2  0  0  0
 10 15  1  0  0  0
 11 12  1  0  0  0
 11 94  1  0  0  0
 12 13  2  0  0  0
 12 95  1  0  0  0
 13 14  1  0  0  0
 13 31  1  0  0  0
 14 15  2  0  0  0
 14 96  1  0  0  0
 15 97  1  0  0  0
 16 17  2  0  0  0
 16 21  1  0  0  0
 16 31  1  0  0  0
 17 18  1  0  0  0
 17 98  1  0  0  0
 18 19  2  0  0  0
 18 99  1  0  0  0
 19 20  1  0  0  0
 19 24  1  0  0  0
 20 21  2  0  0  0
 20100  1  0  0  0
 21 23  1  0  0  0
 22 28  1  0  0  0
 22 32  2  0  0  0
 26 27  1  0  0  0
 28101  1  0  0  0
 28102  1  0  0  0
 29103  1  0  0  0
 29104  1  0  0  0
 33 34  1  0  0  0
 33 66  1  0  0  0
 33 70  2  0  0  0
 34 36  1  0  0  0
 34 59  1  0  0  0
 34105  1  0  0  0
 35 44  2  0  0  0
 35 45  1  0  0  0
 35 68  1  0  0  0
 36 56  1  0  0  0
 36106  1  0  0  0
 37 39  1  0  0  0
 37 47  1  0  0  0
 37 66  1  0  0  0
 37107  1  0  0  0
 38 43  2  0  0  0
 38 46  1  0  0  0
 38 47  1  0  0  0
 39 64  1  0  0  0
 39 67  2  0  0  0
 40 52  1  0  0  0
 40 53  2  0  0  0
 40 58  1  0  0  0
 41108  1  0  0  0
 41109  1  0  0  0
 41110  1  0  0  0
 41 48  1  0  0  0
 42 43  1  0  0  0
 42 66  1  0  0  0
 42111  1  0  0  0
 42112  1  0  0  0
 43 44  1  0  0  0
 44113  1  0  0  0
 45 46  2  0  0  0
 45114  1  0  0  0
 46115  1  0  0  0
 47116  1  0  0  0
 47117  1  0  0  0
 48 56  1  0  0  0
 48 65  1  0  0  0
 48118  1  0  0  0
 49 50  1  0  0  0
 49 53  1  0  0  0
 49 64  1  0  0  0
 49119  1  0  0  0
 50 51  1  0  0  0
 50120  1  0  0  0
 50121  1  0  0  0
 51 52  1  0  0  0
 51122  1  0  0  0
 51123  1  0  0  0
 52124  1  0  0  0
 52125  1  0  0  0
 53 54  1  0  0  0
 54 55  2  0  0  0
 54126  1  0  0  0
 55 57  1  0  0  0
 55127  1  0  0  0
 56 69  2  0  0  0
 57 58  2  0  0  0
 57128  1  0  0  0
 58129  1  0  0  0
 59 60  1  0  0  0
 59 61  1  0  0  0
 59 62  1  0  0  0
 60130  1  0  0  0
 60131  1  0  0  0
 60132  1  0  0  0
 61133  1  0  0  0
 61134  1  0  0  0
 61135  1  0  0  0
 62136  1  0  0  0
 62137  1  0  0  0
 62138  1  0  0  0
 63 65  1  0  0  0
 63139  1  0  0  0
 63140  1  0  0  0
 63141  1  0  0  0
 64142  1  0  0  0
 65143  1  0  0  0
 68 80  1  0  0  0
 71 72  2  0  0  0
 71 73  1  0  0  0
 71144  1  0  0  0
 72 74  1  0  0  0
 72145  1  0  0  0
 73 75  2  0  0  0
 73146  1  0  0  0
 74 76  2  0  0  0
 74 77  1  0  0  0
 75 76  1  0  0  0
 75 82  1  0  0  0
 76 84  1  0  0  0
 77 81  1  0  0  0
 77 83  2  0  0  0
 78147  1  0  0  0
 78148  1  0  0  0
 78149  1  0  0  0
 78 80  1  0  0  0
 79 80  1  0  0  0
 79 83  1  0  0  0
 79150  1  0  0  0
 79151  1  0  0  0
 80152  1  0  0  0
 81153  1  0  0  0
 81154  1  0  0  0
 82155  1  0  0  0
 83156  1  0  0  0
M  CHG  1  83   1
M  ISO  4   1 100  68 101  80 101  82 100
M  END
> <chiral flag>
0

> <version>
0

> <s_m_source_file>
/data/baiqing/PycharmProjects/Reinvent-master-3.2/result/LINK_invent/BTK/process_docking_weight1_custom_product_contain_oxygen_bond_distance_aromatic_linkinvent_7_9_3/rearranged_h_0160.sdf

> <i_m_source_file_index>
59

> <r_mmod_Potential_Energy-OPLS-2005>
-89.2293090820312

> <r_mmod_Stretch_Energy-OPLS-2005>
124.611297607422

> <r_mmod_Bend_Energy-OPLS-2005>
154.727661132812

> <r_mmod_Torsional_Energy-OPLS-2005>
241.430572509766

> <r_mmod_Improper_Torsional_Energy-OPLS-2005>
5.80249452590942

> <r_mmod_Van_der_Waal_Energy-OPLS-2005>
146.519302368164

> <r_mmod_Electrostatic_Energy-OPLS-2005>
-433.357788085938

> <r_mmod_Solvation_Energy-OPLS-2005>
-414.765563964844

> <b_mmod_Minimization_Converged-OPLS-2005>
0

> <r_mmod_RMS_Derivative-OPLS-2005>
0.987433314323425

$$$$
60
                    3D
 Structure written by MMmdl.
161170  0  0  1  0            999 V2000
  -30.6926  -14.6022   20.5262 C   0  0  0  0  0  0
  -30.4166  -12.3785   19.4490 C   0  0  0  0  0  0
  -29.4966  -12.4882   18.2177 C   0  0  0  0  0  0
  -28.0224  -12.3333   18.6366 C   0  0  0  0  0  0
  -27.6460  -13.2225   19.8525 C   0  0  2  0  0  0
  -28.6905  -13.1152   20.9845 C   0  0  0  0  0  0
  -25.2537  -13.8187   20.5688 C   0  0  0  0  0  0
  -24.1820  -13.0442   20.9211 C   0  0  0  0  0  0
  -24.6398  -11.6916   20.8756 C   0  0  0  0  0  0
  -23.9075  -10.4292   21.0414 C   0  0  0  0  0  0
  -24.3622   -9.4205   21.9191 C   0  0  0  0  0  0
  -23.6295   -8.2240   22.0757 C   0  0  0  0  0  0
  -22.4280   -8.0280   21.3544 C   0  0  0  0  0  0
  -21.9919   -9.0255   20.4645 C   0  0  0  0  0  0
  -22.7250  -10.2132   20.3055 C   0  0  0  0  0  0
  -21.6857   -6.0737   22.5282 C   0  0  0  0  0  0
  -21.4014   -6.5640   23.8217 C   0  0  0  0  0  0
  -21.3659   -5.6792   24.9178 C   0  0  0  0  0  0
  -21.6040   -4.3052   24.7227 C   0  0  0  0  0  0
  -21.8818   -3.8149   23.4348 C   0  0  0  0  0  0
  -21.9191   -4.6966   22.3405 C   0  0  0  0  0  0
  -22.7841  -13.5228   21.1862 C   0  0  0  0  0  0
  -22.1663   -4.2153   21.0982 F   0  0  0  0  0  0
  -21.5625   -3.4537   25.7740 F   0  0  0  0  0  0
  -30.0010  -13.4278   20.4011 N   0  0  0  0  0  0
  -26.2957  -12.9382   20.3287 N   0  0  0  0  0  0
  -25.9323  -11.6532   20.5758 N   0  0  0  0  0  0
  -22.0477  -12.8213   22.0408 N   0  0  0  0  0  0
  -25.4234  -15.1909   20.4086 N   0  0  0  0  0  0
  -31.8594  -14.6916   20.1356 O   0  0  0  0  0  0
  -21.6640   -6.8882   21.4244 O   0  0  0  0  0  0
  -22.3531  -14.5538   20.6714 O   0  0  0  0  0  0
  -24.6225  -31.8628   23.2037 C   0  0  0  0  0  0
  -25.9083  -32.4798   23.8365 C   0  0  1  0  0  0
  -27.2236  -27.3516   20.1167 C   0  0  0  0  0  0
  -25.5914  -33.8592   24.2305 N   0  0  0  0  0  0
  -23.4150  -30.4863   21.5457 C   0  0  2  0  0  0
  -24.8638  -28.9433   20.1119 C   0  0  0  0  0  0
  -22.7459  -29.4632   22.4941 C   0  0  0  0  0  0
  -18.0285  -28.1381   22.8489 C   0  0  0  0  0  0
  -24.1483  -36.7289   23.2636 C   0  0  0  0  0  0
  -25.9526  -30.8055   21.3686 C   0  0  0  0  0  0
  -26.0317  -29.4333   20.7133 C   0  0  0  0  0  0
  -27.2191  -28.6478   20.7087 C   0  0  0  0  0  0
  -26.0403  -26.9041   19.4945 C   0  0  0  0  0  0
  -24.8676  -27.6825   19.4938 C   0  0  0  0  0  0
  -23.6296  -29.8199   20.1607 C   0  0  0  0  0  0
  -25.4103  -36.3091   24.0340 C   0  0  1  0  0  0
  -20.5886  -28.3677   23.1289 C   0  0  2  0  0  0
  -20.6764  -26.9402   22.5407 C   0  0  0  0  0  0
  -19.5741  -26.6389   21.5205 C   0  0  0  0  0  0
  -18.1924  -26.7926   22.1624 C   0  0  0  0  0  0
  -19.1539  -28.8845   23.2886 C   0  0  0  0  0  0
  -18.9463  -30.1450   23.8897 C   0  0  0  0  0  0
  -17.6464  -30.6583   24.0564 C   0  0  0  0  0  0
  -25.9038  -34.9460   23.5122 C   0  0  0  0  0  0
  -16.5355  -29.9083   23.6334 C   0  0  0  0  0  0
  -16.7274  -28.6500   23.0355 C   0  0  0  0  0  0
  -26.4480  -31.6583   25.0711 C   0  0  0  0  0  0
  -25.3733  -31.3717   26.1453 C   0  0  0  0  0  0
  -27.0312  -30.3019   24.6115 C   0  0  0  0  0  0
  -27.6056  -32.4301   25.7482 C   0  0  0  0  0  0
  -27.5584  -37.1794   24.8462 C   0  0  0  0  0  0
  -21.4174  -29.3033   22.3682 N   0  0  0  0  0  0
  -26.4282  -37.3789   23.9423 N   0  0  0  0  0  0
  -24.6823  -31.0669   22.0972 N   0  0  0  0  0  0
  -23.4196  -28.8178   23.3011 O   0  0  0  0  0  0
  -28.3138  -26.4833   20.1383 O   0  0  0  0  0  0
  -26.5600  -34.8923   22.4684 O   0  0  0  0  0  0
  -23.5397  -32.1405   23.7388 O   0  0  0  0  0  0
  -30.9709  -19.2569   22.1531 C   0  0  0  0  0  0
  -31.9287  -18.8987   23.1142 C   0  0  0  0  0  0
  -31.5655  -16.5666   22.5773 C   0  0  0  0  0  0
  -30.2833  -18.2945   21.3722 C   0  0  0  0  0  0
  -30.6060  -16.8859   21.5769 C   0  0  0  0  0  0
  -32.2250  -17.5494   23.3286 C   0  0  0  0  0  0
  -28.5981  -24.0140   20.4468 C   0  0  0  0  0  0
  -28.1031  -25.2506   20.7726 C   0  0  0  0  0  0
  -29.4832  -23.6408   19.2822 C   0  0  0  0  0  0
  -28.3160  -22.6991   21.2038 C   0  0  0  0  0  0
  -29.3458  -22.0987   19.1657 C   0  0  0  0  0  0
  -29.2915  -18.8747   20.3231 C   0  0  0  0  0  0
  -28.4580  -20.2030   20.6549 C   0  0  0  0  0  0
  -30.0150  -15.7347   20.9049 N   0  0  0  0  0  0
  -29.0830  -21.5882   20.5362 N   0  3  2  0  0  0
  -33.1450  -17.1945   24.2574 F   0  0  0  0  0  0
  -31.4615  -12.4686   19.1473 H   0  0  0  0  0  0
  -30.3259  -11.3935   19.9104 H   0  0  0  0  0  0
  -29.7573  -11.7240   17.4841 H   0  0  0  0  0  0
  -29.6471  -13.4505   17.7261 H   0  0  0  0  0  0
  -27.8641  -11.2833   18.8868 H   0  0  0  0  0  0
  -27.3642  -12.5453   17.7933 H   0  0  0  0  0  0
  -27.6570  -14.2512   19.4917 H   0  0  0  0  0  0
  -28.6976  -12.1120   21.4132 H   0  0  0  0  0  0
  -28.4441  -13.7934   21.8028 H   0  0  0  0  0  0
  -25.2765   -9.5680   22.4770 H   0  0  0  0  0  0
  -24.0005   -7.4631   22.7475 H   0  0  0  0  0  0
  -21.0853   -8.8771   19.8949 H   0  0  0  0  0  0
  -22.3713  -10.9669   19.6160 H   0  0  0  0  0  0
  -21.2011   -7.6148   23.9723 H   0  0  0  0  0  0
  -21.1480   -6.0521   25.9082 H   0  0  0  0  0  0
  -22.0595   -2.7611   23.2848 H   0  0  0  0  0  0
  -22.4084  -11.9862   22.4782 H   0  0  0  0  0  0
  -21.1088  -13.1230   22.2602 H   0  0  0  0  0  0
  -24.6531  -15.8420   20.5150 H   0  0  0  0  0  0
  -26.2648  -15.6282   20.0561 H   0  0  0  0  0  0
  -26.7147  -32.5492   23.1119 H   0  0  0  0  0  0
  -25.0075  -33.9739   25.0461 H   0  0  0  0  0  0
  -22.7063  -31.3050   21.4030 H   0  0  0  0  0  0
  -23.3753  -35.9612   23.3288 H   0  0  0  0  0  0
  -24.3581  -36.8906   22.2052 H   0  0  0  0  0  0
  -23.7213  -37.6483   23.6652 H   0  0  0  0  0  0
  -26.0740  -31.5691   20.5987 H   0  0  0  0  0  0
  -26.8365  -30.8609   21.9924 H   0  0  0  0  0  0
  -28.1173  -29.0172   21.1847 H   0  0  0  0  0  0
  -26.0214  -25.9315   19.0232 H   0  0  0  0  0  0
  -23.9725  -27.3003   19.0215 H   0  0  0  0  0  0
  -23.7455  -30.5956   19.4027 H   0  0  0  0  0  0
  -22.7514  -29.2457   19.8601 H   0  0  0  0  0  0
  -25.1275  -36.1952   25.0831 H   0  0  0  0  0  0
  -20.9987  -28.3246   24.1408 H   0  0  0  0  0  0
  -20.5649  -26.2284   23.3600 H   0  0  0  0  0  0
  -21.6636  -26.7420   22.1215 H   0  0  0  0  0  0
  -19.6891  -25.6303   21.1226 H   0  0  0  0  0  0
  -19.6680  -27.3200   20.6733 H   0  0  0  0  0  0
  -17.4194  -26.6679   21.4026 H   0  0  0  0  0  0
  -18.0321  -26.0066   22.9017 H   0  0  0  0  0  0
  -19.7941  -30.7267   24.2262 H   0  0  0  0  0  0
  -17.5024  -31.6266   24.5161 H   0  0  0  0  0  0
  -15.5355  -30.2988   23.7656 H   0  0  0  0  0  0
  -15.8673  -28.0820   22.7074 H   0  0  0  0  0  0
  -24.5920  -30.7038   25.7806 H   0  0  0  0  0  0
  -24.8902  -32.2878   26.4865 H   0  0  0  0  0  0
  -25.8083  -30.8929   27.0237 H   0  0  0  0  0  0
  -26.2868  -29.6785   24.1148 H   0  0  0  0  0  0
  -27.4045  -29.7252   25.4588 H   0  0  0  0  0  0
  -27.8723  -30.4319   23.9300 H   0  0  0  0  0  0
  -27.2685  -33.3611   26.2056 H   0  0  0  0  0  0
  -28.3881  -32.6835   25.0318 H   0  0  0  0  0  0
  -28.0701  -31.8412   26.5404 H   0  0  0  0  0  0
  -28.2585  -38.0111   24.7554 H   0  0  0  0  0  0
  -28.1097  -36.2645   24.6232 H   0  0  0  0  0  0
  -27.2312  -37.1385   25.8866 H   0  0  0  0  0  0
  -20.9336  -29.8768   21.6915 H   0  0  0  0  0  0
  -26.0165  -38.2858   24.1454 H   0  0  0  0  0  0
  -30.7891  -20.3103   22.0257 H   0  0  0  0  0  0
  -32.4385  -19.6603   23.6872 H   0  0  0  0  0  0
  -31.8235  -15.5396   22.7915 H   0  0  0  0  0  0
  -27.4571  -25.3712   21.6331 H   0  0  0  0  0  0
  -30.5095  -23.9107   19.5328 H   0  0  0  0  0  0
  -29.2064  -24.1653   18.3673 H   0  0  0  0  0  0
  -27.2446  -22.5001   21.1574 H   0  0  0  0  0  0
  -28.5931  -22.7837   22.2551 H   0  0  0  0  0  0
  -30.2279  -21.6372   18.7218 H   0  0  0  0  0  0
  -28.4942  -21.8660   18.5241 H   0  0  0  0  0  0
  -28.5690  -18.0818   20.1271 H   0  0  0  0  0  0
  -29.8271  -19.0088   19.3833 H   0  0  0  0  0  0
  -28.0532  -20.0953   21.6624 H   0  0  0  0  0  0
  -27.5831  -20.2091   20.0030 H   0  0  0  0  0  0
  -29.0084  -15.6712   20.9213 H   0  0  0  0  0  0
  -29.9767  -21.5616   21.0016 H   0  0  0  0  0  0
  1 25  1  0  0  0
  1 30  2  0  0  0
  1 84  1  0  0  0
  2  3  1  0  0  0
  2 25  1  0  0  0
  2 87  1  0  0  0
  2 88  1  0  0  0
  3  4  1  0  0  0
  3 89  1  0  0  0
  3 90  1  0  0  0
  4  5  1  0  0  0
  4 91  1  0  0  0
  4 92  1  0  0  0
  5  6  1  0  0  0
  5 26  1  0  0  0
  5 93  1  0  0  0
  6 25  1  0  0  0
  6 94  1  0  0  0
  6 95  1  0  0  0
  7  8  2  0  0  0
  7 26  1  0  0  0
  7 29  1  0  0  0
  8  9  1  0  0  0
  8 22  1  0  0  0
  9 10  1  0  0  0
  9 27  2  0  0  0
 10 11  2  0  0  0
 10 15  1  0  0  0
 11 12  1  0  0  0
 11 96  1  0  0  0
 12 13  2  0  0  0
 12 97  1  0  0  0
 13 14  1  0  0  0
 13 31  1  0  0  0
 14 15  2  0  0  0
 14 98  1  0  0  0
 15 99  1  0  0  0
 16 17  2  0  0  0
 16 21  1  0  0  0
 16 31  1  0  0  0
 17 18  1  0  0  0
 17100  1  0  0  0
 18 19  2  0  0  0
 18101  1  0  0  0
 19 20  1  0  0  0
 19 24  1  0  0  0
 20 21  2  0  0  0
 20102  1  0  0  0
 21 23  1  0  0  0
 22 28  1  0  0  0
 22 32  2  0  0  0
 26 27  1  0  0  0
 28103  1  0  0  0
 28104  1  0  0  0
 29105  1  0  0  0
 29106  1  0  0  0
 33 34  1  0  0  0
 33 66  1  0  0  0
 33 70  2  0  0  0
 34 36  1  0  0  0
 34 59  1  0  0  0
 34107  1  0  0  0
 35 44  2  0  0  0
 35 45  1  0  0  0
 35 68  1  0  0  0
 36 56  1  0  0  0
 36108  1  0  0  0
 37 39  1  0  0  0
 37 47  1  0  0  0
 37 66  1  0  0  0
 37109  1  0  0  0
 38 43  2  0  0  0
 38 46  1  0  0  0
 38 47  1  0  0  0
 39 64  1  0  0  0
 39 67  2  0  0  0
 40 52  1  0  0  0
 40 53  2  0  0  0
 40 58  1  0  0  0
 41110  1  0  0  0
 41111  1  0  0  0
 41112  1  0  0  0
 41 48  1  0  0  0
 42 43  1  0  0  0
 42 66  1  0  0  0
 42113  1  0  0  0
 42114  1  0  0  0
 43 44  1  0  0  0
 44115  1  0  0  0
 45 46  2  0  0  0
 45116  1  0  0  0
 46117  1  0  0  0
 47118  1  0  0  0
 47119  1  0  0  0
 48 56  1  0  0  0
 48 65  1  0  0  0
 48120  1  0  0  0
 49 50  1  0  0  0
 49 53  1  0  0  0
 49 64  1  0  0  0
 49121  1  0  0  0
 50 51  1  0  0  0
 50122  1  0  0  0
 50123  1  0  0  0
 51 52  1  0  0  0
 51124  1  0  0  0
 51125  1  0  0  0
 52126  1  0  0  0
 52127  1  0  0  0
 53 54  1  0  0  0
 54 55  2  0  0  0
 54128  1  0  0  0
 55 57  1  0  0  0
 55129  1  0  0  0
 56 69  2  0  0  0
 57 58  2  0  0  0
 57130  1  0  0  0
 58131  1  0  0  0
 59 60  1  0  0  0
 59 61  1  0  0  0
 59 62  1  0  0  0
 60132  1  0  0  0
 60133  1  0  0  0
 60134  1  0  0  0
 61135  1  0  0  0
 61136  1  0  0  0
 61137  1  0  0  0
 62138  1  0  0  0
 62139  1  0  0  0
 62140  1  0  0  0
 63 65  1  0  0  0
 63141  1  0  0  0
 63142  1  0  0  0
 63143  1  0  0  0
 64144  1  0  0  0
 65145  1  0  0  0
 68 78  1  0  0  0
 71 72  2  0  0  0
 71 74  1  0  0  0
 71146  1  0  0  0
 72 76  1  0  0  0
 72147  1  0  0  0
 73 75  1  0  0  0
 73 76  2  0  0  0
 73148  1  0  0  0
 74 75  2  0  0  0
 74 82  1  0  0  0
 75 84  1  0  0  0
 76 86  1  0  0  0
 77 78  2  0  0  0
 77 79  1  0  0  0
 77 80  1  0  0  0
 78149  1  0  0  0
 79 81  1  0  0  0
 79150  1  0  0  0
 79151  1  0  0  0
 80 85  1  0  0  0
 80152  1  0  0  0
 80153  1  0  0  0
 81 85  1  0  0  0
 81154  1  0  0  0
 81155  1  0  0  0
 82 83  1  0  0  0
 82156  1  0  0  0
 82157  1  0  0  0
 83158  1  0  0  0
 83159  1  0  0  0
 83 85  1  0  0  0
 84160  1  0  0  0
 85161  1  0  0  0
M  CHG  1  85   1
M  ISO  4   1 100  68 101  78 101  84 100
M  END
> <chiral flag>
0

> <version>
0

> <s_m_source_file>
/data/baiqing/PycharmProjects/Reinvent-master-3.2/result/LINK_invent/BTK/process_docking_weight1_custom_product_contain_oxygen_bond_distance_aromatic_linkinvent_7_9_3/rearranged_h_0160.sdf

> <i_m_source_file_index>
60

> <r_mmod_Potential_Energy-OPLS-2005>
13.5656661987305

> <r_mmod_Stretch_Energy-OPLS-2005>
73.2206039428711

> <r_mmod_Bend_Energy-OPLS-2005>
165.584869384766

> <r_mmod_Torsional_Energy-OPLS-2005>
286.330261230469

> <r_mmod_Improper_Torsional_Energy-OPLS-2005>
4.81795740127563

> <r_mmod_Van_der_Waal_Energy-OPLS-2005>
140.488037109375

> <r_mmod_Electrostatic_Energy-OPLS-2005>
-241.338317871094

> <r_mmod_Solvation_Energy-OPLS-2005>
-456.902923583984

> <b_mmod_Minimization_Converged-OPLS-2005>
0

> <r_mmod_RMS_Derivative-OPLS-2005>
1.27634012699127

$$$$
61
                    3D
 Structure written by MMmdl.
158167  0  0  1  0            999 V2000
  -30.7037  -14.6964   20.6791 C   0  0  0  0  0  0
  -30.4297  -12.4617   19.5007 C   0  0  0  0  0  0
  -29.5232  -12.5299   18.2450 C   0  0  0  0  0  0
  -28.0545  -12.3009   18.6510 C   0  0  0  0  0  0
  -27.6480  -13.2153   19.8290 C   0  0  2  0  0  0
  -28.6664  -13.1410   20.9788 C   0  0  0  0  0  0
  -25.2578  -13.8172   20.5650 C   0  0  0  0  0  0
  -24.1846  -13.0452   20.9165 C   0  0  0  0  0  0
  -24.6378  -11.6886   20.8754 C   0  0  0  0  0  0
  -23.9037  -10.4296   21.0439 C   0  0  0  0  0  0
  -24.3566   -9.4213   21.9200 C   0  0  0  0  0  0
  -23.6255   -8.2254   22.0759 C   0  0  0  0  0  0
  -22.4253   -8.0244   21.3546 C   0  0  0  0  0  0
  -21.9875   -9.0222   20.4631 C   0  0  0  0  0  0
  -22.7195  -10.2114   20.3071 C   0  0  0  0  0  0
  -21.6870   -6.0692   22.5294 C   0  0  0  0  0  0
  -21.4000   -6.5613   23.8199 C   0  0  0  0  0  0
  -21.3670   -5.6777   24.9191 C   0  0  0  0  0  0
  -21.6084   -4.3042   24.7253 C   0  0  0  0  0  0
  -21.8833   -3.8114   23.4371 C   0  0  0  0  0  0
  -21.9195   -4.6927   22.3423 C   0  0  0  0  0  0
  -22.7848  -13.5206   21.1845 C   0  0  0  0  0  0
  -22.1651   -4.2085   21.1014 F   0  0  0  0  0  0
  -21.5636   -3.4522   25.7781 F   0  0  0  0  0  0
  -30.0084  -13.5038   20.4822 N   0  0  0  0  0  0
  -26.2937  -12.9351   20.3083 N   0  0  0  0  0  0
  -25.9284  -11.6496   20.5657 N   0  0  0  0  0  0
  -22.0437  -12.8244   22.0408 N   0  0  0  0  0  0
  -25.4435  -15.1894   20.4130 N   0  0  0  0  0  0
  -31.6960  -14.9190   19.9826 O   0  0  0  0  0  0
  -21.6644   -6.8826   21.4220 O   0  0  0  0  0  0
  -22.3552  -14.5522   20.6655 O   0  0  0  0  0  0
  -24.6382  -31.8532   23.1902 C   0  0  0  0  0  0
  -25.9168  -32.4764   23.8324 C   0  0  1  0  0  0
  -27.2736  -27.2158   20.1490 C   0  0  0  0  0  0
  -25.5927  -33.8576   24.2227 N   0  0  0  0  0  0
  -23.4397  -30.4642   21.5429 C   0  0  2  0  0  0
  -24.9044  -28.8966   20.1183 C   0  0  0  0  0  0
  -22.7549  -29.4545   22.4956 C   0  0  0  0  0  0
  -18.0294  -28.1354   22.8489 C   0  0  0  0  0  0
  -24.1476  -36.7296   23.2646 C   0  0  0  0  0  0
  -25.9908  -30.7467   21.3810 C   0  0  0  0  0  0
  -26.0755  -29.3633   20.7246 C   0  0  0  0  0  0
  -27.2624  -28.5470   20.7099 C   0  0  0  0  0  0
  -26.0702  -26.8223   19.5224 C   0  0  0  0  0  0
  -24.9133  -27.6365   19.4971 C   0  0  0  0  0  0
  -23.6633  -29.7819   20.1674 C   0  0  0  0  0  0
  -25.4112  -36.3085   24.0323 C   0  0  1  0  0  0
  -20.5895  -28.3666   23.1279 C   0  0  2  0  0  0
  -20.6779  -26.9382   22.5415 C   0  0  0  0  0  0
  -19.5738  -26.6356   21.5222 C   0  0  0  0  0  0
  -18.1913  -26.7925   22.1624 C   0  0  0  0  0  0
  -19.1537  -28.8844   23.2871 C   0  0  0  0  0  0
  -18.9478  -30.1471   23.8858 C   0  0  0  0  0  0
  -17.6464  -30.6568   24.0541 C   0  0  0  0  0  0
  -25.9077  -34.9456   23.5074 C   0  0  0  0  0  0
  -16.5362  -29.9044   23.6372 C   0  0  0  0  0  0
  -16.7286  -28.6459   23.0381 C   0  0  0  0  0  0
  -26.4468  -31.6629   25.0774 C   0  0  0  0  0  0
  -25.3649  -31.3809   26.1467 C   0  0  0  0  0  0
  -27.0362  -30.3060   24.6328 C   0  0  0  0  0  0
  -27.6024  -32.4398   25.7507 C   0  0  0  0  0  0
  -27.5569  -37.1808   24.8472 C   0  0  0  0  0  0
  -21.4254  -29.3015   22.3698 N   0  0  0  0  0  0
  -26.4302  -37.3769   23.9373 N   0  0  0  0  0  0
  -24.7100  -31.0393   22.0939 N   0  0  0  0  0  0
  -23.4223  -28.8146   23.3120 O   0  0  0  0  0  0
  -28.3843  -26.3077   20.1743 O   0  0  0  0  0  0
  -26.5648  -34.8926   22.4652 O   0  0  0  0  0  0
  -23.5548  -32.1404   23.7149 O   0  0  0  0  0  0
  -29.6257  -19.5471   21.7621 C   0  0  0  0  0  0
  -30.7408  -20.2965   20.0509 C   0  0  0  0  0  0
  -29.7752  -20.7449   20.9267 C   0  0  0  0  0  0
  -30.4033  -18.4639   21.3343 C   0  0  0  0  0  0
  -29.0212  -22.1435   21.0010 C   0  0  0  0  0  0
  -29.2569  -23.6405   20.2826 C   0  0  0  0  0  0
  -32.3271  -16.1117   23.8134 C   0  0  0  0  0  0
  -31.6724  -14.7376   23.5954 C   0  0  0  0  0  0
  -32.2576  -16.9824   22.5349 C   0  0  0  0  0  0
  -30.2557  -14.9006   23.0154 C   0  0  0  0  0  0
  -30.8007  -17.0573   22.0056 C   0  0  1  0  0  0
  -28.1427  -24.8195   20.4823 C   0  0  0  0  0  0
  -30.3223  -15.5937   21.6888 N   0  0  0  0  0  0
  -28.0406  -22.1210   21.7469 O   0  0  0  0  0  0
  -30.2472  -23.8385   19.5647 O   0  0  0  0  0  0
  -31.0955  -18.9519   20.2556 O   0  0  0  0  0  0
  -31.4914  -12.5339   19.2507 H   0  0  0  0  0  0
  -30.3180  -11.4774   19.9535 H   0  0  0  0  0  0
  -29.8124  -11.7775   17.5075 H   0  0  0  0  0  0
  -29.6417  -13.5021   17.7669 H   0  0  0  0  0  0
  -27.9481  -11.2527   18.9472 H   0  0  0  0  0  0
  -27.3884  -12.4449   17.8031 H   0  0  0  0  0  0
  -27.6525  -14.2332   19.4353 H   0  0  0  0  0  0
  -28.7031  -12.1398   21.4127 H   0  0  0  0  0  0
  -28.2970  -13.8087   21.7540 H   0  0  0  0  0  0
  -25.2688   -9.5692   22.4759 H   0  0  0  0  0  0
  -23.9972   -7.4661   22.7494 H   0  0  0  0  0  0
  -21.0796   -8.8688   19.8925 H   0  0  0  0  0  0
  -22.3620  -10.9611   19.6164 H   0  0  0  0  0  0
  -21.1965   -7.6092   23.9678 H   0  0  0  0  0  0
  -21.1485   -6.0511   25.9090 H   0  0  0  0  0  0
  -22.0607   -2.7535   23.2929 H   0  0  0  0  0  0
  -22.3977  -11.9893   22.4855 H   0  0  0  0  0  0
  -21.1033  -13.1303   22.2549 H   0  0  0  0  0  0
  -24.6913  -15.8559   20.5394 H   0  0  0  0  0  0
  -26.3106  -15.6189   20.1119 H   0  0  0  0  0  0
  -26.7253  -32.5380   23.1076 H   0  0  0  0  0  0
  -25.0110  -33.9685   25.0399 H   0  0  0  0  0  0
  -22.7420  -31.2880   21.3894 H   0  0  0  0  0  0
  -23.3736  -35.9629   23.3384 H   0  0  0  0  0  0
  -24.3562  -36.8892   22.2058 H   0  0  0  0  0  0
  -23.7225  -37.6515   23.6656 H   0  0  0  0  0  0
  -26.1394  -31.5021   20.6095 H   0  0  0  0  0  0
  -26.8676  -30.7988   22.0156 H   0  0  0  0  0  0
  -28.1642  -28.9190   21.1724 H   0  0  0  0  0  0
  -26.0121  -25.8595   19.0371 H   0  0  0  0  0  0
  -24.0244  -27.2718   19.0003 H   0  0  0  0  0  0
  -23.7568  -30.5571   19.4040 H   0  0  0  0  0  0
  -22.7832  -29.2063   19.8792 H   0  0  0  0  0  0
  -25.1264  -36.1968   25.0829 H   0  0  0  0  0  0
  -20.9979  -28.3238   24.1396 H   0  0  0  0  0  0
  -20.5702  -26.2272   23.3629 H   0  0  0  0  0  0
  -21.6638  -26.7405   22.1183 H   0  0  0  0  0  0
  -19.6913  -25.6262   21.1277 H   0  0  0  0  0  0
  -19.6695  -27.3150   20.6754 H   0  0  0  0  0  0
  -17.4210  -26.6724   21.4009 H   0  0  0  0  0  0
  -18.0277  -26.0013   22.8985 H   0  0  0  0  0  0
  -19.7953  -30.7289   24.2222 H   0  0  0  0  0  0
  -17.5012  -31.6278   24.5104 H   0  0  0  0  0  0
  -15.5351  -30.2913   23.7723 H   0  0  0  0  0  0
  -15.8703  -28.0769   22.7137 H   0  0  0  0  0  0
  -24.5758  -30.7237   25.7752 H   0  0  0  0  0  0
  -24.8899  -32.3027   26.4917 H   0  0  0  0  0  0
  -25.7902  -30.8938   27.0266 H   0  0  0  0  0  0
  -26.3034  -29.6777   24.1281 H   0  0  0  0  0  0
  -27.3962  -29.7307   25.4868 H   0  0  0  0  0  0
  -27.8892  -30.4325   23.9640 H   0  0  0  0  0  0
  -27.2651  -33.3722   26.2032 H   0  0  0  0  0  0
  -28.3819  -32.6995   25.0325 H   0  0  0  0  0  0
  -28.0722  -31.8610   26.5476 H   0  0  0  0  0  0
  -28.2616  -38.0070   24.7482 H   0  0  0  0  0  0
  -28.1035  -36.2624   24.6346 H   0  0  0  0  0  0
  -27.2312  -37.1517   25.8881 H   0  0  0  0  0  0
  -20.9499  -29.8705   21.6838 H   0  0  0  0  0  0
  -26.0221  -38.2870   24.1327 H   0  0  0  0  0  0
  -29.0248  -19.5261   22.6600 H   0  0  0  0  0  0
  -31.2742  -20.7820   19.2478 H   0  0  0  0  0  0
  -33.3533  -16.0052   24.1745 H   0  0  0  0  0  0
  -31.8013  -16.6181   24.6292 H   0  0  0  0  0  0
  -31.6185  -14.1830   24.5342 H   0  0  0  0  0  0
  -32.2812  -14.1243   22.9247 H   0  0  0  0  0  0
  -32.9208  -16.5765   21.7736 H   0  0  0  0  0  0
  -32.6322  -17.9784   22.7767 H   0  0  0  0  0  0
  -29.5898  -15.4233   23.7075 H   0  0  0  0  0  0
  -29.8924  -13.8734   23.0147 H   0  0  0  0  0  0
  -30.2944  -17.2616   22.9545 H   0  0  0  0  0  0
  -27.8429  -24.7622   21.5300 H   0  0  0  0  0  0
  -27.2974  -24.4676   19.8953 H   0  0  0  0  0  0
  1 25  1  0  0  0
  1 30  2  0  0  0
  1 83  1  0  0  0
  2  3  1  0  0  0
  2 25  1  0  0  0
  2 87  1  0  0  0
  2 88  1  0  0  0
  3  4  1  0  0  0
  3 89  1  0  0  0
  3 90  1  0  0  0
  4  5  1  0  0  0
  4 91  1  0  0  0
  4 92  1  0  0  0
  5  6  1  0  0  0
  5 26  1  0  0  0
  5 93  1  0  0  0
  6 25  1  0  0  0
  6 94  1  0  0  0
  6 95  1  0  0  0
  7  8  2  0  0  0
  7 26  1  0  0  0
  7 29  1  0  0  0
  8  9  1  0  0  0
  8 22  1  0  0  0
  9 10  1  0  0  0
  9 27  2  0  0  0
 10 11  2  0  0  0
 10 15  1  0  0  0
 11 12  1  0  0  0
 11 96  1  0  0  0
 12 13  2  0  0  0
 12 97  1  0  0  0
 13 14  1  0  0  0
 13 31  1  0  0  0
 14 15  2  0  0  0
 14 98  1  0  0  0
 15 99  1  0  0  0
 16 17  2  0  0  0
 16 21  1  0  0  0
 16 31  1  0  0  0
 17 18  1  0  0  0
 17100  1  0  0  0
 18 19  2  0  0  0
 18101  1  0  0  0
 19 20  1  0  0  0
 19 24  1  0  0  0
 20 21  2  0  0  0
 20102  1  0  0  0
 21 23  1  0  0  0
 22 28  1  0  0  0
 22 32  2  0  0  0
 26 27  1  0  0  0
 28103  1  0  0  0
 28104  1  0  0  0
 29105  1  0  0  0
 29106  1  0  0  0
 33 34  1  0  0  0
 33 66  1  0  0  0
 33 70  2  0  0  0
 34 36  1  0  0  0
 34 59  1  0  0  0
 34107  1  0  0  0
 35 44  2  0  0  0
 35 45  1  0  0  0
 35 68  1  0  0  0
 36 56  1  0  0  0
 36108  1  0  0  0
 37 39  1  0  0  0
 37 47  1  0  0  0
 37 66  1  0  0  0
 37109  1  0  0  0
 38 43  2  0  0  0
 38 46  1  0  0  0
 38 47  1  0  0  0
 39 64  1  0  0  0
 39 67  2  0  0  0
 40 52  1  0  0  0
 40 53  2  0  0  0
 40 58  1  0  0  0
 41110  1  0  0  0
 41111  1  0  0  0
 41112  1  0  0  0
 41 48  1  0  0  0
 42 43  1  0  0  0
 42 66  1  0  0  0
 42113  1  0  0  0
 42114  1  0  0  0
 43 44  1  0  0  0
 44115  1  0  0  0
 45 46  2  0  0  0
 45116  1  0  0  0
 46117  1  0  0  0
 47118  1  0  0  0
 47119  1  0  0  0
 48 56  1  0  0  0
 48 65  1  0  0  0
 48120  1  0  0  0
 49 50  1  0  0  0
 49 53  1  0  0  0
 49 64  1  0  0  0
 49121  1  0  0  0
 50 51  1  0  0  0
 50122  1  0  0  0
 50123  1  0  0  0
 51 52  1  0  0  0
 51124  1  0  0  0
 51125  1  0  0  0
 52126  1  0  0  0
 52127  1  0  0  0
 53 54  1  0  0  0
 54 55  2  0  0  0
 54128  1  0  0  0
 55 57  1  0  0  0
 55129  1  0  0  0
 56 69  2  0  0  0
 57 58  2  0  0  0
 57130  1  0  0  0
 58131  1  0  0  0
 59 60  1  0  0  0
 59 61  1  0  0  0
 59 62  1  0  0  0
 60132  1  0  0  0
 60133  1  0  0  0
 60134  1  0  0  0
 61135  1  0  0  0
 61136  1  0  0  0
 61137  1  0  0  0
 62138  1  0  0  0
 62139  1  0  0  0
 62140  1  0  0  0
 63 65  1  0  0  0
 63141  1  0  0  0
 63142  1  0  0  0
 63143  1  0  0  0
 64144  1  0  0  0
 65145  1  0  0  0
 68 82  1  0  0  0
 71 73  1  0  0  0
 71 74  2  0  0  0
 71146  1  0  0  0
 72 73  2  0  0  0
 72 86  1  0  0  0
 72147  1  0  0  0
 73 75  1  0  0  0
 74 86  1  0  0  0
 74 81  1  0  0  0
 75 76  1  0  0  0
 75 84  2  0  0  0
 76 82  1  0  0  0
 76 85  2  0  0  0
 77 78  1  0  0  0
 77 79  1  0  0  0
 77148  1  0  0  0
 77149  1  0  0  0
 78 80  1  0  0  0
 78150  1  0  0  0
 78151  1  0  0  0
 79 81  1  0  0  0
 79152  1  0  0  0
 79153  1  0  0  0
 80 83  1  0  0  0
 80154  1  0  0  0
 80155  1  0  0  0
 81 83  1  0  0  0
 81156  1  0  0  0
 82157  1  0  0  0
 82158  1  0  0  0
M  ISO  4   1 100  68 101  82 101  83 100
M  END
> <chiral flag>
0

> <version>
0

> <s_m_source_file>
/data/baiqing/PycharmProjects/Reinvent-master-3.2/result/LINK_invent/BTK/process_docking_weight1_custom_product_contain_oxygen_bond_distance_aromatic_linkinvent_7_9_3/rearranged_h_0160.sdf

> <i_m_source_file_index>
61

> <r_mmod_Potential_Energy-OPLS-2005>
629.119201660156

> <r_mmod_Stretch_Energy-OPLS-2005>
204.450561523438

> <r_mmod_Bend_Energy-OPLS-2005>
292.609558105469

> <r_mmod_Torsional_Energy-OPLS-2005>
304.103576660156

> <r_mmod_Improper_Torsional_Energy-OPLS-2005>
8.80684280395508

> <r_mmod_Van_der_Waal_Energy-OPLS-2005>
138.633453369141

> <r_mmod_Electrostatic_Energy-OPLS-2005>
-191.347442626953

> <r_mmod_Solvation_Energy-OPLS-2005>
-219.576126098633

> <b_mmod_Minimization_Converged-OPLS-2005>
0

> <r_mmod_RMS_Derivative-OPLS-2005>
9.41282844543457

$$$$
62
                    3D
 Structure written by MMmdl.
157166  0  0  1  0            999 V2000
  -30.6976  -14.5146   20.5313 C   0  0  0  0  0  0
  -30.4138  -12.3218   19.4372 C   0  0  0  0  0  0
  -29.4870  -12.4933   18.2154 C   0  0  0  0  0  0
  -28.0124  -12.3354   18.6352 C   0  0  0  0  0  0
  -27.6537  -13.2002   19.8713 C   0  0  2  0  0  0
  -28.6962  -13.0434   21.0021 C   0  0  0  0  0  0
  -25.2580  -13.8114   20.5676 C   0  0  0  0  0  0
  -24.1844  -13.0415   20.9173 C   0  0  0  0  0  0
  -24.6336  -11.6866   20.8695 C   0  0  0  0  0  0
  -23.8961  -10.4270   21.0362 C   0  0  0  0  0  0
  -24.3503   -9.4230   21.9175 C   0  0  0  0  0  0
  -23.6220   -8.2258   22.0755 C   0  0  0  0  0  0
  -22.4223   -8.0269   21.3525 C   0  0  0  0  0  0
  -21.9814   -9.0205   20.4628 C   0  0  0  0  0  0
  -22.7130  -10.2109   20.3027 C   0  0  0  0  0  0
  -21.6830   -6.0713   22.5276 C   0  0  0  0  0  0
  -21.4019   -6.5608   23.8213 C   0  0  0  0  0  0
  -21.3657   -5.6764   24.9185 C   0  0  0  0  0  0
  -21.6045   -4.3026   24.7221 C   0  0  0  0  0  0
  -21.8822   -3.8118   23.4325 C   0  0  0  0  0  0
  -21.9174   -4.6925   22.3381 C   0  0  0  0  0  0
  -22.7870  -13.5279   21.1767 C   0  0  0  0  0  0
  -22.1634   -4.2131   21.0938 F   0  0  0  0  0  0
  -21.5618   -3.4505   25.7723 F   0  0  0  0  0  0
  -30.0205  -13.3350   20.4350 N   0  0  0  0  0  0
  -26.2993  -12.9274   20.3363 N   0  0  0  0  0  0
  -25.9268  -11.6432   20.5752 N   0  0  0  0  0  0
  -22.0450  -12.8297   22.0278 N   0  0  0  0  0  0
  -25.4238  -15.1820   20.4024 N   0  0  0  0  0  0
  -31.8592  -14.6117   20.1355 O   0  0  0  0  0  0
  -21.6596   -6.8852   21.4255 O   0  0  0  0  0  0
  -22.3648  -14.5615   20.6605 O   0  0  0  0  0  0
  -24.6184  -31.8697   23.2123 C   0  0  0  0  0  0
  -25.9086  -32.4832   23.8404 C   0  0  1  0  0  0
  -27.2147  -27.4192   20.0862 C   0  0  0  0  0  0
  -25.5942  -33.8611   24.2357 N   0  0  0  0  0  0
  -23.4022  -30.4972   21.5559 C   0  0  2  0  0  0
  -24.8453  -28.9700   20.1096 C   0  0  0  0  0  0
  -22.7430  -29.4661   22.5012 C   0  0  0  0  0  0
  -18.0284  -28.1358   22.8502 C   0  0  0  0  0  0
  -24.1474  -36.7283   23.2630 C   0  0  0  0  0  0
  -25.9332  -30.8309   21.3649 C   0  0  0  0  0  0
  -26.0103  -29.4637   20.7116 C   0  0  0  0  0  0
  -27.2017  -28.6945   20.7053 C   0  0  0  0  0  0
  -26.0407  -26.9739   19.4373 C   0  0  0  0  0  0
  -24.8552  -27.7234   19.4697 C   0  0  0  0  0  0
  -23.6099  -29.8431   20.1660 C   0  0  0  0  0  0
  -25.4092  -36.3105   24.0360 C   0  0  1  0  0  0
  -20.5876  -28.3625   23.1342 C   0  0  2  0  0  0
  -20.6757  -26.9372   22.5408 C   0  0  0  0  0  0
  -19.5745  -26.6392   21.5194 C   0  0  0  0  0  0
  -18.1928  -26.7911   22.1615 C   0  0  0  0  0  0
  -19.1532  -28.8807   23.2920 C   0  0  0  0  0  0
  -18.9461  -30.1419   23.8913 C   0  0  0  0  0  0
  -17.6459  -30.6562   24.0558 C   0  0  0  0  0  0
  -25.9036  -34.9477   23.5150 C   0  0  0  0  0  0
  -16.5346  -29.9064   23.6329 C   0  0  0  0  0  0
  -16.7272  -28.6486   23.0350 C   0  0  0  0  0  0
  -26.4511  -31.6568   25.0694 C   0  0  0  0  0  0
  -25.3775  -31.3621   26.1428 C   0  0  0  0  0  0
  -27.0354  -30.3036   24.5998 C   0  0  0  0  0  0
  -27.6081  -32.4246   25.7503 C   0  0  0  0  0  0
  -27.5569  -37.1840   24.8476 C   0  0  0  0  0  0
  -21.4154  -29.3020   22.3767 N   0  0  0  0  0  0
  -26.4272  -37.3800   23.9424 N   0  0  0  0  0  0
  -24.6691  -31.0790   22.1037 N   0  0  0  0  0  0
  -23.4214  -28.8195   23.3031 O   0  0  0  0  0  0
  -28.3162  -26.5825   20.1367 O   0  0  0  0  0  0
  -26.5574  -34.8948   22.4691 O   0  0  0  0  0  0
  -23.5386  -32.1440   23.7535 O   0  0  0  0  0  0
  -31.3629  -19.2083   20.4478 C   0  0  0  0  0  0
  -30.1069  -19.2665   20.9966 C   0  0  0  0  0  0
  -30.3628  -16.9755   20.7949 C   0  0  0  0  0  0
  -28.9119  -24.1162   20.3929 C   0  0  0  0  0  0
  -27.4566  -21.5975   22.6450 C   0  0  0  0  0  0
  -28.0848  -20.2901   22.1602 C   0  0  0  0  0  0
  -27.2619  -22.5823   21.4866 C   0  0  0  0  0  0
  -29.2014  -21.6106   20.3002 C   0  0  0  0  0  0
  -29.4138  -20.5554   21.4325 C   0  0  2  0  0  0
  -27.9969  -25.3117   20.7683 C   0  0  0  0  0  0
  -29.5352  -17.9765   21.1552 N   0  0  0  0  0  0
  -28.5246  -22.8553   20.7679 N   0  0  0  0  0  0
  -29.9802  -15.5966   20.9221 N   0  0  0  0  0  0
  -29.9411  -24.3294   19.7425 O   0  0  0  0  0  0
  -31.9022  -17.5781   20.1667 S   0  0  0  0  0  0
  -31.4581  -12.4120   19.1322 H   0  0  0  0  0  0
  -30.3179  -11.3174   19.8557 H   0  0  0  0  0  0
  -29.7351  -11.7635   17.4442 H   0  0  0  0  0  0
  -29.6478  -13.4759   17.7705 H   0  0  0  0  0  0
  -27.8368  -11.2789   18.8531 H   0  0  0  0  0  0
  -27.3524  -12.5900   17.8039 H   0  0  0  0  0  0
  -27.6797  -14.2332   19.5321 H   0  0  0  0  0  0
  -28.6810  -12.0298   21.4080 H   0  0  0  0  0  0
  -28.4530  -13.6995   21.8402 H   0  0  0  0  0  0
  -25.2603   -9.5794   22.4803 H   0  0  0  0  0  0
  -23.9951   -7.4668   22.7476 H   0  0  0  0  0  0
  -21.0751   -8.8663   19.8923 H   0  0  0  0  0  0
  -22.3511  -10.9606   19.6141 H   0  0  0  0  0  0
  -21.2052   -7.6125   23.9723 H   0  0  0  0  0  0
  -21.1480   -6.0486   25.9081 H   0  0  0  0  0  0
  -22.0616   -2.7573   23.2814 H   0  0  0  0  0  0
  -22.3990  -11.9866   22.4529 H   0  0  0  0  0  0
  -21.1127  -13.1480   22.2540 H   0  0  0  0  0  0
  -24.6260  -15.8067   20.4264 H   0  0  0  0  0  0
  -26.2724  -15.6357   20.0857 H   0  0  0  0  0  0
  -26.7145  -32.5559   23.1155 H   0  0  0  0  0  0
  -25.0191  -33.9744   25.0574 H   0  0  0  0  0  0
  -22.6895  -31.3139   21.4285 H   0  0  0  0  0  0
  -23.3759  -35.9594   23.3289 H   0  0  0  0  0  0
  -24.3591  -36.8878   22.2047 H   0  0  0  0  0  0
  -23.7204  -37.6488   23.6619 H   0  0  0  0  0  0
  -26.0382  -31.5937   20.5907 H   0  0  0  0  0  0
  -26.8229  -30.8886   21.9790 H   0  0  0  0  0  0
  -28.0864  -29.0627   21.2052 H   0  0  0  0  0  0
  -26.0230  -26.0294   18.9139 H   0  0  0  0  0  0
  -23.9651  -27.3407   18.9875 H   0  0  0  0  0  0
  -23.7240  -30.6258   19.4133 H   0  0  0  0  0  0
  -22.7286  -29.2733   19.8685 H   0  0  0  0  0  0
  -25.1273  -36.1970   25.0860 H   0  0  0  0  0  0
  -20.9972  -28.3134   24.1461 H   0  0  0  0  0  0
  -20.5648  -26.2216   23.3563 H   0  0  0  0  0  0
  -21.6632  -26.7411   22.1209 H   0  0  0  0  0  0
  -19.6889  -25.6325   21.1174 H   0  0  0  0  0  0
  -19.6680  -27.3238   20.6755 H   0  0  0  0  0  0
  -17.4203  -26.6698   21.3999 H   0  0  0  0  0  0
  -18.0314  -26.0025   22.8986 H   0  0  0  0  0  0
  -19.7934  -30.7239   24.2280 H   0  0  0  0  0  0
  -17.5017  -31.6253   24.5142 H   0  0  0  0  0  0
  -15.5348  -30.2964   23.7634 H   0  0  0  0  0  0
  -15.8685  -28.0811   22.7035 H   0  0  0  0  0  0
  -24.6003  -30.6906   25.7761 H   0  0  0  0  0  0
  -24.8889  -32.2744   26.4858 H   0  0  0  0  0  0
  -25.8140  -30.8824   27.0196 H   0  0  0  0  0  0
  -26.2913  -29.6819   24.0997 H   0  0  0  0  0  0
  -27.4155  -29.7222   25.4409 H   0  0  0  0  0  0
  -27.8729  -30.4424   23.9145 H   0  0  0  0  0  0
  -27.2746  -33.3603   26.2011 H   0  0  0  0  0  0
  -28.3977  -32.6676   25.0372 H   0  0  0  0  0  0
  -28.0634  -31.8360   26.5486 H   0  0  0  0  0  0
  -28.2580  -38.0137   24.7517 H   0  0  0  0  0  0
  -28.1071  -36.2675   24.6302 H   0  0  0  0  0  0
  -27.2300  -37.1496   25.8880 H   0  0  0  0  0  0
  -20.9276  -29.8807   21.7067 H   0  0  0  0  0  0
  -26.0157  -38.2888   24.1379 H   0  0  0  0  0  0
  -32.0192  -20.0349   20.2166 H   0  0  0  0  0  0
  -28.0827  -22.0553   23.4108 H   0  0  0  0  0  0
  -26.4980  -21.3874   23.1225 H   0  0  0  0  0  0
  -27.3888  -19.7817   21.4915 H   0  0  0  0  0  0
  -28.2396  -19.6285   23.0114 H   0  0  0  0  0  0
  -26.8110  -23.4606   21.9416 H   0  0  0  0  0  0
  -26.5341  -22.2002   20.7695 H   0  0  0  0  0  0
  -28.5945  -21.1694   19.5076 H   0  0  0  0  0  0
  -30.1623  -21.8420   19.8396 H   0  0  0  0  0  0
  -30.0764  -21.0297   22.1581 H   0  0  0  0  0  0
  -28.0043  -25.4462   21.8514 H   0  0  0  0  0  0
  -26.9971  -24.9786   20.4941 H   0  0  0  0  0  0
  -29.0429  -15.4213   21.2471 H   0  0  0  0  0  0
  1 25  1  0  0  0
  1 30  2  0  0  0
  1 83  1  0  0  0
  2  3  1  0  0  0
  2 25  1  0  0  0
  2 86  1  0  0  0
  2 87  1  0  0  0
  3  4  1  0  0  0
  3 88  1  0  0  0
  3 89  1  0  0  0
  4  5  1  0  0  0
  4 90  1  0  0  0
  4 91  1  0  0  0
  5  6  1  0  0  0
  5 26  1  0  0  0
  5 92  1  0  0  0
  6 25  1  0  0  0
  6 93  1  0  0  0
  6 94  1  0  0  0
  7  8  2  0  0  0
  7 26  1  0  0  0
  7 29  1  0  0  0
  8  9  1  0  0  0
  8 22  1  0  0  0
  9 10  1  0  0  0
  9 27  2  0  0  0
 10 11  2  0  0  0
 10 15  1  0  0  0
 11 12  1  0  0  0
 11 95  1  0  0  0
 12 13  2  0  0  0
 12 96  1  0  0  0
 13 14  1  0  0  0
 13 31  1  0  0  0
 14 15  2  0  0  0
 14 97  1  0  0  0
 15 98  1  0  0  0
 16 17  2  0  0  0
 16 21  1  0  0  0
 16 31  1  0  0  0
 17 18  1  0  0  0
 17 99  1  0  0  0
 18 19  2  0  0  0
 18100  1  0  0  0
 19 20  1  0  0  0
 19 24  1  0  0  0
 20 21  2  0  0  0
 20101  1  0  0  0
 21 23  1  0  0  0
 22 28  1  0  0  0
 22 32  2  0  0  0
 26 27  1  0  0  0
 28102  1  0  0  0
 28103  1  0  0  0
 29104  1  0  0  0
 29105  1  0  0  0
 33 34  1  0  0  0
 33 66  1  0  0  0
 33 70  2  0  0  0
 34 36  1  0  0  0
 34 59  1  0  0  0
 34106  1  0  0  0
 35 44  2  0  0  0
 35 45  1  0  0  0
 35 68  1  0  0  0
 36 56  1  0  0  0
 36107  1  0  0  0
 37 39  1  0  0  0
 37 47  1  0  0  0
 37 66  1  0  0  0
 37108  1  0  0  0
 38 43  2  0  0  0
 38 46  1  0  0  0
 38 47  1  0  0  0
 39 64  1  0  0  0
 39 67  2  0  0  0
 40 52  1  0  0  0
 40 53  2  0  0  0
 40 58  1  0  0  0
 41109  1  0  0  0
 41110  1  0  0  0
 41111  1  0  0  0
 41 48  1  0  0  0
 42 43  1  0  0  0
 42 66  1  0  0  0
 42112  1  0  0  0
 42113  1  0  0  0
 43 44  1  0  0  0
 44114  1  0  0  0
 45 46  2  0  0  0
 45115  1  0  0  0
 46116  1  0  0  0
 47117  1  0  0  0
 47118  1  0  0  0
 48 56  1  0  0  0
 48 65  1  0  0  0
 48119  1  0  0  0
 49 50  1  0  0  0
 49 53  1  0  0  0
 49 64  1  0  0  0
 49120  1  0  0  0
 50 51  1  0  0  0
 50121  1  0  0  0
 50122  1  0  0  0
 51 52  1  0  0  0
 51123  1  0  0  0
 51124  1  0  0  0
 52125  1  0  0  0
 52126  1  0  0  0
 53 54  1  0  0  0
 54 55  2  0  0  0
 54127  1  0  0  0
 55 57  1  0  0  0
 55128  1  0  0  0
 56 69  2  0  0  0
 57 58  2  0  0  0
 57129  1  0  0  0
 58130  1  0  0  0
 59 60  1  0  0  0
 59 61  1  0  0  0
 59 62  1  0  0  0
 60131  1  0  0  0
 60132  1  0  0  0
 60133  1  0  0  0
 61134  1  0  0  0
 61135  1  0  0  0
 61136  1  0  0  0
 62137  1  0  0  0
 62138  1  0  0  0
 62139  1  0  0  0
 63 65  1  0  0  0
 63140  1  0  0  0
 63141  1  0  0  0
 63142  1  0  0  0
 64143  1  0  0  0
 65144  1  0  0  0
 68 80  1  0  0  0
 71 72  2  0  0  0
 71 85  1  0  0  0
 71145  1  0  0  0
 72 81  1  0  0  0
 72 79  1  0  0  0
 73 81  2  0  0  0
 73 83  1  0  0  0
 73 85  1  0  0  0
 74 80  1  0  0  0
 74 82  1  0  0  0
 74 84  2  0  0  0
 75 76  1  0  0  0
 75 77  1  0  0  0
 75146  1  0  0  0
 75147  1  0  0  0
 76 79  1  0  0  0
 76148  1  0  0  0
 76149  1  0  0  0
 77 82  1  0  0  0
 77150  1  0  0  0
 77151  1  0  0  0
 78 79  1  0  0  0
 78 82  1  0  0  0
 78152  1  0  0  0
 78153  1  0  0  0
 79154  1  0  0  0
 80155  1  0  0  0
 80156  1  0  0  0
 83157  1  0  0  0
M  ISO  4   1 100  68 101  80 101  83 100
M  END
> <chiral flag>
0

> <version>
0

> <s_m_source_file>
/data/baiqing/PycharmProjects/Reinvent-master-3.2/result/LINK_invent/BTK/process_docking_weight1_custom_product_contain_oxygen_bond_distance_aromatic_linkinvent_7_9_3/rearranged_h_0160.sdf

> <i_m_source_file_index>
62

> <r_mmod_Potential_Energy-OPLS-2005>
-13.272180557251

> <r_mmod_Stretch_Energy-OPLS-2005>
47.5528030395508

> <r_mmod_Bend_Energy-OPLS-2005>
106.410377502441

> <r_mmod_Torsional_Energy-OPLS-2005>
286.309173583984

> <r_mmod_Improper_Torsional_Energy-OPLS-2005>
4.48778343200684

> <r_mmod_Van_der_Waal_Energy-OPLS-2005>
158.059494018555

> <r_mmod_Electrostatic_Energy-OPLS-2005>
-400.908081054688

> <r_mmod_Solvation_Energy-OPLS-2005>
-238.671585083008

> <b_mmod_Minimization_Converged-OPLS-2005>
0

> <r_mmod_RMS_Derivative-OPLS-2005>
4.71462392807007

$$$$
63
                    3D
 Structure written by MMmdl.
153161  0  0  1  0            999 V2000
  -30.6875  -14.4456   20.6167 C   0  0  0  0  0  0
  -30.4307  -12.3037   19.4112 C   0  0  0  0  0  0
  -29.4915  -12.4911   18.2013 C   0  0  0  0  0  0
  -28.0182  -12.3475   18.6226 C   0  0  0  0  0  0
  -27.6647  -13.1928   19.8720 C   0  0  2  0  0  0
  -28.7000  -12.9438   20.9897 C   0  0  0  0  0  0
  -25.2672  -13.8135   20.5748 C   0  0  0  0  0  0
  -24.1870  -13.0441   20.9152 C   0  0  0  0  0  0
  -24.6368  -11.6882   20.8688 C   0  0  0  0  0  0
  -23.9027  -10.4291   21.0374 C   0  0  0  0  0  0
  -24.3567   -9.4203   21.9148 C   0  0  0  0  0  0
  -23.6250   -8.2237   22.0734 C   0  0  0  0  0  0
  -22.4217   -8.0293   21.3555 C   0  0  0  0  0  0
  -21.9844   -9.0261   20.4656 C   0  0  0  0  0  0
  -22.7189  -10.2127   20.3046 C   0  0  0  0  0  0
  -21.6868   -6.0715   22.5274 C   0  0  0  0  0  0
  -21.4029   -6.5600   23.8206 C   0  0  0  0  0  0
  -21.3662   -5.6746   24.9164 C   0  0  0  0  0  0
  -21.6036   -4.3000   24.7212 C   0  0  0  0  0  0
  -21.8828   -3.8127   23.4329 C   0  0  0  0  0  0
  -21.9190   -4.6937   22.3389 C   0  0  0  0  0  0
  -22.7910  -13.5290   21.1815 C   0  0  0  0  0  0
  -22.1674   -4.2129   21.0964 F   0  0  0  0  0  0
  -21.5606   -3.4496   25.7732 F   0  0  0  0  0  0
  -30.0426  -13.2607   20.4542 N   0  0  0  0  0  0
  -26.3027  -12.9255   20.3318 N   0  0  0  0  0  0
  -25.9268  -11.6420   20.5649 N   0  0  0  0  0  0
  -22.0516  -12.8357   22.0401 N   0  0  0  0  0  0
  -25.4551  -15.1845   20.4413 N   0  0  0  0  0  0
  -31.7506  -14.7316   20.0576 O   0  0  0  0  0  0
  -21.6616   -6.8865   21.4242 O   0  0  0  0  0  0
  -22.3638  -14.5604   20.6661 O   0  0  0  0  0  0
  -24.6101  -31.8702   23.2174 C   0  0  0  0  0  0
  -25.8996  -32.4850   23.8460 C   0  0  1  0  0  0
  -27.2202  -27.4480   20.1153 C   0  0  0  0  0  0
  -25.5849  -33.8639   24.2369 N   0  0  0  0  0  0
  -23.3984  -30.4968   21.5529 C   0  0  2  0  0  0
  -24.8443  -28.9659   20.1135 C   0  0  0  0  0  0
  -22.7374  -29.4687   22.4982 C   0  0  0  0  0  0
  -18.0282  -28.1359   22.8493 C   0  0  0  0  0  0
  -24.1454  -36.7325   23.2624 C   0  0  0  0  0  0
  -25.9270  -30.8387   21.3734 C   0  0  0  0  0  0
  -26.0033  -29.4795   20.7103 C   0  0  0  0  0  0
  -27.1974  -28.7275   20.7076 C   0  0  0  0  0  0
  -26.0513  -26.9452   19.5085 C   0  0  0  0  0  0
  -24.8609  -27.6947   19.5111 C   0  0  0  0  0  0
  -23.6067  -29.8327   20.1642 C   0  0  0  0  0  0
  -25.4043  -36.3113   24.0356 C   0  0  1  0  0  0
  -20.5863  -28.3657   23.1298 C   0  0  2  0  0  0
  -20.6755  -26.9386   22.5410 C   0  0  0  0  0  0
  -19.5721  -26.6360   21.5199 C   0  0  0  0  0  0
  -18.1909  -26.7894   22.1634 C   0  0  0  0  0  0
  -19.1528  -28.8818   23.2888 C   0  0  0  0  0  0
  -18.9476  -30.1422   23.8901 C   0  0  0  0  0  0
  -17.6482  -30.6575   24.0558 C   0  0  0  0  0  0
  -25.9004  -34.9495   23.5172 C   0  0  0  0  0  0
  -16.5371  -29.9075   23.6327 C   0  0  0  0  0  0
  -16.7275  -28.6490   23.0348 C   0  0  0  0  0  0
  -26.4441  -31.6646   25.0800 C   0  0  0  0  0  0
  -25.3810  -31.3874   26.1682 C   0  0  0  0  0  0
  -27.0193  -30.3039   24.6249 C   0  0  0  0  0  0
  -27.6083  -32.4365   25.7430 C   0  0  0  0  0  0
  -27.5624  -37.1685   24.8373 C   0  0  0  0  0  0
  -21.4106  -29.3031   22.3706 N   0  0  0  0  0  0
  -26.4194  -37.3854   23.9537 N   0  0  0  0  0  0
  -24.6627  -31.0828   22.1064 N   0  0  0  0  0  0
  -23.4155  -28.8219   23.3017 O   0  0  0  0  0  0
  -28.3545  -26.6767   20.1611 O   0  0  0  0  0  0
  -26.5586  -34.8937   22.4745 O   0  0  0  0  0  0
  -23.5286  -32.1460   23.7550 O   0  0  0  0  0  0
  -29.1314  -17.2816   22.4372 C   0  0  0  0  0  0
  -30.6403  -17.5858   20.5708 C   0  0  0  0  0  0
  -29.9765  -16.7072   21.4651 C   0  0  0  0  0  0
  -29.0219  -18.6788   22.5201 C   0  0  0  0  0  0
  -29.7480  -19.4669   21.6120 C   0  0  0  0  0  0
  -28.7613  -22.9746   21.0686 C   0  0  0  0  0  0
  -28.9782  -24.3165   20.3562 C   0  0  0  0  0  0
  -29.6690  -21.7933   20.6886 C   0  0  0  0  0  0
  -28.2067  -25.4999   20.9744 C   0  0  0  0  0  0
  -30.5262  -18.9405   20.6408 N   0  0  0  0  0  0
  -30.0643  -15.2830   21.4598 N   0  0  0  0  0  0
  -29.7037  -20.8497   21.7991 N   0  0  0  0  0  0
  -27.8962  -22.8358   21.9441 O   0  0  0  0  0  0
  -28.2511  -19.2585   23.4728 F   0  0  0  0  0  0
  -31.4722  -12.4211   19.1069 H   0  0  0  0  0  0
  -30.3447  -11.2892   19.8001 H   0  0  0  0  0  0
  -29.7180  -11.7480   17.4357 H   0  0  0  0  0  0
  -29.6580  -13.4668   17.7425 H   0  0  0  0  0  0
  -27.8445  -11.2925   18.8413 H   0  0  0  0  0  0
  -27.3575  -12.5981   17.7914 H   0  0  0  0  0  0
  -27.7167  -14.2388   19.5677 H   0  0  0  0  0  0
  -28.6758  -11.8998   21.3023 H   0  0  0  0  0  0
  -28.4239  -13.5058   21.8842 H   0  0  0  0  0  0
  -25.2697   -9.5684   22.4731 H   0  0  0  0  0  0
  -23.9959   -7.4638   22.7454 H   0  0  0  0  0  0
  -21.0755   -8.8793   19.9000 H   0  0  0  0  0  0
  -22.3631  -10.9655   19.6168 H   0  0  0  0  0  0
  -21.2038   -7.6107   23.9719 H   0  0  0  0  0  0
  -21.1463   -6.0454   25.9058 H   0  0  0  0  0  0
  -22.0592   -2.7578   23.2831 H   0  0  0  0  0  0
  -22.4042  -12.0019   22.4868 H   0  0  0  0  0  0
  -21.1175  -13.1552   22.2598 H   0  0  0  0  0  0
  -24.7285  -15.8610   20.6456 H   0  0  0  0  0  0
  -26.3395  -15.6164   20.2132 H   0  0  0  0  0  0
  -26.7076  -32.5532   23.1212 H   0  0  0  0  0  0
  -24.9930  -33.9829   25.0464 H   0  0  0  0  0  0
  -22.6865  -31.3145   21.4176 H   0  0  0  0  0  0
  -23.3843  -35.9515   23.2992 H   0  0  0  0  0  0
  -24.3672  -36.9264   22.2117 H   0  0  0  0  0  0
  -23.7014  -37.6343   23.6849 H   0  0  0  0  0  0
  -26.0598  -31.6139   20.6178 H   0  0  0  0  0  0
  -26.8061  -30.8725   22.0055 H   0  0  0  0  0  0
  -28.0878  -29.1122   21.1835 H   0  0  0  0  0  0
  -26.0569  -25.9630   19.0596 H   0  0  0  0  0  0
  -23.9647  -27.2859   19.0631 H   0  0  0  0  0  0
  -23.7168  -30.6138   19.4102 H   0  0  0  0  0  0
  -22.7302  -29.2565   19.8626 H   0  0  0  0  0  0
  -25.1161  -36.1941   25.0840 H   0  0  0  0  0  0
  -20.9965  -28.3236   24.1401 H   0  0  0  0  0  0
  -20.5648  -26.2263   23.3600 H   0  0  0  0  0  0
  -21.6635  -26.7406   22.1219 H   0  0  0  0  0  0
  -19.6884  -25.6259   21.1230 H   0  0  0  0  0  0
  -19.6642  -27.3173   20.6717 H   0  0  0  0  0  0
  -17.4161  -26.6638   21.4048 H   0  0  0  0  0  0
  -18.0334  -26.0037   22.9041 H   0  0  0  0  0  0
  -19.7952  -30.7224   24.2261 H   0  0  0  0  0  0
  -17.5052  -31.6259   24.5141 H   0  0  0  0  0  0
  -15.5370  -30.2991   23.7619 H   0  0  0  0  0  0
  -15.8672  -28.0798   22.7061 H   0  0  0  0  0  0
  -24.5506  -30.7837   25.8029 H   0  0  0  0  0  0
  -24.9656  -32.3132   26.5669 H   0  0  0  0  0  0
  -25.8116  -30.8461   27.0115 H   0  0  0  0  0  0
  -26.2686  -29.6819   24.1371 H   0  0  0  0  0  0
  -27.3932  -29.7304   25.4738 H   0  0  0  0  0  0
  -27.8578  -30.4269   23.9400 H   0  0  0  0  0  0
  -27.2739  -33.3613   26.2131 H   0  0  0  0  0  0
  -28.3722  -32.7042   25.0128 H   0  0  0  0  0  0
  -28.0951  -31.8480   26.5206 H   0  0  0  0  0  0
  -28.2316  -38.0284   24.7971 H   0  0  0  0  0  0
  -28.1428  -36.2927   24.5450 H   0  0  0  0  0  0
  -27.2515  -37.0429   25.8758 H   0  0  0  0  0  0
  -20.9239  -29.8774   21.6959 H   0  0  0  0  0  0
  -26.0076  -38.2840   24.1901 H   0  0  0  0  0  0
  -28.5772  -16.6589   23.1243 H   0  0  0  0  0  0
  -31.2829  -17.2158   19.7853 H   0  0  0  0  0  0
  -28.6926  -24.1993   19.3115 H   0  0  0  0  0  0
  -30.0447  -24.5340   20.3725 H   0  0  0  0  0  0
  -30.6777  -22.1616   20.4906 H   0  0  0  0  0  0
  -29.2970  -21.3272   19.7739 H   0  0  0  0  0  0
  -28.5965  -25.7225   21.9705 H   0  0  0  0  0  0
  -27.1591  -25.2252   21.1268 H   0  0  0  0  0  0
  -29.3698  -14.8141   22.0216 H   0  0  0  0  0  0
  -29.0109  -21.1100   22.4999 H   0  0  0  0  0  0
  1 25  1  0  0  0
  1 30  2  0  0  0
  1 81  1  0  0  0
  2  3  1  0  0  0
  2 25  1  0  0  0
  2 85  1  0  0  0
  2 86  1  0  0  0
  3  4  1  0  0  0
  3 87  1  0  0  0
  3 88  1  0  0  0
  4  5  1  0  0  0
  4 89  1  0  0  0
  4 90  1  0  0  0
  5  6  1  0  0  0
  5 26  1  0  0  0
  5 91  1  0  0  0
  6 25  1  0  0  0
  6 92  1  0  0  0
  6 93  1  0  0  0
  7  8  2  0  0  0
  7 26  1  0  0  0
  7 29  1  0  0  0
  8  9  1  0  0  0
  8 22  1  0  0  0
  9 10  1  0  0  0
  9 27  2  0  0  0
 10 11  2  0  0  0
 10 15  1  0  0  0
 11 12  1  0  0  0
 11 94  1  0  0  0
 12 13  2  0  0  0
 12 95  1  0  0  0
 13 14  1  0  0  0
 13 31  1  0  0  0
 14 15  2  0  0  0
 14 96  1  0  0  0
 15 97  1  0  0  0
 16 17  2  0  0  0
 16 21  1  0  0  0
 16 31  1  0  0  0
 17 18  1  0  0  0
 17 98  1  0  0  0
 18 19  2  0  0  0
 18 99  1  0  0  0
 19 20  1  0  0  0
 19 24  1  0  0  0
 20 21  2  0  0  0
 20100  1  0  0  0
 21 23  1  0  0  0
 22 28  1  0  0  0
 22 32  2  0  0  0
 26 27  1  0  0  0
 28101  1  0  0  0
 28102  1  0  0  0
 29103  1  0  0  0
 29104  1  0  0  0
 33 34  1  0  0  0
 33 66  1  0  0  0
 33 70  2  0  0  0
 34 36  1  0  0  0
 34 59  1  0  0  0
 34105  1  0  0  0
 35 44  2  0  0  0
 35 45  1  0  0  0
 35 68  1  0  0  0
 36 56  1  0  0  0
 36106  1  0  0  0
 37 39  1  0  0  0
 37 47  1  0  0  0
 37 66  1  0  0  0
 37107  1  0  0  0
 38 43  2  0  0  0
 38 46  1  0  0  0
 38 47  1  0  0  0
 39 64  1  0  0  0
 39 67  2  0  0  0
 40 52  1  0  0  0
 40 53  2  0  0  0
 40 58  1  0  0  0
 41108  1  0  0  0
 41109  1  0  0  0
 41110  1  0  0  0
 41 48  1  0  0  0
 42 43  1  0  0  0
 42 66  1  0  0  0
 42111  1  0  0  0
 42112  1  0  0  0
 43 44  1  0  0  0
 44113  1  0  0  0
 45 46  2  0  0  0
 45114  1  0  0  0
 46115  1  0  0  0
 47116  1  0  0  0
 47117  1  0  0  0
 48 56  1  0  0  0
 48 65  1  0  0  0
 48118  1  0  0  0
 49 50  1  0  0  0
 49 53  1  0  0  0
 49 64  1  0  0  0
 49119  1  0  0  0
 50 51  1  0  0  0
 50120  1  0  0  0
 50121  1  0  0  0
 51 52  1  0  0  0
 51122  1  0  0  0
 51123  1  0  0  0
 52124  1  0  0  0
 52125  1  0  0  0
 53 54  1  0  0  0
 54 55  2  0  0  0
 54126  1  0  0  0
 55 57  1  0  0  0
 55127  1  0  0  0
 56 69  2  0  0  0
 57 58  2  0  0  0
 57128  1  0  0  0
 58129  1  0  0  0
 59 60  1  0  0  0
 59 61  1  0  0  0
 59 62  1  0  0  0
 60130  1  0  0  0
 60131  1  0  0  0
 60132  1  0  0  0
 61133  1  0  0  0
 61134  1  0  0  0
 61135  1  0  0  0
 62136  1  0  0  0
 62137  1  0  0  0
 62138  1  0  0  0
 63 65  1  0  0  0
 63139  1  0  0  0
 63140  1  0  0  0
 63141  1  0  0  0
 64142  1  0  0  0
 65143  1  0  0  0
 68 79  1  0  0  0
 71 73  2  0  0  0
 71 74  1  0  0  0
 71144  1  0  0  0
 72 73  1  0  0  0
 72 80  2  0  0  0
 72145  1  0  0  0
 73 81  1  0  0  0
 74 75  2  0  0  0
 74 84  1  0  0  0
 75 80  1  0  0  0
 75 82  1  0  0  0
 76 77  1  0  0  0
 76 78  1  0  0  0
 76 83  2  0  0  0
 77 79  1  0  0  0
 77146  1  0  0  0
 77147  1  0  0  0
 78 82  1  0  0  0
 78148  1  0  0  0
 78149  1  0  0  0
 79150  1  0  0  0
 79151  1  0  0  0
 81152  1  0  0  0
 82153  1  0  0  0
M  ISO  4   1 100  68 101  79 101  81 100
M  END
> <chiral flag>
0

> <version>
0

> <s_m_source_file>
/data/baiqing/PycharmProjects/Reinvent-master-3.2/result/LINK_invent/BTK/process_docking_weight1_custom_product_contain_oxygen_bond_distance_aromatic_linkinvent_7_9_3/rearranged_h_0160.sdf

> <i_m_source_file_index>
63

> <r_mmod_Potential_Energy-OPLS-2005>
-291.507568359375

> <r_mmod_Stretch_Energy-OPLS-2005>
33.776985168457

> <r_mmod_Bend_Energy-OPLS-2005>
107.712417602539

> <r_mmod_Torsional_Energy-OPLS-2005>
232.84294128418

> <r_mmod_Improper_Torsional_Energy-OPLS-2005>
7.45182418823242

> <r_mmod_Van_der_Waal_Energy-OPLS-2005>
161.691177368164

> <r_mmod_Electrostatic_Energy-OPLS-2005>
-612.402038574219

> <r_mmod_Solvation_Energy-OPLS-2005>
-236.387313842773

> <b_mmod_Minimization_Converged-OPLS-2005>
0

> <r_mmod_RMS_Derivative-OPLS-2005>
5.25990915298462

$$$$
64
                    3D
 Structure written by MMmdl.
153161  0  0  1  0            999 V2000
  -30.5608  -14.9779   20.4204 C   0  0  0  0  0  0
  -30.4383  -12.5954   19.5226 C   0  0  0  0  0  0
  -29.5237  -12.5452   18.2763 C   0  0  0  0  0  0
  -28.0551  -12.3406   18.6887 C   0  0  0  0  0  0
  -27.6395  -13.2631   19.8643 C   0  0  2  0  0  0
  -28.6857  -13.2858   21.0002 C   0  0  0  0  0  0
  -25.2460  -13.8270   20.5767 C   0  0  0  0  0  0
  -24.1787  -13.0474   20.9240 C   0  0  0  0  0  0
  -24.6443  -11.6954   20.8821 C   0  0  0  0  0  0
  -23.9130  -10.4308   21.0420 C   0  0  0  0  0  0
  -24.3653   -9.4201   21.9194 C   0  0  0  0  0  0
  -23.6299   -8.2245   22.0748 C   0  0  0  0  0  0
  -22.4289   -8.0299   21.3532 C   0  0  0  0  0  0
  -21.9951   -9.0297   20.4647 C   0  0  0  0  0  0
  -22.7300  -10.2164   20.3060 C   0  0  0  0  0  0
  -21.6845   -6.0744   22.5272 C   0  0  0  0  0  0
  -21.4020   -6.5645   23.8212 C   0  0  0  0  0  0
  -21.3658   -5.6800   24.9173 C   0  0  0  0  0  0
  -21.6037   -4.3058   24.7224 C   0  0  0  0  0  0
  -21.8815   -3.8148   23.4342 C   0  0  0  0  0  0
  -21.9194   -4.6969   22.3403 C   0  0  0  0  0  0
  -22.7787  -13.5203   21.1917 C   0  0  0  0  0  0
  -22.1658   -4.2151   21.0980 F   0  0  0  0  0  0
  -21.5629   -3.4540   25.7741 F   0  0  0  0  0  0
  -29.9658  -13.7063   20.4097 N   0  0  0  0  0  0
  -26.2946  -12.9545   20.3410 N   0  0  0  0  0  0
  -25.9384  -11.6649   20.5871 N   0  0  0  0  0  0
  -22.0472  -12.8150   22.0459 N   0  0  0  0  0  0
  -25.4131  -15.2004   20.4169 N   0  0  0  0  0  0
  -31.7382  -15.0313   20.0527 O   0  0  0  0  0  0
  -21.6642   -6.8903   21.4229 O   0  0  0  0  0  0
  -22.3449  -14.5515   20.6777 O   0  0  0  0  0  0
  -24.6426  -31.8377   23.1860 C   0  0  0  0  0  0
  -25.9204  -32.4647   23.8251 C   0  0  1  0  0  0
  -27.2582  -27.1072   20.1877 C   0  0  0  0  0  0
  -25.5948  -33.8469   24.2143 N   0  0  0  0  0  0
  -23.4533  -30.4491   21.5257 C   0  0  2  0  0  0
  -24.9214  -28.8625   20.1158 C   0  0  0  0  0  0
  -22.7587  -29.4491   22.4798 C   0  0  0  0  0  0
  -18.0301  -28.1388   22.8423 C   0  0  0  0  0  0
  -24.1498  -36.7216   23.2663 C   0  0  0  0  0  0
  -26.0107  -30.7015   21.3992 C   0  0  0  0  0  0
  -26.0942  -29.3094   20.7411 C   0  0  0  0  0  0
  -27.2575  -28.4501   20.7594 C   0  0  0  0  0  0
  -26.0593  -26.7645   19.5210 C   0  0  0  0  0  0
  -24.9183  -27.6028   19.4912 C   0  0  0  0  0  0
  -23.6931  -29.7636   20.1515 C   0  0  0  0  0  0
  -25.4140  -36.3001   24.0297 C   0  0  1  0  0  0
  -20.5932  -28.3703   23.1202 C   0  0  2  0  0  0
  -20.6811  -26.9385   22.5414 C   0  0  0  0  0  0
  -19.5800  -26.6355   21.5206 C   0  0  0  0  0  0
  -18.1943  -26.7912   22.1591 C   0  0  0  0  0  0
  -19.1565  -28.8880   23.2780 C   0  0  0  0  0  0
  -18.9495  -30.1457   23.8806 C   0  0  0  0  0  0
  -17.6522  -30.6591   24.0541 C   0  0  0  0  0  0
  -25.9087  -34.9383   23.5032 C   0  0  0  0  0  0
  -16.5376  -29.9071   23.6384 C   0  0  0  0  0  0
  -16.7298  -28.6493   23.0352 C   0  0  0  0  0  0
  -26.4521  -31.6574   25.0742 C   0  0  0  0  0  0
  -25.3697  -31.3781   26.1443 C   0  0  0  0  0  0
  -27.0447  -30.2970   24.6437 C   0  0  0  0  0  0
  -27.6010  -32.4404   25.7529 C   0  0  0  0  0  0
  -27.5570  -37.1738   24.8465 C   0  0  0  0  0  0
  -21.4294  -29.3004   22.3546 N   0  0  0  0  0  0
  -26.4309  -37.3713   23.9398 N   0  0  0  0  0  0
  -24.7200  -31.0206   22.0902 N   0  0  0  0  0  0
  -23.4224  -28.8061   23.2969 O   0  0  0  0  0  0
  -28.3309  -26.1361   20.2945 O   0  0  0  0  0  0
  -26.5708  -34.8875   22.4620 O   0  0  0  0  0  0
  -23.5543  -32.1276   23.7067 O   0  0  0  0  0  0
  -30.8288  -18.7552   22.2520 C   0  0  0  0  0  0
  -30.5391  -20.9669   22.2690 C   0  0  0  0  0  0
  -31.1369  -19.9490   22.9531 C   0  0  0  0  0  0
  -30.1077  -19.0061   21.1121 C   0  0  0  0  0  0
  -29.1394  -21.6604   20.3253 C   0  0  0  0  0  0
  -31.9878  -20.0722   24.1995 C   0  0  0  0  0  0
  -29.8771  -17.7021   20.1527 C   0  0  0  0  0  0
  -29.1579  -23.3109   20.6897 C   0  0  0  0  0  0
  -28.1799  -24.5809   20.0845 C   0  0  0  0  0  0
  -29.8608  -20.5073   21.1368 N   0  0  0  0  0  0
  -29.8101  -16.1750   20.6462 N   0  0  0  0  0  0
  -28.5314  -21.2821   19.3170 O   0  0  0  0  0  0
  -31.4750  -12.7307   19.2110 H   0  0  0  0  0  0
  -30.4162  -11.6395   20.0491 H   0  0  0  0  0  0
  -29.8371  -11.7491   17.5983 H   0  0  0  0  0  0
  -29.6211  -13.4805   17.7245 H   0  0  0  0  0  0
  -27.9327  -11.2986   18.9834 H   0  0  0  0  0  0
  -27.3938  -12.4959   17.8351 H   0  0  0  0  0  0
  -27.6131  -14.2735   19.4559 H   0  0  0  0  0  0
  -28.7644  -12.3048   21.4742 H   0  0  0  0  0  0
  -28.3869  -13.9786   21.7868 H   0  0  0  0  0  0
  -25.2787   -9.5667   22.4784 H   0  0  0  0  0  0
  -23.9995   -7.4635   22.7466 H   0  0  0  0  0  0
  -21.0864   -8.8855   19.8939 H   0  0  0  0  0  0
  -22.3775  -10.9723   19.6179 H   0  0  0  0  0  0
  -21.2014   -7.6150   23.9718 H   0  0  0  0  0  0
  -21.1481   -6.0525   25.9074 H   0  0  0  0  0  0
  -22.0594   -2.7612   23.2855 H   0  0  0  0  0  0
  -22.4086  -11.9767   22.4763 H   0  0  0  0  0  0
  -21.1120  -13.1173   22.2791 H   0  0  0  0  0  0
  -24.6509  -15.8598   20.5382 H   0  0  0  0  0  0
  -26.2682  -15.6351   20.0945 H   0  0  0  0  0  0
  -26.7242  -32.5252   23.0972 H   0  0  0  0  0  0
  -25.0002  -33.9549   25.0239 H   0  0  0  0  0  0
  -22.7580  -31.2757   21.3609 H   0  0  0  0  0  0
  -23.3772  -35.9537   23.3361 H   0  0  0  0  0  0
  -24.3585  -36.8880   22.2081 H   0  0  0  0  0  0
  -23.7236  -37.6404   23.6718 H   0  0  0  0  0  0
  -26.1864  -31.4638   20.6403 H   0  0  0  0  0  0
  -26.8697  -30.7512   22.0550 H   0  0  0  0  0  0
  -28.1453  -28.7770   21.2856 H   0  0  0  0  0  0
  -25.9758  -25.7938   19.0507 H   0  0  0  0  0  0
  -24.0215  -27.2493   18.9980 H   0  0  0  0  0  0
  -23.8239  -30.5344   19.3915 H   0  0  0  0  0  0
  -22.8147  -29.1945   19.8463 H   0  0  0  0  0  0
  -25.1308  -36.1838   25.0774 H   0  0  0  0  0  0
  -20.9953  -28.3362   24.1364 H   0  0  0  0  0  0
  -20.5736  -26.2269   23.3633 H   0  0  0  0  0  0
  -21.6655  -26.7419   22.1156 H   0  0  0  0  0  0
  -19.6984  -25.6249   21.1270 H   0  0  0  0  0  0
  -19.6824  -27.3159   20.6732 H   0  0  0  0  0  0
  -17.4211  -26.6654   21.3978 H   0  0  0  0  0  0
  -18.0334  -26.0074   22.9012 H   0  0  0  0  0  0
  -19.8008  -30.7235   24.2158 H   0  0  0  0  0  0
  -17.5106  -31.6297   24.5100 H   0  0  0  0  0  0
  -15.5380  -30.2937   23.7798 H   0  0  0  0  0  0
  -15.8691  -28.0820   22.7094 H   0  0  0  0  0  0
  -24.5860  -30.7159   25.7753 H   0  0  0  0  0  0
  -24.8874  -32.2951   26.4843 H   0  0  0  0  0  0
  -25.7932  -30.8971   27.0250 H   0  0  0  0  0  0
  -26.3131  -29.6637   24.1400 H   0  0  0  0  0  0
  -27.3987  -29.7350   25.5090 H   0  0  0  0  0  0
  -27.9053  -30.4206   23.9856 H   0  0  0  0  0  0
  -27.2605  -33.3762   26.1988 H   0  0  0  0  0  0
  -28.3852  -32.6923   25.0364 H   0  0  0  0  0  0
  -28.0643  -31.8635   26.5555 H   0  0  0  0  0  0
  -28.2506  -38.0092   24.7487 H   0  0  0  0  0  0
  -28.1101  -36.2586   24.6291 H   0  0  0  0  0  0
  -27.2252  -37.1384   25.8857 H   0  0  0  0  0  0
  -20.9527  -29.8679   21.6675 H   0  0  0  0  0  0
  -26.0184  -38.2753   24.1480 H   0  0  0  0  0  0
  -31.1658  -17.7633   22.5293 H   0  0  0  0  0  0
  -30.5730  -22.0171   22.5180 H   0  0  0  0  0  0
  -32.2627  -19.0912   24.5921 H   0  0  0  0  0  0
  -31.4591  -20.6113   24.9873 H   0  0  0  0  0  0
  -32.9148  -20.6064   23.9810 H   0  0  0  0  0  0
  -30.6738  -17.7190   19.4055 H   0  0  0  0  0  0
  -28.9777  -17.8776   19.5636 H   0  0  0  0  0  0
  -29.0488  -23.3732   21.7720 H   0  0  0  0  0  0
  -30.1895  -23.6039   20.4948 H   0  0  0  0  0  0
  -27.1715  -24.3482   20.4274 H   0  0  0  0  0  0
  -28.1463  -24.4497   19.0040 H   0  0  0  0  0  0
  -28.8988  -15.9638   21.0260 H   0  0  0  0  0  0
  1 25  1  0  0  0
  1 30  2  0  0  0
  1 81  1  0  0  0
  2  3  1  0  0  0
  2 25  1  0  0  0
  2 83  1  0  0  0
  2 84  1  0  0  0
  3  4  1  0  0  0
  3 85  1  0  0  0
  3 86  1  0  0  0
  4  5  1  0  0  0
  4 87  1  0  0  0
  4 88  1  0  0  0
  5  6  1  0  0  0
  5 26  1  0  0  0
  5 89  1  0  0  0
  6 25  1  0  0  0
  6 90  1  0  0  0
  6 91  1  0  0  0
  7  8  2  0  0  0
  7 26  1  0  0  0
  7 29  1  0  0  0
  8  9  1  0  0  0
  8 22  1  0  0  0
  9 10  1  0  0  0
  9 27  2  0  0  0
 10 11  2  0  0  0
 10 15  1  0  0  0
 11 12  1  0  0  0
 11 92  1  0  0  0
 12 13  2  0  0  0
 12 93  1  0  0  0
 13 14  1  0  0  0
 13 31  1  0  0  0
 14 15  2  0  0  0
 14 94  1  0  0  0
 15 95  1  0  0  0
 16 17  2  0  0  0
 16 21  1  0  0  0
 16 31  1  0  0  0
 17 18  1  0  0  0
 17 96  1  0  0  0
 18 19  2  0  0  0
 18 97  1  0  0  0
 19 20  1  0  0  0
 19 24  1  0  0  0
 20 21  2  0  0  0
 20 98  1  0  0  0
 21 23  1  0  0  0
 22 28  1  0  0  0
 22 32  2  0  0  0
 26 27  1  0  0  0
 28 99  1  0  0  0
 28100  1  0  0  0
 29101  1  0  0  0
 29102  1  0  0  0
 33 34  1  0  0  0
 33 66  1  0  0  0
 33 70  2  0  0  0
 34 36  1  0  0  0
 34 59  1  0  0  0
 34103  1  0  0  0
 35 44  2  0  0  0
 35 45  1  0  0  0
 35 68  1  0  0  0
 36 56  1  0  0  0
 36104  1  0  0  0
 37 39  1  0  0  0
 37 47  1  0  0  0
 37 66  1  0  0  0
 37105  1  0  0  0
 38 43  2  0  0  0
 38 46  1  0  0  0
 38 47  1  0  0  0
 39 64  1  0  0  0
 39 67  2  0  0  0
 40 52  1  0  0  0
 40 53  2  0  0  0
 40 58  1  0  0  0
 41106  1  0  0  0
 41107  1  0  0  0
 41108  1  0  0  0
 41 48  1  0  0  0
 42 43  1  0  0  0
 42 66  1  0  0  0
 42109  1  0  0  0
 42110  1  0  0  0
 43 44  1  0  0  0
 44111  1  0  0  0
 45 46  2  0  0  0
 45112  1  0  0  0
 46113  1  0  0  0
 47114  1  0  0  0
 47115  1  0  0  0
 48 56  1  0  0  0
 48 65  1  0  0  0
 48116  1  0  0  0
 49 50  1  0  0  0
 49 53  1  0  0  0
 49 64  1  0  0  0
 49117  1  0  0  0
 50 51  1  0  0  0
 50118  1  0  0  0
 50119  1  0  0  0
 51 52  1  0  0  0
 51120  1  0  0  0
 51121  1  0  0  0
 52122  1  0  0  0
 52123  1  0  0  0
 53 54  1  0  0  0
 54 55  2  0  0  0
 54124  1  0  0  0
 55 57  1  0  0  0
 55125  1  0  0  0
 56 69  2  0  0  0
 57 58  2  0  0  0
 57126  1  0  0  0
 58127  1  0  0  0
 59 60  1  0  0  0
 59 61  1  0  0  0
 59 62  1  0  0  0
 60128  1  0  0  0
 60129  1  0  0  0
 60130  1  0  0  0
 61131  1  0  0  0
 61132  1  0  0  0
 61133  1  0  0  0
 62134  1  0  0  0
 62135  1  0  0  0
 62136  1  0  0  0
 63 65  1  0  0  0
 63137  1  0  0  0
 63138  1  0  0  0
 63139  1  0  0  0
 64140  1  0  0  0
 65141  1  0  0  0
 68 79  1  0  0  0
 71 73  1  0  0  0
 71 74  2  0  0  0
 71142  1  0  0  0
 72 73  2  0  0  0
 72 80  1  0  0  0
 72143  1  0  0  0
 73 76  1  0  0  0
 74 77  1  0  0  0
 74 80  1  0  0  0
 75 78  1  0  0  0
 75 80  1  0  0  0
 75 82  2  0  0  0
 76144  1  0  0  0
 76145  1  0  0  0
 76146  1  0  0  0
 77 81  1  0  0  0
 77147  1  0  0  0
 77148  1  0  0  0
 78 79  1  0  0  0
 78149  1  0  0  0
 78150  1  0  0  0
 79151  1  0  0  0
 79152  1  0  0  0
 81153  1  0  0  0
M  ISO  4   1 100  68 101  79 101  81 100
M  END
> <chiral flag>
0

> <version>
0

> <s_m_source_file>
/data/baiqing/PycharmProjects/Reinvent-master-3.2/result/LINK_invent/BTK/process_docking_weight1_custom_product_contain_oxygen_bond_distance_aromatic_linkinvent_7_9_3/rearranged_h_0160.sdf

> <i_m_source_file_index>
64

> <r_mmod_Potential_Energy-OPLS-2005>
580.648315429688

> <r_mmod_Stretch_Energy-OPLS-2005>
336.139495849609

> <r_mmod_Bend_Energy-OPLS-2005>
342.9873046875

> <r_mmod_Torsional_Energy-OPLS-2005>
203.720260620117

> <r_mmod_Improper_Torsional_Energy-OPLS-2005>
5.35341453552246

> <r_mmod_Van_der_Waal_Energy-OPLS-2005>
108.142616271973

> <r_mmod_Electrostatic_Energy-OPLS-2005>
-393.745513916016

> <r_mmod_Solvation_Energy-OPLS-2005>
-234.134414672852

> <b_mmod_Minimization_Converged-OPLS-2005>
0

> <r_mmod_RMS_Derivative-OPLS-2005>
5.27883529663086

$$$$
65
                    3D
 Structure written by MMmdl.
154163  0  0  1  0            999 V2000
  -30.5556  -14.7575   20.5027 C   0  0  0  0  0  0
  -30.4527  -12.4664   19.4614 C   0  0  0  0  0  0
  -29.5175  -12.5265   18.2303 C   0  0  0  0  0  0
  -28.0422  -12.3379   18.6417 C   0  0  0  0  0  0
  -27.6481  -13.2200   19.8545 C   0  0  2  0  0  0
  -28.6953  -13.1134   20.9845 C   0  0  0  0  0  0
  -25.2550  -13.8167   20.5695 C   0  0  0  0  0  0
  -24.1821  -13.0432   20.9210 C   0  0  0  0  0  0
  -24.6395  -11.6903   20.8745 C   0  0  0  0  0  0
  -23.9067  -10.4290   21.0412 C   0  0  0  0  0  0
  -24.3619   -9.4207   21.9184 C   0  0  0  0  0  0
  -23.6293   -8.2242   22.0751 C   0  0  0  0  0  0
  -22.4276   -8.0283   21.3545 C   0  0  0  0  0  0
  -21.9915   -9.0258   20.4649 C   0  0  0  0  0  0
  -22.7246  -10.2135   20.3060 C   0  0  0  0  0  0
  -21.6855   -6.0741   22.5283 C   0  0  0  0  0  0
  -21.4015   -6.5640   23.8218 C   0  0  0  0  0  0
  -21.3660   -5.6795   24.9181 C   0  0  0  0  0  0
  -21.6044   -4.3059   24.7229 C   0  0  0  0  0  0
  -21.8817   -3.8154   23.4348 C   0  0  0  0  0  0
  -21.9191   -4.6972   22.3406 C   0  0  0  0  0  0
  -22.7843  -13.5222   21.1884 C   0  0  0  0  0  0
  -22.1653   -4.2165   21.0984 F   0  0  0  0  0  0
  -21.5634   -3.4536   25.7735 F   0  0  0  0  0  0
  -29.9982  -13.4968   20.4220 N   0  0  0  0  0  0
  -26.2971  -12.9345   20.3282 N   0  0  0  0  0  0
  -25.9326  -11.6505   20.5744 N   0  0  0  0  0  0
  -22.0482  -12.8210   22.0438 N   0  0  0  0  0  0
  -25.4258  -15.1893   20.4115 N   0  0  0  0  0  0
  -31.7131  -14.9296   20.1014 O   0  0  0  0  0  0
  -21.6638   -6.8887   21.4245 O   0  0  0  0  0  0
  -22.3525  -14.5532   20.6739 O   0  0  0  0  0  0
  -24.6309  -31.8551   23.1975 C   0  0  0  0  0  0
  -25.9131  -32.4757   23.8327 C   0  0  1  0  0  0
  -27.2297  -27.2668   20.1304 C   0  0  0  0  0  0
  -25.5925  -33.8558   24.2251 N   0  0  0  0  0  0
  -23.4293  -30.4753   21.5405 C   0  0  2  0  0  0
  -24.8788  -28.9161   20.1164 C   0  0  0  0  0  0
  -22.7500  -29.4602   22.4912 C   0  0  0  0  0  0
  -18.0290  -28.1390   22.8482 C   0  0  0  0  0  0
  -24.1490  -36.7289   23.2639 C   0  0  0  0  0  0
  -25.9739  -30.7689   21.3767 C   0  0  0  0  0  0
  -26.0502  -29.3888   20.7238 C   0  0  0  0  0  0
  -27.2300  -28.5764   20.7189 C   0  0  0  0  0  0
  -26.0358  -26.8552   19.5028 C   0  0  0  0  0  0
  -24.8749  -27.6557   19.4970 C   0  0  0  0  0  0
  -23.6495  -29.8044   20.1586 C   0  0  0  0  0  0
  -25.4118  -36.3073   24.0322 C   0  0  1  0  0  0
  -20.5896  -28.3705   23.1268 C   0  0  2  0  0  0
  -20.6777  -26.9422   22.5411 C   0  0  0  0  0  0
  -19.5754  -26.6380   21.5215 C   0  0  0  0  0  0
  -18.1934  -26.7929   22.1624 C   0  0  0  0  0  0
  -19.1545  -28.8863   23.2872 C   0  0  0  0  0  0
  -18.9465  -30.1460   23.8897 C   0  0  0  0  0  0
  -17.6464  -30.6588   24.0565 C   0  0  0  0  0  0
  -25.9058  -34.9442   23.5093 C   0  0  0  0  0  0
  -16.5356  -29.9089   23.6330 C   0  0  0  0  0  0
  -16.7275  -28.6508   23.0351 C   0  0  0  0  0  0
  -26.4496  -31.6578   25.0719 C   0  0  0  0  0  0
  -25.3714  -31.3741   26.1440 C   0  0  0  0  0  0
  -27.0327  -30.2983   24.6210 C   0  0  0  0  0  0
  -27.6054  -32.4312   25.7490 C   0  0  0  0  0  0
  -27.5581  -37.1803   24.8463 C   0  0  0  0  0  0
  -21.4206  -29.3049   22.3653 N   0  0  0  0  0  0
  -26.4295  -37.3769   23.9405 N   0  0  0  0  0  0
  -24.6972  -31.0512   22.0951 N   0  0  0  0  0  0
  -23.4193  -28.8147   23.3017 O   0  0  0  0  0  0
  -28.3283  -26.3787   20.1112 O   0  0  0  0  0  0
  -26.5640  -34.8918   22.4667 O   0  0  0  0  0  0
  -23.5457  -32.1371   23.7269 O   0  0  0  0  0  0
  -29.6098  -18.7935   20.1711 C   0  0  0  0  0  0
  -29.8283  -20.0655   22.2925 C   0  0  0  0  0  0
  -29.9496  -17.5844   20.9012 C   0  0  0  0  0  0
  -30.0974  -17.6822   22.3231 C   0  0  0  0  0  0
  -29.5699  -20.0831   20.8803 C   0  0  0  0  0  0
  -30.0459  -18.8778   23.0419 C   0  0  0  0  0  0
  -28.1714  -25.0300   20.5547 C   0  0  0  0  0  0
  -28.8504  -23.8886   20.1389 C   0  0  0  0  0  0
  -28.6501  -22.5288   20.7800 C   0  0  0  0  0  0
  -29.8987  -16.2089   22.5718 C   0  0  0  0  0  0
  -29.6624  -16.0105   21.0013 C   0  0  2  0  0  0
  -30.1503  -18.8872   24.4301 N   0  0  0  0  0  0
  -29.3103  -21.4186   20.2561 N   0  0  0  0  0  0
  -27.9002  -22.3838   21.7484 O   0  0  0  0  0  0
  -29.7451  -23.9941   19.1462 O   0  0  0  0  0  0
  -31.4878  -12.6232   19.1536 H   0  0  0  0  0  0
  -30.4222  -11.4771   19.9208 H   0  0  0  0  0  0
  -29.8027  -11.7682   17.5000 H   0  0  0  0  0  0
  -29.6375  -13.4904   17.7324 H   0  0  0  0  0  0
  -27.9009  -11.2859   18.8910 H   0  0  0  0  0  0
  -27.3849  -12.5419   17.7958 H   0  0  0  0  0  0
  -27.6487  -14.2450   19.4866 H   0  0  0  0  0  0
  -28.7335  -12.0966   21.3781 H   0  0  0  0  0  0
  -28.4221  -13.7463   21.8289 H   0  0  0  0  0  0
  -25.2768   -9.5678   22.4759 H   0  0  0  0  0  0
  -24.0014   -7.4629   22.7459 H   0  0  0  0  0  0
  -21.0849   -8.8775   19.8946 H   0  0  0  0  0  0
  -22.3709  -10.9672   19.6169 H   0  0  0  0  0  0
  -21.1999   -7.6146   23.9727 H   0  0  0  0  0  0
  -21.1486   -6.0521   25.9084 H   0  0  0  0  0  0
  -22.0595   -2.7615   23.2844 H   0  0  0  0  0  0
  -22.4079  -11.9853   22.4815 H   0  0  0  0  0  0
  -21.1104  -13.1242   22.2647 H   0  0  0  0  0  0
  -24.6607  -15.8452   20.5264 H   0  0  0  0  0  0
  -26.2751  -15.6313   20.0849 H   0  0  0  0  0  0
  -26.7205  -32.5407   23.1076 H   0  0  0  0  0  0
  -25.0044  -33.9691   25.0379 H   0  0  0  0  0  0
  -22.7266  -31.2975   21.3914 H   0  0  0  0  0  0
  -23.3750  -35.9624   23.3303 H   0  0  0  0  0  0
  -24.3586  -36.8916   22.2056 H   0  0  0  0  0  0
  -23.7247  -37.6489   23.6667 H   0  0  0  0  0  0
  -26.1107  -31.5274   20.6047 H   0  0  0  0  0  0
  -26.8514  -30.8219   22.0094 H   0  0  0  0  0  0
  -28.1316  -28.9367   21.1939 H   0  0  0  0  0  0
  -25.9969  -25.8883   19.0213 H   0  0  0  0  0  0
  -23.9782  -27.2878   19.0173 H   0  0  0  0  0  0
  -23.7767  -30.5787   19.4008 H   0  0  0  0  0  0
  -22.7672  -29.2385   19.8533 H   0  0  0  0  0  0
  -25.1304  -36.1926   25.0815 H   0  0  0  0  0  0
  -20.9987  -28.3287   24.1390 H   0  0  0  0  0  0
  -20.5677  -26.2316   23.3618 H   0  0  0  0  0  0
  -21.6646  -26.7445   22.1208 H   0  0  0  0  0  0
  -19.6918  -25.6287   21.1252 H   0  0  0  0  0  0
  -19.6687  -27.3189   20.6743 H   0  0  0  0  0  0
  -17.4200  -26.6674   21.4030 H   0  0  0  0  0  0
  -18.0337  -26.0076   22.9024 H   0  0  0  0  0  0
  -19.7940  -30.7279   24.2264 H   0  0  0  0  0  0
  -17.5018  -31.6270   24.5163 H   0  0  0  0  0  0
  -15.5361  -30.2995   23.7646 H   0  0  0  0  0  0
  -15.8671  -28.0825   22.7070 H   0  0  0  0  0  0
  -24.5861  -30.7130   25.7758 H   0  0  0  0  0  0
  -24.8951  -32.2920   26.4891 H   0  0  0  0  0  0
  -25.8014  -30.8875   27.0201 H   0  0  0  0  0  0
  -26.2903  -29.6740   24.1221 H   0  0  0  0  0  0
  -27.3977  -29.7245   25.4738 H   0  0  0  0  0  0
  -27.8804  -30.4240   23.9471 H   0  0  0  0  0  0
  -27.2663  -33.3608   26.2071 H   0  0  0  0  0  0
  -28.3863  -32.6868   25.0317 H   0  0  0  0  0  0
  -28.0720  -31.8435   26.5404 H   0  0  0  0  0  0
  -28.2598  -38.0101   24.7508 H   0  0  0  0  0  0
  -28.1079  -36.2635   24.6284 H   0  0  0  0  0  0
  -27.2300  -37.1454   25.8866 H   0  0  0  0  0  0
  -20.9392  -29.8773   21.6860 H   0  0  0  0  0  0
  -26.0174  -38.2843   24.1401 H   0  0  0  0  0  0
  -29.3237  -18.7377   19.1298 H   0  0  0  0  0  0
  -29.8054  -21.0005   22.8342 H   0  0  0  0  0  0
  -27.4271  -24.9754   21.3402 H   0  0  0  0  0  0
  -29.0207  -15.9987   23.1822 H   0  0  0  0  0  0
  -30.7991  -15.7382   22.9689 H   0  0  0  0  0  0
  -28.6082  -15.8605   20.7746 H   0  0  0  0  0  0
  -30.3838  -19.7614   24.8916 H   0  0  0  0  0  0
  -30.5668  -18.0811   24.8854 H   0  0  0  0  0  0
  -29.7433  -21.5868   19.3576 H   0  0  0  0  0  0
  -29.7598  -24.9070   18.8866 H   0  0  0  0  0  0
  1 25  1  0  0  0
  1 30  2  0  0  0
  1 81  1  0  0  0
  2  3  1  0  0  0
  2 25  1  0  0  0
  2 86  1  0  0  0
  2 87  1  0  0  0
  3  4  1  0  0  0
  3 88  1  0  0  0
  3 89  1  0  0  0
  4  5  1  0  0  0
  4 90  1  0  0  0
  4 91  1  0  0  0
  5  6  1  0  0  0
  5 26  1  0  0  0
  5 92  1  0  0  0
  6 25  1  0  0  0
  6 93  1  0  0  0
  6 94  1  0  0  0
  7  8  2  0  0  0
  7 26  1  0  0  0
  7 29  1  0  0  0
  8  9  1  0  0  0
  8 22  1  0  0  0
  9 10  1  0  0  0
  9 27  2  0  0  0
 10 11  2  0  0  0
 10 15  1  0  0  0
 11 12  1  0  0  0
 11 95  1  0  0  0
 12 13  2  0  0  0
 12 96  1  0  0  0
 13 14  1  0  0  0
 13 31  1  0  0  0
 14 15  2  0  0  0
 14 97  1  0  0  0
 15 98  1  0  0  0
 16 17  2  0  0  0
 16 21  1  0  0  0
 16 31  1  0  0  0
 17 18  1  0  0  0
 17 99  1  0  0  0
 18 19  2  0  0  0
 18100  1  0  0  0
 19 20  1  0  0  0
 19 24  1  0  0  0
 20 21  2  0  0  0
 20101  1  0  0  0
 21 23  1  0  0  0
 22 28  1  0  0  0
 22 32  2  0  0  0
 26 27  1  0  0  0
 28102  1  0  0  0
 28103  1  0  0  0
 29104  1  0  0  0
 29105  1  0  0  0
 33 34  1  0  0  0
 33 66  1  0  0  0
 33 70  2  0  0  0
 34 36  1  0  0  0
 34 59  1  0  0  0
 34106  1  0  0  0
 35 44  2  0  0  0
 35 45  1  0  0  0
 35 68  1  0  0  0
 36 56  1  0  0  0
 36107  1  0  0  0
 37 39  1  0  0  0
 37 47  1  0  0  0
 37 66  1  0  0  0
 37108  1  0  0  0
 38 43  2  0  0  0
 38 46  1  0  0  0
 38 47  1  0  0  0
 39 64  1  0  0  0
 39 67  2  0  0  0
 40 52  1  0  0  0
 40 53  2  0  0  0
 40 58  1  0  0  0
 41109  1  0  0  0
 41110  1  0  0  0
 41111  1  0  0  0
 41 48  1  0  0  0
 42 43  1  0  0  0
 42 66  1  0  0  0
 42112  1  0  0  0
 42113  1  0  0  0
 43 44  1  0  0  0
 44114  1  0  0  0
 45 46  2  0  0  0
 45115  1  0  0  0
 46116  1  0  0  0
 47117  1  0  0  0
 47118  1  0  0  0
 48 56  1  0  0  0
 48 65  1  0  0  0
 48119  1  0  0  0
 49 50  1  0  0  0
 49 53  1  0  0  0
 49 64  1  0  0  0
 49120  1  0  0  0
 50 51  1  0  0  0
 50121  1  0  0  0
 50122  1  0  0  0
 51 52  1  0  0  0
 51123  1  0  0  0
 51124  1  0  0  0
 52125  1  0  0  0
 52126  1  0  0  0
 53 54  1  0  0  0
 54 55  2  0  0  0
 54127  1  0  0  0
 55 57  1  0  0  0
 55128  1  0  0  0
 56 69  2  0  0  0
 57 58  2  0  0  0
 57129  1  0  0  0
 58130  1  0  0  0
 59 60  1  0  0  0
 59 61  1  0  0  0
 59 62  1  0  0  0
 60131  1  0  0  0
 60132  1  0  0  0
 60133  1  0  0  0
 61134  1  0  0  0
 61135  1  0  0  0
 61136  1  0  0  0
 62137  1  0  0  0
 62138  1  0  0  0
 62139  1  0  0  0
 63 65  1  0  0  0
 63140  1  0  0  0
 63141  1  0  0  0
 63142  1  0  0  0
 64143  1  0  0  0
 65144  1  0  0  0
 68 77  1  0  0  0
 71 73  2  0  0  0
 71 75  1  0  0  0
 71145  1  0  0  0
 72 75  2  0  0  0
 72 76  1  0  0  0
 72146  1  0  0  0
 73 74  1  0  0  0
 73 81  1  0  0  0
 74 76  2  0  0  0
 74 80  1  0  0  0
 75 83  1  0  0  0
 76 82  1  0  0  0
 77 78  2  0  0  0
 77147  1  0  0  0
 78 79  1  0  0  0
 78 85  1  0  0  0
 79 83  1  0  0  0
 79 84  2  0  0  0
 80 81  1  0  0  0
 80148  1  0  0  0
 80149  1  0  0  0
 81150  1  0  0  0
 82151  1  0  0  0
 82152  1  0  0  0
 83153  1  0  0  0
 85154  1  0  0  0
M  ISO  4   1 100  68 101  77 101  81 100
M  END
> <chiral flag>
0

> <version>
0

> <s_m_source_file>
/data/baiqing/PycharmProjects/Reinvent-master-3.2/result/LINK_invent/BTK/process_docking_weight1_custom_product_contain_oxygen_bond_distance_aromatic_linkinvent_7_9_3/rearranged_h_0160.sdf

> <i_m_source_file_index>
65

> <r_mmod_Potential_Energy-OPLS-2005>
525.28369140625

> <r_mmod_Stretch_Energy-OPLS-2005>
141.971893310547

> <r_mmod_Bend_Energy-OPLS-2005>
508.485931396484

> <r_mmod_Torsional_Energy-OPLS-2005>
234.2607421875

> <r_mmod_Improper_Torsional_Energy-OPLS-2005>
20.5537395477295

> <r_mmod_Van_der_Waal_Energy-OPLS-2005>
133.221267700195

> <r_mmod_Electrostatic_Energy-OPLS-2005>
-366.776214599609

> <r_mmod_Solvation_Energy-OPLS-2005>
-230.302551269531

> <b_mmod_Minimization_Converged-OPLS-2005>
0

> <r_mmod_RMS_Derivative-OPLS-2005>
1.30843615531921

$$$$
66
                    3D
 Structure written by MMmdl.
156165  0  0  1  0            999 V2000
  -30.6730  -14.5946   20.4795 C   0  0  0  0  0  0
  -30.4195  -12.3578   19.4552 C   0  0  0  0  0  0
  -29.5004  -12.4908   18.2229 C   0  0  0  0  0  0
  -28.0211  -12.3486   18.6323 C   0  0  0  0  0  0
  -27.6499  -13.2220   19.8615 C   0  0  2  0  0  0
  -28.6948  -13.0928   20.9920 C   0  0  0  0  0  0
  -25.2534  -13.8184   20.5678 C   0  0  0  0  0  0
  -24.1817  -13.0441   20.9215 C   0  0  0  0  0  0
  -24.6391  -11.6918   20.8757 C   0  0  0  0  0  0
  -23.9063  -10.4300   21.0415 C   0  0  0  0  0  0
  -24.3618   -9.4206   21.9187 C   0  0  0  0  0  0
  -23.6294   -8.2237   22.0750 C   0  0  0  0  0  0
  -22.4274   -8.0282   21.3547 C   0  0  0  0  0  0
  -21.9916   -9.0251   20.4640 C   0  0  0  0  0  0
  -22.7239  -10.2134   20.3050 C   0  0  0  0  0  0
  -21.6840   -6.0747   22.5285 C   0  0  0  0  0  0
  -21.4004   -6.5652   23.8218 C   0  0  0  0  0  0
  -21.3662   -5.6805   24.9179 C   0  0  0  0  0  0
  -21.6042   -4.3068   24.7227 C   0  0  0  0  0  0
  -21.8815   -3.8156   23.4346 C   0  0  0  0  0  0
  -21.9187   -4.6976   22.3407 C   0  0  0  0  0  0
  -22.7838  -13.5219   21.1875 C   0  0  0  0  0  0
  -22.1654   -4.2160   21.0985 F   0  0  0  0  0  0
  -21.5633   -3.4553   25.7742 F   0  0  0  0  0  0
  -30.0135  -13.3976   20.4207 N   0  0  0  0  0  0
  -26.2971  -12.9376   20.3325 N   0  0  0  0  0  0
  -25.9321  -11.6528   20.5782 N   0  0  0  0  0  0
  -22.0477  -12.8205   22.0423 N   0  0  0  0  0  0
  -25.4232  -15.1902   20.4032 N   0  0  0  0  0  0
  -31.8542  -14.6727   20.1302 O   0  0  0  0  0  0
  -21.6629   -6.8887   21.4246 O   0  0  0  0  0  0
  -22.3533  -14.5532   20.6723 O   0  0  0  0  0  0
  -24.6227  -31.8624   23.2055 C   0  0  0  0  0  0
  -25.9091  -32.4793   23.8369 C   0  0  1  0  0  0
  -27.2217  -27.3599   20.1126 C   0  0  0  0  0  0
  -25.5924  -33.8595   24.2303 N   0  0  0  0  0  0
  -23.4149  -30.4855   21.5469 C   0  0  2  0  0  0
  -24.8622  -28.9463   20.1105 C   0  0  0  0  0  0
  -22.7460  -29.4628   22.4951 C   0  0  0  0  0  0
  -18.0282  -28.1382   22.8487 C   0  0  0  0  0  0
  -24.1488  -36.7298   23.2636 C   0  0  0  0  0  0
  -25.9520  -30.8073   21.3693 C   0  0  0  0  0  0
  -26.0293  -29.4381   20.7113 C   0  0  0  0  0  0
  -27.2176  -28.6554   20.7031 C   0  0  0  0  0  0
  -26.0410  -26.9112   19.4867 C   0  0  0  0  0  0
  -24.8667  -27.6863   19.4907 C   0  0  0  0  0  0
  -23.6276  -29.8208   20.1613 C   0  0  0  0  0  0
  -25.4112  -36.3094   24.0332 C   0  0  1  0  0  0
  -20.5881  -28.3677   23.1294 C   0  0  2  0  0  0
  -20.6774  -26.9404   22.5414 C   0  0  0  0  0  0
  -19.5752  -26.6381   21.5213 C   0  0  0  0  0  0
  -18.1928  -26.7926   22.1620 C   0  0  0  0  0  0
  -19.1534  -28.8846   23.2885 C   0  0  0  0  0  0
  -18.9459  -30.1453   23.8896 C   0  0  0  0  0  0
  -17.6460  -30.6584   24.0560 C   0  0  0  0  0  0
  -25.9049  -34.9460   23.5115 C   0  0  0  0  0  0
  -16.5350  -29.9084   23.6327 C   0  0  0  0  0  0
  -16.7270  -28.6501   23.0346 C   0  0  0  0  0  0
  -26.4494  -31.6590   25.0722 C   0  0  0  0  0  0
  -25.3740  -31.3712   26.1456 C   0  0  0  0  0  0
  -27.0325  -30.3016   24.6148 C   0  0  0  0  0  0
  -27.6058  -32.4318   25.7486 C   0  0  0  0  0  0
  -27.5582  -37.1805   24.8464 C   0  0  0  0  0  0
  -21.4176  -29.3033   22.3694 N   0  0  0  0  0  0
  -26.4295  -37.3784   23.9410 N   0  0  0  0  0  0
  -24.6819  -31.0669   22.0984 N   0  0  0  0  0  0
  -23.4199  -28.8166   23.3014 O   0  0  0  0  0  0
  -28.3209  -26.5068   20.1398 O   0  0  0  0  0  0
  -26.5603  -34.8920   22.4674 O   0  0  0  0  0  0
  -23.5399  -32.1401   23.7405 O   0  0  0  0  0  0
  -31.3966  -17.5726   19.9357 C   0  0  0  0  0  0
  -30.2251  -17.1148   20.4961 C   0  0  0  0  0  0
  -29.8061  -19.4222   20.4359 C   0  0  0  0  0  0
  -28.8562  -21.5977   19.3332 C   0  0  0  0  0  0
  -29.8587  -21.7252   21.6101 C   0  0  0  0  0  0
  -28.1597  -22.9856   19.5548 C   0  0  0  0  0  0
  -29.1590  -23.0992   21.8343 C   0  0  0  0  0  0
  -29.1059  -20.7834   20.6363 C   0  0  2  0  0  0
  -28.8926  -23.9372   20.5478 C   0  0  2  0  0  0
  -28.1048  -25.2712   20.8984 C   0  0  0  0  0  0
  -29.3311  -18.1909   20.7714 N   0  0  0  0  0  0
  -29.9255  -15.7107   20.7498 N   0  0  0  0  0  0
  -31.4199  -19.3095   19.7367 S   0  0  0  0  0  0
  -31.4645  -12.4467   19.1552 H   0  0  0  0  0  0
  -30.3240  -11.3675   19.9023 H   0  0  0  0  0  0
  -29.7553  -11.7337   17.4796 H   0  0  0  0  0  0
  -29.6628  -13.4570   17.7424 H   0  0  0  0  0  0
  -27.8426  -11.2972   18.8591 H   0  0  0  0  0  0
  -27.3697  -12.5887   17.7903 H   0  0  0  0  0  0
  -27.6648  -14.2562   19.5171 H   0  0  0  0  0  0
  -28.6918  -12.0831   21.4051 H   0  0  0  0  0  0
  -28.4551  -13.7597   21.8215 H   0  0  0  0  0  0
  -25.2758   -9.5665   22.4767 H   0  0  0  0  0  0
  -23.9996   -7.4619   22.7460 H   0  0  0  0  0  0
  -21.0844   -8.8754   19.8952 H   0  0  0  0  0  0
  -22.3684  -10.9667   19.6161 H   0  0  0  0  0  0
  -21.1983   -7.6160   23.9729 H   0  0  0  0  0  0
  -21.1500   -6.0531   25.9087 H   0  0  0  0  0  0
  -22.0593   -2.7617   23.2833 H   0  0  0  0  0  0
  -22.4082  -11.9870   22.4819 H   0  0  0  0  0  0
  -21.1101  -13.1240   22.2638 H   0  0  0  0  0  0
  -24.6546  -15.8434   20.5080 H   0  0  0  0  0  0
  -26.2641  -15.6258   20.0464 H   0  0  0  0  0  0
  -26.7163  -32.5478   23.1123 H   0  0  0  0  0  0
  -25.0087  -33.9748   25.0457 H   0  0  0  0  0  0
  -22.7069  -31.3043   21.4050 H   0  0  0  0  0  0
  -23.3753  -35.9627   23.3300 H   0  0  0  0  0  0
  -24.3579  -36.8915   22.2051 H   0  0  0  0  0  0
  -23.7241  -37.6502   23.6651 H   0  0  0  0  0  0
  -26.0776  -31.5749   20.6040 H   0  0  0  0  0  0
  -26.8349  -30.8558   21.9953 H   0  0  0  0  0  0
  -28.1161  -29.0257   21.1772 H   0  0  0  0  0  0
  -26.0225  -25.9417   19.0081 H   0  0  0  0  0  0
  -23.9718  -27.3047   19.0189 H   0  0  0  0  0  0
  -23.7426  -30.5974   19.4043 H   0  0  0  0  0  0
  -22.7497  -29.2461   19.8603 H   0  0  0  0  0  0
  -25.1293  -36.1949   25.0826 H   0  0  0  0  0  0
  -20.9969  -28.3245   24.1415 H   0  0  0  0  0  0
  -20.5670  -26.2285   23.3606 H   0  0  0  0  0  0
  -21.6645  -26.7430   22.1209 H   0  0  0  0  0  0
  -19.6913  -25.6291   21.1241 H   0  0  0  0  0  0
  -19.6699  -27.3191   20.6740 H   0  0  0  0  0  0
  -17.4203  -26.6670   21.4018 H   0  0  0  0  0  0
  -18.0326  -26.0066   22.9013 H   0  0  0  0  0  0
  -19.7937  -30.7267   24.2263 H   0  0  0  0  0  0
  -17.5015  -31.6264   24.5161 H   0  0  0  0  0  0
  -15.5352  -30.2985   23.7657 H   0  0  0  0  0  0
  -15.8667  -28.0823   22.7057 H   0  0  0  0  0  0
  -24.5928  -30.7044   25.7790 H   0  0  0  0  0  0
  -24.8913  -32.2871   26.4876 H   0  0  0  0  0  0
  -25.8081  -30.8904   27.0230 H   0  0  0  0  0  0
  -26.2886  -29.6777   24.1181 H   0  0  0  0  0  0
  -27.4043  -29.7259   25.4635 H   0  0  0  0  0  0
  -27.8747  -30.4304   23.9344 H   0  0  0  0  0  0
  -27.2672  -33.3611   26.2076 H   0  0  0  0  0  0
  -28.3861  -32.6894   25.0313 H   0  0  0  0  0  0
  -28.0737  -31.8440   26.5394 H   0  0  0  0  0  0
  -28.2602  -38.0100   24.7513 H   0  0  0  0  0  0
  -28.1079  -36.2634   24.6288 H   0  0  0  0  0  0
  -27.2298  -37.1448   25.8866 H   0  0  0  0  0  0
  -20.9349  -29.8764   21.6915 H   0  0  0  0  0  0
  -26.0178  -38.2860   24.1412 H   0  0  0  0  0  0
  -32.2617  -17.0081   19.6148 H   0  0  0  0  0  0
  -29.8089  -21.7652   18.8296 H   0  0  0  0  0  0
  -28.2573  -20.9988   18.6459 H   0  0  0  0  0  0
  -29.9834  -21.2230   22.5700 H   0  0  0  0  0  0
  -30.8659  -21.9036   21.2317 H   0  0  0  0  0  0
  -27.1469  -22.8064   19.9195 H   0  0  0  0  0  0
  -28.0419  -23.4891   18.5945 H   0  0  0  0  0  0
  -29.7640  -23.6890   22.5243 H   0  0  0  0  0  0
  -28.2123  -22.9274   22.3496 H   0  0  0  0  0  0
  -28.1323  -20.5652   21.0769 H   0  0  0  0  0  0
  -29.8580  -24.2143   20.1231 H   0  0  0  0  0  0
  -28.3706  -25.5484   21.9190 H   0  0  0  0  0  0
  -27.0452  -25.0205   20.9664 H   0  0  0  0  0  0
  -28.9859  -15.5210   21.0621 H   0  0  0  0  0  0
  1 25  1  0  0  0
  1 30  2  0  0  0
  1 82  1  0  0  0
  2  3  1  0  0  0
  2 25  1  0  0  0
  2 84  1  0  0  0
  2 85  1  0  0  0
  3  4  1  0  0  0
  3 86  1  0  0  0
  3 87  1  0  0  0
  4  5  1  0  0  0
  4 88  1  0  0  0
  4 89  1  0  0  0
  5  6  1  0  0  0
  5 26  1  0  0  0
  5 90  1  0  0  0
  6 25  1  0  0  0
  6 91  1  0  0  0
  6 92  1  0  0  0
  7  8  2  0  0  0
  7 26  1  0  0  0
  7 29  1  0  0  0
  8  9  1  0  0  0
  8 22  1  0  0  0
  9 10  1  0  0  0
  9 27  2  0  0  0
 10 11  2  0  0  0
 10 15  1  0  0  0
 11 12  1  0  0  0
 11 93  1  0  0  0
 12 13  2  0  0  0
 12 94  1  0  0  0
 13 14  1  0  0  0
 13 31  1  0  0  0
 14 15  2  0  0  0
 14 95  1  0  0  0
 15 96  1  0  0  0
 16 17  2  0  0  0
 16 21  1  0  0  0
 16 31  1  0  0  0
 17 18  1  0  0  0
 17 97  1  0  0  0
 18 19  2  0  0  0
 18 98  1  0  0  0
 19 20  1  0  0  0
 19 24  1  0  0  0
 20 21  2  0  0  0
 20 99  1  0  0  0
 21 23  1  0  0  0
 22 28  1  0  0  0
 22 32  2  0  0  0
 26 27  1  0  0  0
 28100  1  0  0  0
 28101  1  0  0  0
 29102  1  0  0  0
 29103  1  0  0  0
 33 34  1  0  0  0
 33 66  1  0  0  0
 33 70  2  0  0  0
 34 36  1  0  0  0
 34 59  1  0  0  0
 34104  1  0  0  0
 35 44  2  0  0  0
 35 45  1  0  0  0
 35 68  1  0  0  0
 36 56  1  0  0  0
 36105  1  0  0  0
 37 39  1  0  0  0
 37 47  1  0  0  0
 37 66  1  0  0  0
 37106  1  0  0  0
 38 43  2  0  0  0
 38 46  1  0  0  0
 38 47  1  0  0  0
 39 64  1  0  0  0
 39 67  2  0  0  0
 40 52  1  0  0  0
 40 53  2  0  0  0
 40 58  1  0  0  0
 41107  1  0  0  0
 41108  1  0  0  0
 41109  1  0  0  0
 41 48  1  0  0  0
 42 43  1  0  0  0
 42 66  1  0  0  0
 42110  1  0  0  0
 42111  1  0  0  0
 43 44  1  0  0  0
 44112  1  0  0  0
 45 46  2  0  0  0
 45113  1  0  0  0
 46114  1  0  0  0
 47115  1  0  0  0
 47116  1  0  0  0
 48 56  1  0  0  0
 48 65  1  0  0  0
 48117  1  0  0  0
 49 50  1  0  0  0
 49 53  1  0  0  0
 49 64  1  0  0  0
 49118  1  0  0  0
 50 51  1  0  0  0
 50119  1  0  0  0
 50120  1  0  0  0
 51 52  1  0  0  0
 51121  1  0  0  0
 51122  1  0  0  0
 52123  1  0  0  0
 52124  1  0  0  0
 53 54  1  0  0  0
 54 55  2  0  0  0
 54125  1  0  0  0
 55 57  1  0  0  0
 55126  1  0  0  0
 56 69  2  0  0  0
 57 58  2  0  0  0
 57127  1  0  0  0
 58128  1  0  0  0
 59 60  1  0  0  0
 59 61  1  0  0  0
 59 62  1  0  0  0
 60129  1  0  0  0
 60130  1  0  0  0
 60131  1  0  0  0
 61132  1  0  0  0
 61133  1  0  0  0
 61134  1  0  0  0
 62135  1  0  0  0
 62136  1  0  0  0
 62137  1  0  0  0
 63 65  1  0  0  0
 63138  1  0  0  0
 63139  1  0  0  0
 63140  1  0  0  0
 64141  1  0  0  0
 65142  1  0  0  0
 68 80  1  0  0  0
 71 72  2  0  0  0
 71 83  1  0  0  0
 71143  1  0  0  0
 72 81  1  0  0  0
 72 82  1  0  0  0
 73 81  2  0  0  0
 73 83  1  0  0  0
 73 78  1  0  0  0
 74 76  1  0  0  0
 74 78  1  0  0  0
 74144  1  0  0  0
 74145  1  0  0  0
 75 77  1  0  0  0
 75 78  1  0  0  0
 75146  1  0  0  0
 75147  1  0  0  0
 76 79  1  0  0  0
 76148  1  0  0  0
 76149  1  0  0  0
 77 79  1  0  0  0
 77150  1  0  0  0
 77151  1  0  0  0
 78152  1  0  0  0
 79 80  1  0  0  0
 79153  1  0  0  0
 80154  1  0  0  0
 80155  1  0  0  0
 82156  1  0  0  0
M  ISO  4   1 100  68 101  80 101  82 100
M  END
> <chiral flag>
0

> <version>
0

> <s_m_source_file>
/data/baiqing/PycharmProjects/Reinvent-master-3.2/result/LINK_invent/BTK/process_docking_weight1_custom_product_contain_oxygen_bond_distance_aromatic_linkinvent_7_9_3/rearranged_h_0160.sdf

> <i_m_source_file_index>
66

> <r_mmod_Potential_Energy-OPLS-2005>
16.242036819458

> <r_mmod_Stretch_Energy-OPLS-2005>
61.873291015625

> <r_mmod_Bend_Energy-OPLS-2005>
125.386474609375

> <r_mmod_Torsional_Energy-OPLS-2005>
229.359497070312

> <r_mmod_Improper_Torsional_Energy-OPLS-2005>
4.51742267608643

> <r_mmod_Van_der_Waal_Energy-OPLS-2005>
128.049880981445

> <r_mmod_Electrostatic_Energy-OPLS-2005>
-372.402435302734

> <r_mmod_Solvation_Energy-OPLS-2005>
-198.489715576172

> <b_mmod_Minimization_Converged-OPLS-2005>
0

> <r_mmod_RMS_Derivative-OPLS-2005>
1.31930863857269

$$$$
67
                    3D
 Structure written by MMmdl.
164173  0  0  1  0            999 V2000
  -30.7006  -14.5702   20.5358 C   0  0  0  0  0  0
  -30.4176  -12.3633   19.4378 C   0  0  0  0  0  0
  -29.4927  -12.5071   18.2128 C   0  0  0  0  0  0
  -28.0164  -12.3570   18.6292 C   0  0  0  0  0  0
  -27.6520  -13.2228   19.8650 C   0  0  2  0  0  0
  -28.7006  -13.0815   20.9918 C   0  0  0  0  0  0
  -25.2546  -13.8193   20.5715 C   0  0  0  0  0  0
  -24.1824  -13.0450   20.9214 C   0  0  0  0  0  0
  -24.6401  -11.6925   20.8763 C   0  0  0  0  0  0
  -23.9071  -10.4304   21.0418 C   0  0  0  0  0  0
  -24.3618   -9.4218   21.9196 C   0  0  0  0  0  0
  -23.6291   -8.2251   22.0762 C   0  0  0  0  0  0
  -22.4275   -8.0290   21.3546 C   0  0  0  0  0  0
  -21.9918   -9.0265   20.4651 C   0  0  0  0  0  0
  -22.7243  -10.2151   20.3066 C   0  0  0  0  0  0
  -21.6847   -6.0751   22.5279 C   0  0  0  0  0  0
  -21.4008   -6.5650   23.8216 C   0  0  0  0  0  0
  -21.3661   -5.6801   24.9176 C   0  0  0  0  0  0
  -21.6049   -4.3064   24.7222 C   0  0  0  0  0  0
  -21.8817   -3.8159   23.4340 C   0  0  0  0  0  0
  -21.9187   -4.6978   22.3399 C   0  0  0  0  0  0
  -22.7845  -13.5235   21.1869 C   0  0  0  0  0  0
  -22.1659   -4.2165   21.0978 F   0  0  0  0  0  0
  -21.5630   -3.4554   25.7737 F   0  0  0  0  0  0
  -30.0159  -13.3932   20.4162 N   0  0  0  0  0  0
  -26.2990  -12.9396   20.3361 N   0  0  0  0  0  0
  -25.9333  -11.6541   20.5788 N   0  0  0  0  0  0
  -22.0482  -12.8233   22.0415 N   0  0  0  0  0  0
  -25.4234  -15.1921   20.4116 N   0  0  0  0  0  0
  -31.8617  -14.6705   20.1288 O   0  0  0  0  0  0
  -21.6632   -6.8892   21.4238 O   0  0  0  0  0  0
  -22.3542  -14.5546   20.6710 O   0  0  0  0  0  0
  -24.6263  -31.8607   23.2058 C   0  0  0  0  0  0
  -25.9117  -32.4781   23.8379 C   0  0  1  0  0  0
  -27.2212  -27.3290   20.1030 C   0  0  0  0  0  0
  -25.5940  -33.8582   24.2295 N   0  0  0  0  0  0
  -23.4179  -30.4887   21.5496 C   0  0  2  0  0  0
  -24.8631  -28.9514   20.1108 C   0  0  0  0  0  0
  -22.7458  -29.4629   22.4928 C   0  0  0  0  0  0
  -18.0291  -28.1382   22.8496 C   0  0  0  0  0  0
  -24.1482  -36.7283   23.2631 C   0  0  0  0  0  0
  -25.9607  -30.7929   21.3792 C   0  0  0  0  0  0
  -26.0337  -29.4238   20.7174 C   0  0  0  0  0  0
  -27.2143  -28.6226   20.7094 C   0  0  0  0  0  0
  -26.0224  -26.9178   19.4664 C   0  0  0  0  0  0
  -24.8578  -27.7017   19.4809 C   0  0  0  0  0  0
  -23.6311  -29.8299   20.1637 C   0  0  0  0  0  0
  -25.4106  -36.3067   24.0317 C   0  0  1  0  0  0
  -20.5885  -28.3690   23.1277 C   0  0  2  0  0  0
  -20.6772  -26.9409   22.5409 C   0  0  0  0  0  0
  -19.5746  -26.6386   21.5209 C   0  0  0  0  0  0
  -18.1927  -26.7929   22.1620 C   0  0  0  0  0  0
  -19.1541  -28.8851   23.2882 C   0  0  0  0  0  0
  -18.9466  -30.1453   23.8897 C   0  0  0  0  0  0
  -17.6464  -30.6591   24.0567 C   0  0  0  0  0  0
  -25.9055  -34.9441   23.5098 C   0  0  0  0  0  0
  -16.5352  -29.9092   23.6337 C   0  0  0  0  0  0
  -16.7277  -28.6502   23.0373 C   0  0  0  0  0  0
  -26.4516  -31.6592   25.0748 C   0  0  0  0  0  0
  -25.3746  -31.3711   26.1471 C   0  0  0  0  0  0
  -27.0388  -30.3018   24.6215 C   0  0  0  0  0  0
  -27.6074  -32.4336   25.7515 C   0  0  0  0  0  0
  -27.5586  -37.1763   24.8444 C   0  0  0  0  0  0
  -21.4171  -29.3046   22.3666 N   0  0  0  0  0  0
  -26.4266  -37.3786   23.9433 N   0  0  0  0  0  0
  -24.6874  -31.0614   22.1026 N   0  0  0  0  0  0
  -23.4174  -28.8147   23.2998 O   0  0  0  0  0  0
  -28.3380  -26.4736   20.1563 O   0  0  0  0  0  0
  -26.5617  -34.8900   22.4662 O   0  0  0  0  0  0
  -23.5425  -32.1432   23.7372 O   0  0  0  0  0  0
  -32.3034  -18.3780   22.1948 C   0  0  0  0  0  0
  -31.5999  -19.5568   21.8924 C   0  0  0  0  0  0
  -31.7748  -17.1209   21.8604 C   0  0  0  0  0  0
  -29.8072  -18.2205   20.9305 C   0  0  0  0  0  0
  -30.3351  -19.5186   21.2585 C   0  0  0  0  0  0
  -30.5250  -17.0047   21.2100 C   0  0  0  0  0  0
  -29.4180  -21.2570   19.5191 C   0  0  0  0  0  0
  -30.1332  -22.1239   21.7243 C   0  0  0  0  0  0
  -28.5992  -22.5752   19.3081 C   0  0  0  0  0  0
  -29.3099  -23.4370   21.5129 C   0  0  0  0  0  0
  -29.5570  -20.8593   21.0063 C   0  0  2  0  0  0
  -29.1413  -23.8596   20.0234 C   0  0  2  0  0  0
  -31.2426  -25.0908   19.9056 C   0  0  0  0  0  0
  -28.1226  -25.0640   19.7681 C   0  0  0  0  0  0
  -29.9998  -15.6793   20.9182 N   0  0  0  0  0  0
  -30.3869  -24.0936   19.3596 O   0  0  0  0  0  0
  -31.4611  -12.4532   19.1322 H   0  0  0  0  0  0
  -30.3220  -11.3677   19.8767 H   0  0  0  0  0  0
  -29.7449  -11.7622   17.4565 H   0  0  0  0  0  0
  -29.6477  -13.4803   17.7448 H   0  0  0  0  0  0
  -27.8401  -11.3039   18.8477 H   0  0  0  0  0  0
  -27.3617  -12.6056   17.7915 H   0  0  0  0  0  0
  -27.6711  -14.2598   19.5293 H   0  0  0  0  0  0
  -28.7020  -12.0668   21.3929 H   0  0  0  0  0  0
  -28.4631  -13.7356   21.8320 H   0  0  0  0  0  0
  -25.2759   -9.5698   22.4780 H   0  0  0  0  0  0
  -24.0004   -7.4645   22.7480 H   0  0  0  0  0  0
  -21.0855   -8.8785   19.8947 H   0  0  0  0  0  0
  -22.3695  -10.9697   19.6188 H   0  0  0  0  0  0
  -21.2002   -7.6163   23.9719 H   0  0  0  0  0  0
  -21.1488   -6.0537   25.9078 H   0  0  0  0  0  0
  -22.0595   -2.7621   23.2836 H   0  0  0  0  0  0
  -22.4080  -11.9877   22.4792 H   0  0  0  0  0  0
  -21.1101  -13.1274   22.2613 H   0  0  0  0  0  0
  -24.6547  -15.8452   20.5182 H   0  0  0  0  0  0
  -26.2712  -15.6321   20.0779 H   0  0  0  0  0  0
  -26.7182  -32.5445   23.1124 H   0  0  0  0  0  0
  -25.0073  -33.9764   25.0424 H   0  0  0  0  0  0
  -22.7122  -31.3101   21.4110 H   0  0  0  0  0  0
  -23.3768  -35.9590   23.3243 H   0  0  0  0  0  0
  -24.3580  -36.8989   22.2063 H   0  0  0  0  0  0
  -23.7205  -37.6444   23.6713 H   0  0  0  0  0  0
  -26.0936  -31.5584   20.6143 H   0  0  0  0  0  0
  -26.8406  -30.8379   22.0090 H   0  0  0  0  0  0
  -28.1098  -28.9789   21.1990 H   0  0  0  0  0  0
  -25.9391  -25.9716   18.9551 H   0  0  0  0  0  0
  -23.9596  -27.3330   19.0063 H   0  0  0  0  0  0
  -23.7468  -30.6109   19.4115 H   0  0  0  0  0  0
  -22.7514  -29.2601   19.8627 H   0  0  0  0  0  0
  -25.1276  -36.1904   25.0806 H   0  0  0  0  0  0
  -20.9984  -28.3284   24.1397 H   0  0  0  0  0  0
  -20.5685  -26.2301   23.3609 H   0  0  0  0  0  0
  -21.6640  -26.7443   22.1211 H   0  0  0  0  0  0
  -19.6906  -25.6304   21.1244 H   0  0  0  0  0  0
  -19.6682  -27.3186   20.6733 H   0  0  0  0  0  0
  -17.4198  -26.6700   21.4017 H   0  0  0  0  0  0
  -18.0304  -26.0071   22.9012 H   0  0  0  0  0  0
  -19.7945  -30.7274   24.2257 H   0  0  0  0  0  0
  -17.5031  -31.6275   24.5174 H   0  0  0  0  0  0
  -15.5358  -30.2992   23.7669 H   0  0  0  0  0  0
  -15.8676  -28.0813   22.7093 H   0  0  0  0  0  0
  -24.5935  -30.7049   25.7790 H   0  0  0  0  0  0
  -24.8905  -32.2864   26.4884 H   0  0  0  0  0  0
  -25.8075  -30.8900   27.0252 H   0  0  0  0  0  0
  -26.2986  -29.6722   24.1262 H   0  0  0  0  0  0
  -27.4137  -29.7312   25.4726 H   0  0  0  0  0  0
  -27.8824  -30.4325   23.9429 H   0  0  0  0  0  0
  -27.2717  -33.3682   26.2023 H   0  0  0  0  0  0
  -28.3915  -32.6828   25.0351 H   0  0  0  0  0  0
  -28.0706  -31.8502   26.5490 H   0  0  0  0  0  0
  -28.2506  -38.0159   24.7641 H   0  0  0  0  0  0
  -28.1193  -36.2699   24.6094 H   0  0  0  0  0  0
  -27.2324  -37.1189   25.8845 H   0  0  0  0  0  0
  -20.9322  -29.8798   21.6920 H   0  0  0  0  0  0
  -26.0135  -38.2828   24.1569 H   0  0  0  0  0  0
  -33.2573  -18.4384   22.6999 H   0  0  0  0  0  0
  -32.0560  -20.4899   22.1863 H   0  0  0  0  0  0
  -32.3463  -16.2431   22.1254 H   0  0  0  0  0  0
  -28.8371  -18.1609   20.4577 H   0  0  0  0  0  0
  -30.4088  -21.3691   19.0774 H   0  0  0  0  0  0
  -28.9365  -20.4449   18.9730 H   0  0  0  0  0  0
  -30.2125  -21.9297   22.7951 H   0  0  0  0  0  0
  -31.1479  -22.3106   21.3693 H   0  0  0  0  0  0
  -27.5786  -22.3895   19.6483 H   0  0  0  0  0  0
  -28.5145  -22.7613   18.2366 H   0  0  0  0  0  0
  -29.7502  -24.2503   22.0889 H   0  0  0  0  0  0
  -28.3206  -23.2873   21.9472 H   0  0  0  0  0  0
  -28.5558  -20.6905   21.4049 H   0  0  0  0  0  0
  -32.1341  -25.1706   19.2822 H   0  0  0  0  0  0
  -31.5805  -24.8374   20.9093 H   0  0  0  0  0  0
  -30.7736  -26.0722   19.9277 H   0  0  0  0  0  0
  -27.1984  -24.7351   20.2449 H   0  0  0  0  0  0
  -27.9291  -25.0767   18.6948 H   0  0  0  0  0  0
  -29.0041  -15.5537   21.0206 H   0  0  0  0  0  0
  1 25  1  0  0  0
  1 30  2  0  0  0
  1 85  1  0  0  0
  2  3  1  0  0  0
  2 25  1  0  0  0
  2 87  1  0  0  0
  2 88  1  0  0  0
  3  4  1  0  0  0
  3 89  1  0  0  0
  3 90  1  0  0  0
  4  5  1  0  0  0
  4 91  1  0  0  0
  4 92  1  0  0  0
  5  6  1  0  0  0
  5 26  1  0  0  0
  5 93  1  0  0  0
  6 25  1  0  0  0
  6 94  1  0  0  0
  6 95  1  0  0  0
  7  8  2  0  0  0
  7 26  1  0  0  0
  7 29  1  0  0  0
  8  9  1  0  0  0
  8 22  1  0  0  0
  9 10  1  0  0  0
  9 27  2  0  0  0
 10 11  2  0  0  0
 10 15  1  0  0  0
 11 12  1  0  0  0
 11 96  1  0  0  0
 12 13  2  0  0  0
 12 97  1  0  0  0
 13 14  1  0  0  0
 13 31  1  0  0  0
 14 15  2  0  0  0
 14 98  1  0  0  0
 15 99  1  0  0  0
 16 17  2  0  0  0
 16 21  1  0  0  0
 16 31  1  0  0  0
 17 18  1  0  0  0
 17100  1  0  0  0
 18 19  2  0  0  0
 18101  1  0  0  0
 19 20  1  0  0  0
 19 24  1  0  0  0
 20 21  2  0  0  0
 20102  1  0  0  0
 21 23  1  0  0  0
 22 28  1  0  0  0
 22 32  2  0  0  0
 26 27  1  0  0  0
 28103  1  0  0  0
 28104  1  0  0  0
 29105  1  0  0  0
 29106  1  0  0  0
 33 34  1  0  0  0
 33 66  1  0  0  0
 33 70  2  0  0  0
 34 36  1  0  0  0
 34 59  1  0  0  0
 34107  1  0  0  0
 35 44  2  0  0  0
 35 45  1  0  0  0
 35 68  1  0  0  0
 36 56  1  0  0  0
 36108  1  0  0  0
 37 39  1  0  0  0
 37 47  1  0  0  0
 37 66  1  0  0  0
 37109  1  0  0  0
 38 43  2  0  0  0
 38 46  1  0  0  0
 38 47  1  0  0  0
 39 64  1  0  0  0
 39 67  2  0  0  0
 40 52  1  0  0  0
 40 53  2  0  0  0
 40 58  1  0  0  0
 41110  1  0  0  0
 41111  1  0  0  0
 41112  1  0  0  0
 41 48  1  0  0  0
 42 43  1  0  0  0
 42 66  1  0  0  0
 42113  1  0  0  0
 42114  1  0  0  0
 43 44  1  0  0  0
 44115  1  0  0  0
 45 46  2  0  0  0
 45116  1  0  0  0
 46117  1  0  0  0
 47118  1  0  0  0
 47119  1  0  0  0
 48 56  1  0  0  0
 48 65  1  0  0  0
 48120  1  0  0  0
 49 50  1  0  0  0
 49 53  1  0  0  0
 49 64  1  0  0  0
 49121  1  0  0  0
 50 51  1  0  0  0
 50122  1  0  0  0
 50123  1  0  0  0
 51 52  1  0  0  0
 51124  1  0  0  0
 51125  1  0  0  0
 52126  1  0  0  0
 52127  1  0  0  0
 53 54  1  0  0  0
 54 55  2  0  0  0
 54128  1  0  0  0
 55 57  1  0  0  0
 55129  1  0  0  0
 56 69  2  0  0  0
 57 58  2  0  0  0
 57130  1  0  0  0
 58131  1  0  0  0
 59 60  1  0  0  0
 59 61  1  0  0  0
 59 62  1  0  0  0
 60132  1  0  0  0
 60133  1  0  0  0
 60134  1  0  0  0
 61135  1  0  0  0
 61136  1  0  0  0
 61137  1  0  0  0
 62138  1  0  0  0
 62139  1  0  0  0
 62140  1  0  0  0
 63 65  1  0  0  0
 63141  1  0  0  0
 63142  1  0  0  0
 63143  1  0  0  0
 64144  1  0  0  0
 65145  1  0  0  0
 68 84  1  0  0  0
 71 72  2  0  0  0
 71 73  1  0  0  0
 71146  1  0  0  0
 72 75  1  0  0  0
 72147  1  0  0  0
 73 76  2  0  0  0
 73148  1  0  0  0
 74 75  2  0  0  0
 74 76  1  0  0  0
 74149  1  0  0  0
 75 81  1  0  0  0
 76 85  1  0  0  0
 77 79  1  0  0  0
 77 81  1  0  0  0
 77150  1  0  0  0
 77151  1  0  0  0
 78 80  1  0  0  0
 78 81  1  0  0  0
 78152  1  0  0  0
 78153  1  0  0  0
 79 82  1  0  0  0
 79154  1  0  0  0
 79155  1  0  0  0
 80 82  1  0  0  0
 80156  1  0  0  0
 80157  1  0  0  0
 81158  1  0  0  0
 82 84  1  0  0  0
 82 86  1  0  0  0
 83 86  1  0  0  0
 83159  1  0  0  0
 83160  1  0  0  0
 83161  1  0  0  0
 84162  1  0  0  0
 84163  1  0  0  0
 85164  1  0  0  0
M  ISO  4   1 100  68 101  84 101  85 100
M  END
> <chiral flag>
0

> <version>
0

> <s_m_source_file>
/data/baiqing/PycharmProjects/Reinvent-master-3.2/result/LINK_invent/BTK/process_docking_weight1_custom_product_contain_oxygen_bond_distance_aromatic_linkinvent_7_9_3/rearranged_h_0160.sdf

> <i_m_source_file_index>
67

> <r_mmod_Potential_Energy-OPLS-2005>
78.4158172607422

> <r_mmod_Stretch_Energy-OPLS-2005>
74.2648620605469

> <r_mmod_Bend_Energy-OPLS-2005>
144.966415405273

> <r_mmod_Torsional_Energy-OPLS-2005>
237.212219238281

> <r_mmod_Improper_Torsional_Energy-OPLS-2005>
4.63951301574707

> <r_mmod_Van_der_Waal_Energy-OPLS-2005>
163.539916992188

> <r_mmod_Electrostatic_Energy-OPLS-2005>
-376.734710693359

> <r_mmod_Solvation_Energy-OPLS-2005>
-208.397491455078

> <b_mmod_Minimization_Converged-OPLS-2005>
0

> <r_mmod_RMS_Derivative-OPLS-2005>
2.06654739379883

$$$$
68
                    3D
 Structure written by MMmdl.
166175  0  0  1  0            999 V2000
  -30.6663  -14.4912   20.5450 C   0  0  0  0  0  0
  -30.4258  -12.3042   19.4360 C   0  0  0  0  0  0
  -29.5023  -12.5032   18.2153 C   0  0  0  0  0  0
  -28.0200  -12.3693   18.6191 C   0  0  0  0  0  0
  -27.6631  -13.2063   19.8767 C   0  0  2  0  0  0
  -28.7007  -12.9818   21.0007 C   0  0  0  0  0  0
  -25.2593  -13.8166   20.5674 C   0  0  0  0  0  0
  -24.1839  -13.0433   20.9157 C   0  0  0  0  0  0
  -24.6396  -11.6905   20.8730 C   0  0  0  0  0  0
  -23.9058  -10.4290   21.0396 C   0  0  0  0  0  0
  -24.3611   -9.4207   21.9171 C   0  0  0  0  0  0
  -23.6291   -8.2242   22.0748 C   0  0  0  0  0  0
  -22.4270   -8.0282   21.3546 C   0  0  0  0  0  0
  -21.9902   -9.0248   20.4641 C   0  0  0  0  0  0
  -22.7230  -10.2129   20.3046 C   0  0  0  0  0  0
  -21.6852   -6.0730   22.5280 C   0  0  0  0  0  0
  -21.4011   -6.5636   23.8213 C   0  0  0  0  0  0
  -21.3664   -5.6791   24.9176 C   0  0  0  0  0  0
  -21.6048   -4.3053   24.7228 C   0  0  0  0  0  0
  -21.8820   -3.8143   23.4350 C   0  0  0  0  0  0
  -21.9190   -4.6956   22.3406 C   0  0  0  0  0  0
  -22.7863  -13.5232   21.1830 C   0  0  0  0  0  0
  -22.1659   -4.2145   21.0983 F   0  0  0  0  0  0
  -21.5628   -3.4539   25.7739 F   0  0  0  0  0  0
  -30.0335  -13.2890   20.4559 N   0  0  0  0  0  0
  -26.3026  -12.9332   20.3357 N   0  0  0  0  0  0
  -25.9320  -11.6490   20.5754 N   0  0  0  0  0  0
  -22.0505  -12.8238   22.0403 N   0  0  0  0  0  0
  -25.4322  -15.1884   20.4113 N   0  0  0  0  0  0
  -31.7939  -14.6898   20.0802 O   0  0  0  0  0  0
  -21.6645   -6.8873   21.4243 O   0  0  0  0  0  0
  -22.3555  -14.5538   20.6682 O   0  0  0  0  0  0
  -24.6169  -31.8657   23.2066 C   0  0  0  0  0  0
  -25.9062  -32.4810   23.8360 C   0  0  1  0  0  0
  -27.2353  -27.4247   20.1000 C   0  0  0  0  0  0
  -25.5913  -33.8607   24.2301 N   0  0  0  0  0  0
  -23.4045  -30.4891   21.5472 C   0  0  2  0  0  0
  -24.8513  -28.9484   20.1171 C   0  0  0  0  0  0
  -22.7418  -29.4661   22.4980 C   0  0  0  0  0  0
  -18.0278  -28.1387   22.8500 C   0  0  0  0  0  0
  -24.1490  -36.7307   23.2640 C   0  0  0  0  0  0
  -25.9340  -30.8277   21.3609 C   0  0  0  0  0  0
  -26.0119  -29.4604   20.7117 C   0  0  0  0  0  0
  -27.2095  -28.7075   20.6967 C   0  0  0  0  0  0
  -26.0591  -26.9246   19.5058 C   0  0  0  0  0  0
  -24.8698  -27.6795   19.5108 C   0  0  0  0  0  0
  -23.6139  -29.8171   20.1633 C   0  0  0  0  0  0
  -25.4108  -36.3102   24.0335 C   0  0  1  0  0  0
  -20.5869  -28.3680   23.1322 C   0  0  2  0  0  0
  -20.6770  -26.9414   22.5423 C   0  0  0  0  0  0
  -19.5746  -26.6394   21.5228 C   0  0  0  0  0  0
  -18.1924  -26.7929   22.1636 C   0  0  0  0  0  0
  -19.1523  -28.8849   23.2908 C   0  0  0  0  0  0
  -18.9452  -30.1457   23.8915 C   0  0  0  0  0  0
  -17.6455  -30.6593   24.0576 C   0  0  0  0  0  0
  -25.9040  -34.9474   23.5114 C   0  0  0  0  0  0
  -16.5347  -29.9097   23.6333 C   0  0  0  0  0  0
  -16.7266  -28.6514   23.0345 C   0  0  0  0  0  0
  -26.4480  -31.6591   25.0693 C   0  0  0  0  0  0
  -25.3746  -31.3705   26.1447 C   0  0  0  0  0  0
  -27.0311  -30.3030   24.6079 C   0  0  0  0  0  0
  -27.6046  -32.4316   25.7462 C   0  0  0  0  0  0
  -27.5575  -37.1809   24.8466 C   0  0  0  0  0  0
  -21.4142  -29.3042   22.3721 N   0  0  0  0  0  0
  -26.4293  -37.3792   23.9405 N   0  0  0  0  0  0
  -24.6698  -31.0754   22.0967 N   0  0  0  0  0  0
  -23.4188  -28.8211   23.3032 O   0  0  0  0  0  0
  -28.3935  -26.6799   20.0569 O   0  0  0  0  0  0
  -26.5605  -34.8940   22.4682 O   0  0  0  0  0  0
  -23.5362  -32.1421   23.7465 O   0  0  0  0  0  0
  -30.1633  -18.0147   21.2930 C   0  0  0  0  0  0
  -29.4682  -17.1770   19.3184 C   0  0  0  0  0  0
  -29.8833  -16.8245   20.5665 C   0  0  0  0  0  0
  -30.0185  -19.0942   20.4415 C   0  0  0  0  0  0
  -28.6045  -24.1908   20.0945 C   0  0  0  0  0  0
  -32.3480  -20.3875   22.1341 C   0  0  0  0  0  0
  -32.8709  -20.8556   20.7795 C   0  0  0  0  0  0
  -30.8715  -20.7855   22.1240 C   0  0  0  0  0  0
  -31.6532  -20.9111   19.8447 C   0  0  0  0  0  0
  -30.3767  -20.5810   20.6655 C   0  0  0  0  0  0
  -29.1823  -19.2839   18.0198 C   0  0  0  0  0  0
  -29.4259  -23.0803   20.7871 C   0  0  0  0  0  0
  -28.3991  -25.5028   20.8900 C   0  0  0  0  0  0
  -29.2218  -21.5984   20.3144 C   0  0  0  0  0  0
  -29.5458  -18.5625   19.2286 N   0  0  0  0  0  0
  -29.9329  -15.4921   21.0764 N   0  0  0  0  0  0
  -28.1397  -24.0403   18.9600 O   0  0  0  0  0  0
  -31.4713  -12.4044   19.1415 H   0  0  0  0  0  0
  -30.3249  -11.2927   19.8322 H   0  0  0  0  0  0
  -29.7450  -11.7775   17.4375 H   0  0  0  0  0  0
  -29.6771  -13.4885   17.7807 H   0  0  0  0  0  0
  -27.8254  -11.3137   18.8097 H   0  0  0  0  0  0
  -27.3762  -12.6503   17.7849 H   0  0  0  0  0  0
  -27.7081  -14.2555   19.5838 H   0  0  0  0  0  0
  -28.6750  -11.9448   21.3392 H   0  0  0  0  0  0
  -28.4601  -13.5801   21.8804 H   0  0  0  0  0  0
  -25.2748   -9.5691   22.4748 H   0  0  0  0  0  0
  -24.0001   -7.4640   22.7475 H   0  0  0  0  0  0
  -21.0825   -8.8762   19.8957 H   0  0  0  0  0  0
  -22.3675  -10.9663   19.6161 H   0  0  0  0  0  0
  -21.2006   -7.6146   23.9713 H   0  0  0  0  0  0
  -21.1485   -6.0524   25.9082 H   0  0  0  0  0  0
  -22.0596   -2.7606   23.2852 H   0  0  0  0  0  0
  -22.4118  -11.9895   22.4789 H   0  0  0  0  0  0
  -21.1124  -13.1272   22.2600 H   0  0  0  0  0  0
  -24.6693  -15.8461   20.5295 H   0  0  0  0  0  0
  -26.2944  -15.6317   20.1192 H   0  0  0  0  0  0
  -26.7129  -32.5511   23.1119 H   0  0  0  0  0  0
  -25.0074  -33.9758   25.0453 H   0  0  0  0  0  0
  -22.6960  -31.3081   21.4059 H   0  0  0  0  0  0
  -23.3750  -35.9644   23.3314 H   0  0  0  0  0  0
  -24.3579  -36.8907   22.2052 H   0  0  0  0  0  0
  -23.7251  -37.6517   23.6648 H   0  0  0  0  0  0
  -26.0490  -31.5914   20.5905 H   0  0  0  0  0  0
  -26.8208  -30.8798   21.9798 H   0  0  0  0  0  0
  -28.1083  -29.1037   21.1489 H   0  0  0  0  0  0
  -26.0682  -25.9551   19.0277 H   0  0  0  0  0  0
  -23.9788  -27.2814   19.0454 H   0  0  0  0  0  0
  -23.7224  -30.5906   19.4023 H   0  0  0  0  0  0
  -22.7373  -29.2379   19.8670 H   0  0  0  0  0  0
  -25.1290  -36.1952   25.0825 H   0  0  0  0  0  0
  -20.9968  -28.3242   24.1440 H   0  0  0  0  0  0
  -20.5698  -26.2283   23.3609 H   0  0  0  0  0  0
  -21.6637  -26.7466   22.1197 H   0  0  0  0  0  0
  -19.6906  -25.6313   21.1241 H   0  0  0  0  0  0
  -19.6677  -27.3228   20.6779 H   0  0  0  0  0  0
  -17.4195  -26.6705   21.4031 H   0  0  0  0  0  0
  -18.0304  -26.0065   22.9023 H   0  0  0  0  0  0
  -19.7929  -30.7275   24.2283 H   0  0  0  0  0  0
  -17.5011  -31.6271   24.5180 H   0  0  0  0  0  0
  -15.5351  -30.3008   23.7642 H   0  0  0  0  0  0
  -15.8667  -28.0853   22.7034 H   0  0  0  0  0  0
  -24.5903  -30.7069   25.7780 H   0  0  0  0  0  0
  -24.8968  -32.2876   26.4906 H   0  0  0  0  0  0
  -25.8100  -30.8855   27.0195 H   0  0  0  0  0  0
  -26.2852  -29.6783   24.1152 H   0  0  0  0  0  0
  -27.4100  -29.7264   25.4527 H   0  0  0  0  0  0
  -27.8677  -30.4334   23.9210 H   0  0  0  0  0  0
  -27.2639  -33.3600   26.2064 H   0  0  0  0  0  0
  -28.3843  -32.6912   25.0284 H   0  0  0  0  0  0
  -28.0735  -31.8433   26.5362 H   0  0  0  0  0  0
  -28.2611  -38.0094   24.7502 H   0  0  0  0  0  0
  -28.1059  -36.2628   24.6305 H   0  0  0  0  0  0
  -27.2296  -37.1465   25.8874 H   0  0  0  0  0  0
  -20.9308  -29.8754   21.6929 H   0  0  0  0  0  0
  -26.0178  -38.2868   24.1404 H   0  0  0  0  0  0
  -30.4938  -18.0646   22.3203 H   0  0  0  0  0  0
  -29.1297  -16.5785   18.4822 H   0  0  0  0  0  0
  -32.8955  -20.8351   22.9653 H   0  0  0  0  0  0
  -32.4540  -19.3060   22.2177 H   0  0  0  0  0  0
  -33.6462  -20.1887   20.4008 H   0  0  0  0  0  0
  -33.3123  -21.8492   20.8690 H   0  0  0  0  0  0
  -30.8507  -21.8307   22.4232 H   0  0  0  0  0  0
  -30.2716  -20.2564   22.8653 H   0  0  0  0  0  0
  -31.7919  -20.2296   19.0061 H   0  0  0  0  0  0
  -31.6009  -21.9078   19.4072 H   0  0  0  0  0  0
  -28.2270  -19.7894   18.1620 H   0  0  0  0  0  0
  -29.0704  -18.5897   17.1864 H   0  0  0  0  0  0
  -29.9473  -20.0104   17.7520 H   0  0  0  0  0  0
  -29.2302  -23.1527   21.8572 H   0  0  0  0  0  0
  -30.4695  -23.3607   20.6519 H   0  0  0  0  0  0
  -29.2148  -25.6001   21.6065 H   0  0  0  0  0  0
  -27.4801  -25.4230   21.4731 H   0  0  0  0  0  0
  -28.2893  -21.2369   20.7479 H   0  0  0  0  0  0
  -29.0633  -21.6066   19.2384 H   0  0  0  0  0  0
  -29.1061  -15.1846   21.5675 H   0  0  0  0  0  0
  1 25  1  0  0  0
  1 30  2  0  0  0
  1 86  1  0  0  0
  2  3  1  0  0  0
  2 25  1  0  0  0
  2 88  1  0  0  0
  2 89  1  0  0  0
  3  4  1  0  0  0
  3 90  1  0  0  0
  3 91  1  0  0  0
  4  5  1  0  0  0
  4 92  1  0  0  0
  4 93  1  0  0  0
  5  6  1  0  0  0
  5 26  1  0  0  0
  5 94  1  0  0  0
  6 25  1  0  0  0
  6 95  1  0  0  0
  6 96  1  0  0  0
  7  8  2  0  0  0
  7 26  1  0  0  0
  7 29  1  0  0  0
  8  9  1  0  0  0
  8 22  1  0  0  0
  9 10  1  0  0  0
  9 27  2  0  0  0
 10 11  2  0  0  0
 10 15  1  0  0  0
 11 12  1  0  0  0
 11 97  1  0  0  0
 12 13  2  0  0  0
 12 98  1  0  0  0
 13 14  1  0  0  0
 13 31  1  0  0  0
 14 15  2  0  0  0
 14 99  1  0  0  0
 15100  1  0  0  0
 16 17  2  0  0  0
 16 21  1  0  0  0
 16 31  1  0  0  0
 17 18  1  0  0  0
 17101  1  0  0  0
 18 19  2  0  0  0
 18102  1  0  0  0
 19 20  1  0  0  0
 19 24  1  0  0  0
 20 21  2  0  0  0
 20103  1  0  0  0
 21 23  1  0  0  0
 22 28  1  0  0  0
 22 32  2  0  0  0
 26 27  1  0  0  0
 28104  1  0  0  0
 28105  1  0  0  0
 29106  1  0  0  0
 29107  1  0  0  0
 33 34  1  0  0  0
 33 66  1  0  0  0
 33 70  2  0  0  0
 34 36  1  0  0  0
 34 59  1  0  0  0
 34108  1  0  0  0
 35 44  2  0  0  0
 35 45  1  0  0  0
 35 68  1  0  0  0
 36 56  1  0  0  0
 36109  1  0  0  0
 37 39  1  0  0  0
 37 47  1  0  0  0
 37 66  1  0  0  0
 37110  1  0  0  0
 38 43  2  0  0  0
 38 46  1  0  0  0
 38 47  1  0  0  0
 39 64  1  0  0  0
 39 67  2  0  0  0
 40 52  1  0  0  0
 40 53  2  0  0  0
 40 58  1  0  0  0
 41111  1  0  0  0
 41112  1  0  0  0
 41113  1  0  0  0
 41 48  1  0  0  0
 42 43  1  0  0  0
 42 66  1  0  0  0
 42114  1  0  0  0
 42115  1  0  0  0
 43 44  1  0  0  0
 44116  1  0  0  0
 45 46  2  0  0  0
 45117  1  0  0  0
 46118  1  0  0  0
 47119  1  0  0  0
 47120  1  0  0  0
 48 56  1  0  0  0
 48 65  1  0  0  0
 48121  1  0  0  0
 49 50  1  0  0  0
 49 53  1  0  0  0
 49 64  1  0  0  0
 49122  1  0  0  0
 50 51  1  0  0  0
 50123  1  0  0  0
 50124  1  0  0  0
 51 52  1  0  0  0
 51125  1  0  0  0
 51126  1  0  0  0
 52127  1  0  0  0
 52128  1  0  0  0
 53 54  1  0  0  0
 54 55  2  0  0  0
 54129  1  0  0  0
 55 57  1  0  0  0
 55130  1  0  0  0
 56 69  2  0  0  0
 57 58  2  0  0  0
 57131  1  0  0  0
 58132  1  0  0  0
 59 60  1  0  0  0
 59 61  1  0  0  0
 59 62  1  0  0  0
 60133  1  0  0  0
 60134  1  0  0  0
 60135  1  0  0  0
 61136  1  0  0  0
 61137  1  0  0  0
 61138  1  0  0  0
 62139  1  0  0  0
 62140  1  0  0  0
 62141  1  0  0  0
 63 65  1  0  0  0
 63142  1  0  0  0
 63143  1  0  0  0
 63144  1  0  0  0
 64145  1  0  0  0
 65146  1  0  0  0
 68 83  1  0  0  0
 71 73  1  0  0  0
 71 74  2  0  0  0
 71147  1  0  0  0
 72 73  2  0  0  0
 72 85  1  0  0  0
 72148  1  0  0  0
 73 86  1  0  0  0
 74 80  1  0  0  0
 74 85  1  0  0  0
 75 82  1  0  0  0
 75 83  1  0  0  0
 75 87  2  0  0  0
 76 77  1  0  0  0
 76 78  1  0  0  0
 76149  1  0  0  0
 76150  1  0  0  0
 77 79  1  0  0  0
 77151  1  0  0  0
 77152  1  0  0  0
 78 80  1  0  0  0
 78153  1  0  0  0
 78154  1  0  0  0
 79 80  1  0  0  0
 79155  1  0  0  0
 79156  1  0  0  0
 80 84  1  0  0  0
 81 85  1  0  0  0
 81157  1  0  0  0
 81158  1  0  0  0
 81159  1  0  0  0
 82 84  1  0  0  0
 82160  1  0  0  0
 82161  1  0  0  0
 83162  1  0  0  0
 83163  1  0  0  0
 84164  1  0  0  0
 84165  1  0  0  0
 86166  1  0  0  0
M  ISO  4   1 100  68 101  83 101  86 100
M  END
> <chiral flag>
0

> <version>
0

> <s_m_source_file>
/data/baiqing/PycharmProjects/Reinvent-master-3.2/result/LINK_invent/BTK/process_docking_weight1_custom_product_contain_oxygen_bond_distance_aromatic_linkinvent_7_9_3/rearranged_h_0160.sdf

> <i_m_source_file_index>
68

> <r_mmod_Potential_Energy-OPLS-2005>
68.8744812011719

> <r_mmod_Stretch_Energy-OPLS-2005>
46.1993064880371

> <r_mmod_Bend_Energy-OPLS-2005>
133.26969909668

> <r_mmod_Torsional_Energy-OPLS-2005>
345.369445800781

> <r_mmod_Improper_Torsional_Energy-OPLS-2005>
5.15537977218628

> <r_mmod_Van_der_Waal_Energy-OPLS-2005>
128.667556762695

> <r_mmod_Electrostatic_Energy-OPLS-2005>
-379.506958007812

> <r_mmod_Solvation_Energy-OPLS-2005>
-224.027877807617

> <b_mmod_Minimization_Converged-OPLS-2005>
0

> <r_mmod_RMS_Derivative-OPLS-2005>
1.65930438041687

$$$$
69
                    3D
 Structure written by MMmdl.
163173  0  0  1  0            999 V2000
  -31.0148  -14.3072   20.7813 C   0  0  0  0  0  0
  -30.2321  -12.1436   19.2173 C   0  0  0  0  0  0
  -29.2949  -12.4154   18.0538 C   0  0  0  0  0  0
  -27.8614  -12.3617   18.5564 C   0  0  0  0  0  0
  -27.6390  -13.1789   19.8487 C   0  0  2  0  0  0
  -28.7530  -12.8900   20.8871 C   0  0  0  0  0  0
  -25.2572  -13.8151   20.5806 C   0  0  0  0  0  0
  -24.1802  -13.0451   20.9282 C   0  0  0  0  0  0
  -24.6328  -11.6910   20.8882 C   0  0  0  0  0  0
  -23.9006  -10.4294   21.0476 C   0  0  0  0  0  0
  -24.3577   -9.4195   21.9225 C   0  0  0  0  0  0
  -23.6272   -8.2221   22.0759 C   0  0  0  0  0  0
  -22.4259   -8.0267   21.3541 C   0  0  0  0  0  0
  -21.9893   -9.0246   20.4648 C   0  0  0  0  0  0
  -22.7202  -10.2140   20.3090 C   0  0  0  0  0  0
  -21.6846   -6.0729   22.5277 C   0  0  0  0  0  0
  -21.4009   -6.5636   23.8210 C   0  0  0  0  0  0
  -21.3657   -5.6791   24.9174 C   0  0  0  0  0  0
  -21.6046   -4.3054   24.7226 C   0  0  0  0  0  0
  -21.8821   -3.8143   23.4347 C   0  0  0  0  0  0
  -21.9190   -4.6958   22.3402 C   0  0  0  0  0  0
  -22.7820  -13.5257   21.1865 C   0  0  0  0  0  0
  -22.1659   -4.2141   21.0981 F   0  0  0  0  0  0
  -21.5630   -3.4542   25.7742 F   0  0  0  0  0  0
  -30.0894  -13.2035   20.2524 N   0  0  0  0  0  0
  -26.2990  -12.9272   20.3626 N   0  0  0  0  0  0
  -25.9258  -11.6462   20.6052 N   0  0  0  0  0  0
  -22.0430  -12.8262   22.0403 N   0  0  0  0  0  0
  -25.4309  -15.1857   20.4090 N   0  0  0  0  0  0
  -32.0518  -15.2813   20.6325 O   0  0  0  0  0  0
  -21.6626   -6.8866   21.4235 O   0  0  0  0  0  0
  -22.3531  -14.5558   20.6684 O   0  0  0  0  0  0
  -24.6192  -31.8694   23.2135 C   0  0  0  0  0  0
  -25.9079  -32.4829   23.8420 C   0  0  1  0  0  0
  -27.2215  -27.4107   20.0537 C   0  0  0  0  0  0
  -25.5929  -33.8628   24.2344 N   0  0  0  0  0  0
  -23.4056  -30.5000   21.5581 C   0  0  2  0  0  0
  -24.8439  -28.9748   20.1175 C   0  0  0  0  0  0
  -22.7427  -29.4677   22.4997 C   0  0  0  0  0  0
  -18.0279  -28.1376   22.8490 C   0  0  0  0  0  0
  -24.1488  -36.7314   23.2634 C   0  0  0  0  0  0
  -25.9439  -30.8206   21.3770 C   0  0  0  0  0  0
  -26.0145  -29.4570   20.7158 C   0  0  0  0  0  0
  -27.2038  -28.6807   20.6897 C   0  0  0  0  0  0
  -26.0133  -26.9651   19.4531 C   0  0  0  0  0  0
  -24.8383  -27.7250   19.4913 C   0  0  0  0  0  0
  -23.6126  -29.8474   20.1700 C   0  0  0  0  0  0
  -25.4110  -36.3115   24.0336 C   0  0  1  0  0  0
  -20.5871  -28.3669   23.1308 C   0  0  2  0  0  0
  -20.6771  -26.9405   22.5408 C   0  0  0  0  0  0
  -19.5746  -26.6386   21.5208 C   0  0  0  0  0  0
  -18.1927  -26.7922   22.1625 C   0  0  0  0  0  0
  -19.1528  -28.8839   23.2897 C   0  0  0  0  0  0
  -18.9454  -30.1444   23.8910 C   0  0  0  0  0  0
  -17.6456  -30.6580   24.0565 C   0  0  0  0  0  0
  -25.9042  -34.9479   23.5132 C   0  0  0  0  0  0
  -16.5348  -29.9083   23.6325 C   0  0  0  0  0  0
  -16.7268  -28.6499   23.0347 C   0  0  0  0  0  0
  -26.4484  -31.6605   25.0752 C   0  0  0  0  0  0
  -25.3736  -31.3724   26.1491 C   0  0  0  0  0  0
  -27.0307  -30.3036   24.6149 C   0  0  0  0  0  0
  -27.6062  -32.4318   25.7513 C   0  0  0  0  0  0
  -27.5581  -37.1817   24.8465 C   0  0  0  0  0  0
  -21.4154  -29.3044   22.3723 N   0  0  0  0  0  0
  -26.4297  -37.3797   23.9404 N   0  0  0  0  0  0
  -24.6751  -31.0768   22.1067 N   0  0  0  0  0  0
  -23.4193  -28.8195   23.3024 O   0  0  0  0  0  0
  -28.3807  -26.6351   20.0237 O   0  0  0  0  0  0
  -26.5594  -34.8925   22.4687 O   0  0  0  0  0  0
  -23.5376  -32.1470   23.7505 O   0  0  0  0  0  0
  -31.6608  -20.3947   19.4823 C   0  0  0  0  0  0
  -31.1185  -21.6996   19.4407 C   0  0  0  0  0  0
  -29.1173  -20.8078   18.3790 C   0  0  0  0  0  0
  -30.9416  -19.2698   19.0185 C   0  0  0  0  0  0
  -29.8266  -21.9146   18.9060 C   0  0  0  0  0  0
  -29.6594  -19.5070   18.4516 C   0  0  0  0  0  0
  -30.3376  -17.1245   18.6631 C   0  0  0  0  0  0
  -29.4075  -24.3574   19.5031 C   0  0  0  0  0  0
  -32.7246  -13.4442   19.3322 C   0  0  0  0  0  0
  -31.6977  -14.6157   18.3095 C   0  0  0  0  0  0
  -32.2280  -13.2021   21.1925 C   0  0  0  0  0  0
  -29.9180  -15.4757   20.8776 C   0  0  0  0  0  0
  -30.2988  -15.6439   18.9838 C   0  0  1  0  0  0
  -28.2444  -25.3563   19.3536 C   0  0  0  0  0  0
  -31.3282  -17.9284   19.0892 N   0  0  0  0  0  0
  -30.9112  -14.2743   21.8026 N   0  0  0  0  0  0
  -29.1692  -23.1832   18.8738 N   0  0  0  0  0  0
  -30.4281  -24.6314   20.1408 O   0  0  0  0  0  0
  -28.9496  -17.9659   17.9498 S   0  0  0  0  0  0
  -31.1751  -11.8516   18.8034 H   0  0  0  0  0  0
  -29.9586  -11.1824   19.6561 H   0  0  0  0  0  0
  -29.4307  -11.6512   17.2871 H   0  0  0  0  0  0
  -29.4670  -13.3593   17.5523 H   0  0  0  0  0  0
  -27.6236  -11.3116   18.7312 H   0  0  0  0  0  0
  -27.1762  -12.6959   17.7761 H   0  0  0  0  0  0
  -27.6858  -14.2280   19.5672 H   0  0  0  0  0  0
  -28.7081  -11.8500   21.2145 H   0  0  0  0  0  0
  -28.5485  -13.4398   21.8063 H   0  0  0  0  0  0
  -25.2712   -9.5679   22.4812 H   0  0  0  0  0  0
  -23.9990   -7.4604   22.7462 H   0  0  0  0  0  0
  -21.0834   -8.8763   19.8939 H   0  0  0  0  0  0
  -22.3661  -10.9693   19.6213 H   0  0  0  0  0  0
  -21.1999   -7.6144   23.9713 H   0  0  0  0  0  0
  -21.1476   -6.0521   25.9077 H   0  0  0  0  0  0
  -22.0601   -2.7605   23.2850 H   0  0  0  0  0  0
  -22.4027  -11.9933   22.4824 H   0  0  0  0  0  0
  -21.1038  -13.1292   22.2561 H   0  0  0  0  0  0
  -24.6662  -15.8438   20.5137 H   0  0  0  0  0  0
  -26.2908  -15.6248   20.1062 H   0  0  0  0  0  0
  -26.7145  -32.5522   23.1174 H   0  0  0  0  0  0
  -25.0087  -33.9794   25.0495 H   0  0  0  0  0  0
  -22.6959  -31.3193   21.4259 H   0  0  0  0  0  0
  -23.3745  -35.9654   23.3318 H   0  0  0  0  0  0
  -24.3581  -36.8903   22.2044 H   0  0  0  0  0  0
  -23.7247  -37.6529   23.6630 H   0  0  0  0  0  0
  -26.0680  -31.5891   20.6126 H   0  0  0  0  0  0
  -26.8285  -30.8640   22.0006 H   0  0  0  0  0  0
  -28.1059  -29.0529   21.1552 H   0  0  0  0  0  0
  -25.9209  -26.0292   18.9252 H   0  0  0  0  0  0
  -23.9391  -27.3482   19.0229 H   0  0  0  0  0  0
  -23.7285  -30.6295   19.4188 H   0  0  0  0  0  0
  -22.7326  -29.2774   19.8664 H   0  0  0  0  0  0
  -25.1283  -36.1986   25.0829 H   0  0  0  0  0  0
  -20.9961  -28.3230   24.1429 H   0  0  0  0  0  0
  -20.5677  -26.2275   23.3594 H   0  0  0  0  0  0
  -21.6642  -26.7449   22.1198 H   0  0  0  0  0  0
  -19.6910  -25.6302   21.1225 H   0  0  0  0  0  0
  -19.6679  -27.3208   20.6746 H   0  0  0  0  0  0
  -17.4193  -26.6664   21.4032 H   0  0  0  0  0  0
  -18.0337  -26.0061   22.9020 H   0  0  0  0  0  0
  -19.7931  -30.7255   24.2286 H   0  0  0  0  0  0
  -17.5012  -31.6261   24.5162 H   0  0  0  0  0  0
  -15.5349  -30.2988   23.7638 H   0  0  0  0  0  0
  -15.8669  -28.0822   22.7053 H   0  0  0  0  0  0
  -24.5915  -30.7062   25.7830 H   0  0  0  0  0  0
  -24.8921  -32.2885   26.4924 H   0  0  0  0  0  0
  -25.8081  -30.8906   27.0259 H   0  0  0  0  0  0
  -26.2863  -29.6814   24.1167 H   0  0  0  0  0  0
  -27.4020  -29.7256   25.4620 H   0  0  0  0  0  0
  -27.8729  -30.4337   23.9349 H   0  0  0  0  0  0
  -27.2687  -33.3609   26.2116 H   0  0  0  0  0  0
  -28.3860  -32.6889   25.0333 H   0  0  0  0  0  0
  -28.0741  -31.8424   26.5407 H   0  0  0  0  0  0
  -28.2613  -38.0100   24.7497 H   0  0  0  0  0  0
  -28.1062  -36.2633   24.6310 H   0  0  0  0  0  0
  -27.2297  -37.1493   25.8868 H   0  0  0  0  0  0
  -20.9311  -29.8792   21.6970 H   0  0  0  0  0  0
  -26.0188  -38.2879   24.1395 H   0  0  0  0  0  0
  -32.6393  -20.2410   19.9132 H   0  0  0  0  0  0
  -31.7036  -22.5176   19.8366 H   0  0  0  0  0  0
  -28.1303  -20.9291   17.9535 H   0  0  0  0  0  0
  -33.7031  -13.9280   19.3762 H   0  0  0  0  0  0
  -33.0308  -12.5328   18.8181 H   0  0  0  0  0  0
  -31.4116  -14.1382   17.3752 H   0  0  0  0  0  0
  -32.4196  -15.3511   17.9519 H   0  0  0  0  0  0
  -33.1232  -13.3666   21.8066 H   0  0  0  0  0  0
  -32.0245  -12.1415   21.4033 H   0  0  0  0  0  0
  -28.8382  -15.4356   21.0609 H   0  0  0  0  0  0
  -30.0946  -16.4672   21.3307 H   0  0  0  0  0  0
  -29.4049  -15.2932   18.4723 H   0  0  0  0  0  0
  -27.3953  -24.8143   19.7732 H   0  0  0  0  0  0
  -28.0669  -25.5162   18.2882 H   0  0  0  0  0  0
  -28.2873  -23.1890   18.3785 H   0  0  0  0  0  0
  1 25  1  0  0  0
  1 30  2  0  0  0
  1 86  1  0  0  0
  2  3  1  0  0  0
  2 25  1  0  0  0
  2 90  1  0  0  0
  2 91  1  0  0  0
  3  4  1  0  0  0
  3 92  1  0  0  0
  3 93  1  0  0  0
  4  5  1  0  0  0
  4 94  1  0  0  0
  4 95  1  0  0  0
  5  6  1  0  0  0
  5 26  1  0  0  0
  5 96  1  0  0  0
  6 25  1  0  0  0
  6 97  1  0  0  0
  6 98  1  0  0  0
  7  8  2  0  0  0
  7 26  1  0  0  0
  7 29  1  0  0  0
  8  9  1  0  0  0
  8 22  1  0  0  0
  9 10  1  0  0  0
  9 27  2  0  0  0
 10 11  2  0  0  0
 10 15  1  0  0  0
 11 12  1  0  0  0
 11 99  1  0  0  0
 12 13  2  0  0  0
 12100  1  0  0  0
 13 14  1  0  0  0
 13 31  1  0  0  0
 14 15  2  0  0  0
 14101  1  0  0  0
 15102  1  0  0  0
 16 17  2  0  0  0
 16 21  1  0  0  0
 16 31  1  0  0  0
 17 18  1  0  0  0
 17103  1  0  0  0
 18 19  2  0  0  0
 18104  1  0  0  0
 19 20  1  0  0  0
 19 24  1  0  0  0
 20 21  2  0  0  0
 20105  1  0  0  0
 21 23  1  0  0  0
 22 28  1  0  0  0
 22 32  2  0  0  0
 26 27  1  0  0  0
 28106  1  0  0  0
 28107  1  0  0  0
 29108  1  0  0  0
 29109  1  0  0  0
 33 34  1  0  0  0
 33 66  1  0  0  0
 33 70  2  0  0  0
 34 36  1  0  0  0
 34 59  1  0  0  0
 34110  1  0  0  0
 35 44  2  0  0  0
 35 45  1  0  0  0
 35 68  1  0  0  0
 36 56  1  0  0  0
 36111  1  0  0  0
 37 39  1  0  0  0
 37 47  1  0  0  0
 37 66  1  0  0  0
 37112  1  0  0  0
 38 43  2  0  0  0
 38 46  1  0  0  0
 38 47  1  0  0  0
 39 64  1  0  0  0
 39 67  2  0  0  0
 40 52  1  0  0  0
 40 53  2  0  0  0
 40 58  1  0  0  0
 41113  1  0  0  0
 41114  1  0  0  0
 41115  1  0  0  0
 41 48  1  0  0  0
 42 43  1  0  0  0
 42 66  1  0  0  0
 42116  1  0  0  0
 42117  1  0  0  0
 43 44  1  0  0  0
 44118  1  0  0  0
 45 46  2  0  0  0
 45119  1  0  0  0
 46120  1  0  0  0
 47121  1  0  0  0
 47122  1  0  0  0
 48 56  1  0  0  0
 48 65  1  0  0  0
 48123  1  0  0  0
 49 50  1  0  0  0
 49 53  1  0  0  0
 49 64  1  0  0  0
 49124  1  0  0  0
 50 51  1  0  0  0
 50125  1  0  0  0
 50126  1  0  0  0
 51 52  1  0  0  0
 51127  1  0  0  0
 51128  1  0  0  0
 52129  1  0  0  0
 52130  1  0  0  0
 53 54  1  0  0  0
 54 55  2  0  0  0
 54131  1  0  0  0
 55 57  1  0  0  0
 55132  1  0  0  0
 56 69  2  0  0  0
 57 58  2  0  0  0
 57133  1  0  0  0
 58134  1  0  0  0
 59 60  1  0  0  0
 59 61  1  0  0  0
 59 62  1  0  0  0
 60135  1  0  0  0
 60136  1  0  0  0
 60137  1  0  0  0
 61138  1  0  0  0
 61139  1  0  0  0
 61140  1  0  0  0
 62141  1  0  0  0
 62142  1  0  0  0
 62143  1  0  0  0
 63 65  1  0  0  0
 63144  1  0  0  0
 63145  1  0  0  0
 63146  1  0  0  0
 64147  1  0  0  0
 65148  1  0  0  0
 68 84  1  0  0  0
 71 72  2  0  0  0
 71 74  1  0  0  0
 71149  1  0  0  0
 72 75  1  0  0  0
 72150  1  0  0  0
 73 75  2  0  0  0
 73 76  1  0  0  0
 73151  1  0  0  0
 74 76  2  0  0  0
 74 85  1  0  0  0
 75 87  1  0  0  0
 76 89  1  0  0  0
 77 85  2  0  0  0
 77 89  1  0  0  0
 77 83  1  0  0  0
 78 84  1  0  0  0
 78 87  1  0  0  0
 78 88  2  0  0  0
 79 80  1  0  0  0
 79 81  1  0  0  0
 79152  1  0  0  0
 79153  1  0  0  0
 80 83  1  0  0  0
 80154  1  0  0  0
 80155  1  0  0  0
 81 86  1  0  0  0
 81156  1  0  0  0
 81157  1  0  0  0
 82 83  1  0  0  0
 82 86  1  0  0  0
 82158  1  0  0  0
 82159  1  0  0  0
 83160  1  0  0  0
 84161  1  0  0  0
 84162  1  0  0  0
 87163  1  0  0  0
M  ISO  4   1 100  68 101  84 101  86 100
M  END
> <chiral flag>
0

> <version>
0

> <s_m_source_file>
/data/baiqing/PycharmProjects/Reinvent-master-3.2/result/LINK_invent/BTK/process_docking_weight1_custom_product_contain_oxygen_bond_distance_aromatic_linkinvent_7_9_3/rearranged_h_0160.sdf

> <i_m_source_file_index>
69

> <r_mmod_Potential_Energy-OPLS-2005>
3138.71899414062

> <r_mmod_Stretch_Energy-OPLS-2005>
1410.82763671875

> <r_mmod_Bend_Energy-OPLS-2005>
777.692932128906

> <r_mmod_Torsional_Energy-OPLS-2005>
374.333129882812

> <r_mmod_Improper_Torsional_Energy-OPLS-2005>
3.81504154205322

> <r_mmod_Van_der_Waal_Energy-OPLS-2005>
1037.96313476562

> <r_mmod_Electrostatic_Energy-OPLS-2005>
-310.398651123047

> <r_mmod_Solvation_Energy-OPLS-2005>
-276.946746826172

> <b_mmod_Minimization_Converged-OPLS-2005>
0

> <r_mmod_RMS_Derivative-OPLS-2005>
0.483974993228912

$$$$
70
                    3D
 Structure written by MMmdl.
166175  0  0  1  0            999 V2000
  -30.5996  -14.6201   20.5259 C   0  0  0  0  0  0
  -30.4525  -12.3868   19.4352 C   0  0  0  0  0  0
  -29.5126  -12.5275   18.2146 C   0  0  0  0  0  0
  -28.0338  -12.3603   18.6220 C   0  0  0  0  0  0
  -27.6611  -13.2061   19.8680 C   0  0  2  0  0  0
  -28.7085  -13.0125   20.9896 C   0  0  0  0  0  0
  -25.2608  -13.8146   20.5653 C   0  0  0  0  0  0
  -24.1855  -13.0434   20.9155 C   0  0  0  0  0  0
  -24.6401  -11.6894   20.8719 C   0  0  0  0  0  0
  -23.9051  -10.4284   21.0393 C   0  0  0  0  0  0
  -24.3598   -9.4211   21.9185 C   0  0  0  0  0  0
  -23.6268   -8.2254   22.0764 C   0  0  0  0  0  0
  -22.4260   -8.0286   21.3539 C   0  0  0  0  0  0
  -21.9877   -9.0262   20.4647 C   0  0  0  0  0  0
  -22.7212  -10.2145   20.3051 C   0  0  0  0  0  0
  -21.6849   -6.0720   22.5265 C   0  0  0  0  0  0
  -21.4011   -6.5622   23.8201 C   0  0  0  0  0  0
  -21.3649   -5.6771   24.9160 C   0  0  0  0  0  0
  -21.6044   -4.3040   24.7214 C   0  0  0  0  0  0
  -21.8825   -3.8133   23.4335 C   0  0  0  0  0  0
  -21.9194   -4.6945   22.3384 C   0  0  0  0  0  0
  -22.7876  -13.5260   21.1793 C   0  0  0  0  0  0
  -22.1672   -4.2133   21.0964 F   0  0  0  0  0  0
  -21.5621   -3.4523   25.7728 F   0  0  0  0  0  0
  -30.0276  -13.3774   20.4408 N   0  0  0  0  0  0
  -26.3029  -12.9301   20.3309 N   0  0  0  0  0  0
  -25.9331  -11.6458   20.5732 N   0  0  0  0  0  0
  -22.0474  -12.8307   22.0342 N   0  0  0  0  0  0
  -25.4359  -15.1869   20.4063 N   0  0  0  0  0  0
  -31.7326  -14.8535   20.0929 O   0  0  0  0  0  0
  -21.6635   -6.8878   21.4235 O   0  0  0  0  0  0
  -22.3577  -14.5558   20.6611 O   0  0  0  0  0  0
  -24.6218  -31.8626   23.2031 C   0  0  0  0  0  0
  -25.9076  -32.4796   23.8368 C   0  0  1  0  0  0
  -27.2328  -27.3496   20.1145 C   0  0  0  0  0  0
  -25.5892  -33.8597   24.2292 N   0  0  0  0  0  0
  -23.4167  -30.4813   21.5455 C   0  0  2  0  0  0
  -24.8676  -28.9323   20.1192 C   0  0  0  0  0  0
  -22.7468  -29.4623   22.4969 C   0  0  0  0  0  0
  -18.0289  -28.1378   22.8493 C   0  0  0  0  0  0
  -24.1470  -36.7286   23.2641 C   0  0  0  0  0  0
  -25.9549  -30.7974   21.3739 C   0  0  0  0  0  0
  -26.0323  -29.4220   20.7277 C   0  0  0  0  0  0
  -27.2218  -28.6376   20.7250 C   0  0  0  0  0  0
  -26.0534  -26.8989   19.4934 C   0  0  0  0  0  0
  -24.8757  -27.6712   19.4998 C   0  0  0  0  0  0
  -23.6326  -29.8085   20.1640 C   0  0  0  0  0  0
  -25.4097  -36.3098   24.0338 C   0  0  1  0  0  0
  -20.5885  -28.3673   23.1297 C   0  0  2  0  0  0
  -20.6763  -26.9399   22.5415 C   0  0  0  0  0  0
  -19.5745  -26.6394   21.5202 C   0  0  0  0  0  0
  -18.1927  -26.7923   22.1620 C   0  0  0  0  0  0
  -19.1540  -28.8844   23.2886 C   0  0  0  0  0  0
  -18.9461  -30.1443   23.8905 C   0  0  0  0  0  0
  -17.6461  -30.6574   24.0577 C   0  0  0  0  0  0
  -25.9041  -34.9468   23.5125 C   0  0  0  0  0  0
  -16.5354  -29.9079   23.6325 C   0  0  0  0  0  0
  -16.7282  -28.6495   23.0354 C   0  0  0  0  0  0
  -26.4460  -31.6600   25.0732 C   0  0  0  0  0  0
  -25.3689  -31.3753   26.1459 C   0  0  0  0  0  0
  -27.0293  -30.3022   24.6175 C   0  0  0  0  0  0
  -27.6044  -32.4322   25.7480 C   0  0  0  0  0  0
  -27.5576  -37.1797   24.8461 C   0  0  0  0  0  0
  -21.4188  -29.3019   22.3691 N   0  0  0  0  0  0
  -26.4278  -37.3793   23.9422 N   0  0  0  0  0  0
  -24.6828  -31.0649   22.0973 N   0  0  0  0  0  0
  -23.4199  -28.8197   23.3066 O   0  0  0  0  0  0
  -28.3437  -26.5137   20.0410 O   0  0  0  0  0  0
  -26.5630  -34.8940   22.4701 O   0  0  0  0  0  0
  -23.5387  -32.1420   23.7365 O   0  0  0  0  0  0
  -30.4735  -18.0544   20.3489 C   0  0  0  0  0  0
  -28.6259  -17.6976   21.5463 C   0  0  0  0  0  0
  -29.6644  -17.0293   20.9556 C   0  0  0  0  0  0
  -29.8888  -19.2866   20.6481 C   0  0  0  0  0  0
  -30.2630  -20.7175   20.4762 C   0  0  0  0  0  0
  -30.0667  -23.7179   18.9783 C   0  0  0  0  0  0
  -27.4894  -23.3050   20.6330 C   0  0  0  0  0  0
  -27.9509  -21.8136   20.5964 C   0  0  0  0  0  0
  -29.8620  -23.2680   20.4414 C   0  0  1  0  0  0
  -28.7147  -24.0686   21.1690 C   0  0  1  0  0  0
  -30.8615  -24.9950   18.7401 C   0  0  0  0  0  0
  -29.7699  -24.1198   23.4070 C   0  0  0  0  0  0
  -28.6433  -25.6792   21.1948 C   0  0  0  0  0  0
  -29.4274  -21.8277   20.4941 N   0  0  0  0  0  0
  -29.7616  -15.5777   21.0209 N   0  0  0  0  0  0
  -31.5846  -20.9179   20.3279 N   0  3  0  0  0  0
  -29.6271  -23.1000   18.0039 O   0  0  0  0  0  0
  -28.7572  -19.0503   21.3791 O   0  0  0  0  0  0
  -28.7196  -23.6604   22.5519 O   0  0  0  0  0  0
  -31.4922  -12.5293   19.1317 H   0  0  0  0  0  0
  -30.4027  -11.3798   19.8511 H   0  0  0  0  0  0
  -29.7744  -11.7978   17.4469 H   0  0  0  0  0  0
  -29.6534  -13.5094   17.7597 H   0  0  0  0  0  0
  -27.8609  -11.3042   18.8268 H   0  0  0  0  0  0
  -27.3855  -12.6175   17.7837 H   0  0  0  0  0  0
  -27.6892  -14.2476   19.5489 H   0  0  0  0  0  0
  -28.7232  -11.9747   21.3229 H   0  0  0  0  0  0
  -28.4504  -13.5925   21.8768 H   0  0  0  0  0  0
  -25.2742   -9.5676   22.4768 H   0  0  0  0  0  0
  -23.9948   -7.4654   22.7508 H   0  0  0  0  0  0
  -21.0790   -8.8796   19.8977 H   0  0  0  0  0  0
  -22.3669  -10.9688   19.6165 H   0  0  0  0  0  0
  -21.2021   -7.6130   23.9703 H   0  0  0  0  0  0
  -21.1457   -6.0501   25.9062 H   0  0  0  0  0  0
  -22.0618   -2.7593   23.2850 H   0  0  0  0  0  0
  -22.4011  -11.9947   22.4742 H   0  0  0  0  0  0
  -21.1110  -13.1424   22.2512 H   0  0  0  0  0  0
  -24.6645  -15.8410   20.4880 H   0  0  0  0  0  0
  -26.2761  -15.6135   20.0358 H   0  0  0  0  0  0
  -26.7158  -32.5484   23.1142 H   0  0  0  0  0  0
  -24.9985  -33.9736   25.0397 H   0  0  0  0  0  0
  -22.7065  -31.2973   21.3986 H   0  0  0  0  0  0
  -23.3749  -35.9601   23.3301 H   0  0  0  0  0  0
  -24.3558  -36.8901   22.2054 H   0  0  0  0  0  0
  -23.7200  -37.6480   23.6659 H   0  0  0  0  0  0
  -26.0798  -31.5552   20.5992 H   0  0  0  0  0  0
  -26.8372  -30.8540   21.9997 H   0  0  0  0  0  0
  -28.1217  -29.0130   21.1924 H   0  0  0  0  0  0
  -26.0437  -25.9336   19.0064 H   0  0  0  0  0  0
  -23.9830  -27.2884   19.0229 H   0  0  0  0  0  0
  -23.7471  -30.5791   19.4012 H   0  0  0  0  0  0
  -22.7543  -29.2323   19.8664 H   0  0  0  0  0  0
  -25.1269  -36.1961   25.0830 H   0  0  0  0  0  0
  -20.9966  -28.3242   24.1423 H   0  0  0  0  0  0
  -20.5624  -26.2285   23.3611 H   0  0  0  0  0  0
  -21.6637  -26.7406   22.1234 H   0  0  0  0  0  0
  -19.6901  -25.6317   21.1198 H   0  0  0  0  0  0
  -19.6675  -27.3230   20.6753 H   0  0  0  0  0  0
  -17.4189  -26.6684   21.4031 H   0  0  0  0  0  0
  -18.0332  -26.0059   22.9008 H   0  0  0  0  0  0
  -19.7930  -30.7258   24.2288 H   0  0  0  0  0  0
  -17.5008  -31.6237   24.5208 H   0  0  0  0  0  0
  -15.5354  -30.2980   23.7640 H   0  0  0  0  0  0
  -15.8683  -28.0815   22.7072 H   0  0  0  0  0  0
  -24.5853  -30.7107   25.7795 H   0  0  0  0  0  0
  -24.8881  -32.2925   26.4875 H   0  0  0  0  0  0
  -25.7991  -30.8937   27.0245 H   0  0  0  0  0  0
  -26.2864  -29.6790   24.1175 H   0  0  0  0  0  0
  -27.3966  -29.7267   25.4682 H   0  0  0  0  0  0
  -27.8744  -30.4319   23.9410 H   0  0  0  0  0  0
  -27.2685  -33.3631   26.2060 H   0  0  0  0  0  0
  -28.3835  -32.6858   25.0278 H   0  0  0  0  0  0
  -28.0722  -31.8435   26.5381 H   0  0  0  0  0  0
  -28.2600  -38.0094   24.7522 H   0  0  0  0  0  0
  -28.1066  -36.2629   24.6253 H   0  0  0  0  0  0
  -27.2304  -37.1405   25.8869 H   0  0  0  0  0  0
  -20.9384  -29.8695   21.6851 H   0  0  0  0  0  0
  -26.0162  -38.2864   24.1449 H   0  0  0  0  0  0
  -31.3914  -17.9144   19.7956 H   0  0  0  0  0  0
  -27.7570  -17.3901   22.1125 H   0  0  0  0  0  0
  -26.6145  -23.4438   21.2684 H   0  0  0  0  0  0
  -27.2156  -23.6491   19.6339 H   0  0  0  0  0  0
  -27.5033  -21.2687   19.7651 H   0  0  0  0  0  0
  -27.6658  -21.3145   21.5226 H   0  0  0  0  0  0
  -30.8070  -23.3818   20.9675 H   0  0  0  0  0  0
  -31.2076  -25.4181   19.6825 H   0  0  0  0  0  0
  -30.2364  -25.7345   18.2397 H   0  0  0  0  0  0
  -31.7287  -24.7945   18.1115 H   0  0  0  0  0  0
  -29.6938  -23.6086   24.3669 H   0  0  0  0  0  0
  -29.6995  -25.1869   23.6179 H   0  0  0  0  0  0
  -30.7618  -23.9083   23.0114 H   0  0  0  0  0  0
  -29.6044  -26.0548   21.5451 H   0  0  0  0  0  0
  -27.9345  -25.9469   21.9812 H   0  0  0  0  0  0
  -28.9433  -15.1433   21.4199 H   0  0  0  0  0  0
  -32.1997  -20.1178   20.3297 H   0  0  0  0  0  0
  -32.0117  -21.8223   20.2275 H   0  0  0  0  0  0
  1 25  1  0  0  0
  1 30  2  0  0  0
  1 85  1  0  0  0
  2  3  1  0  0  0
  2 25  1  0  0  0
  2 90  1  0  0  0
  2 91  1  0  0  0
  3  4  1  0  0  0
  3 92  1  0  0  0
  3 93  1  0  0  0
  4  5  1  0  0  0
  4 94  1  0  0  0
  4 95  1  0  0  0
  5  6  1  0  0  0
  5 26  1  0  0  0
  5 96  1  0  0  0
  6 25  1  0  0  0
  6 97  1  0  0  0
  6 98  1  0  0  0
  7  8  2  0  0  0
  7 26  1  0  0  0
  7 29  1  0  0  0
  8  9  1  0  0  0
  8 22  1  0  0  0
  9 10  1  0  0  0
  9 27  2  0  0  0
 10 11  2  0  0  0
 10 15  1  0  0  0
 11 12  1  0  0  0
 11 99  1  0  0  0
 12 13  2  0  0  0
 12100  1  0  0  0
 13 14  1  0  0  0
 13 31  1  0  0  0
 14 15  2  0  0  0
 14101  1  0  0  0
 15102  1  0  0  0
 16 17  2  0  0  0
 16 21  1  0  0  0
 16 31  1  0  0  0
 17 18  1  0  0  0
 17103  1  0  0  0
 18 19  2  0  0  0
 18104  1  0  0  0
 19 20  1  0  0  0
 19 24  1  0  0  0
 20 21  2  0  0  0
 20105  1  0  0  0
 21 23  1  0  0  0
 22 28  1  0  0  0
 22 32  2  0  0  0
 26 27  1  0  0  0
 28106  1  0  0  0
 28107  1  0  0  0
 29108  1  0  0  0
 29109  1  0  0  0
 33 34  1  0  0  0
 33 66  1  0  0  0
 33 70  2  0  0  0
 34 36  1  0  0  0
 34 59  1  0  0  0
 34110  1  0  0  0
 35 44  2  0  0  0
 35 45  1  0  0  0
 35 68  1  0  0  0
 36 56  1  0  0  0
 36111  1  0  0  0
 37 39  1  0  0  0
 37 47  1  0  0  0
 37 66  1  0  0  0
 37112  1  0  0  0
 38 43  2  0  0  0
 38 46  1  0  0  0
 38 47  1  0  0  0
 39 64  1  0  0  0
 39 67  2  0  0  0
 40 52  1  0  0  0
 40 53  2  0  0  0
 40 58  1  0  0  0
 41113  1  0  0  0
 41114  1  0  0  0
 41115  1  0  0  0
 41 48  1  0  0  0
 42 43  1  0  0  0
 42 66  1  0  0  0
 42116  1  0  0  0
 42117  1  0  0  0
 43 44  1  0  0  0
 44118  1  0  0  0
 45 46  2  0  0  0
 45119  1  0  0  0
 46120  1  0  0  0
 47121  1  0  0  0
 47122  1  0  0  0
 48 56  1  0  0  0
 48 65  1  0  0  0
 48123  1  0  0  0
 49 50  1  0  0  0
 49 53  1  0  0  0
 49 64  1  0  0  0
 49124  1  0  0  0
 50 51  1  0  0  0
 50125  1  0  0  0
 50126  1  0  0  0
 51 52  1  0  0  0
 51127  1  0  0  0
 51128  1  0  0  0
 52129  1  0  0  0
 52130  1  0  0  0
 53 54  1  0  0  0
 54 55  2  0  0  0
 54131  1  0  0  0
 55 57  1  0  0  0
 55132  1  0  0  0
 56 69  2  0  0  0
 57 58  2  0  0  0
 57133  1  0  0  0
 58134  1  0  0  0
 59 60  1  0  0  0
 59 61  1  0  0  0
 59 62  1  0  0  0
 60135  1  0  0  0
 60136  1  0  0  0
 60137  1  0  0  0
 61138  1  0  0  0
 61139  1  0  0  0
 61140  1  0  0  0
 62141  1  0  0  0
 62142  1  0  0  0
 62143  1  0  0  0
 63 65  1  0  0  0
 63144  1  0  0  0
 63145  1  0  0  0
 63146  1  0  0  0
 64147  1  0  0  0
 65148  1  0  0  0
 68 83  1  0  0  0
 71 73  1  0  0  0
 71 74  2  0  0  0
 71149  1  0  0  0
 72 73  2  0  0  0
 72 88  1  0  0  0
 72150  1  0  0  0
 73 85  1  0  0  0
 74 75  1  0  0  0
 74 88  1  0  0  0
 75 84  1  0  0  0
 75 86  2  0  0  0
 76 81  1  0  0  0
 76 87  2  0  0  0
 76 79  1  0  0  0
 77 78  1  0  0  0
 77 80  1  0  0  0
 77151  1  0  0  0
 77152  1  0  0  0
 78 84  1  0  0  0
 78153  1  0  0  0
 78154  1  0  0  0
 79 80  1  0  0  0
 79 84  1  0  0  0
 79155  1  0  0  0
 80 83  1  0  0  0
 80 89  1  0  0  0
 81156  1  0  0  0
 81157  1  0  0  0
 81158  1  0  0  0
 82 89  1  0  0  0
 82159  1  0  0  0
 82160  1  0  0  0
 82161  1  0  0  0
 83162  1  0  0  0
 83163  1  0  0  0
 85164  1  0  0  0
 86165  1  0  0  0
 86166  1  0  0  0
M  CHG  1  86   1
M  ISO  4   1 100  68 101  83 101  85 100
M  END
> <chiral flag>
0

> <version>
0

> <s_m_source_file>
/data/baiqing/PycharmProjects/Reinvent-master-3.2/result/LINK_invent/BTK/process_docking_weight1_custom_product_contain_oxygen_bond_distance_aromatic_linkinvent_7_9_3/rearranged_h_0160.sdf

> <i_m_source_file_index>
70

> <r_mmod_Potential_Energy-OPLS-2005>
-41.3828125

> <r_mmod_Stretch_Energy-OPLS-2005>
73.2927169799805

> <r_mmod_Bend_Energy-OPLS-2005>
221.797714233398

> <r_mmod_Torsional_Energy-OPLS-2005>
296.753540039062

> <r_mmod_Improper_Torsional_Energy-OPLS-2005>
3.97892260551453

> <r_mmod_Van_der_Waal_Energy-OPLS-2005>
118.873443603516

> <r_mmod_Electrostatic_Energy-OPLS-2005>
-354.910461425781

> <r_mmod_Solvation_Energy-OPLS-2005>
-440.460357666016

> <b_mmod_Minimization_Converged-OPLS-2005>
0

> <r_mmod_RMS_Derivative-OPLS-2005>
2.30143213272095

$$$$
71
                    3D
 Structure written by MMmdl.
149158  0  0  1  0            999 V2000
  -30.5057  -15.0552   20.3123 C   0  0  0  0  0  0
  -30.4496  -12.6406   19.4877 C   0  0  0  0  0  0
  -29.5253  -12.4634   18.2603 C   0  0  0  0  0  0
  -28.0522  -12.2833   18.6881 C   0  0  0  0  0  0
  -27.6147  -13.2300   19.8402 C   0  0  2  0  0  0
  -28.6785  -13.3451   20.9501 C   0  0  0  0  0  0
  -25.2450  -13.8132   20.5839 C   0  0  0  0  0  0
  -24.1734  -13.0385   20.9271 C   0  0  0  0  0  0
  -24.6338  -11.6865   20.8815 C   0  0  0  0  0  0
  -23.9028  -10.4255   21.0440 C   0  0  0  0  0  0
  -24.3590   -9.4171   21.9207 C   0  0  0  0  0  0
  -23.6269   -8.2208   22.0762 C   0  0  0  0  0  0
  -22.4255   -8.0255   21.3546 C   0  0  0  0  0  0
  -21.9890   -9.0229   20.4651 C   0  0  0  0  0  0
  -22.7214  -10.2108   20.3070 C   0  0  0  0  0  0
  -21.6842   -6.0720   22.5281 C   0  0  0  0  0  0
  -21.4006   -6.5632   23.8212 C   0  0  0  0  0  0
  -21.3657   -5.6790   24.9178 C   0  0  0  0  0  0
  -21.6042   -4.3052   24.7234 C   0  0  0  0  0  0
  -21.8818   -3.8139   23.4356 C   0  0  0  0  0  0
  -21.9188   -4.6950   22.3409 C   0  0  0  0  0  0
  -22.7761  -13.5186   21.1891 C   0  0  0  0  0  0
  -22.1658   -4.2135   21.0986 F   0  0  0  0  0  0
  -21.5631   -3.4540   25.7749 F   0  0  0  0  0  0
  -29.9246  -13.7775   20.2973 N   0  0  0  0  0  0
  -26.2847  -12.9302   20.3426 N   0  0  0  0  0  0
  -25.9274  -11.6460   20.5869 N   0  0  0  0  0  0
  -22.0397  -12.8187   22.0443 N   0  0  0  0  0  0
  -25.4158  -15.1869   20.4314 N   0  0  0  0  0  0
  -31.7404  -15.0879   20.2468 O   0  0  0  0  0  0
  -21.6621   -6.8855   21.4238 O   0  0  0  0  0  0
  -22.3471  -14.5499   20.6729 O   0  0  0  0  0  0
  -24.6455  -31.8387   23.1816 C   0  0  0  0  0  0
  -25.9216  -32.4657   23.8224 C   0  0  1  0  0  0
  -27.2315  -27.1048   20.1549 C   0  0  0  0  0  0
  -25.5952  -33.8465   24.2145 N   0  0  0  0  0  0
  -23.4512  -30.4529   21.5266 C   0  0  2  0  0  0
  -24.9039  -28.8665   20.1050 C   0  0  0  0  0  0
  -22.7577  -29.4512   22.4835 C   0  0  0  0  0  0
  -18.0306  -28.1390   22.8474 C   0  0  0  0  0  0
  -24.1494  -36.7245   23.2642 C   0  0  0  0  0  0
  -26.0062  -30.7009   21.3846 C   0  0  0  0  0  0
  -26.0773  -29.3076   20.7281 C   0  0  0  0  0  0
  -27.2347  -28.4410   20.7368 C   0  0  0  0  0  0
  -26.0334  -26.7649   19.4908 C   0  0  0  0  0  0
  -24.8968  -27.6110   19.4711 C   0  0  0  0  0  0
  -23.6795  -29.7717   20.1482 C   0  0  0  0  0  0
  -25.4127  -36.3008   24.0305 C   0  0  1  0  0  0
  -20.5919  -28.3718   23.1227 C   0  0  2  0  0  0
  -20.6785  -26.9416   22.5405 C   0  0  0  0  0  0
  -19.5764  -26.6374   21.5207 C   0  0  0  0  0  0
  -18.1945  -26.7929   22.1616 C   0  0  0  0  0  0
  -19.1564  -28.8873   23.2843 C   0  0  0  0  0  0
  -18.9481  -30.1469   23.8867 C   0  0  0  0  0  0
  -17.6478  -30.6587   24.0554 C   0  0  0  0  0  0
  -25.9076  -34.9385   23.5040 C   0  0  0  0  0  0
  -16.5367  -29.9080   23.6337 C   0  0  0  0  0  0
  -16.7291  -28.6499   23.0355 C   0  0  0  0  0  0
  -26.4529  -31.6547   25.0689 C   0  0  0  0  0  0
  -25.3701  -31.3754   26.1378 C   0  0  0  0  0  0
  -27.0412  -30.2936   24.6317 C   0  0  0  0  0  0
  -27.6049  -32.4331   25.7479 C   0  0  0  0  0  0
  -27.5575  -37.1775   24.8465 C   0  0  0  0  0  0
  -21.4266  -29.3036   22.3592 N   0  0  0  0  0  0
  -26.4287  -37.3728   23.9405 N   0  0  0  0  0  0
  -24.7205  -31.0209   22.0860 N   0  0  0  0  0  0
  -23.4206  -28.8081   23.3014 O   0  0  0  0  0  0
  -28.3079  -26.1443   20.2838 O   0  0  0  0  0  0
  -26.5676  -34.8894   22.4627 O   0  0  0  0  0  0
  -23.5570  -32.1286   23.7018 O   0  0  0  0  0  0
  -28.7229  -18.2656   19.2694 C   0  0  0  0  0  0
  -29.5832  -17.6380   20.1361 C   0  0  0  0  0  0
  -29.1776  -20.3700   20.2308 C   0  0  0  0  0  0
  -28.2403  -17.2993   18.2677 C   0  0  0  0  0  0
  -29.2112  -16.1131   18.5102 C   0  0  0  0  0  0
  -28.2696  -23.1567   20.5424 C   0  0  0  0  0  0
  -28.4377  -24.6652   19.7608 C   0  0  0  0  0  0
  -28.4455  -19.6791   19.3314 N   0  0  0  0  0  0
  -29.7320  -16.2084   19.9004 N   0  0  0  0  0  0
  -29.1804  -21.8695   20.3912 N   0  0  0  0  0  0
  -30.2129  -19.0571   21.1072 S   0  0  0  0  0  0
  -31.4725  -12.8244   19.1549 H   0  0  0  0  0  0
  -30.4866  -11.7268   20.0832 H   0  0  0  0  0  0
  -29.8456  -11.5966   17.6802 H   0  0  0  0  0  0
  -29.6297  -13.3105   17.5849 H   0  0  0  0  0  0
  -27.9453  -11.2496   19.0181 H   0  0  0  0  0  0
  -27.3897  -12.3936   17.8290 H   0  0  0  0  0  0
  -27.5053  -14.2106   19.4015 H   0  0  0  0  0  0
  -28.8084  -12.3996   21.4786 H   0  0  0  0  0  0
  -28.3727  -14.0832   21.6937 H   0  0  0  0  0  0
  -25.2730   -9.5650   22.4790 H   0  0  0  0  0  0
  -23.9975   -7.4597   22.7479 H   0  0  0  0  0  0
  -21.0825   -8.8751   19.8952 H   0  0  0  0  0  0
  -22.3679  -10.9656   19.6186 H   0  0  0  0  0  0
  -21.1995   -7.6141   23.9710 H   0  0  0  0  0  0
  -21.1481   -6.0526   25.9080 H   0  0  0  0  0  0
  -22.0600   -2.7601   23.2866 H   0  0  0  0  0  0
  -22.4008  -11.9844   22.4828 H   0  0  0  0  0  0
  -21.1017  -13.1219   22.2652 H   0  0  0  0  0  0
  -24.6565  -15.8457   20.5647 H   0  0  0  0  0  0
  -26.2889  -15.6317   20.1810 H   0  0  0  0  0  0
  -26.7279  -32.5252   23.0945 H   0  0  0  0  0  0
  -25.0055  -33.9566   25.0264 H   0  0  0  0  0  0
  -22.7550  -31.2789   21.3659 H   0  0  0  0  0  0
  -23.3755  -35.9578   23.3288 H   0  0  0  0  0  0
  -24.3574  -36.8907   22.2062 H   0  0  0  0  0  0
  -23.7259  -37.6435   23.6702 H   0  0  0  0  0  0
  -26.1658  -31.4520   20.6101 H   0  0  0  0  0  0
  -26.8745  -30.7527   22.0304 H   0  0  0  0  0  0
  -28.1269  -28.7722   21.2496 H   0  0  0  0  0  0
  -25.9459  -25.7976   19.0184 H   0  0  0  0  0  0
  -23.9993  -27.2684   18.9748 H   0  0  0  0  0  0
  -23.8135  -30.5416   19.3874 H   0  0  0  0  0  0
  -22.7944  -29.2112   19.8415 H   0  0  0  0  0  0
  -25.1319  -36.1821   25.0796 H   0  0  0  0  0  0
  -21.0005  -28.3314   24.1351 H   0  0  0  0  0  0
  -20.5664  -26.2333   23.3627 H   0  0  0  0  0  0
  -21.6652  -26.7410   22.1212 H   0  0  0  0  0  0
  -19.6923  -25.6277   21.1258 H   0  0  0  0  0  0
  -19.6705  -27.3164   20.6718 H   0  0  0  0  0  0
  -17.4212  -26.6669   21.4019 H   0  0  0  0  0  0
  -18.0349  -26.0072   22.9014 H   0  0  0  0  0  0
  -19.7958  -30.7292   24.2221 H   0  0  0  0  0  0
  -17.5033  -31.6265   24.5161 H   0  0  0  0  0  0
  -15.5369  -30.2972   23.7678 H   0  0  0  0  0  0
  -15.8690  -28.0809   22.7083 H   0  0  0  0  0  0
  -24.5889  -30.7092   25.7701 H   0  0  0  0  0  0
  -24.8876  -32.2938   26.4725 H   0  0  0  0  0  0
  -25.7968  -30.8980   27.0208 H   0  0  0  0  0  0
  -26.3044  -29.6634   24.1323 H   0  0  0  0  0  0
  -27.4005  -29.7267   25.4916 H   0  0  0  0  0  0
  -27.8955  -30.4157   23.9656 H   0  0  0  0  0  0
  -27.2631  -33.3657   26.1981 H   0  0  0  0  0  0
  -28.3896  -32.6852   25.0335 H   0  0  0  0  0  0
  -28.0676  -31.8510   26.5462 H   0  0  0  0  0  0
  -28.2574  -38.0086   24.7507 H   0  0  0  0  0  0
  -28.1086  -36.2610   24.6291 H   0  0  0  0  0  0
  -27.2289  -37.1427   25.8867 H   0  0  0  0  0  0
  -20.9487  -29.8739   21.6756 H   0  0  0  0  0  0
  -26.0144  -38.2792   24.1408 H   0  0  0  0  0  0
  -28.3009  -17.6773   17.2468 H   0  0  0  0  0  0
  -27.2078  -17.0131   18.4699 H   0  0  0  0  0  0
  -30.0768  -16.2459   17.8573 H   0  0  0  0  0  0
  -28.7763  -15.1775   18.1932 H   0  0  0  0  0  0
  -27.2397  -22.8316   20.3914 H   0  0  0  0  0  0
  -28.3178  -23.3832   21.6081 H   0  0  0  0  0  0
  -27.8687  -24.6056   18.8330 H   0  0  0  0  0  0
  -29.4699  -24.6550   19.4098 H   0  0  0  0  0  0
  -30.0694  -22.0987   20.8293 H   0  0  0  0  0  0
  1 25  1  0  0  0
  1 30  2  0  0  0
  1 79  1  0  0  0
  2  3  1  0  0  0
  2 25  1  0  0  0
  2 82  1  0  0  0
  2 83  1  0  0  0
  3  4  1  0  0  0
  3 84  1  0  0  0
  3 85  1  0  0  0
  4  5  1  0  0  0
  4 86  1  0  0  0
  4 87  1  0  0  0
  5  6  1  0  0  0
  5 26  1  0  0  0
  5 88  1  0  0  0
  6 25  1  0  0  0
  6 89  1  0  0  0
  6 90  1  0  0  0
  7  8  2  0  0  0
  7 26  1  0  0  0
  7 29  1  0  0  0
  8  9  1  0  0  0
  8 22  1  0  0  0
  9 10  1  0  0  0
  9 27  2  0  0  0
 10 11  2  0  0  0
 10 15  1  0  0  0
 11 12  1  0  0  0
 11 91  1  0  0  0
 12 13  2  0  0  0
 12 92  1  0  0  0
 13 14  1  0  0  0
 13 31  1  0  0  0
 14 15  2  0  0  0
 14 93  1  0  0  0
 15 94  1  0  0  0
 16 17  2  0  0  0
 16 21  1  0  0  0
 16 31  1  0  0  0
 17 18  1  0  0  0
 17 95  1  0  0  0
 18 19  2  0  0  0
 18 96  1  0  0  0
 19 20  1  0  0  0
 19 24  1  0  0  0
 20 21  2  0  0  0
 20 97  1  0  0  0
 21 23  1  0  0  0
 22 28  1  0  0  0
 22 32  2  0  0  0
 26 27  1  0  0  0
 28 98  1  0  0  0
 28 99  1  0  0  0
 29100  1  0  0  0
 29101  1  0  0  0
 33 34  1  0  0  0
 33 66  1  0  0  0
 33 70  2  0  0  0
 34 36  1  0  0  0
 34 59  1  0  0  0
 34102  1  0  0  0
 35 44  2  0  0  0
 35 45  1  0  0  0
 35 68  1  0  0  0
 36 56  1  0  0  0
 36103  1  0  0  0
 37 39  1  0  0  0
 37 47  1  0  0  0
 37 66  1  0  0  0
 37104  1  0  0  0
 38 43  2  0  0  0
 38 46  1  0  0  0
 38 47  1  0  0  0
 39 64  1  0  0  0
 39 67  2  0  0  0
 40 52  1  0  0  0
 40 53  2  0  0  0
 40 58  1  0  0  0
 41105  1  0  0  0
 41106  1  0  0  0
 41107  1  0  0  0
 41 48  1  0  0  0
 42 43  1  0  0  0
 42 66  1  0  0  0
 42108  1  0  0  0
 42109  1  0  0  0
 43 44  1  0  0  0
 44110  1  0  0  0
 45 46  2  0  0  0
 45111  1  0  0  0
 46112  1  0  0  0
 47113  1  0  0  0
 47114  1  0  0  0
 48 56  1  0  0  0
 48 65  1  0  0  0
 48115  1  0  0  0
 49 50  1  0  0  0
 49 53  1  0  0  0
 49 64  1  0  0  0
 49116  1  0  0  0
 50 51  1  0  0  0
 50117  1  0  0  0
 50118  1  0  0  0
 51 52  1  0  0  0
 51119  1  0  0  0
 51120  1  0  0  0
 52121  1  0  0  0
 52122  1  0  0  0
 53 54  1  0  0  0
 54 55  2  0  0  0
 54123  1  0  0  0
 55 57  1  0  0  0
 55124  1  0  0  0
 56 69  2  0  0  0
 57 58  2  0  0  0
 57125  1  0  0  0
 58126  1  0  0  0
 59 60  1  0  0  0
 59 61  1  0  0  0
 59 62  1  0  0  0
 60127  1  0  0  0
 60128  1  0  0  0
 60129  1  0  0  0
 61130  1  0  0  0
 61131  1  0  0  0
 61132  1  0  0  0
 62133  1  0  0  0
 62134  1  0  0  0
 62135  1  0  0  0
 63 65  1  0  0  0
 63136  1  0  0  0
 63137  1  0  0  0
 63138  1  0  0  0
 64139  1  0  0  0
 65140  1  0  0  0
 68 77  1  0  0  0
 71 72  2  0  0  0
 71 74  1  0  0  0
 71 78  1  0  0  0
 72 79  1  0  0  0
 72 81  1  0  0  0
 73 78  2  0  0  0
 73 80  1  0  0  0
 73 81  1  0  0  0
 74 75  1  0  0  0
 74141  1  0  0  0
 74142  1  0  0  0
 75 79  1  0  0  0
 75143  1  0  0  0
 75144  1  0  0  0
 76 77  1  0  0  0
 76 80  1  0  0  0
 76145  1  0  0  0
 76146  1  0  0  0
 77147  1  0  0  0
 77148  1  0  0  0
 80149  1  0  0  0
M  ISO  4   1 100  68 101  77 101  79 100
M  END
> <chiral flag>
0

> <version>
0

> <s_m_source_file>
/data/baiqing/PycharmProjects/Reinvent-master-3.2/result/LINK_invent/BTK/process_docking_weight1_custom_product_contain_oxygen_bond_distance_aromatic_linkinvent_7_9_3/rearranged_h_0160.sdf

> <i_m_source_file_index>
71

> <r_mmod_Potential_Energy-OPLS-2005>
858.257141113281

> <r_mmod_Stretch_Energy-OPLS-2005>
279.295349121094

> <r_mmod_Bend_Energy-OPLS-2005>
457.289245605469

> <r_mmod_Torsional_Energy-OPLS-2005>
301.321380615234

> <r_mmod_Improper_Torsional_Energy-OPLS-2005>
20.2351055145264

> <r_mmod_Van_der_Waal_Energy-OPLS-2005>
107.750091552734

> <r_mmod_Electrostatic_Energy-OPLS-2005>
-340.439788818359

> <r_mmod_Solvation_Energy-OPLS-2005>
-223.79997253418

> <b_mmod_Minimization_Converged-OPLS-2005>
0

> <r_mmod_RMS_Derivative-OPLS-2005>
0.63667768239975

$$$$
72
                    3D
 Structure written by MMmdl.
155164  0  0  1  0            999 V2000
  -30.6909  -14.5919   20.4364 C   0  0  0  0  0  0
  -30.4250  -12.3354   19.4465 C   0  0  0  0  0  0
  -29.5021  -12.4863   18.2181 C   0  0  0  0  0  0
  -28.0225  -12.3608   18.6311 C   0  0  0  0  0  0
  -27.6595  -13.2304   19.8653 C   0  0  2  0  0  0
  -28.7196  -13.0879   20.9865 C   0  0  0  0  0  0
  -25.2588  -13.8235   20.5731 C   0  0  0  0  0  0
  -24.1873  -13.0464   20.9221 C   0  0  0  0  0  0
  -24.6465  -11.6951   20.8743 C   0  0  0  0  0  0
  -23.9120  -10.4301   21.0401 C   0  0  0  0  0  0
  -24.3677   -9.4194   21.9158 C   0  0  0  0  0  0
  -23.6351   -8.2233   22.0745 C   0  0  0  0  0  0
  -22.4298   -8.0306   21.3535 C   0  0  0  0  0  0
  -21.9963   -9.0269   20.4619 C   0  0  0  0  0  0
  -22.7308  -10.2138   20.3011 C   0  0  0  0  0  0
  -21.6856   -6.0749   22.5262 C   0  0  0  0  0  0
  -21.4021   -6.5672   23.8220 C   0  0  0  0  0  0
  -21.3661   -5.6828   24.9173 C   0  0  0  0  0  0
  -21.6041   -4.3082   24.7219 C   0  0  0  0  0  0
  -21.8839   -3.8148   23.4324 C   0  0  0  0  0  0
  -21.9222   -4.6971   22.3410 C   0  0  0  0  0  0
  -22.7865  -13.5193   21.1889 C   0  0  0  0  0  0
  -22.1740   -4.2180   21.0986 F   0  0  0  0  0  0
  -21.5594   -3.4548   25.7712 F   0  0  0  0  0  0
  -30.0360  -13.3868   20.4021 N   0  0  0  0  0  0
  -26.3059  -12.9440   20.3415 N   0  0  0  0  0  0
  -25.9413  -11.6575   20.5814 N   0  0  0  0  0  0
  -22.0548  -12.8089   22.0393 N   0  0  0  0  0  0
  -25.4292  -15.1978   20.4163 N   0  0  0  0  0  0
  -31.8709  -14.6887   20.0902 O   0  0  0  0  0  0
  -21.6653   -6.8892   21.4213 O   0  0  0  0  0  0
  -22.3531  -14.5503   20.6750 O   0  0  0  0  0  0
  -24.6294  -31.8595   23.2073 C   0  0  0  0  0  0
  -25.9137  -32.4786   23.8371 C   0  0  1  0  0  0
  -27.2016  -27.3079   20.0644 C   0  0  0  0  0  0
  -25.5928  -33.8587   24.2290 N   0  0  0  0  0  0
  -23.4209  -30.4920   21.5527 C   0  0  2  0  0  0
  -24.8588  -28.9631   20.1076 C   0  0  0  0  0  0
  -22.7467  -29.4628   22.4936 C   0  0  0  0  0  0
  -18.0298  -28.1377   22.8476 C   0  0  0  0  0  0
  -24.1497  -36.7285   23.2629 C   0  0  0  0  0  0
  -25.9693  -30.7836   21.3837 C   0  0  0  0  0  0
  -26.0398  -29.4174   20.7102 C   0  0  0  0  0  0
  -27.2145  -28.6015   20.6804 C   0  0  0  0  0  0
  -25.9905  -26.9276   19.4320 C   0  0  0  0  0  0
  -24.8389  -27.7250   19.4611 C   0  0  0  0  0  0
  -23.6307  -29.8434   20.1662 C   0  0  0  0  0  0
  -25.4120  -36.3078   24.0331 C   0  0  1  0  0  0
  -20.5884  -28.3688   23.1271 C   0  0  2  0  0  0
  -20.6780  -26.9412   22.5399 C   0  0  0  0  0  0
  -19.5761  -26.6387   21.5195 C   0  0  0  0  0  0
  -18.1937  -26.7920   22.1609 C   0  0  0  0  0  0
  -19.1534  -28.8863   23.2862 C   0  0  0  0  0  0
  -18.9451  -30.1452   23.8902 C   0  0  0  0  0  0
  -17.6447  -30.6588   24.0558 C   0  0  0  0  0  0
  -25.9060  -34.9444   23.5106 C   0  0  0  0  0  0
  -16.5347  -29.9080   23.6319 C   0  0  0  0  0  0
  -16.7275  -28.6490   23.0350 C   0  0  0  0  0  0
  -26.4501  -31.6565   25.0734 C   0  0  0  0  0  0
  -25.3708  -31.3659   26.1409 C   0  0  0  0  0  0
  -27.0338  -30.2987   24.6184 C   0  0  0  0  0  0
  -27.6070  -32.4277   25.7500 C   0  0  0  0  0  0
  -27.5590  -37.1813   24.8462 C   0  0  0  0  0  0
  -21.4164  -29.3032   22.3659 N   0  0  0  0  0  0
  -26.4309  -37.3773   23.9395 N   0  0  0  0  0  0
  -24.6939  -31.0591   22.1044 N   0  0  0  0  0  0
  -23.4178  -28.8119   23.2990 O   0  0  0  0  0  0
  -28.2918  -26.4105   20.0886 O   0  0  0  0  0  0
  -26.5613  -34.8905   22.4662 O   0  0  0  0  0  0
  -23.5459  -32.1396   23.7402 O   0  0  0  0  0  0
  -29.9661  -19.1744   20.0067 C   0  0  0  0  0  0
  -30.1951  -17.0769   20.3791 C   0  0  0  0  0  0
  -30.0760  -21.5855   18.8977 C   0  0  0  0  0  0
  -28.9652  -21.3120   21.1158 C   0  0  0  0  0  0
  -29.3632  -22.9786   18.7209 C   0  0  0  0  0  0
  -28.1574  -22.6211   20.8564 C   0  0  0  0  0  0
  -29.3163  -20.5673   19.8062 C   0  0  2  0  0  0
  -28.9054  -23.7189   20.0287 C   0  0  2  0  0  0
  -27.9783  -24.9948   19.7529 C   0  0  0  0  0  0
  -29.2444  -18.0120   20.1917 N   0  0  0  0  0  0
  -31.2845  -18.9981   20.1266 N   0  0  0  0  0  0
  -29.9160  -15.6895   20.6403 N   0  0  0  0  0  0
  -31.4455  -17.6063   20.3339 O   0  0  0  0  0  0
  -31.4735  -12.3982   19.1546 H   0  0  0  0  0  0
  -30.3023  -11.3496   19.8965 H   0  0  0  0  0  0
  -29.7400  -11.7241   17.4746 H   0  0  0  0  0  0
  -29.6793  -13.4482   17.7365 H   0  0  0  0  0  0
  -27.8362  -11.3117   18.8575 H   0  0  0  0  0  0
  -27.3764  -12.6161   17.7950 H   0  0  0  0  0  0
  -27.6703  -14.2645   19.5240 H   0  0  0  0  0  0
  -28.7198  -12.0765   21.3916 H   0  0  0  0  0  0
  -28.5019  -13.7482   21.8282 H   0  0  0  0  0  0
  -25.2842   -9.5669   22.4704 H   0  0  0  0  0  0
  -24.0052   -7.4629   22.7515 H   0  0  0  0  0  0
  -21.0865   -8.8783   19.8924 H   0  0  0  0  0  0
  -22.3797  -10.9662   19.6104 H   0  0  0  0  0  0
  -21.2003   -7.6187   23.9706 H   0  0  0  0  0  0
  -21.1487   -6.0563   25.9104 H   0  0  0  0  0  0
  -22.0592   -2.7574   23.2826 H   0  0  0  0  0  0
  -22.4219  -11.9747   22.4738 H   0  0  0  0  0  0
  -21.1127  -13.0990   22.2629 H   0  0  0  0  0  0
  -24.6636  -15.8501   20.5251 H   0  0  0  0  0  0
  -26.2750  -15.6337   20.0812 H   0  0  0  0  0  0
  -26.7163  -32.5434   23.1076 H   0  0  0  0  0  0
  -25.0028  -33.9729   25.0406 H   0  0  0  0  0  0
  -22.7166  -31.3159   21.4207 H   0  0  0  0  0  0
  -23.3779  -35.9602   23.3293 H   0  0  0  0  0  0
  -24.3582  -36.8917   22.2042 H   0  0  0  0  0  0
  -23.7257  -37.6484   23.6659 H   0  0  0  0  0  0
  -26.1073  -31.5569   20.6289 H   0  0  0  0  0  0
  -26.8477  -30.8188   22.0166 H   0  0  0  0  0  0
  -28.1210  -28.9476   21.1555 H   0  0  0  0  0  0
  -25.8739  -25.9955   18.9002 H   0  0  0  0  0  0
  -23.9355  -27.3778   18.9761 H   0  0  0  0  0  0
  -23.7477  -30.6249   19.4165 H   0  0  0  0  0  0
  -22.7488  -29.2761   19.8610 H   0  0  0  0  0  0
  -25.1318  -36.1935   25.0837 H   0  0  0  0  0  0
  -20.9976  -28.3266   24.1387 H   0  0  0  0  0  0
  -20.5678  -26.2279   23.3584 H   0  0  0  0  0  0
  -21.6642  -26.7433   22.1205 H   0  0  0  0  0  0
  -19.6918  -25.6296   21.1209 H   0  0  0  0  0  0
  -19.6701  -27.3187   20.6721 H   0  0  0  0  0  0
  -17.4190  -26.6657   21.4025 H   0  0  0  0  0  0
  -18.0354  -26.0075   22.9030 H   0  0  0  0  0  0
  -19.7924  -30.7266   24.2272 H   0  0  0  0  0  0
  -17.5009  -31.6274   24.5150 H   0  0  0  0  0  0
  -15.5349  -30.2985   23.7673 H   0  0  0  0  0  0
  -15.8666  -28.0829   22.7063 H   0  0  0  0  0  0
  -24.5988  -30.6900   25.7696 H   0  0  0  0  0  0
  -24.8750  -32.2772   26.4743 H   0  0  0  0  0  0
  -25.8021  -30.8901   27.0222 H   0  0  0  0  0  0
  -26.2909  -29.6742   24.1195 H   0  0  0  0  0  0
  -27.3982  -29.7240   25.4709 H   0  0  0  0  0  0
  -27.8808  -30.4245   23.9447 H   0  0  0  0  0  0
  -27.2708  -33.3573   26.2084 H   0  0  0  0  0  0
  -28.3879  -32.6818   25.0332 H   0  0  0  0  0  0
  -28.0714  -31.8366   26.5398 H   0  0  0  0  0  0
  -28.2590  -38.0121   24.7526 H   0  0  0  0  0  0
  -28.1109  -36.2656   24.6299 H   0  0  0  0  0  0
  -27.2279  -37.1467   25.8852 H   0  0  0  0  0  0
  -20.9350  -29.8759   21.6880 H   0  0  0  0  0  0
  -26.0191  -38.2849   24.1396 H   0  0  0  0  0  0
  -31.0803  -21.7502   19.2938 H   0  0  0  0  0  0
  -30.2206  -21.1357   17.9138 H   0  0  0  0  0  0
  -28.3712  -20.6465   21.7421 H   0  0  0  0  0  0
  -29.8715  -21.5306   21.6800 H   0  0  0  0  0  0
  -28.4887  -22.8172   18.0891 H   0  0  0  0  0  0
  -30.0090  -23.6448   18.1471 H   0  0  0  0  0  0
  -27.8176  -23.0301   21.8087 H   0  0  0  0  0  0
  -27.2458  -22.3478   20.3187 H   0  0  0  0  0  0
  -28.3731  -20.3626   19.3030 H   0  0  0  0  0  0
  -29.7820  -24.0376   20.5944 H   0  0  0  0  0  0
  -27.0523  -24.7632   20.2788 H   0  0  0  0  0  0
  -27.7307  -24.9655   18.6901 H   0  0  0  0  0  0
  -28.9583  -15.4948   20.8650 H   0  0  0  0  0  0
  1 25  1  0  0  0
  1 30  2  0  0  0
  1 82  1  0  0  0
  2  3  1  0  0  0
  2 25  1  0  0  0
  2 84  1  0  0  0
  2 85  1  0  0  0
  3  4  1  0  0  0
  3 86  1  0  0  0
  3 87  1  0  0  0
  4  5  1  0  0  0
  4 88  1  0  0  0
  4 89  1  0  0  0
  5  6  1  0  0  0
  5 26  1  0  0  0
  5 90  1  0  0  0
  6 25  1  0  0  0
  6 91  1  0  0  0
  6 92  1  0  0  0
  7  8  2  0  0  0
  7 26  1  0  0  0
  7 29  1  0  0  0
  8  9  1  0  0  0
  8 22  1  0  0  0
  9 10  1  0  0  0
  9 27  2  0  0  0
 10 11  2  0  0  0
 10 15  1  0  0  0
 11 12  1  0  0  0
 11 93  1  0  0  0
 12 13  2  0  0  0
 12 94  1  0  0  0
 13 14  1  0  0  0
 13 31  1  0  0  0
 14 15  2  0  0  0
 14 95  1  0  0  0
 15 96  1  0  0  0
 16 17  2  0  0  0
 16 21  1  0  0  0
 16 31  1  0  0  0
 17 18  1  0  0  0
 17 97  1  0  0  0
 18 19  2  0  0  0
 18 98  1  0  0  0
 19 20  1  0  0  0
 19 24  1  0  0  0
 20 21  2  0  0  0
 20 99  1  0  0  0
 21 23  1  0  0  0
 22 28  1  0  0  0
 22 32  2  0  0  0
 26 27  1  0  0  0
 28100  1  0  0  0
 28101  1  0  0  0
 29102  1  0  0  0
 29103  1  0  0  0
 33 34  1  0  0  0
 33 66  1  0  0  0
 33 70  2  0  0  0
 34 36  1  0  0  0
 34 59  1  0  0  0
 34104  1  0  0  0
 35 44  2  0  0  0
 35 45  1  0  0  0
 35 68  1  0  0  0
 36 56  1  0  0  0
 36105  1  0  0  0
 37 39  1  0  0  0
 37 47  1  0  0  0
 37 66  1  0  0  0
 37106  1  0  0  0
 38 43  2  0  0  0
 38 46  1  0  0  0
 38 47  1  0  0  0
 39 64  1  0  0  0
 39 67  2  0  0  0
 40 52  1  0  0  0
 40 53  2  0  0  0
 40 58  1  0  0  0
 41107  1  0  0  0
 41108  1  0  0  0
 41109  1  0  0  0
 41 48  1  0  0  0
 42 43  1  0  0  0
 42 66  1  0  0  0
 42110  1  0  0  0
 42111  1  0  0  0
 43 44  1  0  0  0
 44112  1  0  0  0
 45 46  2  0  0  0
 45113  1  0  0  0
 46114  1  0  0  0
 47115  1  0  0  0
 47116  1  0  0  0
 48 56  1  0  0  0
 48 65  1  0  0  0
 48117  1  0  0  0
 49 50  1  0  0  0
 49 53  1  0  0  0
 49 64  1  0  0  0
 49118  1  0  0  0
 50 51  1  0  0  0
 50119  1  0  0  0
 50120  1  0  0  0
 51 52  1  0  0  0
 51121  1  0  0  0
 51122  1  0  0  0
 52123  1  0  0  0
 52124  1  0  0  0
 53 54  1  0  0  0
 54 55  2  0  0  0
 54125  1  0  0  0
 55 57  1  0  0  0
 55126  1  0  0  0
 56 69  2  0  0  0
 57 58  2  0  0  0
 57127  1  0  0  0
 58128  1  0  0  0
 59 60  1  0  0  0
 59 61  1  0  0  0
 59 62  1  0  0  0
 60129  1  0  0  0
 60130  1  0  0  0
 60131  1  0  0  0
 61132  1  0  0  0
 61133  1  0  0  0
 61134  1  0  0  0
 62135  1  0  0  0
 62136  1  0  0  0
 62137  1  0  0  0
 63 65  1  0  0  0
 63138  1  0  0  0
 63139  1  0  0  0
 63140  1  0  0  0
 64141  1  0  0  0
 65142  1  0  0  0
 68 79  1  0  0  0
 71 80  1  0  0  0
 71 81  2  0  0  0
 71 77  1  0  0  0
 72 80  2  0  0  0
 72 82  1  0  0  0
 72 83  1  0  0  0
 73 75  1  0  0  0
 73 77  1  0  0  0
 73143  1  0  0  0
 73144  1  0  0  0
 74 76  1  0  0  0
 74 77  1  0  0  0
 74145  1  0  0  0
 74146  1  0  0  0
 75 78  1  0  0  0
 75147  1  0  0  0
 75148  1  0  0  0
 76 78  1  0  0  0
 76149  1  0  0  0
 76150  1  0  0  0
 77151  1  0  0  0
 78 79  1  0  0  0
 78152  1  0  0  0
 79153  1  0  0  0
 79154  1  0  0  0
 81 83  1  0  0  0
 82155  1  0  0  0
M  ISO  4   1 100  68 101  79 101  82 100
M  END
> <chiral flag>
0

> <version>
0

> <s_m_source_file>
/data/baiqing/PycharmProjects/Reinvent-master-3.2/result/LINK_invent/BTK/process_docking_weight1_custom_product_contain_oxygen_bond_distance_aromatic_linkinvent_7_9_3/rearranged_h_0160.sdf

> <i_m_source_file_index>
72

> <r_mmod_Potential_Energy-OPLS-2005>
-0.409089297056198

> <r_mmod_Stretch_Energy-OPLS-2005>
73.3335037231445

> <r_mmod_Bend_Energy-OPLS-2005>
144.691070556641

> <r_mmod_Torsional_Energy-OPLS-2005>
222.635269165039

> <r_mmod_Improper_Torsional_Energy-OPLS-2005>
5.98077726364136

> <r_mmod_Van_der_Waal_Energy-OPLS-2005>
137.876678466797

> <r_mmod_Electrostatic_Energy-OPLS-2005>
-410.691528320312

> <r_mmod_Solvation_Energy-OPLS-2005>
-224.434524536133

> <b_mmod_Minimization_Converged-OPLS-2005>
0

> <r_mmod_RMS_Derivative-OPLS-2005>
6.83377075195312

$$$$
73
                    3D
 Structure written by MMmdl.
160169  0  0  1  0            999 V2000
  -30.6176  -14.7733   20.4593 C   0  0  0  0  0  0
  -30.4329  -12.4748   19.4776 C   0  0  0  0  0  0
  -29.5111  -12.5104   18.2386 C   0  0  0  0  0  0
  -28.0385  -12.3292   18.6543 C   0  0  0  0  0  0
  -27.6398  -13.2358   19.8492 C   0  0  2  0  0  0
  -28.6863  -13.1904   20.9843 C   0  0  0  0  0  0
  -25.2496  -13.8202   20.5702 C   0  0  0  0  0  0
  -24.1795  -13.0441   20.9214 C   0  0  0  0  0  0
  -24.6393  -11.6919   20.8751 C   0  0  0  0  0  0
  -23.9071  -10.4290   21.0406 C   0  0  0  0  0  0
  -24.3617   -9.4205   21.9187 C   0  0  0  0  0  0
  -23.6291   -8.2241   22.0756 C   0  0  0  0  0  0
  -22.4277   -8.0276   21.3543 C   0  0  0  0  0  0
  -21.9911   -9.0251   20.4647 C   0  0  0  0  0  0
  -22.7240  -10.2132   20.3056 C   0  0  0  0  0  0
  -21.6855   -6.0732   22.5274 C   0  0  0  0  0  0
  -21.4017   -6.5636   23.8206 C   0  0  0  0  0  0
  -21.3660   -5.6790   24.9169 C   0  0  0  0  0  0
  -21.6043   -4.3051   24.7222 C   0  0  0  0  0  0
  -21.8818   -3.8143   23.4343 C   0  0  0  0  0  0
  -21.9192   -4.6960   22.3399 C   0  0  0  0  0  0
  -22.7811  -13.5215   21.1867 C   0  0  0  0  0  0
  -22.1660   -4.2144   21.0978 F   0  0  0  0  0  0
  -21.5631   -3.4535   25.7737 F   0  0  0  0  0  0
  -29.9836  -13.5483   20.3971 N   0  0  0  0  0  0
  -26.2930  -12.9418   20.3284 N   0  0  0  0  0  0
  -25.9327  -11.6557   20.5757 N   0  0  0  0  0  0
  -22.0457  -12.8209   22.0423 N   0  0  0  0  0  0
  -25.4165  -15.1930   20.4108 N   0  0  0  0  0  0
  -31.8114  -14.8365   20.1534 O   0  0  0  0  0  0
  -21.6640   -6.8876   21.4237 O   0  0  0  0  0  0
  -22.3493  -14.5517   20.6707 O   0  0  0  0  0  0
  -24.6351  -31.8546   23.1996 C   0  0  0  0  0  0
  -25.9169  -32.4751   23.8337 C   0  0  1  0  0  0
  -27.2109  -27.2266   20.1199 C   0  0  0  0  0  0
  -25.5958  -33.8554   24.2257 N   0  0  0  0  0  0
  -23.4325  -30.4808   21.5436 C   0  0  2  0  0  0
  -24.8786  -28.9331   20.1077 C   0  0  0  0  0  0
  -22.7522  -29.4603   22.4892 C   0  0  0  0  0  0
  -18.0295  -28.1402   22.8480 C   0  0  0  0  0  0
  -24.1488  -36.7270   23.2637 C   0  0  0  0  0  0
  -25.9846  -30.7527   21.3908 C   0  0  0  0  0  0
  -26.0532  -29.3750   20.7287 C   0  0  0  0  0  0
  -27.2175  -28.5323   20.7326 C   0  0  0  0  0  0
  -26.0132  -26.8859   19.4430 C   0  0  0  0  0  0
  -24.8667  -27.6973   19.4540 C   0  0  0  0  0  0
  -23.6531  -29.8239   20.1576 C   0  0  0  0  0  0
  -25.4117  -36.3064   24.0325 C   0  0  1  0  0  0
  -20.5907  -28.3716   23.1258 C   0  0  2  0  0  0
  -20.6785  -26.9429   22.5406 C   0  0  0  0  0  0
  -19.5758  -26.6392   21.5214 C   0  0  0  0  0  0
  -18.1938  -26.7942   22.1626 C   0  0  0  0  0  0
  -19.1552  -28.8875   23.2864 C   0  0  0  0  0  0
  -18.9472  -30.1472   23.8890 C   0  0  0  0  0  0
  -17.6472  -30.6598   24.0565 C   0  0  0  0  0  0
  -25.9067  -34.9437   23.5091 C   0  0  0  0  0  0
  -16.5362  -29.9097   23.6337 C   0  0  0  0  0  0
  -16.7283  -28.6516   23.0354 C   0  0  0  0  0  0
  -26.4520  -31.6583   25.0739 C   0  0  0  0  0  0
  -25.3725  -31.3748   26.1445 C   0  0  0  0  0  0
  -27.0372  -30.2988   24.6267 C   0  0  0  0  0  0
  -27.6066  -32.4327   25.7521 C   0  0  0  0  0  0
  -27.5577  -37.1796   24.8468 C   0  0  0  0  0  0
  -21.4226  -29.3056   22.3636 N   0  0  0  0  0  0
  -26.4288  -37.3768   23.9411 N   0  0  0  0  0  0
  -24.7030  -31.0480   22.0999 N   0  0  0  0  0  0
  -23.4207  -28.8133   23.2995 O   0  0  0  0  0  0
  -28.2796  -26.2822   20.2113 O   0  0  0  0  0  0
  -26.5630  -34.8916   22.4656 O   0  0  0  0  0  0
  -23.5494  -32.1389   23.7270 O   0  0  0  0  0  0
  -29.2380  -18.4745   20.4285 C   0  0  0  0  0  0
  -31.5367  -17.8057   20.7998 C   0  0  0  0  0  0
  -29.5502  -19.9136   20.3643 C   0  0  0  0  0  0
  -31.8661  -19.1756   20.7462 C   0  0  0  0  0  0
  -30.9302  -20.1954   20.5230 C   0  0  0  0  0  0
  -30.1980  -17.3863   20.6173 C   0  0  0  0  0  0
  -28.4477  -20.9575   19.9460 C   0  0  0  0  0  0
  -28.8269  -23.5772   20.3126 C   0  0  0  0  0  0
  -33.2652  -19.7203   20.8606 C   0  0  0  0  0  0
  -31.6387  -21.5246   20.4411 C   0  0  0  0  0  0
  -33.1327  -21.1614   20.3377 C   0  0  0  0  0  0
  -28.4901  -24.9624   18.1659 C   0  0  0  0  0  0
  -28.1101  -24.8757   19.6565 C   0  0  2  0  0  0
  -29.8486  -15.9274   20.6398 N   0  0  0  0  0  0
  -28.3414  -22.3497   19.8836 N   0  0  0  0  0  0
  -27.4280  -20.4126   19.5180 O   0  0  0  0  0  0
  -29.7076  -23.7245   21.1609 O   0  0  0  0  0  0
  -31.4732  -12.5979   19.1724 H   0  0  0  0  0  0
  -30.3812  -11.5036   19.9721 H   0  0  0  0  0  0
  -29.7978  -11.7322   17.5299 H   0  0  0  0  0  0
  -29.6326  -13.4609   17.7163 H   0  0  0  0  0  0
  -27.9015  -11.2816   18.9256 H   0  0  0  0  0  0
  -27.3795  -12.5104   17.8046 H   0  0  0  0  0  0
  -27.6267  -14.2530   19.4580 H   0  0  0  0  0  0
  -28.7303  -12.1976   21.4340 H   0  0  0  0  0  0
  -28.4175  -13.8790   21.7873 H   0  0  0  0  0  0
  -25.2760   -9.5680   22.4763 H   0  0  0  0  0  0
  -23.9995   -7.4634   22.7476 H   0  0  0  0  0  0
  -21.0842   -8.8769   19.8952 H   0  0  0  0  0  0
  -22.3697  -10.9670   19.6161 H   0  0  0  0  0  0
  -21.2012   -7.6145   23.9708 H   0  0  0  0  0  0
  -21.1486   -6.0523   25.9073 H   0  0  0  0  0  0
  -22.0599   -2.7605   23.2845 H   0  0  0  0  0  0
  -22.4079  -11.9879   22.4823 H   0  0  0  0  0  0
  -21.1071  -13.1227   22.2623 H   0  0  0  0  0  0
  -24.6435  -15.8418   20.5147 H   0  0  0  0  0  0
  -26.2532  -15.6326   20.0503 H   0  0  0  0  0  0
  -26.7229  -32.5386   23.1068 H   0  0  0  0  0  0
  -25.0111  -33.9693   25.0407 H   0  0  0  0  0  0
  -22.7303  -31.3046   21.3996 H   0  0  0  0  0  0
  -23.3758  -35.9596   23.3303 H   0  0  0  0  0  0
  -24.3572  -36.8890   22.2050 H   0  0  0  0  0  0
  -23.7235  -37.6471   23.6659 H   0  0  0  0  0  0
  -26.1346  -31.5130   20.6233 H   0  0  0  0  0  0
  -26.8586  -30.7965   22.0288 H   0  0  0  0  0  0
  -28.1080  -28.8607   21.2503 H   0  0  0  0  0  0
  -25.8977  -25.9677   18.8928 H   0  0  0  0  0  0
  -23.9738  -27.3601   18.9459 H   0  0  0  0  0  0
  -23.7848  -30.6047   19.4076 H   0  0  0  0  0  0
  -22.7701  -29.2639   19.8447 H   0  0  0  0  0  0
  -25.1300  -36.1906   25.0818 H   0  0  0  0  0  0
  -21.0001  -28.3301   24.1379 H   0  0  0  0  0  0
  -20.5695  -26.2325   23.3613 H   0  0  0  0  0  0
  -21.6649  -26.7454   22.1193 H   0  0  0  0  0  0
  -19.6916  -25.6301   21.1247 H   0  0  0  0  0  0
  -19.6695  -27.3200   20.6742 H   0  0  0  0  0  0
  -17.4205  -26.6687   21.4031 H   0  0  0  0  0  0
  -18.0340  -26.0096   22.9036 H   0  0  0  0  0  0
  -19.7951  -30.7290   24.2257 H   0  0  0  0  0  0
  -17.5029  -31.6279   24.5169 H   0  0  0  0  0  0
  -15.5364  -30.2998   23.7672 H   0  0  0  0  0  0
  -15.8682  -28.0836   22.7074 H   0  0  0  0  0  0
  -24.5919  -30.7075   25.7775 H   0  0  0  0  0  0
  -24.8894  -32.2923   26.4821 H   0  0  0  0  0  0
  -25.8033  -30.8968   27.0251 H   0  0  0  0  0  0
  -26.2979  -29.6727   24.1258 H   0  0  0  0  0  0
  -27.3990  -29.7262   25.4816 H   0  0  0  0  0  0
  -27.8887  -30.4237   23.9572 H   0  0  0  0  0  0
  -27.2674  -33.3636   26.2076 H   0  0  0  0  0  0
  -28.3902  -32.6870   25.0370 H   0  0  0  0  0  0
  -28.0706  -31.8461   26.5461 H   0  0  0  0  0  0
  -28.2597  -38.0090   24.7518 H   0  0  0  0  0  0
  -28.1069  -36.2625   24.6295 H   0  0  0  0  0  0
  -27.2295  -37.1450   25.8870 H   0  0  0  0  0  0
  -20.9415  -29.8780   21.6839 H   0  0  0  0  0  0
  -26.0162  -38.2840   24.1416 H   0  0  0  0  0  0
  -28.2076  -18.1850   20.2782 H   0  0  0  0  0  0
  -32.3300  -17.0927   20.9674 H   0  0  0  0  0  0
  -33.9858  -19.1351   20.2880 H   0  0  0  0  0  0
  -33.5673  -19.7113   21.9089 H   0  0  0  0  0  0
  -31.4735  -22.0614   21.3737 H   0  0  0  0  0  0
  -31.3073  -22.1322   19.5988 H   0  0  0  0  0  0
  -33.4059  -21.1612   19.2814 H   0  0  0  0  0  0
  -33.7920  -21.8708   20.8391 H   0  0  0  0  0  0
  -27.8698  -25.6812   17.6324 H   0  0  0  0  0  0
  -29.5269  -25.2796   18.0505 H   0  0  0  0  0  0
  -28.3800  -24.0060   17.6544 H   0  0  0  0  0  0
  -27.0690  -24.5817   19.7610 H   0  0  0  0  0  0
  -28.8662  -15.7311   20.7541 H   0  0  0  0  0  0
  -27.5190  -22.5232   19.3306 H   0  0  0  0  0  0
  1 25  1  0  0  0
  1 30  2  0  0  0
  1 84  1  0  0  0
  2  3  1  0  0  0
  2 25  1  0  0  0
  2 88  1  0  0  0
  2 89  1  0  0  0
  3  4  1  0  0  0
  3 90  1  0  0  0
  3 91  1  0  0  0
  4  5  1  0  0  0
  4 92  1  0  0  0
  4 93  1  0  0  0
  5  6  1  0  0  0
  5 26  1  0  0  0
  5 94  1  0  0  0
  6 25  1  0  0  0
  6 95  1  0  0  0
  6 96  1  0  0  0
  7  8  2  0  0  0
  7 26  1  0  0  0
  7 29  1  0  0  0
  8  9  1  0  0  0
  8 22  1  0  0  0
  9 10  1  0  0  0
  9 27  2  0  0  0
 10 11  2  0  0  0
 10 15  1  0  0  0
 11 12  1  0  0  0
 11 97  1  0  0  0
 12 13  2  0  0  0
 12 98  1  0  0  0
 13 14  1  0  0  0
 13 31  1  0  0  0
 14 15  2  0  0  0
 14 99  1  0  0  0
 15100  1  0  0  0
 16 17  2  0  0  0
 16 21  1  0  0  0
 16 31  1  0  0  0
 17 18  1  0  0  0
 17101  1  0  0  0
 18 19  2  0  0  0
 18102  1  0  0  0
 19 20  1  0  0  0
 19 24  1  0  0  0
 20 21  2  0  0  0
 20103  1  0  0  0
 21 23  1  0  0  0
 22 28  1  0  0  0
 22 32  2  0  0  0
 26 27  1  0  0  0
 28104  1  0  0  0
 28105  1  0  0  0
 29106  1  0  0  0
 29107  1  0  0  0
 33 34  1  0  0  0
 33 66  1  0  0  0
 33 70  2  0  0  0
 34 36  1  0  0  0
 34 59  1  0  0  0
 34108  1  0  0  0
 35 44  2  0  0  0
 35 45  1  0  0  0
 35 68  1  0  0  0
 36 56  1  0  0  0
 36109  1  0  0  0
 37 39  1  0  0  0
 37 47  1  0  0  0
 37 66  1  0  0  0
 37110  1  0  0  0
 38 43  2  0  0  0
 38 46  1  0  0  0
 38 47  1  0  0  0
 39 64  1  0  0  0
 39 67  2  0  0  0
 40 52  1  0  0  0
 40 53  2  0  0  0
 40 58  1  0  0  0
 41111  1  0  0  0
 41112  1  0  0  0
 41113  1  0  0  0
 41 48  1  0  0  0
 42 43  1  0  0  0
 42 66  1  0  0  0
 42114  1  0  0  0
 42115  1  0  0  0
 43 44  1  0  0  0
 44116  1  0  0  0
 45 46  2  0  0  0
 45117  1  0  0  0
 46118  1  0  0  0
 47119  1  0  0  0
 47120  1  0  0  0
 48 56  1  0  0  0
 48 65  1  0  0  0
 48121  1  0  0  0
 49 50  1  0  0  0
 49 53  1  0  0  0
 49 64  1  0  0  0
 49122  1  0  0  0
 50 51  1  0  0  0
 50123  1  0  0  0
 50124  1  0  0  0
 51 52  1  0  0  0
 51125  1  0  0  0
 51126  1  0  0  0
 52127  1  0  0  0
 52128  1  0  0  0
 53 54  1  0  0  0
 54 55  2  0  0  0
 54129  1  0  0  0
 55 57  1  0  0  0
 55130  1  0  0  0
 56 69  2  0  0  0
 57 58  2  0  0  0
 57131  1  0  0  0
 58132  1  0  0  0
 59 60  1  0  0  0
 59 61  1  0  0  0
 59 62  1  0  0  0
 60133  1  0  0  0
 60134  1  0  0  0
 60135  1  0  0  0
 61136  1  0  0  0
 61137  1  0  0  0
 61138  1  0  0  0
 62139  1  0  0  0
 62140  1  0  0  0
 62141  1  0  0  0
 63 65  1  0  0  0
 63142  1  0  0  0
 63143  1  0  0  0
 63144  1  0  0  0
 64145  1  0  0  0
 65146  1  0  0  0
 68 83  1  0  0  0
 71 73  2  0  0  0
 71 76  1  0  0  0
 71147  1  0  0  0
 72 74  1  0  0  0
 72 76  2  0  0  0
 72148  1  0  0  0
 73 75  1  0  0  0
 73 77  1  0  0  0
 74 75  2  0  0  0
 74 79  1  0  0  0
 75 80  1  0  0  0
 76 84  1  0  0  0
 77 85  1  0  0  0
 77 86  2  0  0  0
 78 83  1  0  0  0
 78 85  1  0  0  0
 78 87  2  0  0  0
 79 81  1  0  0  0
 79149  1  0  0  0
 79150  1  0  0  0
 80 81  1  0  0  0
 80151  1  0  0  0
 80152  1  0  0  0
 81153  1  0  0  0
 81154  1  0  0  0
 82155  1  0  0  0
 82156  1  0  0  0
 82157  1  0  0  0
 82 83  1  0  0  0
 83158  1  0  0  0
 84159  1  0  0  0
 85160  1  0  0  0
M  ISO  4   1 100  68 101  83 101  84 100
M  END
> <chiral flag>
0

> <version>
0

> <s_m_source_file>
/data/baiqing/PycharmProjects/Reinvent-master-3.2/result/LINK_invent/BTK/process_docking_weight1_custom_product_contain_oxygen_bond_distance_aromatic_linkinvent_7_9_3/rearranged_h_0160.sdf

> <i_m_source_file_index>
73

> <r_mmod_Potential_Energy-OPLS-2005>
220.389389038086

> <r_mmod_Stretch_Energy-OPLS-2005>
147.005737304688

> <r_mmod_Bend_Energy-OPLS-2005>
347.661743164062

> <r_mmod_Torsional_Energy-OPLS-2005>
243.094192504883

> <r_mmod_Improper_Torsional_Energy-OPLS-2005>
6.68804311752319

> <r_mmod_Van_der_Waal_Energy-OPLS-2005>
145.092239379883

> <r_mmod_Electrostatic_Energy-OPLS-2005>
-525.515258789062

> <r_mmod_Solvation_Energy-OPLS-2005>
-249.685882568359

> <b_mmod_Minimization_Converged-OPLS-2005>
0

> <r_mmod_RMS_Derivative-OPLS-2005>
0.686401903629303

$$$$
74
                    3D
 Structure written by MMmdl.
154163  0  0  1  0            999 V2000
  -30.5569  -14.7972   20.4366 C   0  0  0  0  0  0
  -30.4313  -12.4798   19.4846 C   0  0  0  0  0  0
  -29.5159  -12.5110   18.2412 C   0  0  0  0  0  0
  -28.0374  -12.3299   18.6477 C   0  0  0  0  0  0
  -27.6348  -13.2293   19.8463 C   0  0  2  0  0  0
  -28.6716  -13.1774   20.9870 C   0  0  0  0  0  0
  -25.2457  -13.8185   20.5650 C   0  0  0  0  0  0
  -24.1753  -13.0416   20.9173 C   0  0  0  0  0  0
  -24.6333  -11.6895   20.8691 C   0  0  0  0  0  0
  -23.9007  -10.4278   21.0393 C   0  0  0  0  0  0
  -24.3566   -9.4199   21.9171 C   0  0  0  0  0  0
  -23.6254   -8.2227   22.0766 C   0  0  0  0  0  0
  -22.4235   -8.0254   21.3556 C   0  0  0  0  0  0
  -21.9853   -9.0215   20.4649 C   0  0  0  0  0  0
  -22.7177  -10.2097   20.3046 C   0  0  0  0  0  0
  -21.6861   -6.0705   22.5278 C   0  0  0  0  0  0
  -21.4029   -6.5617   23.8195 C   0  0  0  0  0  0
  -21.3674   -5.6791   24.9166 C   0  0  0  0  0  0
  -21.6044   -4.3052   24.7224 C   0  0  0  0  0  0
  -21.8827   -3.8123   23.4350 C   0  0  0  0  0  0
  -21.9202   -4.6938   22.3395 C   0  0  0  0  0  0
  -22.7783  -13.5226   21.1851 C   0  0  0  0  0  0
  -22.1669   -4.2108   21.0966 F   0  0  0  0  0  0
  -21.5605   -3.4517   25.7743 F   0  0  0  0  0  0
  -29.9686  -13.5481   20.4088 N   0  0  0  0  0  0
  -26.2865  -12.9386   20.3209 N   0  0  0  0  0  0
  -25.9244  -11.6537   20.5684 N   0  0  0  0  0  0
  -22.0376  -12.8247   22.0387 N   0  0  0  0  0  0
  -25.4140  -15.1925   20.4131 N   0  0  0  0  0  0
  -31.7515  -14.8908   20.1295 O   0  0  0  0  0  0
  -21.6621   -6.8842   21.4245 O   0  0  0  0  0  0
  -22.3493  -14.5547   20.6718 O   0  0  0  0  0  0
  -24.6315  -31.8503   23.1982 C   0  0  0  0  0  0
  -25.9154  -32.4722   23.8305 C   0  0  1  0  0  0
  -27.1996  -27.2214   20.1209 C   0  0  0  0  0  0
  -25.5952  -33.8524   24.2222 N   0  0  0  0  0  0
  -23.4295  -30.4734   21.5364 C   0  0  2  0  0  0
  -24.8776  -28.9194   20.0955 C   0  0  0  0  0  0
  -22.7507  -29.4541   22.4837 C   0  0  0  0  0  0
  -18.0285  -28.1394   22.8466 C   0  0  0  0  0  0
  -24.1506  -36.7265   23.2635 C   0  0  0  0  0  0
  -25.9774  -30.7502   21.3838 C   0  0  0  0  0  0
  -26.0465  -29.3706   20.7218 C   0  0  0  0  0  0
  -27.2069  -28.5285   20.7322 C   0  0  0  0  0  0
  -26.0172  -26.8536   19.4496 C   0  0  0  0  0  0
  -24.8714  -27.6763   19.4449 C   0  0  0  0  0  0
  -23.6547  -29.8161   20.1475 C   0  0  0  0  0  0
  -25.4130  -36.3027   24.0316 C   0  0  1  0  0  0
  -20.5876  -28.3682   23.1274 C   0  0  2  0  0  0
  -20.6759  -26.9402   22.5404 C   0  0  0  0  0  0
  -19.5753  -26.6386   21.5195 C   0  0  0  0  0  0
  -18.1928  -26.7941   22.1600 C   0  0  0  0  0  0
  -19.1532  -28.8862   23.2863 C   0  0  0  0  0  0
  -18.9466  -30.1445   23.8883 C   0  0  0  0  0  0
  -17.6464  -30.6600   24.0548 C   0  0  0  0  0  0
  -25.9072  -34.9405   23.5072 C   0  0  0  0  0  0
  -16.5345  -29.9095   23.6329 C   0  0  0  0  0  0
  -16.7264  -28.6517   23.0352 C   0  0  0  0  0  0
  -26.4543  -31.6545   25.0683 C   0  0  0  0  0  0
  -25.3795  -31.3677   26.1415 C   0  0  0  0  0  0
  -27.0388  -30.2957   24.6173 C   0  0  0  0  0  0
  -27.6100  -32.4260   25.7467 C   0  0  0  0  0  0
  -27.5580  -37.1805   24.8471 C   0  0  0  0  0  0
  -21.4197  -29.3036   22.3661 N   0  0  0  0  0  0
  -26.4297  -37.3738   23.9404 N   0  0  0  0  0  0
  -24.6981  -31.0441   22.0961 N   0  0  0  0  0  0
  -23.4197  -28.8067   23.2936 O   0  0  0  0  0  0
  -28.2479  -26.2762   20.2638 O   0  0  0  0  0  0
  -26.5633  -34.8892   22.4624 O   0  0  0  0  0  0
  -23.5456  -32.1322   23.7272 O   0  0  0  0  0  0
  -29.1133  -18.5650   20.6447 C   0  0  0  0  0  0
  -30.9467  -17.7840   19.4248 C   0  0  0  0  0  0
  -29.9405  -17.3801   20.2619 C   0  0  0  0  0  0
  -29.4794  -19.8242   20.0864 C   0  0  0  0  0  0
  -28.4839  -23.7018   20.0687 C   0  0  0  0  0  0
  -28.3219  -25.0132   19.5852 C   0  0  0  0  0  0
  -28.3089  -23.2229   21.4979 C   0  0  0  0  0  0
  -28.2844  -21.6558   21.4644 C   0  0  0  0  0  0
  -28.8853  -22.3796   19.2808 C   0  0  1  0  0  0
  -30.1645  -22.6182   18.4215 C   0  0  0  0  0  0
  -28.9778  -21.2109   20.2562 N   0  0  0  0  0  0
  -29.7515  -15.9318   20.6325 N   0  0  0  0  0  0
  -27.9033  -22.1024   18.4221 F   0  0  0  0  0  0
  -30.1749  -23.8155   17.8359 F   0  0  0  0  0  0
  -30.3062  -21.7191   17.4466 F   0  0  0  0  0  0
  -30.9022  -19.5101   19.0990 S   0  0  0  0  0  0
  -31.4731  -12.6168   19.1909 H   0  0  0  0  0  0
  -30.3782  -11.5018   19.9683 H   0  0  0  0  0  0
  -29.8107  -11.7370   17.5300 H   0  0  0  0  0  0
  -29.6379  -13.4642   17.7239 H   0  0  0  0  0  0
  -27.8853  -11.2790   18.9044 H   0  0  0  0  0  0
  -27.3882  -12.5310   17.7949 H   0  0  0  0  0  0
  -27.6275  -14.2475   19.4597 H   0  0  0  0  0  0
  -28.7106  -12.1817   21.4330 H   0  0  0  0  0  0
  -28.3889  -13.8587   21.7928 H   0  0  0  0  0  0
  -25.2698   -9.5689   22.4757 H   0  0  0  0  0  0
  -23.9946   -7.4628   22.7513 H   0  0  0  0  0  0
  -21.0750   -8.8734   19.8975 H   0  0  0  0  0  0
  -22.3609  -10.9615   19.6140 H   0  0  0  0  0  0
  -21.2056   -7.6142   23.9675 H   0  0  0  0  0  0
  -21.1488   -6.0530   25.9068 H   0  0  0  0  0  0
  -22.0609   -2.7578   23.2837 H   0  0  0  0  0  0
  -22.3965  -11.9931   22.4852 H   0  0  0  0  0  0
  -21.1026  -13.1361   22.2595 H   0  0  0  0  0  0
  -24.6356  -15.8368   20.5085 H   0  0  0  0  0  0
  -26.2539  -15.6378   20.0655 H   0  0  0  0  0  0
  -26.7183  -32.5360   23.1000 H   0  0  0  0  0  0
  -25.0163  -33.9674   25.0407 H   0  0  0  0  0  0
  -22.7231  -31.2947   21.3926 H   0  0  0  0  0  0
  -23.3749  -35.9627   23.3309 H   0  0  0  0  0  0
  -24.3590  -36.8868   22.2051 H   0  0  0  0  0  0
  -23.7312  -37.6485   23.6657 H   0  0  0  0  0  0
  -26.1225  -31.5134   20.6167 H   0  0  0  0  0  0
  -26.8516  -30.7985   22.0214 H   0  0  0  0  0  0
  -28.0905  -28.8498   21.2650 H   0  0  0  0  0  0
  -25.9442  -25.8950   18.9565 H   0  0  0  0  0  0
  -23.9781  -27.3395   18.9370 H   0  0  0  0  0  0
  -23.8011  -30.5994   19.4026 H   0  0  0  0  0  0
  -22.7682  -29.2682   19.8240 H   0  0  0  0  0  0
  -25.1325  -36.1852   25.0813 H   0  0  0  0  0  0
  -20.9967  -28.3274   24.1400 H   0  0  0  0  0  0
  -20.5647  -26.2304   23.3609 H   0  0  0  0  0  0
  -21.6640  -26.7439   22.1222 H   0  0  0  0  0  0
  -19.6929  -25.6294   21.1259 H   0  0  0  0  0  0
  -19.6717  -27.3167   20.6709 H   0  0  0  0  0  0
  -17.4199  -26.6646   21.3994 H   0  0  0  0  0  0
  -18.0340  -26.0088   22.9007 H   0  0  0  0  0  0
  -19.7938  -30.7248   24.2266 H   0  0  0  0  0  0
  -17.5037  -31.6295   24.5129 H   0  0  0  0  0  0
  -15.5348  -30.3010   23.7690 H   0  0  0  0  0  0
  -15.8651  -28.0858   22.7078 H   0  0  0  0  0  0
  -24.5966  -30.7024   25.7745 H   0  0  0  0  0  0
  -24.9006  -32.2845   26.4864 H   0  0  0  0  0  0
  -25.8161  -30.8833   27.0165 H   0  0  0  0  0  0
  -26.2953  -29.6670   24.1257 H   0  0  0  0  0  0
  -27.4121  -29.7243   25.4684 H   0  0  0  0  0  0
  -27.8821  -30.4184   23.9370 H   0  0  0  0  0  0
  -27.2721  -33.3547   26.2068 H   0  0  0  0  0  0
  -28.3940  -32.6828   25.0330 H   0  0  0  0  0  0
  -28.0750  -31.8362   26.5377 H   0  0  0  0  0  0
  -28.2600  -38.0092   24.7463 H   0  0  0  0  0  0
  -28.1063  -36.2618   24.6346 H   0  0  0  0  0  0
  -27.2292  -37.1507   25.8872 H   0  0  0  0  0  0
  -20.9367  -29.8799   21.6912 H   0  0  0  0  0  0
  -26.0150  -38.2807   24.1373 H   0  0  0  0  0  0
  -28.2760  -18.4577   21.3222 H   0  0  0  0  0  0
  -31.7206  -17.1836   18.9585 H   0  0  0  0  0  0
  -28.4119  -25.2013   18.5253 H   0  0  0  0  0  0
  -27.3957  -23.6214   21.9431 H   0  0  0  0  0  0
  -29.1530  -23.5798   22.0861 H   0  0  0  0  0  0
  -27.2539  -21.2980   21.4096 H   0  0  0  0  0  0
  -28.7254  -21.2329   22.3678 H   0  0  0  0  0  0
  -31.0575  -22.5911   19.0456 H   0  0  0  0  0  0
  -28.8272  -15.7058   20.9716 H   0  0  0  0  0  0
  1 25  1  0  0  0
  1 30  2  0  0  0
  1 82  1  0  0  0
  2  3  1  0  0  0
  2 25  1  0  0  0
  2 87  1  0  0  0
  2 88  1  0  0  0
  3  4  1  0  0  0
  3 89  1  0  0  0
  3 90  1  0  0  0
  4  5  1  0  0  0
  4 91  1  0  0  0
  4 92  1  0  0  0
  5  6  1  0  0  0
  5 26  1  0  0  0
  5 93  1  0  0  0
  6 25  1  0  0  0
  6 94  1  0  0  0
  6 95  1  0  0  0
  7  8  2  0  0  0
  7 26  1  0  0  0
  7 29  1  0  0  0
  8  9  1  0  0  0
  8 22  1  0  0  0
  9 10  1  0  0  0
  9 27  2  0  0  0
 10 11  2  0  0  0
 10 15  1  0  0  0
 11 12  1  0  0  0
 11 96  1  0  0  0
 12 13  2  0  0  0
 12 97  1  0  0  0
 13 14  1  0  0  0
 13 31  1  0  0  0
 14 15  2  0  0  0
 14 98  1  0  0  0
 15 99  1  0  0  0
 16 17  2  0  0  0
 16 21  1  0  0  0
 16 31  1  0  0  0
 17 18  1  0  0  0
 17100  1  0  0  0
 18 19  2  0  0  0
 18101  1  0  0  0
 19 20  1  0  0  0
 19 24  1  0  0  0
 20 21  2  0  0  0
 20102  1  0  0  0
 21 23  1  0  0  0
 22 28  1  0  0  0
 22 32  2  0  0  0
 26 27  1  0  0  0
 28103  1  0  0  0
 28104  1  0  0  0
 29105  1  0  0  0
 29106  1  0  0  0
 33 34  1  0  0  0
 33 66  1  0  0  0
 33 70  2  0  0  0
 34 36  1  0  0  0
 34 59  1  0  0  0
 34107  1  0  0  0
 35 44  2  0  0  0
 35 45  1  0  0  0
 35 68  1  0  0  0
 36 56  1  0  0  0
 36108  1  0  0  0
 37 39  1  0  0  0
 37 47  1  0  0  0
 37 66  1  0  0  0
 37109  1  0  0  0
 38 43  2  0  0  0
 38 46  1  0  0  0
 38 47  1  0  0  0
 39 64  1  0  0  0
 39 67  2  0  0  0
 40 52  1  0  0  0
 40 53  2  0  0  0
 40 58  1  0  0  0
 41110  1  0  0  0
 41111  1  0  0  0
 41112  1  0  0  0
 41 48  1  0  0  0
 42 43  1  0  0  0
 42 66  1  0  0  0
 42113  1  0  0  0
 42114  1  0  0  0
 43 44  1  0  0  0
 44115  1  0  0  0
 45 46  2  0  0  0
 45116  1  0  0  0
 46117  1  0  0  0
 47118  1  0  0  0
 47119  1  0  0  0
 48 56  1  0  0  0
 48 65  1  0  0  0
 48120  1  0  0  0
 49 50  1  0  0  0
 49 53  1  0  0  0
 49 64  1  0  0  0
 49121  1  0  0  0
 50 51  1  0  0  0
 50122  1  0  0  0
 50123  1  0  0  0
 51 52  1  0  0  0
 51124  1  0  0  0
 51125  1  0  0  0
 52126  1  0  0  0
 52127  1  0  0  0
 53 54  1  0  0  0
 54 55  2  0  0  0
 54128  1  0  0  0
 55 57  1  0  0  0
 55129  1  0  0  0
 56 69  2  0  0  0
 57 58  2  0  0  0
 57130  1  0  0  0
 58131  1  0  0  0
 59 60  1  0  0  0
 59 61  1  0  0  0
 59 62  1  0  0  0
 60132  1  0  0  0
 60133  1  0  0  0
 60134  1  0  0  0
 61135  1  0  0  0
 61136  1  0  0  0
 61137  1  0  0  0
 62138  1  0  0  0
 62139  1  0  0  0
 62140  1  0  0  0
 63 65  1  0  0  0
 63141  1  0  0  0
 63142  1  0  0  0
 63143  1  0  0  0
 64144  1  0  0  0
 65145  1  0  0  0
 68 76  1  0  0  0
 71 73  1  0  0  0
 71 74  2  0  0  0
 71146  1  0  0  0
 72 73  2  0  0  0
 72 86  1  0  0  0
 72147  1  0  0  0
 73 82  1  0  0  0
 74 81  1  0  0  0
 74 86  1  0  0  0
 75 76  2  0  0  0
 75 77  1  0  0  0
 75 79  1  0  0  0
 76148  1  0  0  0
 77 78  1  0  0  0
 77149  1  0  0  0
 77150  1  0  0  0
 78 81  1  0  0  0
 78151  1  0  0  0
 78152  1  0  0  0
 79 80  1  0  0  0
 79 81  1  0  0  0
 79 83  1  0  0  0
 80 84  1  0  0  0
 80 85  1  0  0  0
 80153  1  0  0  0
 82154  1  0  0  0
M  ISO  4   1 100  68 101  76 101  82 100
M  END
> <chiral flag>
0

> <version>
0

> <s_m_source_file>
/data/baiqing/PycharmProjects/Reinvent-master-3.2/result/LINK_invent/BTK/process_docking_weight1_custom_product_contain_oxygen_bond_distance_aromatic_linkinvent_7_9_3/rearranged_h_0160.sdf

> <i_m_source_file_index>
74

> <r_mmod_Potential_Energy-OPLS-2005>
329.118774414062

> <r_mmod_Stretch_Energy-OPLS-2005>
146.767608642578

> <r_mmod_Bend_Energy-OPLS-2005>
219.476318359375

> <r_mmod_Torsional_Energy-OPLS-2005>
257.102844238281

> <r_mmod_Improper_Torsional_Energy-OPLS-2005>
5.21332120895386

> <r_mmod_Van_der_Waal_Energy-OPLS-2005>
123.031913757324

> <r_mmod_Electrostatic_Energy-OPLS-2005>
-329.25341796875

> <r_mmod_Solvation_Energy-OPLS-2005>
-211.079406738281

> <b_mmod_Minimization_Converged-OPLS-2005>
0

> <r_mmod_RMS_Derivative-OPLS-2005>
4.82678937911987

$$$$
75
                    3D
 Structure written by MMmdl.
153161  0  0  1  0            999 V2000
  -30.5905  -14.7898   20.4424 C   0  0  0  0  0  0
  -30.4333  -12.4774   19.4946 C   0  0  0  0  0  0
  -29.5183  -12.5116   18.2490 C   0  0  0  0  0  0
  -28.0441  -12.3295   18.6573 C   0  0  0  0  0  0
  -27.6409  -13.2353   19.8515 C   0  0  2  0  0  0
  -28.6808  -13.1908   20.9938 C   0  0  0  0  0  0
  -25.2506  -13.8201   20.5702 C   0  0  0  0  0  0
  -24.1802  -13.0444   20.9206 C   0  0  0  0  0  0
  -24.6390  -11.6919   20.8738 C   0  0  0  0  0  0
  -23.9065  -10.4298   21.0398 C   0  0  0  0  0  0
  -24.3618   -9.4213   21.9179 C   0  0  0  0  0  0
  -23.6296   -8.2245   22.0749 C   0  0  0  0  0  0
  -22.4276   -8.0283   21.3542 C   0  0  0  0  0  0
  -21.9909   -9.0257   20.4643 C   0  0  0  0  0  0
  -22.7233  -10.2138   20.3049 C   0  0  0  0  0  0
  -21.6856   -6.0736   22.5280 C   0  0  0  0  0  0
  -21.4017   -6.5641   23.8215 C   0  0  0  0  0  0
  -21.3660   -5.6789   24.9179 C   0  0  0  0  0  0
  -21.6042   -4.3053   24.7227 C   0  0  0  0  0  0
  -21.8819   -3.8144   23.4348 C   0  0  0  0  0  0
  -21.9196   -4.6962   22.3404 C   0  0  0  0  0  0
  -22.7823  -13.5225   21.1871 C   0  0  0  0  0  0
  -22.1664   -4.2148   21.0981 F   0  0  0  0  0  0
  -21.5626   -3.4535   25.7740 F   0  0  0  0  0  0
  -29.9814  -13.5502   20.4168 N   0  0  0  0  0  0
  -26.2929  -12.9413   20.3271 N   0  0  0  0  0  0
  -25.9324  -11.6552   20.5733 N   0  0  0  0  0  0
  -22.0465  -12.8222   22.0426 N   0  0  0  0  0  0
  -25.4198  -15.1931   20.4151 N   0  0  0  0  0  0
  -31.7709  -14.8819   20.0935 O   0  0  0  0  0  0
  -21.6641   -6.8878   21.4242 O   0  0  0  0  0  0
  -22.3512  -14.5535   20.6716 O   0  0  0  0  0  0
  -24.6357  -31.8519   23.1976 C   0  0  0  0  0  0
  -25.9163  -32.4729   23.8337 C   0  0  1  0  0  0
  -27.2075  -27.2130   20.1393 C   0  0  0  0  0  0
  -25.5940  -33.8534   24.2251 N   0  0  0  0  0  0
  -23.4349  -30.4769   21.5405 C   0  0  2  0  0  0
  -24.8818  -28.9241   20.1049 C   0  0  0  0  0  0
  -22.7529  -29.4589   22.4878 C   0  0  0  0  0  0
  -18.0301  -28.1388   22.8483 C   0  0  0  0  0  0
  -24.1495  -36.7282   23.2644 C   0  0  0  0  0  0
  -25.9856  -30.7493   21.3871 C   0  0  0  0  0  0
  -26.0551  -29.3696   20.7269 C   0  0  0  0  0  0
  -27.2190  -28.5261   20.7360 C   0  0  0  0  0  0
  -26.0183  -26.8668   19.4554 C   0  0  0  0  0  0
  -24.8723  -27.6835   19.4546 C   0  0  0  0  0  0
  -23.6561  -29.8167   20.1549 C   0  0  0  0  0  0
  -25.4123  -36.3057   24.0324 C   0  0  1  0  0  0
  -20.5908  -28.3707   23.1241 C   0  0  2  0  0  0
  -20.6787  -26.9420   22.5388 C   0  0  0  0  0  0
  -19.5752  -26.6381   21.5205 C   0  0  0  0  0  0
  -18.1944  -26.7924   22.1640 C   0  0  0  0  0  0
  -19.1556  -28.8866   23.2857 C   0  0  0  0  0  0
  -18.9473  -30.1466   23.8874 C   0  0  0  0  0  0
  -17.6469  -30.6587   24.0556 C   0  0  0  0  0  0
  -25.9057  -34.9422   23.5092 C   0  0  0  0  0  0
  -16.5361  -29.9081   23.6330 C   0  0  0  0  0  0
  -16.7286  -28.6500   23.0351 C   0  0  0  0  0  0
  -26.4511  -31.6567   25.0746 C   0  0  0  0  0  0
  -25.3735  -31.3735   26.1475 C   0  0  0  0  0  0
  -27.0360  -30.2971   24.6274 C   0  0  0  0  0  0
  -27.6060  -32.4313   25.7515 C   0  0  0  0  0  0
  -27.5563  -37.1821   24.8481 C   0  0  0  0  0  0
  -21.4230  -29.3050   22.3622 N   0  0  0  0  0  0
  -26.4306  -37.3747   23.9380 N   0  0  0  0  0  0
  -24.7047  -31.0450   22.0971 N   0  0  0  0  0  0
  -23.4210  -28.8123   23.2987 O   0  0  0  0  0  0
  -28.2606  -26.2551   20.2437 O   0  0  0  0  0  0
  -26.5631  -34.8896   22.4661 O   0  0  0  0  0  0
  -23.5494  -32.1356   23.7245 O   0  0  0  0  0  0
  -29.3393  -20.6570   21.9362 C   0  0  0  0  0  0
  -29.6759  -19.2488   21.9840 C   0  0  0  0  0  0
  -29.6559  -18.7326   20.7006 C   0  0  0  0  0  0
  -29.1256  -21.0097   20.6296 C   0  0  0  0  0  0
  -30.0520  -18.4443   23.1700 C   0  0  0  0  0  0
  -28.7993  -23.5809   20.6215 C   0  0  0  0  0  0
  -29.6495  -19.0060   24.5248 C   0  0  0  0  0  0
  -30.0440  -17.3402   20.0188 C   0  0  0  0  0  0
  -27.9703  -24.7886   19.9314 C   0  0  0  0  0  0
  -28.7047  -22.2692   20.1386 N   0  0  0  0  0  0
  -29.8110  -15.9347   20.6120 N   0  0  0  0  0  0
  -30.6581  -17.3729   23.1054 O   0  0  0  0  0  0
  -29.5086  -23.8464   21.5972 O   0  0  0  0  0  0
  -29.2901  -19.8298   19.8687 O   0  0  0  0  0  0
  -31.4757  -12.6003   19.1956 H   0  0  0  0  0  0
  -30.3794  -11.5051   19.9867 H   0  0  0  0  0  0
  -29.8105  -11.7321   17.5442 H   0  0  0  0  0  0
  -29.6414  -13.4615   17.7256 H   0  0  0  0  0  0
  -27.9067  -11.2820   18.9275 H   0  0  0  0  0  0
  -27.3890  -12.5111   17.8048 H   0  0  0  0  0  0
  -27.6298  -14.2527   19.4609 H   0  0  0  0  0  0
  -28.7219  -12.1999   21.4482 H   0  0  0  0  0  0
  -28.4058  -13.8824   21.7915 H   0  0  0  0  0  0
  -25.2760   -9.5702   22.4753 H   0  0  0  0  0  0
  -24.0014   -7.4636   22.7465 H   0  0  0  0  0  0
  -21.0837   -8.8772   19.8950 H   0  0  0  0  0  0
  -22.3682  -10.9679   19.6162 H   0  0  0  0  0  0
  -21.2012   -7.6148   23.9722 H   0  0  0  0  0  0
  -21.1479   -6.0517   25.9083 H   0  0  0  0  0  0
  -22.0597   -2.7605   23.2844 H   0  0  0  0  0  0
  -22.4078  -11.9890   22.4829 H   0  0  0  0  0  0
  -21.1086  -13.1260   22.2628 H   0  0  0  0  0  0
  -24.6505  -15.8441   20.5290 H   0  0  0  0  0  0
  -26.2655  -15.6357   20.0791 H   0  0  0  0  0  0
  -26.7233  -32.5363   23.1079 H   0  0  0  0  0  0
  -25.0073  -33.9660   25.0387 H   0  0  0  0  0  0
  -22.7339  -31.3015   21.3955 H   0  0  0  0  0  0
  -23.3716  -35.9665   23.3386 H   0  0  0  0  0  0
  -24.3565  -36.8818   22.2042 H   0  0  0  0  0  0
  -23.7311  -37.6537   23.6613 H   0  0  0  0  0  0
  -26.1344  -31.5090   20.6186 H   0  0  0  0  0  0
  -26.8595  -30.7956   22.0253 H   0  0  0  0  0  0
  -28.1088  -28.8556   21.2542 H   0  0  0  0  0  0
  -25.9299  -25.9319   18.9236 H   0  0  0  0  0  0
  -23.9805  -27.3450   18.9454 H   0  0  0  0  0  0
  -23.7858  -30.5965   19.4033 H   0  0  0  0  0  0
  -22.7725  -29.2561   19.8447 H   0  0  0  0  0  0
  -25.1315  -36.1919   25.0820 H   0  0  0  0  0  0
  -21.0009  -28.3288   24.1358 H   0  0  0  0  0  0
  -20.5699  -26.2314   23.3597 H   0  0  0  0  0  0
  -21.6648  -26.7442   22.1169 H   0  0  0  0  0  0
  -19.6910  -25.6290   21.1240 H   0  0  0  0  0  0
  -19.6673  -27.3182   20.6726 H   0  0  0  0  0  0
  -17.4197  -26.6637   21.4065 H   0  0  0  0  0  0
  -18.0375  -26.0081   22.9059 H   0  0  0  0  0  0
  -19.7948  -30.7288   24.2228 H   0  0  0  0  0  0
  -17.5023  -31.6264   24.5163 H   0  0  0  0  0  0
  -15.5359  -30.2974   23.7664 H   0  0  0  0  0  0
  -15.8690  -28.0813   22.7069 H   0  0  0  0  0  0
  -24.5825  -30.7200   25.7777 H   0  0  0  0  0  0
  -24.9048  -32.2926   26.5004 H   0  0  0  0  0  0
  -25.8039  -30.8786   27.0194 H   0  0  0  0  0  0
  -26.2954  -29.6709   24.1288 H   0  0  0  0  0  0
  -27.3991  -29.7250   25.4823 H   0  0  0  0  0  0
  -27.8863  -30.4212   23.9564 H   0  0  0  0  0  0
  -27.2661  -33.3600   26.2109 H   0  0  0  0  0  0
  -28.3867  -32.6896   25.0349 H   0  0  0  0  0  0
  -28.0746  -31.8441   26.5423 H   0  0  0  0  0  0
  -28.2649  -38.0046   24.7413 H   0  0  0  0  0  0
  -28.0990  -36.2570   24.6471 H   0  0  0  0  0  0
  -27.2258  -37.1668   25.8882 H   0  0  0  0  0  0
  -20.9419  -29.8778   21.6829 H   0  0  0  0  0  0
  -26.0185  -38.2842   24.1295 H   0  0  0  0  0  0
  -29.2708  -21.3307   22.7789 H   0  0  0  0  0  0
  -30.1214  -19.9744   24.6888 H   0  0  0  0  0  0
  -29.9543  -18.3287   25.3231 H   0  0  0  0  0  0
  -28.5673  -19.1290   24.5677 H   0  0  0  0  0  0
  -31.1019  -17.4018   19.7608 H   0  0  0  0  0  0
  -29.5405  -17.3138   19.0513 H   0  0  0  0  0  0
  -26.9467  -24.5662   20.2331 H   0  0  0  0  0  0
  -28.0117  -24.6534   18.8504 H   0  0  0  0  0  0
  -28.2055  -22.2126   19.2617 H   0  0  0  0  0  0
  -28.8744  -15.7637   20.9432 H   0  0  0  0  0  0
  1 25  1  0  0  0
  1 30  2  0  0  0
  1 81  1  0  0  0
  2  3  1  0  0  0
  2 25  1  0  0  0
  2 85  1  0  0  0
  2 86  1  0  0  0
  3  4  1  0  0  0
  3 87  1  0  0  0
  3 88  1  0  0  0
  4  5  1  0  0  0
  4 89  1  0  0  0
  4 90  1  0  0  0
  5  6  1  0  0  0
  5 26  1  0  0  0
  5 91  1  0  0  0
  6 25  1  0  0  0
  6 92  1  0  0  0
  6 93  1  0  0  0
  7  8  2  0  0  0
  7 26  1  0  0  0
  7 29  1  0  0  0
  8  9  1  0  0  0
  8 22  1  0  0  0
  9 10  1  0  0  0
  9 27  2  0  0  0
 10 11  2  0  0  0
 10 15  1  0  0  0
 11 12  1  0  0  0
 11 94  1  0  0  0
 12 13  2  0  0  0
 12 95  1  0  0  0
 13 14  1  0  0  0
 13 31  1  0  0  0
 14 15  2  0  0  0
 14 96  1  0  0  0
 15 97  1  0  0  0
 16 17  2  0  0  0
 16 21  1  0  0  0
 16 31  1  0  0  0
 17 18  1  0  0  0
 17 98  1  0  0  0
 18 19  2  0  0  0
 18 99  1  0  0  0
 19 20  1  0  0  0
 19 24  1  0  0  0
 20 21  2  0  0  0
 20100  1  0  0  0
 21 23  1  0  0  0
 22 28  1  0  0  0
 22 32  2  0  0  0
 26 27  1  0  0  0
 28101  1  0  0  0
 28102  1  0  0  0
 29103  1  0  0  0
 29104  1  0  0  0
 33 34  1  0  0  0
 33 66  1  0  0  0
 33 70  2  0  0  0
 34 36  1  0  0  0
 34 59  1  0  0  0
 34105  1  0  0  0
 35 44  2  0  0  0
 35 45  1  0  0  0
 35 68  1  0  0  0
 36 56  1  0  0  0
 36106  1  0  0  0
 37 39  1  0  0  0
 37 47  1  0  0  0
 37 66  1  0  0  0
 37107  1  0  0  0
 38 43  2  0  0  0
 38 46  1  0  0  0
 38 47  1  0  0  0
 39 64  1  0  0  0
 39 67  2  0  0  0
 40 52  1  0  0  0
 40 53  2  0  0  0
 40 58  1  0  0  0
 41108  1  0  0  0
 41109  1  0  0  0
 41110  1  0  0  0
 41 48  1  0  0  0
 42 43  1  0  0  0
 42 66  1  0  0  0
 42111  1  0  0  0
 42112  1  0  0  0
 43 44  1  0  0  0
 44113  1  0  0  0
 45 46  2  0  0  0
 45114  1  0  0  0
 46115  1  0  0  0
 47116  1  0  0  0
 47117  1  0  0  0
 48 56  1  0  0  0
 48 65  1  0  0  0
 48118  1  0  0  0
 49 50  1  0  0  0
 49 53  1  0  0  0
 49 64  1  0  0  0
 49119  1  0  0  0
 50 51  1  0  0  0
 50120  1  0  0  0
 50121  1  0  0  0
 51 52  1  0  0  0
 51122  1  0  0  0
 51123  1  0  0  0
 52124  1  0  0  0
 52125  1  0  0  0
 53 54  1  0  0  0
 54 55  2  0  0  0
 54126  1  0  0  0
 55 57  1  0  0  0
 55127  1  0  0  0
 56 69  2  0  0  0
 57 58  2  0  0  0
 57128  1  0  0  0
 58129  1  0  0  0
 59 60  1  0  0  0
 59 61  1  0  0  0
 59 62  1  0  0  0
 60130  1  0  0  0
 60131  1  0  0  0
 60132  1  0  0  0
 61133  1  0  0  0
 61134  1  0  0  0
 61135  1  0  0  0
 62136  1  0  0  0
 62137  1  0  0  0
 62138  1  0  0  0
 63 65  1  0  0  0
 63139  1  0  0  0
 63140  1  0  0  0
 63141  1  0  0  0
 64142  1  0  0  0
 65143  1  0  0  0
 68 79  1  0  0  0
 71 72  1  0  0  0
 71 74  2  0  0  0
 71144  1  0  0  0
 72 73  2  0  0  0
 72 75  1  0  0  0
 73 78  1  0  0  0
 73 84  1  0  0  0
 74 80  1  0  0  0
 74 84  1  0  0  0
 75 77  1  0  0  0
 75 82  2  0  0  0
 76 79  1  0  0  0
 76 80  1  0  0  0
 76 83  2  0  0  0
 77145  1  0  0  0
 77146  1  0  0  0
 77147  1  0  0  0
 78 81  1  0  0  0
 78148  1  0  0  0
 78149  1  0  0  0
 79150  1  0  0  0
 79151  1  0  0  0
 80152  1  0  0  0
 81153  1  0  0  0
M  ISO  4   1 100  68 101  79 101  81 100
M  END
> <chiral flag>
0

> <version>
0

> <s_m_source_file>
/data/baiqing/PycharmProjects/Reinvent-master-3.2/result/LINK_invent/BTK/process_docking_weight1_custom_product_contain_oxygen_bond_distance_aromatic_linkinvent_7_9_3/rearranged_h_0160.sdf

> <i_m_source_file_index>
75

> <r_mmod_Potential_Energy-OPLS-2005>
84.9629135131836

> <r_mmod_Stretch_Energy-OPLS-2005>
145.668106079102

> <r_mmod_Bend_Energy-OPLS-2005>
192.371505737305

> <r_mmod_Torsional_Energy-OPLS-2005>
244.61213684082

> <r_mmod_Improper_Torsional_Energy-OPLS-2005>
7.31381797790527

> <r_mmod_Van_der_Waal_Energy-OPLS-2005>
119.733787536621

> <r_mmod_Electrostatic_Energy-OPLS-2005>
-482.439849853516

> <r_mmod_Solvation_Energy-OPLS-2005>
-258.812133789062

> <b_mmod_Minimization_Converged-OPLS-2005>
0

> <r_mmod_RMS_Derivative-OPLS-2005>
1.17883121967316

$$$$
76
                    3D
 Structure written by MMmdl.
156165  0  0  1  0            999 V2000
  -30.6457  -14.5710   20.5228 C   0  0  0  0  0  0
  -30.4353  -12.3535   19.4411 C   0  0  0  0  0  0
  -29.5042  -12.5049   18.2181 C   0  0  0  0  0  0
  -28.0256  -12.3529   18.6290 C   0  0  0  0  0  0
  -27.6584  -13.2099   19.8698 C   0  0  2  0  0  0
  -28.7018  -13.0284   20.9961 C   0  0  0  0  0  0
  -25.2582  -13.8162   20.5683 C   0  0  0  0  0  0
  -24.1837  -13.0437   20.9181 C   0  0  0  0  0  0
  -24.6395  -11.6905   20.8736 C   0  0  0  0  0  0
  -23.9061  -10.4291   21.0403 C   0  0  0  0  0  0
  -24.3614   -9.4207   21.9181 C   0  0  0  0  0  0
  -23.6290   -8.2243   22.0753 C   0  0  0  0  0  0
  -22.4272   -8.0279   21.3545 C   0  0  0  0  0  0
  -21.9905   -9.0254   20.4648 C   0  0  0  0  0  0
  -22.7233  -10.2133   20.3055 C   0  0  0  0  0  0
  -21.6853   -6.0733   22.5280 C   0  0  0  0  0  0
  -21.4013   -6.5637   23.8213 C   0  0  0  0  0  0
  -21.3659   -5.6790   24.9175 C   0  0  0  0  0  0
  -21.6044   -4.3054   24.7226 C   0  0  0  0  0  0
  -21.8819   -3.8145   23.4348 C   0  0  0  0  0  0
  -21.9193   -4.6962   22.3403 C   0  0  0  0  0  0
  -22.7859  -13.5236   21.1846 C   0  0  0  0  0  0
  -22.1661   -4.2148   21.0981 F   0  0  0  0  0  0
  -21.5630   -3.4538   25.7738 F   0  0  0  0  0  0
  -30.0251  -13.3567   20.4398 N   0  0  0  0  0  0
  -26.3011  -12.9333   20.3341 N   0  0  0  0  0  0
  -25.9322  -11.6493   20.5759 N   0  0  0  0  0  0
  -22.0499  -12.8232   22.0403 N   0  0  0  0  0  0
  -25.4309  -15.1882   20.4098 N   0  0  0  0  0  0
  -31.7947  -14.7486   20.1070 O   0  0  0  0  0  0
  -21.6637   -6.8876   21.4241 O   0  0  0  0  0  0
  -22.3547  -14.5545   20.6696 O   0  0  0  0  0  0
  -24.6203  -31.8637   23.2056 C   0  0  0  0  0  0
  -25.9073  -32.4800   23.8371 C   0  0  1  0  0  0
  -27.2297  -27.3795   20.1131 C   0  0  0  0  0  0
  -25.5910  -33.8599   24.2305 N   0  0  0  0  0  0
  -23.4122  -30.4861   21.5468 C   0  0  2  0  0  0
  -24.8613  -28.9466   20.1119 C   0  0  0  0  0  0
  -22.7448  -29.4637   22.4959 C   0  0  0  0  0  0
  -18.0282  -28.1378   22.8488 C   0  0  0  0  0  0
  -24.1489  -36.7304   23.2636 C   0  0  0  0  0  0
  -25.9468  -30.8136   21.3672 C   0  0  0  0  0  0
  -26.0255  -29.4443   20.7127 C   0  0  0  0  0  0
  -27.2171  -28.6705   20.7061 C   0  0  0  0  0  0
  -26.0511  -26.9144   19.4944 C   0  0  0  0  0  0
  -24.8720  -27.6836   19.4954 C   0  0  0  0  0  0
  -23.6249  -29.8190   20.1617 C   0  0  0  0  0  0
  -25.4109  -36.3098   24.0335 C   0  0  1  0  0  0
  -20.5877  -28.3675   23.1299 C   0  0  2  0  0  0
  -20.6771  -26.9404   22.5414 C   0  0  0  0  0  0
  -19.5750  -26.6386   21.5210 C   0  0  0  0  0  0
  -18.1929  -26.7923   22.1622 C   0  0  0  0  0  0
  -19.1533  -28.8843   23.2890 C   0  0  0  0  0  0
  -18.9457  -30.1447   23.8903 C   0  0  0  0  0  0
  -17.6458  -30.6582   24.0564 C   0  0  0  0  0  0
  -25.9041  -34.9464   23.5120 C   0  0  0  0  0  0
  -16.5350  -29.9083   23.6325 C   0  0  0  0  0  0
  -16.7270  -28.6501   23.0346 C   0  0  0  0  0  0
  -26.4480  -31.6587   25.0714 C   0  0  0  0  0  0
  -25.3735  -31.3709   26.1457 C   0  0  0  0  0  0
  -27.0307  -30.3018   24.6117 C   0  0  0  0  0  0
  -27.6054  -32.4305   25.7480 C   0  0  0  0  0  0
  -27.5582  -37.1804   24.8462 C   0  0  0  0  0  0
  -21.4167  -29.3034   22.3700 N   0  0  0  0  0  0
  -26.4291  -37.3787   23.9411 N   0  0  0  0  0  0
  -24.6782  -31.0696   22.0979 N   0  0  0  0  0  0
  -23.4193  -28.8180   23.3023 O   0  0  0  0  0  0
  -28.3419  -26.5488   20.1305 O   0  0  0  0  0  0
  -26.5608  -34.8923   22.4684 O   0  0  0  0  0  0
  -23.5381  -32.1409   23.7420 O   0  0  0  0  0  0
  -31.0169  -17.7081   20.2249 C   0  0  0  0  0  0
  -29.9857  -16.9587   20.7605 C   0  0  0  0  0  0
  -29.5958  -19.4771   20.6592 C   0  0  0  0  0  0
  -28.9091  -21.7015   19.4329 C   0  0  0  0  0  0
  -29.8815  -21.8250   21.7342 C   0  0  0  0  0  0
  -28.2539  -23.1119   19.6217 C   0  0  0  0  0  0
  -29.2144  -23.2153   21.9403 C   0  0  0  0  0  0
  -29.0863  -20.9254   20.7644 C   0  0  2  0  0  0
  -28.9750  -24.0421   20.6422 C   0  0  2  0  0  0
  -28.1898  -25.3738   20.9793 C   0  0  0  0  0  0
  -30.7885  -19.1022   20.1752 N   0  0  0  0  0  0
  -29.8592  -15.5972   20.9467 N   0  0  0  0  0  0
  -28.6804  -18.0578   21.2162 S   0  0  0  0  0  0
  -31.4778  -12.4706   19.1395 H   0  0  0  0  0  0
  -30.3579  -11.3501   19.8623 H   0  0  0  0  0  0
  -29.7581  -11.7653   17.4574 H   0  0  0  0  0  0
  -29.6578  -13.4817   17.7566 H   0  0  0  0  0  0
  -27.8504  -11.2983   18.8448 H   0  0  0  0  0  0
  -27.3736  -12.6034   17.7914 H   0  0  0  0  0  0
  -27.6889  -14.2511   19.5482 H   0  0  0  0  0  0
  -28.6977  -11.9990   21.3573 H   0  0  0  0  0  0
  -28.4540  -13.6430   21.8629 H   0  0  0  0  0  0
  -25.2761   -9.5682   22.4753 H   0  0  0  0  0  0
  -24.0002   -7.4633   22.7469 H   0  0  0  0  0  0
  -21.0837   -8.8774   19.8953 H   0  0  0  0  0  0
  -22.3694  -10.9672   19.6163 H   0  0  0  0  0  0
  -21.2005   -7.6144   23.9714 H   0  0  0  0  0  0
  -21.1481   -6.0521   25.9077 H   0  0  0  0  0  0
  -22.0599   -2.7608   23.2849 H   0  0  0  0  0  0
  -22.4106  -11.9889   22.4792 H   0  0  0  0  0  0
  -21.1119  -13.1264   22.2608 H   0  0  0  0  0  0
  -24.6644  -15.8436   20.5179 H   0  0  0  0  0  0
  -26.2809  -15.6269   20.0792 H   0  0  0  0  0  0
  -26.7143  -32.5499   23.1131 H   0  0  0  0  0  0
  -25.0063  -33.9751   25.0452 H   0  0  0  0  0  0
  -22.7031  -31.3045   21.4053 H   0  0  0  0  0  0
  -23.3744  -35.9646   23.3318 H   0  0  0  0  0  0
  -24.3582  -36.8897   22.2047 H   0  0  0  0  0  0
  -23.7253  -37.6519   23.6637 H   0  0  0  0  0  0
  -26.0670  -31.5783   20.5984 H   0  0  0  0  0  0
  -26.8313  -30.8665   21.9902 H   0  0  0  0  0  0
  -28.1133  -29.0463   21.1795 H   0  0  0  0  0  0
  -26.0422  -25.9405   19.0249 H   0  0  0  0  0  0
  -23.9793  -27.2953   19.0249 H   0  0  0  0  0  0
  -23.7376  -30.5946   19.4034 H   0  0  0  0  0  0
  -22.7473  -29.2426   19.8632 H   0  0  0  0  0  0
  -25.1285  -36.1959   25.0828 H   0  0  0  0  0  0
  -20.9971  -28.3245   24.1419 H   0  0  0  0  0  0
  -20.5670  -26.2282   23.3606 H   0  0  0  0  0  0
  -21.6641  -26.7440   22.1210 H   0  0  0  0  0  0
  -19.6913  -25.6300   21.1231 H   0  0  0  0  0  0
  -19.6687  -27.3203   20.6745 H   0  0  0  0  0  0
  -17.4198  -26.6668   21.4025 H   0  0  0  0  0  0
  -18.0333  -26.0063   22.9018 H   0  0  0  0  0  0
  -19.7935  -30.7261   24.2274 H   0  0  0  0  0  0
  -17.5014  -31.6261   24.5168 H   0  0  0  0  0  0
  -15.5350  -30.2987   23.7643 H   0  0  0  0  0  0
  -15.8671  -28.0823   22.7054 H   0  0  0  0  0  0
  -24.5908  -30.7056   25.7795 H   0  0  0  0  0  0
  -24.8929  -32.2871   26.4897 H   0  0  0  0  0  0
  -25.8080  -30.8882   27.0220 H   0  0  0  0  0  0
  -26.2858  -29.6787   24.1153 H   0  0  0  0  0  0
  -27.4042  -29.7248   25.4587 H   0  0  0  0  0  0
  -27.8713  -30.4320   23.9296 H   0  0  0  0  0  0
  -27.2674  -33.3594   26.2086 H   0  0  0  0  0  0
  -28.3850  -32.6880   25.0298 H   0  0  0  0  0  0
  -28.0738  -31.8411   26.5373 H   0  0  0  0  0  0
  -28.2596  -38.0104   24.7516 H   0  0  0  0  0  0
  -28.1080  -36.2637   24.6271 H   0  0  0  0  0  0
  -27.2306  -37.1440   25.8866 H   0  0  0  0  0  0
  -20.9336  -29.8754   21.6914 H   0  0  0  0  0  0
  -26.0178  -38.2864   24.1414 H   0  0  0  0  0  0
  -31.9592  -17.3366   19.8463 H   0  0  0  0  0  0
  -29.8802  -21.8122   18.9487 H   0  0  0  0  0  0
  -28.2966  -21.1114   18.7501 H   0  0  0  0  0  0
  -29.9706  -21.3254   22.6997 H   0  0  0  0  0  0
  -30.8991  -21.9534   21.3630 H   0  0  0  0  0  0
  -27.2219  -22.9678   19.9450 H   0  0  0  0  0  0
  -28.1920  -23.6166   18.6568 H   0  0  0  0  0  0
  -29.8249  -23.7982   22.6314 H   0  0  0  0  0  0
  -28.2588  -23.0671   22.4459 H   0  0  0  0  0  0
  -28.0859  -20.8314   21.1899 H   0  0  0  0  0  0
  -29.9518  -24.3137   20.2397 H   0  0  0  0  0  0
  -28.5175  -25.7140   21.9627 H   0  0  0  0  0  0
  -27.1383  -25.1177   21.1202 H   0  0  0  0  0  0
  -28.9700  -15.2961   21.3158 H   0  0  0  0  0  0
  1 25  1  0  0  0
  1 30  2  0  0  0
  1 82  1  0  0  0
  2  3  1  0  0  0
  2 25  1  0  0  0
  2 84  1  0  0  0
  2 85  1  0  0  0
  3  4  1  0  0  0
  3 86  1  0  0  0
  3 87  1  0  0  0
  4  5  1  0  0  0
  4 88  1  0  0  0
  4 89  1  0  0  0
  5  6  1  0  0  0
  5 26  1  0  0  0
  5 90  1  0  0  0
  6 25  1  0  0  0
  6 91  1  0  0  0
  6 92  1  0  0  0
  7  8  2  0  0  0
  7 26  1  0  0  0
  7 29  1  0  0  0
  8  9  1  0  0  0
  8 22  1  0  0  0
  9 10  1  0  0  0
  9 27  2  0  0  0
 10 11  2  0  0  0
 10 15  1  0  0  0
 11 12  1  0  0  0
 11 93  1  0  0  0
 12 13  2  0  0  0
 12 94  1  0  0  0
 13 14  1  0  0  0
 13 31  1  0  0  0
 14 15  2  0  0  0
 14 95  1  0  0  0
 15 96  1  0  0  0
 16 17  2  0  0  0
 16 21  1  0  0  0
 16 31  1  0  0  0
 17 18  1  0  0  0
 17 97  1  0  0  0
 18 19  2  0  0  0
 18 98  1  0  0  0
 19 20  1  0  0  0
 19 24  1  0  0  0
 20 21  2  0  0  0
 20 99  1  0  0  0
 21 23  1  0  0  0
 22 28  1  0  0  0
 22 32  2  0  0  0
 26 27  1  0  0  0
 28100  1  0  0  0
 28101  1  0  0  0
 29102  1  0  0  0
 29103  1  0  0  0
 33 34  1  0  0  0
 33 66  1  0  0  0
 33 70  2  0  0  0
 34 36  1  0  0  0
 34 59  1  0  0  0
 34104  1  0  0  0
 35 44  2  0  0  0
 35 45  1  0  0  0
 35 68  1  0  0  0
 36 56  1  0  0  0
 36105  1  0  0  0
 37 39  1  0  0  0
 37 47  1  0  0  0
 37 66  1  0  0  0
 37106  1  0  0  0
 38 43  2  0  0  0
 38 46  1  0  0  0
 38 47  1  0  0  0
 39 64  1  0  0  0
 39 67  2  0  0  0
 40 52  1  0  0  0
 40 53  2  0  0  0
 40 58  1  0  0  0
 41107  1  0  0  0
 41108  1  0  0  0
 41109  1  0  0  0
 41 48  1  0  0  0
 42 43  1  0  0  0
 42 66  1  0  0  0
 42110  1  0  0  0
 42111  1  0  0  0
 43 44  1  0  0  0
 44112  1  0  0  0
 45 46  2  0  0  0
 45113  1  0  0  0
 46114  1  0  0  0
 47115  1  0  0  0
 47116  1  0  0  0
 48 56  1  0  0  0
 48 65  1  0  0  0
 48117  1  0  0  0
 49 50  1  0  0  0
 49 53  1  0  0  0
 49 64  1  0  0  0
 49118  1  0  0  0
 50 51  1  0  0  0
 50119  1  0  0  0
 50120  1  0  0  0
 51 52  1  0  0  0
 51121  1  0  0  0
 51122  1  0  0  0
 52123  1  0  0  0
 52124  1  0  0  0
 53 54  1  0  0  0
 54 55  2  0  0  0
 54125  1  0  0  0
 55 57  1  0  0  0
 55126  1  0  0  0
 56 69  2  0  0  0
 57 58  2  0  0  0
 57127  1  0  0  0
 58128  1  0  0  0
 59 60  1  0  0  0
 59 61  1  0  0  0
 59 62  1  0  0  0
 60129  1  0  0  0
 60130  1  0  0  0
 60131  1  0  0  0
 61132  1  0  0  0
 61133  1  0  0  0
 61134  1  0  0  0
 62135  1  0  0  0
 62136  1  0  0  0
 62137  1  0  0  0
 63 65  1  0  0  0
 63138  1  0  0  0
 63139  1  0  0  0
 63140  1  0  0  0
 64141  1  0  0  0
 65142  1  0  0  0
 68 80  1  0  0  0
 71 72  2  0  0  0
 71 81  1  0  0  0
 71143  1  0  0  0
 72 82  1  0  0  0
 72 83  1  0  0  0
 73 81  2  0  0  0
 73 83  1  0  0  0
 73 78  1  0  0  0
 74 76  1  0  0  0
 74 78  1  0  0  0
 74144  1  0  0  0
 74145  1  0  0  0
 75 77  1  0  0  0
 75 78  1  0  0  0
 75146  1  0  0  0
 75147  1  0  0  0
 76 79  1  0  0  0
 76148  1  0  0  0
 76149  1  0  0  0
 77 79  1  0  0  0
 77150  1  0  0  0
 77151  1  0  0  0
 78152  1  0  0  0
 79 80  1  0  0  0
 79153  1  0  0  0
 80154  1  0  0  0
 80155  1  0  0  0
 82156  1  0  0  0
M  ISO  4   1 100  68 101  80 101  82 100
M  END
> <chiral flag>
0

> <version>
0

> <s_m_source_file>
/data/baiqing/PycharmProjects/Reinvent-master-3.2/result/LINK_invent/BTK/process_docking_weight1_custom_product_contain_oxygen_bond_distance_aromatic_linkinvent_7_9_3/rearranged_h_0160.sdf

> <i_m_source_file_index>
76

> <r_mmod_Potential_Energy-OPLS-2005>
-10.1645841598511

> <r_mmod_Stretch_Energy-OPLS-2005>
52.5195121765137

> <r_mmod_Bend_Energy-OPLS-2005>
120.034507751465

> <r_mmod_Torsional_Energy-OPLS-2005>
228.221588134766

> <r_mmod_Improper_Torsional_Energy-OPLS-2005>
3.92369270324707

> <r_mmod_Van_der_Waal_Energy-OPLS-2005>
122.930488586426

> <r_mmod_Electrostatic_Energy-OPLS-2005>
-360.649810791016

> <r_mmod_Solvation_Energy-OPLS-2005>
-205.834014892578

> <b_mmod_Minimization_Converged-OPLS-2005>
0

> <r_mmod_RMS_Derivative-OPLS-2005>
0.296288222074509

$$$$
77
                    3D
 Structure written by MMmdl.
154162  0  0  1  0            999 V2000
  -30.7077  -14.5019   20.5426 C   0  0  0  0  0  0
  -30.4295  -12.3198   19.4219 C   0  0  0  0  0  0
  -29.4963  -12.4815   18.2063 C   0  0  0  0  0  0
  -28.0224  -12.3357   18.6315 C   0  0  0  0  0  0
  -27.6623  -13.2034   19.8665 C   0  0  2  0  0  0
  -28.7091  -13.0233   20.9890 C   0  0  0  0  0  0
  -25.2616  -13.8155   20.5645 C   0  0  0  0  0  0
  -24.1861  -13.0446   20.9171 C   0  0  0  0  0  0
  -24.6418  -11.6910   20.8756 C   0  0  0  0  0  0
  -23.9076  -10.4294   21.0417 C   0  0  0  0  0  0
  -24.3620   -9.4205   21.9194 C   0  0  0  0  0  0
  -23.6296   -8.2242   22.0763 C   0  0  0  0  0  0
  -22.4285   -8.0277   21.3541 C   0  0  0  0  0  0
  -21.9919   -9.0256   20.4645 C   0  0  0  0  0  0
  -22.7251  -10.2135   20.3058 C   0  0  0  0  0  0
  -21.6849   -6.0726   22.5269 C   0  0  0  0  0  0
  -21.4015   -6.5634   23.8202 C   0  0  0  0  0  0
  -21.3657   -5.6790   24.9166 C   0  0  0  0  0  0
  -21.6045   -4.3055   24.7224 C   0  0  0  0  0  0
  -21.8821   -3.8144   23.4346 C   0  0  0  0  0  0
  -21.9202   -4.6956   22.3400 C   0  0  0  0  0  0
  -22.7885  -13.5239   21.1847 C   0  0  0  0  0  0
  -22.1664   -4.2151   21.0972 F   0  0  0  0  0  0
  -21.5633   -3.4536   25.7730 F   0  0  0  0  0  0
  -30.0335  -13.3250   20.4205 N   0  0  0  0  0  0
  -26.3050  -12.9316   20.3354 N   0  0  0  0  0  0
  -25.9347  -11.6490   20.5800 N   0  0  0  0  0  0
  -22.0525  -12.8209   22.0383 N   0  0  0  0  0  0
  -25.4377  -15.1850   20.3921 N   0  0  0  0  0  0
  -31.8524  -14.6620   20.1120 O   0  0  0  0  0  0
  -21.6635   -6.8877   21.4234 O   0  0  0  0  0  0
  -22.3581  -14.5552   20.6709 O   0  0  0  0  0  0
  -24.6166  -31.8670   23.2109 C   0  0  0  0  0  0
  -25.9036  -32.4845   23.8408 C   0  0  1  0  0  0
  -27.2336  -27.4061   20.0907 C   0  0  0  0  0  0
  -25.5869  -33.8648   24.2339 N   0  0  0  0  0  0
  -23.4050  -30.4913   21.5549 C   0  0  2  0  0  0
  -24.8527  -28.9601   20.1154 C   0  0  0  0  0  0
  -22.7436  -29.4637   22.5018 C   0  0  0  0  0  0
  -18.0264  -28.1313   22.8504 C   0  0  0  0  0  0
  -24.1478  -36.7320   23.2628 C   0  0  0  0  0  0
  -25.9377  -30.8203   21.3730 C   0  0  0  0  0  0
  -26.0159  -29.4549   20.7163 C   0  0  0  0  0  0
  -27.2069  -28.6861   20.7034 C   0  0  0  0  0  0
  -26.0455  -26.9465   19.4677 C   0  0  0  0  0  0
  -24.8626  -27.7058   19.4895 C   0  0  0  0  0  0
  -23.6129  -29.8241   20.1705 C   0  0  0  0  0  0
  -25.4091  -36.3136   24.0336 C   0  0  1  0  0  0
  -20.5863  -28.3604   23.1301 C   0  0  2  0  0  0
  -20.6761  -26.9348   22.5384 C   0  0  0  0  0  0
  -19.5735  -26.6354   21.5178 C   0  0  0  0  0  0
  -18.1906  -26.7885   22.1607 C   0  0  0  0  0  0
  -19.1517  -28.8783   23.2898 C   0  0  0  0  0  0
  -18.9465  -30.1395   23.8907 C   0  0  0  0  0  0
  -17.6473  -30.6554   24.0534 C   0  0  0  0  0  0
  -25.9013  -34.9496   23.5140 C   0  0  0  0  0  0
  -16.5351  -29.9040   23.6324 C   0  0  0  0  0  0
  -16.7261  -28.6429   23.0391 C   0  0  0  0  0  0
  -26.4452  -31.6638   25.0753 C   0  0  0  0  0  0
  -25.3706  -31.3737   26.1496 C   0  0  0  0  0  0
  -27.0272  -30.3097   24.6111 C   0  0  0  0  0  0
  -27.6049  -32.4344   25.7496 C   0  0  0  0  0  0
  -27.5601  -37.1774   24.8446 C   0  0  0  0  0  0
  -21.4161  -29.3002   22.3753 N   0  0  0  0  0  0
  -26.4287  -37.3803   23.9424 N   0  0  0  0  0  0
  -24.6709  -31.0732   22.1043 N   0  0  0  0  0  0
  -23.4214  -28.8178   23.3051 O   0  0  0  0  0  0
  -28.3957  -26.6437   20.1284 O   0  0  0  0  0  0
  -26.5616  -34.8962   22.4727 O   0  0  0  0  0  0
  -23.5350  -32.1449   23.7484 O   0  0  0  0  0  0
  -30.0771  -19.3793   20.8065 C   0  0  0  0  0  0
  -29.6810  -17.7660   19.0205 C   0  0  0  0  0  0
  -29.3193  -20.1533   18.6309 C   0  0  0  0  0  0
  -30.0596  -18.0313   20.3555 C   0  0  0  0  0  0
  -29.7062  -20.4568   19.9600 C   0  0  0  0  0  0
  -29.3175  -18.8231   18.1637 C   0  0  0  0  0  0
  -29.3570  -24.3185   20.2259 C   0  0  0  0  0  0
  -30.4938  -16.9040   21.3085 C   0  0  0  0  0  0
  -29.4422  -22.9266   19.5560 C   0  0  0  0  0  0
  -28.3060  -25.2848   19.6396 C   0  0  0  0  0  0
  -29.7323  -21.7861   20.4478 N   0  0  0  0  0  0
  -29.9985  -15.5411   21.0273 N   0  0  0  0  0  0
  -30.0737  -24.6200   21.1857 O   0  0  0  0  0  0
  -28.9626  -18.5642   16.8808 F   0  0  0  0  0  0
  -31.4732  -12.4218   19.1152 H   0  0  0  0  0  0
  -30.3422  -11.3184   19.8477 H   0  0  0  0  0  0
  -29.7397  -11.7349   17.4482 H   0  0  0  0  0  0
  -29.6544  -13.4564   17.7440 H   0  0  0  0  0  0
  -27.8524  -11.2829   18.8612 H   0  0  0  0  0  0
  -27.3607  -12.5709   17.7958 H   0  0  0  0  0  0
  -27.6979  -14.2426   19.5387 H   0  0  0  0  0  0
  -28.7001  -11.9999   21.3670 H   0  0  0  0  0  0
  -28.4751  -13.6533   21.8490 H   0  0  0  0  0  0
  -25.2758   -9.5669   22.4772 H   0  0  0  0  0  0
  -23.9996   -7.4629   22.7474 H   0  0  0  0  0  0
  -21.0859   -8.8776   19.8938 H   0  0  0  0  0  0
  -22.3723  -10.9671   19.6164 H   0  0  0  0  0  0
  -21.1998   -7.6143   23.9705 H   0  0  0  0  0  0
  -21.1476   -6.0515   25.9065 H   0  0  0  0  0  0
  -22.0611   -2.7610   23.2836 H   0  0  0  0  0  0
  -22.4133  -11.9818   22.4679 H   0  0  0  0  0  0
  -21.1156  -13.1235   22.2619 H   0  0  0  0  0  0
  -24.6710  -15.8452   20.4656 H   0  0  0  0  0  0
  -26.2836  -15.6016   20.0241 H   0  0  0  0  0  0
  -26.7127  -32.5559   23.1170 H   0  0  0  0  0  0
  -24.9997  -33.9810   25.0483 H   0  0  0  0  0  0
  -22.6902  -31.3045   21.4186 H   0  0  0  0  0  0
  -23.3782  -35.9608   23.3253 H   0  0  0  0  0  0
  -24.3591  -36.8974   22.2050 H   0  0  0  0  0  0
  -23.7178  -37.6478   23.6685 H   0  0  0  0  0  0
  -26.0467  -31.5872   20.6046 H   0  0  0  0  0  0
  -26.8218  -30.8745   21.9942 H   0  0  0  0  0  0
  -28.1023  -29.0602   21.1796 H   0  0  0  0  0  0
  -25.9919  -26.0006   18.9518 H   0  0  0  0  0  0
  -23.9695  -27.3194   19.0187 H   0  0  0  0  0  0
  -23.7122  -30.5933   19.4053 H   0  0  0  0  0  0
  -22.7360  -29.2359   19.8944 H   0  0  0  0  0  0
  -25.1266  -36.1985   25.0819 H   0  0  0  0  0  0
  -20.9920  -28.3151   24.1427 H   0  0  0  0  0  0
  -20.5612  -26.2216   23.3562 H   0  0  0  0  0  0
  -21.6635  -26.7364   22.1186 H   0  0  0  0  0  0
  -19.6891  -25.6267   21.1185 H   0  0  0  0  0  0
  -19.6683  -27.3198   20.6731 H   0  0  0  0  0  0
  -17.4177  -26.6649   21.3999 H   0  0  0  0  0  0
  -18.0290  -26.0004   22.8982 H   0  0  0  0  0  0
  -19.7958  -30.7169   24.2301 H   0  0  0  0  0  0
  -17.5041  -31.6252   24.5109 H   0  0  0  0  0  0
  -15.5337  -30.2933   23.7649 H   0  0  0  0  0  0
  -15.8665  -28.0712   22.7143 H   0  0  0  0  0  0
  -24.5859  -30.7117   25.7816 H   0  0  0  0  0  0
  -24.8914  -32.2891   26.4989 H   0  0  0  0  0  0
  -25.8028  -30.8864   27.0245 H   0  0  0  0  0  0
  -26.2815  -29.6856   24.1179 H   0  0  0  0  0  0
  -27.4077  -29.7325   25.4533 H   0  0  0  0  0  0
  -27.8638  -30.4434   23.9247 H   0  0  0  0  0  0
  -27.2734  -33.3690   26.2017 H   0  0  0  0  0  0
  -28.3873  -32.6800   25.0309 H   0  0  0  0  0  0
  -28.0697  -31.8496   26.5428 H   0  0  0  0  0  0
  -28.2532  -38.0161   24.7648 H   0  0  0  0  0  0
  -28.1189  -36.2707   24.6093 H   0  0  0  0  0  0
  -27.2352  -37.1184   25.8848 H   0  0  0  0  0  0
  -20.9315  -29.8777   21.7030 H   0  0  0  0  0  0
  -26.0202  -38.2869   24.1513 H   0  0  0  0  0  0
  -30.3872  -19.5843   21.8230 H   0  0  0  0  0  0
  -29.6776  -16.7564   18.6370 H   0  0  0  0  0  0
  -29.0252  -20.9267   17.9361 H   0  0  0  0  0  0
  -30.1463  -17.1627   22.3102 H   0  0  0  0  0  0
  -31.5841  -16.9102   21.3746 H   0  0  0  0  0  0
  -30.2160  -22.9761   18.7891 H   0  0  0  0  0  0
  -28.4934  -22.7536   19.0466 H   0  0  0  0  0  0
  -27.3544  -24.8338   19.9214 H   0  0  0  0  0  0
  -28.3802  -25.2851   18.5502 H   0  0  0  0  0  0
  -30.1814  -21.9991   21.3369 H   0  0  0  0  0  0
  -29.0451  -15.3456   21.2945 H   0  0  0  0  0  0
  1 25  1  0  0  0
  1 30  2  0  0  0
  1 82  1  0  0  0
  2  3  1  0  0  0
  2 25  1  0  0  0
  2 85  1  0  0  0
  2 86  1  0  0  0
  3  4  1  0  0  0
  3 87  1  0  0  0
  3 88  1  0  0  0
  4  5  1  0  0  0
  4 89  1  0  0  0
  4 90  1  0  0  0
  5  6  1  0  0  0
  5 26  1  0  0  0
  5 91  1  0  0  0
  6 25  1  0  0  0
  6 92  1  0  0  0
  6 93  1  0  0  0
  7  8  2  0  0  0
  7 26  1  0  0  0
  7 29  1  0  0  0
  8  9  1  0  0  0
  8 22  1  0  0  0
  9 10  1  0  0  0
  9 27  2  0  0  0
 10 11  2  0  0  0
 10 15  1  0  0  0
 11 12  1  0  0  0
 11 94  1  0  0  0
 12 13  2  0  0  0
 12 95  1  0  0  0
 13 14  1  0  0  0
 13 31  1  0  0  0
 14 15  2  0  0  0
 14 96  1  0  0  0
 15 97  1  0  0  0
 16 17  2  0  0  0
 16 21  1  0  0  0
 16 31  1  0  0  0
 17 18  1  0  0  0
 17 98  1  0  0  0
 18 19  2  0  0  0
 18 99  1  0  0  0
 19 20  1  0  0  0
 19 24  1  0  0  0
 20 21  2  0  0  0
 20100  1  0  0  0
 21 23  1  0  0  0
 22 28  1  0  0  0
 22 32  2  0  0  0
 26 27  1  0  0  0
 28101  1  0  0  0
 28102  1  0  0  0
 29103  1  0  0  0
 29104  1  0  0  0
 33 34  1  0  0  0
 33 66  1  0  0  0
 33 70  2  0  0  0
 34 36  1  0  0  0
 34 59  1  0  0  0
 34105  1  0  0  0
 35 44  2  0  0  0
 35 45  1  0  0  0
 35 68  1  0  0  0
 36 56  1  0  0  0
 36106  1  0  0  0
 37 39  1  0  0  0
 37 47  1  0  0  0
 37 66  1  0  0  0
 37107  1  0  0  0
 38 43  2  0  0  0
 38 46  1  0  0  0
 38 47  1  0  0  0
 39 64  1  0  0  0
 39 67  2  0  0  0
 40 52  1  0  0  0
 40 53  2  0  0  0
 40 58  1  0  0  0
 41108  1  0  0  0
 41109  1  0  0  0
 41110  1  0  0  0
 41 48  1  0  0  0
 42 43  1  0  0  0
 42 66  1  0  0  0
 42111  1  0  0  0
 42112  1  0  0  0
 43 44  1  0  0  0
 44113  1  0  0  0
 45 46  2  0  0  0
 45114  1  0  0  0
 46115  1  0  0  0
 47116  1  0  0  0
 47117  1  0  0  0
 48 56  1  0  0  0
 48 65  1  0  0  0
 48118  1  0  0  0
 49 50  1  0  0  0
 49 53  1  0  0  0
 49 64  1  0  0  0
 49119  1  0  0  0
 50 51  1  0  0  0
 50120  1  0  0  0
 50121  1  0  0  0
 51 52  1  0  0  0
 51122  1  0  0  0
 51123  1  0  0  0
 52124  1  0  0  0
 52125  1  0  0  0
 53 54  1  0  0  0
 54 55  2  0  0  0
 54126  1  0  0  0
 55 57  1  0  0  0
 55127  1  0  0  0
 56 69  2  0  0  0
 57 58  2  0  0  0
 57128  1  0  0  0
 58129  1  0  0  0
 59 60  1  0  0  0
 59 61  1  0  0  0
 59 62  1  0  0  0
 60130  1  0  0  0
 60131  1  0  0  0
 60132  1  0  0  0
 61133  1  0  0  0
 61134  1  0  0  0
 61135  1  0  0  0
 62136  1  0  0  0
 62137  1  0  0  0
 62138  1  0  0  0
 63 65  1  0  0  0
 63139  1  0  0  0
 63140  1  0  0  0
 63141  1  0  0  0
 64142  1  0  0  0
 65143  1  0  0  0
 68 80  1  0  0  0
 71 74  2  0  0  0
 71 75  1  0  0  0
 71144  1  0  0  0
 72 74  1  0  0  0
 72 76  2  0  0  0
 72145  1  0  0  0
 73 75  2  0  0  0
 73 76  1  0  0  0
 73146  1  0  0  0
 74 78  1  0  0  0
 75 81  1  0  0  0
 76 84  1  0  0  0
 77 79  1  0  0  0
 77 80  1  0  0  0
 77 83  2  0  0  0
 78 82  1  0  0  0
 78147  1  0  0  0
 78148  1  0  0  0
 79 81  1  0  0  0
 79149  1  0  0  0
 79150  1  0  0  0
 80151  1  0  0  0
 80152  1  0  0  0
 81153  1  0  0  0
 82154  1  0  0  0
M  ISO  4   1 100  68 101  80 101  82 100
M  END
> <chiral flag>
0

> <version>
0

> <s_m_source_file>
/data/baiqing/PycharmProjects/Reinvent-master-3.2/result/LINK_invent/BTK/process_docking_weight1_custom_product_contain_oxygen_bond_distance_aromatic_linkinvent_7_9_3/rearranged_h_0160.sdf

> <i_m_source_file_index>
77

> <r_mmod_Potential_Energy-OPLS-2005>
-86.2713394165039

> <r_mmod_Stretch_Energy-OPLS-2005>
42.6130065917969

> <r_mmod_Bend_Energy-OPLS-2005>
109.404266357422

> <r_mmod_Torsional_Energy-OPLS-2005>
180.285064697266

> <r_mmod_Improper_Torsional_Energy-OPLS-2005>
4.14972066879272

> <r_mmod_Van_der_Waal_Energy-OPLS-2005>
156.153259277344

> <r_mmod_Electrostatic_Energy-OPLS-2005>
-354.310516357422

> <r_mmod_Solvation_Energy-OPLS-2005>
-243.585739135742

> <b_mmod_Minimization_Converged-OPLS-2005>
0

> <r_mmod_RMS_Derivative-OPLS-2005>
3.94154214859009

$$$$
78
                    3D
 Structure written by MMmdl.
161170  0  0  1  0            999 V2000
  -30.6397  -14.6161   20.5000 C   0  0  0  0  0  0
  -30.4327  -12.3754   19.4564 C   0  0  0  0  0  0
  -29.5065  -12.4894   18.2260 C   0  0  0  0  0  0
  -28.0285  -12.3362   18.6368 C   0  0  0  0  0  0
  -27.6514  -13.2149   19.8605 C   0  0  2  0  0  0
  -28.6936  -13.0708   20.9920 C   0  0  0  0  0  0
  -25.2548  -13.8171   20.5676 C   0  0  0  0  0  0
  -24.1816  -13.0436   20.9181 C   0  0  0  0  0  0
  -24.6380  -11.6903   20.8726 C   0  0  0  0  0  0
  -23.9051  -10.4290   21.0392 C   0  0  0  0  0  0
  -24.3609   -9.4204   21.9170 C   0  0  0  0  0  0
  -23.6285   -8.2238   22.0745 C   0  0  0  0  0  0
  -22.4264   -8.0270   21.3541 C   0  0  0  0  0  0
  -21.9897   -9.0242   20.4640 C   0  0  0  0  0  0
  -22.7221  -10.2124   20.3042 C   0  0  0  0  0  0
  -21.6849   -6.0724   22.5274 C   0  0  0  0  0  0
  -21.4009   -6.5631   23.8209 C   0  0  0  0  0  0
  -21.3656   -5.6786   24.9172 C   0  0  0  0  0  0
  -21.6044   -4.3047   24.7226 C   0  0  0  0  0  0
  -21.8825   -3.8136   23.4348 C   0  0  0  0  0  0
  -21.9199   -4.6951   22.3400 C   0  0  0  0  0  0
  -22.7841  -13.5227   21.1848 C   0  0  0  0  0  0
  -22.1662   -4.2139   21.0978 F   0  0  0  0  0  0
  -21.5636   -3.4529   25.7740 F   0  0  0  0  0  0
  -30.0105  -13.4021   20.4305 N   0  0  0  0  0  0
  -26.2973  -12.9348   20.3300 N   0  0  0  0  0  0
  -25.9309  -11.6502   20.5745 N   0  0  0  0  0  0
  -22.0490  -12.8216   22.0410 N   0  0  0  0  0  0
  -25.4287  -15.1891   20.4093 N   0  0  0  0  0  0
  -31.8064  -14.7432   20.1192 O   0  0  0  0  0  0
  -21.6633   -6.8862   21.4232 O   0  0  0  0  0  0
  -22.3526  -14.5535   20.6702 O   0  0  0  0  0  0
  -24.6224  -31.8614   23.2023 C   0  0  0  0  0  0
  -25.9078  -32.4785   23.8347 C   0  0  1  0  0  0
  -27.2222  -27.3351   20.1155 C   0  0  0  0  0  0
  -25.5915  -33.8591   24.2279 N   0  0  0  0  0  0
  -23.4148  -30.4855   21.5435 C   0  0  2  0  0  0
  -24.8593  -28.9426   20.1042 C   0  0  0  0  0  0
  -22.7451  -29.4641   22.4928 C   0  0  0  0  0  0
  -18.0286  -28.1386   22.8504 C   0  0  0  0  0  0
  -24.1480  -36.7279   23.2647 C   0  0  0  0  0  0
  -25.9536  -30.7975   21.3692 C   0  0  0  0  0  0
  -26.0241  -29.4260   20.7103 C   0  0  0  0  0  0
  -27.2051  -28.6324   20.7089 C   0  0  0  0  0  0
  -26.0355  -26.8979   19.4843 C   0  0  0  0  0  0
  -24.8665  -27.6837   19.4820 C   0  0  0  0  0  0
  -23.6256  -29.8203   20.1572 C   0  0  0  0  0  0
  -25.4112  -36.3091   24.0341 C   0  0  1  0  0  0
  -20.5888  -28.3685   23.1291 C   0  0  2  0  0  0
  -20.6774  -26.9408   22.5417 C   0  0  0  0  0  0
  -19.5752  -26.6387   21.5216 C   0  0  0  0  0  0
  -18.1926  -26.7945   22.1621 C   0  0  0  0  0  0
  -19.1537  -28.8853   23.2896 C   0  0  0  0  0  0
  -18.9466  -30.1461   23.8900 C   0  0  0  0  0  0
  -17.6467  -30.6591   24.0578 C   0  0  0  0  0  0
  -25.9051  -34.9462   23.5107 C   0  0  0  0  0  0
  -16.5356  -29.9094   23.6341 C   0  0  0  0  0  0
  -16.7272  -28.6513   23.0360 C   0  0  0  0  0  0
  -26.4484  -31.6602   25.0712 C   0  0  0  0  0  0
  -25.3736  -31.3753   26.1462 C   0  0  0  0  0  0
  -27.0317  -30.3038   24.6150 C   0  0  0  0  0  0
  -27.6050  -32.4345   25.7464 C   0  0  0  0  0  0
  -27.5576  -37.1789   24.8472 C   0  0  0  0  0  0
  -21.4170  -29.3037   22.3678 N   0  0  0  0  0  0
  -26.4277  -37.3787   23.9429 N   0  0  0  0  0  0
  -24.6825  -31.0648   22.0947 N   0  0  0  0  0  0
  -23.4192  -28.8187   23.2992 O   0  0  0  0  0  0
  -28.3674  -26.5315   20.1957 O   0  0  0  0  0  0
  -26.5619  -34.8931   22.4672 O   0  0  0  0  0  0
  -23.5404  -32.1387   23.7380 O   0  0  0  0  0  0
  -31.3364  -19.0594   19.7997 C   0  0  0  0  0  0
  -30.5049  -19.9691   20.4880 C   0  0  0  0  0  0
  -31.1406  -17.6648   19.8940 C   0  0  0  0  0  0
  -29.4160  -19.5086   21.2583 C   0  0  0  0  0  0
  -30.0919  -17.1311   20.6800 C   0  0  0  0  0  0
  -29.2209  -18.0730   21.3179 C   0  0  0  0  0  0
  -28.5097  -22.7235   20.9153 C   0  0  0  0  0  0
  -28.0474  -24.0304   20.8777 C   0  0  0  0  0  0
  -28.6356  -20.4585   22.1446 C   0  0  0  0  0  0
  -27.1030  -24.5580   21.9410 C   0  0  0  0  0  0
  -26.4221  -23.4208   22.6804 C   0  0  0  0  0  0
  -27.4624  -22.4031   23.1304 C   0  0  0  0  0  0
  -28.3974  -25.1069   19.7953 C   0  0  0  0  0  0
  -28.2227  -21.7976   21.9813 N   0  0  0  0  0  0
  -29.8687  -15.6922   20.8509 N   0  0  0  0  0  0
  -28.3433  -19.8925   23.3238 N   0  3  0  0  0  0
  -28.2117  -17.5528   22.0616 F   0  0  0  0  0  0
  -31.4750  -12.4900   19.1529 H   0  0  0  0  0  0
  -30.3643  -11.3817   19.9025 H   0  0  0  0  0  0
  -29.7689  -11.7286   17.4894 H   0  0  0  0  0  0
  -29.6567  -13.4536   17.7379 H   0  0  0  0  0  0
  -27.8644  -11.2847   18.8764 H   0  0  0  0  0  0
  -27.3747  -12.5586   17.7933 H   0  0  0  0  0  0
  -27.6711  -14.2491   19.5151 H   0  0  0  0  0  0
  -28.6998  -12.0490   21.3743 H   0  0  0  0  0  0
  -28.4426  -13.7067   21.8414 H   0  0  0  0  0  0
  -25.2759   -9.5681   22.4736 H   0  0  0  0  0  0
  -23.9998   -7.4628   22.7463 H   0  0  0  0  0  0
  -21.0830   -8.8751   19.8948 H   0  0  0  0  0  0
  -22.3675  -10.9652   19.6144 H   0  0  0  0  0  0
  -21.1984   -7.6138   23.9708 H   0  0  0  0  0  0
  -21.1471   -6.0512   25.9078 H   0  0  0  0  0  0
  -22.0609   -2.7598   23.2851 H   0  0  0  0  0  0
  -22.4106  -11.9868   22.4782 H   0  0  0  0  0  0
  -21.1104  -13.1229   22.2620 H   0  0  0  0  0  0
  -24.6648  -15.8457   20.5250 H   0  0  0  0  0  0
  -26.2830  -15.6288   20.0928 H   0  0  0  0  0  0
  -26.7155  -32.5457   23.1105 H   0  0  0  0  0  0
  -25.0102  -33.9750   25.0458 H   0  0  0  0  0  0
  -22.7083  -31.3073   21.4052 H   0  0  0  0  0  0
  -23.3752  -35.9592   23.3312 H   0  0  0  0  0  0
  -24.3588  -36.8885   22.2056 H   0  0  0  0  0  0
  -23.7199  -37.6473   23.6664 H   0  0  0  0  0  0
  -26.0876  -31.5637   20.6037 H   0  0  0  0  0  0
  -26.8333  -30.8431   21.9985 H   0  0  0  0  0  0
  -28.0975  -28.9999   21.1951 H   0  0  0  0  0  0
  -25.9696  -25.9314   19.0095 H   0  0  0  0  0  0
  -23.9724  -27.3067   19.0036 H   0  0  0  0  0  0
  -23.7359  -30.5984   19.4016 H   0  0  0  0  0  0
  -22.7453  -29.2477   19.8587 H   0  0  0  0  0  0
  -25.1286  -36.1935   25.0830 H   0  0  0  0  0  0
  -21.0004  -28.3256   24.1402 H   0  0  0  0  0  0
  -20.5668  -26.2292   23.3616 H   0  0  0  0  0  0
  -21.6644  -26.7433   22.1211 H   0  0  0  0  0  0
  -19.6912  -25.6297   21.1240 H   0  0  0  0  0  0
  -19.6697  -27.3208   20.6756 H   0  0  0  0  0  0
  -17.4207  -26.6717   21.4009 H   0  0  0  0  0  0
  -18.0304  -26.0077   22.8998 H   0  0  0  0  0  0
  -19.7937  -30.7283   24.2251 H   0  0  0  0  0  0
  -17.5021  -31.6268   24.5182 H   0  0  0  0  0  0
  -15.5359  -30.2998   23.7665 H   0  0  0  0  0  0
  -15.8674  -28.0836   22.7063 H   0  0  0  0  0  0
  -24.5888  -30.7126   25.7810 H   0  0  0  0  0  0
  -24.8961  -32.2924   26.4906 H   0  0  0  0  0  0
  -25.8068  -30.8917   27.0223 H   0  0  0  0  0  0
  -26.2871  -29.6788   24.1203 H   0  0  0  0  0  0
  -27.4070  -29.7295   25.4631 H   0  0  0  0  0  0
  -27.8727  -30.4353   23.9336 H   0  0  0  0  0  0
  -27.2666  -33.3651   26.2029 H   0  0  0  0  0  0
  -28.3840  -32.6888   25.0265 H   0  0  0  0  0  0
  -28.0742  -31.8481   26.5371 H   0  0  0  0  0  0
  -28.2598  -38.0085   24.7527 H   0  0  0  0  0  0
  -28.1055  -36.2613   24.6267 H   0  0  0  0  0  0
  -27.2313  -37.1406   25.8882 H   0  0  0  0  0  0
  -20.9321  -29.8763   21.6910 H   0  0  0  0  0  0
  -26.0156  -38.2854   24.1450 H   0  0  0  0  0  0
  -32.1643  -19.4356   19.2144 H   0  0  0  0  0  0
  -30.7561  -21.0179   20.4543 H   0  0  0  0  0  0
  -31.8253  -17.0275   19.3580 H   0  0  0  0  0  0
  -29.1555  -22.3476   20.1370 H   0  0  0  0  0  0
  -26.3272  -25.1749   21.4943 H   0  0  0  0  0  0
  -27.6638  -25.1935   22.6276 H   0  0  0  0  0  0
  -25.6879  -22.9358   22.0353 H   0  0  0  0  0  0
  -25.8717  -23.8063   23.5393 H   0  0  0  0  0  0
  -26.8938  -21.6817   23.7158 H   0  0  0  0  0  0
  -28.1688  -22.8712   23.8179 H   0  0  0  0  0  0
  -27.8016  -24.9257   18.9027 H   0  0  0  0  0  0
  -29.4195  -24.9037   19.4756 H   0  0  0  0  0  0
  -28.9698  -15.4541   21.2404 H   0  0  0  0  0  0
  -28.4715  -18.8932   23.4126 H   0  0  0  0  0  0
  -27.8827  -20.3839   24.0680 H   0  0  0  0  0  0
  1 25  1  0  0  0
  1 30  2  0  0  0
  1 85  1  0  0  0
  2  3  1  0  0  0
  2 25  1  0  0  0
  2 88  1  0  0  0
  2 89  1  0  0  0
  3  4  1  0  0  0
  3 90  1  0  0  0
  3 91  1  0  0  0
  4  5  1  0  0  0
  4 92  1  0  0  0
  4 93  1  0  0  0
  5  6  1  0  0  0
  5 26  1  0  0  0
  5 94  1  0  0  0
  6 25  1  0  0  0
  6 95  1  0  0  0
  6 96  1  0  0  0
  7  8  2  0  0  0
  7 26  1  0  0  0
  7 29  1  0  0  0
  8  9  1  0  0  0
  8 22  1  0  0  0
  9 10  1  0  0  0
  9 27  2  0  0  0
 10 11  2  0  0  0
 10 15  1  0  0  0
 11 12  1  0  0  0
 11 97  1  0  0  0
 12 13  2  0  0  0
 12 98  1  0  0  0
 13 14  1  0  0  0
 13 31  1  0  0  0
 14 15  2  0  0  0
 14 99  1  0  0  0
 15100  1  0  0  0
 16 17  2  0  0  0
 16 21  1  0  0  0
 16 31  1  0  0  0
 17 18  1  0  0  0
 17101  1  0  0  0
 18 19  2  0  0  0
 18102  1  0  0  0
 19 20  1  0  0  0
 19 24  1  0  0  0
 20 21  2  0  0  0
 20103  1  0  0  0
 21 23  1  0  0  0
 22 28  1  0  0  0
 22 32  2  0  0  0
 26 27  1  0  0  0
 28104  1  0  0  0
 28105  1  0  0  0
 29106  1  0  0  0
 29107  1  0  0  0
 33 34  1  0  0  0
 33 66  1  0  0  0
 33 70  2  0  0  0
 34 36  1  0  0  0
 34 59  1  0  0  0
 34108  1  0  0  0
 35 44  2  0  0  0
 35 45  1  0  0  0
 35 68  1  0  0  0
 36 56  1  0  0  0
 36109  1  0  0  0
 37 39  1  0  0  0
 37 47  1  0  0  0
 37 66  1  0  0  0
 37110  1  0  0  0
 38 43  2  0  0  0
 38 46  1  0  0  0
 38 47  1  0  0  0
 39 64  1  0  0  0
 39 67  2  0  0  0
 40 52  1  0  0  0
 40 53  2  0  0  0
 40 58  1  0  0  0
 41111  1  0  0  0
 41112  1  0  0  0
 41113  1  0  0  0
 41 48  1  0  0  0
 42 43  1  0  0  0
 42 66  1  0  0  0
 42114  1  0  0  0
 42115  1  0  0  0
 43 44  1  0  0  0
 44116  1  0  0  0
 45 46  2  0  0  0
 45117  1  0  0  0
 46118  1  0  0  0
 47119  1  0  0  0
 47120  1  0  0  0
 48 56  1  0  0  0
 48 65  1  0  0  0
 48121  1  0  0  0
 49 50  1  0  0  0
 49 53  1  0  0  0
 49 64  1  0  0  0
 49122  1  0  0  0
 50 51  1  0  0  0
 50123  1  0  0  0
 50124  1  0  0  0
 51 52  1  0  0  0
 51125  1  0  0  0
 51126  1  0  0  0
 52127  1  0  0  0
 52128  1  0  0  0
 53 54  1  0  0  0
 54 55  2  0  0  0
 54129  1  0  0  0
 55 57  1  0  0  0
 55130  1  0  0  0
 56 69  2  0  0  0
 57 58  2  0  0  0
 57131  1  0  0  0
 58132  1  0  0  0
 59 60  1  0  0  0
 59 61  1  0  0  0
 59 62  1  0  0  0
 60133  1  0  0  0
 60134  1  0  0  0
 60135  1  0  0  0
 61136  1  0  0  0
 61137  1  0  0  0
 61138  1  0  0  0
 62139  1  0  0  0
 62140  1  0  0  0
 62141  1  0  0  0
 63 65  1  0  0  0
 63142  1  0  0  0
 63143  1  0  0  0
 63144  1  0  0  0
 64145  1  0  0  0
 65146  1  0  0  0
 68 83  1  0  0  0
 71 72  2  0  0  0
 71 73  1  0  0  0
 71147  1  0  0  0
 72 74  1  0  0  0
 72148  1  0  0  0
 73 75  2  0  0  0
 73149  1  0  0  0
 74 76  2  0  0  0
 74 79  1  0  0  0
 75 76  1  0  0  0
 75 85  1  0  0  0
 76 87  1  0  0  0
 77 78  2  0  0  0
 77 84  1  0  0  0
 77150  1  0  0  0
 78 80  1  0  0  0
 78 83  1  0  0  0
 79 84  1  0  0  0
 79 86  2  0  0  0
 80 81  1  0  0  0
 80151  1  0  0  0
 80152  1  0  0  0
 81 82  1  0  0  0
 81153  1  0  0  0
 81154  1  0  0  0
 82 84  1  0  0  0
 82155  1  0  0  0
 82156  1  0  0  0
 83157  1  0  0  0
 83158  1  0  0  0
 85159  1  0  0  0
 86160  1  0  0  0
 86161  1  0  0  0
M  CHG  1  86   1
M  ISO  4   1 100  68 101  83 101  85 100
M  END
> <chiral flag>
0

> <version>
0

> <s_m_source_file>
/data/baiqing/PycharmProjects/Reinvent-master-3.2/result/LINK_invent/BTK/process_docking_weight1_custom_product_contain_oxygen_bond_distance_aromatic_linkinvent_7_9_3/rearranged_h_0160.sdf

> <i_m_source_file_index>
78

> <r_mmod_Potential_Energy-OPLS-2005>
-47.0891342163086

> <r_mmod_Stretch_Energy-OPLS-2005>
93.3155212402344

> <r_mmod_Bend_Energy-OPLS-2005>
166.100280761719

> <r_mmod_Torsional_Energy-OPLS-2005>
211.005233764648

> <r_mmod_Improper_Torsional_Energy-OPLS-2005>
5.2572078704834

> <r_mmod_Van_der_Waal_Energy-OPLS-2005>
182.319686889648

> <r_mmod_Electrostatic_Energy-OPLS-2005>
-348.048614501953

> <r_mmod_Solvation_Energy-OPLS-2005>
-398.573913574219

> <b_mmod_Minimization_Converged-OPLS-2005>
0

> <r_mmod_RMS_Derivative-OPLS-2005>
1.95926892757416

$$$$
79
                    3D
 Structure written by MMmdl.
165174  0  0  1  0            999 V2000
  -30.5786  -14.6118   20.5570 C   0  0  0  0  0  0
  -30.4584  -12.3920   19.4259 C   0  0  0  0  0  0
  -29.5097  -12.5237   18.2112 C   0  0  0  0  0  0
  -28.0310  -12.3529   18.6227 C   0  0  0  0  0  0
  -27.6614  -13.1958   19.8712 C   0  0  2  0  0  0
  -28.7066  -12.9748   20.9878 C   0  0  0  0  0  0
  -25.2611  -13.8123   20.5676 C   0  0  0  0  0  0
  -24.1848  -13.0422   20.9177 C   0  0  0  0  0  0
  -24.6380  -11.6883   20.8720 C   0  0  0  0  0  0
  -23.9035  -10.4286   21.0394 C   0  0  0  0  0  0
  -24.3595   -9.4209   21.9174 C   0  0  0  0  0  0
  -23.6282   -8.2239   22.0744 C   0  0  0  0  0  0
  -22.4263   -8.0271   21.3539 C   0  0  0  0  0  0
  -21.9892   -9.0240   20.4641 C   0  0  0  0  0  0
  -22.7207  -10.2125   20.3047 C   0  0  0  0  0  0
  -21.6850   -6.0722   22.5277 C   0  0  0  0  0  0
  -21.4010   -6.5629   23.8210 C   0  0  0  0  0  0
  -21.3661   -5.6784   24.9175 C   0  0  0  0  0  0
  -21.6046   -4.3047   24.7226 C   0  0  0  0  0  0
  -21.8821   -3.8135   23.4348 C   0  0  0  0  0  0
  -21.9192   -4.6952   22.3403 C   0  0  0  0  0  0
  -22.7877  -13.5240   21.1843 C   0  0  0  0  0  0
  -22.1663   -4.2134   21.0982 F   0  0  0  0  0  0
  -21.5635   -3.4535   25.7742 F   0  0  0  0  0  0
  -30.0239  -13.3635   20.4449 N   0  0  0  0  0  0
  -26.3019  -12.9257   20.3330 N   0  0  0  0  0  0
  -25.9298  -11.6433   20.5730 N   0  0  0  0  0  0
  -22.0503  -12.8247   22.0402 N   0  0  0  0  0  0
  -25.4367  -15.1844   20.4109 N   0  0  0  0  0  0
  -31.7067  -14.8769   20.1266 O   0  0  0  0  0  0
  -21.6632   -6.8867   21.4239 O   0  0  0  0  0  0
  -22.3574  -14.5548   20.6685 O   0  0  0  0  0  0
  -24.6230  -31.8615   23.2024 C   0  0  0  0  0  0
  -25.9083  -32.4793   23.8353 C   0  0  1  0  0  0
  -27.2373  -27.3519   20.1200 C   0  0  0  0  0  0
  -25.5907  -33.8590   24.2285 N   0  0  0  0  0  0
  -23.4163  -30.4818   21.5450 C   0  0  2  0  0  0
  -24.8663  -28.9335   20.1168 C   0  0  0  0  0  0
  -22.7460  -29.4625   22.4956 C   0  0  0  0  0  0
  -18.0282  -28.1385   22.8492 C   0  0  0  0  0  0
  -24.1487  -36.7301   23.2637 C   0  0  0  0  0  0
  -25.9528  -30.8037   21.3662 C   0  0  0  0  0  0
  -26.0319  -29.4304   20.7144 C   0  0  0  0  0  0
  -27.2233  -28.6521   20.7020 C   0  0  0  0  0  0
  -26.0519  -26.8902   19.5100 C   0  0  0  0  0  0
  -24.8756  -27.6674   19.5066 C   0  0  0  0  0  0
  -23.6309  -29.8098   20.1623 C   0  0  0  0  0  0
  -25.4108  -36.3093   24.0333 C   0  0  1  0  0  0
  -20.5882  -28.3681   23.1299 C   0  0  2  0  0  0
  -20.6772  -26.9408   22.5417 C   0  0  0  0  0  0
  -19.5748  -26.6386   21.5218 C   0  0  0  0  0  0
  -18.1927  -26.7930   22.1628 C   0  0  0  0  0  0
  -19.1533  -28.8850   23.2893 C   0  0  0  0  0  0
  -18.9457  -30.1455   23.8903 C   0  0  0  0  0  0
  -17.6459  -30.6589   24.0563 C   0  0  0  0  0  0
  -25.9043  -34.9462   23.5110 C   0  0  0  0  0  0
  -16.5351  -29.9087   23.6329 C   0  0  0  0  0  0
  -16.7271  -28.6505   23.0348 C   0  0  0  0  0  0
  -26.4479  -31.6597   25.0713 C   0  0  0  0  0  0
  -25.3721  -31.3728   26.1446 C   0  0  0  0  0  0
  -27.0314  -30.3029   24.6136 C   0  0  0  0  0  0
  -27.6049  -32.4323   25.7480 C   0  0  0  0  0  0
  -27.5584  -37.1797   24.8457 C   0  0  0  0  0  0
  -21.4178  -29.3037   22.3698 N   0  0  0  0  0  0
  -26.4285  -37.3787   23.9420 N   0  0  0  0  0  0
  -24.6828  -31.0648   22.0961 N   0  0  0  0  0  0
  -23.4195  -28.8170   23.3026 O   0  0  0  0  0  0
  -28.3742  -26.5439   20.1080 O   0  0  0  0  0  0
  -26.5616  -34.8927   22.4678 O   0  0  0  0  0  0
  -23.5400  -32.1396   23.7370 O   0  0  0  0  0  0
  -28.2949  -18.6537   22.4801 C   0  0  0  0  0  0
  -29.0584  -19.6898   21.9177 C   0  0  0  0  0  0
  -28.5581  -17.3130   22.1554 C   0  0  0  0  0  0
  -30.3187  -18.0278   20.6442 C   0  0  0  0  0  0
  -30.0715  -19.4241   20.9706 C   0  0  0  0  0  0
  -29.5890  -16.9584   21.2611 C   0  0  0  0  0  0
  -28.8759  -24.0248   19.8783 C   0  0  0  0  0  0
  -33.3053  -21.0233   19.4047 C   0  0  0  0  0  0
  -32.6831  -22.1820   18.6496 C   0  0  0  0  0  0
  -32.2001  -20.0264   19.7261 C   0  0  0  0  0  0
  -31.5879  -22.8232   19.5064 C   0  0  0  0  0  0
  -30.9992  -20.6190   20.5225 C   0  0  1  0  0  0
  -29.3916  -22.7163   20.6109 C   0  0  0  0  0  0
  -28.2540  -25.2048   20.7108 C   0  0  0  0  0  0
  -29.7059  -15.5224   21.0739 N   0  0  0  0  0  0
  -30.4460  -21.9052   19.8592 N   0  3  1  0  0  0
  -28.8925  -24.0931   18.6439 O   0  0  0  0  0  0
  -31.4916  -12.5628   19.1192 H   0  0  0  0  0  0
  -30.4290  -11.3791   19.8315 H   0  0  0  0  0  0
  -29.7749  -11.7907   17.4486 H   0  0  0  0  0  0
  -29.6436  -13.5032   17.7497 H   0  0  0  0  0  0
  -27.8640  -11.2953   18.8302 H   0  0  0  0  0  0
  -27.3749  -12.6048   17.7887 H   0  0  0  0  0  0
  -27.6986  -14.2415   19.5658 H   0  0  0  0  0  0
  -28.7239  -11.9246   21.2844 H   0  0  0  0  0  0
  -28.4396  -13.5183   21.8951 H   0  0  0  0  0  0
  -25.2740   -9.5695   22.4744 H   0  0  0  0  0  0
  -23.9995   -7.4633   22.7460 H   0  0  0  0  0  0
  -21.0821   -8.8752   19.8951 H   0  0  0  0  0  0
  -22.3657  -10.9660   19.6155 H   0  0  0  0  0  0
  -21.1996   -7.6136   23.9713 H   0  0  0  0  0  0
  -21.1486   -6.0513   25.9081 H   0  0  0  0  0  0
  -22.0598   -2.7596   23.2852 H   0  0  0  0  0  0
  -22.4100  -11.9909   22.4808 H   0  0  0  0  0  0
  -21.1118  -13.1280   22.2580 H   0  0  0  0  0  0
  -24.6712  -15.8406   20.5220 H   0  0  0  0  0  0
  -26.2889  -15.6239   20.0864 H   0  0  0  0  0  0
  -26.7152  -32.5483   23.1110 H   0  0  0  0  0  0
  -25.0046  -33.9735   25.0424 H   0  0  0  0  0  0
  -22.7091  -31.3010   21.3996 H   0  0  0  0  0  0
  -23.3753  -35.9627   23.3286 H   0  0  0  0  0  0
  -24.3584  -36.8932   22.2054 H   0  0  0  0  0  0
  -23.7229  -37.6496   23.6663 H   0  0  0  0  0  0
  -26.0726  -31.5658   20.5951 H   0  0  0  0  0  0
  -26.8371  -30.8598   21.9891 H   0  0  0  0  0  0
  -28.1245  -29.0352   21.1603 H   0  0  0  0  0  0
  -26.0353  -25.9209   19.0316 H   0  0  0  0  0  0
  -23.9817  -27.2815   19.0362 H   0  0  0  0  0  0
  -23.7465  -30.5830   19.4018 H   0  0  0  0  0  0
  -22.7529  -29.2341   19.8637 H   0  0  0  0  0  0
  -25.1284  -36.1944   25.0824 H   0  0  0  0  0  0
  -20.9975  -28.3249   24.1420 H   0  0  0  0  0  0
  -20.5675  -26.2288   23.3610 H   0  0  0  0  0  0
  -21.6639  -26.7443   22.1207 H   0  0  0  0  0  0
  -19.6905  -25.6296   21.1244 H   0  0  0  0  0  0
  -19.6687  -27.3199   20.6748 H   0  0  0  0  0  0
  -17.4200  -26.6684   21.4027 H   0  0  0  0  0  0
  -18.0324  -26.0073   22.9022 H   0  0  0  0  0  0
  -19.7931  -30.7271   24.2276 H   0  0  0  0  0  0
  -17.5010  -31.6269   24.5162 H   0  0  0  0  0  0
  -15.5348  -30.2988   23.7648 H   0  0  0  0  0  0
  -15.8673  -28.0825   22.7056 H   0  0  0  0  0  0
  -24.5888  -30.7087   25.7773 H   0  0  0  0  0  0
  -24.8916  -32.2894   26.4881 H   0  0  0  0  0  0
  -25.8047  -30.8897   27.0216 H   0  0  0  0  0  0
  -26.2875  -29.6791   24.1165 H   0  0  0  0  0  0
  -27.4036  -29.7270   25.4619 H   0  0  0  0  0  0
  -27.8732  -30.4330   23.9329 H   0  0  0  0  0  0
  -27.2667  -33.3615   26.2076 H   0  0  0  0  0  0
  -28.3848  -32.6897   25.0303 H   0  0  0  0  0  0
  -28.0731  -31.8437   26.5379 H   0  0  0  0  0  0
  -28.2580  -38.0117   24.7546 H   0  0  0  0  0  0
  -28.1104  -36.2653   24.6229 H   0  0  0  0  0  0
  -27.2315  -37.1378   25.8862 H   0  0  0  0  0  0
  -20.9352  -29.8756   21.6909 H   0  0  0  0  0  0
  -26.0171  -38.2858   24.1445 H   0  0  0  0  0  0
  -27.5207  -18.8861   23.1985 H   0  0  0  0  0  0
  -28.8751  -20.6911   22.2753 H   0  0  0  0  0  0
  -27.9586  -16.5474   22.6298 H   0  0  0  0  0  0
  -31.0945  -17.7445   19.9495 H   0  0  0  0  0  0
  -33.7841  -21.3719   20.3213 H   0  0  0  0  0  0
  -34.0827  -20.5492   18.8039 H   0  0  0  0  0  0
  -32.2766  -21.8487   17.6937 H   0  0  0  0  0  0
  -33.4506  -22.9214   18.4165 H   0  0  0  0  0  0
  -32.6696  -19.2290   20.3036 H   0  0  0  0  0  0
  -31.8434  -19.5778   18.7975 H   0  0  0  0  0  0
  -31.2764  -23.7004   18.9458 H   0  0  0  0  0  0
  -32.0316  -23.2066   20.4273 H   0  0  0  0  0  0
  -31.4234  -20.9700   21.4655 H   0  0  0  0  0  0
  -28.5116  -22.0949   20.7650 H   0  0  0  0  0  0
  -29.7725  -22.9912   21.5944 H   0  0  0  0  0  0
  -28.7469  -25.2318   21.6824 H   0  0  0  0  0  0
  -27.2100  -24.9626   20.9086 H   0  0  0  0  0  0
  -28.8954  -15.0300   21.4158 H   0  0  0  0  0  0
  -30.0117  -21.6293   18.9913 H   0  0  0  0  0  0
  1 25  1  0  0  0
  1 30  2  0  0  0
  1 85  1  0  0  0
  2  3  1  0  0  0
  2 25  1  0  0  0
  2 88  1  0  0  0
  2 89  1  0  0  0
  3  4  1  0  0  0
  3 90  1  0  0  0
  3 91  1  0  0  0
  4  5  1  0  0  0
  4 92  1  0  0  0
  4 93  1  0  0  0
  5  6  1  0  0  0
  5 26  1  0  0  0
  5 94  1  0  0  0
  6 25  1  0  0  0
  6 95  1  0  0  0
  6 96  1  0  0  0
  7  8  2  0  0  0
  7 26  1  0  0  0
  7 29  1  0  0  0
  8  9  1  0  0  0
  8 22  1  0  0  0
  9 10  1  0  0  0
  9 27  2  0  0  0
 10 11  2  0  0  0
 10 15  1  0  0  0
 11 12  1  0  0  0
 11 97  1  0  0  0
 12 13  2  0  0  0
 12 98  1  0  0  0
 13 14  1  0  0  0
 13 31  1  0  0  0
 14 15  2  0  0  0
 14 99  1  0  0  0
 15100  1  0  0  0
 16 17  2  0  0  0
 16 21  1  0  0  0
 16 31  1  0  0  0
 17 18  1  0  0  0
 17101  1  0  0  0
 18 19  2  0  0  0
 18102  1  0  0  0
 19 20  1  0  0  0
 19 24  1  0  0  0
 20 21  2  0  0  0
 20103  1  0  0  0
 21 23  1  0  0  0
 22 28  1  0  0  0
 22 32  2  0  0  0
 26 27  1  0  0  0
 28104  1  0  0  0
 28105  1  0  0  0
 29106  1  0  0  0
 29107  1  0  0  0
 33 34  1  0  0  0
 33 66  1  0  0  0
 33 70  2  0  0  0
 34 36  1  0  0  0
 34 59  1  0  0  0
 34108  1  0  0  0
 35 44  2  0  0  0
 35 45  1  0  0  0
 35 68  1  0  0  0
 36 56  1  0  0  0
 36109  1  0  0  0
 37 39  1  0  0  0
 37 47  1  0  0  0
 37 66  1  0  0  0
 37110  1  0  0  0
 38 43  2  0  0  0
 38 46  1  0  0  0
 38 47  1  0  0  0
 39 64  1  0  0  0
 39 67  2  0  0  0
 40 52  1  0  0  0
 40 53  2  0  0  0
 40 58  1  0  0  0
 41111  1  0  0  0
 41112  1  0  0  0
 41113  1  0  0  0
 41 48  1  0  0  0
 42 43  1  0  0  0
 42 66  1  0  0  0
 42114  1  0  0  0
 42115  1  0  0  0
 43 44  1  0  0  0
 44116  1  0  0  0
 45 46  2  0  0  0
 45117  1  0  0  0
 46118  1  0  0  0
 47119  1  0  0  0
 47120  1  0  0  0
 48 56  1  0  0  0
 48 65  1  0  0  0
 48121  1  0  0  0
 49 50  1  0  0  0
 49 53  1  0  0  0
 49 64  1  0  0  0
 49122  1  0  0  0
 50 51  1  0  0  0
 50123  1  0  0  0
 50124  1  0  0  0
 51 52  1  0  0  0
 51125  1  0  0  0
 51126  1  0  0  0
 52127  1  0  0  0
 52128  1  0  0  0
 53 54  1  0  0  0
 54 55  2  0  0  0
 54129  1  0  0  0
 55 57  1  0  0  0
 55130  1  0  0  0
 56 69  2  0  0  0
 57 58  2  0  0  0
 57131  1  0  0  0
 58132  1  0  0  0
 59 60  1  0  0  0
 59 61  1  0  0  0
 59 62  1  0  0  0
 60133  1  0  0  0
 60134  1  0  0  0
 60135  1  0  0  0
 61136  1  0  0  0
 61137  1  0  0  0
 61138  1  0  0  0
 62139  1  0  0  0
 62140  1  0  0  0
 62141  1  0  0  0
 63 65  1  0  0  0
 63142  1  0  0  0
 63143  1  0  0  0
 63144  1  0  0  0
 64145  1  0  0  0
 65146  1  0  0  0
 68 84  1  0  0  0
 71 72  2  0  0  0
 71 73  1  0  0  0
 71147  1  0  0  0
 72 75  1  0  0  0
 72148  1  0  0  0
 73 76  2  0  0  0
 73149  1  0  0  0
 74 75  2  0  0  0
 74 76  1  0  0  0
 74150  1  0  0  0
 75 82  1  0  0  0
 76 85  1  0  0  0
 77 83  1  0  0  0
 77 84  1  0  0  0
 77 87  2  0  0  0
 78 79  1  0  0  0
 78 80  1  0  0  0
 78151  1  0  0  0
 78152  1  0  0  0
 79 81  1  0  0  0
 79153  1  0  0  0
 79154  1  0  0  0
 80 82  1  0  0  0
 80155  1  0  0  0
 80156  1  0  0  0
 81 86  1  0  0  0
 81157  1  0  0  0
 81158  1  0  0  0
 82 86  1  0  0  0
 82159  1  0  0  0
 83160  1  0  0  0
 83161  1  0  0  0
 83 86  1  0  0  0
 84162  1  0  0  0
 84163  1  0  0  0
 85164  1  0  0  0
 86165  1  0  0  0
M  CHG  1  86   1
M  ISO  4   1 100  68 101  84 101  85 100
M  END
> <chiral flag>
0

> <version>
0

> <s_m_source_file>
/data/baiqing/PycharmProjects/Reinvent-master-3.2/result/LINK_invent/BTK/process_docking_weight1_custom_product_contain_oxygen_bond_distance_aromatic_linkinvent_7_9_3/rearranged_h_0160.sdf

> <i_m_source_file_index>
79

> <r_mmod_Potential_Energy-OPLS-2005>
-47.1508140563965

> <r_mmod_Stretch_Energy-OPLS-2005>
87.2167892456055

> <r_mmod_Bend_Energy-OPLS-2005>
183.872543334961

> <r_mmod_Torsional_Energy-OPLS-2005>
261.496063232422

> <r_mmod_Improper_Torsional_Energy-OPLS-2005>
4.70354604721069

> <r_mmod_Van_der_Waal_Energy-OPLS-2005>
159.899597167969

> <r_mmod_Electrostatic_Energy-OPLS-2005>
-333.326934814453

> <r_mmod_Solvation_Energy-OPLS-2005>
-449.573059082031

> <b_mmod_Minimization_Converged-OPLS-2005>
0

> <r_mmod_RMS_Derivative-OPLS-2005>
0.834653437137604

$$$$
80
                    3D
 Structure written by MMmdl.
161170  0  0  1  0            999 V2000
  -30.5641  -14.7796   20.4607 C   0  0  0  0  0  0
  -30.4296  -12.4806   19.4624 C   0  0  0  0  0  0
  -29.5087  -12.5073   18.2242 C   0  0  0  0  0  0
  -28.0314  -12.3264   18.6312 C   0  0  0  0  0  0
  -27.6263  -13.2286   19.8292 C   0  0  2  0  0  0
  -28.6682  -13.1673   20.9617 C   0  0  0  0  0  0
  -25.2427  -13.8166   20.5641 C   0  0  0  0  0  0
  -24.1746  -13.0425   20.9187 C   0  0  0  0  0  0
  -24.6350  -11.6905   20.8739 C   0  0  0  0  0  0
  -23.9042  -10.4289   21.0408 C   0  0  0  0  0  0
  -24.3620   -9.4202   21.9170 C   0  0  0  0  0  0
  -23.6298   -8.2232   22.0740 C   0  0  0  0  0  0
  -22.4275   -8.0262   21.3524 C   0  0  0  0  0  0
  -21.9904   -9.0230   20.4628 C   0  0  0  0  0  0
  -22.7228  -10.2112   20.3045 C   0  0  0  0  0  0
  -21.6843   -6.0742   22.5283 C   0  0  0  0  0  0
  -21.4006   -6.5636   23.8222 C   0  0  0  0  0  0
  -21.3661   -5.6779   24.9178 C   0  0  0  0  0  0
  -21.6057   -4.3043   24.7218 C   0  0  0  0  0  0
  -21.8818   -3.8149   23.4331 C   0  0  0  0  0  0
  -21.9180   -4.6971   22.3400 C   0  0  0  0  0  0
  -22.7770  -13.5199   21.1849 C   0  0  0  0  0  0
  -22.1648   -4.2163   21.0967 F   0  0  0  0  0  0
  -21.5639   -3.4527   25.7725 F   0  0  0  0  0  0
  -29.9527  -13.5469   20.3705 N   0  0  0  0  0  0
  -26.2832  -12.9374   20.3141 N   0  0  0  0  0  0
  -25.9249  -11.6528   20.5682 N   0  0  0  0  0  0
  -22.0422  -12.8226   22.0440 N   0  0  0  0  0  0
  -25.4091  -15.1912   20.4100 N   0  0  0  0  0  0
  -31.7658  -14.8704   20.1953 O   0  0  0  0  0  0
  -21.6614   -6.8877   21.4240 O   0  0  0  0  0  0
  -22.3449  -14.5496   20.6661 O   0  0  0  0  0  0
  -24.6325  -31.8535   23.1998 C   0  0  0  0  0  0
  -25.9150  -32.4743   23.8332 C   0  0  1  0  0  0
  -27.1942  -27.2149   20.1287 C   0  0  0  0  0  0
  -25.5928  -33.8546   24.2255 N   0  0  0  0  0  0
  -23.4283  -30.4789   21.5448 C   0  0  2  0  0  0
  -24.8683  -28.9223   20.1054 C   0  0  0  0  0  0
  -22.7509  -29.4587   22.4915 C   0  0  0  0  0  0
  -18.0284  -28.1363   22.8510 C   0  0  0  0  0  0
  -24.1480  -36.7262   23.2658 C   0  0  0  0  0  0
  -25.9781  -30.7475   21.3886 C   0  0  0  0  0  0
  -26.0408  -29.3698   20.7237 C   0  0  0  0  0  0
  -27.2017  -28.5278   20.7287 C   0  0  0  0  0  0
  -25.9885  -26.8378   19.4935 C   0  0  0  0  0  0
  -24.8486  -27.6665   19.4818 C   0  0  0  0  0  0
  -23.6450  -29.8195   20.1570 C   0  0  0  0  0  0
  -25.4115  -36.3074   24.0341 C   0  0  1  0  0  0
  -20.5894  -28.3667   23.1283 C   0  0  2  0  0  0
  -20.6766  -26.9375   22.5430 C   0  0  0  0  0  0
  -19.5740  -26.6340   21.5228 C   0  0  0  0  0  0
  -18.1916  -26.7913   22.1624 C   0  0  0  0  0  0
  -19.1550  -28.8833   23.2882 C   0  0  0  0  0  0
  -18.9460  -30.1438   23.8882 C   0  0  0  0  0  0
  -17.6459  -30.6570   24.0557 C   0  0  0  0  0  0
  -25.9060  -34.9443   23.5109 C   0  0  0  0  0  0
  -16.5347  -29.9067   23.6338 C   0  0  0  0  0  0
  -16.7271  -28.6477   23.0382 C   0  0  0  0  0  0
  -26.4485  -31.6614   25.0762 C   0  0  0  0  0  0
  -25.3701  -31.3799   26.1489 C   0  0  0  0  0  0
  -27.0372  -30.3034   24.6317 C   0  0  0  0  0  0
  -27.6015  -32.4402   25.7521 C   0  0  0  0  0  0
  -27.5577  -37.1791   24.8467 C   0  0  0  0  0  0
  -21.4215  -29.3022   22.3683 N   0  0  0  0  0  0
  -26.4292  -37.3772   23.9413 N   0  0  0  0  0  0
  -24.6990  -31.0463   22.0986 N   0  0  0  0  0  0
  -23.4214  -28.8130   23.3016 O   0  0  0  0  0  0
  -28.2861  -26.3116   20.2193 O   0  0  0  0  0  0
  -26.5628  -34.8923   22.4681 O   0  0  0  0  0  0
  -23.5477  -32.1367   23.7291 O   0  0  0  0  0  0
  -30.5151  -19.3452   22.3890 C   0  0  0  0  0  0
  -30.9881  -18.8051   23.5930 C   0  0  0  0  0  0
  -30.4975  -16.6013   22.7651 C   0  0  0  0  0  0
  -29.9095  -18.5684   21.3638 C   0  0  0  0  0  0
  -30.0604  -17.0840   21.5004 C   0  0  0  0  0  0
  -30.9160  -17.4320   23.8067 C   0  0  0  0  0  0
  -28.3042  -23.5776   20.4572 C   0  0  0  0  0  0
  -30.4372  -21.1241   18.6664 C   0  0  0  0  0  0
  -30.0460  -19.6751   18.9939 C   0  0  0  0  0  0
  -29.2263  -22.0747   18.6569 C   0  0  0  0  0  0
  -28.5422  -20.9677   20.7740 C   0  0  0  0  0  0
  -29.2005  -19.5186   20.2773 C   0  0  2  0  0  0
  -28.3453  -24.9386   19.5631 C   0  0  0  0  0  0
  -28.7048  -22.2984   20.0054 N   0  0  0  0  0  0
  -29.7813  -15.9357   20.6043 N   0  0  0  0  0  0
  -27.8524  -23.6861   21.6010 O   0  0  0  0  0  0
  -31.2741  -16.9048   25.0014 F   0  0  0  0  0  0
  -31.4661  -12.6300   19.1575 H   0  0  0  0  0  0
  -30.3947  -11.5075   19.9558 H   0  0  0  0  0  0
  -29.8062  -11.7328   17.5153 H   0  0  0  0  0  0
  -29.6302  -13.4607   17.7097 H   0  0  0  0  0  0
  -27.8873  -11.2767   18.8903 H   0  0  0  0  0  0
  -27.3832  -12.5200   17.7750 H   0  0  0  0  0  0
  -27.6106  -14.2484   19.4449 H   0  0  0  0  0  0
  -28.7135  -12.1586   21.3753 H   0  0  0  0  0  0
  -28.3934  -13.8302   21.7832 H   0  0  0  0  0  0
  -25.2783   -9.5663   22.4729 H   0  0  0  0  0  0
  -24.0009   -7.4614   22.7458 H   0  0  0  0  0  0
  -21.0833   -8.8739   19.8940 H   0  0  0  0  0  0
  -22.3685  -10.9638   19.6146 H   0  0  0  0  0  0
  -21.1982   -7.6141   23.9728 H   0  0  0  0  0  0
  -21.1498   -6.0503   25.9079 H   0  0  0  0  0  0
  -22.0596   -2.7611   23.2815 H   0  0  0  0  0  0
  -22.4038  -11.9915   22.4888 H   0  0  0  0  0  0
  -21.1017  -13.1222   22.2612 H   0  0  0  0  0  0
  -24.6375  -15.8403   20.5199 H   0  0  0  0  0  0
  -26.2487  -15.6352   20.0649 H   0  0  0  0  0  0
  -26.7224  -32.5345   23.1070 H   0  0  0  0  0  0
  -25.0064  -33.9679   25.0392 H   0  0  0  0  0  0
  -22.7241  -31.3020   21.4044 H   0  0  0  0  0  0
  -23.3772  -35.9564   23.3316 H   0  0  0  0  0  0
  -24.3568  -36.8875   22.2070 H   0  0  0  0  0  0
  -23.7188  -37.6446   23.6673 H   0  0  0  0  0  0
  -26.1383  -31.5096   20.6251 H   0  0  0  0  0  0
  -26.8483  -30.7798   22.0324 H   0  0  0  0  0  0
  -28.0921  -28.8631   21.2414 H   0  0  0  0  0  0
  -25.8647  -25.8685   19.0389 H   0  0  0  0  0  0
  -23.9408  -27.3206   19.0068 H   0  0  0  0  0  0
  -23.7756  -30.5976   19.4034 H   0  0  0  0  0  0
  -22.7571  -29.2633   19.8534 H   0  0  0  0  0  0
  -25.1305  -36.1929   25.0832 H   0  0  0  0  0  0
  -20.9988  -28.3224   24.1402 H   0  0  0  0  0  0
  -20.5635  -26.2268   23.3635 H   0  0  0  0  0  0
  -21.6634  -26.7364   22.1232 H   0  0  0  0  0  0
  -19.6889  -25.6244   21.1253 H   0  0  0  0  0  0
  -19.6701  -27.3158   20.6768 H   0  0  0  0  0  0
  -17.4208  -26.6708   21.3996 H   0  0  0  0  0  0
  -18.0278  -26.0036   22.8988 H   0  0  0  0  0  0
  -19.7929  -30.7272   24.2245 H   0  0  0  0  0  0
  -17.5004  -31.6258   24.5155 H   0  0  0  0  0  0
  -15.5355  -30.2962   23.7658 H   0  0  0  0  0  0
  -15.8662  -28.0766   22.7137 H   0  0  0  0  0  0
  -24.5832  -30.7195   25.7823 H   0  0  0  0  0  0
  -24.8948  -32.3000   26.4908 H   0  0  0  0  0  0
  -25.7992  -30.8956   27.0274 H   0  0  0  0  0  0
  -26.3012  -29.6761   24.1284 H   0  0  0  0  0  0
  -27.3989  -29.7307   25.4862 H   0  0  0  0  0  0
  -27.8891  -30.4310   23.9642 H   0  0  0  0  0  0
  -27.2589  -33.3713   26.2050 H   0  0  0  0  0  0
  -28.3824  -32.6971   25.0351 H   0  0  0  0  0  0
  -28.0702  -31.8595   26.5479 H   0  0  0  0  0  0
  -28.2620  -38.0066   24.7530 H   0  0  0  0  0  0
  -28.1054  -36.2613   24.6285 H   0  0  0  0  0  0
  -27.2304  -37.1428   25.8871 H   0  0  0  0  0  0
  -20.9413  -29.8773   21.6907 H   0  0  0  0  0  0
  -26.0180  -38.2849   24.1407 H   0  0  0  0  0  0
  -30.6021  -20.4177   22.2990 H   0  0  0  0  0  0
  -31.3728  -19.4455   24.3693 H   0  0  0  0  0  0
  -30.5094  -15.5437   22.9792 H   0  0  0  0  0  0
  -30.9129  -21.1471   17.6846 H   0  0  0  0  0  0
  -31.1910  -21.4755   19.3702 H   0  0  0  0  0  0
  -30.9448  -19.0615   19.0423 H   0  0  0  0  0  0
  -29.4851  -19.2725   18.1486 H   0  0  0  0  0  0
  -28.4233  -21.6613   18.0433 H   0  0  0  0  0  0
  -29.5296  -23.0056   18.1850 H   0  0  0  0  0  0
  -28.7642  -21.1794   21.8166 H   0  0  0  0  0  0
  -27.4647  -20.8032   20.8136 H   0  0  0  0  0  0
  -28.3381  -18.9199   19.9723 H   0  0  0  0  0  0
  -27.6310  -24.8445   18.7494 H   0  0  0  0  0  0
  -29.3072  -24.9542   19.0548 H   0  0  0  0  0  0
  -28.8062  -15.8097   20.3850 H   0  0  0  0  0  0
  1 25  1  0  0  0
  1 30  2  0  0  0
  1 85  1  0  0  0
  2  3  1  0  0  0
  2 25  1  0  0  0
  2 88  1  0  0  0
  2 89  1  0  0  0
  3  4  1  0  0  0
  3 90  1  0  0  0
  3 91  1  0  0  0
  4  5  1  0  0  0
  4 92  1  0  0  0
  4 93  1  0  0  0
  5  6  1  0  0  0
  5 26  1  0  0  0
  5 94  1  0  0  0
  6 25  1  0  0  0
  6 95  1  0  0  0
  6 96  1  0  0  0
  7  8  2  0  0  0
  7 26  1  0  0  0
  7 29  1  0  0  0
  8  9  1  0  0  0
  8 22  1  0  0  0
  9 10  1  0  0  0
  9 27  2  0  0  0
 10 11  2  0  0  0
 10 15  1  0  0  0
 11 12  1  0  0  0
 11 97  1  0  0  0
 12 13  2  0  0  0
 12 98  1  0  0  0
 13 14  1  0  0  0
 13 31  1  0  0  0
 14 15  2  0  0  0
 14 99  1  0  0  0
 15100  1  0  0  0
 16 17  2  0  0  0
 16 21  1  0  0  0
 16 31  1  0  0  0
 17 18  1  0  0  0
 17101  1  0  0  0
 18 19  2  0  0  0
 18102  1  0  0  0
 19 20  1  0  0  0
 19 24  1  0  0  0
 20 21  2  0  0  0
 20103  1  0  0  0
 21 23  1  0  0  0
 22 28  1  0  0  0
 22 32  2  0  0  0
 26 27  1  0  0  0
 28104  1  0  0  0
 28105  1  0  0  0
 29106  1  0  0  0
 29107  1  0  0  0
 33 34  1  0  0  0
 33 66  1  0  0  0
 33 70  2  0  0  0
 34 36  1  0  0  0
 34 59  1  0  0  0
 34108  1  0  0  0
 35 44  2  0  0  0
 35 45  1  0  0  0
 35 68  1  0  0  0
 36 56  1  0  0  0
 36109  1  0  0  0
 37 39  1  0  0  0
 37 47  1  0  0  0
 37 66  1  0  0  0
 37110  1  0  0  0
 38 43  2  0  0  0
 38 46  1  0  0  0
 38 47  1  0  0  0
 39 64  1  0  0  0
 39 67  2  0  0  0
 40 52  1  0  0  0
 40 53  2  0  0  0
 40 58  1  0  0  0
 41111  1  0  0  0
 41112  1  0  0  0
 41113  1  0  0  0
 41 48  1  0  0  0
 42 43  1  0  0  0
 42 66  1  0  0  0
 42114  1  0  0  0
 42115  1  0  0  0
 43 44  1  0  0  0
 44116  1  0  0  0
 45 46  2  0  0  0
 45117  1  0  0  0
 46118  1  0  0  0
 47119  1  0  0  0
 47120  1  0  0  0
 48 56  1  0  0  0
 48 65  1  0  0  0
 48121  1  0  0  0
 49 50  1  0  0  0
 49 53  1  0  0  0
 49 64  1  0  0  0
 49122  1  0  0  0
 50 51  1  0  0  0
 50123  1  0  0  0
 50124  1  0  0  0
 51 52  1  0  0  0
 51125  1  0  0  0
 51126  1  0  0  0
 52127  1  0  0  0
 52128  1  0  0  0
 53 54  1  0  0  0
 54 55  2  0  0  0
 54129  1  0  0  0
 55 57  1  0  0  0
 55130  1  0  0  0
 56 69  2  0  0  0
 57 58  2  0  0  0
 57131  1  0  0  0
 58132  1  0  0  0
 59 60  1  0  0  0
 59 61  1  0  0  0
 59 62  1  0  0  0
 60133  1  0  0  0
 60134  1  0  0  0
 60135  1  0  0  0
 61136  1  0  0  0
 61137  1  0  0  0
 61138  1  0  0  0
 62139  1  0  0  0
 62140  1  0  0  0
 62141  1  0  0  0
 63 65  1  0  0  0
 63142  1  0  0  0
 63143  1  0  0  0
 63144  1  0  0  0
 64145  1  0  0  0
 65146  1  0  0  0
 68 83  1  0  0  0
 71 72  2  0  0  0
 71 74  1  0  0  0
 71147  1  0  0  0
 72 76  1  0  0  0
 72148  1  0  0  0
 73 75  1  0  0  0
 73 76  2  0  0  0
 73149  1  0  0  0
 74 75  2  0  0  0
 74 82  1  0  0  0
 75 85  1  0  0  0
 76 87  1  0  0  0
 77 83  1  0  0  0
 77 84  1  0  0  0
 77 86  2  0  0  0
 78 79  1  0  0  0
 78 80  1  0  0  0
 78150  1  0  0  0
 78151  1  0  0  0
 79 82  1  0  0  0
 79152  1  0  0  0
 79153  1  0  0  0
 80 84  1  0  0  0
 80154  1  0  0  0
 80155  1  0  0  0
 81 82  1  0  0  0
 81 84  1  0  0  0
 81156  1  0  0  0
 81157  1  0  0  0
 82158  1  0  0  0
 83159  1  0  0  0
 83160  1  0  0  0
 85161  1  0  0  0
M  ISO  4   1 100  68 101  83 101  85 100
M  END
> <chiral flag>
0

> <version>
0

> <s_m_source_file>
/data/baiqing/PycharmProjects/Reinvent-master-3.2/result/LINK_invent/BTK/process_docking_weight1_custom_product_contain_oxygen_bond_distance_aromatic_linkinvent_7_9_3/rearranged_h_0160.sdf

> <i_m_source_file_index>
80

> <r_mmod_Potential_Energy-OPLS-2005>
478.309295654297

> <r_mmod_Stretch_Energy-OPLS-2005>
178.761093139648

> <r_mmod_Bend_Energy-OPLS-2005>
241.380508422852

> <r_mmod_Torsional_Energy-OPLS-2005>
345.195129394531

> <r_mmod_Improper_Torsional_Energy-OPLS-2005>
7.53058195114136

> <r_mmod_Van_der_Waal_Energy-OPLS-2005>
153.252059936523

> <r_mmod_Electrostatic_Energy-OPLS-2005>
-316.014801025391

> <r_mmod_Solvation_Energy-OPLS-2005>
-241.999694824219

> <b_mmod_Minimization_Converged-OPLS-2005>
0

> <r_mmod_RMS_Derivative-OPLS-2005>
4.12263584136963

$$$$
81
                    3D
 Structure written by MMmdl.
157165  0  0  1  0            999 V2000
  -30.5947  -14.7098   20.4922 C   0  0  0  0  0  0
  -30.4369  -12.4400   19.4639 C   0  0  0  0  0  0
  -29.5053  -12.4938   18.2333 C   0  0  0  0  0  0
  -28.0343  -12.3075   18.6548 C   0  0  0  0  0  0
  -27.6397  -13.2142   19.8501 C   0  0  2  0  0  0
  -28.6822  -13.1284   20.9851 C   0  0  0  0  0  0
  -25.2499  -13.8169   20.5676 C   0  0  0  0  0  0
  -24.1787  -13.0422   20.9210 C   0  0  0  0  0  0
  -24.6355  -11.6895   20.8750 C   0  0  0  0  0  0
  -23.9034  -10.4287   21.0413 C   0  0  0  0  0  0
  -24.3599   -9.4208   21.9189 C   0  0  0  0  0  0
  -23.6274   -8.2234   22.0752 C   0  0  0  0  0  0
  -22.4252   -8.0267   21.3541 C   0  0  0  0  0  0
  -21.9894   -9.0240   20.4643 C   0  0  0  0  0  0
  -22.7216  -10.2120   20.3057 C   0  0  0  0  0  0
  -21.6838   -6.0715   22.5265 C   0  0  0  0  0  0
  -21.4023   -6.5628   23.8203 C   0  0  0  0  0  0
  -21.3663   -5.6780   24.9174 C   0  0  0  0  0  0
  -21.6043   -4.3040   24.7224 C   0  0  0  0  0  0
  -21.8819   -3.8132   23.4346 C   0  0  0  0  0  0
  -21.9203   -4.6947   22.3405 C   0  0  0  0  0  0
  -22.7815  -13.5219   21.1864 C   0  0  0  0  0  0
  -22.1657   -4.2128   21.0974 F   0  0  0  0  0  0
  -21.5637   -3.4536   25.7747 F   0  0  0  0  0  0
  -29.9842  -13.4841   20.4073 N   0  0  0  0  0  0
  -26.2895  -12.9332   20.3268 N   0  0  0  0  0  0
  -25.9278  -11.6495   20.5755 N   0  0  0  0  0  0
  -22.0470  -12.8208   22.0434 N   0  0  0  0  0  0
  -25.4219  -15.1884   20.4056 N   0  0  0  0  0  0
  -31.7854  -14.8356   20.1918 O   0  0  0  0  0  0
  -21.6625   -6.8852   21.4216 O   0  0  0  0  0  0
  -22.3512  -14.5536   20.6727 O   0  0  0  0  0  0
  -24.6372  -31.8564   23.1995 C   0  0  0  0  0  0
  -25.9180  -32.4736   23.8335 C   0  0  1  0  0  0
  -27.1875  -27.2385   20.1155 C   0  0  0  0  0  0
  -25.5977  -33.8529   24.2256 N   0  0  0  0  0  0
  -23.4323  -30.4855   21.5442 C   0  0  2  0  0  0
  -24.8708  -28.9383   20.1067 C   0  0  0  0  0  0
  -22.7525  -29.4620   22.4872 C   0  0  0  0  0  0
  -18.0295  -28.1402   22.8442 C   0  0  0  0  0  0
  -24.1507  -36.7270   23.2631 C   0  0  0  0  0  0
  -25.9823  -30.7565   21.3897 C   0  0  0  0  0  0
  -26.0476  -29.3813   20.7242 C   0  0  0  0  0  0
  -27.2119  -28.5429   20.7191 C   0  0  0  0  0  0
  -25.9903  -26.8856   19.4509 C   0  0  0  0  0  0
  -24.8459  -27.6969   19.4608 C   0  0  0  0  0  0
  -23.6491  -29.8333   20.1565 C   0  0  0  0  0  0
  -25.4121  -36.3049   24.0329 C   0  0  1  0  0  0
  -20.5901  -28.3719   23.1220 C   0  0  2  0  0  0
  -20.6794  -26.9430   22.5377 C   0  0  0  0  0  0
  -19.5765  -26.6402   21.5178 C   0  0  0  0  0  0
  -18.1945  -26.7947   22.1607 C   0  0  0  0  0  0
  -19.1555  -28.8877   23.2826 C   0  0  0  0  0  0
  -18.9480  -30.1462   23.8864 C   0  0  0  0  0  0
  -17.6483  -30.6582   24.0553 C   0  0  0  0  0  0
  -25.9079  -34.9409   23.5088 C   0  0  0  0  0  0
  -16.5370  -29.9085   23.6341 C   0  0  0  0  0  0
  -16.7285  -28.6516   23.0336 C   0  0  0  0  0  0
  -26.4550  -31.6562   25.0733 C   0  0  0  0  0  0
  -25.3775  -31.3728   26.1462 C   0  0  0  0  0  0
  -27.0395  -30.2961   24.6249 C   0  0  0  0  0  0
  -27.6104  -32.4314   25.7506 C   0  0  0  0  0  0
  -27.5581  -37.1775   24.8456 C   0  0  0  0  0  0
  -21.4226  -29.3067   22.3610 N   0  0  0  0  0  0
  -26.4283  -37.3753   23.9417 N   0  0  0  0  0  0
  -24.7034  -31.0492   22.1003 N   0  0  0  0  0  0
  -23.4200  -28.8126   23.2950 O   0  0  0  0  0  0
  -28.2368  -26.2862   20.1669 O   0  0  0  0  0  0
  -26.5626  -34.8896   22.4642 O   0  0  0  0  0  0
  -23.5502  -32.1387   23.7279 O   0  0  0  0  0  0
  -31.2157  -17.5756   21.6555 C   0  0  0  0  0  0
  -30.7032  -19.9858   21.5149 C   0  0  0  0  0  0
  -29.2806  -18.3597   20.4067 C   0  0  0  0  0  0
  -31.5108  -18.9207   21.9756 C   0  0  0  0  0  0
  -30.0891  -17.2426   20.8729 C   0  0  0  0  0  0
  -29.5828  -19.7563   20.6969 C   0  0  0  0  0  0
  -32.6836  -19.2243   22.7859 C   0  0  0  0  0  0
  -28.8657  -23.6423   20.1768 C   0  0  0  0  0  0
  -28.5860  -22.2169   20.8639 C   0  0  0  0  0  0
  -27.8109  -24.8377   20.3056 C   0  0  0  0  0  0
  -33.8417  -18.6132   22.5525 N   0  0  0  0  0  0
  -29.7727  -15.8132   20.6569 N   0  0  0  0  0  0
  -28.8731  -20.8984   20.1573 N   0  0  0  0  0  0
  -32.6155  -20.1237   23.7646 N   0  3  0  0  0  0
  -29.9005  -23.7990   19.5183 O   0  0  0  0  0  0
  -31.4727  -12.5881   19.1566 H   0  0  0  0  0  0
  -30.3999  -11.4602   19.9409 H   0  0  0  0  0  0
  -29.7890  -11.7237   17.5149 H   0  0  0  0  0  0
  -29.6214  -13.4502   17.7211 H   0  0  0  0  0  0
  -27.9054  -11.2609   18.9324 H   0  0  0  0  0  0
  -27.3689  -12.4796   17.8087 H   0  0  0  0  0  0
  -27.6402  -14.2350   19.4692 H   0  0  0  0  0  0
  -28.7137  -12.1238   21.4081 H   0  0  0  0  0  0
  -28.4143  -13.7924   21.8088 H   0  0  0  0  0  0
  -25.2743   -9.5673   22.4765 H   0  0  0  0  0  0
  -23.9983   -7.4624   22.7471 H   0  0  0  0  0  0
  -21.0829   -8.8755   19.8945 H   0  0  0  0  0  0
  -22.3678  -10.9657   19.6166 H   0  0  0  0  0  0
  -21.2005   -7.6135   23.9695 H   0  0  0  0  0  0
  -21.1486   -6.0519   25.9070 H   0  0  0  0  0  0
  -22.0602   -2.7589   23.2855 H   0  0  0  0  0  0
  -22.4089  -11.9840   22.4777 H   0  0  0  0  0  0
  -21.1089  -13.1222   22.2659 H   0  0  0  0  0  0
  -24.6508  -15.8393   20.5066 H   0  0  0  0  0  0
  -26.2571  -15.6230   20.0345 H   0  0  0  0  0  0
  -26.7237  -32.5365   23.1059 H   0  0  0  0  0  0
  -25.0155  -33.9674   25.0427 H   0  0  0  0  0  0
  -22.7302  -31.3091   21.4034 H   0  0  0  0  0  0
  -23.3755  -35.9620   23.3300 H   0  0  0  0  0  0
  -24.3596  -36.8915   22.2044 H   0  0  0  0  0  0
  -23.7248  -37.6461   23.6669 H   0  0  0  0  0  0
  -26.1346  -31.5187   20.6245 H   0  0  0  0  0  0
  -26.8539  -30.7929   22.0312 H   0  0  0  0  0  0
  -28.1102  -28.8637   21.2258 H   0  0  0  0  0  0
  -25.8820  -25.9644   18.9055 H   0  0  0  0  0  0
  -23.9463  -27.3623   18.9600 H   0  0  0  0  0  0
  -23.7871  -30.6153   19.4087 H   0  0  0  0  0  0
  -22.7637  -29.2789   19.8443 H   0  0  0  0  0  0
  -25.1295  -36.1906   25.0819 H   0  0  0  0  0  0
  -20.9986  -28.3320   24.1340 H   0  0  0  0  0  0
  -20.5710  -26.2323   23.3585 H   0  0  0  0  0  0
  -21.6653  -26.7469   22.1147 H   0  0  0  0  0  0
  -19.6945  -25.6315   21.1203 H   0  0  0  0  0  0
  -19.6715  -27.3219   20.6710 H   0  0  0  0  0  0
  -17.4209  -26.6660   21.4013 H   0  0  0  0  0  0
  -18.0347  -26.0094   22.9017 H   0  0  0  0  0  0
  -19.7968  -30.7238   24.2247 H   0  0  0  0  0  0
  -17.5059  -31.6268   24.5156 H   0  0  0  0  0  0
  -15.5368  -30.2970   23.7695 H   0  0  0  0  0  0
  -15.8696  -28.0821   22.7073 H   0  0  0  0  0  0
  -24.5967  -30.7062   25.7805 H   0  0  0  0  0  0
  -24.8944  -32.2893   26.4854 H   0  0  0  0  0  0
  -25.8092  -30.8924   27.0248 H   0  0  0  0  0  0
  -26.2974  -29.6671   24.1317 H   0  0  0  0  0  0
  -27.4076  -29.7271   25.4792 H   0  0  0  0  0  0
  -27.8885  -30.4201   23.9516 H   0  0  0  0  0  0
  -27.2720  -33.3645   26.2018 H   0  0  0  0  0  0
  -28.3927  -32.6831   25.0335 H   0  0  0  0  0  0
  -28.0752  -31.8465   26.5457 H   0  0  0  0  0  0
  -28.2562  -38.0119   24.7529 H   0  0  0  0  0  0
  -28.1125  -36.2619   24.6253 H   0  0  0  0  0  0
  -27.2297  -37.1394   25.8869 H   0  0  0  0  0  0
  -20.9419  -29.8842   21.6863 H   0  0  0  0  0  0
  -26.0171  -38.2829   24.1454 H   0  0  0  0  0  0
  -31.8524  -16.7912   22.0433 H   0  0  0  0  0  0
  -30.9837  -20.9987   21.7610 H   0  0  0  0  0  0
  -28.4104  -18.1403   19.8053 H   0  0  0  0  0  0
  -27.5223  -22.2045   21.1122 H   0  0  0  0  0  0
  -29.0963  -22.2285   21.8257 H   0  0  0  0  0  0
  -27.2638  -24.7191   21.2411 H   0  0  0  0  0  0
  -27.1079  -24.5839   19.5162 H   0  0  0  0  0  0
  -33.9196  -18.0064   21.7480 H   0  0  0  0  0  0
  -34.6708  -18.7718   23.1066 H   0  0  0  0  0  0
  -28.7898  -15.5903   20.6630 H   0  0  0  0  0  0
  -28.2128  -20.6846   19.4139 H   0  0  0  0  0  0
  -31.7274  -20.5537   23.9749 H   0  0  0  0  0  0
  -33.4204  -20.4059   24.3012 H   0  0  0  0  0  0
  1 25  1  0  0  0
  1 30  2  0  0  0
  1 82  1  0  0  0
  2  3  1  0  0  0
  2 25  1  0  0  0
  2 86  1  0  0  0
  2 87  1  0  0  0
  3  4  1  0  0  0
  3 88  1  0  0  0
  3 89  1  0  0  0
  4  5  1  0  0  0
  4 90  1  0  0  0
  4 91  1  0  0  0
  5  6  1  0  0  0
  5 26  1  0  0  0
  5 92  1  0  0  0
  6 25  1  0  0  0
  6 93  1  0  0  0
  6 94  1  0  0  0
  7  8  2  0  0  0
  7 26  1  0  0  0
  7 29  1  0  0  0
  8  9  1  0  0  0
  8 22  1  0  0  0
  9 10  1  0  0  0
  9 27  2  0  0  0
 10 11  2  0  0  0
 10 15  1  0  0  0
 11 12  1  0  0  0
 11 95  1  0  0  0
 12 13  2  0  0  0
 12 96  1  0  0  0
 13 14  1  0  0  0
 13 31  1  0  0  0
 14 15  2  0  0  0
 14 97  1  0  0  0
 15 98  1  0  0  0
 16 17  2  0  0  0
 16 21  1  0  0  0
 16 31  1  0  0  0
 17 18  1  0  0  0
 17 99  1  0  0  0
 18 19  2  0  0  0
 18100  1  0  0  0
 19 20  1  0  0  0
 19 24  1  0  0  0
 20 21  2  0  0  0
 20101  1  0  0  0
 21 23  1  0  0  0
 22 28  1  0  0  0
 22 32  2  0  0  0
 26 27  1  0  0  0
 28102  1  0  0  0
 28103  1  0  0  0
 29104  1  0  0  0
 29105  1  0  0  0
 33 34  1  0  0  0
 33 66  1  0  0  0
 33 70  2  0  0  0
 34 36  1  0  0  0
 34 59  1  0  0  0
 34106  1  0  0  0
 35 44  2  0  0  0
 35 45  1  0  0  0
 35 68  1  0  0  0
 36 56  1  0  0  0
 36107  1  0  0  0
 37 39  1  0  0  0
 37 47  1  0  0  0
 37 66  1  0  0  0
 37108  1  0  0  0
 38 43  2  0  0  0
 38 46  1  0  0  0
 38 47  1  0  0  0
 39 64  1  0  0  0
 39 67  2  0  0  0
 40 52  1  0  0  0
 40 53  2  0  0  0
 40 58  1  0  0  0
 41109  1  0  0  0
 41110  1  0  0  0
 41111  1  0  0  0
 41 48  1  0  0  0
 42 43  1  0  0  0
 42 66  1  0  0  0
 42112  1  0  0  0
 42113  1  0  0  0
 43 44  1  0  0  0
 44114  1  0  0  0
 45 46  2  0  0  0
 45115  1  0  0  0
 46116  1  0  0  0
 47117  1  0  0  0
 47118  1  0  0  0
 48 56  1  0  0  0
 48 65  1  0  0  0
 48119  1  0  0  0
 49 50  1  0  0  0
 49 53  1  0  0  0
 49 64  1  0  0  0
 49120  1  0  0  0
 50 51  1  0  0  0
 50121  1  0  0  0
 50122  1  0  0  0
 51 52  1  0  0  0
 51123  1  0  0  0
 51124  1  0  0  0
 52125  1  0  0  0
 52126  1  0  0  0
 53 54  1  0  0  0
 54 55  2  0  0  0
 54127  1  0  0  0
 55 57  1  0  0  0
 55128  1  0  0  0
 56 69  2  0  0  0
 57 58  2  0  0  0
 57129  1  0  0  0
 58130  1  0  0  0
 59 60  1  0  0  0
 59 61  1  0  0  0
 59 62  1  0  0  0
 60131  1  0  0  0
 60132  1  0  0  0
 60133  1  0  0  0
 61134  1  0  0  0
 61135  1  0  0  0
 61136  1  0  0  0
 62137  1  0  0  0
 62138  1  0  0  0
 62139  1  0  0  0
 63 65  1  0  0  0
 63140  1  0  0  0
 63141  1  0  0  0
 63142  1  0  0  0
 64143  1  0  0  0
 65144  1  0  0  0
 68 80  1  0  0  0
 71 74  2  0  0  0
 71 75  1  0  0  0
 71145  1  0  0  0
 72 74  1  0  0  0
 72 76  2  0  0  0
 72146  1  0  0  0
 73 75  2  0  0  0
 73 76  1  0  0  0
 73147  1  0  0  0
 74 77  1  0  0  0
 75 82  1  0  0  0
 76 83  1  0  0  0
 77 81  1  0  0  0
 77 84  2  0  0  0
 78 79  1  0  0  0
 78 80  1  0  0  0
 78 85  2  0  0  0
 79 83  1  0  0  0
 79148  1  0  0  0
 79149  1  0  0  0
 80150  1  0  0  0
 80151  1  0  0  0
 81152  1  0  0  0
 81153  1  0  0  0
 82154  1  0  0  0
 83155  1  0  0  0
 84156  1  0  0  0
 84157  1  0  0  0
M  CHG  1  84   1
M  ISO  4   1 100  68 101  80 101  82 100
M  END
> <chiral flag>
0

> <version>
0

> <s_m_source_file>
/data/baiqing/PycharmProjects/Reinvent-master-3.2/result/LINK_invent/BTK/process_docking_weight1_custom_product_contain_oxygen_bond_distance_aromatic_linkinvent_7_9_3/rearranged_h_0160.sdf

> <i_m_source_file_index>
81

> <r_mmod_Potential_Energy-OPLS-2005>
-101.299697875977

> <r_mmod_Stretch_Energy-OPLS-2005>
118.402206420898

> <r_mmod_Bend_Energy-OPLS-2005>
166.468872070312

> <r_mmod_Torsional_Energy-OPLS-2005>
232.184707641602

> <r_mmod_Improper_Torsional_Energy-OPLS-2005>
8.24043369293213

> <r_mmod_Van_der_Waal_Energy-OPLS-2005>
145.930038452148

> <r_mmod_Electrostatic_Energy-OPLS-2005>
-386.724151611328

> <r_mmod_Solvation_Energy-OPLS-2005>
-477.603698730469

> <b_mmod_Minimization_Converged-OPLS-2005>
0

> <r_mmod_RMS_Derivative-OPLS-2005>
3.99239087104797

$$$$
82
                    3D
 Structure written by MMmdl.
155164  0  0  1  0            999 V2000
  -30.6084  -14.6213   20.5461 C   0  0  0  0  0  0
  -30.4556  -12.3999   19.4420 C   0  0  0  0  0  0
  -29.5199  -12.5470   18.2203 C   0  0  0  0  0  0
  -28.0401  -12.3807   18.6264 C   0  0  0  0  0  0
  -27.6633  -13.2179   19.8773 C   0  0  2  0  0  0
  -28.7071  -13.0179   21.0015 C   0  0  0  0  0  0
  -25.2582  -13.8165   20.5715 C   0  0  0  0  0  0
  -24.1828  -13.0436   20.9159 C   0  0  0  0  0  0
  -24.6384  -11.6905   20.8699 C   0  0  0  0  0  0
  -23.9064  -10.4284   21.0386 C   0  0  0  0  0  0
  -24.3599   -9.4207   21.9177 C   0  0  0  0  0  0
  -23.6266   -8.2256   22.0749 C   0  0  0  0  0  0
  -22.4238   -8.0297   21.3575 C   0  0  0  0  0  0
  -21.9887   -9.0270   20.4677 C   0  0  0  0  0  0
  -22.7241  -10.2131   20.3045 C   0  0  0  0  0  0
  -21.6856   -6.0718   22.5272 C   0  0  0  0  0  0
  -21.4026   -6.5594   23.8213 C   0  0  0  0  0  0
  -21.3662   -5.6753   24.9175 C   0  0  0  0  0  0
  -21.6039   -4.3020   24.7219 C   0  0  0  0  0  0
  -21.8822   -3.8122   23.4333 C   0  0  0  0  0  0
  -21.9192   -4.6943   22.3394 C   0  0  0  0  0  0
  -22.7851  -13.5248   21.1847 C   0  0  0  0  0  0
  -22.1665   -4.2128   21.0970 F   0  0  0  0  0  0
  -21.5637   -3.4505   25.7732 F   0  0  0  0  0  0
  -30.0274  -13.3813   20.4547 N   0  0  0  0  0  0
  -26.3037  -12.9358   20.3368 N   0  0  0  0  0  0
  -25.9321  -11.6498   20.5688 N   0  0  0  0  0  0
  -22.0451  -12.8267   22.0401 N   0  0  0  0  0  0
  -25.4316  -15.1904   20.4259 N   0  0  0  0  0  0
  -31.7410  -14.8395   20.0999 O   0  0  0  0  0  0
  -21.6637   -6.8873   21.4247 O   0  0  0  0  0  0
  -22.3565  -14.5585   20.6732 O   0  0  0  0  0  0
  -24.6238  -31.8594   23.2052 C   0  0  0  0  0  0
  -25.9083  -32.4794   23.8364 C   0  0  1  0  0  0
  -27.2397  -27.3536   20.1106 C   0  0  0  0  0  0
  -25.5884  -33.8594   24.2286 N   0  0  0  0  0  0
  -23.4182  -30.4787   21.5495 C   0  0  2  0  0  0
  -24.8686  -28.9320   20.1183 C   0  0  0  0  0  0
  -22.7461  -29.4596   22.4981 C   0  0  0  0  0  0
  -18.0261  -28.1372   22.8486 C   0  0  0  0  0  0
  -24.1470  -36.7294   23.2633 C   0  0  0  0  0  0
  -25.9553  -30.7984   21.3729 C   0  0  0  0  0  0
  -26.0338  -29.4256   20.7204 C   0  0  0  0  0  0
  -27.2259  -28.6462   20.7097 C   0  0  0  0  0  0
  -26.0545  -26.8922   19.5043 C   0  0  0  0  0  0
  -24.8769  -27.6666   19.5059 C   0  0  0  0  0  0
  -23.6347  -29.8109   20.1656 C   0  0  0  0  0  0
  -25.4100  -36.3099   24.0335 C   0  0  1  0  0  0
  -20.5858  -28.3675   23.1310 C   0  0  2  0  0  0
  -20.6760  -26.9406   22.5423 C   0  0  0  0  0  0
  -19.5742  -26.6386   21.5210 C   0  0  0  0  0  0
  -18.1910  -26.7927   22.1610 C   0  0  0  0  0  0
  -19.1515  -28.8839   23.2886 C   0  0  0  0  0  0
  -18.9450  -30.1436   23.8923 C   0  0  0  0  0  0
  -17.6449  -30.6597   24.0572 C   0  0  0  0  0  0
  -25.9036  -34.9473   23.5121 C   0  0  0  0  0  0
  -16.5333  -29.9104   23.6333 C   0  0  0  0  0  0
  -16.7242  -28.6508   23.0365 C   0  0  0  0  0  0
  -26.4469  -31.6600   25.0731 C   0  0  0  0  0  0
  -25.3700  -31.3721   26.1453 C   0  0  0  0  0  0
  -27.0286  -30.3023   24.6146 C   0  0  0  0  0  0
  -27.6053  -32.4309   25.7484 C   0  0  0  0  0  0
  -27.5591  -37.1775   24.8446 C   0  0  0  0  0  0
  -21.4173  -29.3021   22.3727 N   0  0  0  0  0  0
  -26.4268  -37.3811   23.9435 N   0  0  0  0  0  0
  -24.6843  -31.0607   22.1011 N   0  0  0  0  0  0
  -23.4180  -28.8120   23.3059 O   0  0  0  0  0  0
  -28.3625  -26.5300   20.0638 O   0  0  0  0  0  0
  -26.5648  -34.8953   22.4709 O   0  0  0  0  0  0
  -23.5406  -32.1392   23.7384 O   0  0  0  0  0  0
  -30.5113  -18.0759   20.8338 C   0  0  0  0  0  0
  -29.7247  -19.2112   20.6643 C   0  0  0  0  0  0
  -29.5878  -16.9759   20.7795 C   0  0  0  0  0  0
  -28.6709  -23.9856   20.6405 C   0  0  0  0  0  0
  -29.6889  -23.1360   20.9462 C   0  0  0  0  0  0
  -30.2278  -20.6565   20.7475 C   0  0  0  0  0  0
  -27.5545  -23.2057   19.9949 C   0  0  0  0  0  0
  -28.0203  -21.7259   20.1027 C   0  0  0  0  0  0
  -30.9562  -23.5075   21.7193 C   0  0  0  0  0  0
  -28.4424  -25.4798   21.0763 C   0  0  0  0  0  0
  -28.3533  -17.4253   20.5755 N   0  0  0  0  0  0
  -29.3956  -21.7645   20.6272 N   0  0  0  0  0  0
  -29.8080  -15.5787   21.0896 N   0  0  0  0  0  0
  -31.4409  -20.7820   20.9634 O   0  0  0  0  0  0
  -28.4277  -18.8300   20.4863 O   0  0  0  0  0  0
  -31.4994  -12.5350   19.1508 H   0  0  0  0  0  0
  -30.3958  -11.3909   19.8483 H   0  0  0  0  0  0
  -29.7845  -11.8211   17.4529 H   0  0  0  0  0  0
  -29.6665  -13.5313   17.7683 H   0  0  0  0  0  0
  -27.8700  -11.3226   18.8288 H   0  0  0  0  0  0
  -27.3906  -12.6430   17.7901 H   0  0  0  0  0  0
  -27.6957  -14.2648   19.5689 H   0  0  0  0  0  0
  -28.7143  -11.9752   21.3252 H   0  0  0  0  0  0
  -28.4447  -13.5907   21.8919 H   0  0  0  0  0  0
  -25.2728   -9.5677   22.4781 H   0  0  0  0  0  0
  -23.9981   -7.4621   22.7438 H   0  0  0  0  0  0
  -21.0827   -8.8801   19.8971 H   0  0  0  0  0  0
  -22.3717  -10.9661   19.6146 H   0  0  0  0  0  0
  -21.2026   -7.6105   23.9699 H   0  0  0  0  0  0
  -21.1494   -6.0490   25.9072 H   0  0  0  0  0  0
  -22.0603   -2.7595   23.2839 H   0  0  0  0  0  0
  -22.3966  -11.9899   22.4800 H   0  0  0  0  0  0
  -21.1102  -13.1402   22.2609 H   0  0  0  0  0  0
  -24.6746  -15.8503   20.5667 H   0  0  0  0  0  0
  -26.3057  -15.6490   20.1949 H   0  0  0  0  0  0
  -26.7153  -32.5484   23.1119 H   0  0  0  0  0  0
  -24.9985  -33.9735   25.0394 H   0  0  0  0  0  0
  -22.7106  -31.2990   21.4070 H   0  0  0  0  0  0
  -23.3779  -35.9569   23.3238 H   0  0  0  0  0  0
  -24.3577  -36.8987   22.2060 H   0  0  0  0  0  0
  -23.7176  -37.6456   23.6705 H   0  0  0  0  0  0
  -26.0773  -31.5613   20.6028 H   0  0  0  0  0  0
  -26.8405  -30.8547   21.9953 H   0  0  0  0  0  0
  -28.1276  -29.0244   21.1705 H   0  0  0  0  0  0
  -26.0431  -25.9182   19.0347 H   0  0  0  0  0  0
  -23.9821  -27.2776   19.0381 H   0  0  0  0  0  0
  -23.7608  -30.5884   19.4117 H   0  0  0  0  0  0
  -22.7551  -29.2419   19.8615 H   0  0  0  0  0  0
  -25.1264  -36.1946   25.0826 H   0  0  0  0  0  0
  -20.9916  -28.3247   24.1443 H   0  0  0  0  0  0
  -20.5658  -26.2279   23.3607 H   0  0  0  0  0  0
  -21.6642  -26.7450   22.1232 H   0  0  0  0  0  0
  -19.6918  -25.6294   21.1258 H   0  0  0  0  0  0
  -19.6691  -27.3191   20.6735 H   0  0  0  0  0  0
  -17.4182  -26.6669   21.4000 H   0  0  0  0  0  0
  -18.0304  -26.0053   22.8993 H   0  0  0  0  0  0
  -19.7918  -30.7230   24.2326 H   0  0  0  0  0  0
  -17.5015  -31.6276   24.5151 H   0  0  0  0  0  0
  -15.5346  -30.3024   23.7624 H   0  0  0  0  0  0
  -15.8640  -28.0828   22.7114 H   0  0  0  0  0  0
  -24.5835  -30.7125   25.7763 H   0  0  0  0  0  0
  -24.8921  -32.2882   26.4936 H   0  0  0  0  0  0
  -25.8002  -30.8828   27.0200 H   0  0  0  0  0  0
  -26.2826  -29.6801   24.1180 H   0  0  0  0  0  0
  -27.4006  -29.7251   25.4625 H   0  0  0  0  0  0
  -27.8701  -30.4310   23.9332 H   0  0  0  0  0  0
  -27.2688  -33.3605   26.2082 H   0  0  0  0  0  0
  -28.3836  -32.6869   25.0286 H   0  0  0  0  0  0
  -28.0746  -31.8418   26.5371 H   0  0  0  0  0  0
  -28.2541  -38.0139   24.7639 H   0  0  0  0  0  0
  -28.1152  -36.2694   24.6070 H   0  0  0  0  0  0
  -27.2344  -37.1211   25.8850 H   0  0  0  0  0  0
  -20.9358  -29.8727   21.6923 H   0  0  0  0  0  0
  -26.0152  -38.2864   24.1534 H   0  0  0  0  0  0
  -31.5740  -18.0531   21.0269 H   0  0  0  0  0  0
  -27.4293  -23.5180   18.9578 H   0  0  0  0  0  0
  -26.6107  -23.3648   20.5173 H   0  0  0  0  0  0
  -27.9706  -21.2227   19.1358 H   0  0  0  0  0  0
  -27.3773  -21.1881   20.8011 H   0  0  0  0  0  0
  -30.8463  -24.4381   22.2732 H   0  0  0  0  0  0
  -31.7972  -23.6261   21.0318 H   0  0  0  0  0  0
  -31.2220  -22.7568   22.4633 H   0  0  0  0  0  0
  -29.2399  -25.7871   21.7477 H   0  0  0  0  0  0
  -27.5419  -25.4926   21.6937 H   0  0  0  0  0  0
  -28.9810  -15.1434   21.4646 H   0  0  0  0  0  0
  1 25  1  0  0  0
  1 30  2  0  0  0
  1 83  1  0  0  0
  2  3  1  0  0  0
  2 25  1  0  0  0
  2 86  1  0  0  0
  2 87  1  0  0  0
  3  4  1  0  0  0
  3 88  1  0  0  0
  3 89  1  0  0  0
  4  5  1  0  0  0
  4 90  1  0  0  0
  4 91  1  0  0  0
  5  6  1  0  0  0
  5 26  1  0  0  0
  5 92  1  0  0  0
  6 25  1  0  0  0
  6 93  1  0  0  0
  6 94  1  0  0  0
  7  8  2  0  0  0
  7 26  1  0  0  0
  7 29  1  0  0  0
  8  9  1  0  0  0
  8 22  1  0  0  0
  9 10  1  0  0  0
  9 27  2  0  0  0
 10 11  2  0  0  0
 10 15  1  0  0  0
 11 12  1  0  0  0
 11 95  1  0  0  0
 12 13  2  0  0  0
 12 96  1  0  0  0
 13 14  1  0  0  0
 13 31  1  0  0  0
 14 15  2  0  0  0
 14 97  1  0  0  0
 15 98  1  0  0  0
 16 17  2  0  0  0
 16 21  1  0  0  0
 16 31  1  0  0  0
 17 18  1  0  0  0
 17 99  1  0  0  0
 18 19  2  0  0  0
 18100  1  0  0  0
 19 20  1  0  0  0
 19 24  1  0  0  0
 20 21  2  0  0  0
 20101  1  0  0  0
 21 23  1  0  0  0
 22 28  1  0  0  0
 22 32  2  0  0  0
 26 27  1  0  0  0
 28102  1  0  0  0
 28103  1  0  0  0
 29104  1  0  0  0
 29105  1  0  0  0
 33 34  1  0  0  0
 33 66  1  0  0  0
 33 70  2  0  0  0
 34 36  1  0  0  0
 34 59  1  0  0  0
 34106  1  0  0  0
 35 44  2  0  0  0
 35 45  1  0  0  0
 35 68  1  0  0  0
 36 56  1  0  0  0
 36107  1  0  0  0
 37 39  1  0  0  0
 37 47  1  0  0  0
 37 66  1  0  0  0
 37108  1  0  0  0
 38 43  2  0  0  0
 38 46  1  0  0  0
 38 47  1  0  0  0
 39 64  1  0  0  0
 39 67  2  0  0  0
 40 52  1  0  0  0
 40 53  2  0  0  0
 40 58  1  0  0  0
 41109  1  0  0  0
 41110  1  0  0  0
 41111  1  0  0  0
 41 48  1  0  0  0
 42 43  1  0  0  0
 42 66  1  0  0  0
 42112  1  0  0  0
 42113  1  0  0  0
 43 44  1  0  0  0
 44114  1  0  0  0
 45 46  2  0  0  0
 45115  1  0  0  0
 46116  1  0  0  0
 47117  1  0  0  0
 47118  1  0  0  0
 48 56  1  0  0  0
 48 65  1  0  0  0
 48119  1  0  0  0
 49 50  1  0  0  0
 49 53  1  0  0  0
 49 64  1  0  0  0
 49120  1  0  0  0
 50 51  1  0  0  0
 50121  1  0  0  0
 50122  1  0  0  0
 51 52  1  0  0  0
 51123  1  0  0  0
 51124  1  0  0  0
 52125  1  0  0  0
 52126  1  0  0  0
 53 54  1  0  0  0
 54 55  2  0  0  0
 54127  1  0  0  0
 55 57  1  0  0  0
 55128  1  0  0  0
 56 69  2  0  0  0
 57 58  2  0  0  0
 57129  1  0  0  0
 58130  1  0  0  0
 59 60  1  0  0  0
 59 61  1  0  0  0
 59 62  1  0  0  0
 60131  1  0  0  0
 60132  1  0  0  0
 60133  1  0  0  0
 61134  1  0  0  0
 61135  1  0  0  0
 61136  1  0  0  0
 62137  1  0  0  0
 62138  1  0  0  0
 62139  1  0  0  0
 63 65  1  0  0  0
 63140  1  0  0  0
 63141  1  0  0  0
 63142  1  0  0  0
 64143  1  0  0  0
 65144  1  0  0  0
 68 80  1  0  0  0
 71 72  2  0  0  0
 71 73  1  0  0  0
 71145  1  0  0  0
 72 76  1  0  0  0
 72 85  1  0  0  0
 73 81  2  0  0  0
 73 83  1  0  0  0
 74 75  2  0  0  0
 74 77  1  0  0  0
 74 80  1  0  0  0
 75 79  1  0  0  0
 75 82  1  0  0  0
 76 82  1  0  0  0
 76 84  2  0  0  0
 77 78  1  0  0  0
 77146  1  0  0  0
 77147  1  0  0  0
 78 82  1  0  0  0
 78148  1  0  0  0
 78149  1  0  0  0
 79150  1  0  0  0
 79151  1  0  0  0
 79152  1  0  0  0
 80153  1  0  0  0
 80154  1  0  0  0
 81 85  1  0  0  0
 83155  1  0  0  0
M  ISO  4   1 100  68 101  80 101  83 100
M  END
> <chiral flag>
0

> <version>
0

> <s_m_source_file>
/data/baiqing/PycharmProjects/Reinvent-master-3.2/result/LINK_invent/BTK/process_docking_weight1_custom_product_contain_oxygen_bond_distance_aromatic_linkinvent_7_9_3/rearranged_h_0160.sdf

> <i_m_source_file_index>
82

> <r_mmod_Potential_Energy-OPLS-2005>
165.063186645508

> <r_mmod_Stretch_Energy-OPLS-2005>
71.4941253662109

> <r_mmod_Bend_Energy-OPLS-2005>
199.702529907227

> <r_mmod_Torsional_Energy-OPLS-2005>
277.350036621094

> <r_mmod_Improper_Torsional_Energy-OPLS-2005>
6.4485878944397

> <r_mmod_Van_der_Waal_Energy-OPLS-2005>
121.620681762695

> <r_mmod_Electrostatic_Energy-OPLS-2005>
-333.785461425781

> <r_mmod_Solvation_Energy-OPLS-2005>
-215.422561645508

> <b_mmod_Minimization_Converged-OPLS-2005>
0

> <r_mmod_RMS_Derivative-OPLS-2005>
3.51816177368164

$$$$
83
                    3D
 Structure written by MMmdl.
159167  0  0  1  0            999 V2000
  -30.6535  -14.5715   20.5112 C   0  0  0  0  0  0
  -30.4176  -12.3625   19.4091 C   0  0  0  0  0  0
  -29.4810  -12.4951   18.1884 C   0  0  0  0  0  0
  -28.0116  -12.3359   18.6221 C   0  0  0  0  0  0
  -27.6485  -13.2100   19.8509 C   0  0  2  0  0  0
  -28.6939  -13.0522   20.9760 C   0  0  0  0  0  0
  -25.2544  -13.8185   20.5670 C   0  0  0  0  0  0
  -24.1804  -13.0440   20.9188 C   0  0  0  0  0  0
  -24.6383  -11.6913   20.8780 C   0  0  0  0  0  0
  -23.9059  -10.4299   21.0437 C   0  0  0  0  0  0
  -24.3626   -9.4212   21.9189 C   0  0  0  0  0  0
  -23.6302   -8.2262   22.0755 C   0  0  0  0  0  0
  -22.4283   -8.0306   21.3563 C   0  0  0  0  0  0
  -21.9921   -9.0268   20.4655 C   0  0  0  0  0  0
  -22.7245  -10.2153   20.3045 C   0  0  0  0  0  0
  -21.6856   -6.0748   22.5285 C   0  0  0  0  0  0
  -21.4020   -6.5634   23.8223 C   0  0  0  0  0  0
  -21.3650   -5.6783   24.9171 C   0  0  0  0  0  0
  -21.6041   -4.3049   24.7226 C   0  0  0  0  0  0
  -21.8814   -3.8153   23.4345 C   0  0  0  0  0  0
  -21.9209   -4.6976   22.3416 C   0  0  0  0  0  0
  -22.7833  -13.5244   21.1862 C   0  0  0  0  0  0
  -22.1669   -4.2160   21.0988 F   0  0  0  0  0  0
  -21.5632   -3.4525   25.7747 F   0  0  0  0  0  0
  -30.0050  -13.3760   20.3999 N   0  0  0  0  0  0
  -26.2969  -12.9354   20.3269 N   0  0  0  0  0  0
  -25.9281  -11.6509   20.5749 N   0  0  0  0  0  0
  -22.0509  -12.8223   22.0421 N   0  0  0  0  0  0
  -25.4276  -15.1909   20.4120 N   0  0  0  0  0  0
  -31.8057  -14.7190   20.0917 O   0  0  0  0  0  0
  -21.6641   -6.8896   21.4248 O   0  0  0  0  0  0
  -22.3535  -14.5552   20.6720 O   0  0  0  0  0  0
  -24.6151  -31.8661   23.2061 C   0  0  0  0  0  0
  -25.9016  -32.4827   23.8353 C   0  0  1  0  0  0
  -27.2471  -27.3897   20.1029 C   0  0  0  0  0  0
  -25.5900  -33.8642   24.2302 N   0  0  0  0  0  0
  -23.4061  -30.4846   21.5497 C   0  0  2  0  0  0
  -24.8533  -28.9345   20.1192 C   0  0  0  0  0  0
  -22.7394  -29.4628   22.5029 C   0  0  0  0  0  0
  -18.0249  -28.1234   22.8486 C   0  0  0  0  0  0
  -24.1489  -36.7325   23.2632 C   0  0  0  0  0  0
  -25.9360  -30.8135   21.3634 C   0  0  0  0  0  0
  -26.0152  -29.4448   20.7130 C   0  0  0  0  0  0
  -27.2063  -28.6800   20.6964 C   0  0  0  0  0  0
  -26.0577  -26.8991   19.5148 C   0  0  0  0  0  0
  -24.8717  -27.6647   19.5190 C   0  0  0  0  0  0
  -23.6163  -29.8054   20.1692 C   0  0  0  0  0  0
  -25.4101  -36.3145   24.0319 C   0  0  1  0  0  0
  -20.5856  -28.3556   23.1284 C   0  0  2  0  0  0
  -20.6841  -26.9355   22.5185 C   0  0  0  0  0  0
  -19.5670  -26.6188   21.5194 C   0  0  0  0  0  0
  -18.1904  -26.7749   22.1718 C   0  0  0  0  0  0
  -19.1499  -28.8687   23.2869 C   0  0  0  0  0  0
  -18.9451  -30.1310   23.8831 C   0  0  0  0  0  0
  -17.6444  -30.6460   24.0520 C   0  0  0  0  0  0
  -25.9019  -34.9498   23.5102 C   0  0  0  0  0  0
  -16.5334  -29.8983   23.6251 C   0  0  0  0  0  0
  -16.7262  -28.6391   23.0247 C   0  0  0  0  0  0
  -26.4438  -31.6624   25.0702 C   0  0  0  0  0  0
  -25.3706  -31.3720   26.1456 C   0  0  0  0  0  0
  -27.0299  -30.3068   24.6123 C   0  0  0  0  0  0
  -27.6015  -32.4352   25.7480 C   0  0  0  0  0  0
  -27.5584  -37.1829   24.8461 C   0  0  0  0  0  0
  -21.4101  -29.3138   22.3852 N   0  0  0  0  0  0
  -26.4316  -37.3799   23.9399 N   0  0  0  0  0  0
  -24.6701  -31.0672   22.0989 N   0  0  0  0  0  0
  -23.4162  -28.8057   23.2966 O   0  0  0  0  0  0
  -28.4389  -26.6787   20.1436 O   0  0  0  0  0  0
  -26.5607  -34.8929   22.4675 O   0  0  0  0  0  0
  -23.5341  -32.1438   23.7429 O   0  0  0  0  0  0
  -29.3890  -19.4334   21.6428 C   0  0  0  0  0  0
  -28.7620  -20.3344   20.6882 C   0  0  0  0  0  0
  -29.7129  -18.2615   20.9612 C   0  0  0  0  0  0
  -28.8007  -19.6517   19.5008 C   0  0  0  0  0  0
  -29.6954  -19.5870   23.1071 C   0  0  0  0  0  0
  -28.2831  -24.1935   20.5686 C   0  0  0  0  0  0
  -28.3157  -19.9926   18.1221 C   0  0  0  0  0  0
  -29.3820  -20.8862   23.8269 C   0  0  0  0  0  0
  -28.0836  -21.7177   20.8913 C   0  0  0  0  0  0
  -30.5025  -16.9748   21.2974 C   0  0  0  0  0  0
  -28.5899  -25.3482   19.5732 C   0  0  0  0  0  0
  -28.6407  -22.9226   20.2417 N   0  0  0  0  0  0
  -29.9365  -15.6311   20.9686 N   0  0  0  0  0  0
  -30.2079  -18.6970   23.7863 O   0  0  0  0  0  0
  -27.6814  -24.4381   21.6182 O   0  0  0  0  0  0
  -29.3544  -18.4076   19.6538 O   0  0  0  0  0  0
  -31.4589  -12.4655   19.0964 H   0  0  0  0  0  0
  -30.3428  -11.3635   19.8378 H   0  0  0  0  0  0
  -29.7188  -11.7428   17.4337 H   0  0  0  0  0  0
  -29.6206  -13.4626   17.7064 H   0  0  0  0  0  0
  -27.8527  -11.2816   18.8632 H   0  0  0  0  0  0
  -27.3410  -12.5562   17.7935 H   0  0  0  0  0  0
  -27.6733  -14.2473   19.5100 H   0  0  0  0  0  0
  -28.6935  -12.0294   21.3556 H   0  0  0  0  0  0
  -28.4525  -13.6916   21.8250 H   0  0  0  0  0  0
  -25.2796   -9.5688   22.4733 H   0  0  0  0  0  0
  -24.0030   -7.4638   22.7465 H   0  0  0  0  0  0
  -21.0853   -8.8788   19.8955 H   0  0  0  0  0  0
  -22.3735  -10.9677   19.6140 H   0  0  0  0  0  0
  -21.1999   -7.6141   23.9729 H   0  0  0  0  0  0
  -21.1463   -6.0509   25.9075 H   0  0  0  0  0  0
  -22.0612   -2.7612   23.2848 H   0  0  0  0  0  0
  -22.4132  -11.9858   22.4725 H   0  0  0  0  0  0
  -21.1127  -13.1251   22.2688 H   0  0  0  0  0  0
  -24.6623  -15.8473   20.5138 H   0  0  0  0  0  0
  -26.2815  -15.6328   20.0930 H   0  0  0  0  0  0
  -26.7079  -32.5479   23.1107 H   0  0  0  0  0  0
  -25.0090  -33.9826   25.0475 H   0  0  0  0  0  0
  -22.6938  -31.3020   21.4094 H   0  0  0  0  0  0
  -23.3770  -35.9661   23.3330 H   0  0  0  0  0  0
  -24.3555  -36.8908   22.2050 H   0  0  0  0  0  0
  -23.7254  -37.6521   23.6633 H   0  0  0  0  0  0
  -26.0399  -31.5728   20.5891 H   0  0  0  0  0  0
  -26.8256  -30.8771   21.9778 H   0  0  0  0  0  0
  -28.1035  -29.0732   21.1501 H   0  0  0  0  0  0
  -26.0137  -25.9213   19.0592 H   0  0  0  0  0  0
  -23.9789  -27.2587   19.0667 H   0  0  0  0  0  0
  -23.7251  -30.5765   19.4073 H   0  0  0  0  0  0
  -22.7394  -29.2277   19.8738 H   0  0  0  0  0  0
  -25.1306  -36.2012   25.0821 H   0  0  0  0  0  0
  -20.9934  -28.2989   24.1418 H   0  0  0  0  0  0
  -20.6115  -26.2142   23.3346 H   0  0  0  0  0  0
  -21.6638  -26.7618   22.0698 H   0  0  0  0  0  0
  -19.6862  -25.6041   21.1365 H   0  0  0  0  0  0
  -19.6431  -27.2879   20.6614 H   0  0  0  0  0  0
  -17.4137  -26.6429   21.4170 H   0  0  0  0  0  0
  -18.0351  -25.9912   22.9149 H   0  0  0  0  0  0
  -19.7946  -30.7134   24.2140 H   0  0  0  0  0  0
  -17.4958  -31.6149   24.5074 H   0  0  0  0  0  0
  -15.5299  -30.2834   23.7547 H   0  0  0  0  0  0
  -15.8629  -28.0749   22.6960 H   0  0  0  0  0  0
  -24.5846  -30.7127   25.7746 H   0  0  0  0  0  0
  -24.8925  -32.2881   26.4950 H   0  0  0  0  0  0
  -25.8035  -30.8811   27.0190 H   0  0  0  0  0  0
  -26.2887  -29.6815   24.1148 H   0  0  0  0  0  0
  -27.4027  -29.7306   25.4598 H   0  0  0  0  0  0
  -27.8704  -30.4368   23.9311 H   0  0  0  0  0  0
  -27.2641  -33.3626   26.2116 H   0  0  0  0  0  0
  -28.3799  -32.6969   25.0307 H   0  0  0  0  0  0
  -28.0731  -31.8456   26.5356 H   0  0  0  0  0  0
  -28.2621  -38.0106   24.7493 H   0  0  0  0  0  0
  -28.1083  -36.2644   24.6351 H   0  0  0  0  0  0
  -27.2291  -37.1525   25.8860 H   0  0  0  0  0  0
  -20.9209  -29.9126   21.7384 H   0  0  0  0  0  0
  -26.0217  -38.2884   24.1408 H   0  0  0  0  0  0
  -28.7532  -19.3433   17.3572 H   0  0  0  0  0  0
  -28.5722  -21.0248   17.8688 H   0  0  0  0  0  0
  -27.2269  -19.8936   18.0598 H   0  0  0  0  0  0
  -29.5289  -20.7194   24.8955 H   0  0  0  0  0  0
  -28.3423  -21.1721   23.7084 H   0  0  0  0  0  0
  -30.0539  -21.6842   23.5029 H   0  0  0  0  0  0
  -27.9176  -21.9185   21.9399 H   0  0  0  0  0  0
  -27.0749  -21.6252   20.4862 H   0  0  0  0  0  0
  -30.7567  -16.9290   22.3507 H   0  0  0  0  0  0
  -31.4876  -17.0860   20.8467 H   0  0  0  0  0  0
  -28.0240  -25.2146   18.6520 H   0  0  0  0  0  0
  -29.6375  -25.2547   19.2865 H   0  0  0  0  0  0
  -29.1932  -22.7918   19.4030 H   0  0  0  0  0  0
  -28.9877  -15.4374   21.2547 H   0  0  0  0  0  0
  1 25  1  0  0  0
  1 30  2  0  0  0
  1 83  1  0  0  0
  2  3  1  0  0  0
  2 25  1  0  0  0
  2 87  1  0  0  0
  2 88  1  0  0  0
  3  4  1  0  0  0
  3 89  1  0  0  0
  3 90  1  0  0  0
  4  5  1  0  0  0
  4 91  1  0  0  0
  4 92  1  0  0  0
  5  6  1  0  0  0
  5 26  1  0  0  0
  5 93  1  0  0  0
  6 25  1  0  0  0
  6 94  1  0  0  0
  6 95  1  0  0  0
  7  8  2  0  0  0
  7 26  1  0  0  0
  7 29  1  0  0  0
  8  9  1  0  0  0
  8 22  1  0  0  0
  9 10  1  0  0  0
  9 27  2  0  0  0
 10 11  2  0  0  0
 10 15  1  0  0  0
 11 12  1  0  0  0
 11 96  1  0  0  0
 12 13  2  0  0  0
 12 97  1  0  0  0
 13 14  1  0  0  0
 13 31  1  0  0  0
 14 15  2  0  0  0
 14 98  1  0  0  0
 15 99  1  0  0  0
 16 17  2  0  0  0
 16 21  1  0  0  0
 16 31  1  0  0  0
 17 18  1  0  0  0
 17100  1  0  0  0
 18 19  2  0  0  0
 18101  1  0  0  0
 19 20  1  0  0  0
 19 24  1  0  0  0
 20 21  2  0  0  0
 20102  1  0  0  0
 21 23  1  0  0  0
 22 28  1  0  0  0
 22 32  2  0  0  0
 26 27  1  0  0  0
 28103  1  0  0  0
 28104  1  0  0  0
 29105  1  0  0  0
 29106  1  0  0  0
 33 34  1  0  0  0
 33 66  1  0  0  0
 33 70  2  0  0  0
 34 36  1  0  0  0
 34 59  1  0  0  0
 34107  1  0  0  0
 35 44  2  0  0  0
 35 45  1  0  0  0
 35 68  1  0  0  0
 36 56  1  0  0  0
 36108  1  0  0  0
 37 39  1  0  0  0
 37 47  1  0  0  0
 37 66  1  0  0  0
 37109  1  0  0  0
 38 43  2  0  0  0
 38 46  1  0  0  0
 38 47  1  0  0  0
 39 64  1  0  0  0
 39 67  2  0  0  0
 40 52  1  0  0  0
 40 53  2  0  0  0
 40 58  1  0  0  0
 41110  1  0  0  0
 41111  1  0  0  0
 41112  1  0  0  0
 41 48  1  0  0  0
 42 43  1  0  0  0
 42 66  1  0  0  0
 42113  1  0  0  0
 42114  1  0  0  0
 43 44  1  0  0  0
 44115  1  0  0  0
 45 46  2  0  0  0
 45116  1  0  0  0
 46117  1  0  0  0
 47118  1  0  0  0
 47119  1  0  0  0
 48 56  1  0  0  0
 48 65  1  0  0  0
 48120  1  0  0  0
 49 50  1  0  0  0
 49 53  1  0  0  0
 49 64  1  0  0  0
 49121  1  0  0  0
 50 51  1  0  0  0
 50122  1  0  0  0
 50123  1  0  0  0
 51 52  1  0  0  0
 51124  1  0  0  0
 51125  1  0  0  0
 52126  1  0  0  0
 52127  1  0  0  0
 53 54  1  0  0  0
 54 55  2  0  0  0
 54128  1  0  0  0
 55 57  1  0  0  0
 55129  1  0  0  0
 56 69  2  0  0  0
 57 58  2  0  0  0
 57130  1  0  0  0
 58131  1  0  0  0
 59 60  1  0  0  0
 59 61  1  0  0  0
 59 62  1  0  0  0
 60132  1  0  0  0
 60133  1  0  0  0
 60134  1  0  0  0
 61135  1  0  0  0
 61136  1  0  0  0
 61137  1  0  0  0
 62138  1  0  0  0
 62139  1  0  0  0
 62140  1  0  0  0
 63 65  1  0  0  0
 63141  1  0  0  0
 63142  1  0  0  0
 63143  1  0  0  0
 64144  1  0  0  0
 65145  1  0  0  0
 68 81  1  0  0  0
 71 72  1  0  0  0
 71 73  2  0  0  0
 71 75  1  0  0  0
 72 74  2  0  0  0
 72 79  1  0  0  0
 73 80  1  0  0  0
 73 86  1  0  0  0
 74 77  1  0  0  0
 74 86  1  0  0  0
 75 78  1  0  0  0
 75 84  2  0  0  0
 76 81  1  0  0  0
 76 82  1  0  0  0
 76 85  2  0  0  0
 77146  1  0  0  0
 77147  1  0  0  0
 77148  1  0  0  0
 78149  1  0  0  0
 78150  1  0  0  0
 78151  1  0  0  0
 79 82  1  0  0  0
 79152  1  0  0  0
 79153  1  0  0  0
 80 83  1  0  0  0
 80154  1  0  0  0
 80155  1  0  0  0
 81156  1  0  0  0
 81157  1  0  0  0
 82158  1  0  0  0
 83159  1  0  0  0
M  ISO  4   1 100  68 101  81 101  83 100
M  END
> <chiral flag>
0

> <version>
0

> <s_m_source_file>
/data/baiqing/PycharmProjects/Reinvent-master-3.2/result/LINK_invent/BTK/process_docking_weight1_custom_product_contain_oxygen_bond_distance_aromatic_linkinvent_7_9_3/rearranged_h_0160.sdf

> <i_m_source_file_index>
83

> <r_mmod_Potential_Energy-OPLS-2005>
-178.688278198242

> <r_mmod_Stretch_Energy-OPLS-2005>
56.1055946350098

> <r_mmod_Bend_Energy-OPLS-2005>
132.70280456543

> <r_mmod_Torsional_Energy-OPLS-2005>
219.779296875

> <r_mmod_Improper_Torsional_Energy-OPLS-2005>
4.62813663482666

> <r_mmod_Van_der_Waal_Energy-OPLS-2005>
131.167907714844

> <r_mmod_Electrostatic_Energy-OPLS-2005>
-498.160247802734

> <r_mmod_Solvation_Energy-OPLS-2005>
-251.45622253418

> <b_mmod_Minimization_Converged-OPLS-2005>
0

> <r_mmod_RMS_Derivative-OPLS-2005>
7.55415821075439

$$$$
84
                    3D
 Structure written by MMmdl.
158166  0  0  1  0            999 V2000
  -30.5932  -14.6767   20.4701 C   0  0  0  0  0  0
  -30.4401  -12.4046   19.4616 C   0  0  0  0  0  0
  -29.5091  -12.4983   18.2309 C   0  0  0  0  0  0
  -28.0284  -12.3466   18.6345 C   0  0  0  0  0  0
  -27.6509  -13.2179   19.8614 C   0  0  2  0  0  0
  -28.6962  -13.0837   20.9918 C   0  0  0  0  0  0
  -25.2571  -13.8179   20.5680 C   0  0  0  0  0  0
  -24.1836  -13.0432   20.9154 C   0  0  0  0  0  0
  -24.6396  -11.6898   20.8711 C   0  0  0  0  0  0
  -23.9066  -10.4286   21.0392 C   0  0  0  0  0  0
  -24.3614   -9.4208   21.9188 C   0  0  0  0  0  0
  -23.6269   -8.2251   22.0768 C   0  0  0  0  0  0
  -22.4256   -8.0269   21.3541 C   0  0  0  0  0  0
  -21.9881   -9.0253   20.4655 C   0  0  0  0  0  0
  -22.7216  -10.2140   20.3058 C   0  0  0  0  0  0
  -21.6856   -6.0717   22.5257 C   0  0  0  0  0  0
  -21.4016   -6.5631   23.8182 C   0  0  0  0  0  0
  -21.3663   -5.6788   24.9142 C   0  0  0  0  0  0
  -21.6044   -4.3055   24.7195 C   0  0  0  0  0  0
  -21.8824   -3.8130   23.4324 C   0  0  0  0  0  0
  -21.9196   -4.6944   22.3375 C   0  0  0  0  0  0
  -22.7866  -13.5243   21.1783 C   0  0  0  0  0  0
  -22.1673   -4.2132   21.0960 F   0  0  0  0  0  0
  -21.5609   -3.4536   25.7717 F   0  0  0  0  0  0
  -30.0073  -13.4351   20.4274 N   0  0  0  0  0  0
  -26.2984  -12.9354   20.3310 N   0  0  0  0  0  0
  -25.9342  -11.6507   20.5773 N   0  0  0  0  0  0
  -22.0494  -12.8297   22.0379 N   0  0  0  0  0  0
  -25.4321  -15.1911   20.4146 N   0  0  0  0  0  0
  -31.7591  -14.8418   20.0971 O   0  0  0  0  0  0
  -21.6624   -6.8869   21.4220 O   0  0  0  0  0  0
  -22.3569  -14.5532   20.6597 O   0  0  0  0  0  0
  -24.6264  -31.8563   23.2012 C   0  0  0  0  0  0
  -25.9096  -32.4757   23.8355 C   0  0  1  0  0  0
  -27.2257  -27.2970   20.1341 C   0  0  0  0  0  0
  -25.5916  -33.8557   24.2277 N   0  0  0  0  0  0
  -23.4229  -30.4789   21.5422 C   0  0  2  0  0  0
  -24.8722  -28.9275   20.1125 C   0  0  0  0  0  0
  -22.7487  -29.4605   22.4914 C   0  0  0  0  0  0
  -18.0292  -28.1373   22.8483 C   0  0  0  0  0  0
  -24.1489  -36.7288   23.2631 C   0  0  0  0  0  0
  -25.9644  -30.7810   21.3764 C   0  0  0  0  0  0
  -26.0404  -29.4047   20.7229 C   0  0  0  0  0  0
  -27.2216  -28.6003   20.7250 C   0  0  0  0  0  0
  -26.0387  -26.8755   19.4988 C   0  0  0  0  0  0
  -24.8734  -27.6683   19.4909 C   0  0  0  0  0  0
  -23.6407  -29.8099   20.1586 C   0  0  0  0  0  0
  -25.4103  -36.3071   24.0333 C   0  0  1  0  0  0
  -20.5896  -28.3681   23.1266 C   0  0  2  0  0  0
  -20.6779  -26.9403   22.5399 C   0  0  0  0  0  0
  -19.5758  -26.6369   21.5204 C   0  0  0  0  0  0
  -18.1941  -26.7915   22.1626 C   0  0  0  0  0  0
  -19.1546  -28.8847   23.2869 C   0  0  0  0  0  0
  -18.9463  -30.1454   23.8878 C   0  0  0  0  0  0
  -17.6459  -30.6573   24.0562 C   0  0  0  0  0  0
  -25.9049  -34.9432   23.5118 C   0  0  0  0  0  0
  -16.5352  -29.9070   23.6329 C   0  0  0  0  0  0
  -16.7280  -28.6492   23.0346 C   0  0  0  0  0  0
  -26.4486  -31.6572   25.0723 C   0  0  0  0  0  0
  -25.3723  -31.3724   26.1460 C   0  0  0  0  0  0
  -27.0341  -30.3000   24.6188 C   0  0  0  0  0  0
  -27.6058  -32.4298   25.7469 C   0  0  0  0  0  0
  -27.5595  -37.1777   24.8443 C   0  0  0  0  0  0
  -21.4198  -29.3039   22.3670 N   0  0  0  0  0  0
  -26.4287  -37.3765   23.9430 N   0  0  0  0  0  0
  -24.6896  -31.0553   22.0968 N   0  0  0  0  0  0
  -23.4198  -28.8147   23.3011 O   0  0  0  0  0  0
  -28.3278  -26.4236   20.1457 O   0  0  0  0  0  0
  -26.5632  -34.8900   22.4693 O   0  0  0  0  0  0
  -23.5420  -32.1365   23.7340 O   0  0  0  0  0  0
  -29.3578  -18.0451   21.5975 C   0  0  0  0  0  0
  -29.2211  -19.4592   21.4542 C   0  0  0  0  0  0
  -30.0343  -17.8491   19.2923 C   0  0  0  0  0  0
  -29.9098  -19.2876   19.1503 C   0  0  0  0  0  0
  -29.7852  -17.1891   20.5461 C   0  0  0  0  0  0
  -29.4926  -20.1295   20.2332 C   0  0  0  0  0  0
  -28.1320  -25.0663   20.5111 C   0  0  0  0  0  0
  -30.3805  -17.0501   18.0844 C   0  0  0  0  0  0
  -28.9125  -23.9826   20.1616 C   0  0  0  0  0  0
  -28.6378  -22.5763   20.6309 C   0  0  0  0  0  0
  -30.1907  -19.9376   17.7877 C   0  0  0  0  0  0
  -29.1951  -16.5144   17.2905 C   0  0  0  0  0  0
  -29.4303  -21.5987   20.0761 N   0  0  0  0  0  0
  -29.7631  -15.7286   20.7961 N   0  0  0  0  0  0
  -31.5307  -16.8656   17.6799 O   0  0  0  0  0  0
  -27.7644  -22.2944   21.4549 O   0  0  0  0  0  0
  -29.9748  -24.1883   19.3683 O   0  0  0  0  0  0
  -31.4812  -12.5338   19.1600 H   0  0  0  0  0  0
  -30.3783  -11.4117   19.9138 H   0  0  0  0  0  0
  -29.7737  -11.7407   17.4937 H   0  0  0  0  0  0
  -29.6597  -13.4554   17.7369 H   0  0  0  0  0  0
  -27.8584  -11.2931   18.8603 H   0  0  0  0  0  0
  -27.3783  -12.5828   17.7906 H   0  0  0  0  0  0
  -27.6638  -14.2521   19.5156 H   0  0  0  0  0  0
  -28.7144  -12.0625   21.3774 H   0  0  0  0  0  0
  -28.4403  -13.7192   21.8417 H   0  0  0  0  0  0
  -25.2781   -9.5678   22.4750 H   0  0  0  0  0  0
  -23.9943   -7.4666   22.7541 H   0  0  0  0  0  0
  -21.0766   -8.8782   19.9015 H   0  0  0  0  0  0
  -22.3647  -10.9667   19.6157 H   0  0  0  0  0  0
  -21.2036   -7.6141   23.9678 H   0  0  0  0  0  0
  -21.1480   -6.0522   25.9050 H   0  0  0  0  0  0
  -22.0611   -2.7576   23.2817 H   0  0  0  0  0  0
  -22.4063  -11.9922   22.4759 H   0  0  0  0  0  0
  -21.1147  -13.1412   22.2610 H   0  0  0  0  0  0
  -24.6659  -15.8484   20.5290 H   0  0  0  0  0  0
  -26.2820  -15.6293   20.0866 H   0  0  0  0  0  0
  -26.7159  -32.5431   23.1099 H   0  0  0  0  0  0
  -25.0069  -33.9687   25.0437 H   0  0  0  0  0  0
  -22.7178  -31.3002   21.3966 H   0  0  0  0  0  0
  -23.3741  -35.9632   23.3266 H   0  0  0  0  0  0
  -24.3593  -36.8932   22.2055 H   0  0  0  0  0  0
  -23.7244  -37.6488   23.6658 H   0  0  0  0  0  0
  -26.0988  -31.5424   20.6066 H   0  0  0  0  0  0
  -26.8434  -30.8302   22.0077 H   0  0  0  0  0  0
  -28.1178  -28.9609   21.2095 H   0  0  0  0  0  0
  -26.0036  -25.9082   19.0181 H   0  0  0  0  0  0
  -23.9797  -27.2973   19.0071 H   0  0  0  0  0  0
  -23.7599  -30.5844   19.4002 H   0  0  0  0  0  0
  -22.7600  -29.2397   19.8566 H   0  0  0  0  0  0
  -25.1271  -36.1925   25.0826 H   0  0  0  0  0  0
  -20.9991  -28.3247   24.1389 H   0  0  0  0  0  0
  -20.5672  -26.2289   23.3599 H   0  0  0  0  0  0
  -21.6648  -26.7411   22.1203 H   0  0  0  0  0  0
  -19.6919  -25.6282   21.1234 H   0  0  0  0  0  0
  -19.6692  -27.3182   20.6737 H   0  0  0  0  0  0
  -17.4205  -26.6645   21.4038 H   0  0  0  0  0  0
  -18.0355  -26.0049   22.9022 H   0  0  0  0  0  0
  -19.7936  -30.7287   24.2225 H   0  0  0  0  0  0
  -17.5004  -31.6245   24.5173 H   0  0  0  0  0  0
  -15.5352  -30.2971   23.7640 H   0  0  0  0  0  0
  -15.8686  -28.0811   22.7051 H   0  0  0  0  0  0
  -24.5873  -30.7098   25.7793 H   0  0  0  0  0  0
  -24.8952  -32.2901   26.4909 H   0  0  0  0  0  0
  -25.8046  -30.8874   27.0222 H   0  0  0  0  0  0
  -26.2934  -29.6732   24.1206 H   0  0  0  0  0  0
  -27.4042  -29.7267   25.4698 H   0  0  0  0  0  0
  -27.8793  -30.4297   23.9426 H   0  0  0  0  0  0
  -27.2688  -33.3590   26.2071 H   0  0  0  0  0  0
  -28.3845  -32.6863   25.0272 H   0  0  0  0  0  0
  -28.0748  -31.8407   26.5360 H   0  0  0  0  0  0
  -28.2543  -38.0143   24.7581 H   0  0  0  0  0  0
  -28.1171  -36.2683   24.6140 H   0  0  0  0  0  0
  -27.2337  -37.1250   25.8847 H   0  0  0  0  0  0
  -20.9376  -29.8767   21.6884 H   0  0  0  0  0  0
  -26.0162  -38.2835   24.1468 H   0  0  0  0  0  0
  -29.1167  -17.6131   22.5591 H   0  0  0  0  0  0
  -28.9107  -20.0328   22.3167 H   0  0  0  0  0  0
  -27.2599  -24.9477   21.1427 H   0  0  0  0  0  0
  -31.2379  -19.8074   17.5147 H   0  0  0  0  0  0
  -29.9826  -21.0045   17.7465 H   0  0  0  0  0  0
  -29.5742  -19.4879   17.0089 H   0  0  0  0  0  0
  -28.2552  -16.8210   17.7474 H   0  0  0  0  0  0
  -29.2173  -15.4298   17.2509 H   0  0  0  0  0  0
  -29.2227  -16.8949   16.2697 H   0  0  0  0  0  0
  -30.0425  -21.9862   19.3694 H   0  0  0  0  0  0
  -28.9295  -15.4081   21.2693 H   0  0  0  0  0  0
  -30.0130  -25.1220   19.1994 H   0  0  0  0  0  0
  1 25  1  0  0  0
  1 30  2  0  0  0
  1 84  1  0  0  0
  2  3  1  0  0  0
  2 25  1  0  0  0
  2 88  1  0  0  0
  2 89  1  0  0  0
  3  4  1  0  0  0
  3 90  1  0  0  0
  3 91  1  0  0  0
  4  5  1  0  0  0
  4 92  1  0  0  0
  4 93  1  0  0  0
  5  6  1  0  0  0
  5 26  1  0  0  0
  5 94  1  0  0  0
  6 25  1  0  0  0
  6 95  1  0  0  0
  6 96  1  0  0  0
  7  8  2  0  0  0
  7 26  1  0  0  0
  7 29  1  0  0  0
  8  9  1  0  0  0
  8 22  1  0  0  0
  9 10  1  0  0  0
  9 27  2  0  0  0
 10 11  2  0  0  0
 10 15  1  0  0  0
 11 12  1  0  0  0
 11 97  1  0  0  0
 12 13  2  0  0  0
 12 98  1  0  0  0
 13 14  1  0  0  0
 13 31  1  0  0  0
 14 15  2  0  0  0
 14 99  1  0  0  0
 15100  1  0  0  0
 16 17  2  0  0  0
 16 21  1  0  0  0
 16 31  1  0  0  0
 17 18  1  0  0  0
 17101  1  0  0  0
 18 19  2  0  0  0
 18102  1  0  0  0
 19 20  1  0  0  0
 19 24  1  0  0  0
 20 21  2  0  0  0
 20103  1  0  0  0
 21 23  1  0  0  0
 22 28  1  0  0  0
 22 32  2  0  0  0
 26 27  1  0  0  0
 28104  1  0  0  0
 28105  1  0  0  0
 29106  1  0  0  0
 29107  1  0  0  0
 33 34  1  0  0  0
 33 66  1  0  0  0
 33 70  2  0  0  0
 34 36  1  0  0  0
 34 59  1  0  0  0
 34108  1  0  0  0
 35 44  2  0  0  0
 35 45  1  0  0  0
 35 68  1  0  0  0
 36 56  1  0  0  0
 36109  1  0  0  0
 37 39  1  0  0  0
 37 47  1  0  0  0
 37 66  1  0  0  0
 37110  1  0  0  0
 38 43  2  0  0  0
 38 46  1  0  0  0
 38 47  1  0  0  0
 39 64  1  0  0  0
 39 67  2  0  0  0
 40 52  1  0  0  0
 40 53  2  0  0  0
 40 58  1  0  0  0
 41111  1  0  0  0
 41112  1  0  0  0
 41113  1  0  0  0
 41 48  1  0  0  0
 42 43  1  0  0  0
 42 66  1  0  0  0
 42114  1  0  0  0
 42115  1  0  0  0
 43 44  1  0  0  0
 44116  1  0  0  0
 45 46  2  0  0  0
 45117  1  0  0  0
 46118  1  0  0  0
 47119  1  0  0  0
 47120  1  0  0  0
 48 56  1  0  0  0
 48 65  1  0  0  0
 48121  1  0  0  0
 49 50  1  0  0  0
 49 53  1  0  0  0
 49 64  1  0  0  0
 49122  1  0  0  0
 50 51  1  0  0  0
 50123  1  0  0  0
 50124  1  0  0  0
 51 52  1  0  0  0
 51125  1  0  0  0
 51126  1  0  0  0
 52127  1  0  0  0
 52128  1  0  0  0
 53 54  1  0  0  0
 54 55  2  0  0  0
 54129  1  0  0  0
 55 57  1  0  0  0
 55130  1  0  0  0
 56 69  2  0  0  0
 57 58  2  0  0  0
 57131  1  0  0  0
 58132  1  0  0  0
 59 60  1  0  0  0
 59 61  1  0  0  0
 59 62  1  0  0  0
 60133  1  0  0  0
 60134  1  0  0  0
 60135  1  0  0  0
 61136  1  0  0  0
 61137  1  0  0  0
 61138  1  0  0  0
 62139  1  0  0  0
 62140  1  0  0  0
 62141  1  0  0  0
 63 65  1  0  0  0
 63142  1  0  0  0
 63143  1  0  0  0
 63144  1  0  0  0
 64145  1  0  0  0
 65146  1  0  0  0
 68 77  1  0  0  0
 71 72  2  0  0  0
 71 75  1  0  0  0
 71147  1  0  0  0
 72 76  1  0  0  0
 72148  1  0  0  0
 73 74  1  0  0  0
 73 75  2  0  0  0
 73 78  1  0  0  0
 74 76  2  0  0  0
 74 81  1  0  0  0
 75 84  1  0  0  0
 76 83  1  0  0  0
 77 79  2  0  0  0
 77149  1  0  0  0
 78 82  1  0  0  0
 78 85  2  0  0  0
 79 80  1  0  0  0
 79 87  1  0  0  0
 80 83  1  0  0  0
 80 86  2  0  0  0
 81150  1  0  0  0
 81151  1  0  0  0
 81152  1  0  0  0
 82153  1  0  0  0
 82154  1  0  0  0
 82155  1  0  0  0
 83156  1  0  0  0
 84157  1  0  0  0
 87158  1  0  0  0
M  ISO  4   1 100  68 101  77 101  84 100
M  END
> <chiral flag>
0

> <version>
0

> <s_m_source_file>
/data/baiqing/PycharmProjects/Reinvent-master-3.2/result/LINK_invent/BTK/process_docking_weight1_custom_product_contain_oxygen_bond_distance_aromatic_linkinvent_7_9_3/rearranged_h_0160.sdf

> <i_m_source_file_index>
84

> <r_mmod_Potential_Energy-OPLS-2005>
88.6110305786133

> <r_mmod_Stretch_Energy-OPLS-2005>
95.8893890380859

> <r_mmod_Bend_Energy-OPLS-2005>
143.832077026367

> <r_mmod_Torsional_Energy-OPLS-2005>
288.103332519531

> <r_mmod_Improper_Torsional_Energy-OPLS-2005>
4.9341607093811

> <r_mmod_Van_der_Waal_Energy-OPLS-2005>
145.252853393555

> <r_mmod_Electrostatic_Energy-OPLS-2005>
-404.720733642578

> <r_mmod_Solvation_Energy-OPLS-2005>
-245.188369750977

> <b_mmod_Minimization_Converged-OPLS-2005>
0

> <r_mmod_RMS_Derivative-OPLS-2005>
3.31792521476746

$$$$
85
                    3D
 Structure written by MMmdl.
159168  0  0  1  0            999 V2000
  -30.5766  -14.7188   20.6608 C   0  0  0  0  0  0
  -30.4754  -12.5332   19.3997 C   0  0  0  0  0  0
  -29.4911  -12.5514   18.2018 C   0  0  0  0  0  0
  -28.0177  -12.3705   18.6291 C   0  0  0  0  0  0
  -27.6553  -13.2074   19.8783 C   0  0  2  0  0  0
  -28.7144  -12.9701   20.9712 C   0  0  0  0  0  0
  -25.2553  -13.8138   20.5812 C   0  0  0  0  0  0
  -24.1802  -13.0479   20.9263 C   0  0  0  0  0  0
  -24.6347  -11.6914   20.8834 C   0  0  0  0  0  0
  -23.9043  -10.4315   21.0424 C   0  0  0  0  0  0
  -24.3589   -9.4224   21.9201 C   0  0  0  0  0  0
  -23.6275   -8.2267   22.0780 C   0  0  0  0  0  0
  -22.4259   -8.0292   21.3569 C   0  0  0  0  0  0
  -21.9928   -9.0279   20.4665 C   0  0  0  0  0  0
  -22.7245  -10.2157   20.3062 C   0  0  0  0  0  0
  -21.6869   -6.0738   22.5283 C   0  0  0  0  0  0
  -21.4003   -6.5627   23.8223 C   0  0  0  0  0  0
  -21.3671   -5.6790   24.9188 C   0  0  0  0  0  0
  -21.6028   -4.3050   24.7228 C   0  0  0  0  0  0
  -21.8840   -3.8149   23.4350 C   0  0  0  0  0  0
  -21.9195   -4.6961   22.3401 C   0  0  0  0  0  0
  -22.7786  -13.5255   21.1871 C   0  0  0  0  0  0
  -22.1656   -4.2145   21.0978 F   0  0  0  0  0  0
  -21.5663   -3.4531   25.7752 F   0  0  0  0  0  0
  -29.9960  -13.4785   20.4392 N   0  0  0  0  0  0
  -26.2985  -12.9330   20.3504 N   0  0  0  0  0  0
  -25.9273  -11.6474   20.5869 N   0  0  0  0  0  0
  -22.0408  -12.8250   22.0382 N   0  0  0  0  0  0
  -25.4298  -15.1872   20.4178 N   0  0  0  0  0  0
  -31.6649  -14.9612   20.1200 O   0  0  0  0  0  0
  -21.6655   -6.8871   21.4232 O   0  0  0  0  0  0
  -22.3497  -14.5564   20.6659 O   0  0  0  0  0  0
  -24.6292  -31.8525   23.2046 C   0  0  0  0  0  0
  -25.9113  -32.4731   23.8375 C   0  0  1  0  0  0
  -27.1796  -27.2170   20.1047 C   0  0  0  0  0  0
  -25.5923  -33.8546   24.2294 N   0  0  0  0  0  0
  -23.4242  -30.4824   21.5495 C   0  0  2  0  0  0
  -24.8600  -28.9362   20.1036 C   0  0  0  0  0  0
  -22.7367  -29.4632   22.4913 C   0  0  0  0  0  0
  -18.0116  -28.1475   22.8594 C   0  0  0  0  0  0
  -24.1498  -36.7246   23.2672 C   0  0  0  0  0  0
  -25.9766  -30.7368   21.4109 C   0  0  0  0  0  0
  -26.0358  -29.3684   20.7312 C   0  0  0  0  0  0
  -27.1913  -28.5143   20.7336 C   0  0  0  0  0  0
  -25.9906  -26.8859   19.4138 C   0  0  0  0  0  0
  -24.8451  -27.7035   19.4382 C   0  0  0  0  0  0
  -23.6470  -29.8408   20.1595 C   0  0  0  0  0  0
  -25.4148  -36.3073   24.0353 C   0  0  1  0  0  0
  -20.5743  -28.3751   23.1194 C   0  0  2  0  0  0
  -20.6438  -26.9325   22.5768 C   0  0  0  0  0  0
  -19.5447  -26.6346   21.5401 C   0  0  0  0  0  0
  -18.1672  -26.7898   22.1943 C   0  0  0  0  0  0
  -19.1426  -28.9009   23.2810 C   0  0  0  0  0  0
  -18.9379  -30.1642   23.8872 C   0  0  0  0  0  0
  -17.6406  -30.6773   24.0645 C   0  0  0  0  0  0
  -25.9061  -34.9440   23.5122 C   0  0  0  0  0  0
  -16.5290  -29.9292   23.6400 C   0  0  0  0  0  0
  -16.7130  -28.6637   23.0539 C   0  0  0  0  0  0
  -26.4487  -31.6588   25.0818 C   0  0  0  0  0  0
  -25.3706  -31.3713   26.1555 C   0  0  0  0  0  0
  -27.0392  -30.3011   24.6340 C   0  0  0  0  0  0
  -27.6012  -32.4393   25.7535 C   0  0  0  0  0  0
  -27.5584  -37.1816   24.8486 C   0  0  0  0  0  0
  -21.4120  -29.2774   22.3266 N   0  0  0  0  0  0
  -26.4332  -37.3766   23.9385 N   0  0  0  0  0  0
  -24.6944  -31.0451   22.1084 N   0  0  0  0  0  0
  -23.3971  -28.8432   23.3314 O   0  0  0  0  0  0
  -28.2488  -26.2814   20.1902 O   0  0  0  0  0  0
  -26.5636  -34.8905   22.4705 O   0  0  0  0  0  0
  -23.5434  -32.1464   23.7252 O   0  0  0  0  0  0
  -29.7202  -18.5473   20.9090 C   0  0  0  0  0  0
  -29.2771  -17.2361   21.4435 C   0  0  0  0  0  0
  -28.1042  -17.4432   22.1536 C   0  0  0  0  0  0
  -28.8857  -19.6644   21.1525 C   0  0  0  0  0  0
  -28.5906  -22.0461   20.2571 C   0  0  0  0  0  0
  -27.4837  -16.4950   23.1631 C   0  0  0  0  0  0
  -28.4195  -16.1143   24.3534 C   0  0  0  0  0  0
  -29.9123  -16.5042   24.1956 C   0  0  0  0  0  0
  -30.6922  -15.7952   23.0489 C   0  0  0  0  0  0
  -29.9545  -15.8017   21.6921 C   0  0  2  0  0  0
  -28.6290  -23.5889   20.7213 C   0  0  0  0  0  0
  -28.1076  -24.8176   19.7866 C   0  0  0  0  0  0
  -29.0787  -21.0564   21.1132 N   0  0  0  0  0  0
  -28.1525  -21.7597   19.1304 O   0  0  0  0  0  0
  -27.4749  -19.0697   21.9970 S   0  0  0  0  0  0
  -31.4677  -12.8055   19.0304 H   0  0  0  0  0  0
  -30.6022  -11.5308   19.8072 H   0  0  0  0  0  0
  -29.7597  -11.7753   17.4828 H   0  0  0  0  0  0
  -29.5987  -13.4947   17.6642 H   0  0  0  0  0  0
  -27.8471  -11.3115   18.8287 H   0  0  0  0  0  0
  -27.3431  -12.6234   17.8053 H   0  0  0  0  0  0
  -27.6957  -14.2600   19.5904 H   0  0  0  0  0  0
  -28.8018  -11.8996   21.1562 H   0  0  0  0  0  0
  -28.4063  -13.3670   21.9367 H   0  0  0  0  0  0
  -25.2745   -9.5691   22.4768 H   0  0  0  0  0  0
  -24.0025   -7.4631   22.7457 H   0  0  0  0  0  0
  -21.0930   -8.8792   19.8920 H   0  0  0  0  0  0
  -22.3752  -10.9701   19.6144 H   0  0  0  0  0  0
  -21.1985   -7.6135   23.9717 H   0  0  0  0  0  0
  -21.1461   -6.0515   25.9090 H   0  0  0  0  0  0
  -22.0592   -2.7611   23.2859 H   0  0  0  0  0  0
  -22.4026  -11.9915   22.4821 H   0  0  0  0  0  0
  -21.0964  -13.1195   22.2487 H   0  0  0  0  0  0
  -24.6756  -15.8546   20.5412 H   0  0  0  0  0  0
  -26.2950  -15.6265   20.1362 H   0  0  0  0  0  0
  -26.7200  -32.5308   23.1099 H   0  0  0  0  0  0
  -25.0080  -33.9719   25.0442 H   0  0  0  0  0  0
  -22.7194  -31.3062   21.4138 H   0  0  0  0  0  0
  -23.3788  -35.9533   23.3351 H   0  0  0  0  0  0
  -24.3594  -36.8852   22.2077 H   0  0  0  0  0  0
  -23.7203  -37.6450   23.6671 H   0  0  0  0  0  0
  -26.1629  -31.5014   20.6560 H   0  0  0  0  0  0
  -26.8367  -30.7420   22.0710 H   0  0  0  0  0  0
  -28.0762  -28.8258   21.2695 H   0  0  0  0  0  0
  -25.8914  -25.9824   18.8345 H   0  0  0  0  0  0
  -23.9541  -27.3747   18.9216 H   0  0  0  0  0  0
  -23.8016  -30.6439   19.4392 H   0  0  0  0  0  0
  -22.7551  -29.3115   19.8182 H   0  0  0  0  0  0
  -25.1310  -36.1986   25.0844 H   0  0  0  0  0  0
  -20.9907  -28.3612   24.1344 H   0  0  0  0  0  0
  -20.4973  -26.2610   23.4230 H   0  0  0  0  0  0
  -21.6369  -26.6892   22.2002 H   0  0  0  0  0  0
  -19.6473  -25.6371   21.1189 H   0  0  0  0  0  0
  -19.6281  -27.3349   20.7044 H   0  0  0  0  0  0
  -17.3729  -26.6432   21.4570 H   0  0  0  0  0  0
  -18.0297  -26.0066   22.9442 H   0  0  0  0  0  0
  -19.7829  -30.7414   24.2380 H   0  0  0  0  0  0
  -17.4934  -31.6384   24.5412 H   0  0  0  0  0  0
  -15.5335  -30.3251   23.7768 H   0  0  0  0  0  0
  -15.8519  -28.0824   22.7581 H   0  0  0  0  0  0
  -24.5841  -30.7098   25.7943 H   0  0  0  0  0  0
  -24.8921  -32.2829   26.5088 H   0  0  0  0  0  0
  -25.8039  -30.8855   27.0290 H   0  0  0  0  0  0
  -26.3007  -29.6697   24.1389 H   0  0  0  0  0  0
  -27.4135  -29.7332   25.4866 H   0  0  0  0  0  0
  -27.8839  -30.4354   23.9585 H   0  0  0  0  0  0
  -27.2597  -33.3705   26.2040 H   0  0  0  0  0  0
  -28.3763  -32.6959   25.0315 H   0  0  0  0  0  0
  -28.0713  -31.8601   26.5487 H   0  0  0  0  0  0
  -28.2654  -38.0083   24.7495 H   0  0  0  0  0  0
  -28.1036  -36.2598   24.6348 H   0  0  0  0  0  0
  -27.2272  -37.1481   25.8899 H   0  0  0  0  0  0
  -20.9591  -29.7437   21.5524 H   0  0  0  0  0  0
  -26.0218  -38.2845   24.1387 H   0  0  0  0  0  0
  -30.7009  -18.6547   20.4766 H   0  0  0  0  0  0
  -27.1531  -15.5863   22.6664 H   0  0  0  0  0  0
  -26.5594  -16.9040   23.5719 H   0  0  0  0  0  0
  -28.3289  -15.0513   24.6052 H   0  0  0  0  0  0
  -28.0446  -16.6411   25.2368 H   0  0  0  0  0  0
  -30.4301  -16.3203   25.1339 H   0  0  0  0  0  0
  -29.9668  -17.5841   24.0661 H   0  0  0  0  0  0
  -31.6440  -16.3059   22.9314 H   0  0  0  0  0  0
  -30.9312  -14.7694   23.3411 H   0  0  0  0  0  0
  -29.0991  -15.2163   21.9354 H   0  0  0  0  0  0
  -29.6490  -23.7964   21.0383 H   0  0  0  0  0  0
  -28.0385  -23.6016   21.6359 H   0  0  0  0  0  0
  -28.6062  -24.7341   18.8182 H   0  0  0  0  0  0
  -27.0825  -24.5410   19.5833 H   0  0  0  0  0  0
  -29.4175  -21.4298   22.0080 H   0  0  0  0  0  0
  1 25  1  0  0  0
  1 30  2  0  0  0
  1 80  1  0  0  0
  2  3  1  0  0  0
  2 25  1  0  0  0
  2 86  1  0  0  0
  2 87  1  0  0  0
  3  4  1  0  0  0
  3 88  1  0  0  0
  3 89  1  0  0  0
  4  5  1  0  0  0
  4 90  1  0  0  0
  4 91  1  0  0  0
  5  6  1  0  0  0
  5 26  1  0  0  0
  5 92  1  0  0  0
  6 25  1  0  0  0
  6 93  1  0  0  0
  6 94  1  0  0  0
  7  8  2  0  0  0
  7 26  1  0  0  0
  7 29  1  0  0  0
  8  9  1  0  0  0
  8 22  1  0  0  0
  9 10  1  0  0  0
  9 27  2  0  0  0
 10 11  2  0  0  0
 10 15  1  0  0  0
 11 12  1  0  0  0
 11 95  1  0  0  0
 12 13  2  0  0  0
 12 96  1  0  0  0
 13 14  1  0  0  0
 13 31  1  0  0  0
 14 15  2  0  0  0
 14 97  1  0  0  0
 15 98  1  0  0  0
 16 17  2  0  0  0
 16 21  1  0  0  0
 16 31  1  0  0  0
 17 18  1  0  0  0
 17 99  1  0  0  0
 18 19  2  0  0  0
 18100  1  0  0  0
 19 20  1  0  0  0
 19 24  1  0  0  0
 20 21  2  0  0  0
 20101  1  0  0  0
 21 23  1  0  0  0
 22 28  1  0  0  0
 22 32  2  0  0  0
 26 27  1  0  0  0
 28102  1  0  0  0
 28103  1  0  0  0
 29104  1  0  0  0
 29105  1  0  0  0
 33 34  1  0  0  0
 33 66  1  0  0  0
 33 70  2  0  0  0
 34 36  1  0  0  0
 34 59  1  0  0  0
 34106  1  0  0  0
 35 44  2  0  0  0
 35 45  1  0  0  0
 35 68  1  0  0  0
 36 56  1  0  0  0
 36107  1  0  0  0
 37 39  1  0  0  0
 37 47  1  0  0  0
 37 66  1  0  0  0
 37108  1  0  0  0
 38 43  2  0  0  0
 38 46  1  0  0  0
 38 47  1  0  0  0
 39 64  1  0  0  0
 39 67  2  0  0  0
 40 52  1  0  0  0
 40 53  2  0  0  0
 40 58  1  0  0  0
 41109  1  0  0  0
 41110  1  0  0  0
 41111  1  0  0  0
 41 48  1  0  0  0
 42 43  1  0  0  0
 42 66  1  0  0  0
 42112  1  0  0  0
 42113  1  0  0  0
 43 44  1  0  0  0
 44114  1  0  0  0
 45 46  2  0  0  0
 45115  1  0  0  0
 46116  1  0  0  0
 47117  1  0  0  0
 47118  1  0  0  0
 48 56  1  0  0  0
 48 65  1  0  0  0
 48119  1  0  0  0
 49 50  1  0  0  0
 49 53  1  0  0  0
 49 64  1  0  0  0
 49120  1  0  0  0
 50 51  1  0  0  0
 50121  1  0  0  0
 50122  1  0  0  0
 51 52  1  0  0  0
 51123  1  0  0  0
 51124  1  0  0  0
 52125  1  0  0  0
 52126  1  0  0  0
 53 54  1  0  0  0
 54 55  2  0  0  0
 54127  1  0  0  0
 55 57  1  0  0  0
 55128  1  0  0  0
 56 69  2  0  0  0
 57 58  2  0  0  0
 57129  1  0  0  0
 58130  1  0  0  0
 59 60  1  0  0  0
 59 61  1  0  0  0
 59 62  1  0  0  0
 60131  1  0  0  0
 60132  1  0  0  0
 60133  1  0  0  0
 61134  1  0  0  0
 61135  1  0  0  0
 61136  1  0  0  0
 62137  1  0  0  0
 62138  1  0  0  0
 62139  1  0  0  0
 63 65  1  0  0  0
 63140  1  0  0  0
 63141  1  0  0  0
 63142  1  0  0  0
 64143  1  0  0  0
 65144  1  0  0  0
 68 82  1  0  0  0
 71 72  1  0  0  0
 71 74  2  0  0  0
 71145  1  0  0  0
 72 73  2  0  0  0
 72 80  1  0  0  0
 73 76  1  0  0  0
 73 85  1  0  0  0
 74 83  1  0  0  0
 74 85  1  0  0  0
 75 81  1  0  0  0
 75 83  1  0  0  0
 75 84  2  0  0  0
 76 77  1  0  0  0
 76146  1  0  0  0
 76147  1  0  0  0
 77 78  1  0  0  0
 77148  1  0  0  0
 77149  1  0  0  0
 78 79  1  0  0  0
 78150  1  0  0  0
 78151  1  0  0  0
 79 80  1  0  0  0
 79152  1  0  0  0
 79153  1  0  0  0
 80154  1  0  0  0
 81 82  1  0  0  0
 81155  1  0  0  0
 81156  1  0  0  0
 82157  1  0  0  0
 82158  1  0  0  0
 83159  1  0  0  0
M  ISO  4   1 100  68 101  80 100  82 101
M  END
> <chiral flag>
0

> <version>
0

> <s_m_source_file>
/data/baiqing/PycharmProjects/Reinvent-master-3.2/result/LINK_invent/BTK/process_docking_weight1_custom_product_contain_oxygen_bond_distance_aromatic_linkinvent_7_9_3/rearranged_h_0160.sdf

> <i_m_source_file_index>
85

> <r_mmod_Potential_Energy-OPLS-2005>
362.501434326172

> <r_mmod_Stretch_Energy-OPLS-2005>
149.566436767578

> <r_mmod_Bend_Energy-OPLS-2005>
262.940185546875

> <r_mmod_Torsional_Energy-OPLS-2005>
236.800186157227

> <r_mmod_Improper_Torsional_Energy-OPLS-2005>
9.3929386138916

> <r_mmod_Van_der_Waal_Energy-OPLS-2005>
139.367263793945

> <r_mmod_Electrostatic_Energy-OPLS-2005>
-320.523101806641

> <r_mmod_Solvation_Energy-OPLS-2005>
-216.295196533203

> <b_mmod_Minimization_Converged-OPLS-2005>
0

> <r_mmod_RMS_Derivative-OPLS-2005>
12.442943572998

$$$$
86
                    3D
 Structure written by MMmdl.
164173  0  0  1  0            999 V2000
  -30.7064  -14.4512   20.6125 C   0  0  0  0  0  0
  -30.4281  -12.3089   19.4121 C   0  0  0  0  0  0
  -29.4954  -12.5199   18.2020 C   0  0  0  0  0  0
  -28.0172  -12.3764   18.6144 C   0  0  0  0  0  0
  -27.6660  -13.2027   19.8803 C   0  0  2  0  0  0
  -28.7067  -12.9566   20.9961 C   0  0  0  0  0  0
  -25.2621  -13.8151   20.5692 C   0  0  0  0  0  0
  -24.1855  -13.0439   20.9172 C   0  0  0  0  0  0
  -24.6395  -11.6899   20.8722 C   0  0  0  0  0  0
  -23.9054  -10.4293   21.0393 C   0  0  0  0  0  0
  -24.3609   -9.4212   21.9175 C   0  0  0  0  0  0
  -23.6288   -8.2247   22.0748 C   0  0  0  0  0  0
  -22.4267   -8.0282   21.3541 C   0  0  0  0  0  0
  -21.9893   -9.0254   20.4648 C   0  0  0  0  0  0
  -22.7221  -10.2137   20.3056 C   0  0  0  0  0  0
  -21.6856   -6.0729   22.5276 C   0  0  0  0  0  0
  -21.4014   -6.5633   23.8207 C   0  0  0  0  0  0
  -21.3656   -5.6789   24.9167 C   0  0  0  0  0  0
  -21.6044   -4.3052   24.7219 C   0  0  0  0  0  0
  -21.8824   -3.8140   23.4346 C   0  0  0  0  0  0
  -21.9198   -4.6957   22.3402 C   0  0  0  0  0  0
  -22.7882  -13.5249   21.1835 C   0  0  0  0  0  0
  -22.1670   -4.2142   21.0977 F   0  0  0  0  0  0
  -21.5625   -3.4538   25.7739 F   0  0  0  0  0  0
  -30.0404  -13.2740   20.4529 N   0  0  0  0  0  0
  -26.3046  -12.9308   20.3373 N   0  0  0  0  0  0
  -25.9322  -11.6469   20.5737 N   0  0  0  0  0  0
  -22.0518  -12.8255   22.0395 N   0  0  0  0  0  0
  -25.4386  -15.1867   20.4140 N   0  0  0  0  0  0
  -31.8044  -14.6663   20.0912 O   0  0  0  0  0  0
  -21.6642   -6.8872   21.4237 O   0  0  0  0  0  0
  -22.3574  -14.5554   20.6679 O   0  0  0  0  0  0
  -24.6159  -31.8693   23.2125 C   0  0  0  0  0  0
  -25.9058  -32.4824   23.8409 C   0  0  1  0  0  0
  -27.2238  -27.4243   20.0900 C   0  0  0  0  0  0
  -25.5925  -33.8624   24.2342 N   0  0  0  0  0  0
  -23.4023  -30.4968   21.5543 C   0  0  2  0  0  0
  -24.8448  -28.9701   20.1130 C   0  0  0  0  0  0
  -22.7414  -29.4668   22.4988 C   0  0  0  0  0  0
  -18.0279  -28.1378   22.8484 C   0  0  0  0  0  0
  -24.1486  -36.7311   23.2626 C   0  0  0  0  0  0
  -25.9350  -30.8310   21.3697 C   0  0  0  0  0  0
  -26.0090  -29.4678   20.7113 C   0  0  0  0  0  0
  -27.2004  -28.7029   20.6977 C   0  0  0  0  0  0
  -26.0359  -26.9546   19.4750 C   0  0  0  0  0  0
  -24.8541  -27.7128   19.4924 C   0  0  0  0  0  0
  -23.6091  -29.8380   20.1664 C   0  0  0  0  0  0
  -25.4099  -36.3106   24.0335 C   0  0  1  0  0  0
  -20.5867  -28.3664   23.1312 C   0  0  2  0  0  0
  -20.6774  -26.9400   22.5422 C   0  0  0  0  0  0
  -19.5755  -26.6377   21.5215 C   0  0  0  0  0  0
  -18.1927  -26.7929   22.1612 C   0  0  0  0  0  0
  -19.1529  -28.8837   23.2896 C   0  0  0  0  0  0
  -18.9456  -30.1443   23.8909 C   0  0  0  0  0  0
  -17.6457  -30.6580   24.0565 C   0  0  0  0  0  0
  -25.9035  -34.9474   23.5128 C   0  0  0  0  0  0
  -16.5350  -29.9082   23.6327 C   0  0  0  0  0  0
  -16.7268  -28.6500   23.0344 C   0  0  0  0  0  0
  -26.4478  -31.6598   25.0733 C   0  0  0  0  0  0
  -25.3746  -31.3752   26.1495 C   0  0  0  0  0  0
  -27.0274  -30.3018   24.6125 C   0  0  0  0  0  0
  -27.6081  -32.4296   25.7469 C   0  0  0  0  0  0
  -27.5595  -37.1779   24.8438 C   0  0  0  0  0  0
  -21.4143  -29.3032   22.3717 N   0  0  0  0  0  0
  -26.4278  -37.3798   23.9427 N   0  0  0  0  0  0
  -24.6692  -31.0793   22.1033 N   0  0  0  0  0  0
  -23.4188  -28.8200   23.3020 O   0  0  0  0  0  0
  -28.3847  -26.6674   20.1225 O   0  0  0  0  0  0
  -26.5588  -34.8924   22.4685 O   0  0  0  0  0  0
  -23.5354  -32.1453   23.7519 O   0  0  0  0  0  0
  -31.5694  -17.3707   21.3959 C   0  0  0  0  0  0
  -29.1929  -17.6230   21.8145 C   0  0  0  0  0  0
  -30.6703  -19.5713   22.0333 C   0  0  0  0  0  0
  -31.7703  -18.7461   21.6664 C   0  0  0  0  0  0
  -30.2824  -16.7871   21.4819 C   0  0  0  0  0  0
  -29.3788  -18.9974   22.0807 C   0  0  0  0  0  0
  -30.8759  -20.9937   22.5058 C   0  0  0  0  0  0
  -29.1686  -22.8949   19.8286 C   0  0  0  0  0  0
  -29.7909  -24.4116   21.7186 C   0  0  0  0  0  0
  -30.2983  -21.9239   20.2398 C   0  0  0  0  0  0
  -30.9280  -23.4290   22.0763 C   0  0  0  0  0  0
  -29.4441  -24.3657   20.2208 C   0  0  0  0  0  0
  -33.1847  -19.3022   21.5767 C   0  0  0  0  0  0
  -28.2380  -25.2610   19.8442 C   0  0  0  0  0  0
  -30.6209  -22.0406   21.6716 N   0  0  0  0  0  0
  -30.0234  -15.3897   21.3013 N   0  0  0  0  0  0
  -31.2999  -21.1518   23.6561 O   0  0  0  0  0  0
  -28.3052  -19.7522   22.4228 F   0  0  0  0  0  0
  -30.5017  -24.7814   19.5202 F   0  0  0  0  0  0
  -31.4709  -12.4170   19.1085 H   0  0  0  0  0  0
  -30.3363  -11.2909   19.7938 H   0  0  0  0  0  0
  -29.7341  -11.8059   17.4127 H   0  0  0  0  0  0
  -29.6646  -13.5117   17.7780 H   0  0  0  0  0  0
  -27.8249  -11.3185   18.7973 H   0  0  0  0  0  0
  -27.3677  -12.6648   17.7871 H   0  0  0  0  0  0
  -27.7180  -14.2549   19.6001 H   0  0  0  0  0  0
  -28.6832  -11.9112   21.3073 H   0  0  0  0  0  0
  -28.4594  -13.5236   21.8946 H   0  0  0  0  0  0
  -25.2752   -9.5693   22.4748 H   0  0  0  0  0  0
  -24.0005   -7.4635   22.7458 H   0  0  0  0  0  0
  -21.0822   -8.8773   19.8953 H   0  0  0  0  0  0
  -22.3671  -10.9680   19.6173 H   0  0  0  0  0  0
  -21.2006   -7.6146   23.9706 H   0  0  0  0  0  0
  -21.1470   -6.0518   25.9067 H   0  0  0  0  0  0
  -22.0607   -2.7603   23.2853 H   0  0  0  0  0  0
  -22.4130  -11.9928   22.4809 H   0  0  0  0  0  0
  -21.1133  -13.1285   22.2583 H   0  0  0  0  0  0
  -24.6770  -15.8474   20.5247 H   0  0  0  0  0  0
  -26.2938  -15.6201   20.0900 H   0  0  0  0  0  0
  -26.7125  -32.5528   23.1170 H   0  0  0  0  0  0
  -25.0109  -33.9789   25.0510 H   0  0  0  0  0  0
  -22.6912  -31.3145   21.4206 H   0  0  0  0  0  0
  -23.3757  -35.9633   23.3257 H   0  0  0  0  0  0
  -24.3599  -36.8959   22.2049 H   0  0  0  0  0  0
  -23.7220  -37.6497   23.6664 H   0  0  0  0  0  0
  -26.0551  -31.6003   20.6058 H   0  0  0  0  0  0
  -26.8204  -30.8766   21.9920 H   0  0  0  0  0  0
  -28.0968  -29.0816   21.1693 H   0  0  0  0  0  0
  -25.9881  -26.0013   18.9707 H   0  0  0  0  0  0
  -23.9606  -27.3254   19.0221 H   0  0  0  0  0  0
  -23.7187  -30.6175   19.4116 H   0  0  0  0  0  0
  -22.7307  -29.2627   19.8673 H   0  0  0  0  0  0
  -25.1260  -36.1965   25.0823 H   0  0  0  0  0  0
  -20.9959  -28.3245   24.1433 H   0  0  0  0  0  0
  -20.5678  -26.2273   23.3609 H   0  0  0  0  0  0
  -21.6650  -26.7445   22.1220 H   0  0  0  0  0  0
  -19.6919  -25.6291   21.1236 H   0  0  0  0  0  0
  -19.6698  -27.3194   20.6752 H   0  0  0  0  0  0
  -17.4204  -26.6690   21.4004 H   0  0  0  0  0  0
  -18.0308  -26.0062   22.8994 H   0  0  0  0  0  0
  -19.7930  -30.7261   24.2281 H   0  0  0  0  0  0
  -17.5010  -31.6259   24.5163 H   0  0  0  0  0  0
  -15.5352  -30.2988   23.7641 H   0  0  0  0  0  0
  -15.8669  -28.0825   22.7049 H   0  0  0  0  0  0
  -24.5907  -30.7097   25.7865 H   0  0  0  0  0  0
  -24.8955  -32.2930   26.4914 H   0  0  0  0  0  0
  -25.8097  -30.8953   27.0268 H   0  0  0  0  0  0
  -26.2806  -29.6798   24.1175 H   0  0  0  0  0  0
  -27.4009  -29.7246   25.4592 H   0  0  0  0  0  0
  -27.8671  -30.4301   23.9291 H   0  0  0  0  0  0
  -27.2730  -33.3588   26.2090 H   0  0  0  0  0  0
  -28.3861  -32.6860   25.0265 H   0  0  0  0  0  0
  -28.0780  -31.8387   26.5341 H   0  0  0  0  0  0
  -28.2562  -38.0128   24.7582 H   0  0  0  0  0  0
  -28.1144  -36.2674   24.6123 H   0  0  0  0  0  0
  -27.2343  -37.1261   25.8844 H   0  0  0  0  0  0
  -20.9302  -29.8755   21.6943 H   0  0  0  0  0  0
  -26.0165  -38.2859   24.1504 H   0  0  0  0  0  0
  -32.4299  -16.7642   21.1545 H   0  0  0  0  0  0
  -28.1962  -17.2129   21.8910 H   0  0  0  0  0  0
  -28.2390  -22.5649   20.2950 H   0  0  0  0  0  0
  -29.0046  -22.8259   18.7525 H   0  0  0  0  0  0
  -30.0759  -25.4253   22.0024 H   0  0  0  0  0  0
  -28.9054  -24.1700   22.3084 H   0  0  0  0  0  0
  -31.1998  -22.1434   19.6662 H   0  0  0  0  0  0
  -30.0025  -20.9136   19.9590 H   0  0  0  0  0  0
  -31.1228  -23.5182   23.1456 H   0  0  0  0  0  0
  -31.8513  -23.7346   21.5825 H   0  0  0  0  0  0
  -33.8789  -18.5670   21.1677 H   0  0  0  0  0  0
  -33.5510  -19.5911   22.5628 H   0  0  0  0  0  0
  -33.2163  -20.1763   20.9247 H   0  0  0  0  0  0
  -27.3717  -24.8726   20.3836 H   0  0  0  0  0  0
  -28.0384  -25.1386   18.7785 H   0  0  0  0  0  0
  -29.1292  -15.0654   21.6359 H   0  0  0  0  0  0
  1 25  1  0  0  0
  1 30  2  0  0  0
  1 86  1  0  0  0
  2  3  1  0  0  0
  2 25  1  0  0  0
  2 90  1  0  0  0
  2 91  1  0  0  0
  3  4  1  0  0  0
  3 92  1  0  0  0
  3 93  1  0  0  0
  4  5  1  0  0  0
  4 94  1  0  0  0
  4 95  1  0  0  0
  5  6  1  0  0  0
  5 26  1  0  0  0
  5 96  1  0  0  0
  6 25  1  0  0  0
  6 97  1  0  0  0
  6 98  1  0  0  0
  7  8  2  0  0  0
  7 26  1  0  0  0
  7 29  1  0  0  0
  8  9  1  0  0  0
  8 22  1  0  0  0
  9 10  1  0  0  0
  9 27  2  0  0  0
 10 11  2  0  0  0
 10 15  1  0  0  0
 11 12  1  0  0  0
 11 99  1  0  0  0
 12 13  2  0  0  0
 12100  1  0  0  0
 13 14  1  0  0  0
 13 31  1  0  0  0
 14 15  2  0  0  0
 14101  1  0  0  0
 15102  1  0  0  0
 16 17  2  0  0  0
 16 21  1  0  0  0
 16 31  1  0  0  0
 17 18  1  0  0  0
 17103  1  0  0  0
 18 19  2  0  0  0
 18104  1  0  0  0
 19 20  1  0  0  0
 19 24  1  0  0  0
 20 21  2  0  0  0
 20105  1  0  0  0
 21 23  1  0  0  0
 22 28  1  0  0  0
 22 32  2  0  0  0
 26 27  1  0  0  0
 28106  1  0  0  0
 28107  1  0  0  0
 29108  1  0  0  0
 29109  1  0  0  0
 33 34  1  0  0  0
 33 66  1  0  0  0
 33 70  2  0  0  0
 34 36  1  0  0  0
 34 59  1  0  0  0
 34110  1  0  0  0
 35 44  2  0  0  0
 35 45  1  0  0  0
 35 68  1  0  0  0
 36 56  1  0  0  0
 36111  1  0  0  0
 37 39  1  0  0  0
 37 47  1  0  0  0
 37 66  1  0  0  0
 37112  1  0  0  0
 38 43  2  0  0  0
 38 46  1  0  0  0
 38 47  1  0  0  0
 39 64  1  0  0  0
 39 67  2  0  0  0
 40 52  1  0  0  0
 40 53  2  0  0  0
 40 58  1  0  0  0
 41113  1  0  0  0
 41114  1  0  0  0
 41115  1  0  0  0
 41 48  1  0  0  0
 42 43  1  0  0  0
 42 66  1  0  0  0
 42116  1  0  0  0
 42117  1  0  0  0
 43 44  1  0  0  0
 44118  1  0  0  0
 45 46  2  0  0  0
 45119  1  0  0  0
 46120  1  0  0  0
 47121  1  0  0  0
 47122  1  0  0  0
 48 56  1  0  0  0
 48 65  1  0  0  0
 48123  1  0  0  0
 49 50  1  0  0  0
 49 53  1  0  0  0
 49 64  1  0  0  0
 49124  1  0  0  0
 50 51  1  0  0  0
 50125  1  0  0  0
 50126  1  0  0  0
 51 52  1  0  0  0
 51127  1  0  0  0
 51128  1  0  0  0
 52129  1  0  0  0
 52130  1  0  0  0
 53 54  1  0  0  0
 54 55  2  0  0  0
 54131  1  0  0  0
 55 57  1  0  0  0
 55132  1  0  0  0
 56 69  2  0  0  0
 57 58  2  0  0  0
 57133  1  0  0  0
 58134  1  0  0  0
 59 60  1  0  0  0
 59 61  1  0  0  0
 59 62  1  0  0  0
 60135  1  0  0  0
 60136  1  0  0  0
 60137  1  0  0  0
 61138  1  0  0  0
 61139  1  0  0  0
 61140  1  0  0  0
 62141  1  0  0  0
 62142  1  0  0  0
 62143  1  0  0  0
 63 65  1  0  0  0
 63144  1  0  0  0
 63145  1  0  0  0
 63146  1  0  0  0
 64147  1  0  0  0
 65148  1  0  0  0
 68 84  1  0  0  0
 71 74  2  0  0  0
 71 75  1  0  0  0
 71149  1  0  0  0
 72 75  2  0  0  0
 72 76  1  0  0  0
 72150  1  0  0  0
 73 74  1  0  0  0
 73 76  2  0  0  0
 73 77  1  0  0  0
 74 83  1  0  0  0
 75 86  1  0  0  0
 76 88  1  0  0  0
 77 85  1  0  0  0
 77 87  2  0  0  0
 78 80  1  0  0  0
 78 82  1  0  0  0
 78151  1  0  0  0
 78152  1  0  0  0
 79 81  1  0  0  0
 79 82  1  0  0  0
 79153  1  0  0  0
 79154  1  0  0  0
 80 85  1  0  0  0
 80155  1  0  0  0
 80156  1  0  0  0
 81 85  1  0  0  0
 81157  1  0  0  0
 81158  1  0  0  0
 82 84  1  0  0  0
 82 89  1  0  0  0
 83159  1  0  0  0
 83160  1  0  0  0
 83161  1  0  0  0
 84162  1  0  0  0
 84163  1  0  0  0
 86164  1  0  0  0
M  ISO  4   1 100  68 101  84 101  86 100
M  END
> <chiral flag>
0

> <version>
0

> <s_m_source_file>
/data/baiqing/PycharmProjects/Reinvent-master-3.2/result/LINK_invent/BTK/process_docking_weight1_custom_product_contain_oxygen_bond_distance_aromatic_linkinvent_7_9_3/rearranged_h_0160.sdf

> <i_m_source_file_index>
86

> <r_mmod_Potential_Energy-OPLS-2005>
136.606216430664

> <r_mmod_Stretch_Energy-OPLS-2005>
42.7391204833984

> <r_mmod_Bend_Energy-OPLS-2005>
108.568542480469

> <r_mmod_Torsional_Energy-OPLS-2005>
298.958709716797

> <r_mmod_Improper_Torsional_Energy-OPLS-2005>
3.68296885490417

> <r_mmod_Van_der_Waal_Energy-OPLS-2005>
172.715774536133

> <r_mmod_Electrostatic_Energy-OPLS-2005>
-288.650665283203

> <r_mmod_Solvation_Energy-OPLS-2005>
-213.903427124023

> <b_mmod_Minimization_Converged-OPLS-2005>
0

> <r_mmod_RMS_Derivative-OPLS-2005>
1.04936254024506

$$$$
87
                    3D
 Structure written by MMmdl.
159167  0  0  1  0            999 V2000
  -30.6508  -14.6281   20.3952 C   0  0  0  0  0  0
  -30.4099  -12.3674   19.4846 C   0  0  0  0  0  0
  -29.5150  -12.4805   18.2357 C   0  0  0  0  0  0
  -28.0319  -12.3340   18.6312 C   0  0  0  0  0  0
  -27.6299  -13.2216   19.8441 C   0  0  2  0  0  0
  -28.6590  -13.1065   20.9825 C   0  0  0  0  0  0
  -25.2447  -13.8110   20.5603 C   0  0  0  0  0  0
  -24.1722  -13.0385   20.9175 C   0  0  0  0  0  0
  -24.6290  -11.6881   20.8677 C   0  0  0  0  0  0
  -23.8976  -10.4253   21.0367 C   0  0  0  0  0  0
  -24.3539   -9.4199   21.9161 C   0  0  0  0  0  0
  -23.6229   -8.2218   22.0737 C   0  0  0  0  0  0
  -22.4222   -8.0212   21.3505 C   0  0  0  0  0  0
  -21.9820   -9.0187   20.4632 C   0  0  0  0  0  0
  -22.7125  -10.2081   20.3051 C   0  0  0  0  0  0
  -21.6854   -6.0687   22.5268 C   0  0  0  0  0  0
  -21.4018   -6.5610   23.8204 C   0  0  0  0  0  0
  -21.3646   -5.6755   24.9170 C   0  0  0  0  0  0
  -21.6043   -4.3024   24.7220 C   0  0  0  0  0  0
  -21.8855   -3.8113   23.4354 C   0  0  0  0  0  0
  -21.9222   -4.6919   22.3393 C   0  0  0  0  0  0
  -22.7747  -13.5231   21.1853 C   0  0  0  0  0  0
  -22.1695   -4.2099   21.0962 F   0  0  0  0  0  0
  -21.5615   -3.4516   25.7756 F   0  0  0  0  0  0
  -29.9771  -13.4287   20.4141 N   0  0  0  0  0  0
  -26.2815  -12.9294   20.3148 N   0  0  0  0  0  0
  -25.9197  -11.6461   20.5586 N   0  0  0  0  0  0
  -22.0336  -12.8251   22.0418 N   0  0  0  0  0  0
  -25.4115  -15.1809   20.4021 N   0  0  0  0  0  0
  -31.8526  -14.6542   20.1206 O   0  0  0  0  0  0
  -21.6626   -6.8800   21.4207 O   0  0  0  0  0  0
  -22.3506  -14.5573   20.6737 O   0  0  0  0  0  0
  -24.6209  -31.8600   23.1970 C   0  0  0  0  0  0
  -25.9060  -32.4785   23.8316 C   0  0  1  0  0  0
  -27.2242  -27.3276   20.1078 C   0  0  0  0  0  0
  -25.5895  -33.8580   24.2204 N   0  0  0  0  0  0
  -23.4169  -30.4671   21.5427 C   0  0  2  0  0  0
  -24.8675  -28.9180   20.1147 C   0  0  0  0  0  0
  -22.7478  -29.4575   22.5046 C   0  0  0  0  0  0
  -18.0300  -28.1366   22.8480 C   0  0  0  0  0  0
  -24.1481  -36.7277   23.2621 C   0  0  0  0  0  0
  -25.9552  -30.7821   21.3777 C   0  0  0  0  0  0
  -26.0311  -29.4083   20.7228 C   0  0  0  0  0  0
  -27.2153  -28.6170   20.7205 C   0  0  0  0  0  0
  -26.0588  -26.9074   19.4401 C   0  0  0  0  0  0
  -24.8809  -27.6728   19.4677 C   0  0  0  0  0  0
  -23.6236  -29.7770   20.1666 C   0  0  0  0  0  0
  -25.4103  -36.3068   24.0299 C   0  0  1  0  0  0
  -20.5862  -28.3628   23.1329 C   0  0  2  0  0  0
  -20.6773  -26.9374   22.5413 C   0  0  0  0  0  0
  -19.5745  -26.6351   21.5213 C   0  0  0  0  0  0
  -18.1908  -26.7925   22.1614 C   0  0  0  0  0  0
  -19.1539  -28.8818   23.2873 C   0  0  0  0  0  0
  -18.9464  -30.1415   23.8892 C   0  0  0  0  0  0
  -17.6473  -30.6598   24.0527 C   0  0  0  0  0  0
  -25.9061  -34.9441   23.5049 C   0  0  0  0  0  0
  -16.5370  -29.9095   23.6330 C   0  0  0  0  0  0
  -16.7286  -28.6499   23.0371 C   0  0  0  0  0  0
  -26.4407  -31.6638   25.0709 C   0  0  0  0  0  0
  -25.3599  -31.3904   26.1434 C   0  0  0  0  0  0
  -27.0239  -30.3033   24.6248 C   0  0  0  0  0  0
  -27.5935  -32.4435   25.7529 C   0  0  0  0  0  0
  -27.5619  -37.1694   24.8383 C   0  0  0  0  0  0
  -21.4193  -29.2997   22.3780 N   0  0  0  0  0  0
  -26.4250  -37.3786   23.9478 N   0  0  0  0  0  0
  -24.6798  -31.0600   22.0920 N   0  0  0  0  0  0
  -23.4231  -28.8122   23.3118 O   0  0  0  0  0  0
  -28.3337  -26.4774   20.1046 O   0  0  0  0  0  0
  -26.5656  -34.8937   22.4629 O   0  0  0  0  0  0
  -23.5360  -32.1434   23.7237 O   0  0  0  0  0  0
  -29.6614  -18.9608   21.2510 C   0  0  0  0  0  0
  -29.3267  -20.8466   19.1995 C   0  0  0  0  0  0
  -29.8034  -18.4838   19.9251 C   0  0  0  0  0  0
  -29.2410  -21.3226   20.5228 C   0  0  0  0  0  0
  -29.4080  -20.3348   21.5395 C   0  0  0  0  0  0
  -29.6176  -19.4795   18.9030 C   0  0  0  0  0  0
  -30.2557  -17.0552   19.6295 C   0  0  0  0  0  0
  -26.9882  -24.8658   21.5620 C   0  0  0  0  0  0
  -29.4166  -25.4471   21.9209 C   0  0  0  0  0  0
  -28.7478  -23.8932   20.0172 C   0  0  0  0  0  0
  -28.3306  -25.1912   20.8549 C   0  0  0  0  0  0
  -29.0543  -22.7057   20.8735 N   0  0  0  0  0  0
  -29.9085  -15.9188   20.3586 N   0  0  0  0  0  0
  -31.0496  -16.9148   18.5520 N   0  3  0  0  0  0
  -29.3649  -20.7257   22.8390 F   0  0  0  0  0  0
  -29.7746  -19.1438   17.5993 F   0  0  0  0  0  0
  -31.4594  -12.4625   19.1977 H   0  0  0  0  0  0
  -30.3156  -11.3838   19.9533 H   0  0  0  0  0  0
  -29.8020  -11.7015   17.5285 H   0  0  0  0  0  0
  -29.6931  -13.4334   17.7284 H   0  0  0  0  0  0
  -27.8798  -11.2842   18.8825 H   0  0  0  0  0  0
  -27.3936  -12.5340   17.7703 H   0  0  0  0  0  0
  -27.6369  -14.2548   19.5064 H   0  0  0  0  0  0
  -28.6459  -12.0798   21.3661 H   0  0  0  0  0  0
  -28.3884  -13.7466   21.8262 H   0  0  0  0  0  0
  -25.2696   -9.5729   22.4716 H   0  0  0  0  0  0
  -23.9962   -7.4647   22.7472 H   0  0  0  0  0  0
  -21.0766   -8.8719   19.8926 H   0  0  0  0  0  0
  -22.3583  -10.9621   19.6170 H   0  0  0  0  0  0
  -21.2010   -7.6129   23.9691 H   0  0  0  0  0  0
  -21.1412   -6.0486   25.9060 H   0  0  0  0  0  0
  -22.0648   -2.7564   23.2895 H   0  0  0  0  0  0
  -22.3874  -11.9951   22.4880 H   0  0  0  0  0  0
  -21.0931  -13.1300   22.2520 H   0  0  0  0  0  0
  -24.6167  -15.8038   20.4991 H   0  0  0  0  0  0
  -26.2315  -15.6350   20.0222 H   0  0  0  0  0  0
  -26.7136  -32.5438   23.1093 H   0  0  0  0  0  0
  -24.9952  -33.9765   25.0295 H   0  0  0  0  0  0
  -22.7041  -31.2763   21.3839 H   0  0  0  0  0  0
  -23.3811  -35.9520   23.3080 H   0  0  0  0  0  0
  -24.3635  -36.9123   22.2079 H   0  0  0  0  0  0
  -23.7109  -37.6351   23.6807 H   0  0  0  0  0  0
  -26.0976  -31.5377   20.6051 H   0  0  0  0  0  0
  -26.8328  -30.8281   22.0107 H   0  0  0  0  0  0
  -28.1126  -28.9732   21.2077 H   0  0  0  0  0  0
  -26.0596  -25.9692   18.9084 H   0  0  0  0  0  0
  -23.9932  -27.2907   18.9816 H   0  0  0  0  0  0
  -23.7010  -30.5235   19.3746 H   0  0  0  0  0  0
  -22.7592  -29.1599   19.9096 H   0  0  0  0  0  0
  -25.1258  -36.1836   25.0769 H   0  0  0  0  0  0
  -20.9955  -28.3144   24.1452 H   0  0  0  0  0  0
  -20.5653  -26.2228   23.3581 H   0  0  0  0  0  0
  -21.6628  -26.7364   22.1188 H   0  0  0  0  0  0
  -19.6888  -25.6253   21.1226 H   0  0  0  0  0  0
  -19.6701  -27.3165   20.6751 H   0  0  0  0  0  0
  -17.4174  -26.6635   21.4018 H   0  0  0  0  0  0
  -18.0307  -26.0096   22.9042 H   0  0  0  0  0  0
  -19.7957  -30.7213   24.2320 H   0  0  0  0  0  0
  -17.5043  -31.6283   24.5079 H   0  0  0  0  0  0
  -15.5368  -30.2971   23.7703 H   0  0  0  0  0  0
  -15.8639  -28.0780   22.7161 H   0  0  0  0  0  0
  -24.5657  -30.7438   25.7730 H   0  0  0  0  0  0
  -24.8955  -32.3165   26.4846 H   0  0  0  0  0  0
  -25.7807  -30.9007   27.0214 H   0  0  0  0  0  0
  -26.2829  -29.6870   24.1167 H   0  0  0  0  0  0
  -27.3768  -29.7263   25.4798 H   0  0  0  0  0  0
  -27.8772  -30.4300   23.9590 H   0  0  0  0  0  0
  -27.2437  -33.3671   26.2190 H   0  0  0  0  0  0
  -28.3699  -32.7157   25.0364 H   0  0  0  0  0  0
  -28.0676  -31.8555   26.5415 H   0  0  0  0  0  0
  -28.2323  -38.0279   24.7860 H   0  0  0  0  0  0
  -28.1429  -36.2861   24.5664 H   0  0  0  0  0  0
  -27.2446  -37.0638   25.8776 H   0  0  0  0  0  0
  -20.9448  -29.8752   21.6951 H   0  0  0  0  0  0
  -26.0088  -38.2776   24.1771 H   0  0  0  0  0  0
  -29.8025  -18.2685   22.0702 H   0  0  0  0  0  0
  -29.2187  -21.5679   18.4034 H   0  0  0  0  0  0
  -27.0923  -24.0339   22.2657 H   0  0  0  0  0  0
  -26.2408  -24.5420   20.8370 H   0  0  0  0  0  0
  -26.5680  -25.7087   22.1080 H   0  0  0  0  0  0
  -29.4356  -24.6631   22.6792 H   0  0  0  0  0  0
  -29.2517  -26.3900   22.4513 H   0  0  0  0  0  0
  -30.4071  -25.4913   21.4651 H   0  0  0  0  0  0
  -29.6180  -24.1551   19.4085 H   0  0  0  0  0  0
  -27.9603  -23.6266   19.3075 H   0  0  0  0  0  0
  -29.2361  -22.9271   21.8468 H   0  0  0  0  0  0
  -28.9864  -16.0043   20.7426 H   0  0  0  0  0  0
  -31.4574  -17.7284   18.1051 H   0  0  0  0  0  0
  -31.1796  -16.0239   18.0960 H   0  0  0  0  0  0
  1 25  1  0  0  0
  1 30  2  0  0  0
  1 83  1  0  0  0
  2  3  1  0  0  0
  2 25  1  0  0  0
  2 87  1  0  0  0
  2 88  1  0  0  0
  3  4  1  0  0  0
  3 89  1  0  0  0
  3 90  1  0  0  0
  4  5  1  0  0  0
  4 91  1  0  0  0
  4 92  1  0  0  0
  5  6  1  0  0  0
  5 26  1  0  0  0
  5 93  1  0  0  0
  6 25  1  0  0  0
  6 94  1  0  0  0
  6 95  1  0  0  0
  7  8  2  0  0  0
  7 26  1  0  0  0
  7 29  1  0  0  0
  8  9  1  0  0  0
  8 22  1  0  0  0
  9 10  1  0  0  0
  9 27  2  0  0  0
 10 11  2  0  0  0
 10 15  1  0  0  0
 11 12  1  0  0  0
 11 96  1  0  0  0
 12 13  2  0  0  0
 12 97  1  0  0  0
 13 14  1  0  0  0
 13 31  1  0  0  0
 14 15  2  0  0  0
 14 98  1  0  0  0
 15 99  1  0  0  0
 16 17  2  0  0  0
 16 21  1  0  0  0
 16 31  1  0  0  0
 17 18  1  0  0  0
 17100  1  0  0  0
 18 19  2  0  0  0
 18101  1  0  0  0
 19 20  1  0  0  0
 19 24  1  0  0  0
 20 21  2  0  0  0
 20102  1  0  0  0
 21 23  1  0  0  0
 22 28  1  0  0  0
 22 32  2  0  0  0
 26 27  1  0  0  0
 28103  1  0  0  0
 28104  1  0  0  0
 29105  1  0  0  0
 29106  1  0  0  0
 33 34  1  0  0  0
 33 66  1  0  0  0
 33 70  2  0  0  0
 34 36  1  0  0  0
 34 59  1  0  0  0
 34107  1  0  0  0
 35 44  2  0  0  0
 35 45  1  0  0  0
 35 68  1  0  0  0
 36 56  1  0  0  0
 36108  1  0  0  0
 37 39  1  0  0  0
 37 47  1  0  0  0
 37 66  1  0  0  0
 37109  1  0  0  0
 38 43  2  0  0  0
 38 46  1  0  0  0
 38 47  1  0  0  0
 39 64  1  0  0  0
 39 67  2  0  0  0
 40 52  1  0  0  0
 40 53  2  0  0  0
 40 58  1  0  0  0
 41110  1  0  0  0
 41111  1  0  0  0
 41112  1  0  0  0
 41 48  1  0  0  0
 42 43  1  0  0  0
 42 66  1  0  0  0
 42113  1  0  0  0
 42114  1  0  0  0
 43 44  1  0  0  0
 44115  1  0  0  0
 45 46  2  0  0  0
 45116  1  0  0  0
 46117  1  0  0  0
 47118  1  0  0  0
 47119  1  0  0  0
 48 56  1  0  0  0
 48 65  1  0  0  0
 48120  1  0  0  0
 49 50  1  0  0  0
 49 53  1  0  0  0
 49 64  1  0  0  0
 49121  1  0  0  0
 50 51  1  0  0  0
 50122  1  0  0  0
 50123  1  0  0  0
 51 52  1  0  0  0
 51124  1  0  0  0
 51125  1  0  0  0
 52126  1  0  0  0
 52127  1  0  0  0
 53 54  1  0  0  0
 54 55  2  0  0  0
 54128  1  0  0  0
 55 57  1  0  0  0
 55129  1  0  0  0
 56 69  2  0  0  0
 57 58  2  0  0  0
 57130  1  0  0  0
 58131  1  0  0  0
 59 60  1  0  0  0
 59 61  1  0  0  0
 59 62  1  0  0  0
 60132  1  0  0  0
 60133  1  0  0  0
 60134  1  0  0  0
 61135  1  0  0  0
 61136  1  0  0  0
 61137  1  0  0  0
 62138  1  0  0  0
 62139  1  0  0  0
 62140  1  0  0  0
 63 65  1  0  0  0
 63141  1  0  0  0
 63142  1  0  0  0
 63143  1  0  0  0
 64144  1  0  0  0
 65145  1  0  0  0
 68 81  1  0  0  0
 71 73  2  0  0  0
 71 75  1  0  0  0
 71146  1  0  0  0
 72 74  1  0  0  0
 72 76  2  0  0  0
 72147  1  0  0  0
 73 76  1  0  0  0
 73 77  1  0  0  0
 74 75  2  0  0  0
 74 82  1  0  0  0
 75 85  1  0  0  0
 76 86  1  0  0  0
 77 83  1  0  0  0
 77 84  2  0  0  0
 78148  1  0  0  0
 78149  1  0  0  0
 78150  1  0  0  0
 78 81  1  0  0  0
 79 81  1  0  0  0
 79151  1  0  0  0
 79152  1  0  0  0
 79153  1  0  0  0
 80 81  1  0  0  0
 80 82  1  0  0  0
 80154  1  0  0  0
 80155  1  0  0  0
 82156  1  0  0  0
 83157  1  0  0  0
 84158  1  0  0  0
 84159  1  0  0  0
M  CHG  1  84   1
M  ISO  4   1 100  68 101  81 101  83 100
M  END
> <chiral flag>
0

> <version>
0

> <s_m_source_file>
/data/baiqing/PycharmProjects/Reinvent-master-3.2/result/LINK_invent/BTK/process_docking_weight1_custom_product_contain_oxygen_bond_distance_aromatic_linkinvent_7_9_3/rearranged_h_0160.sdf

> <i_m_source_file_index>
87

> <r_mmod_Potential_Energy-OPLS-2005>
-92.0122909545898

> <r_mmod_Stretch_Energy-OPLS-2005>
87.6258773803711

> <r_mmod_Bend_Energy-OPLS-2005>
169.987380981445

> <r_mmod_Torsional_Energy-OPLS-2005>
269.538024902344

> <r_mmod_Improper_Torsional_Energy-OPLS-2005>
9.63586616516113

> <r_mmod_Van_der_Waal_Energy-OPLS-2005>
156.01448059082

> <r_mmod_Electrostatic_Energy-OPLS-2005>
-397.661407470703

> <r_mmod_Solvation_Energy-OPLS-2005>
-440.199829101562

> <b_mmod_Minimization_Converged-OPLS-2005>
0

> <r_mmod_RMS_Derivative-OPLS-2005>
10.2273941040039

$$$$
88
                    3D
 Structure written by MMmdl.
160169  0  0  1  0            999 V2000
  -30.6568  -14.5622   20.5297 C   0  0  0  0  0  0
  -30.4326  -12.3509   19.4380 C   0  0  0  0  0  0
  -29.5011  -12.5064   18.2162 C   0  0  0  0  0  0
  -28.0225  -12.3593   18.6253 C   0  0  0  0  0  0
  -27.6581  -13.2114   19.8698 C   0  0  2  0  0  0
  -28.7019  -13.0274   20.9954 C   0  0  0  0  0  0
  -25.2570  -13.8164   20.5682 C   0  0  0  0  0  0
  -24.1834  -13.0436   20.9189 C   0  0  0  0  0  0
  -24.6391  -11.6907   20.8738 C   0  0  0  0  0  0
  -23.9064  -10.4289   21.0401 C   0  0  0  0  0  0
  -24.3617   -9.4203   21.9178 C   0  0  0  0  0  0
  -23.6292   -8.2236   22.0750 C   0  0  0  0  0  0
  -22.4272   -8.0277   21.3542 C   0  0  0  0  0  0
  -21.9912   -9.0249   20.4640 C   0  0  0  0  0  0
  -22.7240  -10.2125   20.3048 C   0  0  0  0  0  0
  -21.6851   -6.0733   22.5283 C   0  0  0  0  0  0
  -21.4011   -6.5634   23.8219 C   0  0  0  0  0  0
  -21.3657   -5.6786   24.9179 C   0  0  0  0  0  0
  -21.6041   -4.3049   24.7229 C   0  0  0  0  0  0
  -21.8821   -3.8144   23.4349 C   0  0  0  0  0  0
  -21.9194   -4.6962   22.3406 C   0  0  0  0  0  0
  -22.7852  -13.5233   21.1857 C   0  0  0  0  0  0
  -22.1662   -4.2149   21.0981 F   0  0  0  0  0  0
  -21.5629   -3.4532   25.7741 F   0  0  0  0  0  0
  -30.0270  -13.3531   20.4393 N   0  0  0  0  0  0
  -26.3009  -12.9339   20.3341 N   0  0  0  0  0  0
  -25.9321  -11.6498   20.5759 N   0  0  0  0  0  0
  -22.0481  -12.8214   22.0399 N   0  0  0  0  0  0
  -25.4277  -15.1883   20.4090 N   0  0  0  0  0  0
  -31.8092  -14.7243   20.1140 O   0  0  0  0  0  0
  -21.6635   -6.8871   21.4245 O   0  0  0  0  0  0
  -22.3541  -14.5543   20.6711 O   0  0  0  0  0  0
  -24.6210  -31.8635   23.2063 C   0  0  0  0  0  0
  -25.9101  -32.4786   23.8360 C   0  0  1  0  0  0
  -27.2268  -27.3887   20.1075 C   0  0  0  0  0  0
  -25.5948  -33.8583   24.2309 N   0  0  0  0  0  0
  -23.4107  -30.4887   21.5461 C   0  0  2  0  0  0
  -24.8594  -28.9537   20.1068 C   0  0  0  0  0  0
  -22.7449  -29.4645   22.4945 C   0  0  0  0  0  0
  -18.0272  -28.1375   22.8472 C   0  0  0  0  0  0
  -24.1491  -36.7283   23.2632 C   0  0  0  0  0  0
  -25.9446  -30.8186   21.3643 C   0  0  0  0  0  0
  -26.0232  -29.4503   20.7095 C   0  0  0  0  0  0
  -27.2143  -28.6766   20.7042 C   0  0  0  0  0  0
  -26.0508  -26.9292   19.4779 C   0  0  0  0  0  0
  -24.8710  -27.6957   19.4824 C   0  0  0  0  0  0
  -23.6227  -29.8243   20.1595 C   0  0  0  0  0  0
  -25.4106  -36.3081   24.0335 C   0  0  1  0  0  0
  -20.5869  -28.3672   23.1288 C   0  0  2  0  0  0
  -20.6765  -26.9403   22.5402 C   0  0  0  0  0  0
  -19.5751  -26.6386   21.5192 C   0  0  0  0  0  0
  -18.1921  -26.7922   22.1598 C   0  0  0  0  0  0
  -19.1523  -28.8837   23.2878 C   0  0  0  0  0  0
  -18.9451  -30.1444   23.8893 C   0  0  0  0  0  0
  -17.6459  -30.6583   24.0551 C   0  0  0  0  0  0
  -25.9040  -34.9453   23.5110 C   0  0  0  0  0  0
  -16.5346  -29.9082   23.6338 C   0  0  0  0  0  0
  -16.7260  -28.6498   23.0350 C   0  0  0  0  0  0
  -26.4519  -31.6557   25.0691 C   0  0  0  0  0  0
  -25.3787  -31.3659   26.1441 C   0  0  0  0  0  0
  -27.0333  -30.2988   24.6066 C   0  0  0  0  0  0
  -27.6087  -32.4265   25.7479 C   0  0  0  0  0  0
  -27.5574  -37.1797   24.8467 C   0  0  0  0  0  0
  -21.4160  -29.3036   22.3697 N   0  0  0  0  0  0
  -26.4282  -37.3777   23.9419 N   0  0  0  0  0  0
  -24.6775  -31.0716   22.0975 N   0  0  0  0  0  0
  -23.4203  -28.8177   23.2992 O   0  0  0  0  0  0
  -28.3306  -26.5492   20.1464 O   0  0  0  0  0  0
  -26.5589  -34.8917   22.4661 O   0  0  0  0  0  0
  -23.5401  -32.1394   23.7457 O   0  0  0  0  0  0
  -30.9099  -19.0705   20.3444 C   0  0  0  0  0  0
  -29.6425  -19.5119   20.6666 C   0  0  0  0  0  0
  -29.9895  -17.0146   20.8029 C   0  0  0  0  0  0
  -29.3324  -21.8205   19.4492 C   0  0  0  0  0  0
  -29.5389  -21.7607   21.9318 C   0  0  0  0  0  0
  -28.6415  -23.2243   19.5297 C   0  0  0  0  0  0
  -28.8197  -23.1339   22.0168 C   0  0  0  0  0  0
  -29.0892  -20.9427   20.7057 C   0  0  2  0  0  0
  -29.0141  -24.0716   20.7826 C   0  0  2  0  0  0
  -30.9862  -25.2547   21.6173 C   0  0  0  0  0  0
  -28.1094  -25.3601   20.9610 C   0  0  0  0  0  0
  -31.0946  -17.6710   20.4206 N   0  0  0  0  0  0
  -29.8762  -15.5846   20.9657 N   0  0  0  0  0  0
  -30.3974  -24.4131   20.6289 O   0  0  0  0  0  0
  -28.6382  -18.1266   21.0950 S   0  0  0  0  0  0
  -31.4743  -12.4657   19.1329 H   0  0  0  0  0  0
  -30.3540  -11.3467   19.8556 H   0  0  0  0  0  0
  -29.7520  -11.7682   17.4533 H   0  0  0  0  0  0
  -29.6582  -13.4833   17.7558 H   0  0  0  0  0  0
  -27.8424  -11.3043   18.8338 H   0  0  0  0  0  0
  -27.3722  -12.6195   17.7889 H   0  0  0  0  0  0
  -27.6886  -14.2541   19.5530 H   0  0  0  0  0  0
  -28.6943  -11.9971   21.3554 H   0  0  0  0  0  0
  -28.4533  -13.6407   21.8628 H   0  0  0  0  0  0
  -25.2760   -9.5677   22.4750 H   0  0  0  0  0  0
  -24.0001   -7.4625   22.7461 H   0  0  0  0  0  0
  -21.0853   -8.8772   19.8931 H   0  0  0  0  0  0
  -22.3712  -10.9663   19.6153 H   0  0  0  0  0  0
  -21.1996   -7.6142   23.9723 H   0  0  0  0  0  0
  -21.1476   -6.0511   25.9082 H   0  0  0  0  0  0
  -22.0595   -2.7609   23.2849 H   0  0  0  0  0  0
  -22.4078  -11.9861   22.4781 H   0  0  0  0  0  0
  -21.1099  -13.1245   22.2592 H   0  0  0  0  0  0
  -24.6580  -15.8401   20.5170 H   0  0  0  0  0  0
  -26.2695  -15.6278   20.0609 H   0  0  0  0  0  0
  -26.7165  -32.5507   23.1113 H   0  0  0  0  0  0
  -25.0184  -33.9724   25.0515 H   0  0  0  0  0  0
  -22.7016  -31.3079   21.4073 H   0  0  0  0  0  0
  -23.3758  -35.9610   23.3283 H   0  0  0  0  0  0
  -24.3586  -36.8908   22.2049 H   0  0  0  0  0  0
  -23.7238  -37.6480   23.6652 H   0  0  0  0  0  0
  -26.0611  -31.5849   20.5962 H   0  0  0  0  0  0
  -26.8311  -30.8739   21.9846 H   0  0  0  0  0  0
  -28.1082  -29.0500   21.1839 H   0  0  0  0  0  0
  -26.0428  -25.9605   18.9978 H   0  0  0  0  0  0
  -23.9807  -27.3123   19.0027 H   0  0  0  0  0  0
  -23.7330  -30.6012   19.4023 H   0  0  0  0  0  0
  -22.7465  -29.2457   19.8615 H   0  0  0  0  0  0
  -25.1281  -36.1925   25.0829 H   0  0  0  0  0  0
  -20.9952  -28.3240   24.1412 H   0  0  0  0  0  0
  -20.5655  -26.2276   23.3585 H   0  0  0  0  0  0
  -21.6639  -26.7444   22.1206 H   0  0  0  0  0  0
  -19.6917  -25.6299   21.1216 H   0  0  0  0  0  0
  -19.6702  -27.3203   20.6724 H   0  0  0  0  0  0
  -17.4199  -26.6667   21.3992 H   0  0  0  0  0  0
  -18.0328  -26.0061   22.8996 H   0  0  0  0  0  0
  -19.7937  -30.7249   24.2263 H   0  0  0  0  0  0
  -17.5023  -31.6268   24.5151 H   0  0  0  0  0  0
  -15.5347  -30.2981   23.7675 H   0  0  0  0  0  0
  -15.8654  -28.0822   22.7066 H   0  0  0  0  0  0
  -24.5994  -30.6960   25.7792 H   0  0  0  0  0  0
  -24.8949  -32.2811   26.4866 H   0  0  0  0  0  0
  -25.8167  -30.8866   27.0208 H   0  0  0  0  0  0
  -26.2854  -29.6746   24.1158 H   0  0  0  0  0  0
  -27.4136  -29.7224   25.4510 H   0  0  0  0  0  0
  -27.8692  -30.4275   23.9182 H   0  0  0  0  0  0
  -27.2708  -33.3582   26.2026 H   0  0  0  0  0  0
  -28.3941  -32.6772   25.0336 H   0  0  0  0  0  0
  -28.0702  -31.8390   26.5428 H   0  0  0  0  0  0
  -28.2581  -38.0105   24.7524 H   0  0  0  0  0  0
  -28.1076  -36.2632   24.6270 H   0  0  0  0  0  0
  -27.2295  -37.1440   25.8872 H   0  0  0  0  0  0
  -20.9325  -29.8758   21.6919 H   0  0  0  0  0  0
  -26.0157  -38.2846   24.1429 H   0  0  0  0  0  0
  -31.7480  -19.6875   20.0506 H   0  0  0  0  0  0
  -30.4041  -21.9590   19.3019 H   0  0  0  0  0  0
  -28.9701  -21.2978   18.5632 H   0  0  0  0  0  0
  -29.3312  -21.1957   22.8414 H   0  0  0  0  0  0
  -30.6185  -21.9118   21.9033 H   0  0  0  0  0  0
  -27.5614  -23.0719   19.5161 H   0  0  0  0  0  0
  -28.8660  -23.7942   18.6272 H   0  0  0  0  0  0
  -29.1093  -23.6359   22.9392 H   0  0  0  0  0  0
  -27.7511  -22.9424   22.1349 H   0  0  0  0  0  0
  -28.0054  -20.8399   20.7892 H   0  0  0  0  0  0
  -32.0433  -25.3872   21.3867 H   0  0  0  0  0  0
  -30.9291  -24.8266   22.6168 H   0  0  0  0  0  0
  -30.5366  -26.2471   21.6367 H   0  0  0  0  0  0
  -28.2071  -25.7041   21.9918 H   0  0  0  0  0  0
  -27.0734  -25.0265   20.8924 H   0  0  0  0  0  0
  -28.9811  -15.2787   21.3108 H   0  0  0  0  0  0
  1 25  1  0  0  0
  1 30  2  0  0  0
  1 83  1  0  0  0
  2  3  1  0  0  0
  2 25  1  0  0  0
  2 86  1  0  0  0
  2 87  1  0  0  0
  3  4  1  0  0  0
  3 88  1  0  0  0
  3 89  1  0  0  0
  4  5  1  0  0  0
  4 90  1  0  0  0
  4 91  1  0  0  0
  5  6  1  0  0  0
  5 26  1  0  0  0
  5 92  1  0  0  0
  6 25  1  0  0  0
  6 93  1  0  0  0
  6 94  1  0  0  0
  7  8  2  0  0  0
  7 26  1  0  0  0
  7 29  1  0  0  0
  8  9  1  0  0  0
  8 22  1  0  0  0
  9 10  1  0  0  0
  9 27  2  0  0  0
 10 11  2  0  0  0
 10 15  1  0  0  0
 11 12  1  0  0  0
 11 95  1  0  0  0
 12 13  2  0  0  0
 12 96  1  0  0  0
 13 14  1  0  0  0
 13 31  1  0  0  0
 14 15  2  0  0  0
 14 97  1  0  0  0
 15 98  1  0  0  0
 16 17  2  0  0  0
 16 21  1  0  0  0
 16 31  1  0  0  0
 17 18  1  0  0  0
 17 99  1  0  0  0
 18 19  2  0  0  0
 18100  1  0  0  0
 19 20  1  0  0  0
 19 24  1  0  0  0
 20 21  2  0  0  0
 20101  1  0  0  0
 21 23  1  0  0  0
 22 28  1  0  0  0
 22 32  2  0  0  0
 26 27  1  0  0  0
 28102  1  0  0  0
 28103  1  0  0  0
 29104  1  0  0  0
 29105  1  0  0  0
 33 34  1  0  0  0
 33 66  1  0  0  0
 33 70  2  0  0  0
 34 36  1  0  0  0
 34 59  1  0  0  0
 34106  1  0  0  0
 35 44  2  0  0  0
 35 45  1  0  0  0
 35 68  1  0  0  0
 36 56  1  0  0  0
 36107  1  0  0  0
 37 39  1  0  0  0
 37 47  1  0  0  0
 37 66  1  0  0  0
 37108  1  0  0  0
 38 43  2  0  0  0
 38 46  1  0  0  0
 38 47  1  0  0  0
 39 64  1  0  0  0
 39 67  2  0  0  0
 40 52  1  0  0  0
 40 53  2  0  0  0
 40 58  1  0  0  0
 41109  1  0  0  0
 41110  1  0  0  0
 41111  1  0  0  0
 41 48  1  0  0  0
 42 43  1  0  0  0
 42 66  1  0  0  0
 42112  1  0  0  0
 42113  1  0  0  0
 43 44  1  0  0  0
 44114  1  0  0  0
 45 46  2  0  0  0
 45115  1  0  0  0
 46116  1  0  0  0
 47117  1  0  0  0
 47118  1  0  0  0
 48 56  1  0  0  0
 48 65  1  0  0  0
 48119  1  0  0  0
 49 50  1  0  0  0
 49 53  1  0  0  0
 49 64  1  0  0  0
 49120  1  0  0  0
 50 51  1  0  0  0
 50121  1  0  0  0
 50122  1  0  0  0
 51 52  1  0  0  0
 51123  1  0  0  0
 51124  1  0  0  0
 52125  1  0  0  0
 52126  1  0  0  0
 53 54  1  0  0  0
 54 55  2  0  0  0
 54127  1  0  0  0
 55 57  1  0  0  0
 55128  1  0  0  0
 56 69  2  0  0  0
 57 58  2  0  0  0
 57129  1  0  0  0
 58130  1  0  0  0
 59 60  1  0  0  0
 59 61  1  0  0  0
 59 62  1  0  0  0
 60131  1  0  0  0
 60132  1  0  0  0
 60133  1  0  0  0
 61134  1  0  0  0
 61135  1  0  0  0
 61136  1  0  0  0
 62137  1  0  0  0
 62138  1  0  0  0
 62139  1  0  0  0
 63 65  1  0  0  0
 63140  1  0  0  0
 63141  1  0  0  0
 63142  1  0  0  0
 64143  1  0  0  0
 65144  1  0  0  0
 68 81  1  0  0  0
 71 72  2  0  0  0
 71 82  1  0  0  0
 71145  1  0  0  0
 72 85  1  0  0  0
 72 78  1  0  0  0
 73 82  2  0  0  0
 73 83  1  0  0  0
 73 85  1  0  0  0
 74 76  1  0  0  0
 74 78  1  0  0  0
 74146  1  0  0  0
 74147  1  0  0  0
 75 77  1  0  0  0
 75 78  1  0  0  0
 75148  1  0  0  0
 75149  1  0  0  0
 76 79  1  0  0  0
 76150  1  0  0  0
 76151  1  0  0  0
 77 79  1  0  0  0
 77152  1  0  0  0
 77153  1  0  0  0
 78154  1  0  0  0
 79 81  1  0  0  0
 79 84  1  0  0  0
 80 84  1  0  0  0
 80155  1  0  0  0
 80156  1  0  0  0
 80157  1  0  0  0
 81158  1  0  0  0
 81159  1  0  0  0
 83160  1  0  0  0
M  ISO  4   1 100  68 101  81 101  83 100
M  END
> <chiral flag>
0

> <version>
0

> <s_m_source_file>
/data/baiqing/PycharmProjects/Reinvent-master-3.2/result/LINK_invent/BTK/process_docking_weight1_custom_product_contain_oxygen_bond_distance_aromatic_linkinvent_7_9_3/rearranged_h_0160.sdf

> <i_m_source_file_index>
88

> <r_mmod_Potential_Energy-OPLS-2005>
-39.419303894043

> <r_mmod_Stretch_Energy-OPLS-2005>
52.7354888916016

> <r_mmod_Bend_Energy-OPLS-2005>
128.591873168945

> <r_mmod_Torsional_Energy-OPLS-2005>
237.824569702148

> <r_mmod_Improper_Torsional_Energy-OPLS-2005>
3.87500953674316

> <r_mmod_Van_der_Waal_Energy-OPLS-2005>
127.11646270752

> <r_mmod_Electrostatic_Energy-OPLS-2005>
-387.142730712891

> <r_mmod_Solvation_Energy-OPLS-2005>
-229.751800537109

> <b_mmod_Minimization_Converged-OPLS-2005>
0

> <r_mmod_RMS_Derivative-OPLS-2005>
1.62098717689514

$$$$
89
                    3D
 Structure written by MMmdl.
162171  0  0  1  0            999 V2000
  -30.6683  -14.5240   20.5485 C   0  0  0  0  0  0
  -30.4148  -12.3243   19.4508 C   0  0  0  0  0  0
  -29.4924  -12.4805   18.2242 C   0  0  0  0  0  0
  -28.0104  -12.3414   18.6250 C   0  0  0  0  0  0
  -27.6433  -13.2034   19.8655 C   0  0  2  0  0  0
  -28.6820  -13.0328   20.9986 C   0  0  0  0  0  0
  -25.2512  -13.8183   20.5680 C   0  0  0  0  0  0
  -24.1767  -13.0434   20.9219 C   0  0  0  0  0  0
  -24.6326  -11.6910   20.8743 C   0  0  0  0  0  0
  -23.9037  -10.4278   21.0404 C   0  0  0  0  0  0
  -24.3609   -9.4189   21.9163 C   0  0  0  0  0  0
  -23.6292   -8.2222   22.0741 C   0  0  0  0  0  0
  -22.4261   -8.0281   21.3555 C   0  0  0  0  0  0
  -21.9908   -9.0229   20.4635 C   0  0  0  0  0  0
  -22.7236  -10.2107   20.3039 C   0  0  0  0  0  0
  -21.6851   -6.0736   22.5268 C   0  0  0  0  0  0
  -21.4017   -6.5648   23.8208 C   0  0  0  0  0  0
  -21.3663   -5.6800   24.9171 C   0  0  0  0  0  0
  -21.6030   -4.3056   24.7240 C   0  0  0  0  0  0
  -21.8809   -3.8156   23.4371 C   0  0  0  0  0  0
  -21.9184   -4.6965   22.3419 C   0  0  0  0  0  0
  -22.7815  -13.5213   21.1894 C   0  0  0  0  0  0
  -22.1654   -4.2146   21.0996 F   0  0  0  0  0  0
  -21.5644   -3.4550   25.7761 F   0  0  0  0  0  0
  -30.0075  -13.3375   20.4370 N   0  0  0  0  0  0
  -26.2900  -12.9308   20.3335 N   0  0  0  0  0  0
  -25.9234  -11.6484   20.5777 N   0  0  0  0  0  0
  -22.0468  -12.8174   22.0458 N   0  0  0  0  0  0
  -25.4222  -15.1895   20.4098 N   0  0  0  0  0  0
  -31.8344  -14.6524   20.1614 O   0  0  0  0  0  0
  -21.6649   -6.8876   21.4249 O   0  0  0  0  0  0
  -22.3480  -14.5505   20.6750 O   0  0  0  0  0  0
  -24.6070  -31.8716   23.2133 C   0  0  0  0  0  0
  -25.9006  -32.4844   23.8400 C   0  0  1  0  0  0
  -27.2468  -27.4637   20.0997 C   0  0  0  0  0  0
  -25.5883  -33.8652   24.2356 N   0  0  0  0  0  0
  -23.3950  -30.4945   21.5529 C   0  0  2  0  0  0
  -24.8436  -28.9618   20.1141 C   0  0  0  0  0  0
  -22.7347  -29.4686   22.4997 C   0  0  0  0  0  0
  -18.0262  -28.1371   22.8517 C   0  0  0  0  0  0
  -24.1491  -36.7332   23.2642 C   0  0  0  0  0  0
  -25.9193  -30.8469   21.3582 C   0  0  0  0  0  0
  -25.9963  -29.4788   20.7156 C   0  0  0  0  0  0
  -27.1921  -28.7319   20.7183 C   0  0  0  0  0  0
  -26.0737  -26.9481   19.5009 C   0  0  0  0  0  0
  -24.8734  -27.6913   19.5114 C   0  0  0  0  0  0
  -23.6008  -29.8251   20.1656 C   0  0  0  0  0  0
  -25.4105  -36.3138   24.0353 C   0  0  1  0  0  0
  -20.5858  -28.3662   23.1326 C   0  0  2  0  0  0
  -20.6764  -26.9405   22.5426 C   0  0  0  0  0  0
  -19.5740  -26.6394   21.5220 C   0  0  0  0  0  0
  -18.1910  -26.7931   22.1621 C   0  0  0  0  0  0
  -19.1514  -28.8835   23.2931 C   0  0  0  0  0  0
  -18.9444  -30.1439   23.8946 C   0  0  0  0  0  0
  -17.6454  -30.6592   24.0568 C   0  0  0  0  0  0
  -25.9036  -34.9496   23.5168 C   0  0  0  0  0  0
  -16.5349  -29.9105   23.6312 C   0  0  0  0  0  0
  -16.7254  -28.6509   23.0360 C   0  0  0  0  0  0
  -26.4441  -31.6602   25.0706 C   0  0  0  0  0  0
  -25.3742  -31.3661   26.1474 C   0  0  0  0  0  0
  -27.0250  -30.3063   24.6027 C   0  0  0  0  0  0
  -27.6046  -32.4278   25.7439 C   0  0  0  0  0  0
  -27.5589  -37.1803   24.8455 C   0  0  0  0  0  0
  -21.4087  -29.3035   22.3726 N   0  0  0  0  0  0
  -26.4287  -37.3810   23.9429 N   0  0  0  0  0  0
  -24.6603  -31.0835   22.0999 N   0  0  0  0  0  0
  -23.4155  -28.8258   23.3026 O   0  0  0  0  0  0
  -28.4486  -26.7820   20.1420 O   0  0  0  0  0  0
  -26.5590  -34.8931   22.4721 O   0  0  0  0  0  0
  -23.5277  -32.1444   23.7569 O   0  0  0  0  0  0
  -31.5416  -17.4154   21.2671 C   0  0  0  0  0  0
  -30.2597  -16.9622   21.0794 C   0  0  0  0  0  0
  -29.8696  -19.2266   21.2502 C   0  0  0  0  0  0
  -27.9628  -22.5488   21.1009 C   0  0  0  0  0  0
  -30.1925  -22.2628   19.9558 C   0  0  0  0  0  0
  -27.9940  -24.0617   20.7829 C   0  0  0  0  0  0
  -30.1980  -23.7860   19.6849 C   0  0  0  0  0  0
  -29.3482  -21.8703   21.1883 C   0  0  2  0  0  0
  -28.7698  -24.3609   19.4791 C   0  0  2  0  0  0
  -28.5430  -23.6265   17.1517 C   0  0  0  0  0  0
  -28.7774  -25.8771   19.0902 C   0  0  0  0  0  0
  -29.3111  -18.0070   21.1226 N   0  0  0  0  0  0
  -29.8972  -15.5859   20.8919 N   0  0  0  0  0  0
  -29.1357  -20.4177   21.3073 N   0  0  0  0  0  0
  -28.0345  -23.6394   18.4792 O   0  0  0  0  0  0
  -31.6207  -19.1622   21.3720 S   0  0  0  0  0  0
  -31.4560  -12.4352   19.1501 H   0  0  0  0  0  0
  -30.3330  -11.3271   19.8810 H   0  0  0  0  0  0
  -29.7454  -11.7367   17.4673 H   0  0  0  0  0  0
  -29.6566  -13.4531   17.7587 H   0  0  0  0  0  0
  -27.8288  -11.2867   18.8404 H   0  0  0  0  0  0
  -27.3628  -12.5891   17.7844 H   0  0  0  0  0  0
  -27.6693  -14.2411   19.5381 H   0  0  0  0  0  0
  -28.6547  -12.0134   21.3890 H   0  0  0  0  0  0
  -28.4284  -13.6753   21.8471 H   0  0  0  0  0  0
  -25.2738   -9.5690   22.4761 H   0  0  0  0  0  0
  -23.9986   -7.4624   22.7459 H   0  0  0  0  0  0
  -21.0842   -8.8767   19.8932 H   0  0  0  0  0  0
  -22.3684  -10.9673   19.6166 H   0  0  0  0  0  0
  -21.1994   -7.6132   23.9717 H   0  0  0  0  0  0
  -21.1514   -6.0539   25.9073 H   0  0  0  0  0  0
  -22.0574   -2.7623   23.2882 H   0  0  0  0  0  0
  -22.4115  -11.9828   22.4808 H   0  0  0  0  0  0
  -21.1098  -13.1197   22.2689 H   0  0  0  0  0  0
  -24.6607  -15.8476   20.5280 H   0  0  0  0  0  0
  -26.2717  -15.6318   20.0850 H   0  0  0  0  0  0
  -26.7083  -32.5557   23.1162 H   0  0  0  0  0  0
  -24.9961  -33.9817   25.0449 H   0  0  0  0  0  0
  -22.6808  -31.3105   21.4154 H   0  0  0  0  0  0
  -23.3754  -35.9659   23.3282 H   0  0  0  0  0  0
  -24.3570  -36.8951   22.2054 H   0  0  0  0  0  0
  -23.7239  -37.6535   23.6653 H   0  0  0  0  0  0
  -26.0147  -31.6066   20.5821 H   0  0  0  0  0  0
  -26.8134  -30.9080   21.9668 H   0  0  0  0  0  0
  -28.0799  -29.1373   21.1848 H   0  0  0  0  0  0
  -26.0663  -25.9693   19.0435 H   0  0  0  0  0  0
  -23.9849  -27.2777   19.0547 H   0  0  0  0  0  0
  -23.6997  -30.6027   19.4064 H   0  0  0  0  0  0
  -22.7242  -29.2432   19.8739 H   0  0  0  0  0  0
  -25.1266  -36.2000   25.0843 H   0  0  0  0  0  0
  -20.9950  -28.3239   24.1442 H   0  0  0  0  0  0
  -20.5652  -26.2274   23.3609 H   0  0  0  0  0  0
  -21.6631  -26.7444   22.1211 H   0  0  0  0  0  0
  -19.6897  -25.6306   21.1228 H   0  0  0  0  0  0
  -19.6691  -27.3221   20.6763 H   0  0  0  0  0  0
  -17.4184  -26.6691   21.4015 H   0  0  0  0  0  0
  -18.0314  -26.0063   22.9004 H   0  0  0  0  0  0
  -19.7923  -30.7236   24.2337 H   0  0  0  0  0  0
  -17.5017  -31.6269   24.5151 H   0  0  0  0  0  0
  -15.5356  -30.3027   23.7619 H   0  0  0  0  0  0
  -15.8649  -28.0846   22.7066 H   0  0  0  0  0  0
  -24.5931  -30.6983   25.7804 H   0  0  0  0  0  0
  -24.8909  -32.2795   26.4954 H   0  0  0  0  0  0
  -25.8126  -30.8804   27.0209 H   0  0  0  0  0  0
  -26.2767  -29.6826   24.1133 H   0  0  0  0  0  0
  -27.4093  -29.7264   25.4424 H   0  0  0  0  0  0
  -27.8555  -30.4374   23.9095 H   0  0  0  0  0  0
  -27.2718  -33.3566   26.2069 H   0  0  0  0  0  0
  -28.3827  -32.6853   25.0247 H   0  0  0  0  0  0
  -28.0762  -31.8373   26.5299 H   0  0  0  0  0  0
  -28.2590  -38.0119   24.7540 H   0  0  0  0  0  0
  -28.1107  -36.2655   24.6225 H   0  0  0  0  0  0
  -27.2310  -37.1380   25.8855 H   0  0  0  0  0  0
  -20.9235  -29.8735   21.6935 H   0  0  0  0  0  0
  -26.0186  -38.2883   24.1443 H   0  0  0  0  0  0
  -32.4517  -16.8387   21.3287 H   0  0  0  0  0  0
  -27.3874  -22.0518   20.3167 H   0  0  0  0  0  0
  -27.4124  -22.3847   22.0259 H   0  0  0  0  0  0
  -31.2271  -21.9519   20.0892 H   0  0  0  0  0  0
  -29.8149  -21.7434   19.0747 H   0  0  0  0  0  0
  -28.4393  -24.6052   21.6191 H   0  0  0  0  0  0
  -26.9708  -24.4257   20.6974 H   0  0  0  0  0  0
  -30.8394  -24.0103   18.8317 H   0  0  0  0  0  0
  -30.6695  -24.2905   20.5305 H   0  0  0  0  0  0
  -29.8605  -22.2430   22.0773 H   0  0  0  0  0  0
  -27.9358  -22.9400   16.5606 H   0  0  0  0  0  0
  -29.5710  -23.2742   17.0948 H   0  0  0  0  0  0
  -28.4788  -24.5982   16.6651 H   0  0  0  0  0  0
  -28.1420  -26.0729   18.2287 H   0  0  0  0  0  0
  -29.7720  -26.1602   18.7480 H   0  0  0  0  0  0
  -28.9114  -15.3892   20.9411 H   0  0  0  0  0  0
  -28.1634  -20.2220   21.5183 H   0  0  0  0  0  0
  1 25  1  0  0  0
  1 30  2  0  0  0
  1 83  1  0  0  0
  2  3  1  0  0  0
  2 25  1  0  0  0
  2 87  1  0  0  0
  2 88  1  0  0  0
  3  4  1  0  0  0
  3 89  1  0  0  0
  3 90  1  0  0  0
  4  5  1  0  0  0
  4 91  1  0  0  0
  4 92  1  0  0  0
  5  6  1  0  0  0
  5 26  1  0  0  0
  5 93  1  0  0  0
  6 25  1  0  0  0
  6 94  1  0  0  0
  6 95  1  0  0  0
  7  8  2  0  0  0
  7 26  1  0  0  0
  7 29  1  0  0  0
  8  9  1  0  0  0
  8 22  1  0  0  0
  9 10  1  0  0  0
  9 27  2  0  0  0
 10 11  2  0  0  0
 10 15  1  0  0  0
 11 12  1  0  0  0
 11 96  1  0  0  0
 12 13  2  0  0  0
 12 97  1  0  0  0
 13 14  1  0  0  0
 13 31  1  0  0  0
 14 15  2  0  0  0
 14 98  1  0  0  0
 15 99  1  0  0  0
 16 17  2  0  0  0
 16 21  1  0  0  0
 16 31  1  0  0  0
 17 18  1  0  0  0
 17100  1  0  0  0
 18 19  2  0  0  0
 18101  1  0  0  0
 19 20  1  0  0  0
 19 24  1  0  0  0
 20 21  2  0  0  0
 20102  1  0  0  0
 21 23  1  0  0  0
 22 28  1  0  0  0
 22 32  2  0  0  0
 26 27  1  0  0  0
 28103  1  0  0  0
 28104  1  0  0  0
 29105  1  0  0  0
 29106  1  0  0  0
 33 34  1  0  0  0
 33 66  1  0  0  0
 33 70  2  0  0  0
 34 36  1  0  0  0
 34 59  1  0  0  0
 34107  1  0  0  0
 35 44  2  0  0  0
 35 45  1  0  0  0
 35 68  1  0  0  0
 36 56  1  0  0  0
 36108  1  0  0  0
 37 39  1  0  0  0
 37 47  1  0  0  0
 37 66  1  0  0  0
 37109  1  0  0  0
 38 43  2  0  0  0
 38 46  1  0  0  0
 38 47  1  0  0  0
 39 64  1  0  0  0
 39 67  2  0  0  0
 40 52  1  0  0  0
 40 53  2  0  0  0
 40 58  1  0  0  0
 41110  1  0  0  0
 41111  1  0  0  0
 41112  1  0  0  0
 41 48  1  0  0  0
 42 43  1  0  0  0
 42 66  1  0  0  0
 42113  1  0  0  0
 42114  1  0  0  0
 43 44  1  0  0  0
 44115  1  0  0  0
 45 46  2  0  0  0
 45116  1  0  0  0
 46117  1  0  0  0
 47118  1  0  0  0
 47119  1  0  0  0
 48 56  1  0  0  0
 48 65  1  0  0  0
 48120  1  0  0  0
 49 50  1  0  0  0
 49 53  1  0  0  0
 49 64  1  0  0  0
 49121  1  0  0  0
 50 51  1  0  0  0
 50122  1  0  0  0
 50123  1  0  0  0
 51 52  1  0  0  0
 51124  1  0  0  0
 51125  1  0  0  0
 52126  1  0  0  0
 52127  1  0  0  0
 53 54  1  0  0  0
 54 55  2  0  0  0
 54128  1  0  0  0
 55 57  1  0  0  0
 55129  1  0  0  0
 56 69  2  0  0  0
 57 58  2  0  0  0
 57130  1  0  0  0
 58131  1  0  0  0
 59 60  1  0  0  0
 59 61  1  0  0  0
 59 62  1  0  0  0
 60132  1  0  0  0
 60133  1  0  0  0
 60134  1  0  0  0
 61135  1  0  0  0
 61136  1  0  0  0
 61137  1  0  0  0
 62138  1  0  0  0
 62139  1  0  0  0
 62140  1  0  0  0
 63 65  1  0  0  0
 63141  1  0  0  0
 63142  1  0  0  0
 63143  1  0  0  0
 64144  1  0  0  0
 65145  1  0  0  0
 68 81  1  0  0  0
 71 72  2  0  0  0
 71 86  1  0  0  0
 71146  1  0  0  0
 72 82  1  0  0  0
 72 83  1  0  0  0
 73 82  2  0  0  0
 73 84  1  0  0  0
 73 86  1  0  0  0
 74 76  1  0  0  0
 74 78  1  0  0  0
 74147  1  0  0  0
 74148  1  0  0  0
 75 77  1  0  0  0
 75 78  1  0  0  0
 75149  1  0  0  0
 75150  1  0  0  0
 76 79  1  0  0  0
 76151  1  0  0  0
 76152  1  0  0  0
 77 79  1  0  0  0
 77153  1  0  0  0
 77154  1  0  0  0
 78 84  1  0  0  0
 78155  1  0  0  0
 79 81  1  0  0  0
 79 85  1  0  0  0
 80 85  1  0  0  0
 80156  1  0  0  0
 80157  1  0  0  0
 80158  1  0  0  0
 81159  1  0  0  0
 81160  1  0  0  0
 83161  1  0  0  0
 84162  1  0  0  0
M  ISO  4   1 100  68 101  81 101  83 100
M  END
> <chiral flag>
0

> <version>
0

> <s_m_source_file>
/data/baiqing/PycharmProjects/Reinvent-master-3.2/result/LINK_invent/BTK/process_docking_weight1_custom_product_contain_oxygen_bond_distance_aromatic_linkinvent_7_9_3/rearranged_h_0160.sdf

> <i_m_source_file_index>
89

> <r_mmod_Potential_Energy-OPLS-2005>
-99.9467926025391

> <r_mmod_Stretch_Energy-OPLS-2005>
39.5026054382324

> <r_mmod_Bend_Energy-OPLS-2005>
127.162391662598

> <r_mmod_Torsional_Energy-OPLS-2005>
239.950973510742

> <r_mmod_Improper_Torsional_Energy-OPLS-2005>
5.11263847351074

> <r_mmod_Van_der_Waal_Energy-OPLS-2005>
139.198135375977

> <r_mmod_Electrostatic_Energy-OPLS-2005>
-459.266021728516

> <r_mmod_Solvation_Energy-OPLS-2005>
-210.215850830078

> <b_mmod_Minimization_Converged-OPLS-2005>
0

> <r_mmod_RMS_Derivative-OPLS-2005>
6.78517389297485

$$$$
90
                    3D
 Structure written by MMmdl.
150158  0  0  1  0            999 V2000
  -30.5700  -14.7710   20.4564 C   0  0  0  0  0  0
  -30.4459  -12.4707   19.4717 C   0  0  0  0  0  0
  -29.5168  -12.5223   18.2375 C   0  0  0  0  0  0
  -28.0416  -12.3406   18.6474 C   0  0  0  0  0  0
  -27.6469  -13.2277   19.8577 C   0  0  2  0  0  0
  -28.6940  -13.1388   20.9910 C   0  0  0  0  0  0
  -25.2527  -13.8178   20.5669 C   0  0  0  0  0  0
  -24.1822  -13.0429   20.9220 C   0  0  0  0  0  0
  -24.6409  -11.6905   20.8751 C   0  0  0  0  0  0
  -23.9075  -10.4291   21.0403 C   0  0  0  0  0  0
  -24.3620   -9.4203   21.9182 C   0  0  0  0  0  0
  -23.6291   -8.2241   22.0750 C   0  0  0  0  0  0
  -22.4275   -8.0277   21.3543 C   0  0  0  0  0  0
  -21.9909   -9.0253   20.4652 C   0  0  0  0  0  0
  -22.7238  -10.2135   20.3063 C   0  0  0  0  0  0
  -21.6857   -6.0732   22.5280 C   0  0  0  0  0  0
  -21.4008   -6.5633   23.8212 C   0  0  0  0  0  0
  -21.3666   -5.6786   24.9175 C   0  0  0  0  0  0
  -21.6050   -4.3051   24.7226 C   0  0  0  0  0  0
  -21.8817   -3.8146   23.4346 C   0  0  0  0  0  0
  -21.9191   -4.6962   22.3400 C   0  0  0  0  0  0
  -22.7847  -13.5225   21.1867 C   0  0  0  0  0  0
  -22.1658   -4.2147   21.0972 F   0  0  0  0  0  0
  -21.5638   -3.4540   25.7738 F   0  0  0  0  0  0
  -29.9955  -13.5169   20.4195 N   0  0  0  0  0  0
  -26.2963  -12.9374   20.3294 N   0  0  0  0  0  0
  -25.9341  -11.6519   20.5767 N   0  0  0  0  0  0
  -22.0483  -12.8238   22.0433 N   0  0  0  0  0  0
  -25.4201  -15.1891   20.3994 N   0  0  0  0  0  0
  -31.7377  -14.9287   20.0892 O   0  0  0  0  0  0
  -21.6638   -6.8871   21.4243 O   0  0  0  0  0  0
  -22.3545  -14.5530   20.6709 O   0  0  0  0  0  0
  -24.6349  -31.8516   23.1963 C   0  0  0  0  0  0
  -25.9163  -32.4736   23.8316 C   0  0  1  0  0  0
  -27.2259  -27.2445   20.1111 C   0  0  0  0  0  0
  -25.5944  -33.8541   24.2235 N   0  0  0  0  0  0
  -23.4336  -30.4753   21.5393 C   0  0  2  0  0  0
  -24.8816  -28.9208   20.1038 C   0  0  0  0  0  0
  -22.7519  -29.4588   22.4882 C   0  0  0  0  0  0
  -18.0299  -28.1395   22.8478 C   0  0  0  0  0  0
  -24.1483  -36.7270   23.2633 C   0  0  0  0  0  0
  -25.9829  -30.7564   21.3817 C   0  0  0  0  0  0
  -26.0558  -29.3810   20.7134 C   0  0  0  0  0  0
  -27.2295  -28.5541   20.7084 C   0  0  0  0  0  0
  -26.0195  -26.8523   19.4871 C   0  0  0  0  0  0
  -24.8695  -27.6648   19.4797 C   0  0  0  0  0  0
  -23.6530  -29.8102   20.1549 C   0  0  0  0  0  0
  -25.4115  -36.3060   24.0321 C   0  0  1  0  0  0
  -20.5905  -28.3713   23.1249 C   0  0  2  0  0  0
  -20.6784  -26.9418   22.5411 C   0  0  0  0  0  0
  -19.5758  -26.6379   21.5216 C   0  0  0  0  0  0
  -18.1940  -26.7932   22.1622 C   0  0  0  0  0  0
  -19.1554  -28.8870   23.2857 C   0  0  0  0  0  0
  -18.9471  -30.1471   23.8883 C   0  0  0  0  0  0
  -17.6469  -30.6594   24.0567 C   0  0  0  0  0  0
  -25.9064  -34.9432   23.5080 C   0  0  0  0  0  0
  -16.5361  -29.9095   23.6335 C   0  0  0  0  0  0
  -16.7286  -28.6510   23.0358 C   0  0  0  0  0  0
  -26.4505  -31.6587   25.0738 C   0  0  0  0  0  0
  -25.3713  -31.3785   26.1458 C   0  0  0  0  0  0
  -27.0342  -30.2979   24.6291 C   0  0  0  0  0  0
  -27.6054  -32.4340   25.7507 C   0  0  0  0  0  0
  -27.5586  -37.1777   24.8442 C   0  0  0  0  0  0
  -21.4219  -29.3052   22.3627 N   0  0  0  0  0  0
  -26.4273  -37.3777   23.9425 N   0  0  0  0  0  0
  -24.7027  -31.0460   22.0949 N   0  0  0  0  0  0
  -23.4201  -28.8119   23.2992 O   0  0  0  0  0  0
  -28.2736  -26.2920   20.2325 O   0  0  0  0  0  0
  -26.5644  -34.8909   22.4656 O   0  0  0  0  0  0
  -23.5492  -32.1345   23.7244 O   0  0  0  0  0  0
  -30.7534  -18.0746   19.8445 C   0  0  0  0  0  0
  -28.7170  -18.1549   21.0421 C   0  0  0  0  0  0
  -29.7727  -17.3246   20.5531 C   0  0  0  0  0  0
  -30.6106  -19.4917   19.6344 C   0  0  0  0  0  0
  -29.5010  -20.2339   20.1498 C   0  0  0  0  0  0
  -28.6703  -24.0373   19.1565 C   0  0  0  0  0  0
  -28.8311  -22.8398   20.2253 C   0  0  0  0  0  0
  -28.7897  -23.4888   17.7342 C   0  0  0  0  0  0
  -28.5838  -19.5181   20.8670 N   0  0  0  0  0  0
  -28.3915  -25.3430   19.1211 N   0  0  0  0  0  0
  -29.7374  -15.8404   20.7651 N   0  0  0  0  0  0
  -29.3760  -21.6551   19.7254 N   0  0  0  0  0  0
  -28.4928  -22.9852   21.4050 O   0  0  0  0  0  0
  -31.5494  -20.1456   18.9049 F   0  0  0  0  0  0
  -31.4832  -12.6170   19.1671 H   0  0  0  0  0  0
  -30.4107  -11.4884   19.9455 H   0  0  0  0  0  0
  -29.8030  -11.7553   17.5167 H   0  0  0  0  0  0
  -29.6400  -13.4801   17.7286 H   0  0  0  0  0  0
  -27.8987  -11.2886   18.8976 H   0  0  0  0  0  0
  -27.3851  -12.5410   17.7985 H   0  0  0  0  0  0
  -27.6454  -14.2545   19.4912 H   0  0  0  0  0  0
  -28.7369  -12.1278   21.3983 H   0  0  0  0  0  0
  -28.4221  -13.7890   21.8242 H   0  0  0  0  0  0
  -25.2762   -9.5676   22.4760 H   0  0  0  0  0  0
  -24.0000   -7.4632   22.7464 H   0  0  0  0  0  0
  -21.0842   -8.8769   19.8963 H   0  0  0  0  0  0
  -22.3686  -10.9674   19.6174 H   0  0  0  0  0  0
  -21.1986   -7.6137   23.9721 H   0  0  0  0  0  0
  -21.1495   -6.0514   25.9083 H   0  0  0  0  0  0
  -22.0594   -2.7609   23.2851 H   0  0  0  0  0  0
  -22.4077  -11.9896   22.4837 H   0  0  0  0  0  0
  -21.1113  -13.1292   22.2635 H   0  0  0  0  0  0
  -24.6340  -15.8271   20.4616 H   0  0  0  0  0  0
  -26.2386  -15.6132   19.9828 H   0  0  0  0  0  0
  -26.7235  -32.5362   23.1050 H   0  0  0  0  0  0
  -25.0093  -33.9669   25.0380 H   0  0  0  0  0  0
  -22.7333  -31.3001   21.3919 H   0  0  0  0  0  0
  -23.3772  -35.9573   23.3263 H   0  0  0  0  0  0
  -24.3569  -36.8935   22.2053 H   0  0  0  0  0  0
  -23.7195  -37.6440   23.6689 H   0  0  0  0  0  0
  -26.1347  -31.5214   20.6192 H   0  0  0  0  0  0
  -26.8546  -30.7957   22.0236 H   0  0  0  0  0  0
  -28.1234  -28.8919   21.2136 H   0  0  0  0  0  0
  -25.9350  -25.8752   19.0345 H   0  0  0  0  0  0
  -23.9666  -27.3027   19.0077 H   0  0  0  0  0  0
  -23.7785  -30.5873   19.3999 H   0  0  0  0  0  0
  -22.7706  -29.2453   19.8481 H   0  0  0  0  0  0
  -25.1292  -36.1890   25.0811 H   0  0  0  0  0  0
  -21.0005  -28.3305   24.1365 H   0  0  0  0  0  0
  -20.5671  -26.2326   23.3633 H   0  0  0  0  0  0
  -21.6653  -26.7432   22.1201 H   0  0  0  0  0  0
  -19.6913  -25.6285   21.1257 H   0  0  0  0  0  0
  -19.6692  -27.3182   20.6739 H   0  0  0  0  0  0
  -17.4206  -26.6697   21.4029 H   0  0  0  0  0  0
  -18.0326  -26.0075   22.9011 H   0  0  0  0  0  0
  -19.7951  -30.7296   24.2240 H   0  0  0  0  0  0
  -17.5024  -31.6268   24.5174 H   0  0  0  0  0  0
  -15.5361  -30.2994   23.7665 H   0  0  0  0  0  0
  -15.8682  -28.0821   22.7089 H   0  0  0  0  0  0
  -24.5850  -30.7176   25.7787 H   0  0  0  0  0  0
  -24.8956  -32.2983   26.4880 H   0  0  0  0  0  0
  -25.8001  -30.8945   27.0241 H   0  0  0  0  0  0
  -26.2940  -29.6731   24.1274 H   0  0  0  0  0  0
  -27.3922  -29.7253   25.4857 H   0  0  0  0  0  0
  -27.8867  -30.4212   23.9607 H   0  0  0  0  0  0
  -27.2653  -33.3638   26.2080 H   0  0  0  0  0  0
  -28.3862  -32.6913   25.0336 H   0  0  0  0  0  0
  -28.0728  -31.8475   26.5424 H   0  0  0  0  0  0
  -28.2552  -38.0129   24.7589 H   0  0  0  0  0  0
  -28.1141  -36.2672   24.6142 H   0  0  0  0  0  0
  -27.2325  -37.1266   25.8844 H   0  0  0  0  0  0
  -20.9418  -29.8778   21.6825 H   0  0  0  0  0  0
  -26.0146  -38.2827   24.1516 H   0  0  0  0  0  0
  -31.6101  -17.5710   19.4221 H   0  0  0  0  0  0
  -27.9074  -17.6936   21.5893 H   0  0  0  0  0  0
  -29.8090  -23.1643   17.5245 H   0  0  0  0  0  0
  -28.5254  -24.2408   16.9875 H   0  0  0  0  0  0
  -28.1057  -22.6513   17.5853 H   0  0  0  0  0  0
  -28.8588  -15.5108   21.1376 H   0  0  0  0  0  0
  -29.7927  -21.7980   18.8178 H   0  0  0  0  0  0
  1 25  1  0  0  0
  1 30  2  0  0  0
  1 81  1  0  0  0
  2  3  1  0  0  0
  2 25  1  0  0  0
  2 85  1  0  0  0
  2 86  1  0  0  0
  3  4  1  0  0  0
  3 87  1  0  0  0
  3 88  1  0  0  0
  4  5  1  0  0  0
  4 89  1  0  0  0
  4 90  1  0  0  0
  5  6  1  0  0  0
  5 26  1  0  0  0
  5 91  1  0  0  0
  6 25  1  0  0  0
  6 92  1  0  0  0
  6 93  1  0  0  0
  7  8  2  0  0  0
  7 26  1  0  0  0
  7 29  1  0  0  0
  8  9  1  0  0  0
  8 22  1  0  0  0
  9 10  1  0  0  0
  9 27  2  0  0  0
 10 11  2  0  0  0
 10 15  1  0  0  0
 11 12  1  0  0  0
 11 94  1  0  0  0
 12 13  2  0  0  0
 12 95  1  0  0  0
 13 14  1  0  0  0
 13 31  1  0  0  0
 14 15  2  0  0  0
 14 96  1  0  0  0
 15 97  1  0  0  0
 16 17  2  0  0  0
 16 21  1  0  0  0
 16 31  1  0  0  0
 17 18  1  0  0  0
 17 98  1  0  0  0
 18 19  2  0  0  0
 18 99  1  0  0  0
 19 20  1  0  0  0
 19 24  1  0  0  0
 20 21  2  0  0  0
 20100  1  0  0  0
 21 23  1  0  0  0
 22 28  1  0  0  0
 22 32  2  0  0  0
 26 27  1  0  0  0
 28101  1  0  0  0
 28102  1  0  0  0
 29103  1  0  0  0
 29104  1  0  0  0
 33 34  1  0  0  0
 33 66  1  0  0  0
 33 70  2  0  0  0
 34 36  1  0  0  0
 34 59  1  0  0  0
 34105  1  0  0  0
 35 44  2  0  0  0
 35 45  1  0  0  0
 35 68  1  0  0  0
 36 56  1  0  0  0
 36106  1  0  0  0
 37 39  1  0  0  0
 37 47  1  0  0  0
 37 66  1  0  0  0
 37107  1  0  0  0
 38 43  2  0  0  0
 38 46  1  0  0  0
 38 47  1  0  0  0
 39 64  1  0  0  0
 39 67  2  0  0  0
 40 52  1  0  0  0
 40 53  2  0  0  0
 40 58  1  0  0  0
 41108  1  0  0  0
 41109  1  0  0  0
 41110  1  0  0  0
 41 48  1  0  0  0
 42 43  1  0  0  0
 42 66  1  0  0  0
 42111  1  0  0  0
 42112  1  0  0  0
 43 44  1  0  0  0
 44113  1  0  0  0
 45 46  2  0  0  0
 45114  1  0  0  0
 46115  1  0  0  0
 47116  1  0  0  0
 47117  1  0  0  0
 48 56  1  0  0  0
 48 65  1  0  0  0
 48118  1  0  0  0
 49 50  1  0  0  0
 49 53  1  0  0  0
 49 64  1  0  0  0
 49119  1  0  0  0
 50 51  1  0  0  0
 50120  1  0  0  0
 50121  1  0  0  0
 51 52  1  0  0  0
 51122  1  0  0  0
 51123  1  0  0  0
 52124  1  0  0  0
 52125  1  0  0  0
 53 54  1  0  0  0
 54 55  2  0  0  0
 54126  1  0  0  0
 55 57  1  0  0  0
 55127  1  0  0  0
 56 69  2  0  0  0
 57 58  2  0  0  0
 57128  1  0  0  0
 58129  1  0  0  0
 59 60  1  0  0  0
 59 61  1  0  0  0
 59 62  1  0  0  0
 60130  1  0  0  0
 60131  1  0  0  0
 60132  1  0  0  0
 61133  1  0  0  0
 61134  1  0  0  0
 61135  1  0  0  0
 62136  1  0  0  0
 62137  1  0  0  0
 62138  1  0  0  0
 63 65  1  0  0  0
 63139  1  0  0  0
 63140  1  0  0  0
 63141  1  0  0  0
 64142  1  0  0  0
 65143  1  0  0  0
 68 80  1  0  0  0
 71 73  2  0  0  0
 71 74  1  0  0  0
 71144  1  0  0  0
 72 73  1  0  0  0
 72 79  2  0  0  0
 72145  1  0  0  0
 73 81  1  0  0  0
 74 75  2  0  0  0
 74 84  1  0  0  0
 75 79  1  0  0  0
 75 82  1  0  0  0
 76 77  1  0  0  0
 76 78  1  0  0  0
 76 80  2  0  0  0
 77 82  1  0  0  0
 77 83  2  0  0  0
 78146  1  0  0  0
 78147  1  0  0  0
 78148  1  0  0  0
 81149  1  0  0  0
 82150  1  0  0  0
M  ISO  4   1 100  68 101  80 101  81 100
M  END
> <chiral flag>
0

> <version>
0

> <s_m_source_file>
/data/baiqing/PycharmProjects/Reinvent-master-3.2/result/LINK_invent/BTK/process_docking_weight1_custom_product_contain_oxygen_bond_distance_aromatic_linkinvent_7_9_3/rearranged_h_0160.sdf

> <i_m_source_file_index>
90

> <r_mmod_Potential_Energy-OPLS-2005>
75.4802093505859

> <r_mmod_Stretch_Energy-OPLS-2005>
135.129669189453

> <r_mmod_Bend_Energy-OPLS-2005>
249.406265258789

> <r_mmod_Torsional_Energy-OPLS-2005>
229.315948486328

> <r_mmod_Improper_Torsional_Energy-OPLS-2005>
5.87686920166016

> <r_mmod_Van_der_Waal_Energy-OPLS-2005>
144.185516357422

> <r_mmod_Electrostatic_Energy-OPLS-2005>
-524.302001953125

> <r_mmod_Solvation_Energy-OPLS-2005>
-267.941192626953

> <b_mmod_Minimization_Converged-OPLS-2005>
0

> <r_mmod_RMS_Derivative-OPLS-2005>
1.78773844242096

$$$$
91
                    3D
 Structure written by MMmdl.
151160  0  0  1  0            999 V2000
  -30.5469  -14.9466   20.4284 C   0  0  0  0  0  0
  -30.4408  -12.5882   19.4981 C   0  0  0  0  0  0
  -29.5283  -12.5423   18.2528 C   0  0  0  0  0  0
  -28.0565  -12.3319   18.6601 C   0  0  0  0  0  0
  -27.6361  -13.2498   19.8401 C   0  0  2  0  0  0
  -28.6784  -13.2682   20.9797 C   0  0  0  0  0  0
  -25.2503  -13.8231   20.5673 C   0  0  0  0  0  0
  -24.1821  -13.0446   20.9198 C   0  0  0  0  0  0
  -24.6435  -11.6925   20.8720 C   0  0  0  0  0  0
  -23.9106  -10.4296   21.0382 C   0  0  0  0  0  0
  -24.3645   -9.4220   21.9169 C   0  0  0  0  0  0
  -23.6309   -8.2267   22.0763 C   0  0  0  0  0  0
  -22.4293   -8.0299   21.3553 C   0  0  0  0  0  0
  -21.9925   -9.0264   20.4649 C   0  0  0  0  0  0
  -22.7266  -10.2138   20.3048 C   0  0  0  0  0  0
  -21.6873   -6.0736   22.5277 C   0  0  0  0  0  0
  -21.4021   -6.5635   23.8209 C   0  0  0  0  0  0
  -21.3656   -5.6786   24.9172 C   0  0  0  0  0  0
  -21.6055   -4.3049   24.7225 C   0  0  0  0  0  0
  -21.8822   -3.8145   23.4344 C   0  0  0  0  0  0
  -21.9201   -4.6962   22.3400 C   0  0  0  0  0  0
  -22.7842  -13.5218   21.1839 C   0  0  0  0  0  0
  -22.1660   -4.2147   21.0978 F   0  0  0  0  0  0
  -21.5639   -3.4531   25.7742 F   0  0  0  0  0  0
  -29.9521  -13.6859   20.3852 N   0  0  0  0  0  0
  -26.2934  -12.9462   20.3232 N   0  0  0  0  0  0
  -25.9377  -11.6585   20.5713 N   0  0  0  0  0  0
  -22.0467  -12.8229   22.0391 N   0  0  0  0  0  0
  -25.4158  -15.1967   20.4064 N   0  0  0  0  0  0
  -31.7470  -14.9893   20.1404 O   0  0  0  0  0  0
  -21.6670   -6.8888   21.4243 O   0  0  0  0  0  0
  -22.3530  -14.5505   20.6651 O   0  0  0  0  0  0
  -24.6427  -31.8440   23.1892 C   0  0  0  0  0  0
  -25.9192  -32.4708   23.8285 C   0  0  1  0  0  0
  -27.2091  -27.1261   20.1899 C   0  0  0  0  0  0
  -25.5937  -33.8515   24.2197 N   0  0  0  0  0  0
  -23.4480  -30.4616   21.5319 C   0  0  2  0  0  0
  -24.9019  -28.8873   20.1151 C   0  0  0  0  0  0
  -22.7562  -29.4525   22.4852 C   0  0  0  0  0  0
  -18.0282  -28.1402   22.8480 C   0  0  0  0  0  0
  -24.1490  -36.7269   23.2638 C   0  0  0  0  0  0
  -26.0028  -30.7226   21.3845 C   0  0  0  0  0  0
  -26.0764  -29.3284   20.7368 C   0  0  0  0  0  0
  -27.2361  -28.4638   20.7555 C   0  0  0  0  0  0
  -26.0133  -26.7878   19.5228 C   0  0  0  0  0  0
  -24.8828  -27.6315   19.4897 C   0  0  0  0  0  0
  -23.6793  -29.7902   20.1518 C   0  0  0  0  0  0
  -25.4127  -36.3052   24.0312 C   0  0  1  0  0  0
  -20.5894  -28.3715   23.1255 C   0  0  2  0  0  0
  -20.6775  -26.9419   22.5415 C   0  0  0  0  0  0
  -19.5745  -26.6383   21.5227 C   0  0  0  0  0  0
  -18.1929  -26.7939   22.1630 C   0  0  0  0  0  0
  -19.1536  -28.8877   23.2863 C   0  0  0  0  0  0
  -18.9455  -30.1469   23.8895 C   0  0  0  0  0  0
  -17.6452  -30.6601   24.0560 C   0  0  0  0  0  0
  -25.9067  -34.9415   23.5062 C   0  0  0  0  0  0
  -16.5336  -29.9094   23.6331 C   0  0  0  0  0  0
  -16.7269  -28.6507   23.0360 C   0  0  0  0  0  0
  -26.4509  -31.6570   25.0710 C   0  0  0  0  0  0
  -25.3698  -31.3750   26.1402 C   0  0  0  0  0  0
  -27.0338  -30.2966   24.6264 C   0  0  0  0  0  0
  -27.6050  -32.4312   25.7502 C   0  0  0  0  0  0
  -27.5580  -37.1798   24.8460 C   0  0  0  0  0  0
  -21.4244  -29.3049   22.3639 N   0  0  0  0  0  0
  -26.4296  -37.3764   23.9398 N   0  0  0  0  0  0
  -24.7177  -31.0304   22.0920 N   0  0  0  0  0  0
  -23.4218  -28.8066   23.2992 O   0  0  0  0  0  0
  -28.2533  -26.1343   20.2404 O   0  0  0  0  0  0
  -26.5662  -34.8901   22.4644 O   0  0  0  0  0  0
  -23.5535  -32.1297   23.7109 O   0  0  0  0  0  0
  -29.1055  -18.8007   20.5701 C   0  0  0  0  0  0
  -30.8160  -20.4815   20.2533 C   0  0  0  0  0  0
  -31.3942  -18.0726   20.2813 C   0  0  0  0  0  0
  -29.4433  -20.2540   20.4561 C   0  0  0  0  0  0
  -30.0585  -17.6515   20.4865 C   0  0  0  0  0  0
  -31.7574  -19.4340   20.1632 C   0  0  0  0  0  0
  -28.1413  -22.3104   19.2404 C   0  0  0  0  0  0
  -28.5066  -21.6127   20.5279 C   0  0  2  0  0  0
  -28.7858  -23.2493   20.2423 C   0  0  2  0  0  0
  -27.9563  -24.6489   20.6232 C   0  0  0  0  0  0
  -29.7681  -16.1371   20.6024 N   0  0  0  0  0  0
  -33.0567  -19.7492   19.9538 F   0  0  0  0  0  0
  -31.4754  -12.7390   19.1857 H   0  0  0  0  0  0
  -30.4251  -11.6304   20.0197 H   0  0  0  0  0  0
  -29.8497  -11.7492   17.5750 H   0  0  0  0  0  0
  -29.6293  -13.4758   17.6970 H   0  0  0  0  0  0
  -27.9365  -11.2850   18.9398 H   0  0  0  0  0  0
  -27.4032  -12.4928   17.8009 H   0  0  0  0  0  0
  -27.6012  -14.2571   19.4241 H   0  0  0  0  0  0
  -28.7722  -12.2862   21.4462 H   0  0  0  0  0  0
  -28.3781  -13.9614   21.7684 H   0  0  0  0  0  0
  -25.2782   -9.5711   22.4744 H   0  0  0  0  0  0
  -24.0001   -7.4687   22.7509 H   0  0  0  0  0  0
  -21.0840   -8.8795   19.8967 H   0  0  0  0  0  0
  -22.3707  -10.9680   19.6166 H   0  0  0  0  0  0
  -21.2004   -7.6142   23.9705 H   0  0  0  0  0  0
  -21.1476   -6.0521   25.9075 H   0  0  0  0  0  0
  -22.0598   -2.7606   23.2857 H   0  0  0  0  0  0
  -22.4040  -11.9893   22.4827 H   0  0  0  0  0  0
  -21.1085  -13.1287   22.2523 H   0  0  0  0  0  0
  -24.6434  -15.8439   20.5235 H   0  0  0  0  0  0
  -26.2449  -15.6384   20.0317 H   0  0  0  0  0  0
  -26.7253  -32.5326   23.1017 H   0  0  0  0  0  0
  -25.0054  -33.9643   25.0325 H   0  0  0  0  0  0
  -22.7487  -31.2867   21.3745 H   0  0  0  0  0  0
  -23.3764  -35.9586   23.3286 H   0  0  0  0  0  0
  -24.3589  -36.8922   22.2057 H   0  0  0  0  0  0
  -23.7227  -37.6454   23.6683 H   0  0  0  0  0  0
  -26.1399  -31.4718   20.6041 H   0  0  0  0  0  0
  -26.8805  -30.7920   22.0158 H   0  0  0  0  0  0
  -28.1312  -28.7948   21.2650 H   0  0  0  0  0  0
  -25.9288  -25.8268   19.0363 H   0  0  0  0  0  0
  -23.9870  -27.2898   18.9910 H   0  0  0  0  0  0
  -23.8176  -30.5631   19.3946 H   0  0  0  0  0  0
  -22.7977  -29.2291   19.8406 H   0  0  0  0  0  0
  -25.1322  -36.1888   25.0810 H   0  0  0  0  0  0
  -20.9970  -28.3294   24.1385 H   0  0  0  0  0  0
  -20.5675  -26.2321   23.3633 H   0  0  0  0  0  0
  -21.6639  -26.7440   22.1206 H   0  0  0  0  0  0
  -19.6909  -25.6291   21.1278 H   0  0  0  0  0  0
  -19.6701  -27.3184   20.6752 H   0  0  0  0  0  0
  -17.4199  -26.6671   21.4032 H   0  0  0  0  0  0
  -18.0321  -26.0094   22.9039 H   0  0  0  0  0  0
  -19.7922  -30.7286   24.2284 H   0  0  0  0  0  0
  -17.4996  -31.6288   24.5142 H   0  0  0  0  0  0
  -15.5340  -30.3002   23.7660 H   0  0  0  0  0  0
  -15.8658  -28.0837   22.7091 H   0  0  0  0  0  0
  -24.5893  -30.7082   25.7720 H   0  0  0  0  0  0
  -24.8862  -32.2915   26.4780 H   0  0  0  0  0  0
  -25.7978  -30.8954   27.0213 H   0  0  0  0  0  0
  -26.2917  -29.6722   24.1268 H   0  0  0  0  0  0
  -27.3940  -29.7241   25.4825 H   0  0  0  0  0  0
  -27.8843  -30.4198   23.9558 H   0  0  0  0  0  0
  -27.2663  -33.3631   26.2040 H   0  0  0  0  0  0
  -28.3894  -32.6840   25.0357 H   0  0  0  0  0  0
  -28.0673  -31.8455   26.5459 H   0  0  0  0  0  0
  -28.2583  -38.0111   24.7520 H   0  0  0  0  0  0
  -28.1090  -36.2639   24.6272 H   0  0  0  0  0  0
  -27.2292  -37.1424   25.8862 H   0  0  0  0  0  0
  -20.9445  -29.8807   21.6863 H   0  0  0  0  0  0
  -26.0162  -38.2826   24.1425 H   0  0  0  0  0  0
  -28.0620  -18.5601   20.7246 H   0  0  0  0  0  0
  -31.1670  -21.4993   20.1634 H   0  0  0  0  0  0
  -32.1956  -17.3556   20.2131 H   0  0  0  0  0  0
  -27.0764  -22.4282   19.0475 H   0  0  0  0  0  0
  -28.7310  -22.1061   18.3496 H   0  0  0  0  0  0
  -27.7003  -21.4132   21.2319 H   0  0  0  0  0  0
  -29.8498  -23.4508   20.1432 H   0  0  0  0  0  0
  -27.9917  -24.6792   21.7133 H   0  0  0  0  0  0
  -26.9071  -24.4419   20.4230 H   0  0  0  0  0  0
  -28.8072  -15.9262   20.8202 H   0  0  0  0  0  0
  1 25  1  0  0  0
  1 30  2  0  0  0
  1 81  1  0  0  0
  2  3  1  0  0  0
  2 25  1  0  0  0
  2 83  1  0  0  0
  2 84  1  0  0  0
  3  4  1  0  0  0
  3 85  1  0  0  0
  3 86  1  0  0  0
  4  5  1  0  0  0
  4 87  1  0  0  0
  4 88  1  0  0  0
  5  6  1  0  0  0
  5 26  1  0  0  0
  5 89  1  0  0  0
  6 25  1  0  0  0
  6 90  1  0  0  0
  6 91  1  0  0  0
  7  8  2  0  0  0
  7 26  1  0  0  0
  7 29  1  0  0  0
  8  9  1  0  0  0
  8 22  1  0  0  0
  9 10  1  0  0  0
  9 27  2  0  0  0
 10 11  2  0  0  0
 10 15  1  0  0  0
 11 12  1  0  0  0
 11 92  1  0  0  0
 12 13  2  0  0  0
 12 93  1  0  0  0
 13 14  1  0  0  0
 13 31  1  0  0  0
 14 15  2  0  0  0
 14 94  1  0  0  0
 15 95  1  0  0  0
 16 17  2  0  0  0
 16 21  1  0  0  0
 16 31  1  0  0  0
 17 18  1  0  0  0
 17 96  1  0  0  0
 18 19  2  0  0  0
 18 97  1  0  0  0
 19 20  1  0  0  0
 19 24  1  0  0  0
 20 21  2  0  0  0
 20 98  1  0  0  0
 21 23  1  0  0  0
 22 28  1  0  0  0
 22 32  2  0  0  0
 26 27  1  0  0  0
 28 99  1  0  0  0
 28100  1  0  0  0
 29101  1  0  0  0
 29102  1  0  0  0
 33 34  1  0  0  0
 33 66  1  0  0  0
 33 70  2  0  0  0
 34 36  1  0  0  0
 34 59  1  0  0  0
 34103  1  0  0  0
 35 44  2  0  0  0
 35 45  1  0  0  0
 35 68  1  0  0  0
 36 56  1  0  0  0
 36104  1  0  0  0
 37 39  1  0  0  0
 37 47  1  0  0  0
 37 66  1  0  0  0
 37105  1  0  0  0
 38 43  2  0  0  0
 38 46  1  0  0  0
 38 47  1  0  0  0
 39 64  1  0  0  0
 39 67  2  0  0  0
 40 52  1  0  0  0
 40 53  2  0  0  0
 40 58  1  0  0  0
 41106  1  0  0  0
 41107  1  0  0  0
 41108  1  0  0  0
 41 48  1  0  0  0
 42 43  1  0  0  0
 42 66  1  0  0  0
 42109  1  0  0  0
 42110  1  0  0  0
 43 44  1  0  0  0
 44111  1  0  0  0
 45 46  2  0  0  0
 45112  1  0  0  0
 46113  1  0  0  0
 47114  1  0  0  0
 47115  1  0  0  0
 48 56  1  0  0  0
 48 65  1  0  0  0
 48116  1  0  0  0
 49 50  1  0  0  0
 49 53  1  0  0  0
 49 64  1  0  0  0
 49117  1  0  0  0
 50 51  1  0  0  0
 50118  1  0  0  0
 50119  1  0  0  0
 51 52  1  0  0  0
 51120  1  0  0  0
 51121  1  0  0  0
 52122  1  0  0  0
 52123  1  0  0  0
 53 54  1  0  0  0
 54 55  2  0  0  0
 54124  1  0  0  0
 55 57  1  0  0  0
 55125  1  0  0  0
 56 69  2  0  0  0
 57 58  2  0  0  0
 57126  1  0  0  0
 58127  1  0  0  0
 59 60  1  0  0  0
 59 61  1  0  0  0
 59 62  1  0  0  0
 60128  1  0  0  0
 60129  1  0  0  0
 60130  1  0  0  0
 61131  1  0  0  0
 61132  1  0  0  0
 61133  1  0  0  0
 62134  1  0  0  0
 62135  1  0  0  0
 62136  1  0  0  0
 63 65  1  0  0  0
 63137  1  0  0  0
 63138  1  0  0  0
 63139  1  0  0  0
 64140  1  0  0  0
 65141  1  0  0  0
 68 80  1  0  0  0
 71 74  2  0  0  0
 71 75  1  0  0  0
 71142  1  0  0  0
 72 74  1  0  0  0
 72 76  2  0  0  0
 72143  1  0  0  0
 73 75  2  0  0  0
 73 76  1  0  0  0
 73144  1  0  0  0
 74 78  1  0  0  0
 75 81  1  0  0  0
 76 82  1  0  0  0
 77 78  1  0  0  0
 77 79  1  0  0  0
 77145  1  0  0  0
 77146  1  0  0  0
 78 79  1  0  0  0
 78147  1  0  0  0
 79 80  1  0  0  0
 79148  1  0  0  0
 80149  1  0  0  0
 80150  1  0  0  0
 81151  1  0  0  0
M  ISO  4   1 100  68 101  80 101  81 100
M  END
> <chiral flag>
0

> <version>
0

> <s_m_source_file>
/data/baiqing/PycharmProjects/Reinvent-master-3.2/result/LINK_invent/BTK/process_docking_weight1_custom_product_contain_oxygen_bond_distance_aromatic_linkinvent_7_9_3/rearranged_h_0160.sdf

> <i_m_source_file_index>
91

> <r_mmod_Potential_Energy-OPLS-2005>
549.138854980469

> <r_mmod_Stretch_Energy-OPLS-2005>
274.598754882812

> <r_mmod_Bend_Energy-OPLS-2005>
239.806579589844

> <r_mmod_Torsional_Energy-OPLS-2005>
259.10107421875

> <r_mmod_Improper_Torsional_Energy-OPLS-2005>
4.05166053771973

> <r_mmod_Van_der_Waal_Energy-OPLS-2005>
131.672302246094

> <r_mmod_Electrostatic_Energy-OPLS-2005>
-351.230987548828

> <r_mmod_Solvation_Energy-OPLS-2005>
-202.668823242188

> <b_mmod_Minimization_Converged-OPLS-2005>
0

> <r_mmod_RMS_Derivative-OPLS-2005>
3.20794105529785

$$$$
92
                    3D
 Structure written by MMmdl.
154163  0  0  1  0            999 V2000
  -30.5667  -14.7453   20.4632 C   0  0  0  0  0  0
  -30.4472  -12.4551   19.4637 C   0  0  0  0  0  0
  -29.5143  -12.5135   18.2317 C   0  0  0  0  0  0
  -28.0390  -12.3314   18.6448 C   0  0  0  0  0  0
  -27.6456  -13.2207   19.8536 C   0  0  2  0  0  0
  -28.6919  -13.1232   20.9862 C   0  0  0  0  0  0
  -25.2536  -13.8170   20.5680 C   0  0  0  0  0  0
  -24.1818  -13.0430   20.9206 C   0  0  0  0  0  0
  -24.6394  -11.6903   20.8747 C   0  0  0  0  0  0
  -23.9069  -10.4287   21.0409 C   0  0  0  0  0  0
  -24.3617   -9.4204   21.9189 C   0  0  0  0  0  0
  -23.6291   -8.2242   22.0758 C   0  0  0  0  0  0
  -22.4274   -8.0278   21.3545 C   0  0  0  0  0  0
  -21.9908   -9.0256   20.4651 C   0  0  0  0  0  0
  -22.7239  -10.2135   20.3059 C   0  0  0  0  0  0
  -21.6853   -6.0737   22.5282 C   0  0  0  0  0  0
  -21.4012   -6.5641   23.8216 C   0  0  0  0  0  0
  -21.3659   -5.6791   24.9178 C   0  0  0  0  0  0
  -21.6047   -4.3054   24.7226 C   0  0  0  0  0  0
  -21.8818   -3.8148   23.4345 C   0  0  0  0  0  0
  -21.9192   -4.6967   22.3403 C   0  0  0  0  0  0
  -22.7841  -13.5226   21.1865 C   0  0  0  0  0  0
  -22.1660   -4.2152   21.0981 F   0  0  0  0  0  0
  -21.5629   -3.4538   25.7739 F   0  0  0  0  0  0
  -29.9945  -13.4940   20.4139 N   0  0  0  0  0  0
  -26.2955  -12.9354   20.3277 N   0  0  0  0  0  0
  -25.9320  -11.6508   20.5745 N   0  0  0  0  0  0
  -22.0480  -12.8220   22.0418 N   0  0  0  0  0  0
  -25.4224  -15.1897   20.4080 N   0  0  0  0  0  0
  -31.7501  -14.9069   20.1473 O   0  0  0  0  0  0
  -21.6635   -6.8877   21.4243 O   0  0  0  0  0  0
  -22.3532  -14.5536   20.6715 O   0  0  0  0  0  0
  -24.6309  -31.8544   23.1964 C   0  0  0  0  0  0
  -25.9134  -32.4750   23.8317 C   0  0  1  0  0  0
  -27.2261  -27.2677   20.1387 C   0  0  0  0  0  0
  -25.5936  -33.8550   24.2253 N   0  0  0  0  0  0
  -23.4275  -30.4747   21.5398 C   0  0  2  0  0  0
  -24.8756  -28.9127   20.1170 C   0  0  0  0  0  0
  -22.7495  -29.4604   22.4920 C   0  0  0  0  0  0
  -18.0292  -28.1388   22.8484 C   0  0  0  0  0  0
  -24.1490  -36.7279   23.2643 C   0  0  0  0  0  0
  -25.9708  -30.7719   21.3712 C   0  0  0  0  0  0
  -26.0468  -29.3914   20.7190 C   0  0  0  0  0  0
  -27.2279  -28.5836   20.7111 C   0  0  0  0  0  0
  -26.0325  -26.8446   19.5200 C   0  0  0  0  0  0
  -24.8729  -27.6472   19.5066 C   0  0  0  0  0  0
  -23.6458  -29.8003   20.1589 C   0  0  0  0  0  0
  -25.4118  -36.3068   24.0329 C   0  0  1  0  0  0
  -20.5893  -28.3700   23.1273 C   0  0  2  0  0  0
  -20.6775  -26.9418   22.5413 C   0  0  0  0  0  0
  -19.5753  -26.6386   21.5213 C   0  0  0  0  0  0
  -18.1933  -26.7930   22.1622 C   0  0  0  0  0  0
  -19.1544  -28.8861   23.2873 C   0  0  0  0  0  0
  -18.9465  -30.1460   23.8893 C   0  0  0  0  0  0
  -17.6463  -30.6589   24.0563 C   0  0  0  0  0  0
  -25.9056  -34.9436   23.5094 C   0  0  0  0  0  0
  -16.5356  -29.9085   23.6331 C   0  0  0  0  0  0
  -16.7277  -28.6501   23.0356 C   0  0  0  0  0  0
  -26.4504  -31.6575   25.0705 C   0  0  0  0  0  0
  -25.3732  -31.3711   26.1428 C   0  0  0  0  0  0
  -27.0357  -30.2996   24.6184 C   0  0  0  0  0  0
  -27.6063  -32.4310   25.7478 C   0  0  0  0  0  0
  -27.5577  -37.1797   24.8469 C   0  0  0  0  0  0
  -21.4204  -29.3048   22.3662 N   0  0  0  0  0  0
  -26.4293  -37.3768   23.9410 N   0  0  0  0  0  0
  -24.6955  -31.0519   22.0928 N   0  0  0  0  0  0
  -23.4192  -28.8152   23.3027 O   0  0  0  0  0  0
  -28.3388  -26.4018   20.1292 O   0  0  0  0  0  0
  -26.5628  -34.8914   22.4662 O   0  0  0  0  0  0
  -23.5461  -32.1359   23.7267 O   0  0  0  0  0  0
  -30.8387  -18.0887   20.6209 C   0  0  0  0  0  0
  -29.7788  -17.1991   20.5208 C   0  0  0  0  0  0
  -29.2400  -19.7561   20.1681 C   0  0  0  0  0  0
  -28.2636  -23.7688   18.4171 C   0  0  0  0  0  0
  -28.4634  -23.7491   19.7491 C   0  0  0  0  0  0
  -28.3806  -22.5629   17.4955 C   0  0  0  0  0  0
  -29.0619  -21.3419   18.1483 C   0  0  0  0  0  0
  -28.6276  -21.1096   19.6086 C   0  0  2  0  0  0
  -28.2197  -25.0094   20.6852 C   0  0  0  0  0  0
  -30.5318  -19.4784   20.4413 N   0  0  0  0  0  0
  -29.6948  -15.8027   20.6672 N   0  0  0  0  0  0
  -28.8944  -22.3825   20.4152 N   0  3  0  0  0  0
  -28.3317  -18.1990   20.2029 S   0  0  0  0  0  0
  -31.4841  -12.6065   19.1588 H   0  0  0  0  0  0
  -30.4126  -11.4699   19.9314 H   0  0  0  0  0  0
  -29.7970  -11.7487   17.5074 H   0  0  0  0  0  0
  -29.6358  -13.4724   17.7251 H   0  0  0  0  0  0
  -27.8958  -11.2805   18.8990 H   0  0  0  0  0  0
  -27.3814  -12.5309   17.7977 H   0  0  0  0  0  0
  -27.6450  -14.2456   19.4828 H   0  0  0  0  0  0
  -28.7289  -12.1114   21.3928 H   0  0  0  0  0  0
  -28.4252  -13.7728   21.8213 H   0  0  0  0  0  0
  -25.2764   -9.5681   22.4762 H   0  0  0  0  0  0
  -24.0005   -7.4629   22.7472 H   0  0  0  0  0  0
  -21.0843   -8.8776   19.8951 H   0  0  0  0  0  0
  -22.3704  -10.9675   19.6165 H   0  0  0  0  0  0
  -21.2002   -7.6147   23.9724 H   0  0  0  0  0  0
  -21.1481   -6.0519   25.9083 H   0  0  0  0  0  0
  -22.0598   -2.7610   23.2846 H   0  0  0  0  0  0
  -22.4081  -11.9873   22.4799 H   0  0  0  0  0  0
  -21.1101  -13.1260   22.2623 H   0  0  0  0  0  0
  -24.6467  -15.8353   20.5096 H   0  0  0  0  0  0
  -26.2545  -15.6307   20.0394 H   0  0  0  0  0  0
  -26.7200  -32.5410   23.1062 H   0  0  0  0  0  0
  -25.0102  -33.9685   25.0411 H   0  0  0  0  0  0
  -22.7249  -31.2971   21.3898 H   0  0  0  0  0  0
  -23.3755  -35.9608   23.3302 H   0  0  0  0  0  0
  -24.3583  -36.8902   22.2059 H   0  0  0  0  0  0
  -23.7231  -37.6476   23.6664 H   0  0  0  0  0  0
  -26.1040  -31.5296   20.5980 H   0  0  0  0  0  0
  -26.8499  -30.8261   22.0018 H   0  0  0  0  0  0
  -28.1307  -28.9511   21.1781 H   0  0  0  0  0  0
  -25.9902  -25.8721   19.0501 H   0  0  0  0  0  0
  -23.9754  -27.2747   19.0318 H   0  0  0  0  0  0
  -23.7705  -30.5722   19.3986 H   0  0  0  0  0  0
  -22.7641  -29.2321   19.8561 H   0  0  0  0  0  0
  -25.1297  -36.1919   25.0820 H   0  0  0  0  0  0
  -20.9985  -28.3277   24.1393 H   0  0  0  0  0  0
  -20.5675  -26.2311   23.3617 H   0  0  0  0  0  0
  -21.6642  -26.7444   22.1206 H   0  0  0  0  0  0
  -19.6915  -25.6296   21.1244 H   0  0  0  0  0  0
  -19.6687  -27.3196   20.6741 H   0  0  0  0  0  0
  -17.4204  -26.6686   21.4024 H   0  0  0  0  0  0
  -18.0330  -26.0073   22.9017 H   0  0  0  0  0  0
  -19.7943  -30.7278   24.2260 H   0  0  0  0  0  0
  -17.5018  -31.6269   24.5164 H   0  0  0  0  0  0
  -15.5354  -30.2984   23.7657 H   0  0  0  0  0  0
  -15.8678  -28.0814   22.7075 H   0  0  0  0  0  0
  -24.5929  -30.7035   25.7752 H   0  0  0  0  0  0
  -24.8902  -32.2873   26.4837 H   0  0  0  0  0  0
  -25.8062  -30.8908   27.0212 H   0  0  0  0  0  0
  -26.2941  -29.6731   24.1215 H   0  0  0  0  0  0
  -27.4056  -29.7266   25.4698 H   0  0  0  0  0  0
  -27.8803  -30.4276   23.9408 H   0  0  0  0  0  0
  -27.2684  -33.3624   26.2031 H   0  0  0  0  0  0
  -28.3888  -32.6842   25.0311 H   0  0  0  0  0  0
  -28.0713  -31.8445   26.5415 H   0  0  0  0  0  0
  -28.2595  -38.0095   24.7516 H   0  0  0  0  0  0
  -28.1072  -36.2625   24.6296 H   0  0  0  0  0  0
  -27.2297  -37.1445   25.8874 H   0  0  0  0  0  0
  -20.9391  -29.8759   21.6854 H   0  0  0  0  0  0
  -26.0170  -38.2841   24.1411 H   0  0  0  0  0  0
  -31.8661  -17.8232   20.8291 H   0  0  0  0  0  0
  -27.9390  -24.6900   17.9517 H   0  0  0  0  0  0
  -28.9223  -22.8517   16.5940 H   0  0  0  0  0  0
  -27.3725  -22.2956   17.1750 H   0  0  0  0  0  0
  -30.1446  -21.4702   18.1169 H   0  0  0  0  0  0
  -28.8489  -20.4531   17.5529 H   0  0  0  0  0  0
  -27.5450  -20.9756   19.6110 H   0  0  0  0  0  0
  -28.9300  -24.9446   21.5096 H   0  0  0  0  0  0
  -27.2368  -24.8885   21.1431 H   0  0  0  0  0  0
  -28.7593  -15.4708   20.8440 H   0  0  0  0  0  0
  -29.8833  -22.4008   20.6027 H   0  0  0  0  0  0
  -28.4412  -22.2704   21.3069 H   0  0  0  0  0  0
  1 25  1  0  0  0
  1 30  2  0  0  0
  1 81  1  0  0  0
  2  3  1  0  0  0
  2 25  1  0  0  0
  2 84  1  0  0  0
  2 85  1  0  0  0
  3  4  1  0  0  0
  3 86  1  0  0  0
  3 87  1  0  0  0
  4  5  1  0  0  0
  4 88  1  0  0  0
  4 89  1  0  0  0
  5  6  1  0  0  0
  5 26  1  0  0  0
  5 90  1  0  0  0
  6 25  1  0  0  0
  6 91  1  0  0  0
  6 92  1  0  0  0
  7  8  2  0  0  0
  7 26  1  0  0  0
  7 29  1  0  0  0
  8  9  1  0  0  0
  8 22  1  0  0  0
  9 10  1  0  0  0
  9 27  2  0  0  0
 10 11  2  0  0  0
 10 15  1  0  0  0
 11 12  1  0  0  0
 11 93  1  0  0  0
 12 13  2  0  0  0
 12 94  1  0  0  0
 13 14  1  0  0  0
 13 31  1  0  0  0
 14 15  2  0  0  0
 14 95  1  0  0  0
 15 96  1  0  0  0
 16 17  2  0  0  0
 16 21  1  0  0  0
 16 31  1  0  0  0
 17 18  1  0  0  0
 17 97  1  0  0  0
 18 19  2  0  0  0
 18 98  1  0  0  0
 19 20  1  0  0  0
 19 24  1  0  0  0
 20 21  2  0  0  0
 20 99  1  0  0  0
 21 23  1  0  0  0
 22 28  1  0  0  0
 22 32  2  0  0  0
 26 27  1  0  0  0
 28100  1  0  0  0
 28101  1  0  0  0
 29102  1  0  0  0
 29103  1  0  0  0
 33 34  1  0  0  0
 33 66  1  0  0  0
 33 70  2  0  0  0
 34 36  1  0  0  0
 34 59  1  0  0  0
 34104  1  0  0  0
 35 44  2  0  0  0
 35 45  1  0  0  0
 35 68  1  0  0  0
 36 56  1  0  0  0
 36105  1  0  0  0
 37 39  1  0  0  0
 37 47  1  0  0  0
 37 66  1  0  0  0
 37106  1  0  0  0
 38 43  2  0  0  0
 38 46  1  0  0  0
 38 47  1  0  0  0
 39 64  1  0  0  0
 39 67  2  0  0  0
 40 52  1  0  0  0
 40 53  2  0  0  0
 40 58  1  0  0  0
 41107  1  0  0  0
 41108  1  0  0  0
 41109  1  0  0  0
 41 48  1  0  0  0
 42 43  1  0  0  0
 42 66  1  0  0  0
 42110  1  0  0  0
 42111  1  0  0  0
 43 44  1  0  0  0
 44112  1  0  0  0
 45 46  2  0  0  0
 45113  1  0  0  0
 46114  1  0  0  0
 47115  1  0  0  0
 47116  1  0  0  0
 48 56  1  0  0  0
 48 65  1  0  0  0
 48117  1  0  0  0
 49 50  1  0  0  0
 49 53  1  0  0  0
 49 64  1  0  0  0
 49118  1  0  0  0
 50 51  1  0  0  0
 50119  1  0  0  0
 50120  1  0  0  0
 51 52  1  0  0  0
 51121  1  0  0  0
 51122  1  0  0  0
 52123  1  0  0  0
 52124  1  0  0  0
 53 54  1  0  0  0
 54 55  2  0  0  0
 54125  1  0  0  0
 55 57  1  0  0  0
 55126  1  0  0  0
 56 69  2  0  0  0
 57 58  2  0  0  0
 57127  1  0  0  0
 58128  1  0  0  0
 59 60  1  0  0  0
 59 61  1  0  0  0
 59 62  1  0  0  0
 60129  1  0  0  0
 60130  1  0  0  0
 60131  1  0  0  0
 61132  1  0  0  0
 61133  1  0  0  0
 61134  1  0  0  0
 62135  1  0  0  0
 62136  1  0  0  0
 62137  1  0  0  0
 63 65  1  0  0  0
 63138  1  0  0  0
 63139  1  0  0  0
 63140  1  0  0  0
 64141  1  0  0  0
 65142  1  0  0  0
 68 79  1  0  0  0
 71 72  2  0  0  0
 71 80  1  0  0  0
 71143  1  0  0  0
 72 81  1  0  0  0
 72 83  1  0  0  0
 73 80  2  0  0  0
 73 83  1  0  0  0
 73 78  1  0  0  0
 74 75  2  0  0  0
 74 76  1  0  0  0
 74144  1  0  0  0
 75 79  1  0  0  0
 75 82  1  0  0  0
 76 77  1  0  0  0
 76145  1  0  0  0
 76146  1  0  0  0
 77 78  1  0  0  0
 77147  1  0  0  0
 77148  1  0  0  0
 78 82  1  0  0  0
 78149  1  0  0  0
 79150  1  0  0  0
 79151  1  0  0  0
 81152  1  0  0  0
 82153  1  0  0  0
 82154  1  0  0  0
M  CHG  1  82   1
M  ISO  4   1 100  68 101  79 101  81 100
M  END
> <chiral flag>
0

> <version>
0

> <s_m_source_file>
/data/baiqing/PycharmProjects/Reinvent-master-3.2/result/LINK_invent/BTK/process_docking_weight1_custom_product_contain_oxygen_bond_distance_aromatic_linkinvent_7_9_3/rearranged_h_0160.sdf

> <i_m_source_file_index>
92

> <r_mmod_Potential_Energy-OPLS-2005>
-124.689010620117

> <r_mmod_Stretch_Energy-OPLS-2005>
113.495559692383

> <r_mmod_Bend_Energy-OPLS-2005>
181.230346679688

> <r_mmod_Torsional_Energy-OPLS-2005>
230.61897277832

> <r_mmod_Improper_Torsional_Energy-OPLS-2005>
7.2986307144165

> <r_mmod_Van_der_Waal_Energy-OPLS-2005>
112.786071777344

> <r_mmod_Electrostatic_Energy-OPLS-2005>
-368.345916748047

> <r_mmod_Solvation_Energy-OPLS-2005>
-483.041198730469

> <b_mmod_Minimization_Converged-OPLS-2005>
0

> <r_mmod_RMS_Derivative-OPLS-2005>
0.676271378993988

$$$$
93
                    3D
 Structure written by MMmdl.
156164  0  0  1  0            999 V2000
  -30.6733  -14.5090   20.5653 C   0  0  0  0  0  0
  -30.4395  -12.3304   19.4235 C   0  0  0  0  0  0
  -29.5080  -12.5181   18.2067 C   0  0  0  0  0  0
  -28.0269  -12.3717   18.6127 C   0  0  0  0  0  0
  -27.6664  -13.2043   19.8733 C   0  0  2  0  0  0
  -28.7091  -12.9835   20.9935 C   0  0  0  0  0  0
  -25.2640  -13.8153   20.5666 C   0  0  0  0  0  0
  -24.1873  -13.0445   20.9149 C   0  0  0  0  0  0
  -24.6403  -11.6902   20.8677 C   0  0  0  0  0  0
  -23.9058  -10.4299   21.0367 C   0  0  0  0  0  0
  -24.3616   -9.4223   21.9150 C   0  0  0  0  0  0
  -23.6307   -8.2250   22.0736 C   0  0  0  0  0  0
  -22.4284   -8.0282   21.3536 C   0  0  0  0  0  0
  -21.9904   -9.0252   20.4639 C   0  0  0  0  0  0
  -22.7224  -10.2135   20.3038 C   0  0  0  0  0  0
  -21.6874   -6.0744   22.5279 C   0  0  0  0  0  0
  -21.4020   -6.5640   23.8213 C   0  0  0  0  0  0
  -21.3654   -5.6783   24.9166 C   0  0  0  0  0  0
  -21.6038   -4.3047   24.7216 C   0  0  0  0  0  0
  -21.8827   -3.8151   23.4334 C   0  0  0  0  0  0
  -21.9196   -4.6968   22.3392 C   0  0  0  0  0  0
  -22.7896  -13.5266   21.1810 C   0  0  0  0  0  0
  -22.1674   -4.2155   21.0969 F   0  0  0  0  0  0
  -21.5616   -3.4525   25.7727 F   0  0  0  0  0  0
  -30.0364  -13.3107   20.4442 N   0  0  0  0  0  0
  -26.3059  -12.9310   20.3333 N   0  0  0  0  0  0
  -25.9328  -11.6473   20.5700 N   0  0  0  0  0  0
  -22.0526  -12.8269   22.0359 N   0  0  0  0  0  0
  -25.4380  -15.1875   20.4108 N   0  0  0  0  0  0
  -31.8112  -14.7079   20.1262 O   0  0  0  0  0  0
  -21.6648   -6.8887   21.4243 O   0  0  0  0  0  0
  -22.3576  -14.5569   20.6655 O   0  0  0  0  0  0
  -24.6183  -31.8678   23.2100 C   0  0  0  0  0  0
  -25.9062  -32.4838   23.8400 C   0  0  1  0  0  0
  -27.2265  -27.3894   20.1052 C   0  0  0  0  0  0
  -25.5903  -33.8634   24.2328 N   0  0  0  0  0  0
  -23.4081  -30.4922   21.5526 C   0  0  2  0  0  0
  -24.8517  -28.9568   20.1177 C   0  0  0  0  0  0
  -22.7436  -29.4654   22.4983 C   0  0  0  0  0  0
  -18.0275  -28.1387   22.8480 C   0  0  0  0  0  0
  -24.1478  -36.7308   23.2637 C   0  0  0  0  0  0
  -25.9438  -30.8175   21.3740 C   0  0  0  0  0  0
  -26.0174  -29.4504   20.7173 C   0  0  0  0  0  0
  -27.2061  -28.6774   20.7032 C   0  0  0  0  0  0
  -26.0368  -26.9301   19.4892 C   0  0  0  0  0  0
  -24.8587  -27.6979   19.5006 C   0  0  0  0  0  0
  -23.6190  -29.8296   20.1669 C   0  0  0  0  0  0
  -25.4108  -36.3126   24.0335 C   0  0  1  0  0  0
  -20.5862  -28.3667   23.1311 C   0  0  2  0  0  0
  -20.6769  -26.9402   22.5419 C   0  0  0  0  0  0
  -19.5756  -26.6382   21.5213 C   0  0  0  0  0  0
  -18.1925  -26.7931   22.1606 C   0  0  0  0  0  0
  -19.1524  -28.8846   23.2887 C   0  0  0  0  0  0
  -18.9450  -30.1451   23.8901 C   0  0  0  0  0  0
  -17.6453  -30.6595   24.0560 C   0  0  0  0  0  0
  -25.9042  -34.9491   23.5132 C   0  0  0  0  0  0
  -16.5345  -29.9093   23.6330 C   0  0  0  0  0  0
  -16.7263  -28.6512   23.0342 C   0  0  0  0  0  0
  -26.4476  -31.6636   25.0753 C   0  0  0  0  0  0
  -25.3725  -31.3748   26.1493 C   0  0  0  0  0  0
  -27.0339  -30.3081   24.6180 C   0  0  0  0  0  0
  -27.6053  -32.4365   25.7504 C   0  0  0  0  0  0
  -27.5586  -37.1805   24.8463 C   0  0  0  0  0  0
  -21.4157  -29.3038   22.3727 N   0  0  0  0  0  0
  -26.4297  -37.3817   23.9409 N   0  0  0  0  0  0
  -24.6754  -31.0737   22.1030 N   0  0  0  0  0  0
  -23.4189  -28.8192   23.3037 O   0  0  0  0  0  0
  -28.3921  -26.6313   20.1140 O   0  0  0  0  0  0
  -26.5606  -34.8945   22.4695 O   0  0  0  0  0  0
  -23.5358  -32.1454   23.7459 O   0  0  0  0  0  0
  -31.1439  -17.6667   21.2225 C   0  0  0  0  0  0
  -30.9579  -19.0408   20.8516 C   0  0  0  0  0  0
  -29.7846  -19.3134   20.1964 C   0  0  0  0  0  0
  -30.0871  -16.8551   20.8705 C   0  0  0  0  0  0
  -29.3302  -20.5326   19.5225 C   0  0  0  0  0  0
  -30.6936  -24.4688   20.8384 C   0  0  0  0  0  0
  -29.3576  -23.0259   19.1339 C   0  0  0  0  0  0
  -28.2784  -25.1842   20.2218 C   0  0  0  0  0  0
  -29.5741  -24.4369   19.7851 C   0  0  1  0  0  0
  -28.6314  -20.3842   18.3848 N   0  0  0  0  0  0
  -29.9134  -15.5105   21.0637 N   0  0  0  0  0  0
  -29.6039  -21.7985   19.9509 N   0  3  0  0  0  0
  -31.8744  -19.9511   21.0891 F   0  0  0  0  0  0
  -28.8313  -17.8361   20.1220 S   0  0  0  0  0  0
  -31.4819  -12.4523   19.1232 H   0  0  0  0  0  0
  -30.3604  -11.3167   19.8191 H   0  0  0  0  0  0
  -29.7572  -11.7956   17.4285 H   0  0  0  0  0  0
  -29.6711  -13.5046   17.7672 H   0  0  0  0  0  0
  -27.8363  -11.3147   18.8005 H   0  0  0  0  0  0
  -27.3810  -12.6527   17.7791 H   0  0  0  0  0  0
  -27.7096  -14.2534   19.5795 H   0  0  0  0  0  0
  -28.6943  -11.9435   21.3252 H   0  0  0  0  0  0
  -28.4663  -13.5690   21.8806 H   0  0  0  0  0  0
  -25.2768   -9.5713   22.4697 H   0  0  0  0  0  0
  -24.0029   -7.4654   22.7452 H   0  0  0  0  0  0
  -21.0833   -8.8777   19.8948 H   0  0  0  0  0  0
  -22.3688  -10.9668   19.6131 H   0  0  0  0  0  0
  -21.2032   -7.6154   23.9725 H   0  0  0  0  0  0
  -21.1455   -6.0502   25.9069 H   0  0  0  0  0  0
  -22.0612   -2.7615   23.2824 H   0  0  0  0  0  0
  -22.4177  -11.9973   22.4813 H   0  0  0  0  0  0
  -21.1117  -13.1266   22.2518 H   0  0  0  0  0  0
  -24.6708  -15.8411   20.5261 H   0  0  0  0  0  0
  -26.2865  -15.6281   20.0803 H   0  0  0  0  0  0
  -26.7134  -32.5556   23.1159 H   0  0  0  0  0  0
  -25.0070  -33.9795   25.0483 H   0  0  0  0  0  0
  -22.6987  -31.3110   21.4141 H   0  0  0  0  0  0
  -23.3769  -35.9614   23.3317 H   0  0  0  0  0  0
  -24.3566  -36.8916   22.2050 H   0  0  0  0  0  0
  -23.7203  -37.6499   23.6652 H   0  0  0  0  0  0
  -26.0689  -31.5838   20.6076 H   0  0  0  0  0  0
  -26.8261  -30.8632   22.0014 H   0  0  0  0  0  0
  -28.1045  -29.0525   21.1735 H   0  0  0  0  0  0
  -25.9813  -25.9870   18.9713 H   0  0  0  0  0  0
  -23.9656  -27.3158   19.0236 H   0  0  0  0  0  0
  -23.7353  -30.6058   19.4103 H   0  0  0  0  0  0
  -22.7428  -29.2541   19.8660 H   0  0  0  0  0  0
  -25.1287  -36.1993   25.0831 H   0  0  0  0  0  0
  -20.9938  -28.3238   24.1435 H   0  0  0  0  0  0
  -20.5665  -26.2280   23.3602 H   0  0  0  0  0  0
  -21.6642  -26.7454   22.1221 H   0  0  0  0  0  0
  -19.6918  -25.6289   21.1251 H   0  0  0  0  0  0
  -19.6714  -27.3185   20.6737 H   0  0  0  0  0  0
  -17.4201  -26.6674   21.4002 H   0  0  0  0  0  0
  -18.0324  -26.0081   22.9006 H   0  0  0  0  0  0
  -19.7935  -30.7256   24.2279 H   0  0  0  0  0  0
  -17.5024  -31.6282   24.5152 H   0  0  0  0  0  0
  -15.5346  -30.2996   23.7677 H   0  0  0  0  0  0
  -15.8658  -28.0852   22.7039 H   0  0  0  0  0  0
  -24.5858  -30.7160   25.7796 H   0  0  0  0  0  0
  -24.8964  -32.2913   26.4992 H   0  0  0  0  0  0
  -25.8039  -30.8847   27.0230 H   0  0  0  0  0  0
  -26.2917  -29.6829   24.1208 H   0  0  0  0  0  0
  -27.4074  -29.7342   25.4670 H   0  0  0  0  0  0
  -27.8762  -30.4415   23.9390 H   0  0  0  0  0  0
  -27.2676  -33.3641   26.2145 H   0  0  0  0  0  0
  -28.3814  -32.6979   25.0295 H   0  0  0  0  0  0
  -28.0799  -31.8477   26.5368 H   0  0  0  0  0  0
  -28.2612  -38.0096   24.7535 H   0  0  0  0  0  0
  -28.1069  -36.2634   24.6257 H   0  0  0  0  0  0
  -27.2311  -37.1430   25.8868 H   0  0  0  0  0  0
  -20.9322  -29.8771   21.6956 H   0  0  0  0  0  0
  -26.0194  -38.2894   24.1434 H   0  0  0  0  0  0
  -32.0431  -17.3339   21.7221 H   0  0  0  0  0  0
  -31.6166  -24.0463   20.4407 H   0  0  0  0  0  0
  -30.4247  -23.9095   21.7338 H   0  0  0  0  0  0
  -30.9125  -25.4917   21.1479 H   0  0  0  0  0  0
  -30.0281  -22.9445   18.2773 H   0  0  0  0  0  0
  -28.3519  -22.9758   18.7130 H   0  0  0  0  0  0
  -28.0160  -24.9163   21.2466 H   0  0  0  0  0  0
  -27.4793  -24.7942   19.5989 H   0  0  0  0  0  0
  -29.9518  -25.0327   18.9522 H   0  0  0  0  0  0
  -28.4543  -19.4620   18.0167 H   0  0  0  0  0  0
  -28.2653  -21.1605   17.8592 H   0  0  0  0  0  0
  -28.9840  -15.2156   21.3234 H   0  0  0  0  0  0
  -30.1745  -21.9059   20.7791 H   0  0  0  0  0  0
  1 25  1  0  0  0
  1 30  2  0  0  0
  1 81  1  0  0  0
  2  3  1  0  0  0
  2 25  1  0  0  0
  2 85  1  0  0  0
  2 86  1  0  0  0
  3  4  1  0  0  0
  3 87  1  0  0  0
  3 88  1  0  0  0
  4  5  1  0  0  0
  4 89  1  0  0  0
  4 90  1  0  0  0
  5  6  1  0  0  0
  5 26  1  0  0  0
  5 91  1  0  0  0
  6 25  1  0  0  0
  6 92  1  0  0  0
  6 93  1  0  0  0
  7  8  2  0  0  0
  7 26  1  0  0  0
  7 29  1  0  0  0
  8  9  1  0  0  0
  8 22  1  0  0  0
  9 10  1  0  0  0
  9 27  2  0  0  0
 10 11  2  0  0  0
 10 15  1  0  0  0
 11 12  1  0  0  0
 11 94  1  0  0  0
 12 13  2  0  0  0
 12 95  1  0  0  0
 13 14  1  0  0  0
 13 31  1  0  0  0
 14 15  2  0  0  0
 14 96  1  0  0  0
 15 97  1  0  0  0
 16 17  2  0  0  0
 16 21  1  0  0  0
 16 31  1  0  0  0
 17 18  1  0  0  0
 17 98  1  0  0  0
 18 19  2  0  0  0
 18 99  1  0  0  0
 19 20  1  0  0  0
 19 24  1  0  0  0
 20 21  2  0  0  0
 20100  1  0  0  0
 21 23  1  0  0  0
 22 28  1  0  0  0
 22 32  2  0  0  0
 26 27  1  0  0  0
 28101  1  0  0  0
 28102  1  0  0  0
 29103  1  0  0  0
 29104  1  0  0  0
 33 34  1  0  0  0
 33 66  1  0  0  0
 33 70  2  0  0  0
 34 36  1  0  0  0
 34 59  1  0  0  0
 34105  1  0  0  0
 35 44  2  0  0  0
 35 45  1  0  0  0
 35 68  1  0  0  0
 36 56  1  0  0  0
 36106  1  0  0  0
 37 39  1  0  0  0
 37 47  1  0  0  0
 37 66  1  0  0  0
 37107  1  0  0  0
 38 43  2  0  0  0
 38 46  1  0  0  0
 38 47  1  0  0  0
 39 64  1  0  0  0
 39 67  2  0  0  0
 40 52  1  0  0  0
 40 53  2  0  0  0
 40 58  1  0  0  0
 41108  1  0  0  0
 41109  1  0  0  0
 41110  1  0  0  0
 41 48  1  0  0  0
 42 43  1  0  0  0
 42 66  1  0  0  0
 42111  1  0  0  0
 42112  1  0  0  0
 43 44  1  0  0  0
 44113  1  0  0  0
 45 46  2  0  0  0
 45114  1  0  0  0
 46115  1  0  0  0
 47116  1  0  0  0
 47117  1  0  0  0
 48 56  1  0  0  0
 48 65  1  0  0  0
 48118  1  0  0  0
 49 50  1  0  0  0
 49 53  1  0  0  0
 49 64  1  0  0  0
 49119  1  0  0  0
 50 51  1  0  0  0
 50120  1  0  0  0
 50121  1  0  0  0
 51 52  1  0  0  0
 51122  1  0  0  0
 51123  1  0  0  0
 52124  1  0  0  0
 52125  1  0  0  0
 53 54  1  0  0  0
 54 55  2  0  0  0
 54126  1  0  0  0
 55 57  1  0  0  0
 55127  1  0  0  0
 56 69  2  0  0  0
 57 58  2  0  0  0
 57128  1  0  0  0
 58129  1  0  0  0
 59 60  1  0  0  0
 59 61  1  0  0  0
 59 62  1  0  0  0
 60130  1  0  0  0
 60131  1  0  0  0
 60132  1  0  0  0
 61133  1  0  0  0
 61134  1  0  0  0
 61135  1  0  0  0
 62136  1  0  0  0
 62137  1  0  0  0
 62138  1  0  0  0
 63 65  1  0  0  0
 63139  1  0  0  0
 63140  1  0  0  0
 63141  1  0  0  0
 64142  1  0  0  0
 65143  1  0  0  0
 68 78  1  0  0  0
 71 72  1  0  0  0
 71 74  2  0  0  0
 71144  1  0  0  0
 72 73  2  0  0  0
 72 83  1  0  0  0
 73 75  1  0  0  0
 73 84  1  0  0  0
 74 81  1  0  0  0
 74 84  1  0  0  0
 75 80  1  0  0  0
 75 82  2  0  0  0
 76145  1  0  0  0
 76146  1  0  0  0
 76147  1  0  0  0
 76 79  1  0  0  0
 77 79  1  0  0  0
 77 82  1  0  0  0
 77148  1  0  0  0
 77149  1  0  0  0
 78 79  1  0  0  0
 78150  1  0  0  0
 78151  1  0  0  0
 79152  1  0  0  0
 80153  1  0  0  0
 80154  1  0  0  0
 81155  1  0  0  0
 82156  1  0  0  0
M  CHG  1  82   1
M  ISO  4   1 100  68 101  78 101  81 100
M  END
> <chiral flag>
0

> <version>
0

> <s_m_source_file>
/data/baiqing/PycharmProjects/Reinvent-master-3.2/result/LINK_invent/BTK/process_docking_weight1_custom_product_contain_oxygen_bond_distance_aromatic_linkinvent_7_9_3/rearranged_h_0160.sdf

> <i_m_source_file_index>
93

> <r_mmod_Potential_Energy-OPLS-2005>
-131.404281616211

> <r_mmod_Stretch_Energy-OPLS-2005>
44.3807067871094

> <r_mmod_Bend_Energy-OPLS-2005>
115.842483520508

> <r_mmod_Torsional_Energy-OPLS-2005>
257.980102539062

> <r_mmod_Improper_Torsional_Energy-OPLS-2005>
5.33285760879517

> <r_mmod_Van_der_Waal_Energy-OPLS-2005>
134.096801757812

> <r_mmod_Electrostatic_Energy-OPLS-2005>
-250.322952270508

> <r_mmod_Solvation_Energy-OPLS-2005>
-457.402008056641

> <b_mmod_Minimization_Converged-OPLS-2005>
0

> <r_mmod_RMS_Derivative-OPLS-2005>
2.29179501533508

$$$$
