0
                    3D
 Structure written by MMmdl.
152160  0  0  1  0            999 V2000
  -30.6945  -14.5298   20.5017 C   0  0  0  0  0  0
  -30.4151  -12.3158   19.4542 C   0  0  0  0  0  0
  -29.5108  -12.5125   18.2207 C   0  0  0  0  0  0
  -28.0251  -12.3860   18.6091 C   0  0  0  0  0  0
  -27.6601  -13.2218   19.8666 C   0  0  2  0  0  0
  -28.6987  -13.0500   20.9999 C   0  0  0  0  0  0
  -25.2570  -13.8158   20.5633 C   0  0  0  0  0  0
  -24.1842  -13.0432   20.9154 C   0  0  0  0  0  0
  -24.6413  -11.6909   20.8693 C   0  0  0  0  0  0
  -23.9064  -10.4297   21.0377 C   0  0  0  0  0  0
  -24.3598   -9.4231   21.9173 C   0  0  0  0  0  0
  -23.6277   -8.2271   22.0780 C   0  0  0  0  0  0
  -22.4263   -8.0272   21.3563 C   0  0  0  0  0  0
  -21.9889   -9.0251   20.4673 C   0  0  0  0  0  0
  -22.7223  -10.2133   20.3057 C   0  0  0  0  0  0
  -21.6880   -6.0712   22.5258 C   0  0  0  0  0  0
  -21.4024   -6.5606   23.8182 C   0  0  0  0  0  0
  -21.3673   -5.6764   24.9144 C   0  0  0  0  0  0
  -21.6048   -4.3024   24.7209 C   0  0  0  0  0  0
  -21.8826   -3.8126   23.4329 C   0  0  0  0  0  0
  -21.9225   -4.6947   22.3390 C   0  0  0  0  0  0
  -22.7873  -13.5260   21.1806 C   0  0  0  0  0  0
  -22.1685   -4.2130   21.0985 F   0  0  0  0  0  0
  -21.5654   -3.4523   25.7725 F   0  0  0  0  0  0
  -30.0329  -13.3351   20.4478 N   0  0  0  0  0  0
  -26.3018  -12.9365   20.3272 N   0  0  0  0  0  0
  -25.9339  -11.6503   20.5647 N   0  0  0  0  0  0
  -22.0456  -12.8326   22.0353 N   0  0  0  0  0  0
  -25.4255  -15.1870   20.4011 N   0  0  0  0  0  0
  -31.8321  -14.6679   20.0431 O   0  0  0  0  0  0
  -21.6653   -6.8860   21.4225 O   0  0  0  0  0  0
  -22.3586  -14.5582   20.6646 O   0  0  0  0  0  0
  -24.6133  -31.8718   23.2132 C   0  0  0  0  0  0
  -25.9035  -32.4864   23.8401 C   0  0  1  0  0  0
  -27.2239  -27.4138   20.0915 C   0  0  0  0  0  0
  -25.5902  -33.8670   24.2361 N   0  0  0  0  0  0
  -23.4034  -30.4951   21.5567 C   0  0  2  0  0  0
  -24.8465  -28.9699   20.1138 C   0  0  0  0  0  0
  -22.7451  -29.4648   22.5038 C   0  0  0  0  0  0
  -18.0296  -28.1386   22.8498 C   0  0  0  0  0  0
  -24.1495  -36.7280   23.2635 C   0  0  0  0  0  0
  -25.9342  -30.8328   21.3704 C   0  0  0  0  0  0
  -26.0113  -29.4677   20.7115 C   0  0  0  0  0  0
  -27.2041  -28.6997   20.6951 C   0  0  0  0  0  0
  -26.0337  -26.9499   19.4821 C   0  0  0  0  0  0
  -24.8556  -27.7141   19.4930 C   0  0  0  0  0  0
  -23.6088  -29.8356   20.1685 C   0  0  0  0  0  0
  -25.4134  -36.3147   24.0342 C   0  0  1  0  0  0
  -20.5889  -28.3652   23.1361 C   0  0  2  0  0  0
  -20.6788  -26.9400   22.5437 C   0  0  0  0  0  0
  -19.5750  -26.6388   21.5246 C   0  0  0  0  0  0
  -18.1926  -26.7939   22.1635 C   0  0  0  0  0  0
  -19.1541  -28.8844   23.2909 C   0  0  0  0  0  0
  -18.9452  -30.1460   23.8894 C   0  0  0  0  0  0
  -17.6454  -30.6583   24.0561 C   0  0  0  0  0  0
  -25.9042  -34.9509   23.5143 C   0  0  0  0  0  0
  -16.5352  -29.9076   23.6331 C   0  0  0  0  0  0
  -16.7277  -28.6501   23.0334 C   0  0  0  0  0  0
  -26.4450  -31.6646   25.0720 C   0  0  0  0  0  0
  -25.3688  -31.3707   26.1445 C   0  0  0  0  0  0
  -27.0254  -30.3103   24.6045 C   0  0  0  0  0  0
  -27.6046  -32.4351   25.7448 C   0  0  0  0  0  0
  -27.5610  -37.1808   24.8473 C   0  0  0  0  0  0
  -21.4185  -29.3007   22.3777 N   0  0  0  0  0  0
  -26.4321  -37.3833   23.9413 N   0  0  0  0  0  0
  -24.6688  -31.0809   22.1053 N   0  0  0  0  0  0
  -23.4237  -28.8189   23.3063 O   0  0  0  0  0  0
  -28.3738  -26.6314   20.1196 O   0  0  0  0  0  0
  -26.5582  -34.8957   22.4692 O   0  0  0  0  0  0
  -23.5326  -32.1469   23.7527 O   0  0  0  0  0  0
  -29.7760  -18.7954   18.7417 C   0  0  0  0  0  0
  -29.6065  -19.1315   20.0722 C   0  0  0  0  0  0
  -29.9696  -16.8715   20.3014 C   0  0  0  0  0  0
  -29.0374  -22.8600   20.8011 C   0  0  0  0  0  0
  -29.7991  -21.6441   20.1660 C   0  0  0  0  0  0
  -29.6369  -19.6450   17.5167 C   0  0  0  0  0  0
  -29.4028  -24.3076   20.3707 C   0  0  0  0  0  0
  -28.1626  -25.1965   20.0650 C   0  0  0  0  0  0
  -29.6455  -18.0141   20.9399 N   0  0  0  0  0  0
  -29.2695  -20.4471   20.5270 N   0  0  0  0  0  0
  -30.0065  -15.5990   20.9574 N   0  0  0  0  0  0
  -28.1649  -22.6740   21.6602 O   0  0  0  0  0  0
  -30.7880  -21.7908   19.4390 O   0  0  0  0  0  0
  -30.1836  -17.1024   18.5651 S   0  0  0  0  0  0
  -31.4675  -12.3794   19.1687 H   0  0  0  0  0  0
  -30.2771  -11.3166   19.8698 H   0  0  0  0  0  0
  -29.7635  -11.7840   17.4480 H   0  0  0  0  0  0
  -29.6942  -13.4952   17.7813 H   0  0  0  0  0  0
  -27.8072  -11.3322   18.7807 H   0  0  0  0  0  0
  -27.4025  -12.6972   17.7706 H   0  0  0  0  0  0
  -27.6919  -14.2662   19.5578 H   0  0  0  0  0  0
  -28.6715  -12.0356   21.4007 H   0  0  0  0  0  0
  -28.4563  -13.7006   21.8393 H   0  0  0  0  0  0
  -25.2740   -9.5733   22.4727 H   0  0  0  0  0  0
  -23.9997   -7.4693   22.7530 H   0  0  0  0  0  0
  -21.0820   -8.8762   19.8988 H   0  0  0  0  0  0
  -22.3654  -10.9646   19.6156 H   0  0  0  0  0  0
  -21.1961   -7.6092   23.9654 H   0  0  0  0  0  0
  -21.1511   -6.0495   25.9042 H   0  0  0  0  0  0
  -22.0609   -2.7592   23.2820 H   0  0  0  0  0  0
  -22.4009  -11.9996   22.4802 H   0  0  0  0  0  0
  -21.1087  -13.1459   22.2463 H   0  0  0  0  0  0
  -24.6549  -15.8371   20.5054 H   0  0  0  0  0  0
  -26.2633  -15.6246   20.0401 H   0  0  0  0  0  0
  -26.7085  -32.5593   23.1144 H   0  0  0  0  0  0
  -25.0152  -33.9831   25.0565 H   0  0  0  0  0  0
  -22.6870  -31.3097   21.4263 H   0  0  0  0  0  0
  -23.3820  -35.9546   23.3314 H   0  0  0  0  0  0
  -24.3578  -36.8878   22.2045 H   0  0  0  0  0  0
  -23.7175  -37.6458   23.6623 H   0  0  0  0  0  0
  -26.0533  -31.6089   20.6139 H   0  0  0  0  0  0
  -26.8186  -30.8805   21.9930 H   0  0  0  0  0  0
  -28.0985  -29.0811   21.1662 H   0  0  0  0  0  0
  -25.9806  -25.9933   18.9860 H   0  0  0  0  0  0
  -23.9629  -27.3322   19.0165 H   0  0  0  0  0  0
  -23.7142  -30.6134   19.4105 H   0  0  0  0  0  0
  -22.7315  -29.2548   19.8746 H   0  0  0  0  0  0
  -25.1321  -36.2018   25.0834 H   0  0  0  0  0  0
  -20.9950  -28.3213   24.1497 H   0  0  0  0  0  0
  -20.5782  -26.2242   23.3609 H   0  0  0  0  0  0
  -21.6651  -26.7499   22.1185 H   0  0  0  0  0  0
  -19.6899  -25.6309   21.1254 H   0  0  0  0  0  0
  -19.6689  -27.3223   20.6794 H   0  0  0  0  0  0
  -17.4221  -26.6739   21.4004 H   0  0  0  0  0  0
  -18.0266  -26.0092   22.9028 H   0  0  0  0  0  0
  -19.7922  -30.7295   24.2258 H   0  0  0  0  0  0
  -17.4988  -31.6265   24.5162 H   0  0  0  0  0  0
  -15.5337  -30.2937   23.7663 H   0  0  0  0  0  0
  -15.8697  -28.0810   22.7020 H   0  0  0  0  0  0
  -24.5877  -30.7063   25.7743 H   0  0  0  0  0  0
  -24.8825  -32.2828   26.4908 H   0  0  0  0  0  0
  -25.8008  -30.8842   27.0192 H   0  0  0  0  0  0
  -26.2756  -29.6914   24.1109 H   0  0  0  0  0  0
  -27.4073  -29.7314   25.4455 H   0  0  0  0  0  0
  -27.8584  -30.4477   23.9149 H   0  0  0  0  0  0
  -27.2721  -33.3686   26.2000 H   0  0  0  0  0  0
  -28.3818  -32.6877   25.0221 H   0  0  0  0  0  0
  -28.0735  -31.8484   26.5351 H   0  0  0  0  0  0
  -28.2644  -38.0100   24.7594 H   0  0  0  0  0  0
  -28.1104  -36.2646   24.6244 H   0  0  0  0  0  0
  -27.2312  -37.1401   25.8871 H   0  0  0  0  0  0
  -20.9370  -29.8684   21.6952 H   0  0  0  0  0  0
  -26.0234  -38.2916   24.1443 H   0  0  0  0  0  0
  -30.5999  -20.0671   17.2247 H   0  0  0  0  0  0
  -28.9325  -20.4620   17.6778 H   0  0  0  0  0  0
  -29.2580  -19.0680   16.6717 H   0  0  0  0  0  0
  -30.0723  -24.2954   19.5125 H   0  0  0  0  0  0
  -29.9662  -24.7486   21.1913 H   0  0  0  0  0  0
  -27.3567  -24.9449   20.7572 H   0  0  0  0  0  0
  -27.8205  -24.9256   19.0671 H   0  0  0  0  0  0
  -28.5539  -20.5162   21.2379 H   0  0  0  0  0  0
  -29.2342  -15.4122   21.5763 H   0  0  0  0  0  0
  1 25  1  0  0  0
  1 30  2  0  0  0
  1 81  1  0  0  0
  2  3  1  0  0  0
  2 25  1  0  0  0
  2 85  1  0  0  0
  2 86  1  0  0  0
  3  4  1  0  0  0
  3 87  1  0  0  0
  3 88  1  0  0  0
  4  5  1  0  0  0
  4 89  1  0  0  0
  4 90  1  0  0  0
  5  6  1  0  0  0
  5 26  1  0  0  0
  5 91  1  0  0  0
  6 25  1  0  0  0
  6 92  1  0  0  0
  6 93  1  0  0  0
  7  8  2  0  0  0
  7 26  1  0  0  0
  7 29  1  0  0  0
  8  9  1  0  0  0
  8 22  1  0  0  0
  9 10  1  0  0  0
  9 27  2  0  0  0
 10 11  2  0  0  0
 10 15  1  0  0  0
 11 12  1  0  0  0
 11 94  1  0  0  0
 12 13  2  0  0  0
 12 95  1  0  0  0
 13 14  1  0  0  0
 13 31  1  0  0  0
 14 15  2  0  0  0
 14 96  1  0  0  0
 15 97  1  0  0  0
 16 17  2  0  0  0
 16 21  1  0  0  0
 16 31  1  0  0  0
 17 18  1  0  0  0
 17 98  1  0  0  0
 18 19  2  0  0  0
 18 99  1  0  0  0
 19 20  1  0  0  0
 19 24  1  0  0  0
 20 21  2  0  0  0
 20100  1  0  0  0
 21 23  1  0  0  0
 22 28  1  0  0  0
 22 32  2  0  0  0
 26 27  1  0  0  0
 28101  1  0  0  0
 28102  1  0  0  0
 29103  1  0  0  0
 29104  1  0  0  0
 33 34  1  0  0  0
 33 66  1  0  0  0
 33 70  2  0  0  0
 34 36  1  0  0  0
 34 59  1  0  0  0
 34105  1  0  0  0
 35 44  2  0  0  0
 35 45  1  0  0  0
 35 68  1  0  0  0
 36 56  1  0  0  0
 36106  1  0  0  0
 37 39  1  0  0  0
 37 47  1  0  0  0
 37 66  1  0  0  0
 37107  1  0  0  0
 38 43  2  0  0  0
 38 46  1  0  0  0
 38 47  1  0  0  0
 39 64  1  0  0  0
 39 67  2  0  0  0
 40 52  1  0  0  0
 40 53  2  0  0  0
 40 58  1  0  0  0
 41108  1  0  0  0
 41109  1  0  0  0
 41110  1  0  0  0
 41 48  1  0  0  0
 42 43  1  0  0  0
 42 66  1  0  0  0
 42111  1  0  0  0
 42112  1  0  0  0
 43 44  1  0  0  0
 44113  1  0  0  0
 45 46  2  0  0  0
 45114  1  0  0  0
 46115  1  0  0  0
 47116  1  0  0  0
 47117  1  0  0  0
 48 56  1  0  0  0
 48 65  1  0  0  0
 48118  1  0  0  0
 49 50  1  0  0  0
 49 53  1  0  0  0
 49 64  1  0  0  0
 49119  1  0  0  0
 50 51  1  0  0  0
 50120  1  0  0  0
 50121  1  0  0  0
 51 52  1  0  0  0
 51122  1  0  0  0
 51123  1  0  0  0
 52124  1  0  0  0
 52125  1  0  0  0
 53 54  1  0  0  0
 54 55  2  0  0  0
 54126  1  0  0  0
 55 57  1  0  0  0
 55127  1  0  0  0
 56 69  2  0  0  0
 57 58  2  0  0  0
 57128  1  0  0  0
 58129  1  0  0  0
 59 60  1  0  0  0
 59 61  1  0  0  0
 59 62  1  0  0  0
 60130  1  0  0  0
 60131  1  0  0  0
 60132  1  0  0  0
 61133  1  0  0  0
 61134  1  0  0  0
 61135  1  0  0  0
 62136  1  0  0  0
 62137  1  0  0  0
 62138  1  0  0  0
 63 65  1  0  0  0
 63139  1  0  0  0
 63140  1  0  0  0
 63141  1  0  0  0
 64142  1  0  0  0
 65143  1  0  0  0
 68 78  1  0  0  0
 71 72  2  0  0  0
 71 76  1  0  0  0
 71 84  1  0  0  0
 72 79  1  0  0  0
 72 80  1  0  0  0
 73 79  2  0  0  0
 73 81  1  0  0  0
 73 84  1  0  0  0
 74 75  1  0  0  0
 74 77  1  0  0  0
 74 82  2  0  0  0
 75 80  1  0  0  0
 75 83  2  0  0  0
 76144  1  0  0  0
 76145  1  0  0  0
 76146  1  0  0  0
 77 78  1  0  0  0
 77147  1  0  0  0
 77148  1  0  0  0
 78149  1  0  0  0
 78150  1  0  0  0
 80151  1  0  0  0
 81152  1  0  0  0
M  ISO  4   1 100  68 101  78 101  81 100
M  END
> <chiral flag>
0

> <version>
0

> <s_m_source_file>
/data/baiqing/PycharmProjects/Reinvent-master-3.2/result/LINK_invent/BTK/process_docking_weight1_custom_product_contain_oxygen_bond_distance_aromatic_linkinvent_7_9_3/rearranged_h_0180.sdf

> <i_m_source_file_index>
1

> <r_mmod_Potential_Energy-OPLS-2005>
-142.773376464844

> <r_mmod_Stretch_Energy-OPLS-2005>
44.548770904541

> <r_mmod_Bend_Energy-OPLS-2005>
104.758651733398

> <r_mmod_Torsional_Energy-OPLS-2005>
253.063522338867

> <r_mmod_Improper_Torsional_Energy-OPLS-2005>
5.67054414749146

> <r_mmod_Van_der_Waal_Energy-OPLS-2005>
135.553161621094

> <r_mmod_Electrostatic_Energy-OPLS-2005>
-472.455871582031

> <r_mmod_Solvation_Energy-OPLS-2005>
-234.730682373047

> <b_mmod_Minimization_Converged-OPLS-2005>
0

> <r_mmod_RMS_Derivative-OPLS-2005>
4.14697265625

$$$$
1
                    3D
 Structure written by MMmdl.
153161  0  0  1  0            999 V2000
  -30.5777  -14.9014   20.4901 C   0  0  0  0  0  0
  -30.4356  -12.5662   19.5017 C   0  0  0  0  0  0
  -29.5188  -12.5467   18.2571 C   0  0  0  0  0  0
  -28.0514  -12.3339   18.6696 C   0  0  0  0  0  0
  -27.6359  -13.2488   19.8505 C   0  0  2  0  0  0
  -28.6746  -13.2386   20.9921 C   0  0  0  0  0  0
  -25.2463  -13.8209   20.5701 C   0  0  0  0  0  0
  -24.1779  -13.0432   20.9206 C   0  0  0  0  0  0
  -24.6403  -11.6922   20.8744 C   0  0  0  0  0  0
  -23.9087  -10.4292   21.0403 C   0  0  0  0  0  0
  -24.3632   -9.4206   21.9183 C   0  0  0  0  0  0
  -23.6300   -8.2245   22.0755 C   0  0  0  0  0  0
  -22.4281   -8.0283   21.3544 C   0  0  0  0  0  0
  -21.9921   -9.0259   20.4647 C   0  0  0  0  0  0
  -22.7256  -10.2134   20.3054 C   0  0  0  0  0  0
  -21.6855   -6.0736   22.5279 C   0  0  0  0  0  0
  -21.4017   -6.5640   23.8212 C   0  0  0  0  0  0
  -21.3661   -5.6793   24.9175 C   0  0  0  0  0  0
  -21.6042   -4.3054   24.7225 C   0  0  0  0  0  0
  -21.8819   -3.8146   23.4346 C   0  0  0  0  0  0
  -21.9194   -4.6964   22.3402 C   0  0  0  0  0  0
  -22.7799  -13.5205   21.1867 C   0  0  0  0  0  0
  -22.1661   -4.2148   21.0979 F   0  0  0  0  0  0
  -21.5628   -3.4539   25.7740 F   0  0  0  0  0  0
  -29.9664  -13.6470   20.4191 N   0  0  0  0  0  0
  -26.2912  -12.9456   20.3286 N   0  0  0  0  0  0
  -25.9343  -11.6580   20.5753 N   0  0  0  0  0  0
  -22.0457  -12.8194   22.0430 N   0  0  0  0  0  0
  -25.4109  -15.1928   20.4112 N   0  0  0  0  0  0
  -31.7040  -15.0095   19.9926 O   0  0  0  0  0  0
  -21.6641   -6.8881   21.4241 O   0  0  0  0  0  0
  -22.3476  -14.5508   20.6714 O   0  0  0  0  0  0
  -24.6419  -31.8441   23.1876 C   0  0  0  0  0  0
  -25.9196  -32.4697   23.8265 C   0  0  1  0  0  0
  -27.2276  -27.1565   20.1366 C   0  0  0  0  0  0
  -25.5947  -33.8500   24.2187 N   0  0  0  0  0  0
  -23.4461  -30.4616   21.5315 C   0  0  2  0  0  0
  -24.8997  -28.8937   20.0990 C   0  0  0  0  0  0
  -22.7568  -29.4539   22.4852 C   0  0  0  0  0  0
  -18.0305  -28.1392   22.8479 C   0  0  0  0  0  0
  -24.1490  -36.7252   23.2642 C   0  0  0  0  0  0
  -25.9998  -30.7225   21.3851 C   0  0  0  0  0  0
  -26.0731  -29.3368   20.7224 C   0  0  0  0  0  0
  -27.2343  -28.4791   20.7337 C   0  0  0  0  0  0
  -26.0310  -26.8098   19.4723 C   0  0  0  0  0  0
  -24.8905  -27.6438   19.4590 C   0  0  0  0  0  0
  -23.6721  -29.7903   20.1495 C   0  0  0  0  0  0
  -25.4122  -36.3033   24.0320 C   0  0  1  0  0  0
  -20.5919  -28.3715   23.1238 C   0  0  2  0  0  0
  -20.6786  -26.9419   22.5406 C   0  0  0  0  0  0
  -19.5759  -26.6378   21.5211 C   0  0  0  0  0  0
  -18.1941  -26.7932   22.1625 C   0  0  0  0  0  0
  -19.1562  -28.8873   23.2850 C   0  0  0  0  0  0
  -18.9478  -30.1469   23.8876 C   0  0  0  0  0  0
  -17.6475  -30.6589   24.0558 C   0  0  0  0  0  0
  -25.9069  -34.9408   23.5064 C   0  0  0  0  0  0
  -16.5365  -29.9082   23.6334 C   0  0  0  0  0  0
  -16.7290  -28.6498   23.0358 C   0  0  0  0  0  0
  -26.4521  -31.6565   25.0703 C   0  0  0  0  0  0
  -25.3705  -31.3753   26.1401 C   0  0  0  0  0  0
  -27.0383  -30.2962   24.6274 C   0  0  0  0  0  0
  -27.6055  -32.4327   25.7489 C   0  0  0  0  0  0
  -27.5578  -37.1783   24.8465 C   0  0  0  0  0  0
  -21.4260  -29.3038   22.3608 N   0  0  0  0  0  0
  -26.4286  -37.3748   23.9411 N   0  0  0  0  0  0
  -24.7152  -31.0306   22.0900 N   0  0  0  0  0  0
  -23.4216  -28.8092   23.3002 O   0  0  0  0  0  0
  -28.2386  -26.1458   20.3063 O   0  0  0  0  0  0
  -26.5655  -34.8910   22.4642 O   0  0  0  0  0  0
  -23.5542  -32.1308   23.7106 O   0  0  0  0  0  0
  -27.8521  -19.3626   21.0258 C   0  0  0  0  0  0
  -29.0407  -19.7691   20.4813 C   0  0  0  0  0  0
  -29.9359  -18.5547   20.3593 C   0  0  0  0  0  0
  -29.4571  -17.2842   20.8300 C   0  0  0  0  0  0
  -28.4441  -25.0323   19.4073 C   0  0  0  0  0  0
  -28.6895  -23.6224   19.4101 C   0  0  0  0  0  0
  -28.7214  -22.4788   20.4430 C   0  0  0  0  0  0
  -31.2621  -16.7303   23.2174 C   0  0  0  0  0  0
  -30.1506  -15.8301   22.6509 C   0  0  0  0  0  0
  -29.2180  -21.2143   20.0145 N   0  0  0  0  0  0
  -29.9901  -15.9895   21.1893 N   0  0  0  0  0  0
  -28.3283  -22.6229   21.6015 O   0  0  0  0  0  0
  -28.9274  -23.1486   18.1746 O   0  0  0  0  0  0
  -31.1547  -18.6912   19.8901 F   0  0  0  0  0  0
  -27.8039  -17.6272   21.3469 S   0  0  0  0  0  0
  -31.4732  -12.7071   19.1950 H   0  0  0  0  0  0
  -30.4126  -11.6011   20.0103 H   0  0  0  0  0  0
  -29.8319  -11.7623   17.5665 H   0  0  0  0  0  0
  -29.6154  -13.4891   17.7156 H   0  0  0  0  0  0
  -27.9387  -11.2878   18.9568 H   0  0  0  0  0  0
  -27.3897  -12.4889   17.8166 H   0  0  0  0  0  0
  -27.6131  -14.2623   19.4487 H   0  0  0  0  0  0
  -28.7465  -12.2512   21.4502 H   0  0  0  0  0  0
  -28.3599  -13.9188   21.7835 H   0  0  0  0  0  0
  -25.2777   -9.5679   22.4758 H   0  0  0  0  0  0
  -24.0005   -7.4637   22.7477 H   0  0  0  0  0  0
  -21.0850   -8.8782   19.8954 H   0  0  0  0  0  0
  -22.3716  -10.9673   19.6162 H   0  0  0  0  0  0
  -21.2011   -7.6149   23.9714 H   0  0  0  0  0  0
  -21.1481   -6.0524   25.9077 H   0  0  0  0  0  0
  -22.0597   -2.7609   23.2848 H   0  0  0  0  0  0
  -22.4081  -11.9858   22.4817 H   0  0  0  0  0  0
  -21.1075  -13.1210   22.2645 H   0  0  0  0  0  0
  -24.6443  -15.8457   20.5292 H   0  0  0  0  0  0
  -26.2675  -15.6373   20.1079 H   0  0  0  0  0  0
  -26.7263  -32.5313   23.0995 H   0  0  0  0  0  0
  -25.0082  -33.9608   25.0329 H   0  0  0  0  0  0
  -22.7473  -31.2864   21.3772 H   0  0  0  0  0  0
  -23.3762  -35.9574   23.3288 H   0  0  0  0  0  0
  -24.3573  -36.8893   22.2057 H   0  0  0  0  0  0
  -23.7233  -37.6443   23.6681 H   0  0  0  0  0  0
  -26.1547  -31.4801   20.6158 H   0  0  0  0  0  0
  -26.8705  -30.7714   22.0274 H   0  0  0  0  0  0
  -28.1199  -28.7997   21.2647 H   0  0  0  0  0  0
  -25.9423  -25.8365   19.0115 H   0  0  0  0  0  0
  -23.9920  -27.2966   18.9671 H   0  0  0  0  0  0
  -23.8015  -30.5647   19.3923 H   0  0  0  0  0  0
  -22.7885  -29.2273   19.8439 H   0  0  0  0  0  0
  -25.1309  -36.1862   25.0813 H   0  0  0  0  0  0
  -21.0012  -28.3309   24.1360 H   0  0  0  0  0  0
  -20.5669  -26.2330   23.3623 H   0  0  0  0  0  0
  -21.6653  -26.7417   22.1209 H   0  0  0  0  0  0
  -19.6916  -25.6283   21.1254 H   0  0  0  0  0  0
  -19.6698  -27.3177   20.6731 H   0  0  0  0  0  0
  -17.4210  -26.6674   21.4029 H   0  0  0  0  0  0
  -18.0339  -26.0081   22.9027 H   0  0  0  0  0  0
  -19.7954  -30.7287   24.2239 H   0  0  0  0  0  0
  -17.5027  -31.6269   24.5157 H   0  0  0  0  0  0
  -15.5363  -30.2975   23.7667 H   0  0  0  0  0  0
  -15.8690  -28.0803   22.7093 H   0  0  0  0  0  0
  -24.5897  -30.7085   25.7724 H   0  0  0  0  0  0
  -24.8883  -32.2935   26.4766 H   0  0  0  0  0  0
  -25.7996  -30.8972   27.0215 H   0  0  0  0  0  0
  -26.2998  -29.6687   24.1272 H   0  0  0  0  0  0
  -27.3991  -29.7256   25.4842 H   0  0  0  0  0  0
  -27.8907  -30.4198   23.9588 H   0  0  0  0  0  0
  -27.2654  -33.3649   26.2008 H   0  0  0  0  0  0
  -28.3901  -32.6848   25.0344 H   0  0  0  0  0  0
  -28.0679  -31.8486   26.5455 H   0  0  0  0  0  0
  -28.2587  -38.0089   24.7525 H   0  0  0  0  0  0
  -28.1086  -36.2622   24.6282 H   0  0  0  0  0  0
  -27.2294  -37.1414   25.8866 H   0  0  0  0  0  0
  -20.9466  -29.8751   21.6790 H   0  0  0  0  0  0
  -26.0156  -38.2817   24.1420 H   0  0  0  0  0  0
  -26.9748  -19.9612   21.2338 H   0  0  0  0  0  0
  -28.4539  -25.4846   18.4249 H   0  0  0  0  0  0
  -31.3869  -16.5587   24.2872 H   0  0  0  0  0  0
  -31.0386  -17.7889   23.0831 H   0  0  0  0  0  0
  -32.2208  -16.5263   22.7390 H   0  0  0  0  0  0
  -29.2118  -16.0515   23.1591 H   0  0  0  0  0  0
  -30.3719  -14.7976   22.9348 H   0  0  0  0  0  0
  -29.6991  -21.2986   19.1284 H   0  0  0  0  0  0
  -28.8865  -23.8780   17.5707 H   0  0  0  0  0  0
  1 25  1  0  0  0
  1 30  2  0  0  0
  1 81  1  0  0  0
  2  3  1  0  0  0
  2 25  1  0  0  0
  2 86  1  0  0  0
  2 87  1  0  0  0
  3  4  1  0  0  0
  3 88  1  0  0  0
  3 89  1  0  0  0
  4  5  1  0  0  0
  4 90  1  0  0  0
  4 91  1  0  0  0
  5  6  1  0  0  0
  5 26  1  0  0  0
  5 92  1  0  0  0
  6 25  1  0  0  0
  6 93  1  0  0  0
  6 94  1  0  0  0
  7  8  2  0  0  0
  7 26  1  0  0  0
  7 29  1  0  0  0
  8  9  1  0  0  0
  8 22  1  0  0  0
  9 10  1  0  0  0
  9 27  2  0  0  0
 10 11  2  0  0  0
 10 15  1  0  0  0
 11 12  1  0  0  0
 11 95  1  0  0  0
 12 13  2  0  0  0
 12 96  1  0  0  0
 13 14  1  0  0  0
 13 31  1  0  0  0
 14 15  2  0  0  0
 14 97  1  0  0  0
 15 98  1  0  0  0
 16 17  2  0  0  0
 16 21  1  0  0  0
 16 31  1  0  0  0
 17 18  1  0  0  0
 17 99  1  0  0  0
 18 19  2  0  0  0
 18100  1  0  0  0
 19 20  1  0  0  0
 19 24  1  0  0  0
 20 21  2  0  0  0
 20101  1  0  0  0
 21 23  1  0  0  0
 22 28  1  0  0  0
 22 32  2  0  0  0
 26 27  1  0  0  0
 28102  1  0  0  0
 28103  1  0  0  0
 29104  1  0  0  0
 29105  1  0  0  0
 33 34  1  0  0  0
 33 66  1  0  0  0
 33 70  2  0  0  0
 34 36  1  0  0  0
 34 59  1  0  0  0
 34106  1  0  0  0
 35 44  2  0  0  0
 35 45  1  0  0  0
 35 68  1  0  0  0
 36 56  1  0  0  0
 36107  1  0  0  0
 37 39  1  0  0  0
 37 47  1  0  0  0
 37 66  1  0  0  0
 37108  1  0  0  0
 38 43  2  0  0  0
 38 46  1  0  0  0
 38 47  1  0  0  0
 39 64  1  0  0  0
 39 67  2  0  0  0
 40 52  1  0  0  0
 40 53  2  0  0  0
 40 58  1  0  0  0
 41109  1  0  0  0
 41110  1  0  0  0
 41111  1  0  0  0
 41 48  1  0  0  0
 42 43  1  0  0  0
 42 66  1  0  0  0
 42112  1  0  0  0
 42113  1  0  0  0
 43 44  1  0  0  0
 44114  1  0  0  0
 45 46  2  0  0  0
 45115  1  0  0  0
 46116  1  0  0  0
 47117  1  0  0  0
 47118  1  0  0  0
 48 56  1  0  0  0
 48 65  1  0  0  0
 48119  1  0  0  0
 49 50  1  0  0  0
 49 53  1  0  0  0
 49 64  1  0  0  0
 49120  1  0  0  0
 50 51  1  0  0  0
 50121  1  0  0  0
 50122  1  0  0  0
 51 52  1  0  0  0
 51123  1  0  0  0
 51124  1  0  0  0
 52125  1  0  0  0
 52126  1  0  0  0
 53 54  1  0  0  0
 54 55  2  0  0  0
 54127  1  0  0  0
 55 57  1  0  0  0
 55128  1  0  0  0
 56 69  2  0  0  0
 57 58  2  0  0  0
 57129  1  0  0  0
 58130  1  0  0  0
 59 60  1  0  0  0
 59 61  1  0  0  0
 59 62  1  0  0  0
 60131  1  0  0  0
 60132  1  0  0  0
 60133  1  0  0  0
 61134  1  0  0  0
 61135  1  0  0  0
 61136  1  0  0  0
 62137  1  0  0  0
 62138  1  0  0  0
 62139  1  0  0  0
 63 65  1  0  0  0
 63140  1  0  0  0
 63141  1  0  0  0
 63142  1  0  0  0
 64143  1  0  0  0
 65144  1  0  0  0
 68 75  1  0  0  0
 71 72  2  0  0  0
 71 85  1  0  0  0
 71145  1  0  0  0
 72 73  1  0  0  0
 72 80  1  0  0  0
 73 74  2  0  0  0
 73 84  1  0  0  0
 74 81  1  0  0  0
 74 85  1  0  0  0
 75 76  2  0  0  0
 75146  1  0  0  0
 76 77  1  0  0  0
 76 83  1  0  0  0
 77 80  1  0  0  0
 77 82  2  0  0  0
 78 79  1  0  0  0
 78147  1  0  0  0
 78148  1  0  0  0
 78149  1  0  0  0
 79 81  1  0  0  0
 79150  1  0  0  0
 79151  1  0  0  0
 80152  1  0  0  0
 83153  1  0  0  0
M  ISO  4   1 100  68 101  75 101  81 100
M  END
> <chiral flag>
0

> <version>
0

> <s_m_source_file>
/data/baiqing/PycharmProjects/Reinvent-master-3.2/result/LINK_invent/BTK/process_docking_weight1_custom_product_contain_oxygen_bond_distance_aromatic_linkinvent_7_9_3/rearranged_h_0180.sdf

> <i_m_source_file_index>
2

> <r_mmod_Potential_Energy-OPLS-2005>
592.402648925781

> <r_mmod_Stretch_Energy-OPLS-2005>
210.328338623047

> <r_mmod_Bend_Energy-OPLS-2005>
313.730041503906

> <r_mmod_Torsional_Energy-OPLS-2005>
328.7529296875

> <r_mmod_Improper_Torsional_Energy-OPLS-2005>
5.47003793716431

> <r_mmod_Van_der_Waal_Energy-OPLS-2005>
114.410713195801

> <r_mmod_Electrostatic_Energy-OPLS-2005>
-335.108215332031

> <r_mmod_Solvation_Energy-OPLS-2005>
-221.724060058594

> <b_mmod_Minimization_Converged-OPLS-2005>
0

> <r_mmod_RMS_Derivative-OPLS-2005>
0.618327677249908

$$$$
2
                    3D
 Structure written by MMmdl.
156164  0  0  1  0            999 V2000
  -30.6109  -14.7693   20.4706 C   0  0  0  0  0  0
  -30.4380  -12.4721   19.4732 C   0  0  0  0  0  0
  -29.5162  -12.5029   18.2356 C   0  0  0  0  0  0
  -28.0459  -12.3059   18.6581 C   0  0  0  0  0  0
  -27.6401  -13.2242   19.8418 C   0  0  2  0  0  0
  -28.6858  -13.1847   20.9769 C   0  0  0  0  0  0
  -25.2527  -13.8177   20.5682 C   0  0  0  0  0  0
  -24.1805  -13.0438   20.9191 C   0  0  0  0  0  0
  -24.6379  -11.6908   20.8734 C   0  0  0  0  0  0
  -23.9056  -10.4286   21.0411 C   0  0  0  0  0  0
  -24.3605   -9.4209   21.9187 C   0  0  0  0  0  0
  -23.6295   -8.2240   22.0754 C   0  0  0  0  0  0
  -22.4282   -8.0266   21.3542 C   0  0  0  0  0  0
  -21.9910   -9.0247   20.4653 C   0  0  0  0  0  0
  -22.7228  -10.2132   20.3063 C   0  0  0  0  0  0
  -21.6848   -6.0734   22.5283 C   0  0  0  0  0  0
  -21.4012   -6.5642   23.8214 C   0  0  0  0  0  0
  -21.3659   -5.6795   24.9180 C   0  0  0  0  0  0
  -21.6049   -4.3054   24.7233 C   0  0  0  0  0  0
  -21.8813   -3.8145   23.4345 C   0  0  0  0  0  0
  -21.9182   -4.6963   22.3401 C   0  0  0  0  0  0
  -22.7829  -13.5246   21.1844 C   0  0  0  0  0  0
  -22.1658   -4.2151   21.0979 F   0  0  0  0  0  0
  -21.5631   -3.4532   25.7742 F   0  0  0  0  0  0
  -29.9804  -13.5448   20.3845 N   0  0  0  0  0  0
  -26.2933  -12.9360   20.3249 N   0  0  0  0  0  0
  -25.9308  -11.6514   20.5746 N   0  0  0  0  0  0
  -22.0443  -12.8269   22.0400 N   0  0  0  0  0  0
  -25.4233  -15.1905   20.4095 N   0  0  0  0  0  0
  -31.8159  -14.8451   20.2111 O   0  0  0  0  0  0
  -21.6635   -6.8873   21.4246 O   0  0  0  0  0  0
  -22.3538  -14.5543   20.6666 O   0  0  0  0  0  0
  -24.6340  -31.8528   23.1954 C   0  0  0  0  0  0
  -25.9157  -32.4730   23.8308 C   0  0  1  0  0  0
  -27.2224  -27.2289   20.1258 C   0  0  0  0  0  0
  -25.5942  -33.8529   24.2219 N   0  0  0  0  0  0
  -23.4332  -30.4750   21.5390 C   0  0  2  0  0  0
  -24.8803  -28.9156   20.1106 C   0  0  0  0  0  0
  -22.7498  -29.4620   22.4897 C   0  0  0  0  0  0
  -18.0287  -28.1403   22.8477 C   0  0  0  0  0  0
  -24.1479  -36.7233   23.2642 C   0  0  0  0  0  0
  -25.9823  -30.7543   21.3811 C   0  0  0  0  0  0
  -26.0536  -29.3736   20.7217 C   0  0  0  0  0  0
  -27.2234  -28.5425   20.7187 C   0  0  0  0  0  0
  -26.0200  -26.8495   19.4836 C   0  0  0  0  0  0
  -24.8707  -27.6639   19.4805 C   0  0  0  0  0  0
  -23.6511  -29.8041   20.1577 C   0  0  0  0  0  0
  -25.4115  -36.3035   24.0317 C   0  0  1  0  0  0
  -20.5902  -28.3724   23.1254 C   0  0  2  0  0  0
  -20.6787  -26.9440   22.5402 C   0  0  0  0  0  0
  -19.5760  -26.6395   21.5207 C   0  0  0  0  0  0
  -18.1940  -26.7946   22.1621 C   0  0  0  0  0  0
  -19.1548  -28.8876   23.2870 C   0  0  0  0  0  0
  -18.9474  -30.1476   23.8888 C   0  0  0  0  0  0
  -17.6478  -30.6613   24.0560 C   0  0  0  0  0  0
  -25.9072  -34.9418   23.5076 C   0  0  0  0  0  0
  -16.5366  -29.9112   23.6330 C   0  0  0  0  0  0
  -16.7276  -28.6528   23.0352 C   0  0  0  0  0  0
  -26.4516  -31.6582   25.0719 C   0  0  0  0  0  0
  -25.3723  -31.3754   26.1431 C   0  0  0  0  0  0
  -27.0386  -30.2987   24.6261 C   0  0  0  0  0  0
  -27.6053  -32.4348   25.7489 C   0  0  0  0  0  0
  -27.5567  -37.1768   24.8470 C   0  0  0  0  0  0
  -21.4208  -29.3072   22.3635 N   0  0  0  0  0  0
  -26.4275  -37.3748   23.9418 N   0  0  0  0  0  0
  -24.7028  -31.0473   22.0930 N   0  0  0  0  0  0
  -23.4184  -28.8160   23.3012 O   0  0  0  0  0  0
  -28.3207  -26.3242   20.2033 O   0  0  0  0  0  0
  -26.5657  -34.8915   22.4650 O   0  0  0  0  0  0
  -23.5488  -32.1365   23.7229 O   0  0  0  0  0  0
  -30.9556  -17.4579   22.0751 C   0  0  0  0  0  0
  -31.1848  -18.7200   22.6440 C   0  0  0  0  0  0
  -30.6223  -19.8765   22.0767 C   0  0  0  0  0  0
  -30.1333  -17.3192   20.9417 C   0  0  0  0  0  0
  -29.8421  -19.7798   20.9036 C   0  0  0  0  0  0
  -28.7177  -22.1344   20.6468 C   0  0  0  0  0  0
  -30.6163  -23.9106   20.3411 C   0  0  0  0  0  0
  -28.3751  -24.7220   18.3434 C   0  0  0  0  0  0
  -29.1125  -23.7137   20.6143 C   0  0  1  0  0  0
  -28.1899  -24.8450   19.8693 C   0  0  1  0  0  0
  -29.6022  -18.4950   20.3772 N   0  0  0  0  0  0
  -29.5867  -21.1116   20.2838 N   0  0  0  0  0  0
  -29.8204  -15.9155   20.5554 N   0  0  0  0  0  0
  -27.5740  -21.8524   21.0112 O   0  0  0  0  0  0
  -31.9731  -18.8203   23.7431 F   0  0  0  0  0  0
  -30.8798  -21.0860   22.6376 F   0  0  0  0  0  0
  -31.4798  -12.6038   19.1772 H   0  0  0  0  0  0
  -30.3893  -11.5009   19.9674 H   0  0  0  0  0  0
  -29.8150  -11.7293   17.5279 H   0  0  0  0  0  0
  -29.6268  -13.4565   17.7184 H   0  0  0  0  0  0
  -27.9288  -11.2615   18.9486 H   0  0  0  0  0  0
  -27.3776  -12.4570   17.8090 H   0  0  0  0  0  0
  -27.6289  -14.2372   19.4414 H   0  0  0  0  0  0
  -28.7309  -12.1948   21.4320 H   0  0  0  0  0  0
  -28.4163  -13.8770   21.7771 H   0  0  0  0  0  0
  -25.2739   -9.5715   22.4766 H   0  0  0  0  0  0
  -24.0001   -7.4644   22.7484 H   0  0  0  0  0  0
  -21.0829   -8.8764   19.8972 H   0  0  0  0  0  0
  -22.3667  -10.9665   19.6172 H   0  0  0  0  0  0
  -21.2012   -7.6152   23.9727 H   0  0  0  0  0  0
  -21.1491   -6.0518   25.9083 H   0  0  0  0  0  0
  -22.0592   -2.7610   23.2839 H   0  0  0  0  0  0
  -22.4016  -11.9951   22.4861 H   0  0  0  0  0  0
  -21.1058  -13.1327   22.2559 H   0  0  0  0  0  0
  -24.6539  -15.8411   20.5221 H   0  0  0  0  0  0
  -26.2683  -15.6321   20.0721 H   0  0  0  0  0  0
  -26.7226  -32.5365   23.1049 H   0  0  0  0  0  0
  -25.0029  -33.9655   25.0327 H   0  0  0  0  0  0
  -22.7343  -31.3007   21.3879 H   0  0  0  0  0  0
  -23.3757  -35.9554   23.3305 H   0  0  0  0  0  0
  -24.3565  -36.8855   22.2060 H   0  0  0  0  0  0
  -23.7231  -37.6422   23.6675 H   0  0  0  0  0  0
  -26.1350  -31.5135   20.6134 H   0  0  0  0  0  0
  -26.8545  -30.7979   22.0206 H   0  0  0  0  0  0
  -28.1202  -28.8827   21.2169 H   0  0  0  0  0  0
  -25.9223  -25.8956   18.9903 H   0  0  0  0  0  0
  -23.9712  -27.3081   18.9977 H   0  0  0  0  0  0
  -23.7745  -30.5746   19.3962 H   0  0  0  0  0  0
  -22.7687  -29.2365   19.8577 H   0  0  0  0  0  0
  -25.1314  -36.1848   25.0810 H   0  0  0  0  0  0
  -21.0011  -28.3313   24.1370 H   0  0  0  0  0  0
  -20.5691  -26.2338   23.3612 H   0  0  0  0  0  0
  -21.6660  -26.7473   22.1206 H   0  0  0  0  0  0
  -19.6935  -25.6302   21.1249 H   0  0  0  0  0  0
  -19.6701  -27.3195   20.6728 H   0  0  0  0  0  0
  -17.4212  -26.6669   21.4026 H   0  0  0  0  0  0
  -18.0361  -26.0104   22.9034 H   0  0  0  0  0  0
  -19.7957  -30.7285   24.2258 H   0  0  0  0  0  0
  -17.5044  -31.6292   24.5170 H   0  0  0  0  0  0
  -15.5376  -30.3026   23.7667 H   0  0  0  0  0  0
  -15.8665  -28.0857   22.7073 H   0  0  0  0  0  0
  -24.5857  -30.7170   25.7731 H   0  0  0  0  0  0
  -24.8977  -32.2943   26.4880 H   0  0  0  0  0  0
  -25.8020  -30.8878   27.0190 H   0  0  0  0  0  0
  -26.3002  -29.6701   24.1265 H   0  0  0  0  0  0
  -27.4018  -29.7297   25.4832 H   0  0  0  0  0  0
  -27.8904  -30.4238   23.9567 H   0  0  0  0  0  0
  -27.2634  -33.3634   26.2070 H   0  0  0  0  0  0
  -28.3851  -32.6935   25.0313 H   0  0  0  0  0  0
  -28.0739  -31.8480   26.5398 H   0  0  0  0  0  0
  -28.2586  -38.0060   24.7525 H   0  0  0  0  0  0
  -28.1059  -36.2595   24.6290 H   0  0  0  0  0  0
  -27.2284  -37.1412   25.8871 H   0  0  0  0  0  0
  -20.9384  -29.8761   21.6813 H   0  0  0  0  0  0
  -26.0130  -38.2803   24.1450 H   0  0  0  0  0  0
  -31.3975  -16.5969   22.5540 H   0  0  0  0  0  0
  -31.2302  -23.2664   20.9723 H   0  0  0  0  0  0
  -30.9113  -24.9363   20.5630 H   0  0  0  0  0  0
  -30.8789  -23.7048   19.3041 H   0  0  0  0  0  0
  -28.2308  -23.6945   18.0110 H   0  0  0  0  0  0
  -29.3790  -25.0258   18.0435 H   0  0  0  0  0  0
  -27.6783  -25.3436   17.7836 H   0  0  0  0  0  0
  -28.9978  -23.9780   21.6668 H   0  0  0  0  0  0
  -27.1716  -24.5430   20.1123 H   0  0  0  0  0  0
  -30.4238  -21.4826   19.8613 H   0  0  0  0  0  0
  -28.8366  -15.7339   20.4359 H   0  0  0  0  0  0
  1 25  1  0  0  0
  1 30  2  0  0  0
  1 83  1  0  0  0
  2  3  1  0  0  0
  2 25  1  0  0  0
  2 87  1  0  0  0
  2 88  1  0  0  0
  3  4  1  0  0  0
  3 89  1  0  0  0
  3 90  1  0  0  0
  4  5  1  0  0  0
  4 91  1  0  0  0
  4 92  1  0  0  0
  5  6  1  0  0  0
  5 26  1  0  0  0
  5 93  1  0  0  0
  6 25  1  0  0  0
  6 94  1  0  0  0
  6 95  1  0  0  0
  7  8  2  0  0  0
  7 26  1  0  0  0
  7 29  1  0  0  0
  8  9  1  0  0  0
  8 22  1  0  0  0
  9 10  1  0  0  0
  9 27  2  0  0  0
 10 11  2  0  0  0
 10 15  1  0  0  0
 11 12  1  0  0  0
 11 96  1  0  0  0
 12 13  2  0  0  0
 12 97  1  0  0  0
 13 14  1  0  0  0
 13 31  1  0  0  0
 14 15  2  0  0  0
 14 98  1  0  0  0
 15 99  1  0  0  0
 16 17  2  0  0  0
 16 21  1  0  0  0
 16 31  1  0  0  0
 17 18  1  0  0  0
 17100  1  0  0  0
 18 19  2  0  0  0
 18101  1  0  0  0
 19 20  1  0  0  0
 19 24  1  0  0  0
 20 21  2  0  0  0
 20102  1  0  0  0
 21 23  1  0  0  0
 22 28  1  0  0  0
 22 32  2  0  0  0
 26 27  1  0  0  0
 28103  1  0  0  0
 28104  1  0  0  0
 29105  1  0  0  0
 29106  1  0  0  0
 33 34  1  0  0  0
 33 66  1  0  0  0
 33 70  2  0  0  0
 34 36  1  0  0  0
 34 59  1  0  0  0
 34107  1  0  0  0
 35 44  2  0  0  0
 35 45  1  0  0  0
 35 68  1  0  0  0
 36 56  1  0  0  0
 36108  1  0  0  0
 37 39  1  0  0  0
 37 47  1  0  0  0
 37 66  1  0  0  0
 37109  1  0  0  0
 38 43  2  0  0  0
 38 46  1  0  0  0
 38 47  1  0  0  0
 39 64  1  0  0  0
 39 67  2  0  0  0
 40 52  1  0  0  0
 40 53  2  0  0  0
 40 58  1  0  0  0
 41110  1  0  0  0
 41111  1  0  0  0
 41112  1  0  0  0
 41 48  1  0  0  0
 42 43  1  0  0  0
 42 66  1  0  0  0
 42113  1  0  0  0
 42114  1  0  0  0
 43 44  1  0  0  0
 44115  1  0  0  0
 45 46  2  0  0  0
 45116  1  0  0  0
 46117  1  0  0  0
 47118  1  0  0  0
 47119  1  0  0  0
 48 56  1  0  0  0
 48 65  1  0  0  0
 48120  1  0  0  0
 49 50  1  0  0  0
 49 53  1  0  0  0
 49 64  1  0  0  0
 49121  1  0  0  0
 50 51  1  0  0  0
 50122  1  0  0  0
 50123  1  0  0  0
 51 52  1  0  0  0
 51124  1  0  0  0
 51125  1  0  0  0
 52126  1  0  0  0
 52127  1  0  0  0
 53 54  1  0  0  0
 54 55  2  0  0  0
 54128  1  0  0  0
 55 57  1  0  0  0
 55129  1  0  0  0
 56 69  2  0  0  0
 57 58  2  0  0  0
 57130  1  0  0  0
 58131  1  0  0  0
 59 60  1  0  0  0
 59 61  1  0  0  0
 59 62  1  0  0  0
 60132  1  0  0  0
 60133  1  0  0  0
 60134  1  0  0  0
 61135  1  0  0  0
 61136  1  0  0  0
 61137  1  0  0  0
 62138  1  0  0  0
 62139  1  0  0  0
 62140  1  0  0  0
 63 65  1  0  0  0
 63141  1  0  0  0
 63142  1  0  0  0
 63143  1  0  0  0
 64144  1  0  0  0
 65145  1  0  0  0
 68 80  1  0  0  0
 71 72  2  0  0  0
 71 74  1  0  0  0
 71146  1  0  0  0
 72 73  1  0  0  0
 72 85  1  0  0  0
 73 75  2  0  0  0
 73 86  1  0  0  0
 74 81  2  0  0  0
 74 83  1  0  0  0
 75 81  1  0  0  0
 75 82  1  0  0  0
 76 79  1  0  0  0
 76 82  1  0  0  0
 76 84  2  0  0  0
 77147  1  0  0  0
 77148  1  0  0  0
 77149  1  0  0  0
 77 79  1  0  0  0
 78150  1  0  0  0
 78151  1  0  0  0
 78152  1  0  0  0
 78 80  1  0  0  0
 79 80  1  0  0  0
 79153  1  0  0  0
 80154  1  0  0  0
 82155  1  0  0  0
 83156  1  0  0  0
M  ISO  4   1 100  68 101  80 101  83 100
M  END
> <chiral flag>
0

> <version>
0

> <s_m_source_file>
/data/baiqing/PycharmProjects/Reinvent-master-3.2/result/LINK_invent/BTK/process_docking_weight1_custom_product_contain_oxygen_bond_distance_aromatic_linkinvent_7_9_3/rearranged_h_0180.sdf

> <i_m_source_file_index>
3

> <r_mmod_Potential_Energy-OPLS-2005>
112.244682312012

> <r_mmod_Stretch_Energy-OPLS-2005>
148.71223449707

> <r_mmod_Bend_Energy-OPLS-2005>
188.991760253906

> <r_mmod_Torsional_Energy-OPLS-2005>
286.368682861328

> <r_mmod_Improper_Torsional_Energy-OPLS-2005>
11.2167081832886

> <r_mmod_Van_der_Waal_Energy-OPLS-2005>
138.264114379883

> <r_mmod_Electrostatic_Energy-OPLS-2005>
-528.893432617188

> <r_mmod_Solvation_Energy-OPLS-2005>
-234.456665039062

> <b_mmod_Minimization_Converged-OPLS-2005>
0

> <r_mmod_RMS_Derivative-OPLS-2005>
2.97732925415039

$$$$
3
                    3D
 Structure written by MMmdl.
150158  0  0  1  0            999 V2000
  -30.6545  -14.7472   20.4534 C   0  0  0  0  0  0
  -30.4218  -12.4583   19.4738 C   0  0  0  0  0  0
  -29.5043  -12.5027   18.2344 C   0  0  0  0  0  0
  -28.0324  -12.3293   18.6522 C   0  0  0  0  0  0
  -27.6371  -13.2405   19.8455 C   0  0  2  0  0  0
  -28.6853  -13.2051   20.9793 C   0  0  0  0  0  0
  -25.2487  -13.8218   20.5720 C   0  0  0  0  0  0
  -24.1788  -13.0442   20.9209 C   0  0  0  0  0  0
  -24.6398  -11.6927   20.8748 C   0  0  0  0  0  0
  -23.9080  -10.4296   21.0404 C   0  0  0  0  0  0
  -24.3628   -9.4210   21.9183 C   0  0  0  0  0  0
  -23.6299   -8.2246   22.0754 C   0  0  0  0  0  0
  -22.4281   -8.0284   21.3544 C   0  0  0  0  0  0
  -21.9919   -9.0259   20.4646 C   0  0  0  0  0  0
  -22.7251  -10.2137   20.3055 C   0  0  0  0  0  0
  -21.6856   -6.0738   22.5279 C   0  0  0  0  0  0
  -21.4016   -6.5641   23.8212 C   0  0  0  0  0  0
  -21.3661   -5.6793   24.9174 C   0  0  0  0  0  0
  -21.6044   -4.3056   24.7225 C   0  0  0  0  0  0
  -21.8818   -3.8149   23.4345 C   0  0  0  0  0  0
  -21.9193   -4.6966   22.3402 C   0  0  0  0  0  0
  -22.7808  -13.5214   21.1869 C   0  0  0  0  0  0
  -22.1661   -4.2151   21.0979 F   0  0  0  0  0  0
  -21.5629   -3.4539   25.7738 F   0  0  0  0  0  0
  -29.9834  -13.5434   20.3845 N   0  0  0  0  0  0
  -26.2924  -12.9447   20.3292 N   0  0  0  0  0  0
  -25.9334  -11.6578   20.5761 N   0  0  0  0  0  0
  -22.0464  -12.8198   22.0428 N   0  0  0  0  0  0
  -25.4122  -15.1952   20.4186 N   0  0  0  0  0  0
  -31.8574  -14.7520   20.1794 O   0  0  0  0  0  0
  -21.6644   -6.8882   21.4240 O   0  0  0  0  0  0
  -22.3482  -14.5518   20.6720 O   0  0  0  0  0  0
  -24.6340  -31.8560   23.2012 C   0  0  0  0  0  0
  -25.9163  -32.4759   23.8351 C   0  0  1  0  0  0
  -27.2072  -27.2401   20.1147 C   0  0  0  0  0  0
  -25.5954  -33.8563   24.2264 N   0  0  0  0  0  0
  -23.4303  -30.4835   21.5460 C   0  0  2  0  0  0
  -24.8741  -28.9384   20.1091 C   0  0  0  0  0  0
  -22.7516  -29.4612   22.4907 C   0  0  0  0  0  0
  -18.0297  -28.1389   22.8485 C   0  0  0  0  0  0
  -24.1490  -36.7280   23.2638 C   0  0  0  0  0  0
  -25.9817  -30.7590   21.3896 C   0  0  0  0  0  0
  -26.0494  -29.3825   20.7270 C   0  0  0  0  0  0
  -27.2156  -28.5442   20.7266 C   0  0  0  0  0  0
  -26.0059  -26.8917   19.4480 C   0  0  0  0  0  0
  -24.8589  -27.7007   19.4600 C   0  0  0  0  0  0
  -23.6487  -29.8284   20.1594 C   0  0  0  0  0  0
  -25.4119  -36.3070   24.0322 C   0  0  1  0  0  0
  -20.5905  -28.3707   23.1258 C   0  0  2  0  0  0
  -20.6787  -26.9423   22.5401 C   0  0  0  0  0  0
  -19.5758  -26.6386   21.5212 C   0  0  0  0  0  0
  -18.1940  -26.7930   22.1627 C   0  0  0  0  0  0
  -19.1552  -28.8865   23.2868 C   0  0  0  0  0  0
  -18.9471  -30.1465   23.8888 C   0  0  0  0  0  0
  -17.6469  -30.6590   24.0564 C   0  0  0  0  0  0
  -25.9063  -34.9441   23.5091 C   0  0  0  0  0  0
  -16.5360  -29.9086   23.6333 C   0  0  0  0  0  0
  -16.7283  -28.6503   23.0354 C   0  0  0  0  0  0
  -26.4514  -31.6586   25.0747 C   0  0  0  0  0  0
  -25.3722  -31.3747   26.1455 C   0  0  0  0  0  0
  -27.0367  -30.2994   24.6264 C   0  0  0  0  0  0
  -27.6064  -32.4331   25.7521 C   0  0  0  0  0  0
  -27.5577  -37.1799   24.8466 C   0  0  0  0  0  0
  -21.4222  -29.3055   22.3647 N   0  0  0  0  0  0
  -26.4291  -37.3770   23.9406 N   0  0  0  0  0  0
  -24.7013  -31.0509   22.1008 N   0  0  0  0  0  0
  -23.4209  -28.8137   23.3000 O   0  0  0  0  0  0
  -28.2803  -26.3040   20.1949 O   0  0  0  0  0  0
  -26.5632  -34.8914   22.4658 O   0  0  0  0  0  0
  -23.5484  -32.1398   23.7288 O   0  0  0  0  0  0
  -27.6574  -20.0196   20.2431 C   0  0  0  0  0  0
  -28.1345  -18.6586   20.3605 C   0  0  0  0  0  0
  -29.4869  -18.4948   20.5072 C   0  0  0  0  0  0
  -28.6106  -21.0245   20.2905 C   0  0  0  0  0  0
  -30.4047  -17.2480   20.5948 C   0  0  0  0  0  0
  -28.8733  -23.6307   20.2791 C   0  0  0  0  0  0
  -28.4112  -24.9675   18.1531 C   0  0  0  0  0  0
  -28.0913  -24.8988   19.6586 C   0  0  2  0  0  0
  -28.2997  -22.3835   20.0836 N   0  0  0  0  0  0
  -29.9323  -15.9339   20.5919 N   0  0  0  0  0  0
  -31.6152  -17.4890   20.6665 O   0  0  0  0  0  0
  -29.9382  -23.7823   20.8827 O   0  0  0  0  0  0
  -27.3064  -17.6397   20.3000 F   0  0  0  0  0  0
  -30.1751  -20.1712   20.5269 S   0  0  0  0  0  0
  -31.4642  -12.5584   19.1675 H   0  0  0  0  0  0
  -30.3520  -11.4902   19.9724 H   0  0  0  0  0  0
  -29.7866  -11.7230   17.5257 H   0  0  0  0  0  0
  -29.6313  -13.4527   17.7129 H   0  0  0  0  0  0
  -27.8932  -11.2826   18.9255 H   0  0  0  0  0  0
  -27.3730  -12.5105   17.8027 H   0  0  0  0  0  0
  -27.6208  -14.2566   19.4503 H   0  0  0  0  0  0
  -28.7225  -12.2201   21.4469 H   0  0  0  0  0  0
  -28.4236  -13.9117   21.7685 H   0  0  0  0  0  0
  -25.2772   -9.5686   22.4759 H   0  0  0  0  0  0
  -24.0008   -7.4638   22.7473 H   0  0  0  0  0  0
  -21.0851   -8.8779   19.8952 H   0  0  0  0  0  0
  -22.3709  -10.9675   19.6165 H   0  0  0  0  0  0
  -21.2009   -7.6149   23.9716 H   0  0  0  0  0  0
  -21.1483   -6.0524   25.9077 H   0  0  0  0  0  0
  -22.0597   -2.7610   23.2845 H   0  0  0  0  0  0
  -22.4096  -11.9865   22.4812 H   0  0  0  0  0  0
  -21.1081  -13.1211   22.2639 H   0  0  0  0  0  0
  -24.6413  -15.8395   20.5531 H   0  0  0  0  0  0
  -26.2629  -15.6655   20.1357 H   0  0  0  0  0  0
  -26.7225  -32.5395   23.1086 H   0  0  0  0  0  0
  -25.0104  -33.9706   25.0411 H   0  0  0  0  0  0
  -22.7278  -31.3076   21.4045 H   0  0  0  0  0  0
  -23.3756  -35.9610   23.3302 H   0  0  0  0  0  0
  -24.3577  -36.8903   22.2052 H   0  0  0  0  0  0
  -23.7238  -37.6479   23.6663 H   0  0  0  0  0  0
  -26.1297  -31.5202   20.6223 H   0  0  0  0  0  0
  -26.8563  -30.8019   22.0268 H   0  0  0  0  0  0
  -28.1093  -28.8752   21.2370 H   0  0  0  0  0  0
  -25.8875  -25.9695   18.9045 H   0  0  0  0  0  0
  -23.9634  -27.3603   18.9585 H   0  0  0  0  0  0
  -23.7785  -30.6100   19.4098 H   0  0  0  0  0  0
  -22.7648  -29.2685   19.8488 H   0  0  0  0  0  0
  -25.1299  -36.1918   25.0815 H   0  0  0  0  0  0
  -21.0000  -28.3287   24.1378 H   0  0  0  0  0  0
  -20.5693  -26.2320   23.3611 H   0  0  0  0  0  0
  -21.6652  -26.7448   22.1190 H   0  0  0  0  0  0
  -19.6920  -25.6294   21.1247 H   0  0  0  0  0  0
  -19.6687  -27.3192   20.6739 H   0  0  0  0  0  0
  -17.4206  -26.6679   21.4032 H   0  0  0  0  0  0
  -18.0341  -26.0072   22.9025 H   0  0  0  0  0  0
  -19.7947  -30.7286   24.2249 H   0  0  0  0  0  0
  -17.5022  -31.6267   24.5169 H   0  0  0  0  0  0
  -15.5360  -30.2986   23.7659 H   0  0  0  0  0  0
  -15.8684  -28.0820   22.7073 H   0  0  0  0  0  0
  -24.5909  -30.7084   25.7778 H   0  0  0  0  0  0
  -24.8902  -32.2920   26.4846 H   0  0  0  0  0  0
  -25.8025  -30.8946   27.0254 H   0  0  0  0  0  0
  -26.2965  -29.6736   24.1263 H   0  0  0  0  0  0
  -27.4000  -29.7264   25.4807 H   0  0  0  0  0  0
  -27.8867  -30.4251   23.9554 H   0  0  0  0  0  0
  -27.2671  -33.3642   26.2074 H   0  0  0  0  0  0
  -28.3887  -32.6874   25.0356 H   0  0  0  0  0  0
  -28.0719  -31.8472   26.5457 H   0  0  0  0  0  0
  -28.2597  -38.0094   24.7509 H   0  0  0  0  0  0
  -28.1070  -36.2624   24.6299 H   0  0  0  0  0  0
  -27.2293  -37.1456   25.8869 H   0  0  0  0  0  0
  -20.9409  -29.8788   21.6859 H   0  0  0  0  0  0
  -26.0168  -38.2843   24.1410 H   0  0  0  0  0  0
  -26.6024  -20.2037   20.1021 H   0  0  0  0  0  0
  -28.2725  -24.0016   17.6662 H   0  0  0  0  0  0
  -29.4466  -25.2703   17.9940 H   0  0  0  0  0  0
  -27.7801  -25.6848   17.6308 H   0  0  0  0  0  0
  -27.0587  -24.5942   19.8129 H   0  0  0  0  0  0
  -27.3896  -22.4997   19.6586 H   0  0  0  0  0  0
  -28.9321  -15.8386   20.6401 H   0  0  0  0  0  0
  1 25  1  0  0  0
  1 30  2  0  0  0
  1 80  1  0  0  0
  2  3  1  0  0  0
  2 25  1  0  0  0
  2 85  1  0  0  0
  2 86  1  0  0  0
  3  4  1  0  0  0
  3 87  1  0  0  0
  3 88  1  0  0  0
  4  5  1  0  0  0
  4 89  1  0  0  0
  4 90  1  0  0  0
  5  6  1  0  0  0
  5 26  1  0  0  0
  5 91  1  0  0  0
  6 25  1  0  0  0
  6 92  1  0  0  0
  6 93  1  0  0  0
  7  8  2  0  0  0
  7 26  1  0  0  0
  7 29  1  0  0  0
  8  9  1  0  0  0
  8 22  1  0  0  0
  9 10  1  0  0  0
  9 27  2  0  0  0
 10 11  2  0  0  0
 10 15  1  0  0  0
 11 12  1  0  0  0
 11 94  1  0  0  0
 12 13  2  0  0  0
 12 95  1  0  0  0
 13 14  1  0  0  0
 13 31  1  0  0  0
 14 15  2  0  0  0
 14 96  1  0  0  0
 15 97  1  0  0  0
 16 17  2  0  0  0
 16 21  1  0  0  0
 16 31  1  0  0  0
 17 18  1  0  0  0
 17 98  1  0  0  0
 18 19  2  0  0  0
 18 99  1  0  0  0
 19 20  1  0  0  0
 19 24  1  0  0  0
 20 21  2  0  0  0
 20100  1  0  0  0
 21 23  1  0  0  0
 22 28  1  0  0  0
 22 32  2  0  0  0
 26 27  1  0  0  0
 28101  1  0  0  0
 28102  1  0  0  0
 29103  1  0  0  0
 29104  1  0  0  0
 33 34  1  0  0  0
 33 66  1  0  0  0
 33 70  2  0  0  0
 34 36  1  0  0  0
 34 59  1  0  0  0
 34105  1  0  0  0
 35 44  2  0  0  0
 35 45  1  0  0  0
 35 68  1  0  0  0
 36 56  1  0  0  0
 36106  1  0  0  0
 37 39  1  0  0  0
 37 47  1  0  0  0
 37 66  1  0  0  0
 37107  1  0  0  0
 38 43  2  0  0  0
 38 46  1  0  0  0
 38 47  1  0  0  0
 39 64  1  0  0  0
 39 67  2  0  0  0
 40 52  1  0  0  0
 40 53  2  0  0  0
 40 58  1  0  0  0
 41108  1  0  0  0
 41109  1  0  0  0
 41110  1  0  0  0
 41 48  1  0  0  0
 42 43  1  0  0  0
 42 66  1  0  0  0
 42111  1  0  0  0
 42112  1  0  0  0
 43 44  1  0  0  0
 44113  1  0  0  0
 45 46  2  0  0  0
 45114  1  0  0  0
 46115  1  0  0  0
 47116  1  0  0  0
 47117  1  0  0  0
 48 56  1  0  0  0
 48 65  1  0  0  0
 48118  1  0  0  0
 49 50  1  0  0  0
 49 53  1  0  0  0
 49 64  1  0  0  0
 49119  1  0  0  0
 50 51  1  0  0  0
 50120  1  0  0  0
 50121  1  0  0  0
 51 52  1  0  0  0
 51122  1  0  0  0
 51123  1  0  0  0
 52124  1  0  0  0
 52125  1  0  0  0
 53 54  1  0  0  0
 54 55  2  0  0  0
 54126  1  0  0  0
 55 57  1  0  0  0
 55127  1  0  0  0
 56 69  2  0  0  0
 57 58  2  0  0  0
 57128  1  0  0  0
 58129  1  0  0  0
 59 60  1  0  0  0
 59 61  1  0  0  0
 59 62  1  0  0  0
 60130  1  0  0  0
 60131  1  0  0  0
 60132  1  0  0  0
 61133  1  0  0  0
 61134  1  0  0  0
 61135  1  0  0  0
 62136  1  0  0  0
 62137  1  0  0  0
 62138  1  0  0  0
 63 65  1  0  0  0
 63139  1  0  0  0
 63140  1  0  0  0
 63141  1  0  0  0
 64142  1  0  0  0
 65143  1  0  0  0
 68 78  1  0  0  0
 71 72  1  0  0  0
 71 74  2  0  0  0
 71144  1  0  0  0
 72 73  2  0  0  0
 72 83  1  0  0  0
 73 75  1  0  0  0
 73 84  1  0  0  0
 74 79  1  0  0  0
 74 84  1  0  0  0
 75 80  1  0  0  0
 75 81  2  0  0  0
 76 78  1  0  0  0
 76 79  1  0  0  0
 76 82  2  0  0  0
 77145  1  0  0  0
 77146  1  0  0  0
 77147  1  0  0  0
 77 78  1  0  0  0
 78148  1  0  0  0
 79149  1  0  0  0
 80150  1  0  0  0
M  ISO  4   1 100  68 101  78 101  80 100
M  END
> <chiral flag>
0

> <version>
0

> <s_m_source_file>
/data/baiqing/PycharmProjects/Reinvent-master-3.2/result/LINK_invent/BTK/process_docking_weight1_custom_product_contain_oxygen_bond_distance_aromatic_linkinvent_7_9_3/rearranged_h_0180.sdf

> <i_m_source_file_index>
4

> <r_mmod_Potential_Energy-OPLS-2005>
85.2642593383789

> <r_mmod_Stretch_Energy-OPLS-2005>
121.768348693848

> <r_mmod_Bend_Energy-OPLS-2005>
205.458221435547

> <r_mmod_Torsional_Energy-OPLS-2005>
217.278427124023

> <r_mmod_Improper_Torsional_Energy-OPLS-2005>
5.37899351119995

> <r_mmod_Van_der_Waal_Energy-OPLS-2005>
129.808471679688

> <r_mmod_Electrostatic_Energy-OPLS-2005>
-432.945159912109

> <r_mmod_Solvation_Energy-OPLS-2005>
-258.904479980469

> <b_mmod_Minimization_Converged-OPLS-2005>
0

> <r_mmod_RMS_Derivative-OPLS-2005>
0.376452624797821

$$$$
4
                    3D
 Structure written by MMmdl.
156164  0  0  1  0            999 V2000
  -30.6862  -14.5562   20.5143 C   0  0  0  0  0  0
  -30.4187  -12.3353   19.4768 C   0  0  0  0  0  0
  -29.5120  -12.4905   18.2375 C   0  0  0  0  0  0
  -28.0316  -12.3452   18.6347 C   0  0  0  0  0  0
  -27.6535  -13.2191   19.8616 C   0  0  2  0  0  0
  -28.6859  -13.0731   20.9994 C   0  0  0  0  0  0
  -25.2563  -13.8195   20.5689 C   0  0  0  0  0  0
  -24.1822  -13.0465   20.9191 C   0  0  0  0  0  0
  -24.6386  -11.6932   20.8705 C   0  0  0  0  0  0
  -23.9049  -10.4312   21.0367 C   0  0  0  0  0  0
  -24.3620   -9.4231   21.9153 C   0  0  0  0  0  0
  -23.6305   -8.2259   22.0734 C   0  0  0  0  0  0
  -22.4260   -8.0299   21.3551 C   0  0  0  0  0  0
  -21.9893   -9.0263   20.4649 C   0  0  0  0  0  0
  -22.7206  -10.2151   20.3041 C   0  0  0  0  0  0
  -21.6861   -6.0742   22.5285 C   0  0  0  0  0  0
  -21.4019   -6.5642   23.8225 C   0  0  0  0  0  0
  -21.3669   -5.6788   24.9176 C   0  0  0  0  0  0
  -21.6047   -4.3053   24.7214 C   0  0  0  0  0  0
  -21.8815   -3.8146   23.4335 C   0  0  0  0  0  0
  -21.9208   -4.6971   22.3393 C   0  0  0  0  0  0
  -22.7854  -13.5257   21.1880 C   0  0  0  0  0  0
  -22.1663   -4.2159   21.0965 F   0  0  0  0  0  0
  -21.5646   -3.4525   25.7722 F   0  0  0  0  0  0
  -30.0161  -13.3669   20.4530 N   0  0  0  0  0  0
  -26.2982  -12.9387   20.3275 N   0  0  0  0  0  0
  -25.9315  -11.6535   20.5706 N   0  0  0  0  0  0
  -22.0493  -12.8259   22.0448 N   0  0  0  0  0  0
  -25.4331  -15.1920   20.4159 N   0  0  0  0  0  0
  -31.8532  -14.6372   20.1209 O   0  0  0  0  0  0
  -21.6660   -6.8868   21.4239 O   0  0  0  0  0  0
  -22.3520  -14.5538   20.6708 O   0  0  0  0  0  0
  -24.6153  -31.8667   23.2084 C   0  0  0  0  0  0
  -25.9019  -32.4830   23.8389 C   0  0  1  0  0  0
  -27.2292  -27.4065   20.1146 C   0  0  0  0  0  0
  -25.5837  -33.8632   24.2296 N   0  0  0  0  0  0
  -23.4045  -30.4880   21.5497 C   0  0  2  0  0  0
  -24.8530  -28.9466   20.1193 C   0  0  0  0  0  0
  -22.7412  -29.4656   22.4999 C   0  0  0  0  0  0
  -18.0278  -28.1380   22.8495 C   0  0  0  0  0  0
  -24.1475  -36.7341   23.2643 C   0  0  0  0  0  0
  -25.9365  -30.8230   21.3682 C   0  0  0  0  0  0
  -26.0146  -29.4520   20.7214 C   0  0  0  0  0  0
  -27.2068  -28.6898   20.7172 C   0  0  0  0  0  0
  -26.0586  -26.9250   19.4956 C   0  0  0  0  0  0
  -24.8698  -27.6822   19.5053 C   0  0  0  0  0  0
  -23.6157  -29.8166   20.1667 C   0  0  0  0  0  0
  -25.4104  -36.3135   24.0337 C   0  0  1  0  0  0
  -20.5870  -28.3656   23.1325 C   0  0  2  0  0  0
  -20.6759  -26.9388   22.5444 C   0  0  0  0  0  0
  -19.5740  -26.6376   21.5239 C   0  0  0  0  0  0
  -18.1908  -26.7925   22.1633 C   0  0  0  0  0  0
  -19.1525  -28.8830   23.2910 C   0  0  0  0  0  0
  -18.9456  -30.1434   23.8919 C   0  0  0  0  0  0
  -17.6455  -30.6583   24.0562 C   0  0  0  0  0  0
  -25.9034  -34.9492   23.5134 C   0  0  0  0  0  0
  -16.5350  -29.9087   23.6315 C   0  0  0  0  0  0
  -16.7266  -28.6506   23.0347 C   0  0  0  0  0  0
  -26.4422  -31.6630   25.0731 C   0  0  0  0  0  0
  -25.3668  -31.3800   26.1469 C   0  0  0  0  0  0
  -27.0221  -30.3049   24.6135 C   0  0  0  0  0  0
  -27.5993  -32.4356   25.7475 C   0  0  0  0  0  0
  -27.5595  -37.1821   24.8451 C   0  0  0  0  0  0
  -21.4138  -29.3020   22.3716 N   0  0  0  0  0  0
  -26.4301  -37.3822   23.9407 N   0  0  0  0  0  0
  -24.6705  -31.0743   22.1002 N   0  0  0  0  0  0
  -23.4168  -28.8229   23.3078 O   0  0  0  0  0  0
  -28.3702  -26.6322   20.0624 O   0  0  0  0  0  0
  -26.5654  -34.8948   22.4729 O   0  0  0  0  0  0
  -23.5337  -32.1422   23.7469 O   0  0  0  0  0  0
  -29.1190  -20.3788   19.1986 C   0  0  0  0  0  0
  -29.5114  -19.0236   18.9476 C   0  0  0  0  0  0
  -29.6658  -18.2826   20.0997 C   0  0  0  0  0  0
  -28.9497  -20.7164   20.5220 C   0  0  0  0  0  0
  -30.1332  -16.9011   20.1207 C   0  0  0  0  0  0
  -29.9206  -15.7763   20.8604 C   0  0  0  0  0  0
  -28.5374  -23.1569   20.4541 C   0  0  0  0  0  0
  -27.3197  -24.0039   22.5774 C   0  0  0  0  0  0
  -28.5878  -25.7195   21.1605 C   0  0  0  0  0  0
  -27.8091  -24.3519   21.1549 C   0  0  1  0  0  0
  -29.7305  -18.4887   17.5569 C   0  0  0  0  0  0
  -28.5718  -21.9305   21.0537 N   0  0  0  0  0  0
  -29.0582  -23.3630   19.3554 O   0  0  0  0  0  0
  -29.3825  -19.3725   16.6214 F   0  0  0  0  0  0
  -31.0118  -18.1827   17.3534 F   0  0  0  0  0  0
  -29.0121  -17.3844   17.3430 F   0  0  0  0  0  0
  -29.2204  -19.2579   21.4997 S   0  0  0  0  0  0
  -31.4688  -12.4055   19.1900 H   0  0  0  0  0  0
  -30.3000  -11.3430   19.9148 H   0  0  0  0  0  0
  -29.7702  -11.7405   17.4871 H   0  0  0  0  0  0
  -29.6816  -13.4622   17.7711 H   0  0  0  0  0  0
  -27.8561  -11.2926   18.8591 H   0  0  0  0  0  0
  -27.3861  -12.5839   17.7890 H   0  0  0  0  0  0
  -27.6761  -14.2531   19.5224 H   0  0  0  0  0  0
  -28.6677  -12.0610   21.4024 H   0  0  0  0  0  0
  -28.4340  -13.7256   21.8348 H   0  0  0  0  0  0
  -25.2779   -9.5743   22.4707 H   0  0  0  0  0  0
  -24.0067   -7.4644   22.7423 H   0  0  0  0  0  0
  -21.0846   -8.8749   19.8946 H   0  0  0  0  0  0
  -22.3637  -10.9686   19.6162 H   0  0  0  0  0  0
  -21.1978   -7.6138   23.9729 H   0  0  0  0  0  0
  -21.1512   -6.0501   25.9084 H   0  0  0  0  0  0
  -22.0579   -2.7602   23.2826 H   0  0  0  0  0  0
  -22.4139  -11.9975   22.4910 H   0  0  0  0  0  0
  -21.1095  -13.1291   22.2585 H   0  0  0  0  0  0
  -24.6793  -15.8531   20.5635 H   0  0  0  0  0  0
  -26.2993  -15.6370   20.1368 H   0  0  0  0  0  0
  -26.7099  -32.5530   23.1162 H   0  0  0  0  0  0
  -24.9804  -33.9803   25.0306 H   0  0  0  0  0  0
  -22.6949  -31.3059   21.4101 H   0  0  0  0  0  0
  -23.3738  -35.9677   23.3315 H   0  0  0  0  0  0
  -24.3566  -36.8968   22.2062 H   0  0  0  0  0  0
  -23.7242  -37.6546   23.6667 H   0  0  0  0  0  0
  -26.0551  -31.5849   20.5965 H   0  0  0  0  0  0
  -26.8236  -30.8786   21.9882 H   0  0  0  0  0  0
  -28.1050  -29.0813   21.1751 H   0  0  0  0  0  0
  -26.0635  -25.9626   19.0026 H   0  0  0  0  0  0
  -23.9796  -27.2875   19.0366 H   0  0  0  0  0  0
  -23.7226  -30.5875   19.4038 H   0  0  0  0  0  0
  -22.7392  -29.2356   19.8748 H   0  0  0  0  0  0
  -25.1300  -36.1997   25.0843 H   0  0  0  0  0  0
  -20.9968  -28.3213   24.1445 H   0  0  0  0  0  0
  -20.5632  -26.2281   23.3642 H   0  0  0  0  0  0
  -21.6634  -26.7410   22.1260 H   0  0  0  0  0  0
  -19.6893  -25.6282   21.1265 H   0  0  0  0  0  0
  -19.6686  -27.3189   20.6771 H   0  0  0  0  0  0
  -17.4204  -26.6706   21.4012 H   0  0  0  0  0  0
  -18.0262  -26.0061   22.9010 H   0  0  0  0  0  0
  -19.7934  -30.7246   24.2308 H   0  0  0  0  0  0
  -17.5019  -31.6273   24.5157 H   0  0  0  0  0  0
  -15.5352  -30.3014   23.7630 H   0  0  0  0  0  0
  -15.8659  -28.0841   22.7055 H   0  0  0  0  0  0
  -24.5747  -30.7262   25.7799 H   0  0  0  0  0  0
  -24.8960  -32.2998   26.4942 H   0  0  0  0  0  0
  -25.7952  -30.8896   27.0209 H   0  0  0  0  0  0
  -26.2778  -29.6863   24.1089 H   0  0  0  0  0  0
  -27.3852  -29.7244   25.4629 H   0  0  0  0  0  0
  -27.8682  -30.4357   23.9385 H   0  0  0  0  0  0
  -27.2574  -33.3594   26.2150 H   0  0  0  0  0  0
  -28.3711  -32.7031   25.0253 H   0  0  0  0  0  0
  -28.0737  -31.8422   26.5296 H   0  0  0  0  0  0
  -28.2616  -38.0114   24.7508 H   0  0  0  0  0  0
  -28.1094  -36.2655   24.6249 H   0  0  0  0  0  0
  -27.2331  -37.1449   25.8860 H   0  0  0  0  0  0
  -20.9289  -29.8697   21.6904 H   0  0  0  0  0  0
  -26.0181  -38.2905   24.1397 H   0  0  0  0  0  0
  -28.9677  -21.0616   18.3728 H   0  0  0  0  0  0
  -30.8589  -16.7557   19.3330 H   0  0  0  0  0  0
  -29.2190  -15.7860   21.6807 H   0  0  0  0  0  0
  -26.6772  -23.1231   22.5801 H   0  0  0  0  0  0
  -26.7245  -24.8206   22.9903 H   0  0  0  0  0  0
  -28.1530  -23.8294   23.2604 H   0  0  0  0  0  0
  -29.6584  -25.5129   21.1889 H   0  0  0  0  0  0
  -28.3898  -26.2600   22.0883 H   0  0  0  0  0  0
  -26.9003  -24.5054   20.5766 H   0  0  0  0  0  0
  -28.2299  -21.9109   22.0050 H   0  0  0  0  0  0
  1 25  1  0  0  0
  1 30  2  0  0  0
  1 76  1  0  0  0
  2  3  1  0  0  0
  2 25  1  0  0  0
  2 88  1  0  0  0
  2 89  1  0  0  0
  3  4  1  0  0  0
  3 90  1  0  0  0
  3 91  1  0  0  0
  4  5  1  0  0  0
  4 92  1  0  0  0
  4 93  1  0  0  0
  5  6  1  0  0  0
  5 26  1  0  0  0
  5 94  1  0  0  0
  6 25  1  0  0  0
  6 95  1  0  0  0
  6 96  1  0  0  0
  7  8  2  0  0  0
  7 26  1  0  0  0
  7 29  1  0  0  0
  8  9  1  0  0  0
  8 22  1  0  0  0
  9 10  1  0  0  0
  9 27  2  0  0  0
 10 11  2  0  0  0
 10 15  1  0  0  0
 11 12  1  0  0  0
 11 97  1  0  0  0
 12 13  2  0  0  0
 12 98  1  0  0  0
 13 14  1  0  0  0
 13 31  1  0  0  0
 14 15  2  0  0  0
 14 99  1  0  0  0
 15100  1  0  0  0
 16 17  2  0  0  0
 16 21  1  0  0  0
 16 31  1  0  0  0
 17 18  1  0  0  0
 17101  1  0  0  0
 18 19  2  0  0  0
 18102  1  0  0  0
 19 20  1  0  0  0
 19 24  1  0  0  0
 20 21  2  0  0  0
 20103  1  0  0  0
 21 23  1  0  0  0
 22 28  1  0  0  0
 22 32  2  0  0  0
 26 27  1  0  0  0
 28104  1  0  0  0
 28105  1  0  0  0
 29106  1  0  0  0
 29107  1  0  0  0
 33 34  1  0  0  0
 33 66  1  0  0  0
 33 70  2  0  0  0
 34 36  1  0  0  0
 34 59  1  0  0  0
 34108  1  0  0  0
 35 44  2  0  0  0
 35 45  1  0  0  0
 35 68  1  0  0  0
 36 56  1  0  0  0
 36109  1  0  0  0
 37 39  1  0  0  0
 37 47  1  0  0  0
 37 66  1  0  0  0
 37110  1  0  0  0
 38 43  2  0  0  0
 38 46  1  0  0  0
 38 47  1  0  0  0
 39 64  1  0  0  0
 39 67  2  0  0  0
 40 52  1  0  0  0
 40 53  2  0  0  0
 40 58  1  0  0  0
 41111  1  0  0  0
 41112  1  0  0  0
 41113  1  0  0  0
 41 48  1  0  0  0
 42 43  1  0  0  0
 42 66  1  0  0  0
 42114  1  0  0  0
 42115  1  0  0  0
 43 44  1  0  0  0
 44116  1  0  0  0
 45 46  2  0  0  0
 45117  1  0  0  0
 46118  1  0  0  0
 47119  1  0  0  0
 47120  1  0  0  0
 48 56  1  0  0  0
 48 65  1  0  0  0
 48121  1  0  0  0
 49 50  1  0  0  0
 49 53  1  0  0  0
 49 64  1  0  0  0
 49122  1  0  0  0
 50 51  1  0  0  0
 50123  1  0  0  0
 50124  1  0  0  0
 51 52  1  0  0  0
 51125  1  0  0  0
 51126  1  0  0  0
 52127  1  0  0  0
 52128  1  0  0  0
 53 54  1  0  0  0
 54 55  2  0  0  0
 54129  1  0  0  0
 55 57  1  0  0  0
 55130  1  0  0  0
 56 69  2  0  0  0
 57 58  2  0  0  0
 57131  1  0  0  0
 58132  1  0  0  0
 59 60  1  0  0  0
 59 61  1  0  0  0
 59 62  1  0  0  0
 60133  1  0  0  0
 60134  1  0  0  0
 60135  1  0  0  0
 61136  1  0  0  0
 61137  1  0  0  0
 61138  1  0  0  0
 62139  1  0  0  0
 62140  1  0  0  0
 62141  1  0  0  0
 63 65  1  0  0  0
 63142  1  0  0  0
 63143  1  0  0  0
 63144  1  0  0  0
 64145  1  0  0  0
 65146  1  0  0  0
 68 79  1  0  0  0
 71 72  1  0  0  0
 71 74  2  0  0  0
 71147  1  0  0  0
 72 73  2  0  0  0
 72 81  1  0  0  0
 73 75  1  0  0  0
 73 87  1  0  0  0
 74 82  1  0  0  0
 74 87  1  0  0  0
 75 76  2  0  0  0
 75148  1  0  0  0
 76149  1  0  0  0
 77 80  1  0  0  0
 77 82  1  0  0  0
 77 83  2  0  0  0
 78150  1  0  0  0
 78151  1  0  0  0
 78152  1  0  0  0
 78 80  1  0  0  0
 79 80  1  0  0  0
 79153  1  0  0  0
 79154  1  0  0  0
 80155  1  0  0  0
 81 84  1  0  0  0
 81 85  1  0  0  0
 81 86  1  0  0  0
 82156  1  0  0  0
M  ISO  4   1 100  68 101  76 100  79 101
M  END
> <chiral flag>
0

> <version>
0

> <s_m_source_file>
/data/baiqing/PycharmProjects/Reinvent-master-3.2/result/LINK_invent/BTK/process_docking_weight1_custom_product_contain_oxygen_bond_distance_aromatic_linkinvent_7_9_3/rearranged_h_0180.sdf

> <i_m_source_file_index>
5

> <r_mmod_Potential_Energy-OPLS-2005>
30.8720874786377

> <r_mmod_Stretch_Energy-OPLS-2005>
48.9840126037598

> <r_mmod_Bend_Energy-OPLS-2005>
131.602920532227

> <r_mmod_Torsional_Energy-OPLS-2005>
239.38459777832

> <r_mmod_Improper_Torsional_Energy-OPLS-2005>
4.45519971847534

> <r_mmod_Van_der_Waal_Energy-OPLS-2005>
132.372360229492

> <r_mmod_Electrostatic_Energy-OPLS-2005>
-341.226287841797

> <r_mmod_Solvation_Energy-OPLS-2005>
-208.833801269531

> <b_mmod_Minimization_Converged-OPLS-2005>
0

> <r_mmod_RMS_Derivative-OPLS-2005>
3.39849281311035

$$$$
5
                    3D
 Structure written by MMmdl.
149157  0  0  1  0            999 V2000
  -30.5814  -14.8013   20.4595 C   0  0  0  0  0  0
  -30.4469  -12.4904   19.4853 C   0  0  0  0  0  0
  -29.5211  -12.5234   18.2472 C   0  0  0  0  0  0
  -28.0473  -12.3382   18.6575 C   0  0  0  0  0  0
  -27.6477  -13.2348   19.8589 C   0  0  2  0  0  0
  -28.6934  -13.1715   20.9956 C   0  0  0  0  0  0
  -25.2537  -13.8197   20.5706 C   0  0  0  0  0  0
  -24.1818  -13.0440   20.9198 C   0  0  0  0  0  0
  -24.6415  -11.6919   20.8734 C   0  0  0  0  0  0
  -23.9085  -10.4296   21.0391 C   0  0  0  0  0  0
  -24.3630   -9.4211   21.9176 C   0  0  0  0  0  0
  -23.6302   -8.2247   22.0754 C   0  0  0  0  0  0
  -22.4282   -8.0283   21.3542 C   0  0  0  0  0  0
  -21.9918   -9.0256   20.4642 C   0  0  0  0  0  0
  -22.7252  -10.2135   20.3049 C   0  0  0  0  0  0
  -21.6855   -6.0736   22.5273 C   0  0  0  0  0  0
  -21.4018   -6.5643   23.8207 C   0  0  0  0  0  0
  -21.3662   -5.6795   24.9170 C   0  0  0  0  0  0
  -21.6042   -4.3057   24.7223 C   0  0  0  0  0  0
  -21.8821   -3.8148   23.4342 C   0  0  0  0  0  0
  -21.9198   -4.6965   22.3399 C   0  0  0  0  0  0
  -22.7842  -13.5221   21.1859 C   0  0  0  0  0  0
  -22.1662   -4.2152   21.0973 F   0  0  0  0  0  0
  -21.5631   -3.4542   25.7735 F   0  0  0  0  0  0
  -29.9945  -13.5492   20.4222 N   0  0  0  0  0  0
  -26.2977  -12.9411   20.3313 N   0  0  0  0  0  0
  -25.9352  -11.6548   20.5756 N   0  0  0  0  0  0
  -22.0490  -12.8199   22.0408 N   0  0  0  0  0  0
  -25.4230  -15.1926   20.4138 N   0  0  0  0  0  0
  -31.7467  -14.9378   20.0746 O   0  0  0  0  0  0
  -21.6644   -6.8879   21.4237 O   0  0  0  0  0  0
  -22.3519  -14.5523   20.6711 O   0  0  0  0  0  0
  -24.6363  -31.8524   23.1968 C   0  0  0  0  0  0
  -25.9166  -32.4744   23.8330 C   0  0  1  0  0  0
  -27.2195  -27.2245   20.1266 C   0  0  0  0  0  0
  -25.5942  -33.8550   24.2248 N   0  0  0  0  0  0
  -23.4365  -30.4767   21.5397 C   0  0  2  0  0  0
  -24.8896  -28.9254   20.1028 C   0  0  0  0  0  0
  -22.7533  -29.4612   22.4880 C   0  0  0  0  0  0
  -18.0302  -28.1405   22.8494 C   0  0  0  0  0  0
  -24.1485  -36.7275   23.2640 C   0  0  0  0  0  0
  -25.9885  -30.7503   21.3879 C   0  0  0  0  0  0
  -26.0631  -29.3716   20.7262 C   0  0  0  0  0  0
  -27.2319  -28.5303   20.7381 C   0  0  0  0  0  0
  -26.0340  -26.8818   19.4370 C   0  0  0  0  0  0
  -24.8827  -27.6886   19.4457 C   0  0  0  0  0  0
  -23.6595  -29.8131   20.1567 C   0  0  0  0  0  0
  -25.4111  -36.3065   24.0330 C   0  0  1  0  0  0
  -20.5916  -28.3728   23.1247 C   0  0  2  0  0  0
  -20.6783  -26.9440   22.5407 C   0  0  0  0  0  0
  -19.5751  -26.6401   21.5217 C   0  0  0  0  0  0
  -18.1937  -26.7944   22.1638 C   0  0  0  0  0  0
  -19.1560  -28.8884   23.2866 C   0  0  0  0  0  0
  -18.9474  -30.1481   23.8894 C   0  0  0  0  0  0
  -17.6473  -30.6606   24.0579 C   0  0  0  0  0  0
  -25.9060  -34.9437   23.5098 C   0  0  0  0  0  0
  -16.5368  -29.9104   23.6340 C   0  0  0  0  0  0
  -16.7287  -28.6521   23.0364 C   0  0  0  0  0  0
  -26.4507  -31.6588   25.0741 C   0  0  0  0  0  0
  -25.3700  -31.3765   26.1451 C   0  0  0  0  0  0
  -27.0361  -30.2988   24.6281 C   0  0  0  0  0  0
  -27.6054  -32.4334   25.7522 C   0  0  0  0  0  0
  -27.5577  -37.1794   24.8466 C   0  0  0  0  0  0
  -21.4231  -29.3065   22.3620 N   0  0  0  0  0  0
  -26.4280  -37.3773   23.9418 N   0  0  0  0  0  0
  -24.7059  -31.0455   22.0966 N   0  0  0  0  0  0
  -23.4210  -28.8146   23.2994 O   0  0  0  0  0  0
  -28.2052  -26.1952   20.2356 O   0  0  0  0  0  0
  -26.5637  -34.8910   22.4671 O   0  0  0  0  0  0
  -23.5498  -32.1363   23.7222 O   0  0  0  0  0  0
  -30.5712  -18.0964   19.7206 C   0  0  0  0  0  0
  -29.8630  -17.2987   20.6181 C   0  0  0  0  0  0
  -29.4453  -19.9342   20.6814 C   0  0  0  0  0  0
  -27.6874  -24.9506   20.7405 C   0  0  0  0  0  0
  -27.9297  -23.5629   20.8131 C   0  0  0  0  0  0
  -29.0039  -22.5682   20.3559 C   0  0  0  0  0  0
  -28.9600  -21.4502   22.5451 C   0  0  0  0  0  0
  -30.3363  -19.5198   19.7560 N   0  0  0  0  0  0
  -29.7880  -15.8934   20.8136 N   0  0  0  0  0  0
  -29.0926  -21.3481   21.0798 N   0  0  0  0  0  0
  -29.7338  -22.7865   19.3856 O   0  0  0  0  0  0
  -26.8869  -22.9462   21.3965 O   0  0  0  0  0  0
  -28.8518  -18.4520   21.5493 S   0  0  0  0  0  0
  -31.4846  -12.6307   19.1793 H   0  0  0  0  0  0
  -30.4110  -11.5138   19.9695 H   0  0  0  0  0  0
  -29.8113  -11.7477   17.5373 H   0  0  0  0  0  0
  -29.6404  -13.4746   17.7261 H   0  0  0  0  0  0
  -27.9078  -11.2887   18.9188 H   0  0  0  0  0  0
  -27.3921  -12.5300   17.8069 H   0  0  0  0  0  0
  -27.6405  -14.2567   19.4799 H   0  0  0  0  0  0
  -28.7398  -12.1713   21.4274 H   0  0  0  0  0  0
  -28.4145  -13.8386   21.8122 H   0  0  0  0  0  0
  -25.2776   -9.5688   22.4749 H   0  0  0  0  0  0
  -24.0014   -7.4639   22.7473 H   0  0  0  0  0  0
  -21.0854   -8.8772   19.8942 H   0  0  0  0  0  0
  -22.3709  -10.9672   19.6156 H   0  0  0  0  0  0
  -21.2007   -7.6153   23.9709 H   0  0  0  0  0  0
  -21.1482   -6.0526   25.9073 H   0  0  0  0  0  0
  -22.0600   -2.7612   23.2839 H   0  0  0  0  0  0
  -22.4120  -11.9867   22.4796 H   0  0  0  0  0  0
  -21.1099  -13.1202   22.2604 H   0  0  0  0  0  0
  -24.6554  -15.8460   20.5240 H   0  0  0  0  0  0
  -26.2699  -15.6327   20.0779 H   0  0  0  0  0  0
  -26.7238  -32.5384   23.1070 H   0  0  0  0  0  0
  -25.0062  -33.9675   25.0375 H   0  0  0  0  0  0
  -22.7349  -31.3012   21.3907 H   0  0  0  0  0  0
  -23.3749  -35.9607   23.3305 H   0  0  0  0  0  0
  -24.3561  -36.8898   22.2054 H   0  0  0  0  0  0
  -23.7233  -37.6474   23.6654 H   0  0  0  0  0  0
  -26.1350  -31.5086   20.6169 H   0  0  0  0  0  0
  -26.8621  -30.7977   22.0272 H   0  0  0  0  0  0
  -28.1159  -28.8501   21.2707 H   0  0  0  0  0  0
  -25.9730  -25.9284   18.9316 H   0  0  0  0  0  0
  -23.9897  -27.3443   18.9428 H   0  0  0  0  0  0
  -23.7845  -30.5891   19.4011 H   0  0  0  0  0  0
  -22.7772  -29.2482   19.8505 H   0  0  0  0  0  0
  -25.1289  -36.1909   25.0821 H   0  0  0  0  0  0
  -21.0018  -28.3320   24.1363 H   0  0  0  0  0  0
  -20.5673  -26.2349   23.3616 H   0  0  0  0  0  0
  -21.6644  -26.7452   22.1209 H   0  0  0  0  0  0
  -19.6908  -25.6304   21.1257 H   0  0  0  0  0  0
  -19.6679  -27.3197   20.6731 H   0  0  0  0  0  0
  -17.4204  -26.6703   21.4049 H   0  0  0  0  0  0
  -18.0350  -26.0075   22.9022 H   0  0  0  0  0  0
  -19.7951  -30.7308   24.2257 H   0  0  0  0  0  0
  -17.5029  -31.6280   24.5185 H   0  0  0  0  0  0
  -15.5368  -30.3014   23.7655 H   0  0  0  0  0  0
  -15.8685  -28.0837   22.7091 H   0  0  0  0  0  0
  -24.5892  -30.7090   25.7792 H   0  0  0  0  0  0
  -24.8859  -32.2934   26.4818 H   0  0  0  0  0  0
  -25.7991  -30.8997   27.0265 H   0  0  0  0  0  0
  -26.2972  -29.6732   24.1257 H   0  0  0  0  0  0
  -27.3959  -29.7275   25.4843 H   0  0  0  0  0  0
  -27.8882  -30.4250   23.9598 H   0  0  0  0  0  0
  -27.2669  -33.3648   26.2067 H   0  0  0  0  0  0
  -28.3876  -32.6874   25.0358 H   0  0  0  0  0  0
  -28.0691  -31.8471   26.5457 H   0  0  0  0  0  0
  -28.2603  -38.0090   24.7522 H   0  0  0  0  0  0
  -28.1071  -36.2622   24.6276 H   0  0  0  0  0  0
  -27.2295  -37.1439   25.8872 H   0  0  0  0  0  0
  -20.9425  -29.8791   21.6819 H   0  0  0  0  0  0
  -26.0161  -38.2847   24.1411 H   0  0  0  0  0  0
  -31.2649  -17.7334   18.9749 H   0  0  0  0  0  0
  -26.7630  -25.2089   21.2432 H   0  0  0  0  0  0
  -29.7212  -20.8466   23.0409 H   0  0  0  0  0  0
  -27.9881  -21.0822   22.8758 H   0  0  0  0  0  0
  -29.0966  -22.4634   22.9277 H   0  0  0  0  0  0
  -28.9325  -15.5974   21.2598 H   0  0  0  0  0  0
  -27.0684  -22.0154   21.3737 H   0  0  0  0  0  0
  1 25  1  0  0  0
  1 30  2  0  0  0
  1 79  1  0  0  0
  2  3  1  0  0  0
  2 25  1  0  0  0
  2 84  1  0  0  0
  2 85  1  0  0  0
  3  4  1  0  0  0
  3 86  1  0  0  0
  3 87  1  0  0  0
  4  5  1  0  0  0
  4 88  1  0  0  0
  4 89  1  0  0  0
  5  6  1  0  0  0
  5 26  1  0  0  0
  5 90  1  0  0  0
  6 25  1  0  0  0
  6 91  1  0  0  0
  6 92  1  0  0  0
  7  8  2  0  0  0
  7 26  1  0  0  0
  7 29  1  0  0  0
  8  9  1  0  0  0
  8 22  1  0  0  0
  9 10  1  0  0  0
  9 27  2  0  0  0
 10 11  2  0  0  0
 10 15  1  0  0  0
 11 12  1  0  0  0
 11 93  1  0  0  0
 12 13  2  0  0  0
 12 94  1  0  0  0
 13 14  1  0  0  0
 13 31  1  0  0  0
 14 15  2  0  0  0
 14 95  1  0  0  0
 15 96  1  0  0  0
 16 17  2  0  0  0
 16 21  1  0  0  0
 16 31  1  0  0  0
 17 18  1  0  0  0
 17 97  1  0  0  0
 18 19  2  0  0  0
 18 98  1  0  0  0
 19 20  1  0  0  0
 19 24  1  0  0  0
 20 21  2  0  0  0
 20 99  1  0  0  0
 21 23  1  0  0  0
 22 28  1  0  0  0
 22 32  2  0  0  0
 26 27  1  0  0  0
 28100  1  0  0  0
 28101  1  0  0  0
 29102  1  0  0  0
 29103  1  0  0  0
 33 34  1  0  0  0
 33 66  1  0  0  0
 33 70  2  0  0  0
 34 36  1  0  0  0
 34 59  1  0  0  0
 34104  1  0  0  0
 35 44  2  0  0  0
 35 45  1  0  0  0
 35 68  1  0  0  0
 36 56  1  0  0  0
 36105  1  0  0  0
 37 39  1  0  0  0
 37 47  1  0  0  0
 37 66  1  0  0  0
 37106  1  0  0  0
 38 43  2  0  0  0
 38 46  1  0  0  0
 38 47  1  0  0  0
 39 64  1  0  0  0
 39 67  2  0  0  0
 40 52  1  0  0  0
 40 53  2  0  0  0
 40 58  1  0  0  0
 41107  1  0  0  0
 41108  1  0  0  0
 41109  1  0  0  0
 41 48  1  0  0  0
 42 43  1  0  0  0
 42 66  1  0  0  0
 42110  1  0  0  0
 42111  1  0  0  0
 43 44  1  0  0  0
 44112  1  0  0  0
 45 46  2  0  0  0
 45113  1  0  0  0
 46114  1  0  0  0
 47115  1  0  0  0
 47116  1  0  0  0
 48 56  1  0  0  0
 48 65  1  0  0  0
 48117  1  0  0  0
 49 50  1  0  0  0
 49 53  1  0  0  0
 49 64  1  0  0  0
 49118  1  0  0  0
 50 51  1  0  0  0
 50119  1  0  0  0
 50120  1  0  0  0
 51 52  1  0  0  0
 51121  1  0  0  0
 51122  1  0  0  0
 52123  1  0  0  0
 52124  1  0  0  0
 53 54  1  0  0  0
 54 55  2  0  0  0
 54125  1  0  0  0
 55 57  1  0  0  0
 55126  1  0  0  0
 56 69  2  0  0  0
 57 58  2  0  0  0
 57127  1  0  0  0
 58128  1  0  0  0
 59 60  1  0  0  0
 59 61  1  0  0  0
 59 62  1  0  0  0
 60129  1  0  0  0
 60130  1  0  0  0
 60131  1  0  0  0
 61132  1  0  0  0
 61133  1  0  0  0
 61134  1  0  0  0
 62135  1  0  0  0
 62136  1  0  0  0
 62137  1  0  0  0
 63 65  1  0  0  0
 63138  1  0  0  0
 63139  1  0  0  0
 63140  1  0  0  0
 64141  1  0  0  0
 65142  1  0  0  0
 68 74  1  0  0  0
 71 72  2  0  0  0
 71 78  1  0  0  0
 71143  1  0  0  0
 72 79  1  0  0  0
 72 83  1  0  0  0
 73 78  2  0  0  0
 73 80  1  0  0  0
 73 83  1  0  0  0
 74 75  2  0  0  0
 74144  1  0  0  0
 75 76  1  0  0  0
 75 82  1  0  0  0
 76 80  1  0  0  0
 76 81  2  0  0  0
 77 80  1  0  0  0
 77145  1  0  0  0
 77146  1  0  0  0
 77147  1  0  0  0
 79148  1  0  0  0
 82149  1  0  0  0
M  ISO  4   1 100  68 101  74 101  79 100
M  END
> <chiral flag>
0

> <version>
0

> <s_m_source_file>
/data/baiqing/PycharmProjects/Reinvent-master-3.2/result/LINK_invent/BTK/process_docking_weight1_custom_product_contain_oxygen_bond_distance_aromatic_linkinvent_7_9_3/rearranged_h_0180.sdf

> <i_m_source_file_index>
6

> <r_mmod_Potential_Energy-OPLS-2005>
407.492309570312

> <r_mmod_Stretch_Energy-OPLS-2005>
151.040298461914

> <r_mmod_Bend_Energy-OPLS-2005>
284.981506347656

> <r_mmod_Torsional_Energy-OPLS-2005>
276.427673339844

> <r_mmod_Improper_Torsional_Energy-OPLS-2005>
4.56065607070923

> <r_mmod_Van_der_Waal_Energy-OPLS-2005>
141.025344848633

> <r_mmod_Electrostatic_Energy-OPLS-2005>
-329.057373046875

> <r_mmod_Solvation_Energy-OPLS-2005>
-247.172836303711

> <b_mmod_Minimization_Converged-OPLS-2005>
0

> <r_mmod_RMS_Derivative-OPLS-2005>
1.90359508991241

$$$$
6
                    3D
 Structure written by MMmdl.
154162  0  0  1  0            999 V2000
  -30.6090  -14.7077   20.4604 C   0  0  0  0  0  0
  -30.4258  -12.4242   19.4781 C   0  0  0  0  0  0
  -29.5160  -12.5240   18.2337 C   0  0  0  0  0  0
  -28.0366  -12.3510   18.6339 C   0  0  0  0  0  0
  -27.6447  -13.2296   19.8535 C   0  0  2  0  0  0
  -28.6834  -13.1337   20.9937 C   0  0  0  0  0  0
  -25.2492  -13.8184   20.5634 C   0  0  0  0  0  0
  -24.1776  -13.0431   20.9140 C   0  0  0  0  0  0
  -24.6362  -11.6908   20.8677 C   0  0  0  0  0  0
  -23.9040  -10.4284   21.0366 C   0  0  0  0  0  0
  -24.3600   -9.4215   21.9160 C   0  0  0  0  0  0
  -23.6283   -8.2242   22.0749 C   0  0  0  0  0  0
  -22.4268   -8.0254   21.3538 C   0  0  0  0  0  0
  -21.9884   -9.0221   20.4646 C   0  0  0  0  0  0
  -22.7198  -10.2111   20.3030 C   0  0  0  0  0  0
  -21.6859   -6.0706   22.5276 C   0  0  0  0  0  0
  -21.4028   -6.5622   23.8203 C   0  0  0  0  0  0
  -21.3663   -5.6780   24.9169 C   0  0  0  0  0  0
  -21.6044   -4.3044   24.7222 C   0  0  0  0  0  0
  -21.8819   -3.8122   23.4349 C   0  0  0  0  0  0
  -21.9191   -4.6933   22.3395 C   0  0  0  0  0  0
  -22.7808  -13.5219   21.1825 C   0  0  0  0  0  0
  -22.1661   -4.2112   21.0978 F   0  0  0  0  0  0
  -21.5629   -3.4534   25.7745 F   0  0  0  0  0  0
  -29.9940  -13.4759   20.4264 N   0  0  0  0  0  0
  -26.2931  -12.9397   20.3238 N   0  0  0  0  0  0
  -25.9297  -11.6539   20.5676 N   0  0  0  0  0  0
  -22.0458  -12.8227   22.0403 N   0  0  0  0  0  0
  -25.4162  -15.1906   20.4064 N   0  0  0  0  0  0
  -31.7893  -14.8084   20.1130 O   0  0  0  0  0  0
  -21.6638   -6.8844   21.4234 O   0  0  0  0  0  0
  -22.3486  -14.5519   20.6657 O   0  0  0  0  0  0
  -24.6289  -31.8547   23.1972 C   0  0  0  0  0  0
  -25.9110  -32.4748   23.8327 C   0  0  1  0  0  0
  -27.2212  -27.2657   20.1155 C   0  0  0  0  0  0
  -25.5902  -33.8551   24.2253 N   0  0  0  0  0  0
  -23.4263  -30.4761   21.5413 C   0  0  2  0  0  0
  -24.8718  -28.9224   20.1099 C   0  0  0  0  0  0
  -22.7490  -29.4597   22.4918 C   0  0  0  0  0  0
  -18.0286  -28.1383   22.8470 C   0  0  0  0  0  0
  -24.1487  -36.7275   23.2643 C   0  0  0  0  0  0
  -25.9708  -30.7675   21.3788 C   0  0  0  0  0  0
  -26.0420  -29.3913   20.7174 C   0  0  0  0  0  0
  -27.2154  -28.5729   20.7101 C   0  0  0  0  0  0
  -26.0166  -26.8524   19.4999 C   0  0  0  0  0  0
  -24.8635  -27.6616   19.4953 C   0  0  0  0  0  0
  -23.6414  -29.8061   20.1586 C   0  0  0  0  0  0
  -25.4115  -36.3069   24.0329 C   0  0  1  0  0  0
  -20.5885  -28.3685   23.1264 C   0  0  2  0  0  0
  -20.6775  -26.9402   22.5394 C   0  0  0  0  0  0
  -19.5761  -26.6376   21.5192 C   0  0  0  0  0  0
  -18.1939  -26.7923   22.1610 C   0  0  0  0  0  0
  -19.1540  -28.8856   23.2860 C   0  0  0  0  0  0
  -18.9467  -30.1457   23.8874 C   0  0  0  0  0  0
  -17.6471  -30.6588   24.0551 C   0  0  0  0  0  0
  -25.9053  -34.9435   23.5100 C   0  0  0  0  0  0
  -16.5357  -29.9080   23.6330 C   0  0  0  0  0  0
  -16.7278  -28.6497   23.0353 C   0  0  0  0  0  0
  -26.4478  -31.6581   25.0715 C   0  0  0  0  0  0
  -25.3684  -31.3740   26.1425 C   0  0  0  0  0  0
  -27.0349  -30.3001   24.6224 C   0  0  0  0  0  0
  -27.6049  -32.4318   25.7477 C   0  0  0  0  0  0
  -27.5582  -37.1789   24.8462 C   0  0  0  0  0  0
  -21.4200  -29.3032   22.3654 N   0  0  0  0  0  0
  -26.4298  -37.3762   23.9401 N   0  0  0  0  0  0
  -24.6945  -31.0504   22.0956 N   0  0  0  0  0  0
  -23.4189  -28.8144   23.3028 O   0  0  0  0  0  0
  -28.3531  -26.4226   20.1816 O   0  0  0  0  0  0
  -26.5637  -34.8904   22.4678 O   0  0  0  0  0  0
  -23.5438  -32.1381   23.7255 O   0  0  0  0  0  0
  -29.5599  -19.5912   20.2274 C   0  0  0  0  0  0
  -30.6344  -19.4835   19.3458 C   0  0  0  0  0  0
  -30.0243  -17.2326   20.3533 C   0  0  0  0  0  0
  -28.8352  -20.8857   20.6520 C   0  0  0  0  0  0
  -28.8716  -22.3023   19.8218 C   0  0  0  0  0  0
  -32.4711  -20.6564   18.2466 C   0  0  0  0  0  0
  -32.7697  -21.9069   17.4312 C   0  0  0  0  0  0
  -28.5704  -23.7112   20.5180 C   0  0  0  0  0  0
  -28.4287  -25.0371   19.6043 C   0  0  0  0  0  0
  -29.2478  -18.2779   20.7711 N   0  0  0  0  0  0
  -31.1905  -20.4852   18.6084 N   0  0  0  0  0  0
  -29.8301  -15.8186   20.7361 N   0  0  0  0  0  0
  -28.1356  -20.9054   21.6742 O   0  0  0  0  0  0
  -29.1028  -22.2935   18.6057 O   0  0  0  0  0  0
  -33.3905  -19.8949   18.5566 O   0  0  0  0  0  0
  -31.2263  -17.8104   19.2129 S   0  0  0  0  0  0
  -31.4745  -12.5261   19.1955 H   0  0  0  0  0  0
  -30.3369  -11.4361   19.9339 H   0  0  0  0  0  0
  -29.7992  -11.7756   17.4916 H   0  0  0  0  0  0
  -29.6543  -13.4952   17.7542 H   0  0  0  0  0  0
  -27.8765  -11.2980   18.8701 H   0  0  0  0  0  0
  -27.3884  -12.5736   17.7853 H   0  0  0  0  0  0
  -27.6483  -14.2579   19.4906 H   0  0  0  0  0  0
  -28.7000  -12.1272   21.4182 H   0  0  0  0  0  0
  -28.4197  -13.8037   21.8133 H   0  0  0  0  0  0
  -25.2748   -9.5716   22.4724 H   0  0  0  0  0  0
  -23.9989   -7.4652   22.7486 H   0  0  0  0  0  0
  -21.0804   -8.8721   19.8970 H   0  0  0  0  0  0
  -22.3628  -10.9628   19.6125 H   0  0  0  0  0  0
  -21.2035   -7.6137   23.9695 H   0  0  0  0  0  0
  -21.1494   -6.0518   25.9071 H   0  0  0  0  0  0
  -22.0593   -2.7585   23.2858 H   0  0  0  0  0  0
  -22.4093  -11.9919   22.4835 H   0  0  0  0  0  0
  -21.1071  -13.1251   22.2587 H   0  0  0  0  0  0
  -24.6386  -15.8350   20.5022 H   0  0  0  0  0  0
  -26.2596  -15.6405   20.0754 H   0  0  0  0  0  0
  -26.7164  -32.5391   23.1061 H   0  0  0  0  0  0
  -24.9986  -33.9692   25.0353 H   0  0  0  0  0  0
  -22.7225  -31.2974   21.3942 H   0  0  0  0  0  0
  -23.3756  -35.9603   23.3309 H   0  0  0  0  0  0
  -24.3575  -36.8892   22.2058 H   0  0  0  0  0  0
  -23.7237  -37.6472   23.6669 H   0  0  0  0  0  0
  -26.1098  -31.5330   20.6139 H   0  0  0  0  0  0
  -26.8473  -30.8141   22.0138 H   0  0  0  0  0  0
  -28.1136  -28.9240   21.1981 H   0  0  0  0  0  0
  -25.9095  -25.8833   19.0389 H   0  0  0  0  0  0
  -23.9618  -27.2940   19.0266 H   0  0  0  0  0  0
  -23.7527  -30.5762   19.3949 H   0  0  0  0  0  0
  -22.7629  -29.2294   19.8646 H   0  0  0  0  0  0
  -25.1302  -36.1925   25.0825 H   0  0  0  0  0  0
  -20.9975  -28.3259   24.1389 H   0  0  0  0  0  0
  -20.5657  -26.2296   23.3597 H   0  0  0  0  0  0
  -21.6650  -26.7420   22.1212 H   0  0  0  0  0  0
  -19.6922  -25.6279   21.1241 H   0  0  0  0  0  0
  -19.6709  -27.3166   20.6705 H   0  0  0  0  0  0
  -17.4202  -26.6641   21.4020 H   0  0  0  0  0  0
  -18.0364  -26.0074   22.9024 H   0  0  0  0  0  0
  -19.7945  -30.7272   24.2237 H   0  0  0  0  0  0
  -17.5026  -31.6270   24.5152 H   0  0  0  0  0  0
  -15.5357  -30.2982   23.7671 H   0  0  0  0  0  0
  -15.8672  -28.0810   22.7091 H   0  0  0  0  0  0
  -24.5839  -30.7129   25.7711 H   0  0  0  0  0  0
  -24.8889  -32.2919   26.4838 H   0  0  0  0  0  0
  -25.7959  -30.8887   27.0207 H   0  0  0  0  0  0
  -26.2955  -29.6726   24.1230 H   0  0  0  0  0  0
  -27.4008  -29.7283   25.4760 H   0  0  0  0  0  0
  -27.8830  -30.4270   23.9494 H   0  0  0  0  0  0
  -27.2675  -33.3619   26.2057 H   0  0  0  0  0  0
  -28.3843  -32.6874   25.0287 H   0  0  0  0  0  0
  -28.0734  -31.8437   26.5377 H   0  0  0  0  0  0
  -28.2600  -38.0084   24.7514 H   0  0  0  0  0  0
  -28.1083  -36.2617   24.6300 H   0  0  0  0  0  0
  -27.2294  -37.1439   25.8863 H   0  0  0  0  0  0
  -20.9390  -29.8737   21.6838 H   0  0  0  0  0  0
  -26.0182  -38.2839   24.1403 H   0  0  0  0  0  0
  -32.4168  -22.7954   17.9563 H   0  0  0  0  0  0
  -32.2786  -21.8635   16.4585 H   0  0  0  0  0  0
  -33.8418  -22.0153   17.2659 H   0  0  0  0  0  0
  -29.3842  -23.8720   21.2232 H   0  0  0  0  0  0
  -27.6697  -23.5934   21.1188 H   0  0  0  0  0  0
  -27.6603  -24.8619   18.8568 H   0  0  0  0  0  0
  -29.3384  -25.0682   19.0037 H   0  0  0  0  0  0
  -30.5582  -21.2326   18.3280 H   0  0  0  0  0  0
  -28.9295  -15.6090   21.1330 H   0  0  0  0  0  0
  1 25  1  0  0  0
  1 30  2  0  0  0
  1 82  1  0  0  0
  2  3  1  0  0  0
  2 25  1  0  0  0
  2 87  1  0  0  0
  2 88  1  0  0  0
  3  4  1  0  0  0
  3 89  1  0  0  0
  3 90  1  0  0  0
  4  5  1  0  0  0
  4 91  1  0  0  0
  4 92  1  0  0  0
  5  6  1  0  0  0
  5 26  1  0  0  0
  5 93  1  0  0  0
  6 25  1  0  0  0
  6 94  1  0  0  0
  6 95  1  0  0  0
  7  8  2  0  0  0
  7 26  1  0  0  0
  7 29  1  0  0  0
  8  9  1  0  0  0
  8 22  1  0  0  0
  9 10  1  0  0  0
  9 27  2  0  0  0
 10 11  2  0  0  0
 10 15  1  0  0  0
 11 12  1  0  0  0
 11 96  1  0  0  0
 12 13  2  0  0  0
 12 97  1  0  0  0
 13 14  1  0  0  0
 13 31  1  0  0  0
 14 15  2  0  0  0
 14 98  1  0  0  0
 15 99  1  0  0  0
 16 17  2  0  0  0
 16 21  1  0  0  0
 16 31  1  0  0  0
 17 18  1  0  0  0
 17100  1  0  0  0
 18 19  2  0  0  0
 18101  1  0  0  0
 19 20  1  0  0  0
 19 24  1  0  0  0
 20 21  2  0  0  0
 20102  1  0  0  0
 21 23  1  0  0  0
 22 28  1  0  0  0
 22 32  2  0  0  0
 26 27  1  0  0  0
 28103  1  0  0  0
 28104  1  0  0  0
 29105  1  0  0  0
 29106  1  0  0  0
 33 34  1  0  0  0
 33 66  1  0  0  0
 33 70  2  0  0  0
 34 36  1  0  0  0
 34 59  1  0  0  0
 34107  1  0  0  0
 35 44  2  0  0  0
 35 45  1  0  0  0
 35 68  1  0  0  0
 36 56  1  0  0  0
 36108  1  0  0  0
 37 39  1  0  0  0
 37 47  1  0  0  0
 37 66  1  0  0  0
 37109  1  0  0  0
 38 43  2  0  0  0
 38 46  1  0  0  0
 38 47  1  0  0  0
 39 64  1  0  0  0
 39 67  2  0  0  0
 40 52  1  0  0  0
 40 53  2  0  0  0
 40 58  1  0  0  0
 41110  1  0  0  0
 41111  1  0  0  0
 41112  1  0  0  0
 41 48  1  0  0  0
 42 43  1  0  0  0
 42 66  1  0  0  0
 42113  1  0  0  0
 42114  1  0  0  0
 43 44  1  0  0  0
 44115  1  0  0  0
 45 46  2  0  0  0
 45116  1  0  0  0
 46117  1  0  0  0
 47118  1  0  0  0
 47119  1  0  0  0
 48 56  1  0  0  0
 48 65  1  0  0  0
 48120  1  0  0  0
 49 50  1  0  0  0
 49 53  1  0  0  0
 49 64  1  0  0  0
 49121  1  0  0  0
 50 51  1  0  0  0
 50122  1  0  0  0
 50123  1  0  0  0
 51 52  1  0  0  0
 51124  1  0  0  0
 51125  1  0  0  0
 52126  1  0  0  0
 52127  1  0  0  0
 53 54  1  0  0  0
 54 55  2  0  0  0
 54128  1  0  0  0
 55 57  1  0  0  0
 55129  1  0  0  0
 56 69  2  0  0  0
 57 58  2  0  0  0
 57130  1  0  0  0
 58131  1  0  0  0
 59 60  1  0  0  0
 59 61  1  0  0  0
 59 62  1  0  0  0
 60132  1  0  0  0
 60133  1  0  0  0
 60134  1  0  0  0
 61135  1  0  0  0
 61136  1  0  0  0
 61137  1  0  0  0
 62138  1  0  0  0
 62139  1  0  0  0
 62140  1  0  0  0
 63 65  1  0  0  0
 63141  1  0  0  0
 63142  1  0  0  0
 63143  1  0  0  0
 64144  1  0  0  0
 65145  1  0  0  0
 68 79  1  0  0  0
 71 72  2  0  0  0
 71 74  1  0  0  0
 71 80  1  0  0  0
 72 81  1  0  0  0
 72 86  1  0  0  0
 73 80  2  0  0  0
 73 82  1  0  0  0
 73 86  1  0  0  0
 74 75  1  0  0  0
 74 83  2  0  0  0
 75 78  1  0  0  0
 75 84  2  0  0  0
 76 77  1  0  0  0
 76 81  1  0  0  0
 76 85  2  0  0  0
 77146  1  0  0  0
 77147  1  0  0  0
 77148  1  0  0  0
 78 79  1  0  0  0
 78149  1  0  0  0
 78150  1  0  0  0
 79151  1  0  0  0
 79152  1  0  0  0
 81153  1  0  0  0
 82154  1  0  0  0
M  ISO  4   1 100  68 101  79 101  82 100
M  END
> <chiral flag>
0

> <version>
0

> <s_m_source_file>
/data/baiqing/PycharmProjects/Reinvent-master-3.2/result/LINK_invent/BTK/process_docking_weight1_custom_product_contain_oxygen_bond_distance_aromatic_linkinvent_7_9_3/rearranged_h_0180.sdf

> <i_m_source_file_index>
7

> <r_mmod_Potential_Energy-OPLS-2005>
105.341995239258

> <r_mmod_Stretch_Energy-OPLS-2005>
124.68132019043

> <r_mmod_Bend_Energy-OPLS-2005>
174.614288330078

> <r_mmod_Torsional_Energy-OPLS-2005>
213.954803466797

> <r_mmod_Improper_Torsional_Energy-OPLS-2005>
4.42095565795898

> <r_mmod_Van_der_Waal_Energy-OPLS-2005>
129.343505859375

> <r_mmod_Electrostatic_Energy-OPLS-2005>
-355.444732666016

> <r_mmod_Solvation_Energy-OPLS-2005>
-257.693298339844

> <b_mmod_Minimization_Converged-OPLS-2005>
0

> <r_mmod_RMS_Derivative-OPLS-2005>
2.25040602684021

$$$$
7
                    3D
 Structure written by MMmdl.
157165  0  0  1  0            999 V2000
  -30.5903  -14.6027   20.5582 C   0  0  0  0  0  0
  -30.4510  -12.3770   19.4447 C   0  0  0  0  0  0
  -29.5180  -12.5040   18.2180 C   0  0  0  0  0  0
  -28.0318  -12.3567   18.6142 C   0  0  0  0  0  0
  -27.6538  -13.2006   19.8613 C   0  0  2  0  0  0
  -28.6922  -13.0030   20.9884 C   0  0  0  0  0  0
  -25.2560  -13.8131   20.5654 C   0  0  0  0  0  0
  -24.1813  -13.0404   20.9150 C   0  0  0  0  0  0
  -24.6366  -11.6878   20.8684 C   0  0  0  0  0  0
  -23.9032  -10.4268   21.0372 C   0  0  0  0  0  0
  -24.3590   -9.4201   21.9159 C   0  0  0  0  0  0
  -23.6274   -8.2243   22.0739 C   0  0  0  0  0  0
  -22.4259   -8.0264   21.3531 C   0  0  0  0  0  0
  -21.9885   -9.0222   20.4628 C   0  0  0  0  0  0
  -22.7204  -10.2105   20.3030 C   0  0  0  0  0  0
  -21.6860   -6.0720   22.5276 C   0  0  0  0  0  0
  -21.4020   -6.5629   23.8203 C   0  0  0  0  0  0
  -21.3657   -5.6787   24.9165 C   0  0  0  0  0  0
  -21.6046   -4.3046   24.7224 C   0  0  0  0  0  0
  -21.8826   -3.8132   23.4344 C   0  0  0  0  0  0
  -21.9191   -4.6949   22.3399 C   0  0  0  0  0  0
  -22.7850  -13.5214   21.1829 C   0  0  0  0  0  0
  -22.1662   -4.2143   21.0976 F   0  0  0  0  0  0
  -21.5619   -3.4528   25.7727 F   0  0  0  0  0  0
  -30.0128  -13.3670   20.4417 N   0  0  0  0  0  0
  -26.2960  -12.9275   20.3246 N   0  0  0  0  0  0
  -25.9284  -11.6447   20.5681 N   0  0  0  0  0  0
  -22.0510  -12.8203   22.0405 N   0  0  0  0  0  0
  -25.4297  -15.1857   20.4117 N   0  0  0  0  0  0
  -31.7574  -14.8220   20.2057 O   0  0  0  0  0  0
  -21.6629   -6.8852   21.4231 O   0  0  0  0  0  0
  -22.3535  -14.5523   20.6688 O   0  0  0  0  0  0
  -24.6190  -31.8640   23.2056 C   0  0  0  0  0  0
  -25.9059  -32.4796   23.8382 C   0  0  1  0  0  0
  -27.2459  -27.3798   20.1235 C   0  0  0  0  0  0
  -25.5879  -33.8595   24.2293 N   0  0  0  0  0  0
  -23.4130  -30.4851   21.5459 C   0  0  2  0  0  0
  -24.8650  -28.9367   20.1225 C   0  0  0  0  0  0
  -22.7437  -29.4634   22.4934 C   0  0  0  0  0  0
  -18.0271  -28.1395   22.8489 C   0  0  0  0  0  0
  -24.1459  -36.7281   23.2650 C   0  0  0  0  0  0
  -25.9452  -30.8146   21.3691 C   0  0  0  0  0  0
  -26.0262  -29.4407   20.7220 C   0  0  0  0  0  0
  -27.2222  -28.6743   20.7103 C   0  0  0  0  0  0
  -26.0644  -26.8980   19.5252 C   0  0  0  0  0  0
  -24.8802  -27.6655   19.5202 C   0  0  0  0  0  0
  -23.6296  -29.8135   20.1618 C   0  0  0  0  0  0
  -25.4097  -36.3084   24.0336 C   0  0  1  0  0  0
  -20.5871  -28.3683   23.1282 C   0  0  2  0  0  0
  -20.6758  -26.9400   22.5404 C   0  0  0  0  0  0
  -19.5733  -26.6388   21.5203 C   0  0  0  0  0  0
  -18.1912  -26.7929   22.1627 C   0  0  0  0  0  0
  -19.1530  -28.8850   23.2882 C   0  0  0  0  0  0
  -18.9480  -30.1455   23.8910 C   0  0  0  0  0  0
  -17.6485  -30.6606   24.0568 C   0  0  0  0  0  0
  -25.9029  -34.9451   23.5118 C   0  0  0  0  0  0
  -16.5362  -29.9127   23.6319 C   0  0  0  0  0  0
  -16.7266  -28.6533   23.0357 C   0  0  0  0  0  0
  -26.4454  -31.6620   25.0733 C   0  0  0  0  0  0
  -25.3709  -31.3783   26.1475 C   0  0  0  0  0  0
  -27.0306  -30.3061   24.6166 C   0  0  0  0  0  0
  -27.6007  -32.4391   25.7492 C   0  0  0  0  0  0
  -27.5559  -37.1781   24.8476 C   0  0  0  0  0  0
  -21.4159  -29.3051   22.3684 N   0  0  0  0  0  0
  -26.4267  -37.3781   23.9422 N   0  0  0  0  0  0
  -24.6768  -31.0704   22.0982 N   0  0  0  0  0  0
  -23.4162  -28.8168   23.3000 O   0  0  0  0  0  0
  -28.4092  -26.6239   20.0444 O   0  0  0  0  0  0
  -26.5597  -34.8916   22.4683 O   0  0  0  0  0  0
  -23.5355  -32.1408   23.7401 O   0  0  0  0  0  0
  -28.7902  -18.2073   23.2589 C   0  0  0  0  0  0
  -29.1332  -19.3825   22.5816 C   0  0  0  0  0  0
  -29.0559  -16.9722   22.6454 C   0  0  0  0  0  0
  -29.7360  -19.2775   21.3183 C   0  0  0  0  0  0
  -29.7035  -16.9004   21.3936 C   0  0  0  0  0  0
  -30.1396  -20.5271   20.6066 C   0  0  0  0  0  0
  -28.5061  -24.0727   20.1868 C   0  0  0  0  0  0
  -30.5105  -23.1822   18.9028 C   0  0  0  0  0  0
  -28.5513  -25.4614   20.9140 C   0  0  0  0  0  0
  -29.7433  -23.0944   20.2463 C   0  0  2  0  0  0
  -30.0408  -18.0621   20.7384 N   0  0  0  0  0  0
  -29.6732  -15.5732   20.8333 N   0  0  0  0  0  0
  -29.3822  -21.6745   20.6223 N   0  0  0  0  0  0
  -31.3356  -20.5008   20.0076 N   0  3  0  0  0  0
  -27.4875  -23.7540   19.5674 O   0  0  0  0  0  0
  -31.4919  -12.5281   19.1520 H   0  0  0  0  0  0
  -30.3987  -11.3713   19.8701 H   0  0  0  0  0  0
  -29.7832  -11.7542   17.4719 H   0  0  0  0  0  0
  -29.6751  -13.4738   17.7420 H   0  0  0  0  0  0
  -27.8398  -11.2998   18.8096 H   0  0  0  0  0  0
  -27.3937  -12.6276   17.7718 H   0  0  0  0  0  0
  -27.6789  -14.2434   19.5457 H   0  0  0  0  0  0
  -28.6933  -11.9644   21.3213 H   0  0  0  0  0  0
  -28.4311  -13.5878   21.8724 H   0  0  0  0  0  0
  -25.2754   -9.5695   22.4706 H   0  0  0  0  0  0
  -23.9997   -7.4645   22.7471 H   0  0  0  0  0  0
  -21.0819   -8.8714   19.8943 H   0  0  0  0  0  0
  -22.3653  -10.9613   19.6117 H   0  0  0  0  0  0
  -21.2028   -7.6140   23.9707 H   0  0  0  0  0  0
  -21.1472   -6.0510   25.9066 H   0  0  0  0  0  0
  -22.0614   -2.7601   23.2843 H   0  0  0  0  0  0
  -22.4163  -11.9872   22.4792 H   0  0  0  0  0  0
  -21.1123  -13.1199   22.2619 H   0  0  0  0  0  0
  -24.6592  -15.8352   20.5195 H   0  0  0  0  0  0
  -26.2741  -15.6304   20.0774 H   0  0  0  0  0  0
  -26.7144  -32.5487   23.1154 H   0  0  0  0  0  0
  -25.0018  -33.9762   25.0433 H   0  0  0  0  0  0
  -22.7033  -31.3031   21.4000 H   0  0  0  0  0  0
  -23.3710  -35.9614   23.3336 H   0  0  0  0  0  0
  -24.3544  -36.8880   22.2052 H   0  0  0  0  0  0
  -23.7202  -37.6492   23.6663 H   0  0  0  0  0  0
  -26.0623  -31.5797   20.6006 H   0  0  0  0  0  0
  -26.8289  -30.8714   21.9920 H   0  0  0  0  0  0
  -28.1254  -29.0705   21.1528 H   0  0  0  0  0  0
  -26.0622  -25.9269   19.0499 H   0  0  0  0  0  0
  -23.9913  -27.2747   19.0446 H   0  0  0  0  0  0
  -23.7500  -30.5881   19.4036 H   0  0  0  0  0  0
  -22.7506  -29.2409   19.8604 H   0  0  0  0  0  0
  -25.1270  -36.1927   25.0822 H   0  0  0  0  0  0
  -20.9984  -28.3276   24.1396 H   0  0  0  0  0  0
  -20.5649  -26.2307   23.3620 H   0  0  0  0  0  0
  -21.6640  -26.7435   22.1204 H   0  0  0  0  0  0
  -19.6893  -25.6287   21.1251 H   0  0  0  0  0  0
  -19.6680  -27.3186   20.6717 H   0  0  0  0  0  0
  -17.4172  -26.6672   21.4024 H   0  0  0  0  0  0
  -18.0326  -26.0067   22.9024 H   0  0  0  0  0  0
  -19.7965  -30.7249   24.2290 H   0  0  0  0  0  0
  -17.5061  -31.6291   24.5173 H   0  0  0  0  0  0
  -15.5373  -30.3066   23.7640 H   0  0  0  0  0  0
  -15.8645  -28.0879   22.7074 H   0  0  0  0  0  0
  -24.5886  -30.7105   25.7841 H   0  0  0  0  0  0
  -24.8877  -32.2953   26.4851 H   0  0  0  0  0  0
  -25.8038  -30.9024   27.0281 H   0  0  0  0  0  0
  -26.2884  -29.6819   24.1172 H   0  0  0  0  0  0
  -27.4006  -29.7295   25.4657 H   0  0  0  0  0  0
  -27.8738  -30.4369   23.9385 H   0  0  0  0  0  0
  -27.2617  -33.3716   26.2029 H   0  0  0  0  0  0
  -28.3830  -32.6939   25.0328 H   0  0  0  0  0  0
  -28.0664  -31.8560   26.5449 H   0  0  0  0  0  0
  -28.2588  -38.0069   24.7508 H   0  0  0  0  0  0
  -28.1035  -36.2587   24.6316 H   0  0  0  0  0  0
  -27.2274  -37.1456   25.8884 H   0  0  0  0  0  0
  -20.9313  -29.8803   21.6935 H   0  0  0  0  0  0
  -26.0136  -38.2831   24.1494 H   0  0  0  0  0  0
  -28.3075  -18.2554   24.2250 H   0  0  0  0  0  0
  -28.9480  -20.3458   23.0383 H   0  0  0  0  0  0
  -28.7280  -16.0724   23.1461 H   0  0  0  0  0  0
  -30.2589  -24.0842   18.3403 H   0  0  0  0  0  0
  -30.2924  -22.3395   18.2462 H   0  0  0  0  0  0
  -31.5873  -23.2198   19.0648 H   0  0  0  0  0  0
  -27.7849  -25.4786   21.6914 H   0  0  0  0  0  0
  -29.5085  -25.5441   21.4296 H   0  0  0  0  0  0
  -30.4058  -23.4575   21.0318 H   0  0  0  0  0  0
  -28.7785  -15.1328   20.9669 H   0  0  0  0  0  0
  -28.4506  -21.5579   20.9948 H   0  0  0  0  0  0
  -31.8053  -19.6081   19.9960 H   0  0  0  0  0  0
  -31.6956  -21.2702   19.4725 H   0  0  0  0  0  0
  1 25  1  0  0  0
  1 30  2  0  0  0
  1 82  1  0  0  0
  2  3  1  0  0  0
  2 25  1  0  0  0
  2 86  1  0  0  0
  2 87  1  0  0  0
  3  4  1  0  0  0
  3 88  1  0  0  0
  3 89  1  0  0  0
  4  5  1  0  0  0
  4 90  1  0  0  0
  4 91  1  0  0  0
  5  6  1  0  0  0
  5 26  1  0  0  0
  5 92  1  0  0  0
  6 25  1  0  0  0
  6 93  1  0  0  0
  6 94  1  0  0  0
  7  8  2  0  0  0
  7 26  1  0  0  0
  7 29  1  0  0  0
  8  9  1  0  0  0
  8 22  1  0  0  0
  9 10  1  0  0  0
  9 27  2  0  0  0
 10 11  2  0  0  0
 10 15  1  0  0  0
 11 12  1  0  0  0
 11 95  1  0  0  0
 12 13  2  0  0  0
 12 96  1  0  0  0
 13 14  1  0  0  0
 13 31  1  0  0  0
 14 15  2  0  0  0
 14 97  1  0  0  0
 15 98  1  0  0  0
 16 17  2  0  0  0
 16 21  1  0  0  0
 16 31  1  0  0  0
 17 18  1  0  0  0
 17 99  1  0  0  0
 18 19  2  0  0  0
 18100  1  0  0  0
 19 20  1  0  0  0
 19 24  1  0  0  0
 20 21  2  0  0  0
 20101  1  0  0  0
 21 23  1  0  0  0
 22 28  1  0  0  0
 22 32  2  0  0  0
 26 27  1  0  0  0
 28102  1  0  0  0
 28103  1  0  0  0
 29104  1  0  0  0
 29105  1  0  0  0
 33 34  1  0  0  0
 33 66  1  0  0  0
 33 70  2  0  0  0
 34 36  1  0  0  0
 34 59  1  0  0  0
 34106  1  0  0  0
 35 44  2  0  0  0
 35 45  1  0  0  0
 35 68  1  0  0  0
 36 56  1  0  0  0
 36107  1  0  0  0
 37 39  1  0  0  0
 37 47  1  0  0  0
 37 66  1  0  0  0
 37108  1  0  0  0
 38 43  2  0  0  0
 38 46  1  0  0  0
 38 47  1  0  0  0
 39 64  1  0  0  0
 39 67  2  0  0  0
 40 52  1  0  0  0
 40 53  2  0  0  0
 40 58  1  0  0  0
 41109  1  0  0  0
 41110  1  0  0  0
 41111  1  0  0  0
 41 48  1  0  0  0
 42 43  1  0  0  0
 42 66  1  0  0  0
 42112  1  0  0  0
 42113  1  0  0  0
 43 44  1  0  0  0
 44114  1  0  0  0
 45 46  2  0  0  0
 45115  1  0  0  0
 46116  1  0  0  0
 47117  1  0  0  0
 47118  1  0  0  0
 48 56  1  0  0  0
 48 65  1  0  0  0
 48119  1  0  0  0
 49 50  1  0  0  0
 49 53  1  0  0  0
 49 64  1  0  0  0
 49120  1  0  0  0
 50 51  1  0  0  0
 50121  1  0  0  0
 50122  1  0  0  0
 51 52  1  0  0  0
 51123  1  0  0  0
 51124  1  0  0  0
 52125  1  0  0  0
 52126  1  0  0  0
 53 54  1  0  0  0
 54 55  2  0  0  0
 54127  1  0  0  0
 55 57  1  0  0  0
 55128  1  0  0  0
 56 69  2  0  0  0
 57 58  2  0  0  0
 57129  1  0  0  0
 58130  1  0  0  0
 59 60  1  0  0  0
 59 61  1  0  0  0
 59 62  1  0  0  0
 60131  1  0  0  0
 60132  1  0  0  0
 60133  1  0  0  0
 61134  1  0  0  0
 61135  1  0  0  0
 61136  1  0  0  0
 62137  1  0  0  0
 62138  1  0  0  0
 62139  1  0  0  0
 63 65  1  0  0  0
 63140  1  0  0  0
 63141  1  0  0  0
 63142  1  0  0  0
 64143  1  0  0  0
 65144  1  0  0  0
 68 79  1  0  0  0
 71 72  2  0  0  0
 71 73  1  0  0  0
 71145  1  0  0  0
 72 74  1  0  0  0
 72146  1  0  0  0
 73 75  2  0  0  0
 73147  1  0  0  0
 74 76  1  0  0  0
 74 81  2  0  0  0
 75 81  1  0  0  0
 75 82  1  0  0  0
 76 83  1  0  0  0
 76 84  2  0  0  0
 77 79  1  0  0  0
 77 80  1  0  0  0
 77 85  2  0  0  0
 78148  1  0  0  0
 78149  1  0  0  0
 78150  1  0  0  0
 78 80  1  0  0  0
 79151  1  0  0  0
 79152  1  0  0  0
 80 83  1  0  0  0
 80153  1  0  0  0
 82154  1  0  0  0
 83155  1  0  0  0
 84156  1  0  0  0
 84157  1  0  0  0
M  CHG  1  84   1
M  ISO  4   1 100  68 101  79 101  82 100
M  END
> <chiral flag>
0

> <version>
0

> <s_m_source_file>
/data/baiqing/PycharmProjects/Reinvent-master-3.2/result/LINK_invent/BTK/process_docking_weight1_custom_product_contain_oxygen_bond_distance_aromatic_linkinvent_7_9_3/rearranged_h_0180.sdf

> <i_m_source_file_index>
8

> <r_mmod_Potential_Energy-OPLS-2005>
-375.312591552734

> <r_mmod_Stretch_Energy-OPLS-2005>
61.7537117004395

> <r_mmod_Bend_Energy-OPLS-2005>
138.984283447266

> <r_mmod_Torsional_Energy-OPLS-2005>
282.468597412109

> <r_mmod_Improper_Torsional_Energy-OPLS-2005>
10.717001914978

> <r_mmod_Van_der_Waal_Energy-OPLS-2005>
145.259063720703

> <r_mmod_Electrostatic_Energy-OPLS-2005>
-565.498291015625

> <r_mmod_Solvation_Energy-OPLS-2005>
-480.84228515625

> <b_mmod_Minimization_Converged-OPLS-2005>
0

> <r_mmod_RMS_Derivative-OPLS-2005>
3.4409646987915

$$$$
8
                    3D
 Structure written by MMmdl.
154162  0  0  1  0            999 V2000
  -30.6836  -14.5090   20.5678 C   0  0  0  0  0  0
  -30.4312  -12.3276   19.4277 C   0  0  0  0  0  0
  -29.4994  -12.5111   18.2103 C   0  0  0  0  0  0
  -28.0211  -12.3568   18.6211 C   0  0  0  0  0  0
  -27.6630  -13.2040   19.8703 C   0  0  2  0  0  0
  -28.7031  -12.9936   20.9945 C   0  0  0  0  0  0
  -25.2622  -13.8157   20.5687 C   0  0  0  0  0  0
  -24.1861  -13.0444   20.9172 C   0  0  0  0  0  0
  -24.6399  -11.6907   20.8721 C   0  0  0  0  0  0
  -23.9049  -10.4301   21.0396 C   0  0  0  0  0  0
  -24.3601   -9.4223   21.9190 C   0  0  0  0  0  0
  -23.6288   -8.2257   22.0760 C   0  0  0  0  0  0
  -22.4272   -8.0289   21.3544 C   0  0  0  0  0  0
  -21.9902   -9.0263   20.4653 C   0  0  0  0  0  0
  -22.7220  -10.2150   20.3055 C   0  0  0  0  0  0
  -21.6857   -6.0747   22.5284 C   0  0  0  0  0  0
  -21.4019   -6.5644   23.8214 C   0  0  0  0  0  0
  -21.3656   -5.6780   24.9173 C   0  0  0  0  0  0
  -21.6034   -4.3052   24.7214 C   0  0  0  0  0  0
  -21.8817   -3.8154   23.4331 C   0  0  0  0  0  0
  -21.9205   -4.6974   22.3397 C   0  0  0  0  0  0
  -22.7879  -13.5265   21.1822 C   0  0  0  0  0  0
  -22.1676   -4.2167   21.0971 F   0  0  0  0  0  0
  -21.5624   -3.4525   25.7723 F   0  0  0  0  0  0
  -30.0352  -13.3129   20.4505 N   0  0  0  0  0  0
  -26.3037  -12.9320   20.3324 N   0  0  0  0  0  0
  -25.9323  -11.6481   20.5718 N   0  0  0  0  0  0
  -22.0471  -12.8302   22.0370 N   0  0  0  0  0  0
  -25.4374  -15.1876   20.4158 N   0  0  0  0  0  0
  -31.8101  -14.6917   20.0958 O   0  0  0  0  0  0
  -21.6635   -6.8894   21.4244 O   0  0  0  0  0  0
  -22.3594  -14.5573   20.6653 O   0  0  0  0  0  0
  -24.6165  -31.8671   23.2074 C   0  0  0  0  0  0
  -25.9052  -32.4817   23.8383 C   0  0  1  0  0  0
  -27.2364  -27.4177   20.1055 C   0  0  0  0  0  0
  -25.5912  -33.8618   24.2316 N   0  0  0  0  0  0
  -23.4078  -30.4906   21.5445 C   0  0  2  0  0  0
  -24.8591  -28.9578   20.1081 C   0  0  0  0  0  0
  -22.7422  -29.4657   22.4925 C   0  0  0  0  0  0
  -18.0265  -28.1394   22.8471 C   0  0  0  0  0  0
  -24.1482  -36.7319   23.2634 C   0  0  0  0  0  0
  -25.9381  -30.8320   21.3607 C   0  0  0  0  0  0
  -26.0195  -29.4663   20.7048 C   0  0  0  0  0  0
  -27.2160  -28.7085   20.6915 C   0  0  0  0  0  0
  -26.0625  -26.9368   19.4868 C   0  0  0  0  0  0
  -24.8766  -27.6957   19.4896 C   0  0  0  0  0  0
  -23.6223  -29.8261   20.1581 C   0  0  0  0  0  0
  -25.4097  -36.3104   24.0329 C   0  0  1  0  0  0
  -20.5861  -28.3701   23.1274 C   0  0  2  0  0  0
  -20.6757  -26.9429   22.5400 C   0  0  0  0  0  0
  -19.5746  -26.6396   21.5192 C   0  0  0  0  0  0
  -18.1923  -26.7936   22.1597 C   0  0  0  0  0  0
  -19.1519  -28.8849   23.2880 C   0  0  0  0  0  0
  -18.9453  -30.1441   23.8920 C   0  0  0  0  0  0
  -17.6466  -30.6601   24.0561 C   0  0  0  0  0  0
  -25.9027  -34.9476   23.5110 C   0  0  0  0  0  0
  -16.5348  -29.9117   23.6325 C   0  0  0  0  0  0
  -16.7251  -28.6525   23.0352 C   0  0  0  0  0  0
  -26.4498  -31.6594   25.0712 C   0  0  0  0  0  0
  -25.3784  -31.3719   26.1481 C   0  0  0  0  0  0
  -27.0317  -30.3018   24.6087 C   0  0  0  0  0  0
  -27.6046  -32.4331   25.7510 C   0  0  0  0  0  0
  -27.5572  -37.1815   24.8463 C   0  0  0  0  0  0
  -21.4139  -29.3077   22.3681 N   0  0  0  0  0  0
  -26.4279  -37.3790   23.9415 N   0  0  0  0  0  0
  -24.6720  -31.0778   22.0964 N   0  0  0  0  0  0
  -23.4177  -28.8186   23.2969 O   0  0  0  0  0  0
  -28.3645  -26.6148   20.1700 O   0  0  0  0  0  0
  -26.5587  -34.8938   22.4672 O   0  0  0  0  0  0
  -23.5349  -32.1409   23.7465 O   0  0  0  0  0  0
  -29.9176  -19.4080   21.3123 C   0  0  0  0  0  0
  -30.8074  -18.9764   20.3433 C   0  0  0  0  0  0
  -30.1072  -16.9193   21.0830 C   0  0  0  0  0  0
  -29.5581  -20.7395   21.9198 C   0  0  0  0  0  0
  -29.5696  -23.1594   21.6179 C   0  0  0  0  0  0
  -27.9547  -25.7154   22.3809 C   0  0  0  0  0  0
  -29.3893  -24.3554   20.6297 C   0  0  0  0  0  0
  -28.1971  -25.3569   20.8922 C   0  0  2  0  0  0
  -30.8818  -17.5783   20.2108 N   0  0  0  0  0  0
  -31.6206  -19.7573   19.5188 N   0  0  0  0  0  0
  -29.9707  -15.4930   21.1624 N   0  0  0  0  0  0
  -29.6110  -21.8737   21.1636 N   0  0  0  0  0  0
  -29.1969  -20.7412   23.1048 O   0  0  0  0  0  0
  -29.7520  -23.4396   22.8082 O   0  0  0  0  0  0
  -29.1798  -18.0136   22.1036 S   0  0  0  0  0  0
  -31.4746  -12.4396   19.1252 H   0  0  0  0  0  0
  -30.3510  -11.3156   19.8273 H   0  0  0  0  0  0
  -29.7487  -11.7875   17.4328 H   0  0  0  0  0  0
  -29.6554  -13.4988   17.7738 H   0  0  0  0  0  0
  -27.8418  -11.3011   18.8290 H   0  0  0  0  0  0
  -27.3681  -12.6228   17.7872 H   0  0  0  0  0  0
  -27.7080  -14.2491   19.5643 H   0  0  0  0  0  0
  -28.6863  -11.9575   21.3334 H   0  0  0  0  0  0
  -28.4508  -13.5882   21.8740 H   0  0  0  0  0  0
  -25.2738   -9.5720   22.4773 H   0  0  0  0  0  0
  -24.0009   -7.4640   22.7474 H   0  0  0  0  0  0
  -21.0839   -8.8774   19.8942 H   0  0  0  0  0  0
  -22.3675  -10.9695   19.6168 H   0  0  0  0  0  0
  -21.2003   -7.6149   23.9737 H   0  0  0  0  0  0
  -21.1480   -6.0503   25.9077 H   0  0  0  0  0  0
  -22.0605   -2.7624   23.2818 H   0  0  0  0  0  0
  -22.4043  -11.9968   22.4797 H   0  0  0  0  0  0
  -21.1083  -13.1391   22.2492 H   0  0  0  0  0  0
  -24.6682  -15.8412   20.5184 H   0  0  0  0  0  0
  -26.2895  -15.6268   20.0898 H   0  0  0  0  0  0
  -26.7126  -32.5534   23.1153 H   0  0  0  0  0  0
  -25.0116  -33.9782   25.0495 H   0  0  0  0  0  0
  -22.6943  -31.3052   21.4019 H   0  0  0  0  0  0
  -23.3733  -35.9666   23.3309 H   0  0  0  0  0  0
  -24.3571  -36.8930   22.2047 H   0  0  0  0  0  0
  -23.7260  -37.6533   23.6649 H   0  0  0  0  0  0
  -26.0475  -31.5963   20.5907 H   0  0  0  0  0  0
  -26.8261  -30.8876   21.9793 H   0  0  0  0  0  0
  -28.1113  -29.0924   21.1604 H   0  0  0  0  0  0
  -26.0582  -25.9671   19.0099 H   0  0  0  0  0  0
  -23.9871  -27.2979   19.0219 H   0  0  0  0  0  0
  -23.7406  -30.6050   19.4044 H   0  0  0  0  0  0
  -22.7468  -29.2515   19.8514 H   0  0  0  0  0  0
  -25.1274  -36.1965   25.0820 H   0  0  0  0  0  0
  -20.9944  -28.3306   24.1392 H   0  0  0  0  0  0
  -20.5646  -26.2322   23.3602 H   0  0  0  0  0  0
  -21.6631  -26.7470   22.1204 H   0  0  0  0  0  0
  -19.6923  -25.6307   21.1227 H   0  0  0  0  0  0
  -19.6699  -27.3185   20.6708 H   0  0  0  0  0  0
  -17.4186  -26.6658   21.4006 H   0  0  0  0  0  0
  -18.0351  -26.0074   22.8992 H   0  0  0  0  0  0
  -19.7936  -30.7225   24.2324 H   0  0  0  0  0  0
  -17.5039  -31.6279   24.5164 H   0  0  0  0  0  0
  -15.5356  -30.3047   23.7632 H   0  0  0  0  0  0
  -15.8637  -28.0853   22.7088 H   0  0  0  0  0  0
  -24.5948  -30.7060   25.7861 H   0  0  0  0  0  0
  -24.8996  -32.2881   26.4932 H   0  0  0  0  0  0
  -25.8164  -30.8914   27.0235 H   0  0  0  0  0  0
  -26.2844  -29.6793   24.1144 H   0  0  0  0  0  0
  -27.4074  -29.7246   25.4550 H   0  0  0  0  0  0
  -27.8696  -30.4310   23.9233 H   0  0  0  0  0  0
  -27.2617  -33.3609   26.2104 H   0  0  0  0  0  0
  -28.3872  -32.6931   25.0375 H   0  0  0  0  0  0
  -28.0696  -31.8455   26.5438 H   0  0  0  0  0  0
  -28.2585  -38.0115   24.7490 H   0  0  0  0  0  0
  -28.1065  -36.2639   24.6288 H   0  0  0  0  0  0
  -27.2295  -37.1472   25.8870 H   0  0  0  0  0  0
  -20.9286  -29.8842   21.6948 H   0  0  0  0  0  0
  -26.0163  -38.2863   24.1433 H   0  0  0  0  0  0
  -27.6712  -24.8413   22.9674 H   0  0  0  0  0  0
  -27.1393  -26.4253   22.5187 H   0  0  0  0  0  0
  -28.8469  -26.1501   22.8336 H   0  0  0  0  0  0
  -29.3305  -23.9794   19.6081 H   0  0  0  0  0  0
  -30.3161  -24.9275   20.6781 H   0  0  0  0  0  0
  -27.3024  -24.8497   20.5285 H   0  0  0  0  0  0
  -31.8997  -20.6818   19.8293 H   0  0  0  0  0  0
  -32.3509  -19.2803   19.0001 H   0  0  0  0  0  0
  -29.1384  -15.1786   21.6328 H   0  0  0  0  0  0
  -29.6980  -21.7390   20.1680 H   0  0  0  0  0  0
  1 25  1  0  0  0
  1 30  2  0  0  0
  1 81  1  0  0  0
  2  3  1  0  0  0
  2 25  1  0  0  0
  2 86  1  0  0  0
  2 87  1  0  0  0
  3  4  1  0  0  0
  3 88  1  0  0  0
  3 89  1  0  0  0
  4  5  1  0  0  0
  4 90  1  0  0  0
  4 91  1  0  0  0
  5  6  1  0  0  0
  5 26  1  0  0  0
  5 92  1  0  0  0
  6 25  1  0  0  0
  6 93  1  0  0  0
  6 94  1  0  0  0
  7  8  2  0  0  0
  7 26  1  0  0  0
  7 29  1  0  0  0
  8  9  1  0  0  0
  8 22  1  0  0  0
  9 10  1  0  0  0
  9 27  2  0  0  0
 10 11  2  0  0  0
 10 15  1  0  0  0
 11 12  1  0  0  0
 11 95  1  0  0  0
 12 13  2  0  0  0
 12 96  1  0  0  0
 13 14  1  0  0  0
 13 31  1  0  0  0
 14 15  2  0  0  0
 14 97  1  0  0  0
 15 98  1  0  0  0
 16 17  2  0  0  0
 16 21  1  0  0  0
 16 31  1  0  0  0
 17 18  1  0  0  0
 17 99  1  0  0  0
 18 19  2  0  0  0
 18100  1  0  0  0
 19 20  1  0  0  0
 19 24  1  0  0  0
 20 21  2  0  0  0
 20101  1  0  0  0
 21 23  1  0  0  0
 22 28  1  0  0  0
 22 32  2  0  0  0
 26 27  1  0  0  0
 28102  1  0  0  0
 28103  1  0  0  0
 29104  1  0  0  0
 29105  1  0  0  0
 33 34  1  0  0  0
 33 66  1  0  0  0
 33 70  2  0  0  0
 34 36  1  0  0  0
 34 59  1  0  0  0
 34106  1  0  0  0
 35 44  2  0  0  0
 35 45  1  0  0  0
 35 68  1  0  0  0
 36 56  1  0  0  0
 36107  1  0  0  0
 37 39  1  0  0  0
 37 47  1  0  0  0
 37 66  1  0  0  0
 37108  1  0  0  0
 38 43  2  0  0  0
 38 46  1  0  0  0
 38 47  1  0  0  0
 39 64  1  0  0  0
 39 67  2  0  0  0
 40 52  1  0  0  0
 40 53  2  0  0  0
 40 58  1  0  0  0
 41109  1  0  0  0
 41110  1  0  0  0
 41111  1  0  0  0
 41 48  1  0  0  0
 42 43  1  0  0  0
 42 66  1  0  0  0
 42112  1  0  0  0
 42113  1  0  0  0
 43 44  1  0  0  0
 44114  1  0  0  0
 45 46  2  0  0  0
 45115  1  0  0  0
 46116  1  0  0  0
 47117  1  0  0  0
 47118  1  0  0  0
 48 56  1  0  0  0
 48 65  1  0  0  0
 48119  1  0  0  0
 49 50  1  0  0  0
 49 53  1  0  0  0
 49 64  1  0  0  0
 49120  1  0  0  0
 50 51  1  0  0  0
 50121  1  0  0  0
 50122  1  0  0  0
 51 52  1  0  0  0
 51123  1  0  0  0
 51124  1  0  0  0
 52125  1  0  0  0
 52126  1  0  0  0
 53 54  1  0  0  0
 54 55  2  0  0  0
 54127  1  0  0  0
 55 57  1  0  0  0
 55128  1  0  0  0
 56 69  2  0  0  0
 57 58  2  0  0  0
 57129  1  0  0  0
 58130  1  0  0  0
 59 60  1  0  0  0
 59 61  1  0  0  0
 59 62  1  0  0  0
 60131  1  0  0  0
 60132  1  0  0  0
 60133  1  0  0  0
 61134  1  0  0  0
 61135  1  0  0  0
 61136  1  0  0  0
 62137  1  0  0  0
 62138  1  0  0  0
 62139  1  0  0  0
 63 65  1  0  0  0
 63140  1  0  0  0
 63141  1  0  0  0
 63142  1  0  0  0
 64143  1  0  0  0
 65144  1  0  0  0
 68 78  1  0  0  0
 71 72  2  0  0  0
 71 74  1  0  0  0
 71 85  1  0  0  0
 72 79  1  0  0  0
 72 80  1  0  0  0
 73 79  2  0  0  0
 73 81  1  0  0  0
 73 85  1  0  0  0
 74 82  1  0  0  0
 74 83  2  0  0  0
 75 77  1  0  0  0
 75 82  1  0  0  0
 75 84  2  0  0  0
 76145  1  0  0  0
 76146  1  0  0  0
 76147  1  0  0  0
 76 78  1  0  0  0
 77 78  1  0  0  0
 77148  1  0  0  0
 77149  1  0  0  0
 78150  1  0  0  0
 80151  1  0  0  0
 80152  1  0  0  0
 81153  1  0  0  0
 82154  1  0  0  0
M  ISO  4   1 100  68 101  78 101  81 100
M  END
> <chiral flag>
0

> <version>
0

> <s_m_source_file>
/data/baiqing/PycharmProjects/Reinvent-master-3.2/result/LINK_invent/BTK/process_docking_weight1_custom_product_contain_oxygen_bond_distance_aromatic_linkinvent_7_9_3/rearranged_h_0180.sdf

> <i_m_source_file_index>
9

> <r_mmod_Potential_Energy-OPLS-2005>
-181.942718505859

> <r_mmod_Stretch_Energy-OPLS-2005>
50.2796478271484

> <r_mmod_Bend_Energy-OPLS-2005>
116.742950439453

> <r_mmod_Torsional_Energy-OPLS-2005>
237.824035644531

> <r_mmod_Improper_Torsional_Energy-OPLS-2005>
6.90831279754639

> <r_mmod_Van_der_Waal_Energy-OPLS-2005>
142.44660949707

> <r_mmod_Electrostatic_Energy-OPLS-2005>
-468.167907714844

> <r_mmod_Solvation_Energy-OPLS-2005>
-286.313201904297

> <b_mmod_Minimization_Converged-OPLS-2005>
0

> <r_mmod_RMS_Derivative-OPLS-2005>
2.51955127716064

$$$$
9
                    3D
 Structure written by MMmdl.
156164  0  0  1  0            999 V2000
  -30.6573  -14.5773   20.4728 C   0  0  0  0  0  0
  -30.4336  -12.3373   19.4618 C   0  0  0  0  0  0
  -29.5119  -12.4463   18.2271 C   0  0  0  0  0  0
  -28.0270  -12.3359   18.6301 C   0  0  0  0  0  0
  -27.6546  -13.2104   19.8581 C   0  0  2  0  0  0
  -28.6959  -13.0651   20.9914 C   0  0  0  0  0  0
  -25.2584  -13.8172   20.5681 C   0  0  0  0  0  0
  -24.1837  -13.0448   20.9185 C   0  0  0  0  0  0
  -24.6385  -11.6915   20.8725 C   0  0  0  0  0  0
  -23.9053  -10.4306   21.0402 C   0  0  0  0  0  0
  -24.3612   -9.4223   21.9177 C   0  0  0  0  0  0
  -23.6301   -8.2254   22.0752 C   0  0  0  0  0  0
  -22.4281   -8.0285   21.3545 C   0  0  0  0  0  0
  -21.9905   -9.0254   20.4648 C   0  0  0  0  0  0
  -22.7223  -10.2140   20.3054 C   0  0  0  0  0  0
  -21.6855   -6.0737   22.5279 C   0  0  0  0  0  0
  -21.4020   -6.5639   23.8214 C   0  0  0  0  0  0
  -21.3669   -5.6793   24.9171 C   0  0  0  0  0  0
  -21.6045   -4.3055   24.7220 C   0  0  0  0  0  0
  -21.8826   -3.8145   23.4342 C   0  0  0  0  0  0
  -21.9202   -4.6967   22.3399 C   0  0  0  0  0  0
  -22.7861  -13.5249   21.1850 C   0  0  0  0  0  0
  -22.1666   -4.2159   21.0978 F   0  0  0  0  0  0
  -21.5632   -3.4536   25.7728 F   0  0  0  0  0  0
  -30.0207  -13.3693   20.4310 N   0  0  0  0  0  0
  -26.2995  -12.9339   20.3286 N   0  0  0  0  0  0
  -25.9312  -11.6506   20.5738 N   0  0  0  0  0  0
  -22.0495  -12.8237   22.0396 N   0  0  0  0  0  0
  -25.4320  -15.1896   20.4132 N   0  0  0  0  0  0
  -31.8294  -14.7074   20.1055 O   0  0  0  0  0  0
  -21.6648   -6.8876   21.4237 O   0  0  0  0  0  0
  -22.3547  -14.5556   20.6705 O   0  0  0  0  0  0
  -24.6194  -31.8660   23.2092 C   0  0  0  0  0  0
  -25.9065  -32.4820   23.8385 C   0  0  1  0  0  0
  -27.2195  -27.3791   20.1111 C   0  0  0  0  0  0
  -25.5913  -33.8616   24.2315 N   0  0  0  0  0  0
  -23.4093  -30.4914   21.5505 C   0  0  2  0  0  0
  -24.8554  -28.9606   20.1059 C   0  0  0  0  0  0
  -22.7438  -29.4650   22.4971 C   0  0  0  0  0  0
  -18.0279  -28.1374   22.8490 C   0  0  0  0  0  0
  -24.1488  -36.7305   23.2630 C   0  0  0  0  0  0
  -25.9450  -30.8152   21.3726 C   0  0  0  0  0  0
  -26.0203  -29.4494   20.7119 C   0  0  0  0  0  0
  -27.2064  -28.6685   20.7092 C   0  0  0  0  0  0
  -26.0429  -26.9405   19.4602 C   0  0  0  0  0  0
  -24.8664  -27.7099   19.4709 C   0  0  0  0  0  0
  -23.6185  -29.8301   20.1631 C   0  0  0  0  0  0
  -25.4108  -36.3105   24.0335 C   0  0  1  0  0  0
  -20.5874  -28.3672   23.1303 C   0  0  2  0  0  0
  -20.6779  -26.9404   22.5411 C   0  0  0  0  0  0
  -19.5755  -26.6383   21.5213 C   0  0  0  0  0  0
  -18.1931  -26.7924   22.1617 C   0  0  0  0  0  0
  -19.1536  -28.8841   23.2890 C   0  0  0  0  0  0
  -18.9453  -30.1443   23.8904 C   0  0  0  0  0  0
  -17.6457  -30.6584   24.0561 C   0  0  0  0  0  0
  -25.9047  -34.9476   23.5121 C   0  0  0  0  0  0
  -16.5346  -29.9083   23.6329 C   0  0  0  0  0  0
  -16.7272  -28.6493   23.0357 C   0  0  0  0  0  0
  -26.4474  -31.6608   25.0724 C   0  0  0  0  0  0
  -25.3726  -31.3727   26.1462 C   0  0  0  0  0  0
  -27.0305  -30.3040   24.6130 C   0  0  0  0  0  0
  -27.6053  -32.4327   25.7479 C   0  0  0  0  0  0
  -27.5600  -37.1785   24.8447 C   0  0  0  0  0  0
  -21.4158  -29.3041   22.3703 N   0  0  0  0  0  0
  -26.4288  -37.3804   23.9430 N   0  0  0  0  0  0
  -24.6766  -31.0716   22.1019 N   0  0  0  0  0  0
  -23.4193  -28.8191   23.3026 O   0  0  0  0  0  0
  -28.3305  -26.5411   20.1983 O   0  0  0  0  0  0
  -26.5608  -34.8937   22.4685 O   0  0  0  0  0  0
  -23.5370  -32.1434   23.7456 O   0  0  0  0  0  0
  -29.1667  -17.4618   17.5643 C   0  0  0  0  0  0
  -29.3685  -16.4614   18.5204 C   0  0  0  0  0  0
  -29.3029  -18.7968   17.9536 C   0  0  0  0  0  0
  -29.7190  -16.7905   19.8476 C   0  0  0  0  0  0
  -29.5970  -19.1092   19.2949 C   0  0  0  0  0  0
  -29.2824  -21.4495   20.2994 C   0  0  0  0  0  0
  -27.5096  -25.1924   22.0671 C   0  0  0  0  0  0
  -29.0576  -22.8689   19.6864 C   0  0  0  0  0  0
  -29.2705  -24.1602   20.5591 C   0  0  0  0  0  0
  -28.0607  -25.1630   20.6279 C   0  0  1  0  0  0
  -29.7936  -18.1147   20.2312 N   0  0  0  0  0  0
  -29.7256  -20.5306   19.4169 N   0  0  0  0  0  0
  -29.8816  -15.6660   20.7369 N   0  0  0  0  0  0
  -29.0751  -21.2272   21.4944 O   0  0  0  0  0  0
  -29.1428  -19.7859   17.0373 F   0  0  0  0  0  0
  -31.4776  -12.4427   19.1593 H   0  0  0  0  0  0
  -30.3578  -11.3480   19.9152 H   0  0  0  0  0  0
  -29.7564  -11.6560   17.5158 H   0  0  0  0  0  0
  -29.6970  -13.3800   17.6995 H   0  0  0  0  0  0
  -27.8332  -11.2865   18.8553 H   0  0  0  0  0  0
  -27.3880  -12.5852   17.7834 H   0  0  0  0  0  0
  -27.6713  -14.2434   19.5144 H   0  0  0  0  0  0
  -28.6851  -12.0503   21.3943 H   0  0  0  0  0  0
  -28.4541  -13.7237   21.8278 H   0  0  0  0  0  0
  -25.2762   -9.5716   22.4734 H   0  0  0  0  0  0
  -24.0034   -7.4649   22.7458 H   0  0  0  0  0  0
  -21.0846   -8.8763   19.8941 H   0  0  0  0  0  0
  -22.3682  -10.9675   19.6161 H   0  0  0  0  0  0
  -21.2006   -7.6147   23.9722 H   0  0  0  0  0  0
  -21.1482   -6.0514   25.9079 H   0  0  0  0  0  0
  -22.0595   -2.7610   23.2832 H   0  0  0  0  0  0
  -22.4116  -11.9918   22.4811 H   0  0  0  0  0  0
  -21.1100  -13.1257   22.2568 H   0  0  0  0  0  0
  -24.6679  -15.8447   20.5348 H   0  0  0  0  0  0
  -26.2824  -15.6323   20.0910 H   0  0  0  0  0  0
  -26.7134  -32.5508   23.1142 H   0  0  0  0  0  0
  -25.0080  -33.9778   25.0468 H   0  0  0  0  0  0
  -22.6993  -31.3102   21.4131 H   0  0  0  0  0  0
  -23.3779  -35.9607   23.3248 H   0  0  0  0  0  0
  -24.3604  -36.8967   22.2056 H   0  0  0  0  0  0
  -23.7205  -37.6480   23.6675 H   0  0  0  0  0  0
  -26.0696  -31.5835   20.6079 H   0  0  0  0  0  0
  -26.8286  -30.8621   21.9978 H   0  0  0  0  0  0
  -28.0968  -29.0317   21.2036 H   0  0  0  0  0  0
  -26.0095  -25.9953   18.9406 H   0  0  0  0  0  0
  -23.9763  -27.3369   18.9844 H   0  0  0  0  0  0
  -23.7245  -30.6085   19.4067 H   0  0  0  0  0  0
  -22.7408  -29.2518   19.8672 H   0  0  0  0  0  0
  -25.1276  -36.1961   25.0827 H   0  0  0  0  0  0
  -20.9961  -28.3240   24.1423 H   0  0  0  0  0  0
  -20.5693  -26.2275   23.3599 H   0  0  0  0  0  0
  -21.6645  -26.7458   22.1192 H   0  0  0  0  0  0
  -19.6924  -25.6294   21.1237 H   0  0  0  0  0  0
  -19.6697  -27.3196   20.6741 H   0  0  0  0  0  0
  -17.4203  -26.6674   21.4015 H   0  0  0  0  0  0
  -18.0329  -26.0062   22.9006 H   0  0  0  0  0  0
  -19.7929  -30.7260   24.2276 H   0  0  0  0  0  0
  -17.5011  -31.6272   24.5148 H   0  0  0  0  0  0
  -15.5347  -30.2988   23.7653 H   0  0  0  0  0  0
  -15.8665  -28.0816   22.7079 H   0  0  0  0  0  0
  -24.5899  -30.7078   25.7792 H   0  0  0  0  0  0
  -24.8913  -32.2883   26.4901 H   0  0  0  0  0  0
  -25.8064  -30.8895   27.0224 H   0  0  0  0  0  0
  -26.2856  -29.6800   24.1177 H   0  0  0  0  0  0
  -27.4051  -29.7280   25.4598 H   0  0  0  0  0  0
  -27.8701  -30.4341   23.9303 H   0  0  0  0  0  0
  -27.2685  -33.3628   26.2060 H   0  0  0  0  0  0
  -28.3850  -32.6886   25.0297 H   0  0  0  0  0  0
  -28.0730  -31.8452   26.5382 H   0  0  0  0  0  0
  -28.2548  -38.0154   24.7621 H   0  0  0  0  0  0
  -28.1170  -36.2699   24.6106 H   0  0  0  0  0  0
  -27.2341  -37.1228   25.8848 H   0  0  0  0  0  0
  -20.9323  -29.8753   21.6914 H   0  0  0  0  0  0
  -26.0171  -38.2863   24.1511 H   0  0  0  0  0  0
  -28.9200  -17.2090   16.5432 H   0  0  0  0  0  0
  -29.2569  -15.4382   18.2035 H   0  0  0  0  0  0
  -28.2294  -25.6426   22.7513 H   0  0  0  0  0  0
  -26.5810  -25.7582   22.1439 H   0  0  0  0  0  0
  -27.2945  -24.1850   22.4235 H   0  0  0  0  0  0
  -28.0422  -22.8491   19.2927 H   0  0  0  0  0  0
  -29.6894  -22.9668   18.8022 H   0  0  0  0  0  0
  -30.1397  -24.6954   20.1775 H   0  0  0  0  0  0
  -29.5625  -23.8641   21.5676 H   0  0  0  0  0  0
  -27.2835  -24.7410   19.9973 H   0  0  0  0  0  0
  -29.8531  -20.9363   18.5001 H   0  0  0  0  0  0
  -29.0455  -15.4422   21.2516 H   0  0  0  0  0  0
  1 25  1  0  0  0
  1 30  2  0  0  0
  1 83  1  0  0  0
  2  3  1  0  0  0
  2 25  1  0  0  0
  2 86  1  0  0  0
  2 87  1  0  0  0
  3  4  1  0  0  0
  3 88  1  0  0  0
  3 89  1  0  0  0
  4  5  1  0  0  0
  4 90  1  0  0  0
  4 91  1  0  0  0
  5  6  1  0  0  0
  5 26  1  0  0  0
  5 92  1  0  0  0
  6 25  1  0  0  0
  6 93  1  0  0  0
  6 94  1  0  0  0
  7  8  2  0  0  0
  7 26  1  0  0  0
  7 29  1  0  0  0
  8  9  1  0  0  0
  8 22  1  0  0  0
  9 10  1  0  0  0
  9 27  2  0  0  0
 10 11  2  0  0  0
 10 15  1  0  0  0
 11 12  1  0  0  0
 11 95  1  0  0  0
 12 13  2  0  0  0
 12 96  1  0  0  0
 13 14  1  0  0  0
 13 31  1  0  0  0
 14 15  2  0  0  0
 14 97  1  0  0  0
 15 98  1  0  0  0
 16 17  2  0  0  0
 16 21  1  0  0  0
 16 31  1  0  0  0
 17 18  1  0  0  0
 17 99  1  0  0  0
 18 19  2  0  0  0
 18100  1  0  0  0
 19 20  1  0  0  0
 19 24  1  0  0  0
 20 21  2  0  0  0
 20101  1  0  0  0
 21 23  1  0  0  0
 22 28  1  0  0  0
 22 32  2  0  0  0
 26 27  1  0  0  0
 28102  1  0  0  0
 28103  1  0  0  0
 29104  1  0  0  0
 29105  1  0  0  0
 33 34  1  0  0  0
 33 66  1  0  0  0
 33 70  2  0  0  0
 34 36  1  0  0  0
 34 59  1  0  0  0
 34106  1  0  0  0
 35 44  2  0  0  0
 35 45  1  0  0  0
 35 68  1  0  0  0
 36 56  1  0  0  0
 36107  1  0  0  0
 37 39  1  0  0  0
 37 47  1  0  0  0
 37 66  1  0  0  0
 37108  1  0  0  0
 38 43  2  0  0  0
 38 46  1  0  0  0
 38 47  1  0  0  0
 39 64  1  0  0  0
 39 67  2  0  0  0
 40 52  1  0  0  0
 40 53  2  0  0  0
 40 58  1  0  0  0
 41109  1  0  0  0
 41110  1  0  0  0
 41111  1  0  0  0
 41 48  1  0  0  0
 42 43  1  0  0  0
 42 66  1  0  0  0
 42112  1  0  0  0
 42113  1  0  0  0
 43 44  1  0  0  0
 44114  1  0  0  0
 45 46  2  0  0  0
 45115  1  0  0  0
 46116  1  0  0  0
 47117  1  0  0  0
 47118  1  0  0  0
 48 56  1  0  0  0
 48 65  1  0  0  0
 48119  1  0  0  0
 49 50  1  0  0  0
 49 53  1  0  0  0
 49 64  1  0  0  0
 49120  1  0  0  0
 50 51  1  0  0  0
 50121  1  0  0  0
 50122  1  0  0  0
 51 52  1  0  0  0
 51123  1  0  0  0
 51124  1  0  0  0
 52125  1  0  0  0
 52126  1  0  0  0
 53 54  1  0  0  0
 54 55  2  0  0  0
 54127  1  0  0  0
 55 57  1  0  0  0
 55128  1  0  0  0
 56 69  2  0  0  0
 57 58  2  0  0  0
 57129  1  0  0  0
 58130  1  0  0  0
 59 60  1  0  0  0
 59 61  1  0  0  0
 59 62  1  0  0  0
 60131  1  0  0  0
 60132  1  0  0  0
 60133  1  0  0  0
 61134  1  0  0  0
 61135  1  0  0  0
 61136  1  0  0  0
 62137  1  0  0  0
 62138  1  0  0  0
 62139  1  0  0  0
 63 65  1  0  0  0
 63140  1  0  0  0
 63141  1  0  0  0
 63142  1  0  0  0
 64143  1  0  0  0
 65144  1  0  0  0
 68 80  1  0  0  0
 71 72  2  0  0  0
 71 73  1  0  0  0
 71145  1  0  0  0
 72 74  1  0  0  0
 72146  1  0  0  0
 73 75  2  0  0  0
 73 85  1  0  0  0
 74 81  2  0  0  0
 74 83  1  0  0  0
 75 81  1  0  0  0
 75 82  1  0  0  0
 76 78  1  0  0  0
 76 82  1  0  0  0
 76 84  2  0  0  0
 77147  1  0  0  0
 77148  1  0  0  0
 77149  1  0  0  0
 77 80  1  0  0  0
 78 79  1  0  0  0
 78150  1  0  0  0
 78151  1  0  0  0
 79 80  1  0  0  0
 79152  1  0  0  0
 79153  1  0  0  0
 80154  1  0  0  0
 82155  1  0  0  0
 83156  1  0  0  0
M  ISO  4   1 100  68 101  80 101  83 100
M  END
> <chiral flag>
0

> <version>
0

> <s_m_source_file>
/data/baiqing/PycharmProjects/Reinvent-master-3.2/result/LINK_invent/BTK/process_docking_weight1_custom_product_contain_oxygen_bond_distance_aromatic_linkinvent_7_9_3/rearranged_h_0180.sdf

> <i_m_source_file_index>
10

> <r_mmod_Potential_Energy-OPLS-2005>
-112.544486999512

> <r_mmod_Stretch_Energy-OPLS-2005>
57.1329078674316

> <r_mmod_Bend_Energy-OPLS-2005>
143.206420898438

> <r_mmod_Torsional_Energy-OPLS-2005>
296.316436767578

> <r_mmod_Improper_Torsional_Energy-OPLS-2005>
9.72438049316406

> <r_mmod_Van_der_Waal_Energy-OPLS-2005>
153.589309692383

> <r_mmod_Electrostatic_Energy-OPLS-2005>
-561.015625

> <r_mmod_Solvation_Energy-OPLS-2005>
-246.533340454102

> <b_mmod_Minimization_Converged-OPLS-2005>
0

> <r_mmod_RMS_Derivative-OPLS-2005>
1.88990187644958

$$$$
10
                    3D
 Structure written by MMmdl.
151159  0  0  1  0            999 V2000
  -30.7155  -14.3900   20.5985 C   0  0  0  0  0  0
  -30.4092  -12.2562   19.4144 C   0  0  0  0  0  0
  -29.4882  -12.5123   18.2034 C   0  0  0  0  0  0
  -28.0059  -12.3837   18.6092 C   0  0  0  0  0  0
  -27.6653  -13.2005   19.8836 C   0  0  2  0  0  0
  -28.7005  -12.9282   20.9991 C   0  0  0  0  0  0
  -25.2592  -13.8159   20.5664 C   0  0  0  0  0  0
  -24.1848  -13.0422   20.9144 C   0  0  0  0  0  0
  -24.6422  -11.6897   20.8742 C   0  0  0  0  0  0
  -23.9097  -10.4285   21.0412 C   0  0  0  0  0  0
  -24.3649   -9.4193   21.9181 C   0  0  0  0  0  0
  -23.6312   -8.2232   22.0760 C   0  0  0  0  0  0
  -22.4286   -8.0289   21.3549 C   0  0  0  0  0  0
  -21.9924   -9.0273   20.4652 C   0  0  0  0  0  0
  -22.7277  -10.2143   20.3049 C   0  0  0  0  0  0
  -21.6850   -6.0753   22.5290 C   0  0  0  0  0  0
  -21.4027   -6.5652   23.8240 C   0  0  0  0  0  0
  -21.3660   -5.6800   24.9192 C   0  0  0  0  0  0
  -21.6033   -4.3063   24.7238 C   0  0  0  0  0  0
  -21.8806   -3.8161   23.4355 C   0  0  0  0  0  0
  -21.9188   -4.6975   22.3420 C   0  0  0  0  0  0
  -22.7878  -13.5214   21.1849 C   0  0  0  0  0  0
  -22.1639   -4.2171   21.0995 F   0  0  0  0  0  0
  -21.5620   -3.4546   25.7747 F   0  0  0  0  0  0
  -30.0428  -13.2188   20.4611 N   0  0  0  0  0  0
  -26.3034  -12.9331   20.3374 N   0  0  0  0  0  0
  -25.9340  -11.6497   20.5775 N   0  0  0  0  0  0
  -22.0536  -12.8202   22.0413 N   0  0  0  0  0  0
  -25.4279  -15.1886   20.4115 N   0  0  0  0  0  0
  -31.8029  -14.6133   20.0548 O   0  0  0  0  0  0
  -21.6618   -6.8903   21.4262 O   0  0  0  0  0  0
  -22.3556  -14.5535   20.6734 O   0  0  0  0  0  0
  -24.6075  -31.8713   23.2106 C   0  0  0  0  0  0
  -25.8992  -32.4820   23.8375 C   0  0  1  0  0  0
  -27.2402  -27.4719   20.0830 C   0  0  0  0  0  0
  -25.5883  -33.8614   24.2320 N   0  0  0  0  0  0
  -23.3926  -30.4940   21.5513 C   0  0  2  0  0  0
  -24.8374  -28.9554   20.1228 C   0  0  0  0  0  0
  -22.7334  -29.4688   22.5000 C   0  0  0  0  0  0
  -18.0242  -28.1368   22.8479 C   0  0  0  0  0  0
  -24.1507  -36.7317   23.2637 C   0  0  0  0  0  0
  -25.9172  -30.8450   21.3590 C   0  0  0  0  0  0
  -25.9944  -29.4798   20.7093 C   0  0  0  0  0  0
  -27.1978  -28.7477   20.6825 C   0  0  0  0  0  0
  -26.0652  -26.9474   19.4974 C   0  0  0  0  0  0
  -24.8655  -27.6861   19.5171 C   0  0  0  0  0  0
  -23.5973  -29.8168   20.1689 C   0  0  0  0  0  0
  -25.4128  -36.3109   24.0336 C   0  0  1  0  0  0
  -20.5820  -28.3671   23.1312 C   0  0  2  0  0  0
  -20.6746  -26.9417   22.5407 C   0  0  0  0  0  0
  -19.5726  -26.6360   21.5206 C   0  0  0  0  0  0
  -18.1910  -26.7897   22.1638 C   0  0  0  0  0  0
  -19.1481  -28.8835   23.2894 C   0  0  0  0  0  0
  -18.9405  -30.1441   23.8910 C   0  0  0  0  0  0
  -17.6408  -30.6573   24.0558 C   0  0  0  0  0  0
  -25.9042  -34.9465   23.5127 C   0  0  0  0  0  0
  -16.5311  -29.9080   23.6296 C   0  0  0  0  0  0
  -16.7233  -28.6489   23.0329 C   0  0  0  0  0  0
  -26.4428  -31.6559   25.0668 C   0  0  0  0  0  0
  -25.3722  -31.3685   26.1450 C   0  0  0  0  0  0
  -27.0218  -30.2992   24.6007 C   0  0  0  0  0  0
  -27.6031  -32.4247   25.7412 C   0  0  0  0  0  0
  -27.5591  -37.1810   24.8471 C   0  0  0  0  0  0
  -21.4073  -29.3049   22.3725 N   0  0  0  0  0  0
  -26.4308  -37.3793   23.9409 N   0  0  0  0  0  0
  -24.6576  -31.0840   22.0996 N   0  0  0  0  0  0
  -23.4121  -28.8233   23.3034 O   0  0  0  0  0  0
  -28.4518  -26.8256   20.0460 O   0  0  0  0  0  0
  -26.5607  -34.8919   22.4693 O   0  0  0  0  0  0
  -23.5284  -32.1451   23.7515 O   0  0  0  0  0  0
  -29.7102  -19.1305   21.3333 C   0  0  0  0  0  0
  -30.1874  -18.6863   20.1195 C   0  0  0  0  0  0
  -30.0870  -16.6995   21.1911 C   0  0  0  0  0  0
  -29.8990  -21.6818   21.0248 C   0  0  0  0  0  0
  -28.5508  -23.4199   21.8409 C   0  0  0  0  0  0
  -29.2977  -20.5014   21.7883 C   0  0  0  0  0  0
  -28.4880  -25.4039   20.1543 C   0  0  0  0  0  0
  -28.2573  -24.9211   21.6119 C   0  0  0  0  0  0
  -30.4022  -17.3095   20.0429 N   0  0  0  0  0  0
  -29.5710  -22.9193   21.0349 N   0  0  0  0  0  0
  -30.0966  -15.2962   21.3644 N   0  0  0  0  0  0
  -27.9035  -22.8215   22.7051 O   0  0  0  0  0  0
  -30.3962  -19.4635   19.0830 F   0  0  0  0  0  0
  -29.0501  -25.6168   22.4297 F   0  0  0  0  0  0
  -26.9884  -25.1559   21.9583 F   0  0  0  0  0  0
  -29.5078  -17.7914   22.4370 S   0  0  0  0  0  0
  -31.4602  -12.3250   19.1264 H   0  0  0  0  0  0
  -30.2726  -11.2387   19.7832 H   0  0  0  0  0  0
  -29.7201  -11.8109   17.4009 H   0  0  0  0  0  0
  -29.6744  -13.5097   17.8002 H   0  0  0  0  0  0
  -27.8008  -11.3261   18.7813 H   0  0  0  0  0  0
  -27.3637  -12.6917   17.7829 H   0  0  0  0  0  0
  -27.7268  -14.2552   19.6163 H   0  0  0  0  0  0
  -28.6545  -11.8813   21.3028 H   0  0  0  0  0  0
  -28.4576  -13.4928   21.8997 H   0  0  0  0  0  0
  -25.2803   -9.5628   22.4756 H   0  0  0  0  0  0
  -24.0006   -7.4608   22.7475 H   0  0  0  0  0  0
  -21.0846   -8.8826   19.8965 H   0  0  0  0  0  0
  -22.3767  -10.9692   19.6155 H   0  0  0  0  0  0
  -21.2029   -7.6173   23.9754 H   0  0  0  0  0  0
  -21.1485   -6.0533   25.9105 H   0  0  0  0  0  0
  -22.0581   -2.7626   23.2858 H   0  0  0  0  0  0
  -22.4190  -11.9853   22.4740 H   0  0  0  0  0  0
  -21.1179  -13.1255   22.2710 H   0  0  0  0  0  0
  -24.6546  -15.8371   20.5173 H   0  0  0  0  0  0
  -26.2795  -15.6383   20.0990 H   0  0  0  0  0  0
  -26.7044  -32.5554   23.1125 H   0  0  0  0  0  0
  -25.0010  -33.9790   25.0447 H   0  0  0  0  0  0
  -22.6799  -31.3099   21.4104 H   0  0  0  0  0  0
  -23.3764  -35.9656   23.3324 H   0  0  0  0  0  0
  -24.3576  -36.8909   22.2041 H   0  0  0  0  0  0
  -23.7279  -37.6537   23.6640 H   0  0  0  0  0  0
  -26.0260  -31.6146   20.5937 H   0  0  0  0  0  0
  -26.8064  -30.8989   21.9749 H   0  0  0  0  0  0
  -28.0963  -29.1573   21.1199 H   0  0  0  0  0  0
  -26.0619  -25.9911   18.9969 H   0  0  0  0  0  0
  -23.9762  -27.2849   19.0523 H   0  0  0  0  0  0
  -23.6966  -30.5885   19.4058 H   0  0  0  0  0  0
  -22.7234  -29.2310   19.8754 H   0  0  0  0  0  0
  -25.1305  -36.1954   25.0825 H   0  0  0  0  0  0
  -20.9903  -28.3266   24.1432 H   0  0  0  0  0  0
  -20.5633  -26.2305   23.3603 H   0  0  0  0  0  0
  -21.6631  -26.7461   22.1218 H   0  0  0  0  0  0
  -19.6891  -25.6251   21.1271 H   0  0  0  0  0  0
  -19.6655  -27.3132   20.6703 H   0  0  0  0  0  0
  -17.4158  -26.6545   21.4076 H   0  0  0  0  0  0
  -18.0401  -26.0064   22.9074 H   0  0  0  0  0  0
  -19.7872  -30.7258   24.2310 H   0  0  0  0  0  0
  -17.4950  -31.6247   24.5168 H   0  0  0  0  0  0
  -15.5307  -30.2976   23.7615 H   0  0  0  0  0  0
  -15.8631  -28.0810   22.7038 H   0  0  0  0  0  0
  -24.5830  -30.7108   25.7787 H   0  0  0  0  0  0
  -24.9007  -32.2872   26.4953 H   0  0  0  0  0  0
  -25.8068  -30.8777   27.0170 H   0  0  0  0  0  0
  -26.2752  -29.6823   24.0995 H   0  0  0  0  0  0
  -27.3903  -29.7156   25.4452 H   0  0  0  0  0  0
  -27.8627  -30.4270   23.9191 H   0  0  0  0  0  0
  -27.2663  -33.3518   26.2054 H   0  0  0  0  0  0
  -28.3800  -32.6835   25.0207 H   0  0  0  0  0  0
  -28.0738  -31.8316   26.5261 H   0  0  0  0  0  0
  -28.2617  -38.0098   24.7502 H   0  0  0  0  0  0
  -28.1076  -36.2623   24.6324 H   0  0  0  0  0  0
  -27.2292  -37.1492   25.8869 H   0  0  0  0  0  0
  -20.9230  -29.8744   21.6919 H   0  0  0  0  0  0
  -26.0205  -38.2876   24.1402 H   0  0  0  0  0  0
  -30.7314  -21.3891   20.3826 H   0  0  0  0  0  0
  -28.2123  -20.5498   21.7226 H   0  0  0  0  0  0
  -29.5489  -20.6186   22.8429 H   0  0  0  0  0  0
  -27.8203  -24.8973   19.4592 H   0  0  0  0  0  0
  -29.4954  -25.1465   19.8270 H   0  0  0  0  0  0
  -29.3606  -14.9361   21.9479 H   0  0  0  0  0  0
  1 25  1  0  0  0
  1 30  2  0  0  0
  1 81  1  0  0  0
  2  3  1  0  0  0
  2 25  1  0  0  0
  2 87  1  0  0  0
  2 88  1  0  0  0
  3  4  1  0  0  0
  3 89  1  0  0  0
  3 90  1  0  0  0
  4  5  1  0  0  0
  4 91  1  0  0  0
  4 92  1  0  0  0
  5  6  1  0  0  0
  5 26  1  0  0  0
  5 93  1  0  0  0
  6 25  1  0  0  0
  6 94  1  0  0  0
  6 95  1  0  0  0
  7  8  2  0  0  0
  7 26  1  0  0  0
  7 29  1  0  0  0
  8  9  1  0  0  0
  8 22  1  0  0  0
  9 10  1  0  0  0
  9 27  2  0  0  0
 10 11  2  0  0  0
 10 15  1  0  0  0
 11 12  1  0  0  0
 11 96  1  0  0  0
 12 13  2  0  0  0
 12 97  1  0  0  0
 13 14  1  0  0  0
 13 31  1  0  0  0
 14 15  2  0  0  0
 14 98  1  0  0  0
 15 99  1  0  0  0
 16 17  2  0  0  0
 16 21  1  0  0  0
 16 31  1  0  0  0
 17 18  1  0  0  0
 17100  1  0  0  0
 18 19  2  0  0  0
 18101  1  0  0  0
 19 20  1  0  0  0
 19 24  1  0  0  0
 20 21  2  0  0  0
 20102  1  0  0  0
 21 23  1  0  0  0
 22 28  1  0  0  0
 22 32  2  0  0  0
 26 27  1  0  0  0
 28103  1  0  0  0
 28104  1  0  0  0
 29105  1  0  0  0
 29106  1  0  0  0
 33 34  1  0  0  0
 33 66  1  0  0  0
 33 70  2  0  0  0
 34 36  1  0  0  0
 34 59  1  0  0  0
 34107  1  0  0  0
 35 44  2  0  0  0
 35 45  1  0  0  0
 35 68  1  0  0  0
 36 56  1  0  0  0
 36108  1  0  0  0
 37 39  1  0  0  0
 37 47  1  0  0  0
 37 66  1  0  0  0
 37109  1  0  0  0
 38 43  2  0  0  0
 38 46  1  0  0  0
 38 47  1  0  0  0
 39 64  1  0  0  0
 39 67  2  0  0  0
 40 52  1  0  0  0
 40 53  2  0  0  0
 40 58  1  0  0  0
 41110  1  0  0  0
 41111  1  0  0  0
 41112  1  0  0  0
 41 48  1  0  0  0
 42 43  1  0  0  0
 42 66  1  0  0  0
 42113  1  0  0  0
 42114  1  0  0  0
 43 44  1  0  0  0
 44115  1  0  0  0
 45 46  2  0  0  0
 45116  1  0  0  0
 46117  1  0  0  0
 47118  1  0  0  0
 47119  1  0  0  0
 48 56  1  0  0  0
 48 65  1  0  0  0
 48120  1  0  0  0
 49 50  1  0  0  0
 49 53  1  0  0  0
 49 64  1  0  0  0
 49121  1  0  0  0
 50 51  1  0  0  0
 50122  1  0  0  0
 50123  1  0  0  0
 51 52  1  0  0  0
 51124  1  0  0  0
 51125  1  0  0  0
 52126  1  0  0  0
 52127  1  0  0  0
 53 54  1  0  0  0
 54 55  2  0  0  0
 54128  1  0  0  0
 55 57  1  0  0  0
 55129  1  0  0  0
 56 69  2  0  0  0
 57 58  2  0  0  0
 57130  1  0  0  0
 58131  1  0  0  0
 59 60  1  0  0  0
 59 61  1  0  0  0
 59 62  1  0  0  0
 60132  1  0  0  0
 60133  1  0  0  0
 60134  1  0  0  0
 61135  1  0  0  0
 61136  1  0  0  0
 61137  1  0  0  0
 62138  1  0  0  0
 62139  1  0  0  0
 62140  1  0  0  0
 63 65  1  0  0  0
 63141  1  0  0  0
 63142  1  0  0  0
 63143  1  0  0  0
 64144  1  0  0  0
 65145  1  0  0  0
 68 77  1  0  0  0
 71 72  2  0  0  0
 71 76  1  0  0  0
 71 86  1  0  0  0
 72 79  1  0  0  0
 72 83  1  0  0  0
 73 79  2  0  0  0
 73 81  1  0  0  0
 73 86  1  0  0  0
 74 76  1  0  0  0
 74 80  2  0  0  0
 74146  1  0  0  0
 75 78  1  0  0  0
 75 80  1  0  0  0
 75 82  2  0  0  0
 76147  1  0  0  0
 76148  1  0  0  0
 77 78  1  0  0  0
 77149  1  0  0  0
 77150  1  0  0  0
 78 84  1  0  0  0
 78 85  1  0  0  0
 81151  1  0  0  0
M  ISO  4   1 100  68 101  77 101  81 100
M  END
> <chiral flag>
0

> <version>
0

> <s_m_source_file>
/data/baiqing/PycharmProjects/Reinvent-master-3.2/result/LINK_invent/BTK/process_docking_weight1_custom_product_contain_oxygen_bond_distance_aromatic_linkinvent_7_9_3/rearranged_h_0180.sdf

> <i_m_source_file_index>
11

> <r_mmod_Potential_Energy-OPLS-2005>
-69.0873947143555

> <r_mmod_Stretch_Energy-OPLS-2005>
33.1620216369629

> <r_mmod_Bend_Energy-OPLS-2005>
120.952651977539

> <r_mmod_Torsional_Energy-OPLS-2005>
207.331741333008

> <r_mmod_Improper_Torsional_Energy-OPLS-2005>
3.56330800056458

> <r_mmod_Van_der_Waal_Energy-OPLS-2005>
155.721282958984

> <r_mmod_Electrostatic_Energy-OPLS-2005>
-380.590911865234

> <r_mmod_Solvation_Energy-OPLS-2005>
-217.731475830078

> <b_mmod_Minimization_Converged-OPLS-2005>
0

> <r_mmod_RMS_Derivative-OPLS-2005>
3.19633841514587

$$$$
11
                    3D
 Structure written by MMmdl.
148156  0  0  1  0            999 V2000
  -30.6050  -14.6915   20.5196 C   0  0  0  0  0  0
  -30.4426  -12.4304   19.4563 C   0  0  0  0  0  0
  -29.5100  -12.5211   18.2275 C   0  0  0  0  0  0
  -28.0341  -12.3482   18.6402 C   0  0  0  0  0  0
  -27.6531  -13.2221   19.8650 C   0  0  2  0  0  0
  -28.6993  -13.0794   20.9915 C   0  0  0  0  0  0
  -25.2555  -13.8178   20.5696 C   0  0  0  0  0  0
  -24.1826  -13.0435   20.9191 C   0  0  0  0  0  0
  -24.6403  -11.6909   20.8739 C   0  0  0  0  0  0
  -23.9072  -10.4291   21.0405 C   0  0  0  0  0  0
  -24.3620   -9.4207   21.9185 C   0  0  0  0  0  0
  -23.6292   -8.2244   22.0756 C   0  0  0  0  0  0
  -22.4274   -8.0282   21.3545 C   0  0  0  0  0  0
  -21.9911   -9.0258   20.4648 C   0  0  0  0  0  0
  -22.7242  -10.2135   20.3057 C   0  0  0  0  0  0
  -21.6851   -6.0737   22.5279 C   0  0  0  0  0  0
  -21.4014   -6.5641   23.8214 C   0  0  0  0  0  0
  -21.3659   -5.6793   24.9175 C   0  0  0  0  0  0
  -21.6042   -4.3055   24.7225 C   0  0  0  0  0  0
  -21.8819   -3.8148   23.4347 C   0  0  0  0  0  0
  -21.9192   -4.6966   22.3402 C   0  0  0  0  0  0
  -22.7848  -13.5226   21.1854 C   0  0  0  0  0  0
  -22.1660   -4.2151   21.0980 F   0  0  0  0  0  0
  -21.5628   -3.4538   25.7738 F   0  0  0  0  0  0
  -30.0041  -13.4552   20.4303 N   0  0  0  0  0  0
  -26.2993  -12.9372   20.3334 N   0  0  0  0  0  0
  -25.9337  -11.6520   20.5763 N   0  0  0  0  0  0
  -22.0489  -12.8221   22.0412 N   0  0  0  0  0  0
  -25.4258  -15.1900   20.4118 N   0  0  0  0  0  0
  -31.7535  -14.8317   20.0838 O   0  0  0  0  0  0
  -21.6636   -6.8880   21.4242 O   0  0  0  0  0  0
  -22.3535  -14.5534   20.6703 O   0  0  0  0  0  0
  -24.6278  -31.8567   23.1994 C   0  0  0  0  0  0
  -25.9115  -32.4759   23.8332 C   0  0  1  0  0  0
  -27.2265  -27.2978   20.1224 C   0  0  0  0  0  0
  -25.5924  -33.8559   24.2261 N   0  0  0  0  0  0
  -23.4227  -30.4780   21.5426 C   0  0  2  0  0  0
  -24.8702  -28.9261   20.1103 C   0  0  0  0  0  0
  -22.7479  -29.4602   22.4932 C   0  0  0  0  0  0
  -18.0285  -28.1374   22.8479 C   0  0  0  0  0  0
  -24.1492  -36.7284   23.2642 C   0  0  0  0  0  0
  -25.9641  -30.7817   21.3718 C   0  0  0  0  0  0
  -26.0389  -29.4066   20.7139 C   0  0  0  0  0  0
  -27.2204  -28.6046   20.7067 C   0  0  0  0  0  0
  -26.0355  -26.8688   19.4980 C   0  0  0  0  0  0
  -24.8715  -27.6643   19.4922 C   0  0  0  0  0  0
  -23.6382  -29.8086   20.1589 C   0  0  0  0  0  0
  -25.4114  -36.3070   24.0332 C   0  0  1  0  0  0
  -20.5885  -28.3678   23.1276 C   0  0  2  0  0  0
  -20.6774  -26.9399   22.5405 C   0  0  0  0  0  0
  -19.5752  -26.6374   21.5203 C   0  0  0  0  0  0
  -18.1931  -26.7917   22.1613 C   0  0  0  0  0  0
  -19.1538  -28.8843   23.2872 C   0  0  0  0  0  0
  -18.9465  -30.1446   23.8885 C   0  0  0  0  0  0
  -17.6465  -30.6577   24.0557 C   0  0  0  0  0  0
  -25.9052  -34.9440   23.5098 C   0  0  0  0  0  0
  -16.5355  -29.9073   23.6329 C   0  0  0  0  0  0
  -16.7274  -28.6492   23.0346 C   0  0  0  0  0  0
  -26.4499  -31.6583   25.0713 C   0  0  0  0  0  0
  -25.3731  -31.3723   26.1441 C   0  0  0  0  0  0
  -27.0357  -30.3012   24.6176 C   0  0  0  0  0  0
  -27.6056  -32.4323   25.7482 C   0  0  0  0  0  0
  -27.5579  -37.1794   24.8466 C   0  0  0  0  0  0
  -21.4189  -29.3032   22.3673 N   0  0  0  0  0  0
  -26.4289  -37.3767   23.9412 N   0  0  0  0  0  0
  -24.6904  -31.0562   22.0950 N   0  0  0  0  0  0
  -23.4193  -28.8148   23.3025 O   0  0  0  0  0  0
  -28.3439  -26.4410   20.1845 O   0  0  0  0  0  0
  -26.5622  -34.8912   22.4666 O   0  0  0  0  0  0
  -23.5436  -32.1374   23.7313 O   0  0  0  0  0  0
  -29.8017  -17.3392   20.3481 C   0  0  0  0  0  0
  -29.7967  -17.5341   18.9868 C   0  0  0  0  0  0
  -29.4283  -19.6945   20.1555 C   0  0  0  0  0  0
  -28.8994  -22.2373   19.9559 C   0  0  0  0  0  0
  -29.8674  -15.9755   21.1299 C   0  0  0  0  0  0
  -28.1735  -24.9591   20.0325 C   0  0  0  0  0  0
  -28.7607  -23.6145   20.7499 C   0  0  2  0  0  0
  -29.5860  -18.6171   20.9905 N   0  0  0  0  0  0
  -29.1955  -21.0671   20.6341 N   0  0  0  0  0  0
  -28.7295  -22.2470   18.7336 O   0  0  0  0  0  0
  -29.9091  -16.5299   18.0835 F   0  0  0  0  0  0
  -29.5583  -19.1947   18.4634 S   0  0  0  0  0  0
  -30.3416  -23.9820   21.5086 Cl  0  0  0  0  0  0
  -31.4815  -12.5642   19.1503 H   0  0  0  0  0  0
  -30.3939  -11.4365   19.9040 H   0  0  0  0  0  0
  -29.7831  -11.7652   17.4900 H   0  0  0  0  0  0
  -29.6427  -13.4880   17.7395 H   0  0  0  0  0  0
  -27.8808  -11.2949   18.8788 H   0  0  0  0  0  0
  -27.3761  -12.5675   17.7987 H   0  0  0  0  0  0
  -27.6707  -14.2578   19.5249 H   0  0  0  0  0  0
  -28.7293  -12.0497   21.3509 H   0  0  0  0  0  0
  -28.4353  -13.6758   21.8639 H   0  0  0  0  0  0
  -25.2765   -9.5679   22.4761 H   0  0  0  0  0  0
  -23.9996   -7.4636   22.7478 H   0  0  0  0  0  0
  -21.0840   -8.8780   19.8958 H   0  0  0  0  0  0
  -22.3702  -10.9674   19.6168 H   0  0  0  0  0  0
  -21.2009   -7.6150   23.9718 H   0  0  0  0  0  0
  -21.1479   -6.0523   25.9077 H   0  0  0  0  0  0
  -22.0599   -2.7611   23.2846 H   0  0  0  0  0  0
  -22.4094  -11.9875   22.4794 H   0  0  0  0  0  0
  -21.1115  -13.1260   22.2629 H   0  0  0  0  0  0
  -24.6571  -15.8428   20.5207 H   0  0  0  0  0  0
  -26.2758  -15.6310   20.0847 H   0  0  0  0  0  0
  -26.7179  -32.5424   23.1073 H   0  0  0  0  0  0
  -25.0074  -33.9696   25.0409 H   0  0  0  0  0  0
  -22.7176  -31.2989   21.3970 H   0  0  0  0  0  0
  -23.3751  -35.9620   23.3300 H   0  0  0  0  0  0
  -24.3583  -36.8909   22.2057 H   0  0  0  0  0  0
  -23.7246  -37.6485   23.6667 H   0  0  0  0  0  0
  -26.0963  -31.5446   20.6032 H   0  0  0  0  0  0
  -26.8436  -30.8307   22.0024 H   0  0  0  0  0  0
  -28.1178  -28.9672   21.1886 H   0  0  0  0  0  0
  -25.9858  -25.8999   19.0228 H   0  0  0  0  0  0
  -23.9747  -27.2899   19.0180 H   0  0  0  0  0  0
  -23.7577  -30.5832   19.4006 H   0  0  0  0  0  0
  -22.7577  -29.2382   19.8578 H   0  0  0  0  0  0
  -25.1296  -36.1918   25.0825 H   0  0  0  0  0  0
  -20.9975  -28.3251   24.1398 H   0  0  0  0  0  0
  -20.5664  -26.2287   23.3604 H   0  0  0  0  0  0
  -21.6645  -26.7422   22.1206 H   0  0  0  0  0  0
  -19.6917  -25.6285   21.1230 H   0  0  0  0  0  0
  -19.6694  -27.3184   20.6733 H   0  0  0  0  0  0
  -17.4202  -26.6657   21.4015 H   0  0  0  0  0  0
  -18.0339  -26.0057   22.9009 H   0  0  0  0  0  0
  -19.7946  -30.7261   24.2248 H   0  0  0  0  0  0
  -17.5023  -31.6260   24.5154 H   0  0  0  0  0  0
  -15.5354  -30.2971   23.7666 H   0  0  0  0  0  0
  -15.8674  -28.0812   22.7063 H   0  0  0  0  0  0
  -24.5907  -30.7070   25.7771 H   0  0  0  0  0  0
  -24.8921  -32.2892   26.4859 H   0  0  0  0  0  0
  -25.8055  -30.8908   27.0220 H   0  0  0  0  0  0
  -26.2938  -29.6742   24.1216 H   0  0  0  0  0  0
  -27.4082  -29.7286   25.4679 H   0  0  0  0  0  0
  -27.8790  -30.4307   23.9387 H   0  0  0  0  0  0
  -27.2669  -33.3628   26.2047 H   0  0  0  0  0  0
  -28.3870  -32.6872   25.0310 H   0  0  0  0  0  0
  -28.0721  -31.8458   26.5406 H   0  0  0  0  0  0
  -28.2592  -38.0095   24.7513 H   0  0  0  0  0  0
  -28.1077  -36.2624   24.6290 H   0  0  0  0  0  0
  -27.2298  -37.1441   25.8869 H   0  0  0  0  0  0
  -20.9369  -29.8756   21.6883 H   0  0  0  0  0  0
  -26.0169  -38.2841   24.1409 H   0  0  0  0  0  0
  -28.8424  -15.7113   21.3737 H   0  0  0  0  0  0
  -30.3396  -16.1521   22.0954 H   0  0  0  0  0  0
  -29.1012  -25.0596   19.4683 H   0  0  0  0  0  0
  -27.9733  -25.2169   21.0738 H   0  0  0  0  0  0
  -28.1015  -23.3425   21.5785 H   0  0  0  0  0  0
  -29.2739  -21.1748   21.6343 H   0  0  0  0  0  0
  1 25  1  0  0  0
  1 30  2  0  0  0
  1 75  1  0  0  0
  2  3  1  0  0  0
  2 25  1  0  0  0
  2 84  1  0  0  0
  2 85  1  0  0  0
  3  4  1  0  0  0
  3 86  1  0  0  0
  3 87  1  0  0  0
  4  5  1  0  0  0
  4 88  1  0  0  0
  4 89  1  0  0  0
  5  6  1  0  0  0
  5 26  1  0  0  0
  5 90  1  0  0  0
  6 25  1  0  0  0
  6 91  1  0  0  0
  6 92  1  0  0  0
  7  8  2  0  0  0
  7 26  1  0  0  0
  7 29  1  0  0  0
  8  9  1  0  0  0
  8 22  1  0  0  0
  9 10  1  0  0  0
  9 27  2  0  0  0
 10 11  2  0  0  0
 10 15  1  0  0  0
 11 12  1  0  0  0
 11 93  1  0  0  0
 12 13  2  0  0  0
 12 94  1  0  0  0
 13 14  1  0  0  0
 13 31  1  0  0  0
 14 15  2  0  0  0
 14 95  1  0  0  0
 15 96  1  0  0  0
 16 17  2  0  0  0
 16 21  1  0  0  0
 16 31  1  0  0  0
 17 18  1  0  0  0
 17 97  1  0  0  0
 18 19  2  0  0  0
 18 98  1  0  0  0
 19 20  1  0  0  0
 19 24  1  0  0  0
 20 21  2  0  0  0
 20 99  1  0  0  0
 21 23  1  0  0  0
 22 28  1  0  0  0
 22 32  2  0  0  0
 26 27  1  0  0  0
 28100  1  0  0  0
 28101  1  0  0  0
 29102  1  0  0  0
 29103  1  0  0  0
 33 34  1  0  0  0
 33 66  1  0  0  0
 33 70  2  0  0  0
 34 36  1  0  0  0
 34 59  1  0  0  0
 34104  1  0  0  0
 35 44  2  0  0  0
 35 45  1  0  0  0
 35 68  1  0  0  0
 36 56  1  0  0  0
 36105  1  0  0  0
 37 39  1  0  0  0
 37 47  1  0  0  0
 37 66  1  0  0  0
 37106  1  0  0  0
 38 43  2  0  0  0
 38 46  1  0  0  0
 38 47  1  0  0  0
 39 64  1  0  0  0
 39 67  2  0  0  0
 40 52  1  0  0  0
 40 53  2  0  0  0
 40 58  1  0  0  0
 41107  1  0  0  0
 41108  1  0  0  0
 41109  1  0  0  0
 41 48  1  0  0  0
 42 43  1  0  0  0
 42 66  1  0  0  0
 42110  1  0  0  0
 42111  1  0  0  0
 43 44  1  0  0  0
 44112  1  0  0  0
 45 46  2  0  0  0
 45113  1  0  0  0
 46114  1  0  0  0
 47115  1  0  0  0
 47116  1  0  0  0
 48 56  1  0  0  0
 48 65  1  0  0  0
 48117  1  0  0  0
 49 50  1  0  0  0
 49 53  1  0  0  0
 49 64  1  0  0  0
 49118  1  0  0  0
 50 51  1  0  0  0
 50119  1  0  0  0
 50120  1  0  0  0
 51 52  1  0  0  0
 51121  1  0  0  0
 51122  1  0  0  0
 52123  1  0  0  0
 52124  1  0  0  0
 53 54  1  0  0  0
 54 55  2  0  0  0
 54125  1  0  0  0
 55 57  1  0  0  0
 55126  1  0  0  0
 56 69  2  0  0  0
 57 58  2  0  0  0
 57127  1  0  0  0
 58128  1  0  0  0
 59 60  1  0  0  0
 59 61  1  0  0  0
 59 62  1  0  0  0
 60129  1  0  0  0
 60130  1  0  0  0
 60131  1  0  0  0
 61132  1  0  0  0
 61133  1  0  0  0
 61134  1  0  0  0
 62135  1  0  0  0
 62136  1  0  0  0
 62137  1  0  0  0
 63 65  1  0  0  0
 63138  1  0  0  0
 63139  1  0  0  0
 63140  1  0  0  0
 64141  1  0  0  0
 65142  1  0  0  0
 68 76  1  0  0  0
 71 72  2  0  0  0
 71 75  1  0  0  0
 71 78  1  0  0  0
 72 81  1  0  0  0
 72 82  1  0  0  0
 73 78  2  0  0  0
 73 79  1  0  0  0
 73 82  1  0  0  0
 74 77  1  0  0  0
 74 79  1  0  0  0
 74 80  2  0  0  0
 75143  1  0  0  0
 75144  1  0  0  0
 76 77  1  0  0  0
 76145  1  0  0  0
 76146  1  0  0  0
 77 83  1  0  0  0
 77147  1  0  0  0
 79148  1  0  0  0
M  ISO  4   1 100  68 101  75 100  76 101
M  END
> <chiral flag>
0

> <version>
0

> <s_m_source_file>
/data/baiqing/PycharmProjects/Reinvent-master-3.2/result/LINK_invent/BTK/process_docking_weight1_custom_product_contain_oxygen_bond_distance_aromatic_linkinvent_7_9_3/rearranged_h_0180.sdf

> <i_m_source_file_index>
12

> <r_mmod_Potential_Energy-OPLS-2005>
265.291381835938

> <r_mmod_Stretch_Energy-OPLS-2005>
106.638671875

> <r_mmod_Bend_Energy-OPLS-2005>
370.035583496094

> <r_mmod_Torsional_Energy-OPLS-2005>
178.296981811523

> <r_mmod_Improper_Torsional_Energy-OPLS-2005>
2.3914783000946

> <r_mmod_Van_der_Waal_Energy-OPLS-2005>
123.70499420166

> <r_mmod_Electrostatic_Energy-OPLS-2005>
-347.305999755859

> <r_mmod_Solvation_Energy-OPLS-2005>
-228.963668823242

> <b_mmod_Minimization_Converged-OPLS-2005>
0

> <r_mmod_RMS_Derivative-OPLS-2005>
0.49023899435997

$$$$
12
                    3D
 Structure written by MMmdl.
151159  0  0  1  0            999 V2000
  -30.5719  -14.7403   20.4631 C   0  0  0  0  0  0
  -30.4459  -12.4499   19.4647 C   0  0  0  0  0  0
  -29.5128  -12.5012   18.2321 C   0  0  0  0  0  0
  -28.0387  -12.3196   18.6488 C   0  0  0  0  0  0
  -27.6446  -13.2165   19.8514 C   0  0  2  0  0  0
  -28.6903  -13.1236   20.9852 C   0  0  0  0  0  0
  -25.2532  -13.8159   20.5675 C   0  0  0  0  0  0
  -24.1813  -13.0432   20.9217 C   0  0  0  0  0  0
  -24.6382  -11.6900   20.8760 C   0  0  0  0  0  0
  -23.9055  -10.4286   21.0416 C   0  0  0  0  0  0
  -24.3610   -9.4202   21.9191 C   0  0  0  0  0  0
  -23.6286   -8.2237   22.0757 C   0  0  0  0  0  0
  -22.4268   -8.0272   21.3545 C   0  0  0  0  0  0
  -21.9902   -9.0249   20.4650 C   0  0  0  0  0  0
  -22.7229  -10.2131   20.3064 C   0  0  0  0  0  0
  -21.6847   -6.0731   22.5283 C   0  0  0  0  0  0
  -21.4006   -6.5637   23.8213 C   0  0  0  0  0  0
  -21.3662   -5.6793   24.9174 C   0  0  0  0  0  0
  -21.6045   -4.3054   24.7228 C   0  0  0  0  0  0
  -21.8818   -3.8144   23.4347 C   0  0  0  0  0  0
  -21.9191   -4.6961   22.3403 C   0  0  0  0  0  0
  -22.7838  -13.5233   21.1875 C   0  0  0  0  0  0
  -22.1660   -4.2144   21.0983 F   0  0  0  0  0  0
  -21.5634   -3.4539   25.7740 F   0  0  0  0  0  0
  -29.9922  -13.4927   20.4108 N   0  0  0  0  0  0
  -26.2941  -12.9334   20.3262 N   0  0  0  0  0  0
  -25.9304  -11.6498   20.5752 N   0  0  0  0  0  0
  -22.0474  -12.8226   22.0423 N   0  0  0  0  0  0
  -25.4231  -15.1881   20.4054 N   0  0  0  0  0  0
  -31.7590  -14.8876   20.1514 O   0  0  0  0  0  0
  -21.6636   -6.8870   21.4240 O   0  0  0  0  0  0
  -22.3539  -14.5544   20.6720 O   0  0  0  0  0  0
  -24.6295  -31.8554   23.1976 C   0  0  0  0  0  0
  -25.9116  -32.4764   23.8323 C   0  0  1  0  0  0
  -27.2235  -27.2740   20.1358 C   0  0  0  0  0  0
  -25.5913  -33.8563   24.2243 N   0  0  0  0  0  0
  -23.4264  -30.4774   21.5404 C   0  0  2  0  0  0
  -24.8744  -28.9179   20.1172 C   0  0  0  0  0  0
  -22.7491  -29.4605   22.4906 C   0  0  0  0  0  0
  -18.0289  -28.1395   22.8490 C   0  0  0  0  0  0
  -24.1488  -36.7279   23.2641 C   0  0  0  0  0  0
  -25.9705  -30.7734   21.3742 C   0  0  0  0  0  0
  -26.0460  -29.3944   20.7209 C   0  0  0  0  0  0
  -27.2268  -28.5870   20.7122 C   0  0  0  0  0  0
  -26.0302  -26.8524   19.5160 C   0  0  0  0  0  0
  -24.8707  -27.6536   19.5046 C   0  0  0  0  0  0
  -23.6452  -29.8055   20.1589 C   0  0  0  0  0  0
  -25.4113  -36.3073   24.0329 C   0  0  1  0  0  0
  -20.5894  -28.3698   23.1272 C   0  0  2  0  0  0
  -20.6780  -26.9413   22.5407 C   0  0  0  0  0  0
  -19.5757  -26.6385   21.5212 C   0  0  0  0  0  0
  -18.1936  -26.7944   22.1623 C   0  0  0  0  0  0
  -19.1545  -28.8860   23.2889 C   0  0  0  0  0  0
  -18.9471  -30.1460   23.8904 C   0  0  0  0  0  0
  -17.6472  -30.6599   24.0566 C   0  0  0  0  0  0
  -25.9052  -34.9444   23.5089 C   0  0  0  0  0  0
  -16.5361  -29.9098   23.6337 C   0  0  0  0  0  0
  -16.7275  -28.6516   23.0360 C   0  0  0  0  0  0
  -26.4485  -31.6595   25.0709 C   0  0  0  0  0  0
  -25.3704  -31.3770   26.1432 C   0  0  0  0  0  0
  -27.0322  -30.3009   24.6187 C   0  0  0  0  0  0
  -27.6046  -32.4328   25.7479 C   0  0  0  0  0  0
  -27.5581  -37.1787   24.8461 C   0  0  0  0  0  0
  -21.4197  -29.3054   22.3662 N   0  0  0  0  0  0
  -26.4286  -37.3772   23.9417 N   0  0  0  0  0  0
  -24.6946  -31.0521   22.0946 N   0  0  0  0  0  0
  -23.4200  -28.8152   23.3003 O   0  0  0  0  0  0
  -28.3322  -26.4050   20.1153 O   0  0  0  0  0  0
  -26.5630  -34.8918   22.4665 O   0  0  0  0  0  0
  -23.5443  -32.1366   23.7274 O   0  0  0  0  0  0
  -29.3769  -19.8362   20.1924 C   0  0  0  0  0  0
  -30.5005  -19.4560   20.9107 C   0  0  0  0  0  0
  -29.7955  -17.2727   20.5136 C   0  0  0  0  0  0
  -28.9150  -21.1847   19.6719 C   0  0  0  0  0  0
  -28.5056  -23.7720   19.7823 C   0  0  0  0  0  0
  -29.1500  -25.0618   21.9547 C   0  0  0  0  0  0
  -28.2219  -25.0370   20.7302 C   0  0  1  0  0  0
  -30.7350  -18.0537   21.0792 N   0  0  0  0  0  0
  -29.7012  -15.8009   20.6486 N   0  0  0  0  0  0
  -28.8547  -22.4144   20.3490 N   0  0  0  0  0  0
  -28.5167  -21.1556   18.3844 N   0  3  0  0  0  0
  -28.3762  -23.9001   18.5570 O   0  0  0  0  0  0
  -31.3519  -20.3410   21.3754 F   0  0  0  0  0  0
  -28.5369  -18.3180   19.7545 S   0  0  0  0  0  0
  -31.4828  -12.5986   19.1592 H   0  0  0  0  0  0
  -30.4100  -11.4673   19.9375 H   0  0  0  0  0  0
  -29.7957  -11.7287   17.5151 H   0  0  0  0  0  0
  -29.6328  -13.4553   17.7164 H   0  0  0  0  0  0
  -27.9012  -11.2706   18.9134 H   0  0  0  0  0  0
  -27.3782  -12.5056   17.8012 H   0  0  0  0  0  0
  -27.6436  -14.2391   19.4748 H   0  0  0  0  0  0
  -28.7281  -12.1130   21.3944 H   0  0  0  0  0  0
  -28.4228  -13.7750   21.8192 H   0  0  0  0  0  0
  -25.2754   -9.5680   22.4764 H   0  0  0  0  0  0
  -23.9999   -7.4626   22.7472 H   0  0  0  0  0  0
  -21.0834   -8.8763   19.8950 H   0  0  0  0  0  0
  -22.3685  -10.9670   19.6174 H   0  0  0  0  0  0
  -21.1989   -7.6145   23.9713 H   0  0  0  0  0  0
  -21.1489   -6.0523   25.9079 H   0  0  0  0  0  0
  -22.0595   -2.7604   23.2849 H   0  0  0  0  0  0
  -22.4080  -11.9882   22.4806 H   0  0  0  0  0  0
  -21.1096  -13.1258   22.2631 H   0  0  0  0  0  0
  -24.6462  -15.8323   20.5043 H   0  0  0  0  0  0
  -26.2421  -15.6222   20.0017 H   0  0  0  0  0  0
  -26.7179  -32.5409   23.1066 H   0  0  0  0  0  0
  -25.0053  -33.9702   25.0384 H   0  0  0  0  0  0
  -22.7232  -31.2993   21.3910 H   0  0  0  0  0  0
  -23.3760  -35.9604   23.3294 H   0  0  0  0  0  0
  -24.3583  -36.8901   22.2058 H   0  0  0  0  0  0
  -23.7228  -37.6470   23.6665 H   0  0  0  0  0  0
  -26.1039  -31.5340   20.6037 H   0  0  0  0  0  0
  -26.8509  -30.8261   22.0032 H   0  0  0  0  0  0
  -28.1306  -28.9530   21.1792 H   0  0  0  0  0  0
  -25.9919  -25.8831   19.0386 H   0  0  0  0  0  0
  -23.9728  -27.2833   19.0289 H   0  0  0  0  0  0
  -23.7713  -30.5788   19.4008 H   0  0  0  0  0  0
  -22.7638  -29.2385   19.8528 H   0  0  0  0  0  0
  -25.1300  -36.1920   25.0822 H   0  0  0  0  0  0
  -20.9989  -28.3272   24.1391 H   0  0  0  0  0  0
  -20.5671  -26.2304   23.3613 H   0  0  0  0  0  0
  -21.6652  -26.7436   22.1201 H   0  0  0  0  0  0
  -19.6918  -25.6294   21.1242 H   0  0  0  0  0  0
  -19.6701  -27.3199   20.6749 H   0  0  0  0  0  0
  -17.4204  -26.6687   21.4025 H   0  0  0  0  0  0
  -18.0335  -26.0086   22.9019 H   0  0  0  0  0  0
  -19.7949  -30.7272   24.2274 H   0  0  0  0  0  0
  -17.5035  -31.6282   24.5163 H   0  0  0  0  0  0
  -15.5368  -30.3012   23.7659 H   0  0  0  0  0  0
  -15.8674  -28.0838   22.7080 H   0  0  0  0  0  0
  -24.5880  -30.7115   25.7765 H   0  0  0  0  0  0
  -24.8896  -32.2956   26.4808 H   0  0  0  0  0  0
  -25.8012  -30.8981   27.0235 H   0  0  0  0  0  0
  -26.2897  -29.6767   24.1194 H   0  0  0  0  0  0
  -27.3991  -29.7262   25.4702 H   0  0  0  0  0  0
  -27.8784  -30.4285   23.9433 H   0  0  0  0  0  0
  -27.2663  -33.3638   26.2043 H   0  0  0  0  0  0
  -28.3866  -32.6867   25.0310 H   0  0  0  0  0  0
  -28.0703  -31.8458   26.5405 H   0  0  0  0  0  0
  -28.2585  -38.0099   24.7528 H   0  0  0  0  0  0
  -28.1093  -36.2626   24.6263 H   0  0  0  0  0  0
  -27.2303  -37.1404   25.8866 H   0  0  0  0  0  0
  -20.9366  -29.8781   21.6876 H   0  0  0  0  0  0
  -26.0165  -38.2841   24.1448 H   0  0  0  0  0  0
  -29.0608  -24.1587   22.5575 H   0  0  0  0  0  0
  -28.9045  -25.9029   22.6035 H   0  0  0  0  0  0
  -30.1936  -25.1711   21.6582 H   0  0  0  0  0  0
  -27.2028  -24.9060   21.0968 H   0  0  0  0  0  0
  -28.7555  -15.4764   20.7661 H   0  0  0  0  0  0
  -29.0192  -22.3171   21.3370 H   0  0  0  0  0  0
  -28.5290  -20.3049   17.8421 H   0  0  0  0  0  0
  -28.2612  -22.0209   17.9190 H   0  0  0  0  0  0
  1 25  1  0  0  0
  1 30  2  0  0  0
  1 79  1  0  0  0
  2  3  1  0  0  0
  2 25  1  0  0  0
  2 85  1  0  0  0
  2 86  1  0  0  0
  3  4  1  0  0  0
  3 87  1  0  0  0
  3 88  1  0  0  0
  4  5  1  0  0  0
  4 89  1  0  0  0
  4 90  1  0  0  0
  5  6  1  0  0  0
  5 26  1  0  0  0
  5 91  1  0  0  0
  6 25  1  0  0  0
  6 92  1  0  0  0
  6 93  1  0  0  0
  7  8  2  0  0  0
  7 26  1  0  0  0
  7 29  1  0  0  0
  8  9  1  0  0  0
  8 22  1  0  0  0
  9 10  1  0  0  0
  9 27  2  0  0  0
 10 11  2  0  0  0
 10 15  1  0  0  0
 11 12  1  0  0  0
 11 94  1  0  0  0
 12 13  2  0  0  0
 12 95  1  0  0  0
 13 14  1  0  0  0
 13 31  1  0  0  0
 14 15  2  0  0  0
 14 96  1  0  0  0
 15 97  1  0  0  0
 16 17  2  0  0  0
 16 21  1  0  0  0
 16 31  1  0  0  0
 17 18  1  0  0  0
 17 98  1  0  0  0
 18 19  2  0  0  0
 18 99  1  0  0  0
 19 20  1  0  0  0
 19 24  1  0  0  0
 20 21  2  0  0  0
 20100  1  0  0  0
 21 23  1  0  0  0
 22 28  1  0  0  0
 22 32  2  0  0  0
 26 27  1  0  0  0
 28101  1  0  0  0
 28102  1  0  0  0
 29103  1  0  0  0
 29104  1  0  0  0
 33 34  1  0  0  0
 33 66  1  0  0  0
 33 70  2  0  0  0
 34 36  1  0  0  0
 34 59  1  0  0  0
 34105  1  0  0  0
 35 44  2  0  0  0
 35 45  1  0  0  0
 35 68  1  0  0  0
 36 56  1  0  0  0
 36106  1  0  0  0
 37 39  1  0  0  0
 37 47  1  0  0  0
 37 66  1  0  0  0
 37107  1  0  0  0
 38 43  2  0  0  0
 38 46  1  0  0  0
 38 47  1  0  0  0
 39 64  1  0  0  0
 39 67  2  0  0  0
 40 52  1  0  0  0
 40 53  2  0  0  0
 40 58  1  0  0  0
 41108  1  0  0  0
 41109  1  0  0  0
 41110  1  0  0  0
 41 48  1  0  0  0
 42 43  1  0  0  0
 42 66  1  0  0  0
 42111  1  0  0  0
 42112  1  0  0  0
 43 44  1  0  0  0
 44113  1  0  0  0
 45 46  2  0  0  0
 45114  1  0  0  0
 46115  1  0  0  0
 47116  1  0  0  0
 47117  1  0  0  0
 48 56  1  0  0  0
 48 65  1  0  0  0
 48118  1  0  0  0
 49 50  1  0  0  0
 49 53  1  0  0  0
 49 64  1  0  0  0
 49119  1  0  0  0
 50 51  1  0  0  0
 50120  1  0  0  0
 50121  1  0  0  0
 51 52  1  0  0  0
 51122  1  0  0  0
 51123  1  0  0  0
 52124  1  0  0  0
 52125  1  0  0  0
 53 54  1  0  0  0
 54 55  2  0  0  0
 54126  1  0  0  0
 55 57  1  0  0  0
 55127  1  0  0  0
 56 69  2  0  0  0
 57 58  2  0  0  0
 57128  1  0  0  0
 58129  1  0  0  0
 59 60  1  0  0  0
 59 61  1  0  0  0
 59 62  1  0  0  0
 60130  1  0  0  0
 60131  1  0  0  0
 60132  1  0  0  0
 61133  1  0  0  0
 61134  1  0  0  0
 61135  1  0  0  0
 62136  1  0  0  0
 62137  1  0  0  0
 62138  1  0  0  0
 63 65  1  0  0  0
 63139  1  0  0  0
 63140  1  0  0  0
 63141  1  0  0  0
 64142  1  0  0  0
 65143  1  0  0  0
 68 77  1  0  0  0
 71 72  2  0  0  0
 71 74  1  0  0  0
 71 84  1  0  0  0
 72 78  1  0  0  0
 72 83  1  0  0  0
 73 78  2  0  0  0
 73 79  1  0  0  0
 73 84  1  0  0  0
 74 80  1  0  0  0
 74 81  2  0  0  0
 75 77  1  0  0  0
 75 80  1  0  0  0
 75 82  2  0  0  0
 76144  1  0  0  0
 76145  1  0  0  0
 76146  1  0  0  0
 76 77  1  0  0  0
 77147  1  0  0  0
 79148  1  0  0  0
 80149  1  0  0  0
 81150  1  0  0  0
 81151  1  0  0  0
M  CHG  1  81   1
M  ISO  4   1 100  68 101  77 101  79 100
M  END
> <chiral flag>
0

> <version>
0

> <s_m_source_file>
/data/baiqing/PycharmProjects/Reinvent-master-3.2/result/LINK_invent/BTK/process_docking_weight1_custom_product_contain_oxygen_bond_distance_aromatic_linkinvent_7_9_3/rearranged_h_0180.sdf

> <i_m_source_file_index>
13

> <r_mmod_Potential_Energy-OPLS-2005>
-84.4032211303711

> <r_mmod_Stretch_Energy-OPLS-2005>
114.050071716309

> <r_mmod_Bend_Energy-OPLS-2005>
169.098907470703

> <r_mmod_Torsional_Energy-OPLS-2005>
249.601196289062

> <r_mmod_Improper_Torsional_Energy-OPLS-2005>
7.29040861129761

> <r_mmod_Van_der_Waal_Energy-OPLS-2005>
120.307167053223

> <r_mmod_Electrostatic_Energy-OPLS-2005>
-316.4580078125

> <r_mmod_Solvation_Energy-OPLS-2005>
-507.016357421875

> <b_mmod_Minimization_Converged-OPLS-2005>
0

> <r_mmod_RMS_Derivative-OPLS-2005>
1.31538128852844

$$$$
13
                    3D
 Structure written by MMmdl.
152160  0  0  1  0            999 V2000
  -30.6724  -14.5019   20.5646 C   0  0  0  0  0  0
  -30.4322  -12.3172   19.4328 C   0  0  0  0  0  0
  -29.5030  -12.5073   18.2143 C   0  0  0  0  0  0
  -28.0237  -12.3632   18.6234 C   0  0  0  0  0  0
  -27.6655  -13.2041   19.8775 C   0  0  2  0  0  0
  -28.7049  -12.9836   21.0000 C   0  0  0  0  0  0
  -25.2617  -13.8162   20.5684 C   0  0  0  0  0  0
  -24.1858  -13.0439   20.9162 C   0  0  0  0  0  0
  -24.6402  -11.6903   20.8718 C   0  0  0  0  0  0
  -23.9056  -10.4294   21.0393 C   0  0  0  0  0  0
  -24.3607   -9.4211   21.9178 C   0  0  0  0  0  0
  -23.6283   -8.2246   22.0748 C   0  0  0  0  0  0
  -22.4268   -8.0286   21.3542 C   0  0  0  0  0  0
  -21.9892   -9.0257   20.4645 C   0  0  0  0  0  0
  -22.7219  -10.2135   20.3051 C   0  0  0  0  0  0
  -21.6856   -6.0736   22.5280 C   0  0  0  0  0  0
  -21.4019   -6.5641   23.8214 C   0  0  0  0  0  0
  -21.3657   -5.6792   24.9174 C   0  0  0  0  0  0
  -21.6043   -4.3056   24.7227 C   0  0  0  0  0  0
  -21.8819   -3.8143   23.4350 C   0  0  0  0  0  0
  -21.9190   -4.6959   22.3400 C   0  0  0  0  0  0
  -22.7879  -13.5243   21.1829 C   0  0  0  0  0  0
  -22.1665   -4.2145   21.0981 F   0  0  0  0  0  0
  -21.5611   -3.4542   25.7739 F   0  0  0  0  0  0
  -30.0385  -13.2995   20.4558 N   0  0  0  0  0  0
  -26.3045  -12.9318   20.3365 N   0  0  0  0  0  0
  -25.9330  -11.6485   20.5756 N   0  0  0  0  0  0
  -22.0516  -12.8248   22.0393 N   0  0  0  0  0  0
  -25.4365  -15.1885   20.4132 N   0  0  0  0  0  0
  -31.7855  -14.7163   20.0738 O   0  0  0  0  0  0
  -21.6638   -6.8878   21.4244 O   0  0  0  0  0  0
  -22.3571  -14.5554   20.6680 O   0  0  0  0  0  0
  -24.6154  -31.8664   23.2092 C   0  0  0  0  0  0
  -25.9040  -32.4820   23.8392 C   0  0  1  0  0  0
  -27.2335  -27.4209   20.1131 C   0  0  0  0  0  0
  -25.5886  -33.8618   24.2325 N   0  0  0  0  0  0
  -23.4056  -30.4881   21.5492 C   0  0  2  0  0  0
  -24.8557  -28.9555   20.1120 C   0  0  0  0  0  0
  -22.7423  -29.4638   22.4984 C   0  0  0  0  0  0
  -18.0272  -28.1374   22.8498 C   0  0  0  0  0  0
  -24.1485  -36.7320   23.2648 C   0  0  0  0  0  0
  -25.9352  -30.8316   21.3625 C   0  0  0  0  0  0
  -26.0162  -29.4647   20.7106 C   0  0  0  0  0  0
  -27.2118  -28.7054   20.7063 C   0  0  0  0  0  0
  -26.0613  -26.9351   19.4965 C   0  0  0  0  0  0
  -24.8741  -27.6908   19.4986 C   0  0  0  0  0  0
  -23.6155  -29.8204   20.1637 C   0  0  0  0  0  0
  -25.4111  -36.3116   24.0341 C   0  0  1  0  0  0
  -20.5865  -28.3659   23.1328 C   0  0  2  0  0  0
  -20.6764  -26.9394   22.5428 C   0  0  0  0  0  0
  -19.5740  -26.6381   21.5226 C   0  0  0  0  0  0
  -18.1918  -26.7922   22.1632 C   0  0  0  0  0  0
  -19.1523  -28.8837   23.2909 C   0  0  0  0  0  0
  -18.9450  -30.1443   23.8919 C   0  0  0  0  0  0
  -17.6451  -30.6578   24.0569 C   0  0  0  0  0  0
  -25.9027  -34.9475   23.5131 C   0  0  0  0  0  0
  -16.5341  -29.9085   23.6325 C   0  0  0  0  0  0
  -16.7260  -28.6500   23.0351 C   0  0  0  0  0  0
  -26.4472  -31.6600   25.0717 C   0  0  0  0  0  0
  -25.3746  -31.3712   26.1473 C   0  0  0  0  0  0
  -27.0296  -30.3041   24.6085 C   0  0  0  0  0  0
  -27.6052  -32.4322   25.7464 C   0  0  0  0  0  0
  -27.5569  -37.1833   24.8479 C   0  0  0  0  0  0
  -21.4148  -29.3021   22.3725 N   0  0  0  0  0  0
  -26.4311  -37.3781   23.9377 N   0  0  0  0  0  0
  -24.6705  -31.0761   22.0992 N   0  0  0  0  0  0
  -23.4189  -28.8185   23.3034 O   0  0  0  0  0  0
  -28.3609  -26.6218   20.1496 O   0  0  0  0  0  0
  -26.5596  -34.8928   22.4697 O   0  0  0  0  0  0
  -23.5344  -32.1411   23.7483 O   0  0  0  0  0  0
  -30.6926  -17.6248   20.1289 C   0  0  0  0  0  0
  -30.3346  -19.0141   20.1911 C   0  0  0  0  0  0
  -29.3385  -19.3099   21.0842 C   0  0  0  0  0  0
  -29.9539  -16.8242   20.9779 C   0  0  0  0  0  0
  -28.6628  -20.5689   21.4715 C   0  0  0  0  0  0
  -28.1720  -22.7969   20.7606 C   0  0  0  0  0  0
  -28.8308  -25.7084   22.3240 C   0  0  0  0  0  0
  -28.8074  -24.1328   20.2854 C   0  0  0  0  0  0
  -28.2093  -25.4203   20.9477 C   0  0  2  0  0  0
  -29.9526  -15.4679   21.1757 N   0  0  0  0  0  0
  -27.8476  -20.5598   22.4063 O   0  0  0  0  0  0
  -26.9717  -22.7784   21.0654 O   0  0  0  0  0  0
  -29.0360  -21.6971   20.7340 O   0  0  0  0  0  0
  -30.9307  -19.9119   19.4395 F   0  0  0  0  0  0
  -28.8189  -17.8268   21.8685 S   0  0  0  0  0  0
  -31.4771  -12.4210   19.1350 H   0  0  0  0  0  0
  -30.3376  -11.3058   19.8310 H   0  0  0  0  0  0
  -29.7459  -11.7810   17.4375 H   0  0  0  0  0  0
  -29.6709  -13.4924   17.7749 H   0  0  0  0  0  0
  -27.8383  -11.3068   18.8227 H   0  0  0  0  0  0
  -27.3741  -12.6332   17.7900 H   0  0  0  0  0  0
  -27.7085  -14.2520   19.5788 H   0  0  0  0  0  0
  -28.6863  -11.9452   21.3343 H   0  0  0  0  0  0
  -28.4557  -13.5728   21.8833 H   0  0  0  0  0  0
  -25.2754   -9.5685   22.4755 H   0  0  0  0  0  0
  -23.9990   -7.4637   22.7468 H   0  0  0  0  0  0
  -21.0815   -8.8774   19.8965 H   0  0  0  0  0  0
  -22.3673  -10.9672   19.6163 H   0  0  0  0  0  0
  -21.2035   -7.6152   23.9719 H   0  0  0  0  0  0
  -21.1470   -6.0524   25.9076 H   0  0  0  0  0  0
  -22.0602   -2.7603   23.2855 H   0  0  0  0  0  0
  -22.4112  -11.9913   22.4803 H   0  0  0  0  0  0
  -21.1140  -13.1302   22.2597 H   0  0  0  0  0  0
  -24.6744  -15.8476   20.5285 H   0  0  0  0  0  0
  -26.2959  -15.6268   20.1046 H   0  0  0  0  0  0
  -26.7116  -32.5543   23.1167 H   0  0  0  0  0  0
  -25.0020  -33.9765   25.0458 H   0  0  0  0  0  0
  -22.6944  -31.3047   21.4101 H   0  0  0  0  0  0
  -23.3703  -35.9705   23.3410 H   0  0  0  0  0  0
  -24.3557  -36.8827   22.2042 H   0  0  0  0  0  0
  -23.7300  -37.6586   23.6591 H   0  0  0  0  0  0
  -26.0456  -31.5968   20.5927 H   0  0  0  0  0  0
  -26.8241  -30.8902   21.9788 H   0  0  0  0  0  0
  -28.1050  -29.0860   21.1822 H   0  0  0  0  0  0
  -26.0630  -25.9593   19.0311 H   0  0  0  0  0  0
  -23.9830  -27.2928   19.0328 H   0  0  0  0  0  0
  -23.7200  -30.5953   19.4037 H   0  0  0  0  0  0
  -22.7408  -29.2373   19.8692 H   0  0  0  0  0  0
  -25.1296  -36.2006   25.0837 H   0  0  0  0  0  0
  -20.9959  -28.3232   24.1450 H   0  0  0  0  0  0
  -20.5674  -26.2264   23.3612 H   0  0  0  0  0  0
  -21.6634  -26.7439   22.1218 H   0  0  0  0  0  0
  -19.6900  -25.6300   21.1234 H   0  0  0  0  0  0
  -19.6681  -27.3209   20.6775 H   0  0  0  0  0  0
  -17.4190  -26.6682   21.4031 H   0  0  0  0  0  0
  -18.0308  -26.0061   22.9017 H   0  0  0  0  0  0
  -19.7926  -30.7261   24.2299 H   0  0  0  0  0  0
  -17.5001  -31.6261   24.5165 H   0  0  0  0  0  0
  -15.5343  -30.2992   23.7638 H   0  0  0  0  0  0
  -15.8659  -28.0823   22.7062 H   0  0  0  0  0  0
  -24.5887  -30.7100   25.7807 H   0  0  0  0  0  0
  -24.8980  -32.2875   26.4966 H   0  0  0  0  0  0
  -25.8097  -30.8831   27.0202 H   0  0  0  0  0  0
  -26.2831  -29.6801   24.1158 H   0  0  0  0  0  0
  -27.4093  -29.7282   25.4534 H   0  0  0  0  0  0
  -27.8654  -30.4360   23.9212 H   0  0  0  0  0  0
  -27.2669  -33.3599   26.2091 H   0  0  0  0  0  0
  -28.3821  -32.6924   25.0264 H   0  0  0  0  0  0
  -28.0766  -31.8425   26.5335 H   0  0  0  0  0  0
  -28.2680  -38.0034   24.7396 H   0  0  0  0  0  0
  -28.0968  -36.2567   24.6473 H   0  0  0  0  0  0
  -27.2267  -37.1693   25.8881 H   0  0  0  0  0  0
  -20.9312  -29.8741   21.6942 H   0  0  0  0  0  0
  -26.0214  -38.2885   24.1290 H   0  0  0  0  0  0
  -31.4608  -17.2759   19.4547 H   0  0  0  0  0  0
  -28.7282  -24.8548   22.9944 H   0  0  0  0  0  0
  -28.3466  -26.5599   22.8031 H   0  0  0  0  0  0
  -29.8926  -25.9395   22.2384 H   0  0  0  0  0  0
  -28.6478  -24.1858   19.2095 H   0  0  0  0  0  0
  -29.8860  -24.0958   20.4361 H   0  0  0  0  0  0
  -27.1484  -25.2429   21.1328 H   0  0  0  0  0  0
  -29.1564  -15.1123   21.6856 H   0  0  0  0  0  0
  1 25  1  0  0  0
  1 30  2  0  0  0
  1 80  1  0  0  0
  2  3  1  0  0  0
  2 25  1  0  0  0
  2 86  1  0  0  0
  2 87  1  0  0  0
  3  4  1  0  0  0
  3 88  1  0  0  0
  3 89  1  0  0  0
  4  5  1  0  0  0
  4 90  1  0  0  0
  4 91  1  0  0  0
  5  6  1  0  0  0
  5 26  1  0  0  0
  5 92  1  0  0  0
  6 25  1  0  0  0
  6 93  1  0  0  0
  6 94  1  0  0  0
  7  8  2  0  0  0
  7 26  1  0  0  0
  7 29  1  0  0  0
  8  9  1  0  0  0
  8 22  1  0  0  0
  9 10  1  0  0  0
  9 27  2  0  0  0
 10 11  2  0  0  0
 10 15  1  0  0  0
 11 12  1  0  0  0
 11 95  1  0  0  0
 12 13  2  0  0  0
 12 96  1  0  0  0
 13 14  1  0  0  0
 13 31  1  0  0  0
 14 15  2  0  0  0
 14 97  1  0  0  0
 15 98  1  0  0  0
 16 17  2  0  0  0
 16 21  1  0  0  0
 16 31  1  0  0  0
 17 18  1  0  0  0
 17 99  1  0  0  0
 18 19  2  0  0  0
 18100  1  0  0  0
 19 20  1  0  0  0
 19 24  1  0  0  0
 20 21  2  0  0  0
 20101  1  0  0  0
 21 23  1  0  0  0
 22 28  1  0  0  0
 22 32  2  0  0  0
 26 27  1  0  0  0
 28102  1  0  0  0
 28103  1  0  0  0
 29104  1  0  0  0
 29105  1  0  0  0
 33 34  1  0  0  0
 33 66  1  0  0  0
 33 70  2  0  0  0
 34 36  1  0  0  0
 34 59  1  0  0  0
 34106  1  0  0  0
 35 44  2  0  0  0
 35 45  1  0  0  0
 35 68  1  0  0  0
 36 56  1  0  0  0
 36107  1  0  0  0
 37 39  1  0  0  0
 37 47  1  0  0  0
 37 66  1  0  0  0
 37108  1  0  0  0
 38 43  2  0  0  0
 38 46  1  0  0  0
 38 47  1  0  0  0
 39 64  1  0  0  0
 39 67  2  0  0  0
 40 52  1  0  0  0
 40 53  2  0  0  0
 40 58  1  0  0  0
 41109  1  0  0  0
 41110  1  0  0  0
 41111  1  0  0  0
 41 48  1  0  0  0
 42 43  1  0  0  0
 42 66  1  0  0  0
 42112  1  0  0  0
 42113  1  0  0  0
 43 44  1  0  0  0
 44114  1  0  0  0
 45 46  2  0  0  0
 45115  1  0  0  0
 46116  1  0  0  0
 47117  1  0  0  0
 47118  1  0  0  0
 48 56  1  0  0  0
 48 65  1  0  0  0
 48119  1  0  0  0
 49 50  1  0  0  0
 49 53  1  0  0  0
 49 64  1  0  0  0
 49120  1  0  0  0
 50 51  1  0  0  0
 50121  1  0  0  0
 50122  1  0  0  0
 51 52  1  0  0  0
 51123  1  0  0  0
 51124  1  0  0  0
 52125  1  0  0  0
 52126  1  0  0  0
 53 54  1  0  0  0
 54 55  2  0  0  0
 54127  1  0  0  0
 55 57  1  0  0  0
 55128  1  0  0  0
 56 69  2  0  0  0
 57 58  2  0  0  0
 57129  1  0  0  0
 58130  1  0  0  0
 59 60  1  0  0  0
 59 61  1  0  0  0
 59 62  1  0  0  0
 60131  1  0  0  0
 60132  1  0  0  0
 60133  1  0  0  0
 61134  1  0  0  0
 61135  1  0  0  0
 61136  1  0  0  0
 62137  1  0  0  0
 62138  1  0  0  0
 62139  1  0  0  0
 63 65  1  0  0  0
 63140  1  0  0  0
 63141  1  0  0  0
 63142  1  0  0  0
 64143  1  0  0  0
 65144  1  0  0  0
 68 79  1  0  0  0
 71 72  1  0  0  0
 71 74  2  0  0  0
 71145  1  0  0  0
 72 73  2  0  0  0
 72 84  1  0  0  0
 73 75  1  0  0  0
 73 85  1  0  0  0
 74 80  1  0  0  0
 74 85  1  0  0  0
 75 81  2  0  0  0
 75 83  1  0  0  0
 76 78  1  0  0  0
 76 82  2  0  0  0
 76 83  1  0  0  0
 77146  1  0  0  0
 77147  1  0  0  0
 77148  1  0  0  0
 77 79  1  0  0  0
 78 79  1  0  0  0
 78149  1  0  0  0
 78150  1  0  0  0
 79151  1  0  0  0
 80152  1  0  0  0
M  ISO  4   1 100  68 101  79 101  80 100
M  END
> <chiral flag>
0

> <version>
0

> <s_m_source_file>
/data/baiqing/PycharmProjects/Reinvent-master-3.2/result/LINK_invent/BTK/process_docking_weight1_custom_product_contain_oxygen_bond_distance_aromatic_linkinvent_7_9_3/rearranged_h_0180.sdf

> <i_m_source_file_index>
14

> <r_mmod_Potential_Energy-OPLS-2005>
-50.7759437561035

> <r_mmod_Stretch_Energy-OPLS-2005>
49.5594215393066

> <r_mmod_Bend_Energy-OPLS-2005>
110.581840515137

> <r_mmod_Torsional_Energy-OPLS-2005>
236.054840087891

> <r_mmod_Improper_Torsional_Energy-OPLS-2005>
3.53412318229675

> <r_mmod_Van_der_Waal_Energy-OPLS-2005>
142.207565307617

> <r_mmod_Electrostatic_Energy-OPLS-2005>
-388.322540283203

> <r_mmod_Solvation_Energy-OPLS-2005>
-221.095779418945

> <b_mmod_Minimization_Converged-OPLS-2005>
0

> <r_mmod_RMS_Derivative-OPLS-2005>
1.42001461982727

$$$$
14
                    3D
 Structure written by MMmdl.
162170  0  0  1  0            999 V2000
  -30.6749  -14.4966   20.6116 C   0  0  0  0  0  0
  -30.4311  -12.3263   19.4484 C   0  0  0  0  0  0
  -29.5093  -12.5237   18.2253 C   0  0  0  0  0  0
  -28.0262  -12.3822   18.6230 C   0  0  0  0  0  0
  -27.6660  -13.2131   19.8856 C   0  0  2  0  0  0
  -28.7011  -12.9843   21.0124 C   0  0  0  0  0  0
  -25.2596  -13.8163   20.5697 C   0  0  0  0  0  0
  -24.1844  -13.0440   20.9184 C   0  0  0  0  0  0
  -24.6402  -11.6902   20.8725 C   0  0  0  0  0  0
  -23.9061  -10.4284   21.0415 C   0  0  0  0  0  0
  -24.3610   -9.4203   21.9182 C   0  0  0  0  0  0
  -23.6281   -8.2247   22.0740 C   0  0  0  0  0  0
  -22.4263   -8.0302   21.3546 C   0  0  0  0  0  0
  -21.9916   -9.0262   20.4633 C   0  0  0  0  0  0
  -22.7233  -10.2146   20.3049 C   0  0  0  0  0  0
  -21.6861   -6.0756   22.5278 C   0  0  0  0  0  0
  -21.4018   -6.5651   23.8213 C   0  0  0  0  0  0
  -21.3654   -5.6802   24.9174 C   0  0  0  0  0  0
  -21.6035   -4.3063   24.7212 C   0  0  0  0  0  0
  -21.8825   -3.8159   23.4339 C   0  0  0  0  0  0
  -21.9196   -4.6984   22.3399 C   0  0  0  0  0  0
  -22.7860  -13.5243   21.1869 C   0  0  0  0  0  0
  -22.1678   -4.2184   21.0982 F   0  0  0  0  0  0
  -21.5607   -3.4532   25.7713 F   0  0  0  0  0  0
  -30.0381  -13.2975   20.4847 N   0  0  0  0  0  0
  -26.3038  -12.9355   20.3379 N   0  0  0  0  0  0
  -25.9331  -11.6521   20.5760 N   0  0  0  0  0  0
  -22.0496  -12.8244   22.0432 N   0  0  0  0  0  0
  -25.4324  -15.1871   20.4068 N   0  0  0  0  0  0
  -31.7501  -14.7372   20.0504 O   0  0  0  0  0  0
  -21.6642   -6.8904   21.4243 O   0  0  0  0  0  0
  -22.3539  -14.5564   20.6732 O   0  0  0  0  0  0
  -24.6171  -31.8672   23.2067 C   0  0  0  0  0  0
  -25.9056  -32.4807   23.8387 C   0  0  1  0  0  0
  -27.2374  -27.4119   20.1145 C   0  0  0  0  0  0
  -25.5910  -33.8604   24.2305 N   0  0  0  0  0  0
  -23.4056  -30.4918   21.5450 C   0  0  2  0  0  0
  -24.8529  -28.9454   20.1203 C   0  0  0  0  0  0
  -22.7419  -29.4657   22.4934 C   0  0  0  0  0  0
  -18.0293  -28.1380   22.8478 C   0  0  0  0  0  0
  -24.1468  -36.7289   23.2636 C   0  0  0  0  0  0
  -25.9356  -30.8263   21.3629 C   0  0  0  0  0  0
  -26.0137  -29.4572   20.7160 C   0  0  0  0  0  0
  -27.2124  -28.7013   20.7028 C   0  0  0  0  0  0
  -26.0591  -26.9127   19.5232 C   0  0  0  0  0  0
  -24.8708  -27.6732   19.5202 C   0  0  0  0  0  0
  -23.6169  -29.8174   20.1627 C   0  0  0  0  0  0
  -25.4093  -36.3079   24.0325 C   0  0  1  0  0  0
  -20.5877  -28.3669   23.1292 C   0  0  2  0  0  0
  -20.6763  -26.9396   22.5407 C   0  0  0  0  0  0
  -19.5735  -26.6390   21.5203 C   0  0  0  0  0  0
  -18.1928  -26.7938   22.1618 C   0  0  0  0  0  0
  -19.1533  -28.8841   23.2898 C   0  0  0  0  0  0
  -18.9460  -30.1451   23.8901 C   0  0  0  0  0  0
  -17.6462  -30.6580   24.0570 C   0  0  0  0  0  0
  -25.9040  -34.9456   23.5112 C   0  0  0  0  0  0
  -16.5359  -29.9084   23.6323 C   0  0  0  0  0  0
  -16.7287  -28.6502   23.0347 C   0  0  0  0  0  0
  -26.4483  -31.6590   25.0730 C   0  0  0  0  0  0
  -25.3732  -31.3722   26.1468 C   0  0  0  0  0  0
  -27.0303  -30.3010   24.6149 C   0  0  0  0  0  0
  -27.6059  -32.4310   25.7517 C   0  0  0  0  0  0
  -27.5562  -37.1803   24.8474 C   0  0  0  0  0  0
  -21.4140  -29.3048   22.3699 N   0  0  0  0  0  0
  -26.4266  -37.3777   23.9424 N   0  0  0  0  0  0
  -24.6712  -31.0765   22.0968 N   0  0  0  0  0  0
  -23.4165  -28.8197   23.2995 O   0  0  0  0  0  0
  -28.3972  -26.6636   20.0494 O   0  0  0  0  0  0
  -26.5585  -34.8923   22.4660 O   0  0  0  0  0  0
  -23.5367  -32.1419   23.7469 O   0  0  0  0  0  0
  -28.8112  -18.3346   19.5720 C   0  0  0  0  0  0
  -28.8420  -19.1139   20.7227 C   0  0  0  0  0  0
  -29.7002  -16.7544   20.9817 C   0  0  0  0  0  0
  -28.7065  -21.4963   20.1600 C   0  0  0  0  0  0
  -29.7832  -25.9821   21.7799 C   0  0  0  0  0  0
  -26.8519  -22.7392   21.4560 C   0  0  0  0  0  0
  -26.9532  -22.7357   18.9504 C   0  0  0  0  0  0
  -28.7192  -24.1352   20.2741 C   0  0  0  0  0  0
  -28.5404  -25.5539   20.9734 C   0  0  2  0  0  0
  -28.2378  -18.6496   18.2093 C   0  0  0  0  0  0
  -27.8256  -22.8006   20.2448 C   0  0  0  0  0  0
  -29.3652  -17.0468   19.7279 N   0  0  0  0  0  0
  -28.4020  -20.4059   20.9111 N   0  0  0  0  0  0
  -30.0515  -15.4246   21.3742 N   0  0  0  0  0  0
  -29.6557  -21.4704   19.3761 O   0  0  0  0  0  0
  -27.3221  -19.6140   18.2357 F   0  0  0  0  0  0
  -29.1926  -19.0067   17.3521 F   0  0  0  0  0  0
  -27.6257  -17.5760   17.6965 F   0  0  0  0  0  0
  -29.4124  -18.1204   22.0730 S   0  0  0  0  0  0
  -31.4797  -12.4274   19.1583 H   0  0  0  0  0  0
  -30.3336  -11.3144   19.8428 H   0  0  0  0  0  0
  -29.7607  -11.8016   17.4446 H   0  0  0  0  0  0
  -29.6807  -13.5106   17.7970 H   0  0  0  0  0  0
  -27.8270  -11.3246   18.8036 H   0  0  0  0  0  0
  -27.3866  -12.6761   17.7897 H   0  0  0  0  0  0
  -27.7119  -14.2634   19.5995 H   0  0  0  0  0  0
  -28.6804  -11.9462   21.3454 H   0  0  0  0  0  0
  -28.4429  -13.5732   21.8944 H   0  0  0  0  0  0
  -25.2762   -9.5689   22.4734 H   0  0  0  0  0  0
  -23.9996   -7.4652   22.7461 H   0  0  0  0  0  0
  -21.0850   -8.8770   19.8933 H   0  0  0  0  0  0
  -22.3693  -10.9673   19.6146 H   0  0  0  0  0  0
  -21.2019   -7.6157   23.9733 H   0  0  0  0  0  0
  -21.1473   -6.0524   25.9085 H   0  0  0  0  0  0
  -22.0610   -2.7624   23.2815 H   0  0  0  0  0  0
  -22.4089  -11.9873   22.4816 H   0  0  0  0  0  0
  -21.1096  -13.1249   22.2601 H   0  0  0  0  0  0
  -24.6703  -15.8459   20.5170 H   0  0  0  0  0  0
  -26.2712  -15.6135   20.0357 H   0  0  0  0  0  0
  -26.7130  -32.5513   23.1164 H   0  0  0  0  0  0
  -25.0104  -33.9769   25.0481 H   0  0  0  0  0  0
  -22.6930  -31.3083   21.4024 H   0  0  0  0  0  0
  -23.3734  -35.9624   23.3327 H   0  0  0  0  0  0
  -24.3568  -36.8876   22.2048 H   0  0  0  0  0  0
  -23.7220  -37.6503   23.6638 H   0  0  0  0  0  0
  -26.0550  -31.5893   20.5923 H   0  0  0  0  0  0
  -26.8201  -30.8762   21.9856 H   0  0  0  0  0  0
  -28.1150  -29.1013   21.1421 H   0  0  0  0  0  0
  -26.0578  -25.9386   19.0551 H   0  0  0  0  0  0
  -23.9793  -27.2769   19.0551 H   0  0  0  0  0  0
  -23.7274  -30.5889   19.3999 H   0  0  0  0  0  0
  -22.7397  -29.2405   19.8657 H   0  0  0  0  0  0
  -25.1273  -36.1940   25.0818 H   0  0  0  0  0  0
  -21.0001  -28.3258   24.1394 H   0  0  0  0  0  0
  -20.5662  -26.2281   23.3601 H   0  0  0  0  0  0
  -21.6648  -26.7432   22.1208 H   0  0  0  0  0  0
  -19.6922  -25.6310   21.1219 H   0  0  0  0  0  0
  -19.6708  -27.3202   20.6733 H   0  0  0  0  0  0
  -17.4215  -26.6687   21.4022 H   0  0  0  0  0  0
  -18.0349  -26.0065   22.8992 H   0  0  0  0  0  0
  -19.7940  -30.7277   24.2261 H   0  0  0  0  0  0
  -17.5022  -31.6271   24.5173 H   0  0  0  0  0  0
  -15.5358  -30.3001   23.7647 H   0  0  0  0  0  0
  -15.8674  -28.0845   22.7034 H   0  0  0  0  0  0
  -24.5919  -30.7047   25.7817 H   0  0  0  0  0  0
  -24.8897  -32.2874   26.4900 H   0  0  0  0  0  0
  -25.8067  -30.8913   27.0241 H   0  0  0  0  0  0
  -26.2829  -29.6802   24.1174 H   0  0  0  0  0  0
  -27.3999  -29.7259   25.4663 H   0  0  0  0  0  0
  -27.8723  -30.4325   23.9331 H   0  0  0  0  0  0
  -27.2674  -33.3608   26.2120 H   0  0  0  0  0  0
  -28.3869  -32.6876   25.0338 H   0  0  0  0  0  0
  -28.0712  -31.8399   26.5424 H   0  0  0  0  0  0
  -28.2595  -38.0090   24.7512 H   0  0  0  0  0  0
  -28.1030  -36.2624   24.6289 H   0  0  0  0  0  0
  -27.2285  -37.1436   25.8879 H   0  0  0  0  0  0
  -20.9285  -29.8751   21.6910 H   0  0  0  0  0  0
  -26.0151  -38.2848   24.1463 H   0  0  0  0  0  0
  -29.6176  -26.9416   22.2708 H   0  0  0  0  0  0
  -30.6497  -26.0992   21.1289 H   0  0  0  0  0  0
  -30.0515  -25.2640   22.5550 H   0  0  0  0  0  0
  -26.2295  -23.6359   21.4909 H   0  0  0  0  0  0
  -27.3801  -22.6719   22.4084 H   0  0  0  0  0  0
  -26.1696  -21.8902   21.3913 H   0  0  0  0  0  0
  -26.1988  -23.5235   18.9166 H   0  0  0  0  0  0
  -26.4034  -21.7992   18.8731 H   0  0  0  0  0  0
  -27.5646  -22.8315   18.0504 H   0  0  0  0  0  0
  -27.8356  -24.5744   19.8316 H   0  0  0  0  0  0
  -28.9854  -23.8126   21.2794 H   0  0  0  0  0  0
  -27.6958  -25.5298   21.6687 H   0  0  0  0  0  0
  -27.7294  -20.5565   21.6541 H   0  0  0  0  0  0
  -29.4305  -15.0361   22.0694 H   0  0  0  0  0  0
  1 25  1  0  0  0
  1 30  2  0  0  0
  1 84  1  0  0  0
  2  3  1  0  0  0
  2 25  1  0  0  0
  2 90  1  0  0  0
  2 91  1  0  0  0
  3  4  1  0  0  0
  3 92  1  0  0  0
  3 93  1  0  0  0
  4  5  1  0  0  0
  4 94  1  0  0  0
  4 95  1  0  0  0
  5  6  1  0  0  0
  5 26  1  0  0  0
  5 96  1  0  0  0
  6 25  1  0  0  0
  6 97  1  0  0  0
  6 98  1  0  0  0
  7  8  2  0  0  0
  7 26  1  0  0  0
  7 29  1  0  0  0
  8  9  1  0  0  0
  8 22  1  0  0  0
  9 10  1  0  0  0
  9 27  2  0  0  0
 10 11  2  0  0  0
 10 15  1  0  0  0
 11 12  1  0  0  0
 11 99  1  0  0  0
 12 13  2  0  0  0
 12100  1  0  0  0
 13 14  1  0  0  0
 13 31  1  0  0  0
 14 15  2  0  0  0
 14101  1  0  0  0
 15102  1  0  0  0
 16 17  2  0  0  0
 16 21  1  0  0  0
 16 31  1  0  0  0
 17 18  1  0  0  0
 17103  1  0  0  0
 18 19  2  0  0  0
 18104  1  0  0  0
 19 20  1  0  0  0
 19 24  1  0  0  0
 20 21  2  0  0  0
 20105  1  0  0  0
 21 23  1  0  0  0
 22 28  1  0  0  0
 22 32  2  0  0  0
 26 27  1  0  0  0
 28106  1  0  0  0
 28107  1  0  0  0
 29108  1  0  0  0
 29109  1  0  0  0
 33 34  1  0  0  0
 33 66  1  0  0  0
 33 70  2  0  0  0
 34 36  1  0  0  0
 34 59  1  0  0  0
 34110  1  0  0  0
 35 44  2  0  0  0
 35 45  1  0  0  0
 35 68  1  0  0  0
 36 56  1  0  0  0
 36111  1  0  0  0
 37 39  1  0  0  0
 37 47  1  0  0  0
 37 66  1  0  0  0
 37112  1  0  0  0
 38 43  2  0  0  0
 38 46  1  0  0  0
 38 47  1  0  0  0
 39 64  1  0  0  0
 39 67  2  0  0  0
 40 52  1  0  0  0
 40 53  2  0  0  0
 40 58  1  0  0  0
 41113  1  0  0  0
 41114  1  0  0  0
 41115  1  0  0  0
 41 48  1  0  0  0
 42 43  1  0  0  0
 42 66  1  0  0  0
 42116  1  0  0  0
 42117  1  0  0  0
 43 44  1  0  0  0
 44118  1  0  0  0
 45 46  2  0  0  0
 45119  1  0  0  0
 46120  1  0  0  0
 47121  1  0  0  0
 47122  1  0  0  0
 48 56  1  0  0  0
 48 65  1  0  0  0
 48123  1  0  0  0
 49 50  1  0  0  0
 49 53  1  0  0  0
 49 64  1  0  0  0
 49124  1  0  0  0
 50 51  1  0  0  0
 50125  1  0  0  0
 50126  1  0  0  0
 51 52  1  0  0  0
 51127  1  0  0  0
 51128  1  0  0  0
 52129  1  0  0  0
 52130  1  0  0  0
 53 54  1  0  0  0
 54 55  2  0  0  0
 54131  1  0  0  0
 55 57  1  0  0  0
 55132  1  0  0  0
 56 69  2  0  0  0
 57 58  2  0  0  0
 57133  1  0  0  0
 58134  1  0  0  0
 59 60  1  0  0  0
 59 61  1  0  0  0
 59 62  1  0  0  0
 60135  1  0  0  0
 60136  1  0  0  0
 60137  1  0  0  0
 61138  1  0  0  0
 61139  1  0  0  0
 61140  1  0  0  0
 62141  1  0  0  0
 62142  1  0  0  0
 62143  1  0  0  0
 63 65  1  0  0  0
 63144  1  0  0  0
 63145  1  0  0  0
 63146  1  0  0  0
 64147  1  0  0  0
 65148  1  0  0  0
 68 79  1  0  0  0
 71 72  2  0  0  0
 71 80  1  0  0  0
 71 82  1  0  0  0
 72 83  1  0  0  0
 72 89  1  0  0  0
 73 82  2  0  0  0
 73 84  1  0  0  0
 73 89  1  0  0  0
 74 81  1  0  0  0
 74 83  1  0  0  0
 74 85  2  0  0  0
 75149  1  0  0  0
 75150  1  0  0  0
 75151  1  0  0  0
 75 79  1  0  0  0
 76152  1  0  0  0
 76153  1  0  0  0
 76154  1  0  0  0
 76 81  1  0  0  0
 77 81  1  0  0  0
 77155  1  0  0  0
 77156  1  0  0  0
 77157  1  0  0  0
 78 79  1  0  0  0
 78 81  1  0  0  0
 78158  1  0  0  0
 78159  1  0  0  0
 79160  1  0  0  0
 80 86  1  0  0  0
 80 87  1  0  0  0
 80 88  1  0  0  0
 83161  1  0  0  0
 84162  1  0  0  0
M  ISO  4   1 100  68 101  79 101  84 100
M  END
> <chiral flag>
0

> <version>
0

> <s_m_source_file>
/data/baiqing/PycharmProjects/Reinvent-master-3.2/result/LINK_invent/BTK/process_docking_weight1_custom_product_contain_oxygen_bond_distance_aromatic_linkinvent_7_9_3/rearranged_h_0180.sdf

> <i_m_source_file_index>
15

> <r_mmod_Potential_Energy-OPLS-2005>
283.955108642578

> <r_mmod_Stretch_Energy-OPLS-2005>
58.3382225036621

> <r_mmod_Bend_Energy-OPLS-2005>
346.000579833984

> <r_mmod_Torsional_Energy-OPLS-2005>
315.126281738281

> <r_mmod_Improper_Torsional_Energy-OPLS-2005>
5.70394134521484

> <r_mmod_Van_der_Waal_Energy-OPLS-2005>
145.313385009766

> <r_mmod_Electrostatic_Energy-OPLS-2005>
-370.880798339844

> <r_mmod_Solvation_Energy-OPLS-2005>
-230.045211791992

> <b_mmod_Minimization_Converged-OPLS-2005>
0

> <r_mmod_RMS_Derivative-OPLS-2005>
5.4654278755188

$$$$
15
                    3D
 Structure written by MMmdl.
156164  0  0  1  0            999 V2000
  -30.6073  -14.7501   20.4483 C   0  0  0  0  0  0
  -30.4427  -12.4585   19.4477 C   0  0  0  0  0  0
  -29.5017  -12.4918   18.2227 C   0  0  0  0  0  0
  -28.0338  -12.3092   18.6573 C   0  0  0  0  0  0
  -27.6426  -13.2234   19.8483 C   0  0  2  0  0  0
  -28.6988  -13.1635   20.9733 C   0  0  0  0  0  0
  -25.2532  -13.8188   20.5750 C   0  0  0  0  0  0
  -24.1812  -13.0434   20.9232 C   0  0  0  0  0  0
  -24.6401  -11.6902   20.8765 C   0  0  0  0  0  0
  -23.9069  -10.4279   21.0415 C   0  0  0  0  0  0
  -24.3619   -9.4194   21.9191 C   0  0  0  0  0  0
  -23.6292   -8.2240   22.0760 C   0  0  0  0  0  0
  -22.4274   -8.0283   21.3557 C   0  0  0  0  0  0
  -21.9903   -9.0255   20.4660 C   0  0  0  0  0  0
  -22.7239  -10.2129   20.3070 C   0  0  0  0  0  0
  -21.6858   -6.0726   22.5283 C   0  0  0  0  0  0
  -21.4006   -6.5635   23.8211 C   0  0  0  0  0  0
  -21.3656   -5.6786   24.9174 C   0  0  0  0  0  0
  -21.6049   -4.3045   24.7225 C   0  0  0  0  0  0
  -21.8824   -3.8137   23.4345 C   0  0  0  0  0  0
  -21.9186   -4.6953   22.3406 C   0  0  0  0  0  0
  -22.7824  -13.5217   21.1892 C   0  0  0  0  0  0
  -22.1662   -4.2145   21.0978 F   0  0  0  0  0  0
  -21.5630   -3.4527   25.7735 F   0  0  0  0  0  0
  -29.9898  -13.5208   20.3716 N   0  0  0  0  0  0
  -26.2959  -12.9393   20.3337 N   0  0  0  0  0  0
  -25.9333  -11.6534   20.5801 N   0  0  0  0  0  0
  -22.0473  -12.8198   22.0449 N   0  0  0  0  0  0
  -25.4178  -15.1919   20.4216 N   0  0  0  0  0  0
  -31.8181  -14.8447   20.2284 O   0  0  0  0  0  0
  -21.6638   -6.8876   21.4255 O   0  0  0  0  0  0
  -22.3501  -14.5520   20.6750 O   0  0  0  0  0  0
  -24.6307  -31.8583   23.1955 C   0  0  0  0  0  0
  -25.9122  -32.4836   23.8312 C   0  0  1  0  0  0
  -27.2177  -27.2347   20.1364 C   0  0  0  0  0  0
  -25.5918  -33.8615   24.2248 N   0  0  0  0  0  0
  -23.4325  -30.4853   21.5388 C   0  0  2  0  0  0
  -24.8821  -28.9329   20.1068 C   0  0  0  0  0  0
  -22.7540  -29.4591   22.4816 C   0  0  0  0  0  0
  -18.0349  -28.1400   22.8460 C   0  0  0  0  0  0
  -24.1520  -36.7294   23.2652 C   0  0  0  0  0  0
  -25.9834  -30.7659   21.3822 C   0  0  0  0  0  0
  -26.0565  -29.3841   20.7273 C   0  0  0  0  0  0
  -27.2248  -28.5490   20.7268 C   0  0  0  0  0  0
  -26.0191  -26.8638   19.4814 C   0  0  0  0  0  0
  -24.8732  -27.6847   19.4708 C   0  0  0  0  0  0
  -23.6630  -29.8362   20.1480 C   0  0  0  0  0  0
  -25.4144  -36.3119   24.0346 C   0  0  1  0  0  0
  -20.5942  -28.3723   23.1277 C   0  0  2  0  0  0
  -20.6899  -26.9454   22.5385 C   0  0  0  0  0  0
  -19.5860  -26.6360   21.5212 C   0  0  0  0  0  0
  -18.2022  -26.7950   22.1586 C   0  0  0  0  0  0
  -19.1605  -28.8866   23.2869 C   0  0  0  0  0  0
  -18.9536  -30.1435   23.8920 C   0  0  0  0  0  0
  -17.6553  -30.6611   24.0548 C   0  0  0  0  0  0
  -25.9061  -34.9492   23.5098 C   0  0  0  0  0  0
  -16.5442  -29.9121   23.6327 C   0  0  0  0  0  0
  -16.7342  -28.6554   23.0334 C   0  0  0  0  0  0
  -26.4462  -31.6691   25.0713 C   0  0  0  0  0  0
  -25.3639  -31.3899   26.1416 C   0  0  0  0  0  0
  -27.0342  -30.3171   24.6109 C   0  0  0  0  0  0
  -27.6027  -32.4403   25.7483 C   0  0  0  0  0  0
  -27.5600  -37.1817   24.8467 C   0  0  0  0  0  0
  -21.4232  -29.3090   22.3646 N   0  0  0  0  0  0
  -26.4315  -37.3822   23.9416 N   0  0  0  0  0  0
  -24.7029  -31.0520   22.0985 N   0  0  0  0  0  0
  -23.4258  -28.8090   23.2856 O   0  0  0  0  0  0
  -28.3115  -26.3231   20.1626 O   0  0  0  0  0  0
  -26.5607  -34.8972   22.4643 O   0  0  0  0  0  0
  -23.5429  -32.1435   23.7211 O   0  0  0  0  0  0
  -30.7456  -19.5039   21.7470 C   0  0  0  0  0  0
  -29.8122  -19.6796   20.7330 C   0  0  0  0  0  0
  -30.0819  -17.2939   20.7243 C   0  0  0  0  0  0
  -29.0879  -22.2222   20.8324 C   0  0  0  0  0  0
  -31.4261  -20.5214   22.6144 C   0  0  0  0  0  0
  -29.3729  -23.4801   18.5862 C   0  0  0  0  0  0
  -30.5400  -24.2702   20.6712 C   0  0  0  0  0  0
  -28.0719  -24.8321   20.3786 C   0  0  0  0  0  0
  -29.2197  -23.6820   20.1173 C   0  0  0  0  0  0
  -29.4497  -18.3901   20.1755 N   0  0  0  0  0  0
  -29.4119  -21.0186   20.2037 N   0  0  0  0  0  0
  -29.7947  -15.8741   20.4303 N   0  0  0  0  0  0
  -28.6984  -22.2028   22.0039 O   0  0  0  0  0  0
  -31.2060  -17.8109   21.9709 S   0  0  0  0  0  0
  -31.4763  -12.6023   19.1251 H   0  0  0  0  0  0
  -30.4128  -11.4834   19.9376 H   0  0  0  0  0  0
  -29.7778  -11.7097   17.5134 H   0  0  0  0  0  0
  -29.6150  -13.4387   17.6933 H   0  0  0  0  0  0
  -27.9087  -11.2637   18.9457 H   0  0  0  0  0  0
  -27.3602  -12.4770   17.8168 H   0  0  0  0  0  0
  -27.6329  -14.2396   19.4549 H   0  0  0  0  0  0
  -28.7462  -12.1683   21.4187 H   0  0  0  0  0  0
  -28.4460  -13.8510   21.7814 H   0  0  0  0  0  0
  -25.2761   -9.5663   22.4769 H   0  0  0  0  0  0
  -23.9988   -7.4632   22.7481 H   0  0  0  0  0  0
  -21.0830   -8.8794   19.8974 H   0  0  0  0  0  0
  -22.3706  -10.9682   19.6182 H   0  0  0  0  0  0
  -21.2007   -7.6139   23.9728 H   0  0  0  0  0  0
  -21.1474   -6.0499   25.9074 H   0  0  0  0  0  0
  -22.0605   -2.7601   23.2848 H   0  0  0  0  0  0
  -22.4065  -11.9804   22.4751 H   0  0  0  0  0  0
  -21.1135  -13.1281   22.2762 H   0  0  0  0  0  0
  -24.6492  -15.8361   20.5695 H   0  0  0  0  0  0
  -26.2597  -15.6553   20.1065 H   0  0  0  0  0  0
  -26.7180  -32.5464   23.1042 H   0  0  0  0  0  0
  -25.0200  -33.9813   25.0487 H   0  0  0  0  0  0
  -22.7324  -31.3130   21.3964 H   0  0  0  0  0  0
  -23.3832  -35.9583   23.3290 H   0  0  0  0  0  0
  -24.3629  -36.8903   22.2074 H   0  0  0  0  0  0
  -23.7228  -37.6473   23.6666 H   0  0  0  0  0  0
  -26.1221  -31.5325   20.6151 H   0  0  0  0  0  0
  -26.8650  -30.8144   22.0110 H   0  0  0  0  0  0
  -28.1228  -28.8846   21.2284 H   0  0  0  0  0  0
  -25.9445  -25.9266   18.9564 H   0  0  0  0  0  0
  -23.9843  -27.3443   18.9588 H   0  0  0  0  0  0
  -23.8277  -30.6342   19.4233 H   0  0  0  0  0  0
  -22.7756  -29.3047   19.7985 H   0  0  0  0  0  0
  -25.1342  -36.1956   25.0850 H   0  0  0  0  0  0
  -21.0050  -28.3310   24.1378 H   0  0  0  0  0  0
  -20.5892  -26.2342   23.3577 H   0  0  0  0  0  0
  -21.6784  -26.7557   22.1128 H   0  0  0  0  0  0
  -19.7065  -25.6253   21.1299 H   0  0  0  0  0  0
  -19.6826  -27.3147   20.6723 H   0  0  0  0  0  0
  -17.4317  -26.6723   21.3954 H   0  0  0  0  0  0
  -18.0414  -26.0079   22.8973 H   0  0  0  0  0  0
  -19.8051  -30.7225   24.2328 H   0  0  0  0  0  0
  -17.5171  -31.6303   24.5136 H   0  0  0  0  0  0
  -15.5474  -30.3074   23.7637 H   0  0  0  0  0  0
  -15.8750  -28.0870   22.7048 H   0  0  0  0  0  0
  -24.5793  -30.7284   25.7692 H   0  0  0  0  0  0
  -24.8843  -32.3118   26.4731 H   0  0  0  0  0  0
  -25.7864  -30.9111   27.0257 H   0  0  0  0  0  0
  -26.2940  -29.6932   24.1090 H   0  0  0  0  0  0
  -27.4157  -29.7395   25.4533 H   0  0  0  0  0  0
  -27.8731  -30.4605   23.9300 H   0  0  0  0  0  0
  -27.2706  -33.3778   26.1969 H   0  0  0  0  0  0
  -28.3881  -32.6837   25.0304 H   0  0  0  0  0  0
  -28.0632  -31.8558   26.5452 H   0  0  0  0  0  0
  -28.2584  -38.0153   24.7568 H   0  0  0  0  0  0
  -28.1135  -36.2680   24.6236 H   0  0  0  0  0  0
  -27.2320  -37.1390   25.8872 H   0  0  0  0  0  0
  -20.9406  -29.8850   21.6902 H   0  0  0  0  0  0
  -26.0197  -38.2882   24.1455 H   0  0  0  0  0  0
  -31.6780  -21.4265   22.0629 H   0  0  0  0  0  0
  -32.3582  -20.1276   23.0270 H   0  0  0  0  0  0
  -30.7964  -20.7996   23.4601 H   0  0  0  0  0  0
  -30.2599  -22.8959   18.3284 H   0  0  0  0  0  0
  -29.4687  -24.4355   18.0664 H   0  0  0  0  0  0
  -28.5071  -22.9732   18.1534 H   0  0  0  0  0  0
  -31.3514  -23.5407   20.6610 H   0  0  0  0  0  0
  -30.4228  -24.6023   21.7056 H   0  0  0  0  0  0
  -30.8715  -25.1293   20.0875 H   0  0  0  0  0  0
  -27.7233  -24.7355   21.4097 H   0  0  0  0  0  0
  -27.2201  -24.5101   19.7838 H   0  0  0  0  0  0
  -29.4647  -21.0934   19.1970 H   0  0  0  0  0  0
  -28.8241  -15.6756   20.2523 H   0  0  0  0  0  0
  1 25  1  0  0  0
  1 30  2  0  0  0
  1 82  1  0  0  0
  2  3  1  0  0  0
  2 25  1  0  0  0
  2 85  1  0  0  0
  2 86  1  0  0  0
  3  4  1  0  0  0
  3 87  1  0  0  0
  3 88  1  0  0  0
  4  5  1  0  0  0
  4 89  1  0  0  0
  4 90  1  0  0  0
  5  6  1  0  0  0
  5 26  1  0  0  0
  5 91  1  0  0  0
  6 25  1  0  0  0
  6 92  1  0  0  0
  6 93  1  0  0  0
  7  8  2  0  0  0
  7 26  1  0  0  0
  7 29  1  0  0  0
  8  9  1  0  0  0
  8 22  1  0  0  0
  9 10  1  0  0  0
  9 27  2  0  0  0
 10 11  2  0  0  0
 10 15  1  0  0  0
 11 12  1  0  0  0
 11 94  1  0  0  0
 12 13  2  0  0  0
 12 95  1  0  0  0
 13 14  1  0  0  0
 13 31  1  0  0  0
 14 15  2  0  0  0
 14 96  1  0  0  0
 15 97  1  0  0  0
 16 17  2  0  0  0
 16 21  1  0  0  0
 16 31  1  0  0  0
 17 18  1  0  0  0
 17 98  1  0  0  0
 18 19  2  0  0  0
 18 99  1  0  0  0
 19 20  1  0  0  0
 19 24  1  0  0  0
 20 21  2  0  0  0
 20100  1  0  0  0
 21 23  1  0  0  0
 22 28  1  0  0  0
 22 32  2  0  0  0
 26 27  1  0  0  0
 28101  1  0  0  0
 28102  1  0  0  0
 29103  1  0  0  0
 29104  1  0  0  0
 33 34  1  0  0  0
 33 66  1  0  0  0
 33 70  2  0  0  0
 34 36  1  0  0  0
 34 59  1  0  0  0
 34105  1  0  0  0
 35 44  2  0  0  0
 35 45  1  0  0  0
 35 68  1  0  0  0
 36 56  1  0  0  0
 36106  1  0  0  0
 37 39  1  0  0  0
 37 47  1  0  0  0
 37 66  1  0  0  0
 37107  1  0  0  0
 38 43  2  0  0  0
 38 46  1  0  0  0
 38 47  1  0  0  0
 39 64  1  0  0  0
 39 67  2  0  0  0
 40 52  1  0  0  0
 40 53  2  0  0  0
 40 58  1  0  0  0
 41108  1  0  0  0
 41109  1  0  0  0
 41110  1  0  0  0
 41 48  1  0  0  0
 42 43  1  0  0  0
 42 66  1  0  0  0
 42111  1  0  0  0
 42112  1  0  0  0
 43 44  1  0  0  0
 44113  1  0  0  0
 45 46  2  0  0  0
 45114  1  0  0  0
 46115  1  0  0  0
 47116  1  0  0  0
 47117  1  0  0  0
 48 56  1  0  0  0
 48 65  1  0  0  0
 48118  1  0  0  0
 49 50  1  0  0  0
 49 53  1  0  0  0
 49 64  1  0  0  0
 49119  1  0  0  0
 50 51  1  0  0  0
 50120  1  0  0  0
 50121  1  0  0  0
 51 52  1  0  0  0
 51122  1  0  0  0
 51123  1  0  0  0
 52124  1  0  0  0
 52125  1  0  0  0
 53 54  1  0  0  0
 54 55  2  0  0  0
 54126  1  0  0  0
 55 57  1  0  0  0
 55127  1  0  0  0
 56 69  2  0  0  0
 57 58  2  0  0  0
 57128  1  0  0  0
 58129  1  0  0  0
 59 60  1  0  0  0
 59 61  1  0  0  0
 59 62  1  0  0  0
 60130  1  0  0  0
 60131  1  0  0  0
 60132  1  0  0  0
 61133  1  0  0  0
 61134  1  0  0  0
 61135  1  0  0  0
 62136  1  0  0  0
 62137  1  0  0  0
 62138  1  0  0  0
 63 65  1  0  0  0
 63139  1  0  0  0
 63140  1  0  0  0
 63141  1  0  0  0
 64142  1  0  0  0
 65143  1  0  0  0
 68 78  1  0  0  0
 71 72  2  0  0  0
 71 75  1  0  0  0
 71 84  1  0  0  0
 72 80  1  0  0  0
 72 81  1  0  0  0
 73 80  2  0  0  0
 73 82  1  0  0  0
 73 84  1  0  0  0
 74 79  1  0  0  0
 74 81  1  0  0  0
 74 83  2  0  0  0
 75144  1  0  0  0
 75145  1  0  0  0
 75146  1  0  0  0
 76147  1  0  0  0
 76148  1  0  0  0
 76149  1  0  0  0
 76 79  1  0  0  0
 77 79  1  0  0  0
 77150  1  0  0  0
 77151  1  0  0  0
 77152  1  0  0  0
 78 79  1  0  0  0
 78153  1  0  0  0
 78154  1  0  0  0
 81155  1  0  0  0
 82156  1  0  0  0
M  ISO  4   1 100  68 101  78 101  82 100
M  END
> <chiral flag>
0

> <version>
0

> <s_m_source_file>
/data/baiqing/PycharmProjects/Reinvent-master-3.2/result/LINK_invent/BTK/process_docking_weight1_custom_product_contain_oxygen_bond_distance_aromatic_linkinvent_7_9_3/rearranged_h_0180.sdf

> <i_m_source_file_index>
16

> <r_mmod_Potential_Energy-OPLS-2005>
128.838989257812

> <r_mmod_Stretch_Energy-OPLS-2005>
141.244888305664

> <r_mmod_Bend_Energy-OPLS-2005>
176.458297729492

> <r_mmod_Torsional_Energy-OPLS-2005>
280.811309814453

> <r_mmod_Improper_Torsional_Energy-OPLS-2005>
9.7771167755127

> <r_mmod_Van_der_Waal_Energy-OPLS-2005>
114.197608947754

> <r_mmod_Electrostatic_Energy-OPLS-2005>
-463.075653076172

> <r_mmod_Solvation_Energy-OPLS-2005>
-227.040618896484

> <b_mmod_Minimization_Converged-OPLS-2005>
0

> <r_mmod_RMS_Derivative-OPLS-2005>
5.10065698623657

$$$$
16
                    3D
 Structure written by MMmdl.
153161  0  0  1  0            999 V2000
  -30.5892  -14.7760   20.4334 C   0  0  0  0  0  0
  -30.4306  -12.4660   19.4863 C   0  0  0  0  0  0
  -29.5139  -12.5147   18.2433 C   0  0  0  0  0  0
  -28.0407  -12.3302   18.6535 C   0  0  0  0  0  0
  -27.6405  -13.2337   19.8507 C   0  0  2  0  0  0
  -28.6821  -13.1793   20.9905 C   0  0  0  0  0  0
  -25.2502  -13.8198   20.5681 C   0  0  0  0  0  0
  -24.1797  -13.0445   20.9200 C   0  0  0  0  0  0
  -24.6392  -11.6923   20.8743 C   0  0  0  0  0  0
  -23.9073  -10.4298   21.0406 C   0  0  0  0  0  0
  -24.3623   -9.4211   21.9184 C   0  0  0  0  0  0
  -23.6298   -8.2248   22.0756 C   0  0  0  0  0  0
  -22.4278   -8.0284   21.3545 C   0  0  0  0  0  0
  -21.9916   -9.0255   20.4647 C   0  0  0  0  0  0
  -22.7243  -10.2136   20.3057 C   0  0  0  0  0  0
  -21.6858   -6.0738   22.5281 C   0  0  0  0  0  0
  -21.4017   -6.5639   23.8215 C   0  0  0  0  0  0
  -21.3666   -5.6793   24.9178 C   0  0  0  0  0  0
  -21.6048   -4.3055   24.7229 C   0  0  0  0  0  0
  -21.8821   -3.8147   23.4352 C   0  0  0  0  0  0
  -21.9191   -4.6963   22.3406 C   0  0  0  0  0  0
  -22.7816  -13.5222   21.1865 C   0  0  0  0  0  0
  -22.1660   -4.2148   21.0983 F   0  0  0  0  0  0
  -21.5632   -3.4540   25.7742 F   0  0  0  0  0  0
  -29.9846  -13.5353   20.4132 N   0  0  0  0  0  0
  -26.2929  -12.9406   20.3274 N   0  0  0  0  0  0
  -25.9321  -11.6550   20.5745 N   0  0  0  0  0  0
  -22.0470  -12.8209   22.0423 N   0  0  0  0  0  0
  -25.4188  -15.1929   20.4089 N   0  0  0  0  0  0
  -31.7734  -14.8677   20.0936 O   0  0  0  0  0  0
  -21.6648   -6.8876   21.4238 O   0  0  0  0  0  0
  -22.3494  -14.5526   20.6710 O   0  0  0  0  0  0
  -24.6318  -31.8536   23.1936 C   0  0  0  0  0  0
  -25.9139  -32.4742   23.8292 C   0  0  1  0  0  0
  -27.2244  -27.2486   20.1202 C   0  0  0  0  0  0
  -25.5936  -33.8547   24.2230 N   0  0  0  0  0  0
  -23.4273  -30.4730   21.5388 C   0  0  2  0  0  0
  -24.8720  -28.9107   20.1071 C   0  0  0  0  0  0
  -22.7498  -29.4595   22.4921 C   0  0  0  0  0  0
  -18.0293  -28.1379   22.8485 C   0  0  0  0  0  0
  -24.1492  -36.7271   23.2642 C   0  0  0  0  0  0
  -25.9718  -30.7622   21.3704 C   0  0  0  0  0  0
  -26.0427  -29.3826   20.7116 C   0  0  0  0  0  0
  -27.2164  -28.5639   20.7030 C   0  0  0  0  0  0
  -26.0211  -26.8306   19.5151 C   0  0  0  0  0  0
  -24.8672  -27.6435   19.4993 C   0  0  0  0  0  0
  -23.6425  -29.7999   20.1559 C   0  0  0  0  0  0
  -25.4121  -36.3065   24.0325 C   0  0  1  0  0  0
  -20.5894  -28.3693   23.1277 C   0  0  2  0  0  0
  -20.6779  -26.9412   22.5412 C   0  0  0  0  0  0
  -19.5754  -26.6382   21.5217 C   0  0  0  0  0  0
  -18.1934  -26.7921   22.1627 C   0  0  0  0  0  0
  -19.1544  -28.8853   23.2874 C   0  0  0  0  0  0
  -18.9469  -30.1455   23.8891 C   0  0  0  0  0  0
  -17.6465  -30.6581   24.0558 C   0  0  0  0  0  0
  -25.9065  -34.9439   23.5086 C   0  0  0  0  0  0
  -16.5358  -29.9074   23.6326 C   0  0  0  0  0  0
  -16.7278  -28.6492   23.0349 C   0  0  0  0  0  0
  -26.4502  -31.6564   25.0683 C   0  0  0  0  0  0
  -25.3721  -31.3718   26.1400 C   0  0  0  0  0  0
  -27.0352  -30.2981   24.6167 C   0  0  0  0  0  0
  -27.6053  -32.4307   25.7465 C   0  0  0  0  0  0
  -27.5581  -37.1793   24.8468 C   0  0  0  0  0  0
  -21.4208  -29.3039   22.3665 N   0  0  0  0  0  0
  -26.4293  -37.3766   23.9412 N   0  0  0  0  0  0
  -24.6963  -31.0491   22.0908 N   0  0  0  0  0  0
  -23.4201  -28.8150   23.3030 O   0  0  0  0  0  0
  -28.3632  -26.4106   20.2007 O   0  0  0  0  0  0
  -26.5645  -34.8925   22.4659 O   0  0  0  0  0  0
  -23.5469  -32.1373   23.7232 O   0  0  0  0  0  0
  -30.4635  -19.4728   19.0145 C   0  0  0  0  0  0
  -29.5345  -19.6786   20.0262 C   0  0  0  0  0  0
  -29.9806  -17.3173   20.2526 C   0  0  0  0  0  0
  -29.2390  -22.3189   20.1226 C   0  0  0  0  0  0
  -30.9570  -20.4069   17.9532 C   0  0  0  0  0  0
  -28.3073  -24.9662   18.1167 C   0  0  0  0  0  0
  -28.2764  -23.5968   20.3709 C   0  0  0  0  0  0
  -28.5866  -25.0242   19.6301 C   0  0  2  0  0  0
  -29.2449  -18.4082   20.6761 N   0  0  0  0  0  0
  -28.8427  -20.9861   20.2839 N   0  0  0  0  0  0
  -29.8123  -15.9044   20.6922 N   0  0  0  0  0  0
  -30.4080  -22.5826   19.8397 O   0  0  0  0  0  0
  -31.0880  -17.8190   18.9805 S   0  0  0  0  0  0
  -31.4741  -12.5822   19.1890 H   0  0  0  0  0  0
  -30.3679  -11.4914   19.9731 H   0  0  0  0  0  0
  -29.8024  -11.7453   17.5258 H   0  0  0  0  0  0
  -29.6363  -13.4716   17.7330 H   0  0  0  0  0  0
  -27.9035  -11.2812   18.9196 H   0  0  0  0  0  0
  -27.3843  -12.5143   17.8021 H   0  0  0  0  0  0
  -27.6312  -14.2527   19.4630 H   0  0  0  0  0  0
  -28.7201  -12.1852   21.4389 H   0  0  0  0  0  0
  -28.4090  -13.8643   21.7951 H   0  0  0  0  0  0
  -25.2770   -9.5692   22.4754 H   0  0  0  0  0  0
  -24.0011   -7.4645   22.7477 H   0  0  0  0  0  0
  -21.0851   -8.8773   19.8947 H   0  0  0  0  0  0
  -22.3702  -10.9673   19.6166 H   0  0  0  0  0  0
  -21.2007   -7.6148   23.9716 H   0  0  0  0  0  0
  -21.1486   -6.0525   25.9079 H   0  0  0  0  0  0
  -22.0590   -2.7608   23.2856 H   0  0  0  0  0  0
  -22.4095  -11.9873   22.4807 H   0  0  0  0  0  0
  -21.1084  -13.1220   22.2631 H   0  0  0  0  0  0
  -24.6464  -15.8426   20.5096 H   0  0  0  0  0  0
  -26.2627  -15.6356   20.0694 H   0  0  0  0  0  0
  -26.7193  -32.5381   23.1018 H   0  0  0  0  0  0
  -25.0066  -33.9679   25.0365 H   0  0  0  0  0  0
  -22.7230  -31.2941   21.3907 H   0  0  0  0  0  0
  -23.3767  -35.9589   23.3294 H   0  0  0  0  0  0
  -24.3577  -36.8908   22.2058 H   0  0  0  0  0  0
  -23.7229  -37.6464   23.6670 H   0  0  0  0  0  0
  -26.1091  -31.5220   20.5997 H   0  0  0  0  0  0
  -26.8501  -30.8125   22.0028 H   0  0  0  0  0  0
  -28.1158  -28.9241   21.1824 H   0  0  0  0  0  0
  -25.9358  -25.8457   19.0879 H   0  0  0  0  0  0
  -23.9646  -27.2692   19.0365 H   0  0  0  0  0  0
  -23.7608  -30.5735   19.3959 H   0  0  0  0  0  0
  -22.7599  -29.2308   19.8577 H   0  0  0  0  0  0
  -25.1304  -36.1907   25.0816 H   0  0  0  0  0  0
  -20.9990  -28.3269   24.1398 H   0  0  0  0  0  0
  -20.5685  -26.2307   23.3618 H   0  0  0  0  0  0
  -21.6645  -26.7432   22.1208 H   0  0  0  0  0  0
  -19.6918  -25.6296   21.1242 H   0  0  0  0  0  0
  -19.6685  -27.3198   20.6752 H   0  0  0  0  0  0
  -17.4209  -26.6680   21.4024 H   0  0  0  0  0  0
  -18.0320  -26.0059   22.9018 H   0  0  0  0  0  0
  -19.7945  -30.7272   24.2262 H   0  0  0  0  0  0
  -17.5017  -31.6263   24.5155 H   0  0  0  0  0  0
  -15.5356  -30.2971   23.7651 H   0  0  0  0  0  0
  -15.8684  -28.0806   22.7063 H   0  0  0  0  0  0
  -24.5902  -30.7061   25.7722 H   0  0  0  0  0  0
  -24.8905  -32.2890   26.4798 H   0  0  0  0  0  0
  -25.8034  -30.8910   27.0187 H   0  0  0  0  0  0
  -26.2930  -29.6718   24.1201 H   0  0  0  0  0  0
  -27.4050  -29.7250   25.4678 H   0  0  0  0  0  0
  -27.8793  -30.4255   23.9388 H   0  0  0  0  0  0
  -27.2653  -33.3614   26.2014 H   0  0  0  0  0  0
  -28.3873  -32.6854   25.0301 H   0  0  0  0  0  0
  -28.0695  -31.8445   26.5404 H   0  0  0  0  0  0
  -28.2599  -38.0092   24.7524 H   0  0  0  0  0  0
  -28.1082  -36.2627   24.6284 H   0  0  0  0  0  0
  -27.2301  -37.1422   25.8872 H   0  0  0  0  0  0
  -20.9399  -29.8749   21.6856 H   0  0  0  0  0  0
  -26.0174  -38.2842   24.1411 H   0  0  0  0  0  0
  -31.7751  -21.0261   18.3200 H   0  0  0  0  0  0
  -30.1601  -21.0575   17.5917 H   0  0  0  0  0  0
  -31.3341  -19.8555   17.0914 H   0  0  0  0  0  0
  -28.8949  -24.1751   17.6500 H   0  0  0  0  0  0
  -28.5803  -25.9010   17.6270 H   0  0  0  0  0  0
  -27.2664  -24.7502   17.8844 H   0  0  0  0  0  0
  -28.3040  -23.7789   21.4447 H   0  0  0  0  0  0
  -27.2491  -23.3026   20.1571 H   0  0  0  0  0  0
  -29.6762  -25.0496   19.6635 H   0  0  0  0  0  0
  -27.9160  -20.8873   20.6726 H   0  0  0  0  0  0
  -28.9205  -15.7042   21.1139 H   0  0  0  0  0  0
  1 25  1  0  0  0
  1 30  2  0  0  0
  1 81  1  0  0  0
  2  3  1  0  0  0
  2 25  1  0  0  0
  2 84  1  0  0  0
  2 85  1  0  0  0
  3  4  1  0  0  0
  3 86  1  0  0  0
  3 87  1  0  0  0
  4  5  1  0  0  0
  4 88  1  0  0  0
  4 89  1  0  0  0
  5  6  1  0  0  0
  5 26  1  0  0  0
  5 90  1  0  0  0
  6 25  1  0  0  0
  6 91  1  0  0  0
  6 92  1  0  0  0
  7  8  2  0  0  0
  7 26  1  0  0  0
  7 29  1  0  0  0
  8  9  1  0  0  0
  8 22  1  0  0  0
  9 10  1  0  0  0
  9 27  2  0  0  0
 10 11  2  0  0  0
 10 15  1  0  0  0
 11 12  1  0  0  0
 11 93  1  0  0  0
 12 13  2  0  0  0
 12 94  1  0  0  0
 13 14  1  0  0  0
 13 31  1  0  0  0
 14 15  2  0  0  0
 14 95  1  0  0  0
 15 96  1  0  0  0
 16 17  2  0  0  0
 16 21  1  0  0  0
 16 31  1  0  0  0
 17 18  1  0  0  0
 17 97  1  0  0  0
 18 19  2  0  0  0
 18 98  1  0  0  0
 19 20  1  0  0  0
 19 24  1  0  0  0
 20 21  2  0  0  0
 20 99  1  0  0  0
 21 23  1  0  0  0
 22 28  1  0  0  0
 22 32  2  0  0  0
 26 27  1  0  0  0
 28100  1  0  0  0
 28101  1  0  0  0
 29102  1  0  0  0
 29103  1  0  0  0
 33 34  1  0  0  0
 33 66  1  0  0  0
 33 70  2  0  0  0
 34 36  1  0  0  0
 34 59  1  0  0  0
 34104  1  0  0  0
 35 44  2  0  0  0
 35 45  1  0  0  0
 35 68  1  0  0  0
 36 56  1  0  0  0
 36105  1  0  0  0
 37 39  1  0  0  0
 37 47  1  0  0  0
 37 66  1  0  0  0
 37106  1  0  0  0
 38 43  2  0  0  0
 38 46  1  0  0  0
 38 47  1  0  0  0
 39 64  1  0  0  0
 39 67  2  0  0  0
 40 52  1  0  0  0
 40 53  2  0  0  0
 40 58  1  0  0  0
 41107  1  0  0  0
 41108  1  0  0  0
 41109  1  0  0  0
 41 48  1  0  0  0
 42 43  1  0  0  0
 42 66  1  0  0  0
 42110  1  0  0  0
 42111  1  0  0  0
 43 44  1  0  0  0
 44112  1  0  0  0
 45 46  2  0  0  0
 45113  1  0  0  0
 46114  1  0  0  0
 47115  1  0  0  0
 47116  1  0  0  0
 48 56  1  0  0  0
 48 65  1  0  0  0
 48117  1  0  0  0
 49 50  1  0  0  0
 49 53  1  0  0  0
 49 64  1  0  0  0
 49118  1  0  0  0
 50 51  1  0  0  0
 50119  1  0  0  0
 50120  1  0  0  0
 51 52  1  0  0  0
 51121  1  0  0  0
 51122  1  0  0  0
 52123  1  0  0  0
 52124  1  0  0  0
 53 54  1  0  0  0
 54 55  2  0  0  0
 54125  1  0  0  0
 55 57  1  0  0  0
 55126  1  0  0  0
 56 69  2  0  0  0
 57 58  2  0  0  0
 57127  1  0  0  0
 58128  1  0  0  0
 59 60  1  0  0  0
 59 61  1  0  0  0
 59 62  1  0  0  0
 60129  1  0  0  0
 60130  1  0  0  0
 60131  1  0  0  0
 61132  1  0  0  0
 61133  1  0  0  0
 61134  1  0  0  0
 62135  1  0  0  0
 62136  1  0  0  0
 62137  1  0  0  0
 63 65  1  0  0  0
 63138  1  0  0  0
 63139  1  0  0  0
 63140  1  0  0  0
 64141  1  0  0  0
 65142  1  0  0  0
 68 78  1  0  0  0
 71 72  2  0  0  0
 71 75  1  0  0  0
 71 83  1  0  0  0
 72 79  1  0  0  0
 72 80  1  0  0  0
 73 79  2  0  0  0
 73 81  1  0  0  0
 73 83  1  0  0  0
 74 77  1  0  0  0
 74 80  1  0  0  0
 74 82  2  0  0  0
 75143  1  0  0  0
 75144  1  0  0  0
 75145  1  0  0  0
 76146  1  0  0  0
 76147  1  0  0  0
 76148  1  0  0  0
 76 78  1  0  0  0
 77 78  1  0  0  0
 77149  1  0  0  0
 77150  1  0  0  0
 78151  1  0  0  0
 80152  1  0  0  0
 81153  1  0  0  0
M  ISO  4   1 100  68 101  78 101  81 100
M  END
> <chiral flag>
0

> <version>
0

> <s_m_source_file>
/data/baiqing/PycharmProjects/Reinvent-master-3.2/result/LINK_invent/BTK/process_docking_weight1_custom_product_contain_oxygen_bond_distance_aromatic_linkinvent_7_9_3/rearranged_h_0180.sdf

> <i_m_source_file_index>
17

> <r_mmod_Potential_Energy-OPLS-2005>
103.35334777832

> <r_mmod_Stretch_Energy-OPLS-2005>
139.194564819336

> <r_mmod_Bend_Energy-OPLS-2005>
216.643676757812

> <r_mmod_Torsional_Energy-OPLS-2005>
210.15478515625

> <r_mmod_Improper_Torsional_Energy-OPLS-2005>
4.99257898330688

> <r_mmod_Van_der_Waal_Energy-OPLS-2005>
116.99877166748

> <r_mmod_Electrostatic_Energy-OPLS-2005>
-444.76513671875

> <r_mmod_Solvation_Energy-OPLS-2005>
-231.826385498047

> <b_mmod_Minimization_Converged-OPLS-2005>
0

> <r_mmod_RMS_Derivative-OPLS-2005>
1.0420708656311

$$$$
17
                    3D
 Structure written by MMmdl.
151159  0  0  1  0            999 V2000
  -30.6193  -14.8073   20.4591 C   0  0  0  0  0  0
  -30.4361  -12.5043   19.4651 C   0  0  0  0  0  0
  -29.5106  -12.5053   18.2306 C   0  0  0  0  0  0
  -28.0379  -12.3232   18.6500 C   0  0  0  0  0  0
  -27.6348  -13.2376   19.8378 C   0  0  2  0  0  0
  -28.6872  -13.2212   20.9655 C   0  0  0  0  0  0
  -25.2500  -13.8207   20.5701 C   0  0  0  0  0  0
  -24.1805  -13.0441   20.9231 C   0  0  0  0  0  0
  -24.6404  -11.6922   20.8758 C   0  0  0  0  0  0
  -23.9084  -10.4292   21.0401 C   0  0  0  0  0  0
  -24.3635   -9.4203   21.9175 C   0  0  0  0  0  0
  -23.6305   -8.2241   22.0741 C   0  0  0  0  0  0
  -22.4285   -8.0283   21.3533 C   0  0  0  0  0  0
  -21.9926   -9.0258   20.4632 C   0  0  0  0  0  0
  -22.7260  -10.2136   20.3043 C   0  0  0  0  0  0
  -21.6856   -6.0734   22.5268 C   0  0  0  0  0  0
  -21.4019   -6.5635   23.8203 C   0  0  0  0  0  0
  -21.3665   -5.6785   24.9164 C   0  0  0  0  0  0
  -21.6053   -4.3050   24.7208 C   0  0  0  0  0  0
  -21.8827   -3.8146   23.4325 C   0  0  0  0  0  0
  -21.9201   -4.6964   22.3386 C   0  0  0  0  0  0
  -22.7824  -13.5212   21.1891 C   0  0  0  0  0  0
  -22.1664   -4.2149   21.0961 F   0  0  0  0  0  0
  -21.5634   -3.4533   25.7720 F   0  0  0  0  0  0
  -29.9681  -13.5928   20.3539 N   0  0  0  0  0  0
  -26.2923  -12.9419   20.3263 N   0  0  0  0  0  0
  -25.9333  -11.6559   20.5758 N   0  0  0  0  0  0
  -22.0475  -12.8196   22.0442 N   0  0  0  0  0  0
  -25.4182  -15.1933   20.4097 N   0  0  0  0  0  0
  -31.8394  -14.8296   20.2767 O   0  0  0  0  0  0
  -21.6646   -6.8880   21.4230 O   0  0  0  0  0  0
  -22.3505  -14.5515   20.6731 O   0  0  0  0  0  0
  -24.6399  -31.8498   23.1964 C   0  0  0  0  0  0
  -25.9194  -32.4733   23.8324 C   0  0  1  0  0  0
  -27.2097  -27.2035   20.1166 C   0  0  0  0  0  0
  -25.5956  -33.8537   24.2228 N   0  0  0  0  0  0
  -23.4373  -30.4765   21.5441 C   0  0  2  0  0  0
  -24.8779  -28.9211   20.1140 C   0  0  0  0  0  0
  -22.7537  -29.4600   22.4921 C   0  0  0  0  0  0
  -18.0301  -28.1400   22.8483 C   0  0  0  0  0  0
  -24.1483  -36.7268   23.2640 C   0  0  0  0  0  0
  -25.9913  -30.7447   21.3849 C   0  0  0  0  0  0
  -26.0595  -29.3652   20.7214 C   0  0  0  0  0  0
  -27.2271  -28.5221   20.7080 C   0  0  0  0  0  0
  -25.9842  -26.8425   19.5036 C   0  0  0  0  0  0
  -24.8485  -27.6683   19.4954 C   0  0  0  0  0  0
  -23.6540  -29.8140   20.1611 C   0  0  0  0  0  0
  -25.4116  -36.3053   24.0317 C   0  0  1  0  0  0
  -20.5906  -28.3718   23.1251 C   0  0  2  0  0  0
  -20.6792  -26.9432   22.5396 C   0  0  0  0  0  0
  -19.5762  -26.6393   21.5210 C   0  0  0  0  0  0
  -18.1945  -26.7940   22.1627 C   0  0  0  0  0  0
  -19.1551  -28.8880   23.2856 C   0  0  0  0  0  0
  -18.9469  -30.1482   23.8873 C   0  0  0  0  0  0
  -17.6464  -30.6595   24.0564 C   0  0  0  0  0  0
  -25.9067  -34.9433   23.5078 C   0  0  0  0  0  0
  -16.5358  -29.9083   23.6346 C   0  0  0  0  0  0
  -16.7282  -28.6505   23.0361 C   0  0  0  0  0  0
  -26.4521  -31.6588   25.0749 C   0  0  0  0  0  0
  -25.3711  -31.3765   26.1447 C   0  0  0  0  0  0
  -27.0381  -30.2986   24.6309 C   0  0  0  0  0  0
  -27.6054  -32.4350   25.7526 C   0  0  0  0  0  0
  -27.5572  -37.1791   24.8465 C   0  0  0  0  0  0
  -21.4239  -29.3054   22.3641 N   0  0  0  0  0  0
  -26.4284  -37.3759   23.9408 N   0  0  0  0  0  0
  -24.7100  -31.0411   22.0978 N   0  0  0  0  0  0
  -23.4201  -28.8138   23.3046 O   0  0  0  0  0  0
  -28.2880  -26.2595   20.1583 O   0  0  0  0  0  0
  -26.5626  -34.8918   22.4640 O   0  0  0  0  0  0
  -23.5531  -32.1357   23.7212 O   0  0  0  0  0  0
  -29.6597  -18.6093   20.1318 C   0  0  0  0  0  0
  -29.4415  -18.7844   18.7688 C   0  0  0  0  0  0
  -29.1232  -20.9806   20.0022 C   0  0  0  0  0  0
  -30.2888  -17.2926   20.7762 C   0  0  0  0  0  0
  -29.0710  -23.6113   20.1188 C   0  0  0  0  0  0
  -28.1175  -24.8396   18.1588 C   0  0  0  0  0  0
  -28.0604  -24.8152   19.7048 C   0  0  2  0  0  0
  -29.4355  -19.8957   20.8004 N   0  0  0  0  0  0
  -29.5502  -17.8753   17.7136 N   0  0  0  0  0  0
  -28.6104  -22.3253   20.4030 N   0  0  0  0  0  0
  -29.8762  -15.9938   20.4580 N   0  0  0  0  0  0
  -31.1894  -17.4536   21.6104 O   0  0  0  0  0  0
  -30.2808  -23.8569   20.1546 O   0  0  0  0  0  0
  -29.0390  -20.4499   18.3269 S   0  0  0  0  0  0
  -31.4730  -12.6429   19.1546 H   0  0  0  0  0  0
  -30.4014  -11.5426   19.9809 H   0  0  0  0  0  0
  -29.8031  -11.7133   17.5398 H   0  0  0  0  0  0
  -29.6257  -13.4454   17.6895 H   0  0  0  0  0  0
  -27.9048  -11.2776   18.9296 H   0  0  0  0  0  0
  -27.3777  -12.4962   17.7990 H   0  0  0  0  0  0
  -27.6115  -14.2489   19.4337 H   0  0  0  0  0  0
  -28.7477  -12.2359   21.4300 H   0  0  0  0  0  0
  -28.4208  -13.9243   21.7558 H   0  0  0  0  0  0
  -25.2776   -9.5682   22.4757 H   0  0  0  0  0  0
  -24.0013   -7.4633   22.7459 H   0  0  0  0  0  0
  -21.0857   -8.8782   19.8932 H   0  0  0  0  0  0
  -22.3716  -10.9678   19.6158 H   0  0  0  0  0  0
  -21.2003   -7.6143   23.9705 H   0  0  0  0  0  0
  -21.1486   -6.0509   25.9067 H   0  0  0  0  0  0
  -22.0605   -2.7607   23.2820 H   0  0  0  0  0  0
  -22.4093  -11.9849   22.4819 H   0  0  0  0  0  0
  -21.1081  -13.1198   22.2621 H   0  0  0  0  0  0
  -24.6548  -15.8504   20.5269 H   0  0  0  0  0  0
  -26.2604  -15.6302   20.0602 H   0  0  0  0  0  0
  -26.7268  -32.5349   23.1068 H   0  0  0  0  0  0
  -25.0112  -33.9665   25.0381 H   0  0  0  0  0  0
  -22.7396  -31.3029   21.3982 H   0  0  0  0  0  0
  -23.3751  -35.9592   23.3296 H   0  0  0  0  0  0
  -24.3572  -36.8904   22.2058 H   0  0  0  0  0  0
  -23.7240  -37.6469   23.6670 H   0  0  0  0  0  0
  -26.1400  -31.5060   20.6173 H   0  0  0  0  0  0
  -26.8665  -30.7877   22.0228 H   0  0  0  0  0  0
  -28.1309  -28.8580   21.1962 H   0  0  0  0  0  0
  -25.8370  -25.8845   19.0341 H   0  0  0  0  0  0
  -23.9408  -27.3147   19.0253 H   0  0  0  0  0  0
  -23.7805  -30.5898   19.4054 H   0  0  0  0  0  0
  -22.7699  -29.2504   19.8568 H   0  0  0  0  0  0
  -25.1304  -36.1894   25.0810 H   0  0  0  0  0  0
  -20.9992  -28.3298   24.1373 H   0  0  0  0  0  0
  -20.5713  -26.2326   23.3605 H   0  0  0  0  0  0
  -21.6659  -26.7467   22.1175 H   0  0  0  0  0  0
  -19.6925  -25.6297   21.1261 H   0  0  0  0  0  0
  -19.6699  -27.3188   20.6731 H   0  0  0  0  0  0
  -17.4210  -26.6681   21.4035 H   0  0  0  0  0  0
  -18.0347  -26.0083   22.9031 H   0  0  0  0  0  0
  -19.7942  -30.7312   24.2222 H   0  0  0  0  0  0
  -17.5015  -31.6275   24.5167 H   0  0  0  0  0  0
  -15.5356  -30.2976   23.7694 H   0  0  0  0  0  0
  -15.8684  -28.0824   22.7085 H   0  0  0  0  0  0
  -24.5889  -30.7115   25.7768 H   0  0  0  0  0  0
  -24.8903  -32.2946   26.4829 H   0  0  0  0  0  0
  -25.8002  -30.8970   27.0256 H   0  0  0  0  0  0
  -26.2997  -29.6726   24.1284 H   0  0  0  0  0  0
  -27.3967  -29.7271   25.4883 H   0  0  0  0  0  0
  -27.8916  -30.4224   23.9637 H   0  0  0  0  0  0
  -27.2638  -33.3659   26.2059 H   0  0  0  0  0  0
  -28.3879  -32.6905   25.0367 H   0  0  0  0  0  0
  -28.0701  -31.8515   26.5485 H   0  0  0  0  0  0
  -28.2590  -38.0087   24.7510 H   0  0  0  0  0  0
  -28.1073  -36.2626   24.6292 H   0  0  0  0  0  0
  -27.2290  -37.1436   25.8867 H   0  0  0  0  0  0
  -20.9440  -29.8750   21.6813 H   0  0  0  0  0  0
  -26.0162  -38.2832   24.1407 H   0  0  0  0  0  0
  -27.7813  -23.8910   17.7383 H   0  0  0  0  0  0
  -29.1381  -25.0081   17.8117 H   0  0  0  0  0  0
  -27.5122  -25.6209   17.7065 H   0  0  0  0  0  0
  -27.0793  -24.4895   20.0500 H   0  0  0  0  0  0
  -29.9232  -16.9335   17.7883 H   0  0  0  0  0  0
  -29.4499  -18.1624   16.7429 H   0  0  0  0  0  0
  -27.6123  -22.3172   20.5510 H   0  0  0  0  0  0
  -28.9378  -15.9234   20.1054 H   0  0  0  0  0  0
  1 25  1  0  0  0
  1 30  2  0  0  0
  1 81  1  0  0  0
  2  3  1  0  0  0
  2 25  1  0  0  0
  2 85  1  0  0  0
  2 86  1  0  0  0
  3  4  1  0  0  0
  3 87  1  0  0  0
  3 88  1  0  0  0
  4  5  1  0  0  0
  4 89  1  0  0  0
  4 90  1  0  0  0
  5  6  1  0  0  0
  5 26  1  0  0  0
  5 91  1  0  0  0
  6 25  1  0  0  0
  6 92  1  0  0  0
  6 93  1  0  0  0
  7  8  2  0  0  0
  7 26  1  0  0  0
  7 29  1  0  0  0
  8  9  1  0  0  0
  8 22  1  0  0  0
  9 10  1  0  0  0
  9 27  2  0  0  0
 10 11  2  0  0  0
 10 15  1  0  0  0
 11 12  1  0  0  0
 11 94  1  0  0  0
 12 13  2  0  0  0
 12 95  1  0  0  0
 13 14  1  0  0  0
 13 31  1  0  0  0
 14 15  2  0  0  0
 14 96  1  0  0  0
 15 97  1  0  0  0
 16 17  2  0  0  0
 16 21  1  0  0  0
 16 31  1  0  0  0
 17 18  1  0  0  0
 17 98  1  0  0  0
 18 19  2  0  0  0
 18 99  1  0  0  0
 19 20  1  0  0  0
 19 24  1  0  0  0
 20 21  2  0  0  0
 20100  1  0  0  0
 21 23  1  0  0  0
 22 28  1  0  0  0
 22 32  2  0  0  0
 26 27  1  0  0  0
 28101  1  0  0  0
 28102  1  0  0  0
 29103  1  0  0  0
 29104  1  0  0  0
 33 34  1  0  0  0
 33 66  1  0  0  0
 33 70  2  0  0  0
 34 36  1  0  0  0
 34 59  1  0  0  0
 34105  1  0  0  0
 35 44  2  0  0  0
 35 45  1  0  0  0
 35 68  1  0  0  0
 36 56  1  0  0  0
 36106  1  0  0  0
 37 39  1  0  0  0
 37 47  1  0  0  0
 37 66  1  0  0  0
 37107  1  0  0  0
 38 43  2  0  0  0
 38 46  1  0  0  0
 38 47  1  0  0  0
 39 64  1  0  0  0
 39 67  2  0  0  0
 40 52  1  0  0  0
 40 53  2  0  0  0
 40 58  1  0  0  0
 41108  1  0  0  0
 41109  1  0  0  0
 41110  1  0  0  0
 41 48  1  0  0  0
 42 43  1  0  0  0
 42 66  1  0  0  0
 42111  1  0  0  0
 42112  1  0  0  0
 43 44  1  0  0  0
 44113  1  0  0  0
 45 46  2  0  0  0
 45114  1  0  0  0
 46115  1  0  0  0
 47116  1  0  0  0
 47117  1  0  0  0
 48 56  1  0  0  0
 48 65  1  0  0  0
 48118  1  0  0  0
 49 50  1  0  0  0
 49 53  1  0  0  0
 49 64  1  0  0  0
 49119  1  0  0  0
 50 51  1  0  0  0
 50120  1  0  0  0
 50121  1  0  0  0
 51 52  1  0  0  0
 51122  1  0  0  0
 51123  1  0  0  0
 52124  1  0  0  0
 52125  1  0  0  0
 53 54  1  0  0  0
 54 55  2  0  0  0
 54126  1  0  0  0
 55 57  1  0  0  0
 55127  1  0  0  0
 56 69  2  0  0  0
 57 58  2  0  0  0
 57128  1  0  0  0
 58129  1  0  0  0
 59 60  1  0  0  0
 59 61  1  0  0  0
 59 62  1  0  0  0
 60130  1  0  0  0
 60131  1  0  0  0
 60132  1  0  0  0
 61133  1  0  0  0
 61134  1  0  0  0
 61135  1  0  0  0
 62136  1  0  0  0
 62137  1  0  0  0
 62138  1  0  0  0
 63 65  1  0  0  0
 63139  1  0  0  0
 63140  1  0  0  0
 63141  1  0  0  0
 64142  1  0  0  0
 65143  1  0  0  0
 68 77  1  0  0  0
 71 72  2  0  0  0
 71 74  1  0  0  0
 71 78  1  0  0  0
 72 79  1  0  0  0
 72 84  1  0  0  0
 73 78  2  0  0  0
 73 80  1  0  0  0
 73 84  1  0  0  0
 74 81  1  0  0  0
 74 82  2  0  0  0
 75 77  1  0  0  0
 75 80  1  0  0  0
 75 83  2  0  0  0
 76144  1  0  0  0
 76145  1  0  0  0
 76146  1  0  0  0
 76 77  1  0  0  0
 77147  1  0  0  0
 79148  1  0  0  0
 79149  1  0  0  0
 80150  1  0  0  0
 81151  1  0  0  0
M  ISO  4   1 100  68 101  77 101  81 100
M  END
> <chiral flag>
0

> <version>
0

> <s_m_source_file>
/data/baiqing/PycharmProjects/Reinvent-master-3.2/result/LINK_invent/BTK/process_docking_weight1_custom_product_contain_oxygen_bond_distance_aromatic_linkinvent_7_9_3/rearranged_h_0180.sdf

> <i_m_source_file_index>
18

> <r_mmod_Potential_Energy-OPLS-2005>
290.439788818359

> <r_mmod_Stretch_Energy-OPLS-2005>
156.256240844727

> <r_mmod_Bend_Energy-OPLS-2005>
198.322875976562

> <r_mmod_Torsional_Energy-OPLS-2005>
298.385864257812

> <r_mmod_Improper_Torsional_Energy-OPLS-2005>
12.5217885971069

> <r_mmod_Van_der_Waal_Energy-OPLS-2005>
121.872337341309

> <r_mmod_Electrostatic_Energy-OPLS-2005>
-340.180389404297

> <r_mmod_Solvation_Energy-OPLS-2005>
-280.698089599609

> <b_mmod_Minimization_Converged-OPLS-2005>
0

> <r_mmod_RMS_Derivative-OPLS-2005>
1.49921035766602

$$$$
18
                    3D
 Structure written by MMmdl.
146154  0  0  1  0            999 V2000
  -30.5568  -14.8446   20.4274 C   0  0  0  0  0  0
  -30.4382  -12.5126   19.4959 C   0  0  0  0  0  0
  -29.5218  -12.5248   18.2501 C   0  0  0  0  0  0
  -28.0483  -12.3334   18.6566 C   0  0  0  0  0  0
  -27.6386  -13.2399   19.8484 C   0  0  2  0  0  0
  -28.6790  -13.2050   20.9893 C   0  0  0  0  0  0
  -25.2494  -13.8203   20.5708 C   0  0  0  0  0  0
  -24.1792  -13.0438   20.9204 C   0  0  0  0  0  0
  -24.6389  -11.6916   20.8722 C   0  0  0  0  0  0
  -23.9065  -10.4298   21.0391 C   0  0  0  0  0  0
  -24.3621   -9.4215   21.9172 C   0  0  0  0  0  0
  -23.6294   -8.2249   22.0746 C   0  0  0  0  0  0
  -22.4272   -8.0285   21.3540 C   0  0  0  0  0  0
  -21.9906   -9.0257   20.4641 C   0  0  0  0  0  0
  -22.7235  -10.2134   20.3046 C   0  0  0  0  0  0
  -21.6861   -6.0728   22.5276 C   0  0  0  0  0  0
  -21.4016   -6.5628   23.8209 C   0  0  0  0  0  0
  -21.3664   -5.6785   24.9174 C   0  0  0  0  0  0
  -21.6045   -4.3046   24.7227 C   0  0  0  0  0  0
  -21.8820   -3.8138   23.4348 C   0  0  0  0  0  0
  -21.9193   -4.6954   22.3401 C   0  0  0  0  0  0
  -22.7819  -13.5218   21.1872 C   0  0  0  0  0  0
  -22.1668   -4.2138   21.0980 F   0  0  0  0  0  0
  -21.5629   -3.4532   25.7741 F   0  0  0  0  0  0
  -29.9738  -13.5875   20.4118 N   0  0  0  0  0  0
  -26.2920  -12.9421   20.3253 N   0  0  0  0  0  0
  -25.9322  -11.6554   20.5713 N   0  0  0  0  0  0
  -22.0459  -12.8225   22.0431 N   0  0  0  0  0  0
  -25.4171  -15.1938   20.4164 N   0  0  0  0  0  0
  -31.7378  -14.9485   20.0785 O   0  0  0  0  0  0
  -21.6642   -6.8875   21.4237 O   0  0  0  0  0  0
  -22.3514  -14.5529   20.6716 O   0  0  0  0  0  0
  -24.6376  -31.8476   23.1905 C   0  0  0  0  0  0
  -25.9176  -32.4709   23.8284 C   0  0  1  0  0  0
  -27.2237  -27.1987   20.1294 C   0  0  0  0  0  0
  -25.5937  -33.8514   24.2200 N   0  0  0  0  0  0
  -23.4380  -30.4672   21.5343 C   0  0  2  0  0  0
  -24.8861  -28.9018   20.1026 C   0  0  0  0  0  0
  -22.7538  -29.4563   22.4871 C   0  0  0  0  0  0
  -18.0300  -28.1397   22.8477 C   0  0  0  0  0  0
  -24.1495  -36.7266   23.2643 C   0  0  0  0  0  0
  -25.9880  -30.7390   21.3805 C   0  0  0  0  0  0
  -26.0582  -29.3571   20.7180 C   0  0  0  0  0  0
  -27.2244  -28.5174   20.7199 C   0  0  0  0  0  0
  -26.0268  -26.8215   19.4828 C   0  0  0  0  0  0
  -24.8792  -27.6455   19.4727 C   0  0  0  0  0  0
  -23.6590  -29.7965   20.1515 C   0  0  0  0  0  0
  -25.4125  -36.3043   24.0315 C   0  0  1  0  0  0
  -20.5907  -28.3713   23.1244 C   0  0  2  0  0  0
  -20.6784  -26.9422   22.5407 C   0  0  0  0  0  0
  -19.5764  -26.6383   21.5211 C   0  0  0  0  0  0
  -18.1942  -26.7935   22.1623 C   0  0  0  0  0  0
  -19.1553  -28.8873   23.2856 C   0  0  0  0  0  0
  -18.9473  -30.1466   23.8885 C   0  0  0  0  0  0
  -17.6472  -30.6592   24.0559 C   0  0  0  0  0  0
  -25.9065  -34.9414   23.5068 C   0  0  0  0  0  0
  -16.5363  -29.9087   23.6332 C   0  0  0  0  0  0
  -16.7286  -28.6505   23.0355 C   0  0  0  0  0  0
  -26.4515  -31.6571   25.0713 C   0  0  0  0  0  0
  -25.3710  -31.3754   26.1416 C   0  0  0  0  0  0
  -27.0371  -30.2968   24.6276 C   0  0  0  0  0  0
  -27.6054  -32.4331   25.7494 C   0  0  0  0  0  0
  -27.5573  -37.1800   24.8469 C   0  0  0  0  0  0
  -21.4236  -29.3041   22.3617 N   0  0  0  0  0  0
  -26.4297  -37.3743   23.9393 N   0  0  0  0  0  0
  -24.7072  -31.0380   22.0910 N   0  0  0  0  0  0
  -23.4204  -28.8111   23.3007 O   0  0  0  0  0  0
  -28.3025  -26.2720   20.2490 O   0  0  0  0  0  0
  -26.5654  -34.8906   22.4650 O   0  0  0  0  0  0
  -23.5514  -32.1333   23.7163 O   0  0  0  0  0  0
  -29.2232  -18.5247   20.8130 C   0  0  0  0  0  0
  -29.5189  -19.8101   20.1123 C   0  0  0  0  0  0
  -29.8672  -17.3473   20.3472 C   0  0  0  0  0  0
  -28.3234  -24.9170   19.7398 C   0  0  0  0  0  0
  -28.6581  -23.7174   20.3944 C   0  0  0  0  0  0
  -28.8413  -22.3557   19.7077 C   0  0  0  0  0  0
  -30.3743  -19.6191   19.1225 N   0  0  0  0  0  0
  -29.0322  -21.1946   20.4744 N   0  0  0  0  0  0
  -29.7671  -15.9709   20.7067 N   0  0  0  0  0  0
  -28.8162  -22.2649   18.4779 O   0  0  0  0  0  0
  -28.8739  -23.7655   21.7155 O   0  0  0  0  0  0
  -28.3835  -18.4944   21.8235 F   0  0  0  0  0  0
  -30.8428  -17.9717   19.0354 S   0  0  0  0  0  0
  -31.4795  -12.6482   19.1978 H   0  0  0  0  0  0
  -30.3985  -11.5435   19.9959 H   0  0  0  0  0  0
  -29.8212  -11.7429   17.5512 H   0  0  0  0  0  0
  -29.6367  -13.4712   17.7200 H   0  0  0  0  0  0
  -27.9164  -11.2852   18.9271 H   0  0  0  0  0  0
  -27.3953  -12.5113   17.8007 H   0  0  0  0  0  0
  -27.6217  -14.2558   19.4549 H   0  0  0  0  0  0
  -28.7323  -12.2117   21.4359 H   0  0  0  0  0  0
  -28.3935  -13.8844   21.7934 H   0  0  0  0  0  0
  -25.2760   -9.5695   22.4758 H   0  0  0  0  0  0
  -23.9996   -7.4647   22.7474 H   0  0  0  0  0  0
  -21.0828   -8.8777   19.8960 H   0  0  0  0  0  0
  -22.3682  -10.9674   19.6164 H   0  0  0  0  0  0
  -21.2008   -7.6138   23.9711 H   0  0  0  0  0  0
  -21.1489   -6.0515   25.9077 H   0  0  0  0  0  0
  -22.0592   -2.7599   23.2856 H   0  0  0  0  0  0
  -22.4066  -11.9888   22.4836 H   0  0  0  0  0  0
  -21.1080  -13.1264   22.2621 H   0  0  0  0  0  0
  -24.6458  -15.8432   20.5287 H   0  0  0  0  0  0
  -26.2613  -15.6393   20.0808 H   0  0  0  0  0  0
  -26.7240  -32.5330   23.1015 H   0  0  0  0  0  0
  -25.0053  -33.9631   25.0327 H   0  0  0  0  0  0
  -22.7389  -31.2924   21.3834 H   0  0  0  0  0  0
  -23.3745  -35.9614   23.3330 H   0  0  0  0  0  0
  -24.3572  -36.8871   22.2052 H   0  0  0  0  0  0
  -23.7277  -37.6481   23.6664 H   0  0  0  0  0  0
  -26.1421  -31.4992   20.6132 H   0  0  0  0  0  0
  -26.8593  -30.7826   22.0230 H   0  0  0  0  0  0
  -28.1176  -28.8554   21.2257 H   0  0  0  0  0  0
  -25.9491  -25.8508   19.0151 H   0  0  0  0  0  0
  -23.9796  -27.2915   18.9881 H   0  0  0  0  0  0
  -23.7868  -30.5717   19.3951 H   0  0  0  0  0  0
  -22.7751  -29.2339   19.8463 H   0  0  0  0  0  0
  -25.1320  -36.1879   25.0808 H   0  0  0  0  0  0
  -21.0003  -28.3311   24.1366 H   0  0  0  0  0  0
  -20.5675  -26.2333   23.3626 H   0  0  0  0  0  0
  -21.6653  -26.7435   22.1212 H   0  0  0  0  0  0
  -19.6925  -25.6287   21.1258 H   0  0  0  0  0  0
  -19.6697  -27.3178   20.6727 H   0  0  0  0  0  0
  -17.4209  -26.6676   21.4029 H   0  0  0  0  0  0
  -18.0341  -26.0082   22.9026 H   0  0  0  0  0  0
  -19.7948  -30.7286   24.2257 H   0  0  0  0  0  0
  -17.5024  -31.6274   24.5163 H   0  0  0  0  0  0
  -15.5362  -30.2989   23.7660 H   0  0  0  0  0  0
  -15.8687  -28.0817   22.7087 H   0  0  0  0  0  0
  -24.5872  -30.7123   25.7731 H   0  0  0  0  0  0
  -24.8921  -32.2938   26.4820 H   0  0  0  0  0  0
  -25.7992  -30.8929   27.0209 H   0  0  0  0  0  0
  -26.2976  -29.6695   24.1281 H   0  0  0  0  0  0
  -27.3982  -29.7262   25.4845 H   0  0  0  0  0  0
  -27.8889  -30.4202   23.9583 H   0  0  0  0  0  0
  -27.2643  -33.3628   26.2061 H   0  0  0  0  0  0
  -28.3868  -32.6900   25.0329 H   0  0  0  0  0  0
  -28.0723  -31.8471   26.5420 H   0  0  0  0  0  0
  -28.2619  -38.0065   24.7463 H   0  0  0  0  0  0
  -28.1040  -36.2596   24.6368 H   0  0  0  0  0  0
  -27.2284  -37.1534   25.8872 H   0  0  0  0  0  0
  -20.9439  -29.8742   21.6790 H   0  0  0  0  0  0
  -26.0171  -38.2823   24.1351 H   0  0  0  0  0  0
  -28.1056  -24.9147   18.6798 H   0  0  0  0  0  0
  -28.8561  -21.3306   21.4589 H   0  0  0  0  0  0
  -28.8972  -15.7375   21.1589 H   0  0  0  0  0  0
  -28.7333  -24.6653   21.9819 H   0  0  0  0  0  0
  1 25  1  0  0  0
  1 30  2  0  0  0
  1 79  1  0  0  0
  2  3  1  0  0  0
  2 25  1  0  0  0
  2 84  1  0  0  0
  2 85  1  0  0  0
  3  4  1  0  0  0
  3 86  1  0  0  0
  3 87  1  0  0  0
  4  5  1  0  0  0
  4 88  1  0  0  0
  4 89  1  0  0  0
  5  6  1  0  0  0
  5 26  1  0  0  0
  5 90  1  0  0  0
  6 25  1  0  0  0
  6 91  1  0  0  0
  6 92  1  0  0  0
  7  8  2  0  0  0
  7 26  1  0  0  0
  7 29  1  0  0  0
  8  9  1  0  0  0
  8 22  1  0  0  0
  9 10  1  0  0  0
  9 27  2  0  0  0
 10 11  2  0  0  0
 10 15  1  0  0  0
 11 12  1  0  0  0
 11 93  1  0  0  0
 12 13  2  0  0  0
 12 94  1  0  0  0
 13 14  1  0  0  0
 13 31  1  0  0  0
 14 15  2  0  0  0
 14 95  1  0  0  0
 15 96  1  0  0  0
 16 17  2  0  0  0
 16 21  1  0  0  0
 16 31  1  0  0  0
 17 18  1  0  0  0
 17 97  1  0  0  0
 18 19  2  0  0  0
 18 98  1  0  0  0
 19 20  1  0  0  0
 19 24  1  0  0  0
 20 21  2  0  0  0
 20 99  1  0  0  0
 21 23  1  0  0  0
 22 28  1  0  0  0
 22 32  2  0  0  0
 26 27  1  0  0  0
 28100  1  0  0  0
 28101  1  0  0  0
 29102  1  0  0  0
 29103  1  0  0  0
 33 34  1  0  0  0
 33 66  1  0  0  0
 33 70  2  0  0  0
 34 36  1  0  0  0
 34 59  1  0  0  0
 34104  1  0  0  0
 35 44  2  0  0  0
 35 45  1  0  0  0
 35 68  1  0  0  0
 36 56  1  0  0  0
 36105  1  0  0  0
 37 39  1  0  0  0
 37 47  1  0  0  0
 37 66  1  0  0  0
 37106  1  0  0  0
 38 43  2  0  0  0
 38 46  1  0  0  0
 38 47  1  0  0  0
 39 64  1  0  0  0
 39 67  2  0  0  0
 40 52  1  0  0  0
 40 53  2  0  0  0
 40 58  1  0  0  0
 41107  1  0  0  0
 41108  1  0  0  0
 41109  1  0  0  0
 41 48  1  0  0  0
 42 43  1  0  0  0
 42 66  1  0  0  0
 42110  1  0  0  0
 42111  1  0  0  0
 43 44  1  0  0  0
 44112  1  0  0  0
 45 46  2  0  0  0
 45113  1  0  0  0
 46114  1  0  0  0
 47115  1  0  0  0
 47116  1  0  0  0
 48 56  1  0  0  0
 48 65  1  0  0  0
 48117  1  0  0  0
 49 50  1  0  0  0
 49 53  1  0  0  0
 49 64  1  0  0  0
 49118  1  0  0  0
 50 51  1  0  0  0
 50119  1  0  0  0
 50120  1  0  0  0
 51 52  1  0  0  0
 51121  1  0  0  0
 51122  1  0  0  0
 52123  1  0  0  0
 52124  1  0  0  0
 53 54  1  0  0  0
 54 55  2  0  0  0
 54125  1  0  0  0
 55 57  1  0  0  0
 55126  1  0  0  0
 56 69  2  0  0  0
 57 58  2  0  0  0
 57127  1  0  0  0
 58128  1  0  0  0
 59 60  1  0  0  0
 59 61  1  0  0  0
 59 62  1  0  0  0
 60129  1  0  0  0
 60130  1  0  0  0
 60131  1  0  0  0
 61132  1  0  0  0
 61133  1  0  0  0
 61134  1  0  0  0
 62135  1  0  0  0
 62136  1  0  0  0
 62137  1  0  0  0
 63 65  1  0  0  0
 63138  1  0  0  0
 63139  1  0  0  0
 63140  1  0  0  0
 64141  1  0  0  0
 65142  1  0  0  0
 68 74  1  0  0  0
 71 72  1  0  0  0
 71 73  2  0  0  0
 71 82  1  0  0  0
 72 77  2  0  0  0
 72 78  1  0  0  0
 73 79  1  0  0  0
 73 83  1  0  0  0
 74 75  2  0  0  0
 74143  1  0  0  0
 75 76  1  0  0  0
 75 81  1  0  0  0
 76 78  1  0  0  0
 76 80  2  0  0  0
 77 83  1  0  0  0
 78144  1  0  0  0
 79145  1  0  0  0
 81146  1  0  0  0
M  ISO  4   1 100  68 101  74 101  79 100
M  END
> <chiral flag>
0

> <version>
0

> <s_m_source_file>
/data/baiqing/PycharmProjects/Reinvent-master-3.2/result/LINK_invent/BTK/process_docking_weight1_custom_product_contain_oxygen_bond_distance_aromatic_linkinvent_7_9_3/rearranged_h_0180.sdf

> <i_m_source_file_index>
19

> <r_mmod_Potential_Energy-OPLS-2005>
80.9048156738281

> <r_mmod_Stretch_Energy-OPLS-2005>
155.439483642578

> <r_mmod_Bend_Energy-OPLS-2005>
183.41357421875

> <r_mmod_Torsional_Energy-OPLS-2005>
217.330642700195

> <r_mmod_Improper_Torsional_Energy-OPLS-2005>
4.56976366043091

> <r_mmod_Van_der_Waal_Energy-OPLS-2005>
114.58878326416

> <r_mmod_Electrostatic_Energy-OPLS-2005>
-490.813140869141

> <r_mmod_Solvation_Energy-OPLS-2005>
-236.975326538086

> <b_mmod_Minimization_Converged-OPLS-2005>
0

> <r_mmod_RMS_Derivative-OPLS-2005>
1.26745188236237

$$$$
19
                    3D
 Structure written by MMmdl.
153161  0  0  1  0            999 V2000
  -30.6000  -14.6947   20.4840 C   0  0  0  0  0  0
  -30.4464  -12.4264   19.4568 C   0  0  0  0  0  0
  -29.5137  -12.5114   18.2271 C   0  0  0  0  0  0
  -28.0375  -12.3363   18.6383 C   0  0  0  0  0  0
  -27.6515  -13.2139   19.8581 C   0  0  2  0  0  0
  -28.6982  -13.0967   20.9892 C   0  0  0  0  0  0
  -25.2556  -13.8145   20.5689 C   0  0  0  0  0  0
  -24.1832  -13.0416   20.9215 C   0  0  0  0  0  0
  -24.6401  -11.6890   20.8747 C   0  0  0  0  0  0
  -23.9068  -10.4281   21.0408 C   0  0  0  0  0  0
  -24.3621   -9.4195   21.9181 C   0  0  0  0  0  0
  -23.6286   -8.2241   22.0756 C   0  0  0  0  0  0
  -22.4267   -8.0286   21.3549 C   0  0  0  0  0  0
  -21.9900   -9.0261   20.4652 C   0  0  0  0  0  0
  -22.7239  -10.2132   20.3057 C   0  0  0  0  0  0
  -21.6858   -6.0732   22.5275 C   0  0  0  0  0  0
  -21.4021   -6.5637   23.8209 C   0  0  0  0  0  0
  -21.3656   -5.6789   24.9168 C   0  0  0  0  0  0
  -21.6040   -4.3052   24.7221 C   0  0  0  0  0  0
  -21.8823   -3.8144   23.4344 C   0  0  0  0  0  0
  -21.9195   -4.6957   22.3395 C   0  0  0  0  0  0
  -22.7854  -13.5219   21.1858 C   0  0  0  0  0  0
  -22.1662   -4.2146   21.0971 F   0  0  0  0  0  0
  -21.5619   -3.4534   25.7734 F   0  0  0  0  0  0
  -30.0080  -13.4556   20.4216 N   0  0  0  0  0  0
  -26.2979  -12.9323   20.3285 N   0  0  0  0  0  0
  -25.9325  -11.6483   20.5742 N   0  0  0  0  0  0
  -22.0490  -12.8234   22.0422 N   0  0  0  0  0  0
  -25.4207  -15.1865   20.4091 N   0  0  0  0  0  0
  -31.7719  -14.8593   20.1326 O   0  0  0  0  0  0
  -21.6638   -6.8878   21.4240 O   0  0  0  0  0  0
  -22.3536  -14.5516   20.6683 O   0  0  0  0  0  0
  -24.6277  -31.8576   23.2019 C   0  0  0  0  0  0
  -25.9117  -32.4767   23.8349 C   0  0  1  0  0  0
  -27.2258  -27.2904   20.1286 C   0  0  0  0  0  0
  -25.5927  -33.8569   24.2270 N   0  0  0  0  0  0
  -23.4241  -30.4802   21.5438 C   0  0  2  0  0  0
  -24.8737  -28.9331   20.1105 C   0  0  0  0  0  0
  -22.7483  -29.4609   22.4922 C   0  0  0  0  0  0
  -18.0287  -28.1385   22.8477 C   0  0  0  0  0  0
  -24.1491  -36.7292   23.2636 C   0  0  0  0  0  0
  -25.9678  -30.7758   21.3837 C   0  0  0  0  0  0
  -26.0407  -29.4004   20.7290 C   0  0  0  0  0  0
  -27.2161  -28.5870   20.7374 C   0  0  0  0  0  0
  -26.0446  -26.9008   19.4549 C   0  0  0  0  0  0
  -24.8783  -27.6879   19.4649 C   0  0  0  0  0  0
  -23.6421  -29.8155   20.1591 C   0  0  0  0  0  0
  -25.4115  -36.3076   24.0323 C   0  0  1  0  0  0
  -20.5889  -28.3697   23.1271 C   0  0  2  0  0  0
  -20.6775  -26.9415   22.5411 C   0  0  0  0  0  0
  -19.5756  -26.6379   21.5205 C   0  0  0  0  0  0
  -18.1929  -26.7926   22.1612 C   0  0  0  0  0  0
  -19.1540  -28.8856   23.2869 C   0  0  0  0  0  0
  -18.9465  -30.1455   23.8891 C   0  0  0  0  0  0
  -17.6465  -30.6587   24.0559 C   0  0  0  0  0  0
  -25.9055  -34.9447   23.5097 C   0  0  0  0  0  0
  -16.5355  -29.9086   23.6329 C   0  0  0  0  0  0
  -16.7275  -28.6501   23.0353 C   0  0  0  0  0  0
  -26.4487  -31.6589   25.0736 C   0  0  0  0  0  0
  -25.3712  -31.3748   26.1463 C   0  0  0  0  0  0
  -27.0327  -30.3001   24.6229 C   0  0  0  0  0  0
  -27.6057  -32.4319   25.7494 C   0  0  0  0  0  0
  -27.5587  -37.1792   24.8452 C   0  0  0  0  0  0
  -21.4197  -29.3042   22.3661 N   0  0  0  0  0  0
  -26.4289  -37.3779   23.9410 N   0  0  0  0  0  0
  -24.6914  -31.0556   22.0991 N   0  0  0  0  0  0
  -23.4189  -28.8147   23.3015 O   0  0  0  0  0  0
  -28.3289  -26.4110   20.1802 O   0  0  0  0  0  0
  -26.5628  -34.8917   22.4668 O   0  0  0  0  0  0
  -23.5432  -32.1391   23.7325 O   0  0  0  0  0  0
  -29.1319  -19.3745   19.5967 C   0  0  0  0  0  0
  -30.4549  -19.4311   21.5891 C   0  0  0  0  0  0
  -29.2068  -17.9397   19.5743 C   0  0  0  0  0  0
  -29.7347  -20.1688   20.6079 C   0  0  0  0  0  0
  -29.8855  -17.2064   20.6045 C   0  0  0  0  0  0
  -30.5113  -18.0004   21.6028 C   0  0  0  0  0  0
  -28.1234  -25.0030   20.2487 C   0  0  0  0  0  0
  -29.0709  -24.0038   20.3427 C   0  0  0  0  0  0
  -28.7058  -22.5413   20.3295 C   0  0  0  0  0  0
  -28.5228  -17.2058   18.4230 C   0  0  0  0  0  0
  -29.7123  -21.6474   20.6159 N   0  0  0  0  0  0
  -29.7586  -15.7438   20.7647 N   0  0  0  0  0  0
  -27.5686  -22.1350   20.0800 O   0  0  0  0  0  0
  -30.3654  -24.3421   20.4335 O   0  0  0  0  0  0
  -31.1472  -17.3818   22.6277 F   0  0  0  0  0  0
  -28.1985  -18.0289   17.4246 F   0  0  0  0  0  0
  -29.3199  -16.2629   17.9200 F   0  0  0  0  0  0
  -27.4076  -16.6307   18.8675 F   0  0  0  0  0  0
  -31.4848  -12.5668   19.1516 H   0  0  0  0  0  0
  -30.3991  -11.4354   19.9117 H   0  0  0  0  0  0
  -29.7883  -11.7540   17.4920 H   0  0  0  0  0  0
  -29.6438  -13.4766   17.7352 H   0  0  0  0  0  0
  -27.8867  -11.2835   18.8781 H   0  0  0  0  0  0
  -27.3831  -12.5530   17.7929 H   0  0  0  0  0  0
  -27.6600  -14.2417   19.5019 H   0  0  0  0  0  0
  -28.7238  -12.0800   21.3840 H   0  0  0  0  0  0
  -28.4362  -13.7372   21.8331 H   0  0  0  0  0  0
  -25.2770   -9.5663   22.4748 H   0  0  0  0  0  0
  -23.9993   -7.4627   22.7473 H   0  0  0  0  0  0
  -21.0829   -8.8783   19.8962 H   0  0  0  0  0  0
  -22.3702  -10.9671   19.6166 H   0  0  0  0  0  0
  -21.2029   -7.6148   23.9710 H   0  0  0  0  0  0
  -21.1466   -6.0519   25.9068 H   0  0  0  0  0  0
  -22.0607   -2.7607   23.2849 H   0  0  0  0  0  0
  -22.4093  -11.9910   22.4846 H   0  0  0  0  0  0
  -21.1107  -13.1274   22.2602 H   0  0  0  0  0  0
  -24.6337  -15.8199   20.4857 H   0  0  0  0  0  0
  -26.2195  -15.6150   19.9540 H   0  0  0  0  0  0
  -26.7187  -32.5424   23.1096 H   0  0  0  0  0  0
  -25.0058  -33.9710   25.0401 H   0  0  0  0  0  0
  -22.7199  -31.3015   21.3983 H   0  0  0  0  0  0
  -23.3751  -35.9629   23.3299 H   0  0  0  0  0  0
  -24.3587  -36.8913   22.2052 H   0  0  0  0  0  0
  -23.7254  -37.6497   23.6658 H   0  0  0  0  0  0
  -26.1073  -31.5371   20.6147 H   0  0  0  0  0  0
  -26.8456  -30.8236   22.0168 H   0  0  0  0  0  0
  -28.1066  -28.9340   21.2430 H   0  0  0  0  0  0
  -25.9999  -25.9640   18.9199 H   0  0  0  0  0  0
  -23.9912  -27.3278   18.9623 H   0  0  0  0  0  0
  -23.7644  -30.5913   19.4024 H   0  0  0  0  0  0
  -22.7619  -29.2454   19.8553 H   0  0  0  0  0  0
  -25.1291  -36.1926   25.0815 H   0  0  0  0  0  0
  -20.9976  -28.3279   24.1396 H   0  0  0  0  0  0
  -20.5655  -26.2308   23.3616 H   0  0  0  0  0  0
  -21.6650  -26.7429   22.1224 H   0  0  0  0  0  0
  -19.6920  -25.6283   21.1248 H   0  0  0  0  0  0
  -19.6694  -27.3174   20.6721 H   0  0  0  0  0  0
  -17.4201  -26.6674   21.4016 H   0  0  0  0  0  0
  -18.0329  -26.0067   22.9008 H   0  0  0  0  0  0
  -19.7943  -30.7270   24.2260 H   0  0  0  0  0  0
  -17.5024  -31.6269   24.5158 H   0  0  0  0  0  0
  -15.5360  -30.2991   23.7654 H   0  0  0  0  0  0
  -15.8672  -28.0816   22.7081 H   0  0  0  0  0  0
  -24.5888  -30.7089   25.7802 H   0  0  0  0  0  0
  -24.8901  -32.2922   26.4868 H   0  0  0  0  0  0
  -25.8032  -30.8945   27.0252 H   0  0  0  0  0  0
  -26.2910  -29.6758   24.1235 H   0  0  0  0  0  0
  -27.3975  -29.7262   25.4759 H   0  0  0  0  0  0
  -27.8805  -30.4265   23.9493 H   0  0  0  0  0  0
  -27.2675  -33.3614   26.2087 H   0  0  0  0  0  0
  -28.3854  -32.6886   25.0307 H   0  0  0  0  0  0
  -28.0743  -31.8434   26.5395 H   0  0  0  0  0  0
  -28.2585  -38.0108   24.7534 H   0  0  0  0  0  0
  -28.1101  -36.2646   24.6222 H   0  0  0  0  0  0
  -27.2314  -37.1382   25.8856 H   0  0  0  0  0  0
  -20.9371  -29.8776   21.6881 H   0  0  0  0  0  0
  -26.0166  -38.2847   24.1434 H   0  0  0  0  0  0
  -28.6013  -19.8814   18.8045 H   0  0  0  0  0  0
  -30.9555  -19.9637   22.3849 H   0  0  0  0  0  0
  -27.0787  -24.7307   20.2212 H   0  0  0  0  0  0
  -30.5597  -22.1070   20.9264 H   0  0  0  0  0  0
  -28.8255  -15.4358   20.9908 H   0  0  0  0  0  0
  -30.4025  -25.2904   20.4118 H   0  0  0  0  0  0
  1 25  1  0  0  0
  1 30  2  0  0  0
  1 82  1  0  0  0
  2  3  1  0  0  0
  2 25  1  0  0  0
  2 89  1  0  0  0
  2 90  1  0  0  0
  3  4  1  0  0  0
  3 91  1  0  0  0
  3 92  1  0  0  0
  4  5  1  0  0  0
  4 93  1  0  0  0
  4 94  1  0  0  0
  5  6  1  0  0  0
  5 26  1  0  0  0
  5 95  1  0  0  0
  6 25  1  0  0  0
  6 96  1  0  0  0
  6 97  1  0  0  0
  7  8  2  0  0  0
  7 26  1  0  0  0
  7 29  1  0  0  0
  8  9  1  0  0  0
  8 22  1  0  0  0
  9 10  1  0  0  0
  9 27  2  0  0  0
 10 11  2  0  0  0
 10 15  1  0  0  0
 11 12  1  0  0  0
 11 98  1  0  0  0
 12 13  2  0  0  0
 12 99  1  0  0  0
 13 14  1  0  0  0
 13 31  1  0  0  0
 14 15  2  0  0  0
 14100  1  0  0  0
 15101  1  0  0  0
 16 17  2  0  0  0
 16 21  1  0  0  0
 16 31  1  0  0  0
 17 18  1  0  0  0
 17102  1  0  0  0
 18 19  2  0  0  0
 18103  1  0  0  0
 19 20  1  0  0  0
 19 24  1  0  0  0
 20 21  2  0  0  0
 20104  1  0  0  0
 21 23  1  0  0  0
 22 28  1  0  0  0
 22 32  2  0  0  0
 26 27  1  0  0  0
 28105  1  0  0  0
 28106  1  0  0  0
 29107  1  0  0  0
 29108  1  0  0  0
 33 34  1  0  0  0
 33 66  1  0  0  0
 33 70  2  0  0  0
 34 36  1  0  0  0
 34 59  1  0  0  0
 34109  1  0  0  0
 35 44  2  0  0  0
 35 45  1  0  0  0
 35 68  1  0  0  0
 36 56  1  0  0  0
 36110  1  0  0  0
 37 39  1  0  0  0
 37 47  1  0  0  0
 37 66  1  0  0  0
 37111  1  0  0  0
 38 43  2  0  0  0
 38 46  1  0  0  0
 38 47  1  0  0  0
 39 64  1  0  0  0
 39 67  2  0  0  0
 40 52  1  0  0  0
 40 53  2  0  0  0
 40 58  1  0  0  0
 41112  1  0  0  0
 41113  1  0  0  0
 41114  1  0  0  0
 41 48  1  0  0  0
 42 43  1  0  0  0
 42 66  1  0  0  0
 42115  1  0  0  0
 42116  1  0  0  0
 43 44  1  0  0  0
 44117  1  0  0  0
 45 46  2  0  0  0
 45118  1  0  0  0
 46119  1  0  0  0
 47120  1  0  0  0
 47121  1  0  0  0
 48 56  1  0  0  0
 48 65  1  0  0  0
 48122  1  0  0  0
 49 50  1  0  0  0
 49 53  1  0  0  0
 49 64  1  0  0  0
 49123  1  0  0  0
 50 51  1  0  0  0
 50124  1  0  0  0
 50125  1  0  0  0
 51 52  1  0  0  0
 51126  1  0  0  0
 51127  1  0  0  0
 52128  1  0  0  0
 52129  1  0  0  0
 53 54  1  0  0  0
 54 55  2  0  0  0
 54130  1  0  0  0
 55 57  1  0  0  0
 55131  1  0  0  0
 56 69  2  0  0  0
 57 58  2  0  0  0
 57132  1  0  0  0
 58133  1  0  0  0
 59 60  1  0  0  0
 59 61  1  0  0  0
 59 62  1  0  0  0
 60134  1  0  0  0
 60135  1  0  0  0
 60136  1  0  0  0
 61137  1  0  0  0
 61138  1  0  0  0
 61139  1  0  0  0
 62140  1  0  0  0
 62141  1  0  0  0
 62142  1  0  0  0
 63 65  1  0  0  0
 63143  1  0  0  0
 63144  1  0  0  0
 63145  1  0  0  0
 64146  1  0  0  0
 65147  1  0  0  0
 68 77  1  0  0  0
 71 73  2  0  0  0
 71 74  1  0  0  0
 71148  1  0  0  0
 72 74  2  0  0  0
 72 76  1  0  0  0
 72149  1  0  0  0
 73 75  1  0  0  0
 73 80  1  0  0  0
 74 81  1  0  0  0
 75 76  2  0  0  0
 75 82  1  0  0  0
 76 85  1  0  0  0
 77 78  2  0  0  0
 77150  1  0  0  0
 78 79  1  0  0  0
 78 84  1  0  0  0
 79 81  1  0  0  0
 79 83  2  0  0  0
 80 86  1  0  0  0
 80 87  1  0  0  0
 80 88  1  0  0  0
 81151  1  0  0  0
 82152  1  0  0  0
 84153  1  0  0  0
M  ISO  4   1 100  68 101  77 101  82 100
M  END
> <chiral flag>
0

> <version>
0

> <s_m_source_file>
/data/baiqing/PycharmProjects/Reinvent-master-3.2/result/LINK_invent/BTK/process_docking_weight1_custom_product_contain_oxygen_bond_distance_aromatic_linkinvent_7_9_3/rearranged_h_0180.sdf

> <i_m_source_file_index>
20

> <r_mmod_Potential_Energy-OPLS-2005>
11.2444639205933

> <r_mmod_Stretch_Energy-OPLS-2005>
91.7513275146484

> <r_mmod_Bend_Energy-OPLS-2005>
133.465713500977

> <r_mmod_Torsional_Energy-OPLS-2005>
250.991485595703

> <r_mmod_Improper_Torsional_Energy-OPLS-2005>
6.86573219299316

> <r_mmod_Van_der_Waal_Energy-OPLS-2005>
144.539093017578

> <r_mmod_Electrostatic_Energy-OPLS-2005>
-465.280151367188

> <r_mmod_Solvation_Energy-OPLS-2005>
-218.103988647461

> <b_mmod_Minimization_Converged-OPLS-2005>
0

> <r_mmod_RMS_Derivative-OPLS-2005>
1.13541615009308

$$$$
20
                    3D
 Structure written by MMmdl.
158166  0  0  1  0            999 V2000
  -30.6747  -14.5030   20.5762 C   0  0  0  0  0  0
  -30.4144  -12.3256   19.4373 C   0  0  0  0  0  0
  -29.4993  -12.5070   18.2099 C   0  0  0  0  0  0
  -28.0158  -12.3769   18.6109 C   0  0  0  0  0  0
  -27.6507  -13.2137   19.8675 C   0  0  2  0  0  0
  -28.6835  -13.0049   20.9949 C   0  0  0  0  0  0
  -25.2509  -13.8156   20.5677 C   0  0  0  0  0  0
  -24.1792  -13.0444   20.9194 C   0  0  0  0  0  0
  -24.6347  -11.6900   20.8703 C   0  0  0  0  0  0
  -23.9035  -10.4290   21.0392 C   0  0  0  0  0  0
  -24.3593   -9.4221   21.9165 C   0  0  0  0  0  0
  -23.6279   -8.2256   22.0750 C   0  0  0  0  0  0
  -22.4255   -8.0292   21.3556 C   0  0  0  0  0  0
  -21.9887   -9.0258   20.4644 C   0  0  0  0  0  0
  -22.7205  -10.2138   20.3047 C   0  0  0  0  0  0
  -21.6854   -6.0747   22.5290 C   0  0  0  0  0  0
  -21.4003   -6.5646   23.8229 C   0  0  0  0  0  0
  -21.3662   -5.6789   24.9182 C   0  0  0  0  0  0
  -21.6049   -4.3057   24.7216 C   0  0  0  0  0  0
  -21.8814   -3.8162   23.4330 C   0  0  0  0  0  0
  -21.9181   -4.6977   22.3402 C   0  0  0  0  0  0
  -22.7820  -13.5247   21.1884 C   0  0  0  0  0  0
  -22.1661   -4.2177   21.0973 F   0  0  0  0  0  0
  -21.5641   -3.4529   25.7726 F   0  0  0  0  0  0
  -30.0058  -13.3241   20.4436 N   0  0  0  0  0  0
  -26.2931  -12.9347   20.3274 N   0  0  0  0  0  0
  -25.9257  -11.6498   20.5693 N   0  0  0  0  0  0
  -22.0422  -12.8254   22.0416 N   0  0  0  0  0  0
  -25.4223  -15.1887   20.4153 N   0  0  0  0  0  0
  -31.8093  -14.6383   20.1053 O   0  0  0  0  0  0
  -21.6639   -6.8886   21.4252 O   0  0  0  0  0  0
  -22.3519  -14.5563   20.6723 O   0  0  0  0  0  0
  -24.6193  -31.8681   23.2054 C   0  0  0  0  0  0
  -25.9070  -32.4840   23.8377 C   0  0  1  0  0  0
  -27.2337  -27.3824   20.0907 C   0  0  0  0  0  0
  -25.5939  -33.8635   24.2307 N   0  0  0  0  0  0
  -23.4119  -30.4871   21.5456 C   0  0  2  0  0  0
  -24.8583  -28.9502   20.1117 C   0  0  0  0  0  0
  -22.7464  -29.4630   22.4938 C   0  0  0  0  0  0
  -18.0282  -28.1404   22.8475 C   0  0  0  0  0  0
  -24.1489  -36.7277   23.2634 C   0  0  0  0  0  0
  -25.9477  -30.8164   21.3689 C   0  0  0  0  0  0
  -26.0225  -29.4481   20.7082 C   0  0  0  0  0  0
  -27.2107  -28.6733   20.6882 C   0  0  0  0  0  0
  -26.0338  -26.9047   19.5124 C   0  0  0  0  0  0
  -24.8610  -27.6817   19.5109 C   0  0  0  0  0  0
  -23.6259  -29.8243   20.1605 C   0  0  0  0  0  0
  -25.4128  -36.3102   24.0310 C   0  0  1  0  0  0
  -20.5891  -28.3690   23.1310 C   0  0  2  0  0  0
  -20.6774  -26.9424   22.5418 C   0  0  0  0  0  0
  -19.5754  -26.6399   21.5217 C   0  0  0  0  0  0
  -18.1926  -26.7952   22.1611 C   0  0  0  0  0  0
  -19.1539  -28.8864   23.2887 C   0  0  0  0  0  0
  -18.9457  -30.1473   23.8900 C   0  0  0  0  0  0
  -17.6460  -30.6600   24.0577 C   0  0  0  0  0  0
  -25.9055  -34.9481   23.5100 C   0  0  0  0  0  0
  -16.5345  -29.9093   23.6342 C   0  0  0  0  0  0
  -16.7267  -28.6523   23.0339 C   0  0  0  0  0  0
  -26.4475  -31.6633   25.0722 C   0  0  0  0  0  0
  -25.3714  -31.3743   26.1445 C   0  0  0  0  0  0
  -27.0326  -30.3069   24.6137 C   0  0  0  0  0  0
  -27.6066  -32.4340   25.7481 C   0  0  0  0  0  0
  -27.5579  -37.1808   24.8471 C   0  0  0  0  0  0
  -21.4183  -29.3041   22.3712 N   0  0  0  0  0  0
  -26.4312  -37.3787   23.9399 N   0  0  0  0  0  0
  -24.6769  -31.0730   22.0984 N   0  0  0  0  0  0
  -23.4225  -28.8194   23.2996 O   0  0  0  0  0  0
  -28.4139  -26.6449   20.1059 O   0  0  0  0  0  0
  -26.5601  -34.8932   22.4651 O   0  0  0  0  0  0
  -23.5363  -32.1451   23.7418 O   0  0  0  0  0  0
  -31.7710  -17.0474   21.7887 C   0  0  0  0  0  0
  -32.4288  -18.2780   21.7110 C   0  0  0  0  0  0
  -31.7317  -19.3873   21.1789 C   0  0  0  0  0  0
  -30.4823  -16.8976   21.2508 C   0  0  0  0  0  0
  -30.3406  -19.2537   20.8787 C   0  0  0  0  0  0
  -28.6782  -22.6877   20.1404 C   0  0  0  0  0  0
  -29.4780  -21.6369   21.0077 C   0  0  0  0  0  0
  -33.8870  -18.3375   22.1354 C   0  0  0  0  0  0
  -32.5134  -20.6682   20.8967 C   0  0  0  0  0  0
  -28.4922  -25.2778   19.6009 C   0  0  0  0  0  0
  -28.5103  -24.1440   20.6884 C   0  0  1  0  0  0
  -29.7717  -18.0078   20.8814 N   0  0  0  0  0  0
  -29.5743  -20.3965   20.4486 N   0  0  0  0  0  0
  -29.9886  -15.5562   21.1018 N   0  0  0  0  0  0
  -28.1775  -22.3587   19.0558 O   0  0  0  0  0  0
  -29.9613  -21.9448   22.1046 O   0  0  0  0  0  0
  -27.0305  -24.2621   21.6903 Cl  0  0  0  0  0  0
  -31.4625  -12.4269   19.1494 H   0  0  0  0  0  0
  -30.3247  -11.3169   19.8418 H   0  0  0  0  0  0
  -29.7527  -11.7756   17.4420 H   0  0  0  0  0  0
  -29.6750  -13.4854   17.7607 H   0  0  0  0  0  0
  -27.8127  -11.3209   18.7960 H   0  0  0  0  0  0
  -27.3813  -12.6683   17.7738 H   0  0  0  0  0  0
  -27.6914  -14.2618   19.5731 H   0  0  0  0  0  0
  -28.6662  -11.9672   21.3351 H   0  0  0  0  0  0
  -28.4424  -13.6054   21.8719 H   0  0  0  0  0  0
  -25.2740   -9.5739   22.4708 H   0  0  0  0  0  0
  -24.0024   -7.4658   22.7446 H   0  0  0  0  0  0
  -21.0841   -8.8758   19.8920 H   0  0  0  0  0  0
  -22.3664  -10.9674   19.6150 H   0  0  0  0  0  0
  -21.1990   -7.6141   23.9745 H   0  0  0  0  0  0
  -21.1497   -6.0506   25.9092 H   0  0  0  0  0  0
  -22.0581   -2.7621   23.2816 H   0  0  0  0  0  0
  -22.4020  -11.9935   22.4844 H   0  0  0  0  0  0
  -21.1023  -13.1292   22.2582 H   0  0  0  0  0  0
  -24.6502  -15.8378   20.5343 H   0  0  0  0  0  0
  -26.2693  -15.6402   20.0989 H   0  0  0  0  0  0
  -26.7139  -32.5547   23.1140 H   0  0  0  0  0  0
  -25.0182  -33.9804   25.0509 H   0  0  0  0  0  0
  -22.6938  -31.2974   21.4025 H   0  0  0  0  0  0
  -23.3761  -35.9599   23.3333 H   0  0  0  0  0  0
  -24.3569  -36.8857   22.2038 H   0  0  0  0  0  0
  -23.7228  -37.6473   23.6645 H   0  0  0  0  0  0
  -26.0726  -31.5821   20.6017 H   0  0  0  0  0  0
  -26.8301  -30.8672   21.9978 H   0  0  0  0  0  0
  -28.1109  -29.0581   21.1490 H   0  0  0  0  0  0
  -25.9503  -25.9231   19.0740 H   0  0  0  0  0  0
  -23.9638  -27.2844   19.0564 H   0  0  0  0  0  0
  -23.7425  -30.5970   19.3996 H   0  0  0  0  0  0
  -22.7492  -29.2468   19.8635 H   0  0  0  0  0  0
  -25.1317  -36.1937   25.0793 H   0  0  0  0  0  0
  -20.9955  -28.3238   24.1444 H   0  0  0  0  0  0
  -20.5709  -26.2279   23.3599 H   0  0  0  0  0  0
  -21.6633  -26.7481   22.1199 H   0  0  0  0  0  0
  -19.6909  -25.6312   21.1238 H   0  0  0  0  0  0
  -19.6698  -27.3193   20.6748 H   0  0  0  0  0  0
  -17.4206  -26.6702   21.3997 H   0  0  0  0  0  0
  -18.0325  -26.0111   22.9035 H   0  0  0  0  0  0
  -19.7931  -30.7315   24.2227 H   0  0  0  0  0  0
  -17.5002  -31.6270   24.5199 H   0  0  0  0  0  0
  -15.5339  -30.3001   23.7666 H   0  0  0  0  0  0
  -15.8674  -28.0855   22.7029 H   0  0  0  0  0  0
  -24.5892  -30.7103   25.7740 H   0  0  0  0  0  0
  -24.8913  -32.2909   26.4891 H   0  0  0  0  0  0
  -25.8044  -30.8893   27.0209 H   0  0  0  0  0  0
  -26.2904  -29.6823   24.1171 H   0  0  0  0  0  0
  -27.4037  -29.7322   25.4629 H   0  0  0  0  0  0
  -27.8753  -30.4355   23.9347 H   0  0  0  0  0  0
  -27.2705  -33.3634   26.2094 H   0  0  0  0  0  0
  -28.3874  -32.6911   25.0305 H   0  0  0  0  0  0
  -28.0763  -31.8458   26.5371 H   0  0  0  0  0  0
  -28.2622  -38.0086   24.7534 H   0  0  0  0  0  0
  -28.1052  -36.2624   24.6306 H   0  0  0  0  0  0
  -27.2308  -37.1463   25.8878 H   0  0  0  0  0  0
  -20.9351  -29.8730   21.6903 H   0  0  0  0  0  0
  -26.0177  -38.2850   24.1420 H   0  0  0  0  0  0
  -32.3128  -16.1888   22.1606 H   0  0  0  0  0  0
  -34.5373  -18.3819   21.2595 H   0  0  0  0  0  0
  -34.1608  -17.4492   22.7072 H   0  0  0  0  0  0
  -34.0939  -19.2003   22.7663 H   0  0  0  0  0  0
  -32.1035  -21.2153   20.0484 H   0  0  0  0  0  0
  -33.5443  -20.4540   20.6190 H   0  0  0  0  0  0
  -32.5329  -21.3179   21.7714 H   0  0  0  0  0  0
  -29.4525  -25.2259   19.0892 H   0  0  0  0  0  0
  -27.7786  -25.0681   18.8053 H   0  0  0  0  0  0
  -29.3467  -24.3316   21.3613 H   0  0  0  0  0  0
  -28.9721  -20.2479   19.6489 H   0  0  0  0  0  0
  -29.0124  -15.4100   21.2965 H   0  0  0  0  0  0
  1 25  1  0  0  0
  1 30  2  0  0  0
  1 84  1  0  0  0
  2  3  1  0  0  0
  2 25  1  0  0  0
  2 88  1  0  0  0
  2 89  1  0  0  0
  3  4  1  0  0  0
  3 90  1  0  0  0
  3 91  1  0  0  0
  4  5  1  0  0  0
  4 92  1  0  0  0
  4 93  1  0  0  0
  5  6  1  0  0  0
  5 26  1  0  0  0
  5 94  1  0  0  0
  6 25  1  0  0  0
  6 95  1  0  0  0
  6 96  1  0  0  0
  7  8  2  0  0  0
  7 26  1  0  0  0
  7 29  1  0  0  0
  8  9  1  0  0  0
  8 22  1  0  0  0
  9 10  1  0  0  0
  9 27  2  0  0  0
 10 11  2  0  0  0
 10 15  1  0  0  0
 11 12  1  0  0  0
 11 97  1  0  0  0
 12 13  2  0  0  0
 12 98  1  0  0  0
 13 14  1  0  0  0
 13 31  1  0  0  0
 14 15  2  0  0  0
 14 99  1  0  0  0
 15100  1  0  0  0
 16 17  2  0  0  0
 16 21  1  0  0  0
 16 31  1  0  0  0
 17 18  1  0  0  0
 17101  1  0  0  0
 18 19  2  0  0  0
 18102  1  0  0  0
 19 20  1  0  0  0
 19 24  1  0  0  0
 20 21  2  0  0  0
 20103  1  0  0  0
 21 23  1  0  0  0
 22 28  1  0  0  0
 22 32  2  0  0  0
 26 27  1  0  0  0
 28104  1  0  0  0
 28105  1  0  0  0
 29106  1  0  0  0
 29107  1  0  0  0
 33 34  1  0  0  0
 33 66  1  0  0  0
 33 70  2  0  0  0
 34 36  1  0  0  0
 34 59  1  0  0  0
 34108  1  0  0  0
 35 44  2  0  0  0
 35 45  1  0  0  0
 35 68  1  0  0  0
 36 56  1  0  0  0
 36109  1  0  0  0
 37 39  1  0  0  0
 37 47  1  0  0  0
 37 66  1  0  0  0
 37110  1  0  0  0
 38 43  2  0  0  0
 38 46  1  0  0  0
 38 47  1  0  0  0
 39 64  1  0  0  0
 39 67  2  0  0  0
 40 52  1  0  0  0
 40 53  2  0  0  0
 40 58  1  0  0  0
 41111  1  0  0  0
 41112  1  0  0  0
 41113  1  0  0  0
 41 48  1  0  0  0
 42 43  1  0  0  0
 42 66  1  0  0  0
 42114  1  0  0  0
 42115  1  0  0  0
 43 44  1  0  0  0
 44116  1  0  0  0
 45 46  2  0  0  0
 45117  1  0  0  0
 46118  1  0  0  0
 47119  1  0  0  0
 47120  1  0  0  0
 48 56  1  0  0  0
 48 65  1  0  0  0
 48121  1  0  0  0
 49 50  1  0  0  0
 49 53  1  0  0  0
 49 64  1  0  0  0
 49122  1  0  0  0
 50 51  1  0  0  0
 50123  1  0  0  0
 50124  1  0  0  0
 51 52  1  0  0  0
 51125  1  0  0  0
 51126  1  0  0  0
 52127  1  0  0  0
 52128  1  0  0  0
 53 54  1  0  0  0
 54 55  2  0  0  0
 54129  1  0  0  0
 55 57  1  0  0  0
 55130  1  0  0  0
 56 69  2  0  0  0
 57 58  2  0  0  0
 57131  1  0  0  0
 58132  1  0  0  0
 59 60  1  0  0  0
 59 61  1  0  0  0
 59 62  1  0  0  0
 60133  1  0  0  0
 60134  1  0  0  0
 60135  1  0  0  0
 61136  1  0  0  0
 61137  1  0  0  0
 61138  1  0  0  0
 62139  1  0  0  0
 62140  1  0  0  0
 62141  1  0  0  0
 63 65  1  0  0  0
 63142  1  0  0  0
 63143  1  0  0  0
 63144  1  0  0  0
 64145  1  0  0  0
 65146  1  0  0  0
 68 80  1  0  0  0
 71 72  2  0  0  0
 71 74  1  0  0  0
 71147  1  0  0  0
 72 73  1  0  0  0
 72 78  1  0  0  0
 73 75  2  0  0  0
 73 79  1  0  0  0
 74 82  2  0  0  0
 74 84  1  0  0  0
 75 82  1  0  0  0
 75 83  1  0  0  0
 76 77  1  0  0  0
 76 81  1  0  0  0
 76 85  2  0  0  0
 77 83  1  0  0  0
 77 86  2  0  0  0
 78148  1  0  0  0
 78149  1  0  0  0
 78150  1  0  0  0
 79151  1  0  0  0
 79152  1  0  0  0
 79153  1  0  0  0
 80 81  1  0  0  0
 80154  1  0  0  0
 80155  1  0  0  0
 81 87  1  0  0  0
 81156  1  0  0  0
 83157  1  0  0  0
 84158  1  0  0  0
M  ISO  4   1 100  68 101  80 101  84 100
M  END
> <chiral flag>
0

> <version>
0

> <s_m_source_file>
/data/baiqing/PycharmProjects/Reinvent-master-3.2/result/LINK_invent/BTK/process_docking_weight1_custom_product_contain_oxygen_bond_distance_aromatic_linkinvent_7_9_3/rearranged_h_0180.sdf

> <i_m_source_file_index>
21

> <r_mmod_Potential_Energy-OPLS-2005>
-166.46989440918

> <r_mmod_Stretch_Energy-OPLS-2005>
57.2540130615234

> <r_mmod_Bend_Energy-OPLS-2005>
125.65209197998

> <r_mmod_Torsional_Energy-OPLS-2005>
256.745056152344

> <r_mmod_Improper_Torsional_Energy-OPLS-2005>
4.1693377494812

> <r_mmod_Van_der_Waal_Energy-OPLS-2005>
163.474182128906

> <r_mmod_Electrostatic_Energy-OPLS-2005>
-554.655456542969

> <r_mmod_Solvation_Energy-OPLS-2005>
-238.152206420898

> <b_mmod_Minimization_Converged-OPLS-2005>
0

> <r_mmod_RMS_Derivative-OPLS-2005>
4.61304998397827

$$$$
21
                    3D
 Structure written by MMmdl.
157165  0  0  1  0            999 V2000
  -30.5457  -15.0650   20.4150 C   0  0  0  0  0  0
  -30.4541  -12.6666   19.5233 C   0  0  0  0  0  0
  -29.5457  -12.5627   18.2779 C   0  0  0  0  0  0
  -28.0875  -12.3113   18.7051 C   0  0  0  0  0  0
  -27.6412  -13.2597   19.8493 C   0  0  2  0  0  0
  -28.6852  -13.3500   20.9843 C   0  0  0  0  0  0
  -25.2559  -13.8228   20.5746 C   0  0  0  0  0  0
  -24.1858  -13.0459   20.9223 C   0  0  0  0  0  0
  -24.6487  -11.6951   20.8764 C   0  0  0  0  0  0
  -23.9149  -10.4331   21.0416 C   0  0  0  0  0  0
  -24.3675   -9.4224   21.9185 C   0  0  0  0  0  0
  -23.6321   -8.2278   22.0760 C   0  0  0  0  0  0
  -22.4307   -8.0326   21.3544 C   0  0  0  0  0  0
  -21.9956   -9.0320   20.4655 C   0  0  0  0  0  0
  -22.7316  -10.2183   20.3065 C   0  0  0  0  0  0
  -21.6877   -6.0777   22.5282 C   0  0  0  0  0  0
  -21.4022   -6.5668   23.8214 C   0  0  0  0  0  0
  -21.3659   -5.6809   24.9167 C   0  0  0  0  0  0
  -21.6045   -4.3068   24.7219 C   0  0  0  0  0  0
  -21.8800   -3.8172   23.4334 C   0  0  0  0  0  0
  -21.9182   -4.6996   22.3389 C   0  0  0  0  0  0
  -22.7868  -13.5235   21.1855 C   0  0  0  0  0  0
  -22.1655   -4.2177   21.0966 F   0  0  0  0  0  0
  -21.5618   -3.4544   25.7725 F   0  0  0  0  0  0
  -29.9459  -13.7940   20.3668 N   0  0  0  0  0  0
  -26.3005  -12.9481   20.3335 N   0  0  0  0  0  0
  -25.9430  -11.6602   20.5779 N   0  0  0  0  0  0
  -22.0514  -12.8232   22.0419 N   0  0  0  0  0  0
  -25.4282  -15.1942   20.4177 N   0  0  0  0  0  0
  -31.7563  -15.0843   20.1629 O   0  0  0  0  0  0
  -21.6661   -6.8928   21.4252 O   0  0  0  0  0  0
  -22.3568  -14.5550   20.6708 O   0  0  0  0  0  0
  -24.6540  -31.8372   23.1814 C   0  0  0  0  0  0
  -25.9268  -32.4656   23.8235 C   0  0  1  0  0  0
  -27.2140  -27.0562   20.1430 C   0  0  0  0  0  0
  -25.5965  -33.8473   24.2152 N   0  0  0  0  0  0
  -23.4619  -30.4605   21.5293 C   0  0  2  0  0  0
  -24.9037  -28.8772   20.1112 C   0  0  0  0  0  0
  -22.7635  -29.4512   22.4770 C   0  0  0  0  0  0
  -18.0325  -28.1389   22.8450 C   0  0  0  0  0  0
  -24.1509  -36.7284   23.2646 C   0  0  0  0  0  0
  -26.0305  -30.6833   21.3972 C   0  0  0  0  0  0
  -26.0932  -29.2946   20.7224 C   0  0  0  0  0  0
  -27.2423  -28.4033   20.7158 C   0  0  0  0  0  0
  -25.9742  -26.7514   19.5525 C   0  0  0  0  0  0
  -24.8564  -27.6108   19.5188 C   0  0  0  0  0  0
  -23.6938  -29.8008   20.1469 C   0  0  0  0  0  0
  -25.4140  -36.3046   24.0314 C   0  0  1  0  0  0
  -20.5967  -28.3742   23.1161 C   0  0  2  0  0  0
  -20.6829  -26.9434   22.5370 C   0  0  0  0  0  0
  -19.5790  -26.6359   21.5197 C   0  0  0  0  0  0
  -18.1965  -26.7917   22.1604 C   0  0  0  0  0  0
  -19.1598  -28.8873   23.2798 C   0  0  0  0  0  0
  -18.9505  -30.1461   23.8833 C   0  0  0  0  0  0
  -17.6501  -30.6569   24.0552 C   0  0  0  0  0  0
  -25.9081  -34.9406   23.5055 C   0  0  0  0  0  0
  -16.5386  -29.9073   23.6333 C   0  0  0  0  0  0
  -16.7310  -28.6499   23.0341 C   0  0  0  0  0  0
  -26.4524  -31.6553   25.0719 C   0  0  0  0  0  0
  -25.3647  -31.3783   26.1367 C   0  0  0  0  0  0
  -27.0420  -30.2919   24.6426 C   0  0  0  0  0  0
  -27.6030  -32.4367   25.7491 C   0  0  0  0  0  0
  -27.5599  -37.1803   24.8460 C   0  0  0  0  0  0
  -21.4324  -29.3074   22.3538 N   0  0  0  0  0  0
  -26.4306  -37.3758   23.9396 N   0  0  0  0  0  0
  -24.7362  -31.0165   22.0886 N   0  0  0  0  0  0
  -23.4244  -28.8053   23.2947 O   0  0  0  0  0  0
  -28.2589  -26.0353   20.2497 O   0  0  0  0  0  0
  -26.5692  -34.8912   22.4653 O   0  0  0  0  0  0
  -23.5633  -32.1261   23.6994 O   0  0  0  0  0  0
  -29.3096  -19.0433   20.1934 C   0  0  0  0  0  0
  -29.6166  -20.4931   20.4878 C   0  0  0  0  0  0
  -30.0855  -17.8191   20.6404 C   0  0  0  0  0  0
  -30.7997  -20.6357   21.2543 C   0  0  0  0  0  0
  -31.2122  -18.1745   21.4207 C   0  0  0  0  0  0
  -31.5499  -19.5199   21.7107 C   0  0  0  0  0  0
  -28.8095  -23.1688   20.4987 C   0  0  0  0  0  0
  -26.3002  -23.3449   18.5672 C   0  0  0  0  0  0
  -29.8336  -24.9388   19.0095 C   0  0  0  0  0  0
  -27.5699  -24.2147   18.3638 C   0  0  0  0  0  0
  -28.4551  -24.5749   19.6046 C   0  0  1  0  0  0
  -28.9366  -21.8167   19.9898 N   0  0  0  0  0  0
  -29.7768  -16.2903   20.4761 N   0  0  0  0  0  0
  -28.9371  -23.3341   21.7125 O   0  0  0  0  0  0
  -31.2759  -21.8734   21.5381 F   0  0  0  0  0  0
  -31.9909  -17.2037   21.9592 F   0  0  0  0  0  0
  -32.6478  -19.7538   22.4705 F   0  0  0  0  0  0
  -31.4860  -12.8294   19.2117 H   0  0  0  0  0  0
  -30.4616  -11.7295   20.0830 H   0  0  0  0  0  0
  -29.8933  -11.7727   17.6126 H   0  0  0  0  0  0
  -29.6105  -13.4884   17.7061 H   0  0  0  0  0  0
  -28.0283  -11.2766   19.0460 H   0  0  0  0  0  0
  -27.4184  -12.4010   17.8490 H   0  0  0  0  0  0
  -27.5883  -14.2489   19.3970 H   0  0  0  0  0  0
  -28.8093  -12.3945   21.4982 H   0  0  0  0  0  0
  -28.3683  -14.0672   21.7439 H   0  0  0  0  0  0
  -25.2825   -9.5663   22.4764 H   0  0  0  0  0  0
  -23.9999   -7.4674   22.7481 H   0  0  0  0  0  0
  -21.0890   -8.8918   19.8962 H   0  0  0  0  0  0
  -22.3826  -10.9758   19.6189 H   0  0  0  0  0  0
  -21.2052   -7.6177   23.9727 H   0  0  0  0  0  0
  -21.1486   -6.0543   25.9070 H   0  0  0  0  0  0
  -22.0574   -2.7639   23.2835 H   0  0  0  0  0  0
  -22.4142  -11.9874   22.4751 H   0  0  0  0  0  0
  -21.1131  -13.1248   22.2643 H   0  0  0  0  0  0
  -24.6711  -15.8575   20.5344 H   0  0  0  0  0  0
  -26.2825  -15.6273   20.0974 H   0  0  0  0  0  0
  -26.7351  -32.5212   23.0969 H   0  0  0  0  0  0
  -25.0059  -33.9565   25.0265 H   0  0  0  0  0  0
  -22.7703  -31.2894   21.3750 H   0  0  0  0  0  0
  -23.3763  -35.9622   23.3277 H   0  0  0  0  0  0
  -24.3590  -36.8943   22.2063 H   0  0  0  0  0  0
  -23.7254  -37.6469   23.6702 H   0  0  0  0  0  0
  -26.2266  -31.4443   20.6412 H   0  0  0  0  0  0
  -26.8850  -30.7033   22.0623 H   0  0  0  0  0  0
  -28.1485  -28.7154   21.2151 H   0  0  0  0  0  0
  -25.7922  -25.7715   19.1921 H   0  0  0  0  0  0
  -23.9356  -27.2465   19.0814 H   0  0  0  0  0  0
  -23.8594  -30.5822   19.4051 H   0  0  0  0  0  0
  -22.7991  -29.2742   19.8127 H   0  0  0  0  0  0
  -25.1327  -36.1886   25.0804 H   0  0  0  0  0  0
  -21.0057  -28.3339   24.1280 H   0  0  0  0  0  0
  -20.5727  -26.2364   23.3610 H   0  0  0  0  0  0
  -21.6684  -26.7419   22.1165 H   0  0  0  0  0  0
  -19.6968  -25.6260   21.1249 H   0  0  0  0  0  0
  -19.6724  -27.3135   20.6700 H   0  0  0  0  0  0
  -17.4257  -26.6638   21.4003 H   0  0  0  0  0  0
  -18.0370  -26.0070   22.9009 H   0  0  0  0  0  0
  -19.7984  -30.7299   24.2163 H   0  0  0  0  0  0
  -17.5055  -31.6230   24.5192 H   0  0  0  0  0  0
  -15.5386  -30.2965   23.7678 H   0  0  0  0  0  0
  -15.8710  -28.0800   22.7082 H   0  0  0  0  0  0
  -24.5764  -30.7239   25.7622 H   0  0  0  0  0  0
  -24.8911  -32.2991   26.4787 H   0  0  0  0  0  0
  -25.7832  -30.8863   27.0153 H   0  0  0  0  0  0
  -26.3065  -29.6565   24.1477 H   0  0  0  0  0  0
  -27.4001  -29.7313   25.5073 H   0  0  0  0  0  0
  -27.9000  -30.4103   23.9804 H   0  0  0  0  0  0
  -27.2577  -33.3664   26.2035 H   0  0  0  0  0  0
  -28.3820  -32.6953   25.0306 H   0  0  0  0  0  0
  -28.0735  -31.8529   26.5409 H   0  0  0  0  0  0
  -28.2609  -38.0118   24.7519 H   0  0  0  0  0  0
  -28.1102  -36.2634   24.6274 H   0  0  0  0  0  0
  -27.2307  -37.1445   25.8865 H   0  0  0  0  0  0
  -20.9557  -29.8783   21.6696 H   0  0  0  0  0  0
  -26.0172  -38.2832   24.1361 H   0  0  0  0  0  0
  -28.4371  -18.8582   19.5830 H   0  0  0  0  0  0
  -25.3829  -23.9058   18.7269 H   0  0  0  0  0  0
  -26.3811  -22.6412   19.3936 H   0  0  0  0  0  0
  -26.1093  -22.7514   17.6729 H   0  0  0  0  0  0
  -29.7495  -25.7404   18.2736 H   0  0  0  0  0  0
  -30.3178  -24.0917   18.5216 H   0  0  0  0  0  0
  -30.5142  -25.2875   19.7859 H   0  0  0  0  0  0
  -27.3355  -25.1148   17.7920 H   0  0  0  0  0  0
  -28.1936  -23.6403   17.6749 H   0  0  0  0  0  0
  -28.5751  -21.7392   19.0494 H   0  0  0  0  0  0
  -28.7879  -16.0938   20.4919 H   0  0  0  0  0  0
  1 25  1  0  0  0
  1 30  2  0  0  0
  1 83  1  0  0  0
  2  3  1  0  0  0
  2 25  1  0  0  0
  2 88  1  0  0  0
  2 89  1  0  0  0
  3  4  1  0  0  0
  3 90  1  0  0  0
  3 91  1  0  0  0
  4  5  1  0  0  0
  4 92  1  0  0  0
  4 93  1  0  0  0
  5  6  1  0  0  0
  5 26  1  0  0  0
  5 94  1  0  0  0
  6 25  1  0  0  0
  6 95  1  0  0  0
  6 96  1  0  0  0
  7  8  2  0  0  0
  7 26  1  0  0  0
  7 29  1  0  0  0
  8  9  1  0  0  0
  8 22  1  0  0  0
  9 10  1  0  0  0
  9 27  2  0  0  0
 10 11  2  0  0  0
 10 15  1  0  0  0
 11 12  1  0  0  0
 11 97  1  0  0  0
 12 13  2  0  0  0
 12 98  1  0  0  0
 13 14  1  0  0  0
 13 31  1  0  0  0
 14 15  2  0  0  0
 14 99  1  0  0  0
 15100  1  0  0  0
 16 17  2  0  0  0
 16 21  1  0  0  0
 16 31  1  0  0  0
 17 18  1  0  0  0
 17101  1  0  0  0
 18 19  2  0  0  0
 18102  1  0  0  0
 19 20  1  0  0  0
 19 24  1  0  0  0
 20 21  2  0  0  0
 20103  1  0  0  0
 21 23  1  0  0  0
 22 28  1  0  0  0
 22 32  2  0  0  0
 26 27  1  0  0  0
 28104  1  0  0  0
 28105  1  0  0  0
 29106  1  0  0  0
 29107  1  0  0  0
 33 34  1  0  0  0
 33 66  1  0  0  0
 33 70  2  0  0  0
 34 36  1  0  0  0
 34 59  1  0  0  0
 34108  1  0  0  0
 35 44  2  0  0  0
 35 45  1  0  0  0
 35 68  1  0  0  0
 36 56  1  0  0  0
 36109  1  0  0  0
 37 39  1  0  0  0
 37 47  1  0  0  0
 37 66  1  0  0  0
 37110  1  0  0  0
 38 43  2  0  0  0
 38 46  1  0  0  0
 38 47  1  0  0  0
 39 64  1  0  0  0
 39 67  2  0  0  0
 40 52  1  0  0  0
 40 53  2  0  0  0
 40 58  1  0  0  0
 41111  1  0  0  0
 41112  1  0  0  0
 41113  1  0  0  0
 41 48  1  0  0  0
 42 43  1  0  0  0
 42 66  1  0  0  0
 42114  1  0  0  0
 42115  1  0  0  0
 43 44  1  0  0  0
 44116  1  0  0  0
 45 46  2  0  0  0
 45117  1  0  0  0
 46118  1  0  0  0
 47119  1  0  0  0
 47120  1  0  0  0
 48 56  1  0  0  0
 48 65  1  0  0  0
 48121  1  0  0  0
 49 50  1  0  0  0
 49 53  1  0  0  0
 49 64  1  0  0  0
 49122  1  0  0  0
 50 51  1  0  0  0
 50123  1  0  0  0
 50124  1  0  0  0
 51 52  1  0  0  0
 51125  1  0  0  0
 51126  1  0  0  0
 52127  1  0  0  0
 52128  1  0  0  0
 53 54  1  0  0  0
 54 55  2  0  0  0
 54129  1  0  0  0
 55 57  1  0  0  0
 55130  1  0  0  0
 56 69  2  0  0  0
 57 58  2  0  0  0
 57131  1  0  0  0
 58132  1  0  0  0
 59 60  1  0  0  0
 59 61  1  0  0  0
 59 62  1  0  0  0
 60133  1  0  0  0
 60134  1  0  0  0
 60135  1  0  0  0
 61136  1  0  0  0
 61137  1  0  0  0
 61138  1  0  0  0
 62139  1  0  0  0
 62140  1  0  0  0
 62141  1  0  0  0
 63 65  1  0  0  0
 63142  1  0  0  0
 63143  1  0  0  0
 63144  1  0  0  0
 64145  1  0  0  0
 65146  1  0  0  0
 68 81  1  0  0  0
 71 72  2  0  0  0
 71 73  1  0  0  0
 71147  1  0  0  0
 72 74  1  0  0  0
 72 82  1  0  0  0
 73 75  2  0  0  0
 73 83  1  0  0  0
 74 76  2  0  0  0
 74 85  1  0  0  0
 75 76  1  0  0  0
 75 86  1  0  0  0
 76 87  1  0  0  0
 77 82  1  0  0  0
 77 84  2  0  0  0
 77 81  1  0  0  0
 78 80  1  0  0  0
 78148  1  0  0  0
 78149  1  0  0  0
 78150  1  0  0  0
 79151  1  0  0  0
 79152  1  0  0  0
 79153  1  0  0  0
 79 81  1  0  0  0
 80 81  1  0  0  0
 80154  1  0  0  0
 80155  1  0  0  0
 82156  1  0  0  0
 83157  1  0  0  0
M  ISO  4   1 100  68 101  81 101  83 100
M  END
> <chiral flag>
0

> <version>
0

> <s_m_source_file>
/data/baiqing/PycharmProjects/Reinvent-master-3.2/result/LINK_invent/BTK/process_docking_weight1_custom_product_contain_oxygen_bond_distance_aromatic_linkinvent_7_9_3/rearranged_h_0180.sdf

> <i_m_source_file_index>
22

> <r_mmod_Potential_Energy-OPLS-2005>
800.102722167969

> <r_mmod_Stretch_Energy-OPLS-2005>
367.048370361328

> <r_mmod_Bend_Energy-OPLS-2005>
344.942504882812

> <r_mmod_Torsional_Energy-OPLS-2005>
259.570678710938

> <r_mmod_Improper_Torsional_Energy-OPLS-2005>
7.65406179428101

> <r_mmod_Van_der_Waal_Energy-OPLS-2005>
144.197067260742

> <r_mmod_Electrostatic_Energy-OPLS-2005>
-352.166748046875

> <r_mmod_Solvation_Energy-OPLS-2005>
-245.845550537109

> <b_mmod_Minimization_Converged-OPLS-2005>
0

> <r_mmod_RMS_Derivative-OPLS-2005>
5.56981897354126

$$$$
22
                    3D
 Structure written by MMmdl.
146154  0  0  1  0            999 V2000
  -30.5912  -14.8619   20.4349 C   0  0  0  0  0  0
  -30.4386  -12.5290   19.4945 C   0  0  0  0  0  0
  -29.5198  -12.5182   18.2523 C   0  0  0  0  0  0
  -28.0480  -12.3294   18.6640 C   0  0  0  0  0  0
  -27.6371  -13.2476   19.8447 C   0  0  2  0  0  0
  -28.6816  -13.2381   20.9827 C   0  0  0  0  0  0
  -25.2497  -13.8227   20.5744 C   0  0  0  0  0  0
  -24.1796  -13.0451   20.9233 C   0  0  0  0  0  0
  -24.6410  -11.6931   20.8762 C   0  0  0  0  0  0
  -23.9100  -10.4294   21.0416 C   0  0  0  0  0  0
  -24.3641   -9.4199   21.9193 C   0  0  0  0  0  0
  -23.6302   -8.2237   22.0755 C   0  0  0  0  0  0
  -22.4279   -8.0288   21.3553 C   0  0  0  0  0  0
  -21.9928   -9.0271   20.4652 C   0  0  0  0  0  0
  -22.7273  -10.2141   20.3064 C   0  0  0  0  0  0
  -21.6847   -6.0743   22.5284 C   0  0  0  0  0  0
  -21.4010   -6.5640   23.8221 C   0  0  0  0  0  0
  -21.3658   -5.6790   24.9181 C   0  0  0  0  0  0
  -21.6040   -4.3054   24.7225 C   0  0  0  0  0  0
  -21.8818   -3.8150   23.4348 C   0  0  0  0  0  0
  -21.9190   -4.6971   22.3404 C   0  0  0  0  0  0
  -22.7808  -13.5216   21.1879 C   0  0  0  0  0  0
  -22.1664   -4.2157   21.0983 F   0  0  0  0  0  0
  -21.5628   -3.4537   25.7736 F   0  0  0  0  0  0
  -29.9729  -13.6188   20.3948 N   0  0  0  0  0  0
  -26.2925  -12.9460   20.3272 N   0  0  0  0  0  0
  -25.9339  -11.6586   20.5738 N   0  0  0  0  0  0
  -22.0453  -12.8196   22.0429 N   0  0  0  0  0  0
  -25.4181  -15.1956   20.4225 N   0  0  0  0  0  0
  -31.7900  -14.9019   20.1502 O   0  0  0  0  0  0
  -21.6639   -6.8889   21.4241 O   0  0  0  0  0  0
  -22.3492  -14.5528   20.6735 O   0  0  0  0  0  0
  -24.6376  -31.8498   23.1929 C   0  0  0  0  0  0
  -25.9175  -32.4722   23.8294 C   0  0  1  0  0  0
  -27.2169  -27.1951   20.1456 C   0  0  0  0  0  0
  -25.5942  -33.8528   24.2215 N   0  0  0  0  0  0
  -23.4398  -30.4702   21.5375 C   0  0  2  0  0  0
  -24.8927  -28.9117   20.1044 C   0  0  0  0  0  0
  -22.7550  -29.4566   22.4879 C   0  0  0  0  0  0
  -18.0310  -28.1385   22.8483 C   0  0  0  0  0  0
  -24.1489  -36.7268   23.2635 C   0  0  0  0  0  0
  -25.9913  -30.7405   21.3871 C   0  0  0  0  0  0
  -26.0667  -29.3577   20.7280 C   0  0  0  0  0  0
  -27.2329  -28.5105   20.7434 C   0  0  0  0  0  0
  -26.0283  -26.8472   19.4679 C   0  0  0  0  0  0
  -24.8830  -27.6666   19.4593 C   0  0  0  0  0  0
  -23.6641  -29.8032   20.1542 C   0  0  0  0  0  0
  -25.4119  -36.3047   24.0317 C   0  0  1  0  0  0
  -20.5919  -28.3706   23.1247 C   0  0  2  0  0  0
  -20.6798  -26.9417   22.5398 C   0  0  0  0  0  0
  -19.5766  -26.6372   21.5212 C   0  0  0  0  0  0
  -18.1950  -26.7927   22.1629 C   0  0  0  0  0  0
  -19.1565  -28.8865   23.2858 C   0  0  0  0  0  0
  -18.9481  -30.1463   23.8880 C   0  0  0  0  0  0
  -17.6479  -30.6584   24.0561 C   0  0  0  0  0  0
  -25.9065  -34.9419   23.5071 C   0  0  0  0  0  0
  -16.5370  -29.9076   23.6331 C   0  0  0  0  0  0
  -16.7295  -28.6494   23.0352 C   0  0  0  0  0  0
  -26.4512  -31.6574   25.0714 C   0  0  0  0  0  0
  -25.3710  -31.3755   26.1413 C   0  0  0  0  0  0
  -27.0366  -30.2977   24.6258 C   0  0  0  0  0  0
  -27.6050  -32.4325   25.7497 C   0  0  0  0  0  0
  -27.5583  -37.1789   24.8464 C   0  0  0  0  0  0
  -21.4250  -29.3039   22.3622 N   0  0  0  0  0  0
  -26.4286  -37.3758   23.9410 N   0  0  0  0  0  0
  -24.7087  -31.0394   22.0951 N   0  0  0  0  0  0
  -23.4216  -28.8109   23.3006 O   0  0  0  0  0  0
  -28.2111  -26.1684   20.2365 O   0  0  0  0  0  0
  -26.5641  -34.8907   22.4643 O   0  0  0  0  0  0
  -23.5508  -32.1341   23.7180 O   0  0  0  0  0  0
  -30.0534  -17.5103   20.4013 C   0  0  0  0  0  0
  -31.1327  -18.0457   19.7245 C   0  0  0  0  0  0
  -29.5870  -19.9201   20.3882 C   0  0  0  0  0  0
  -27.7727  -24.9389   20.8560 C   0  0  0  0  0  0
  -28.0425  -23.5470   20.9285 C   0  0  0  0  0  0
  -29.0495  -22.5713   20.3204 C   0  0  0  0  0  0
  -29.1826  -18.6370   20.7672 N   0  0  0  0  0  0
  -29.8224  -16.0276   20.6389 N   0  0  0  0  0  0
  -28.8642  -21.2146   20.6708 N   0  0  0  0  0  0
  -29.9673  -22.9214   19.5778 O   0  0  0  0  0  0
  -27.1886  -22.9115   21.7520 O   0  0  0  0  0  0
  -32.1467  -17.3282   19.1893 F   0  0  0  0  0  0
  -31.1268  -19.8035   19.5281 S   0  0  0  0  0  0
  -31.4763  -12.6642   19.1826 H   0  0  0  0  0  0
  -30.4105  -11.5682   20.0111 H   0  0  0  0  0  0
  -29.8208  -11.7258   17.5660 H   0  0  0  0  0  0
  -29.6303  -13.4569   17.7069 H   0  0  0  0  0  0
  -27.9202  -11.2852   18.9496 H   0  0  0  0  0  0
  -27.3915  -12.4933   17.8088 H   0  0  0  0  0  0
  -27.6122  -14.2586   19.4368 H   0  0  0  0  0  0
  -28.7417  -12.2534   21.4494 H   0  0  0  0  0  0
  -28.3967  -13.9361   21.7720 H   0  0  0  0  0  0
  -25.2781   -9.5662   22.4777 H   0  0  0  0  0  0
  -23.9998   -7.4621   22.7468 H   0  0  0  0  0  0
  -21.0857   -8.8809   19.8959 H   0  0  0  0  0  0
  -22.3744  -10.9687   19.6179 H   0  0  0  0  0  0
  -21.1998   -7.6151   23.9729 H   0  0  0  0  0  0
  -21.1485   -6.0521   25.9087 H   0  0  0  0  0  0
  -22.0599   -2.7610   23.2848 H   0  0  0  0  0  0
  -22.4051  -11.9854   22.4817 H   0  0  0  0  0  0
  -21.1072  -13.1223   22.2643 H   0  0  0  0  0  0
  -24.6542  -15.8490   20.5577 H   0  0  0  0  0  0
  -26.2636  -15.6419   20.0898 H   0  0  0  0  0  0
  -26.7246  -32.5356   23.1030 H   0  0  0  0  0  0
  -25.0092  -33.9659   25.0361 H   0  0  0  0  0  0
  -22.7384  -31.2942   21.3879 H   0  0  0  0  0  0
  -23.3755  -35.9600   23.3286 H   0  0  0  0  0  0
  -24.3574  -36.8903   22.2054 H   0  0  0  0  0  0
  -23.7240  -37.6460   23.6674 H   0  0  0  0  0  0
  -26.1388  -31.4989   20.6171 H   0  0  0  0  0  0
  -26.8641  -30.7909   22.0260 H   0  0  0  0  0  0
  -28.1199  -28.8350   21.2698 H   0  0  0  0  0  0
  -25.9651  -25.8851   18.9784 H   0  0  0  0  0  0
  -23.9890  -27.3234   18.9572 H   0  0  0  0  0  0
  -23.7867  -30.5779   19.3967 H   0  0  0  0  0  0
  -22.7824  -29.2366   19.8501 H   0  0  0  0  0  0
  -25.1303  -36.1884   25.0812 H   0  0  0  0  0  0
  -21.0011  -28.3284   24.1365 H   0  0  0  0  0  0
  -20.5699  -26.2319   23.3610 H   0  0  0  0  0  0
  -21.6665  -26.7425   22.1192 H   0  0  0  0  0  0
  -19.6923  -25.6271   21.1258 H   0  0  0  0  0  0
  -19.6699  -27.3166   20.6731 H   0  0  0  0  0  0
  -17.4219  -26.6668   21.4033 H   0  0  0  0  0  0
  -18.0360  -26.0066   22.9029 H   0  0  0  0  0  0
  -19.7955  -30.7288   24.2233 H   0  0  0  0  0  0
  -17.5028  -31.6263   24.5167 H   0  0  0  0  0  0
  -15.5366  -30.2972   23.7666 H   0  0  0  0  0  0
  -15.8697  -28.0806   22.7072 H   0  0  0  0  0  0
  -24.5888  -30.7102   25.7730 H   0  0  0  0  0  0
  -24.8891  -32.2936   26.4788 H   0  0  0  0  0  0
  -25.7993  -30.8953   27.0220 H   0  0  0  0  0  0
  -26.2973  -29.6715   24.1247 H   0  0  0  0  0  0
  -27.3978  -29.7253   25.4811 H   0  0  0  0  0  0
  -27.8881  -30.4216   23.9561 H   0  0  0  0  0  0
  -27.2650  -33.3636   26.2039 H   0  0  0  0  0  0
  -28.3881  -32.6868   25.0343 H   0  0  0  0  0  0
  -28.0694  -31.8470   26.5440 H   0  0  0  0  0  0
  -28.2585  -38.0102   24.7522 H   0  0  0  0  0  0
  -28.1089  -36.2628   24.6271 H   0  0  0  0  0  0
  -27.2296  -37.1417   25.8864 H   0  0  0  0  0  0
  -20.9451  -29.8750   21.6804 H   0  0  0  0  0  0
  -26.0154  -38.2825   24.1420 H   0  0  0  0  0  0
  -26.9405  -25.2307   21.4849 H   0  0  0  0  0  0
  -28.8862  -15.8182   20.9428 H   0  0  0  0  0  0
  -28.0557  -21.1196   21.2700 H   0  0  0  0  0  0
  -26.5894  -23.5559   22.1056 H   0  0  0  0  0  0
  1 25  1  0  0  0
  1 30  2  0  0  0
  1 78  1  0  0  0
  2  3  1  0  0  0
  2 25  1  0  0  0
  2 84  1  0  0  0
  2 85  1  0  0  0
  3  4  1  0  0  0
  3 86  1  0  0  0
  3 87  1  0  0  0
  4  5  1  0  0  0
  4 88  1  0  0  0
  4 89  1  0  0  0
  5  6  1  0  0  0
  5 26  1  0  0  0
  5 90  1  0  0  0
  6 25  1  0  0  0
  6 91  1  0  0  0
  6 92  1  0  0  0
  7  8  2  0  0  0
  7 26  1  0  0  0
  7 29  1  0  0  0
  8  9  1  0  0  0
  8 22  1  0  0  0
  9 10  1  0  0  0
  9 27  2  0  0  0
 10 11  2  0  0  0
 10 15  1  0  0  0
 11 12  1  0  0  0
 11 93  1  0  0  0
 12 13  2  0  0  0
 12 94  1  0  0  0
 13 14  1  0  0  0
 13 31  1  0  0  0
 14 15  2  0  0  0
 14 95  1  0  0  0
 15 96  1  0  0  0
 16 17  2  0  0  0
 16 21  1  0  0  0
 16 31  1  0  0  0
 17 18  1  0  0  0
 17 97  1  0  0  0
 18 19  2  0  0  0
 18 98  1  0  0  0
 19 20  1  0  0  0
 19 24  1  0  0  0
 20 21  2  0  0  0
 20 99  1  0  0  0
 21 23  1  0  0  0
 22 28  1  0  0  0
 22 32  2  0  0  0
 26 27  1  0  0  0
 28100  1  0  0  0
 28101  1  0  0  0
 29102  1  0  0  0
 29103  1  0  0  0
 33 34  1  0  0  0
 33 66  1  0  0  0
 33 70  2  0  0  0
 34 36  1  0  0  0
 34 59  1  0  0  0
 34104  1  0  0  0
 35 44  2  0  0  0
 35 45  1  0  0  0
 35 68  1  0  0  0
 36 56  1  0  0  0
 36105  1  0  0  0
 37 39  1  0  0  0
 37 47  1  0  0  0
 37 66  1  0  0  0
 37106  1  0  0  0
 38 43  2  0  0  0
 38 46  1  0  0  0
 38 47  1  0  0  0
 39 64  1  0  0  0
 39 67  2  0  0  0
 40 52  1  0  0  0
 40 53  2  0  0  0
 40 58  1  0  0  0
 41107  1  0  0  0
 41108  1  0  0  0
 41109  1  0  0  0
 41 48  1  0  0  0
 42 43  1  0  0  0
 42 66  1  0  0  0
 42110  1  0  0  0
 42111  1  0  0  0
 43 44  1  0  0  0
 44112  1  0  0  0
 45 46  2  0  0  0
 45113  1  0  0  0
 46114  1  0  0  0
 47115  1  0  0  0
 47116  1  0  0  0
 48 56  1  0  0  0
 48 65  1  0  0  0
 48117  1  0  0  0
 49 50  1  0  0  0
 49 53  1  0  0  0
 49 64  1  0  0  0
 49118  1  0  0  0
 50 51  1  0  0  0
 50119  1  0  0  0
 50120  1  0  0  0
 51 52  1  0  0  0
 51121  1  0  0  0
 51122  1  0  0  0
 52123  1  0  0  0
 52124  1  0  0  0
 53 54  1  0  0  0
 54 55  2  0  0  0
 54125  1  0  0  0
 55 57  1  0  0  0
 55126  1  0  0  0
 56 69  2  0  0  0
 57 58  2  0  0  0
 57127  1  0  0  0
 58128  1  0  0  0
 59 60  1  0  0  0
 59 61  1  0  0  0
 59 62  1  0  0  0
 60129  1  0  0  0
 60130  1  0  0  0
 60131  1  0  0  0
 61132  1  0  0  0
 61133  1  0  0  0
 61134  1  0  0  0
 62135  1  0  0  0
 62136  1  0  0  0
 62137  1  0  0  0
 63 65  1  0  0  0
 63138  1  0  0  0
 63139  1  0  0  0
 63140  1  0  0  0
 64141  1  0  0  0
 65142  1  0  0  0
 68 74  1  0  0  0
 71 72  2  0  0  0
 71 77  1  0  0  0
 71 78  1  0  0  0
 72 82  1  0  0  0
 72 83  1  0  0  0
 73 77  2  0  0  0
 73 79  1  0  0  0
 73 83  1  0  0  0
 74 75  2  0  0  0
 74143  1  0  0  0
 75 76  1  0  0  0
 75 81  1  0  0  0
 76 79  1  0  0  0
 76 80  2  0  0  0
 78144  1  0  0  0
 79145  1  0  0  0
 81146  1  0  0  0
M  ISO  4   1 100  68 101  74 101  78 100
M  END
> <chiral flag>
0

> <version>
0

> <s_m_source_file>
/data/baiqing/PycharmProjects/Reinvent-master-3.2/result/LINK_invent/BTK/process_docking_weight1_custom_product_contain_oxygen_bond_distance_aromatic_linkinvent_7_9_3/rearranged_h_0180.sdf

> <i_m_source_file_index>
23

> <r_mmod_Potential_Energy-OPLS-2005>
249.284713745117

> <r_mmod_Stretch_Energy-OPLS-2005>
173.762619018555

> <r_mmod_Bend_Energy-OPLS-2005>
272.498138427734

> <r_mmod_Torsional_Energy-OPLS-2005>
209.642761230469

> <r_mmod_Improper_Torsional_Energy-OPLS-2005>
3.69212174415588

> <r_mmod_Van_der_Waal_Energy-OPLS-2005>
128.2626953125

> <r_mmod_Electrostatic_Energy-OPLS-2005>
-446.869781494141

> <r_mmod_Solvation_Energy-OPLS-2005>
-241.788818359375

> <b_mmod_Minimization_Converged-OPLS-2005>
0

> <r_mmod_RMS_Derivative-OPLS-2005>
1.60643291473389

$$$$
23
                    3D
 Structure written by MMmdl.
159167  0  0  1  0            999 V2000
  -30.6777  -14.5483   20.4812 C   0  0  0  0  0  0
  -30.4245  -12.3294   19.4271 C   0  0  0  0  0  0
  -29.4967  -12.4873   18.2031 C   0  0  0  0  0  0
  -28.0188  -12.3450   18.6223 C   0  0  0  0  0  0
  -27.6557  -13.2107   19.8588 C   0  0  2  0  0  0
  -28.7061  -13.0576   20.9833 C   0  0  0  0  0  0
  -25.2603  -13.8157   20.5693 C   0  0  0  0  0  0
  -24.1869  -13.0437   20.9208 C   0  0  0  0  0  0
  -24.6422  -11.6902   20.8754 C   0  0  0  0  0  0
  -23.9087  -10.4296   21.0429 C   0  0  0  0  0  0
  -24.3638   -9.4203   21.9196 C   0  0  0  0  0  0
  -23.6313   -8.2245   22.0757 C   0  0  0  0  0  0
  -22.4294   -8.0294   21.3543 C   0  0  0  0  0  0
  -21.9934   -9.0276   20.4650 C   0  0  0  0  0  0
  -22.7267  -10.2154   20.3070 C   0  0  0  0  0  0
  -21.6849   -6.0750   22.5282 C   0  0  0  0  0  0
  -21.4016   -6.5649   23.8221 C   0  0  0  0  0  0
  -21.3652   -5.6804   24.9178 C   0  0  0  0  0  0
  -21.6040   -4.3068   24.7227 C   0  0  0  0  0  0
  -21.8817   -3.8160   23.4349 C   0  0  0  0  0  0
  -21.9198   -4.6980   22.3406 C   0  0  0  0  0  0
  -22.7889  -13.5239   21.1870 C   0  0  0  0  0  0
  -22.1661   -4.2162   21.0981 F   0  0  0  0  0  0
  -21.5627   -3.4553   25.7740 F   0  0  0  0  0  0
  -30.0270  -13.3522   20.4080 N   0  0  0  0  0  0
  -26.3022  -12.9336   20.3329 N   0  0  0  0  0  0
  -25.9346  -11.6487   20.5764 N   0  0  0  0  0  0
  -22.0516  -12.8222   22.0406 N   0  0  0  0  0  0
  -25.4331  -15.1884   20.4067 N   0  0  0  0  0  0
  -31.8583  -14.6721   20.1434 O   0  0  0  0  0  0
  -21.6643   -6.8898   21.4247 O   0  0  0  0  0  0
  -22.3579  -14.5553   20.6734 O   0  0  0  0  0  0
  -24.6192  -31.8679   23.2119 C   0  0  0  0  0  0
  -25.9090  -32.4815   23.8401 C   0  0  1  0  0  0
  -27.2111  -27.3942   20.0927 C   0  0  0  0  0  0
  -25.5959  -33.8619   24.2311 N   0  0  0  0  0  0
  -23.4053  -30.4942   21.5547 C   0  0  2  0  0  0
  -24.8475  -28.9641   20.1131 C   0  0  0  0  0  0
  -22.7417  -29.4652   22.4990 C   0  0  0  0  0  0
  -18.0266  -28.1377   22.8492 C   0  0  0  0  0  0
  -24.1494  -36.7304   23.2620 C   0  0  0  0  0  0
  -25.9406  -30.8196   21.3734 C   0  0  0  0  0  0
  -26.0144  -29.4549   20.7129 C   0  0  0  0  0  0
  -27.2014  -28.6788   20.6997 C   0  0  0  0  0  0
  -26.0292  -26.9449   19.4627 C   0  0  0  0  0  0
  -24.8515  -27.7093   19.4862 C   0  0  0  0  0  0
  -23.6146  -29.8369   20.1667 C   0  0  0  0  0  0
  -25.4115  -36.3093   24.0318 C   0  0  1  0  0  0
  -20.5859  -28.3672   23.1320 C   0  0  2  0  0  0
  -20.6761  -26.9407   22.5429 C   0  0  0  0  0  0
  -19.5741  -26.6376   21.5223 C   0  0  0  0  0  0
  -18.1908  -26.7915   22.1617 C   0  0  0  0  0  0
  -19.1517  -28.8836   23.2897 C   0  0  0  0  0  0
  -18.9457  -30.1432   23.8923 C   0  0  0  0  0  0
  -17.6468  -30.6589   24.0572 C   0  0  0  0  0  0
  -25.9071  -34.9464   23.5099 C   0  0  0  0  0  0
  -16.5353  -29.9107   23.6324 C   0  0  0  0  0  0
  -16.7259  -28.6511   23.0365 C   0  0  0  0  0  0
  -26.4501  -31.6611   25.0749 C   0  0  0  0  0  0
  -25.3738  -31.3790   26.1483 C   0  0  0  0  0  0
  -27.0339  -30.3030   24.6193 C   0  0  0  0  0  0
  -27.6075  -32.4334   25.7523 C   0  0  0  0  0  0
  -27.5600  -37.1764   24.8426 C   0  0  0  0  0  0
  -21.4145  -29.3046   22.3732 N   0  0  0  0  0  0
  -26.4276  -37.3802   23.9436 N   0  0  0  0  0  0
  -24.6731  -31.0746   22.1036 N   0  0  0  0  0  0
  -23.4179  -28.8176   23.3025 O   0  0  0  0  0  0
  -28.3380  -26.5872   20.1069 O   0  0  0  0  0  0
  -26.5604  -34.8914   22.4649 O   0  0  0  0  0  0
  -23.5380  -32.1479   23.7483 O   0  0  0  0  0  0
  -30.2779  -19.4610   20.0471 C   0  0  0  0  0  0
  -31.3657  -18.9658   20.7461 C   0  0  0  0  0  0
  -30.1840  -17.0151   20.5463 C   0  0  0  0  0  0
  -30.0175  -20.7596   19.3509 C   0  0  0  0  0  0
  -27.0852  -22.6851   18.9702 C   0  0  0  0  0  0
  -29.0850  -24.2079   19.7491 C   0  0  0  0  0  0
  -24.9801  -23.1149   17.5348 C   0  0  0  0  0  0
  -26.5038  -22.8788   17.5611 C   0  0  0  0  0  0
  -28.0934  -25.1877   20.4371 C   0  0  0  0  0  0
  -28.6104  -22.8368   19.1404 C   0  0  1  0  0  0
  -31.2875  -17.5952   21.0379 N   0  0  0  0  0  0
  -32.5033  -19.6646   21.1610 N   0  0  0  0  0  0
  -29.8799  -15.6213   20.6980 N   0  0  0  0  0  0
  -29.1361  -21.6448   19.8629 N   0  0  0  0  0  0
  -30.6105  -20.9876   18.2951 O   0  0  0  0  0  0
  -26.3427  -22.3846   19.9103 O   0  0  0  0  0  0
  -30.2782  -24.5289   19.7119 O   0  0  0  0  0  0
  -29.1043  -18.1801   19.7646 S   0  0  0  0  0  0
  -31.4694  -12.4189   19.1249 H   0  0  0  0  0  0
  -30.3196  -11.3326   19.8566 H   0  0  0  0  0  0
  -29.7401  -11.7363   17.4487 H   0  0  0  0  0  0
  -29.6556  -13.4581   17.7304 H   0  0  0  0  0  0
  -27.8463  -11.2919   18.8443 H   0  0  0  0  0  0
  -27.3634  -12.5887   17.7856 H   0  0  0  0  0  0
  -27.6754  -14.2467   19.5214 H   0  0  0  0  0  0
  -28.6939  -12.0454   21.3884 H   0  0  0  0  0  0
  -28.4776  -13.7190   21.8202 H   0  0  0  0  0  0
  -25.2784   -9.5665   22.4775 H   0  0  0  0  0  0
  -24.0014   -7.4627   22.7473 H   0  0  0  0  0  0
  -21.0865   -8.8814   19.8947 H   0  0  0  0  0  0
  -22.3744  -10.9709   19.6191 H   0  0  0  0  0  0
  -21.1998   -7.6157   23.9725 H   0  0  0  0  0  0
  -21.1472   -6.0532   25.9078 H   0  0  0  0  0  0
  -22.0599   -2.7628   23.2853 H   0  0  0  0  0  0
  -22.4135  -11.9868   22.4766 H   0  0  0  0  0  0
  -21.1130  -13.1243   22.2607 H   0  0  0  0  0  0
  -24.6668  -15.8416   20.5200 H   0  0  0  0  0  0
  -26.2687  -15.6227   20.0383 H   0  0  0  0  0  0
  -26.7147  -32.5507   23.1145 H   0  0  0  0  0  0
  -25.0130  -33.9790   25.0468 H   0  0  0  0  0  0
  -22.6936  -31.3113   21.4177 H   0  0  0  0  0  0
  -23.3793  -35.9601   23.3209 H   0  0  0  0  0  0
  -24.3600  -36.9027   22.2053 H   0  0  0  0  0  0
  -23.7191  -37.6452   23.6706 H   0  0  0  0  0  0
  -26.0624  -31.5885   20.6092 H   0  0  0  0  0  0
  -26.8234  -30.8663   21.9995 H   0  0  0  0  0  0
  -28.0978  -29.0496   21.1778 H   0  0  0  0  0  0
  -25.9978  -26.0026   18.9365 H   0  0  0  0  0  0
  -23.9571  -27.3322   19.0103 H   0  0  0  0  0  0
  -23.7260  -30.6192   19.4142 H   0  0  0  0  0  0
  -22.7367  -29.2623   19.8651 H   0  0  0  0  0  0
  -25.1279  -36.1932   25.0808 H   0  0  0  0  0  0
  -20.9924  -28.3237   24.1452 H   0  0  0  0  0  0
  -20.5680  -26.2285   23.3628 H   0  0  0  0  0  0
  -21.6630  -26.7449   22.1215 H   0  0  0  0  0  0
  -19.6925  -25.6290   21.1251 H   0  0  0  0  0  0
  -19.6698  -27.3192   20.6762 H   0  0  0  0  0  0
  -17.4197  -26.6700   21.3999 H   0  0  0  0  0  0
  -18.0277  -26.0038   22.8989 H   0  0  0  0  0  0
  -19.7941  -30.7215   24.2331 H   0  0  0  0  0  0
  -17.5038  -31.6269   24.5166 H   0  0  0  0  0  0
  -15.5366  -30.3038   23.7620 H   0  0  0  0  0  0
  -15.8645  -28.0832   22.7110 H   0  0  0  0  0  0
  -24.5923  -30.7114   25.7826 H   0  0  0  0  0  0
  -24.8929  -32.2991   26.4813 H   0  0  0  0  0  0
  -25.8055  -30.9039   27.0301 H   0  0  0  0  0  0
  -26.2911  -29.6780   24.1217 H   0  0  0  0  0  0
  -27.4036  -29.7278   25.4697 H   0  0  0  0  0  0
  -27.8778  -30.4311   23.9413 H   0  0  0  0  0  0
  -27.2697  -33.3639   26.2086 H   0  0  0  0  0  0
  -28.3905  -32.6877   25.0369 H   0  0  0  0  0  0
  -28.0715  -31.8470   26.5461 H   0  0  0  0  0  0
  -28.2492  -38.0173   24.7639 H   0  0  0  0  0  0
  -28.1208  -36.2717   24.6032 H   0  0  0  0  0  0
  -27.2344  -37.1152   25.8820 H   0  0  0  0  0  0
  -20.9297  -29.8806   21.6993 H   0  0  0  0  0  0
  -26.0155  -38.2848   24.1569 H   0  0  0  0  0  0
  -24.6181  -23.1966   16.5086 H   0  0  0  0  0  0
  -24.7058  -24.0321   18.0558 H   0  0  0  0  0  0
  -24.4361  -22.2932   18.0017 H   0  0  0  0  0  0
  -26.7378  -21.9828   16.9834 H   0  0  0  0  0  0
  -27.0176  -23.7058   17.0704 H   0  0  0  0  0  0
  -28.2313  -25.0773   21.5126 H   0  0  0  0  0  0
  -27.0685  -24.8788   20.2610 H   0  0  0  0  0  0
  -29.0180  -22.8309   18.1298 H   0  0  0  0  0  0
  -32.6933  -20.6095   20.8423 H   0  0  0  0  0  0
  -33.3045  -19.1701   21.5396 H   0  0  0  0  0  0
  -28.8999  -15.4035   20.7740 H   0  0  0  0  0  0
  -28.6719  -21.4100   20.7292 H   0  0  0  0  0  0
  1 25  1  0  0  0
  1 30  2  0  0  0
  1 83  1  0  0  0
  2  3  1  0  0  0
  2 25  1  0  0  0
  2 89  1  0  0  0
  2 90  1  0  0  0
  3  4  1  0  0  0
  3 91  1  0  0  0
  3 92  1  0  0  0
  4  5  1  0  0  0
  4 93  1  0  0  0
  4 94  1  0  0  0
  5  6  1  0  0  0
  5 26  1  0  0  0
  5 95  1  0  0  0
  6 25  1  0  0  0
  6 96  1  0  0  0
  6 97  1  0  0  0
  7  8  2  0  0  0
  7 26  1  0  0  0
  7 29  1  0  0  0
  8  9  1  0  0  0
  8 22  1  0  0  0
  9 10  1  0  0  0
  9 27  2  0  0  0
 10 11  2  0  0  0
 10 15  1  0  0  0
 11 12  1  0  0  0
 11 98  1  0  0  0
 12 13  2  0  0  0
 12 99  1  0  0  0
 13 14  1  0  0  0
 13 31  1  0  0  0
 14 15  2  0  0  0
 14100  1  0  0  0
 15101  1  0  0  0
 16 17  2  0  0  0
 16 21  1  0  0  0
 16 31  1  0  0  0
 17 18  1  0  0  0
 17102  1  0  0  0
 18 19  2  0  0  0
 18103  1  0  0  0
 19 20  1  0  0  0
 19 24  1  0  0  0
 20 21  2  0  0  0
 20104  1  0  0  0
 21 23  1  0  0  0
 22 28  1  0  0  0
 22 32  2  0  0  0
 26 27  1  0  0  0
 28105  1  0  0  0
 28106  1  0  0  0
 29107  1  0  0  0
 29108  1  0  0  0
 33 34  1  0  0  0
 33 66  1  0  0  0
 33 70  2  0  0  0
 34 36  1  0  0  0
 34 59  1  0  0  0
 34109  1  0  0  0
 35 44  2  0  0  0
 35 45  1  0  0  0
 35 68  1  0  0  0
 36 56  1  0  0  0
 36110  1  0  0  0
 37 39  1  0  0  0
 37 47  1  0  0  0
 37 66  1  0  0  0
 37111  1  0  0  0
 38 43  2  0  0  0
 38 46  1  0  0  0
 38 47  1  0  0  0
 39 64  1  0  0  0
 39 67  2  0  0  0
 40 52  1  0  0  0
 40 53  2  0  0  0
 40 58  1  0  0  0
 41112  1  0  0  0
 41113  1  0  0  0
 41114  1  0  0  0
 41 48  1  0  0  0
 42 43  1  0  0  0
 42 66  1  0  0  0
 42115  1  0  0  0
 42116  1  0  0  0
 43 44  1  0  0  0
 44117  1  0  0  0
 45 46  2  0  0  0
 45118  1  0  0  0
 46119  1  0  0  0
 47120  1  0  0  0
 47121  1  0  0  0
 48 56  1  0  0  0
 48 65  1  0  0  0
 48122  1  0  0  0
 49 50  1  0  0  0
 49 53  1  0  0  0
 49 64  1  0  0  0
 49123  1  0  0  0
 50 51  1  0  0  0
 50124  1  0  0  0
 50125  1  0  0  0
 51 52  1  0  0  0
 51126  1  0  0  0
 51127  1  0  0  0
 52128  1  0  0  0
 52129  1  0  0  0
 53 54  1  0  0  0
 54 55  2  0  0  0
 54130  1  0  0  0
 55 57  1  0  0  0
 55131  1  0  0  0
 56 69  2  0  0  0
 57 58  2  0  0  0
 57132  1  0  0  0
 58133  1  0  0  0
 59 60  1  0  0  0
 59 61  1  0  0  0
 59 62  1  0  0  0
 60134  1  0  0  0
 60135  1  0  0  0
 60136  1  0  0  0
 61137  1  0  0  0
 61138  1  0  0  0
 61139  1  0  0  0
 62140  1  0  0  0
 62141  1  0  0  0
 62142  1  0  0  0
 63 65  1  0  0  0
 63143  1  0  0  0
 63144  1  0  0  0
 63145  1  0  0  0
 64146  1  0  0  0
 65147  1  0  0  0
 68 79  1  0  0  0
 71 72  2  0  0  0
 71 74  1  0  0  0
 71 88  1  0  0  0
 72 81  1  0  0  0
 72 82  1  0  0  0
 73 81  2  0  0  0
 73 83  1  0  0  0
 73 88  1  0  0  0
 74 84  1  0  0  0
 74 85  2  0  0  0
 75 78  1  0  0  0
 75 80  1  0  0  0
 75 86  2  0  0  0
 76 79  1  0  0  0
 76 80  1  0  0  0
 76 87  2  0  0  0
 77 78  1  0  0  0
 77148  1  0  0  0
 77149  1  0  0  0
 77150  1  0  0  0
 78151  1  0  0  0
 78152  1  0  0  0
 79153  1  0  0  0
 79154  1  0  0  0
 80 84  1  0  0  0
 80155  1  0  0  0
 82156  1  0  0  0
 82157  1  0  0  0
 83158  1  0  0  0
 84159  1  0  0  0
M  ISO  4   1 100  68 101  79 101  83 100
M  END
> <chiral flag>
0

> <version>
0

> <s_m_source_file>
/data/baiqing/PycharmProjects/Reinvent-master-3.2/result/LINK_invent/BTK/process_docking_weight1_custom_product_contain_oxygen_bond_distance_aromatic_linkinvent_7_9_3/rearranged_h_0180.sdf

> <i_m_source_file_index>
24

> <r_mmod_Potential_Energy-OPLS-2005>
-219.701553344727

> <r_mmod_Stretch_Energy-OPLS-2005>
46.9657440185547

> <r_mmod_Bend_Energy-OPLS-2005>
115.068420410156

> <r_mmod_Torsional_Energy-OPLS-2005>
256.017120361328

> <r_mmod_Improper_Torsional_Energy-OPLS-2005>
8.70009517669678

> <r_mmod_Van_der_Waal_Energy-OPLS-2005>
125.494682312012

> <r_mmod_Electrostatic_Energy-OPLS-2005>
-512.701599121094

> <r_mmod_Solvation_Energy-OPLS-2005>
-286.570770263672

> <b_mmod_Minimization_Converged-OPLS-2005>
0

> <r_mmod_RMS_Derivative-OPLS-2005>
2.71043276786804

$$$$
24
                    3D
 Structure written by MMmdl.
151159  0  0  1  0            999 V2000
  -30.5615  -14.7672   20.4591 C   0  0  0  0  0  0
  -30.4485  -12.4670   19.4702 C   0  0  0  0  0  0
  -29.5183  -12.5022   18.2361 C   0  0  0  0  0  0
  -28.0443  -12.3165   18.6501 C   0  0  0  0  0  0
  -27.6431  -13.2197   19.8458 C   0  0  2  0  0  0
  -28.6874  -13.1424   20.9819 C   0  0  0  0  0  0
  -25.2524  -13.8169   20.5673 C   0  0  0  0  0  0
  -24.1805  -13.0432   20.9201 C   0  0  0  0  0  0
  -24.6381  -11.6906   20.8736 C   0  0  0  0  0  0
  -23.9059  -10.4290   21.0415 C   0  0  0  0  0  0
  -24.3614   -9.4201   21.9185 C   0  0  0  0  0  0
  -23.6288   -8.2239   22.0754 C   0  0  0  0  0  0
  -22.4268   -8.0277   21.3550 C   0  0  0  0  0  0
  -21.9901   -9.0253   20.4657 C   0  0  0  0  0  0
  -22.7231  -10.2134   20.3063 C   0  0  0  0  0  0
  -21.6853   -6.0726   22.5280 C   0  0  0  0  0  0
  -21.4017   -6.5631   23.8213 C   0  0  0  0  0  0
  -21.3658   -5.6779   24.9167 C   0  0  0  0  0  0
  -21.6043   -4.3046   24.7219 C   0  0  0  0  0  0
  -21.8821   -3.8142   23.4343 C   0  0  0  0  0  0
  -21.9190   -4.6953   22.3398 C   0  0  0  0  0  0
  -22.7832  -13.5242   21.1855 C   0  0  0  0  0  0
  -22.1663   -4.2145   21.0971 F   0  0  0  0  0  0
  -21.5622   -3.4527   25.7733 F   0  0  0  0  0  0
  -29.9878  -13.5146   20.4071 N   0  0  0  0  0  0
  -26.2933  -12.9350   20.3231 N   0  0  0  0  0  0
  -25.9302  -11.6514   20.5730 N   0  0  0  0  0  0
  -22.0463  -12.8257   22.0414 N   0  0  0  0  0  0
  -25.4209  -15.1894   20.4079 N   0  0  0  0  0  0
  -31.7528  -14.9123   20.1657 O   0  0  0  0  0  0
  -21.6634   -6.8876   21.4246 O   0  0  0  0  0  0
  -22.3534  -14.5535   20.6666 O   0  0  0  0  0  0
  -24.6305  -31.8546   23.1942 C   0  0  0  0  0  0
  -25.9137  -32.4739   23.8304 C   0  0  1  0  0  0
  -27.2192  -27.2572   20.1448 C   0  0  0  0  0  0
  -25.5938  -33.8544   24.2234 N   0  0  0  0  0  0
  -23.4269  -30.4743   21.5378 C   0  0  2  0  0  0
  -24.8745  -28.9119   20.1128 C   0  0  0  0  0  0
  -22.7510  -29.4589   22.4895 C   0  0  0  0  0  0
  -18.0296  -28.1397   22.8486 C   0  0  0  0  0  0
  -24.1486  -36.7282   23.2626 C   0  0  0  0  0  0
  -25.9713  -30.7666   21.3731 C   0  0  0  0  0  0
  -26.0441  -29.3860   20.7212 C   0  0  0  0  0  0
  -27.2216  -28.5728   20.7197 C   0  0  0  0  0  0
  -26.0305  -26.8425   19.5132 C   0  0  0  0  0  0
  -24.8723  -27.6491   19.4970 C   0  0  0  0  0  0
  -23.6457  -29.8012   20.1555 C   0  0  0  0  0  0
  -25.4119  -36.3061   24.0313 C   0  0  1  0  0  0
  -20.5903  -28.3705   23.1267 C   0  0  2  0  0  0
  -20.6789  -26.9422   22.5407 C   0  0  0  0  0  0
  -19.5760  -26.6387   21.5213 C   0  0  0  0  0  0
  -18.1939  -26.7933   22.1627 C   0  0  0  0  0  0
  -19.1552  -28.8868   23.2863 C   0  0  0  0  0  0
  -18.9467  -30.1471   23.8870 C   0  0  0  0  0  0
  -17.6466  -30.6587   24.0574 C   0  0  0  0  0  0
  -25.9071  -34.9429   23.5081 C   0  0  0  0  0  0
  -16.5361  -29.9092   23.6334 C   0  0  0  0  0  0
  -16.7280  -28.6520   23.0335 C   0  0  0  0  0  0
  -26.4504  -31.6570   25.0699 C   0  0  0  0  0  0
  -25.3724  -31.3752   26.1425 C   0  0  0  0  0  0
  -27.0344  -30.2977   24.6197 C   0  0  0  0  0  0
  -27.6053  -32.4312   25.7474 C   0  0  0  0  0  0
  -27.5576  -37.1795   24.8467 C   0  0  0  0  0  0
  -21.4217  -29.3044   22.3652 N   0  0  0  0  0  0
  -26.4289  -37.3767   23.9400 N   0  0  0  0  0  0
  -24.6951  -31.0509   22.0918 N   0  0  0  0  0  0
  -23.4208  -28.8135   23.3001 O   0  0  0  0  0  0
  -28.3352  -26.3922   20.1393 O   0  0  0  0  0  0
  -26.5649  -34.8916   22.4653 O   0  0  0  0  0  0
  -23.5457  -32.1373   23.7242 O   0  0  0  0  0  0
  -29.2954  -19.8841   20.2613 C   0  0  0  0  0  0
  -30.4059  -19.5112   21.0163 C   0  0  0  0  0  0
  -29.7668  -17.3103   20.5054 C   0  0  0  0  0  0
  -28.6776  -21.2117   19.7014 C   0  0  0  0  0  0
  -28.3202  -23.7158   19.8454 C   0  0  0  0  0  0
  -27.2721  -24.8941   21.8958 C   0  0  0  0  0  0
  -28.3277  -25.0203   20.7812 C   0  0  2  0  0  0
  -30.6417  -18.1062   21.1517 N   0  0  0  0  0  0
  -31.3124  -20.3754   21.6360 N   0  0  0  0  0  0
  -29.6813  -15.8311   20.6140 N   0  0  0  0  0  0
  -28.7588  -22.4667   20.3081 N   0  0  0  0  0  0
  -28.0586  -21.0827   18.6381 O   0  0  0  0  0  0
  -27.8970  -23.8837   18.6960 O   0  0  0  0  0  0
  -28.5450  -18.3524   19.6960 S   0  0  0  0  0  0
  -31.4863  -12.6188   19.1683 H   0  0  0  0  0  0
  -30.4178  -11.4903   19.9535 H   0  0  0  0  0  0
  -29.8075  -11.7238   17.5279 H   0  0  0  0  0  0
  -29.6343  -13.4507   17.7099 H   0  0  0  0  0  0
  -27.9108  -11.2695   18.9248 H   0  0  0  0  0  0
  -27.3849  -12.4936   17.7997 H   0  0  0  0  0  0
  -27.6363  -14.2387   19.4593 H   0  0  0  0  0  0
  -28.7302  -12.1351   21.3995 H   0  0  0  0  0  0
  -28.4157  -13.7992   21.8100 H   0  0  0  0  0  0
  -25.2765   -9.5664   22.4747 H   0  0  0  0  0  0
  -23.9994   -7.4626   22.7466 H   0  0  0  0  0  0
  -21.0828   -8.8776   19.8971 H   0  0  0  0  0  0
  -22.3697  -10.9664   19.6166 H   0  0  0  0  0  0
  -21.2018   -7.6143   23.9720 H   0  0  0  0  0  0
  -21.1479   -6.0505   25.9073 H   0  0  0  0  0  0
  -22.0605   -2.7606   23.2835 H   0  0  0  0  0  0
  -22.4092  -11.9950   22.4843 H   0  0  0  0  0  0
  -21.1087  -13.1309   22.2608 H   0  0  0  0  0  0
  -24.6399  -15.8301   20.5054 H   0  0  0  0  0  0
  -26.2399  -15.6287   20.0092 H   0  0  0  0  0  0
  -26.7195  -32.5397   23.1038 H   0  0  0  0  0  0
  -25.0101  -33.9689   25.0390 H   0  0  0  0  0  0
  -22.7218  -31.2941   21.3876 H   0  0  0  0  0  0
  -23.3742  -35.9622   23.3309 H   0  0  0  0  0  0
  -24.3560  -36.8896   22.2037 H   0  0  0  0  0  0
  -23.7257  -37.6491   23.6655 H   0  0  0  0  0  0
  -26.1078  -31.5222   20.5981 H   0  0  0  0  0  0
  -26.8478  -30.8192   22.0056 H   0  0  0  0  0  0
  -28.1240  -28.9369   21.1921 H   0  0  0  0  0  0
  -25.9928  -25.8713   19.0405 H   0  0  0  0  0  0
  -23.9787  -27.2829   19.0102 H   0  0  0  0  0  0
  -23.7705  -30.5722   19.3947 H   0  0  0  0  0  0
  -22.7645  -29.2328   19.8525 H   0  0  0  0  0  0
  -25.1294  -36.1901   25.0802 H   0  0  0  0  0  0
  -20.9998  -28.3290   24.1384 H   0  0  0  0  0  0
  -20.5702  -26.2313   23.3614 H   0  0  0  0  0  0
  -21.6656  -26.7451   22.1189 H   0  0  0  0  0  0
  -19.6930  -25.6295   21.1241 H   0  0  0  0  0  0
  -19.6694  -27.3202   20.6742 H   0  0  0  0  0  0
  -17.4215  -26.6668   21.4029 H   0  0  0  0  0  0
  -18.0346  -26.0076   22.9022 H   0  0  0  0  0  0
  -19.7940  -30.7304   24.2212 H   0  0  0  0  0  0
  -17.5018  -31.6256   24.5191 H   0  0  0  0  0  0
  -15.5362  -30.2986   23.7664 H   0  0  0  0  0  0
  -15.8681  -28.0843   22.7032 H   0  0  0  0  0  0
  -24.5873  -30.7128   25.7763 H   0  0  0  0  0  0
  -24.8949  -32.2943   26.4835 H   0  0  0  0  0  0
  -25.8030  -30.8932   27.0212 H   0  0  0  0  0  0
  -26.2935  -29.6718   24.1214 H   0  0  0  0  0  0
  -27.4007  -29.7244   25.4726 H   0  0  0  0  0  0
  -27.8818  -30.4228   23.9453 H   0  0  0  0  0  0
  -27.2652  -33.3603   26.2060 H   0  0  0  0  0  0
  -28.3864  -32.6894   25.0309 H   0  0  0  0  0  0
  -28.0732  -31.8442   26.5386 H   0  0  0  0  0  0
  -28.2608  -38.0077   24.7490 H   0  0  0  0  0  0
  -28.1052  -36.2608   24.6317 H   0  0  0  0  0  0
  -27.2291  -37.1480   25.8870 H   0  0  0  0  0  0
  -20.9411  -29.8759   21.6843 H   0  0  0  0  0  0
  -26.0163  -38.2838   24.1404 H   0  0  0  0  0  0
  -27.3939  -23.9617   22.4490 H   0  0  0  0  0  0
  -26.2564  -24.9035   21.4997 H   0  0  0  0  0  0
  -27.3619  -25.7083   22.6145 H   0  0  0  0  0  0
  -29.2959  -24.9706   21.2805 H   0  0  0  0  0  0
  -31.3732  -21.3479   21.3561 H   0  0  0  0  0  0
  -32.1848  -20.0007   21.9961 H   0  0  0  0  0  0
  -28.7340  -15.5032   20.6943 H   0  0  0  0  0  0
  -29.1597  -22.4701   21.2332 H   0  0  0  0  0  0
  1 25  1  0  0  0
  1 30  2  0  0  0
  1 80  1  0  0  0
  2  3  1  0  0  0
  2 25  1  0  0  0
  2 85  1  0  0  0
  2 86  1  0  0  0
  3  4  1  0  0  0
  3 87  1  0  0  0
  3 88  1  0  0  0
  4  5  1  0  0  0
  4 89  1  0  0  0
  4 90  1  0  0  0
  5  6  1  0  0  0
  5 26  1  0  0  0
  5 91  1  0  0  0
  6 25  1  0  0  0
  6 92  1  0  0  0
  6 93  1  0  0  0
  7  8  2  0  0  0
  7 26  1  0  0  0
  7 29  1  0  0  0
  8  9  1  0  0  0
  8 22  1  0  0  0
  9 10  1  0  0  0
  9 27  2  0  0  0
 10 11  2  0  0  0
 10 15  1  0  0  0
 11 12  1  0  0  0
 11 94  1  0  0  0
 12 13  2  0  0  0
 12 95  1  0  0  0
 13 14  1  0  0  0
 13 31  1  0  0  0
 14 15  2  0  0  0
 14 96  1  0  0  0
 15 97  1  0  0  0
 16 17  2  0  0  0
 16 21  1  0  0  0
 16 31  1  0  0  0
 17 18  1  0  0  0
 17 98  1  0  0  0
 18 19  2  0  0  0
 18 99  1  0  0  0
 19 20  1  0  0  0
 19 24  1  0  0  0
 20 21  2  0  0  0
 20100  1  0  0  0
 21 23  1  0  0  0
 22 28  1  0  0  0
 22 32  2  0  0  0
 26 27  1  0  0  0
 28101  1  0  0  0
 28102  1  0  0  0
 29103  1  0  0  0
 29104  1  0  0  0
 33 34  1  0  0  0
 33 66  1  0  0  0
 33 70  2  0  0  0
 34 36  1  0  0  0
 34 59  1  0  0  0
 34105  1  0  0  0
 35 44  2  0  0  0
 35 45  1  0  0  0
 35 68  1  0  0  0
 36 56  1  0  0  0
 36106  1  0  0  0
 37 39  1  0  0  0
 37 47  1  0  0  0
 37 66  1  0  0  0
 37107  1  0  0  0
 38 43  2  0  0  0
 38 46  1  0  0  0
 38 47  1  0  0  0
 39 64  1  0  0  0
 39 67  2  0  0  0
 40 52  1  0  0  0
 40 53  2  0  0  0
 40 58  1  0  0  0
 41108  1  0  0  0
 41109  1  0  0  0
 41110  1  0  0  0
 41 48  1  0  0  0
 42 43  1  0  0  0
 42 66  1  0  0  0
 42111  1  0  0  0
 42112  1  0  0  0
 43 44  1  0  0  0
 44113  1  0  0  0
 45 46  2  0  0  0
 45114  1  0  0  0
 46115  1  0  0  0
 47116  1  0  0  0
 47117  1  0  0  0
 48 56  1  0  0  0
 48 65  1  0  0  0
 48118  1  0  0  0
 49 50  1  0  0  0
 49 53  1  0  0  0
 49 64  1  0  0  0
 49119  1  0  0  0
 50 51  1  0  0  0
 50120  1  0  0  0
 50121  1  0  0  0
 51 52  1  0  0  0
 51122  1  0  0  0
 51123  1  0  0  0
 52124  1  0  0  0
 52125  1  0  0  0
 53 54  1  0  0  0
 54 55  2  0  0  0
 54126  1  0  0  0
 55 57  1  0  0  0
 55127  1  0  0  0
 56 69  2  0  0  0
 57 58  2  0  0  0
 57128  1  0  0  0
 58129  1  0  0  0
 59 60  1  0  0  0
 59 61  1  0  0  0
 59 62  1  0  0  0
 60130  1  0  0  0
 60131  1  0  0  0
 60132  1  0  0  0
 61133  1  0  0  0
 61134  1  0  0  0
 61135  1  0  0  0
 62136  1  0  0  0
 62137  1  0  0  0
 62138  1  0  0  0
 63 65  1  0  0  0
 63139  1  0  0  0
 63140  1  0  0  0
 63141  1  0  0  0
 64142  1  0  0  0
 65143  1  0  0  0
 68 77  1  0  0  0
 71 72  2  0  0  0
 71 74  1  0  0  0
 71 84  1  0  0  0
 72 78  1  0  0  0
 72 79  1  0  0  0
 73 78  2  0  0  0
 73 80  1  0  0  0
 73 84  1  0  0  0
 74 81  1  0  0  0
 74 82  2  0  0  0
 75 77  1  0  0  0
 75 81  1  0  0  0
 75 83  2  0  0  0
 76144  1  0  0  0
 76145  1  0  0  0
 76146  1  0  0  0
 76 77  1  0  0  0
 77147  1  0  0  0
 79148  1  0  0  0
 79149  1  0  0  0
 80150  1  0  0  0
 81151  1  0  0  0
M  ISO  4   1 100  68 101  77 101  80 100
M  END
> <chiral flag>
0

> <version>
0

> <s_m_source_file>
/data/baiqing/PycharmProjects/Reinvent-master-3.2/result/LINK_invent/BTK/process_docking_weight1_custom_product_contain_oxygen_bond_distance_aromatic_linkinvent_7_9_3/rearranged_h_0180.sdf

> <i_m_source_file_index>
25

> <r_mmod_Potential_Energy-OPLS-2005>
0.92359185218811

> <r_mmod_Stretch_Energy-OPLS-2005>
122.040390014648

> <r_mmod_Bend_Energy-OPLS-2005>
191.870864868164

> <r_mmod_Torsional_Energy-OPLS-2005>
262.6708984375

> <r_mmod_Improper_Torsional_Energy-OPLS-2005>
9.37110996246338

> <r_mmod_Van_der_Waal_Energy-OPLS-2005>
114.513618469238

> <r_mmod_Electrostatic_Energy-OPLS-2005>
-488.959045410156

> <r_mmod_Solvation_Energy-OPLS-2005>
-300.169403076172

> <b_mmod_Minimization_Converged-OPLS-2005>
0

> <r_mmod_RMS_Derivative-OPLS-2005>
2.16533184051514

$$$$
25
                    3D
 Structure written by MMmdl.
154162  0  0  1  0            999 V2000
  -30.6482  -14.6261   20.5390 C   0  0  0  0  0  0
  -30.4348  -12.3848   19.4716 C   0  0  0  0  0  0
  -29.5118  -12.5095   18.2340 C   0  0  0  0  0  0
  -28.0339  -12.3374   18.6387 C   0  0  0  0  0  0
  -27.6570  -13.2067   19.8701 C   0  0  2  0  0  0
  -28.6982  -13.0524   21.0066 C   0  0  0  0  0  0
  -25.2578  -13.8148   20.5687 C   0  0  0  0  0  0
  -24.1816  -13.0418   20.9208 C   0  0  0  0  0  0
  -24.6377  -11.6911   20.8729 C   0  0  0  0  0  0
  -23.9046  -10.4296   21.0424 C   0  0  0  0  0  0
  -24.3614   -9.4228   21.9203 C   0  0  0  0  0  0
  -23.6300   -8.2257   22.0744 C   0  0  0  0  0  0
  -22.4281   -8.0286   21.3519 C   0  0  0  0  0  0
  -21.9919   -9.0273   20.4629 C   0  0  0  0  0  0
  -22.7246  -10.2161   20.3058 C   0  0  0  0  0  0
  -21.6850   -6.0769   22.5293 C   0  0  0  0  0  0
  -21.4043   -6.5671   23.8238 C   0  0  0  0  0  0
  -21.3637   -5.6803   24.9174 C   0  0  0  0  0  0
  -21.6016   -4.3060   24.7210 C   0  0  0  0  0  0
  -21.8821   -3.8171   23.4330 C   0  0  0  0  0  0
  -21.9205   -4.7004   22.3395 C   0  0  0  0  0  0
  -22.7857  -13.5252   21.1859 C   0  0  0  0  0  0
  -22.1662   -4.2202   21.0972 F   0  0  0  0  0  0
  -21.5592   -3.4532   25.7713 F   0  0  0  0  0  0
  -30.0171  -13.4042   20.4560 N   0  0  0  0  0  0
  -26.2971  -12.9318   20.3319 N   0  0  0  0  0  0
  -25.9284  -11.6457   20.5722 N   0  0  0  0  0  0
  -22.0469  -12.8232   22.0424 N   0  0  0  0  0  0
  -25.4312  -15.1858   20.4086 N   0  0  0  0  0  0
  -31.7841  -14.7826   20.0857 O   0  0  0  0  0  0
  -21.6617   -6.8913   21.4244 O   0  0  0  0  0  0
  -22.3552  -14.5553   20.6720 O   0  0  0  0  0  0
  -24.6256  -31.8558   23.1930 C   0  0  0  0  0  0
  -25.9089  -32.4772   23.8282 C   0  0  1  0  0  0
  -27.2456  -27.2809   20.1127 C   0  0  0  0  0  0
  -25.5906  -33.8562   24.2206 N   0  0  0  0  0  0
  -23.4283  -30.4646   21.5336 C   0  0  2  0  0  0
  -24.8930  -28.9275   20.0928 C   0  0  0  0  0  0
  -22.7582  -29.4428   22.4841 C   0  0  0  0  0  0
  -18.0347  -28.1419   22.8476 C   0  0  0  0  0  0
  -24.1521  -36.7251   23.2646 C   0  0  0  0  0  0
  -25.9773  -30.7698   21.3810 C   0  0  0  0  0  0
  -26.0576  -29.3976   20.7125 C   0  0  0  0  0  0
  -27.2376  -28.5870   20.7109 C   0  0  0  0  0  0
  -26.0555  -26.8751   19.4739 C   0  0  0  0  0  0
  -24.8983  -27.6760   19.4586 C   0  0  0  0  0  0
  -23.6575  -29.8023   20.1517 C   0  0  0  0  0  0
  -25.4144  -36.3045   24.0323 C   0  0  1  0  0  0
  -20.5963  -28.3621   23.1362 C   0  0  2  0  0  0
  -20.6824  -26.9344   22.5429 C   0  0  0  0  0  0
  -19.5784  -26.6390   21.5231 C   0  0  0  0  0  0
  -18.1972  -26.7974   22.1630 C   0  0  0  0  0  0
  -19.1594  -28.8860   23.2918 C   0  0  0  0  0  0
  -18.9478  -30.1528   23.8830 C   0  0  0  0  0  0
  -17.6449  -30.6595   24.0570 C   0  0  0  0  0  0
  -25.9048  -34.9438   23.5050 C   0  0  0  0  0  0
  -16.5358  -29.9044   23.6360 C   0  0  0  0  0  0
  -16.7316  -28.6539   23.0262 C   0  0  0  0  0  0
  -26.4471  -31.6581   25.0680 C   0  0  0  0  0  0
  -25.3673  -31.3751   26.1369 C   0  0  0  0  0  0
  -27.0350  -30.3020   24.6166 C   0  0  0  0  0  0
  -27.6055  -32.4280   25.7429 C   0  0  0  0  0  0
  -27.5592  -37.1790   24.8485 C   0  0  0  0  0  0
  -21.4281  -29.2938   22.3726 N   0  0  0  0  0  0
  -26.4315  -37.3766   23.9409 N   0  0  0  0  0  0
  -24.6937  -31.0508   22.0905 N   0  0  0  0  0  0
  -23.4321  -28.7894   23.2847 O   0  0  0  0  0  0
  -28.3578  -26.4056   20.1352 O   0  0  0  0  0  0
  -26.5667  -34.8951   22.4644 O   0  0  0  0  0  0
  -23.5379  -32.1289   23.7200 O   0  0  0  0  0  0
  -29.6427  -19.6783   20.5687 C   0  0  0  0  0  0
  -30.9221  -19.2459   20.9002 C   0  0  0  0  0  0
  -29.9884  -17.1153   20.8351 C   0  0  0  0  0  0
  -29.0399  -21.0638   20.2545 C   0  0  0  0  0  0
  -32.1241  -20.0966   21.1313 C   0  0  0  0  0  0
  -27.6712  -24.8105   21.8287 C   0  0  0  0  0  0
  -29.6366  -22.4689   20.7307 C   0  0  0  0  0  0
  -29.3335  -23.9126   20.0060 C   0  0  0  0  0  0
  -28.1396  -24.9306   20.3695 C   0  0  2  0  0  0
  -31.0966  -17.8380   21.0486 N   0  0  0  0  0  0
  -29.8956  -15.6651   21.0246 N   0  0  0  0  0  0
  -27.9920  -21.1124   19.6044 O   0  0  0  0  0  0
  -28.6180  -18.2122   20.4657 S   0  0  0  0  0  0
  -31.4844  -12.4922   19.1904 H   0  0  0  0  0  0
  -30.3453  -11.3827   19.8970 H   0  0  0  0  0  0
  -29.7755  -11.7589   17.4854 H   0  0  0  0  0  0
  -29.6597  -13.4799   17.7572 H   0  0  0  0  0  0
  -27.8857  -11.2802   18.8672 H   0  0  0  0  0  0
  -27.3724  -12.5529   17.7992 H   0  0  0  0  0  0
  -27.6783  -14.2413   19.5275 H   0  0  0  0  0  0
  -28.6960  -12.0199   21.3614 H   0  0  0  0  0  0
  -28.4377  -13.6530   21.8800 H   0  0  0  0  0  0
  -25.2770   -9.5690   22.4775 H   0  0  0  0  0  0
  -24.0010   -7.4631   22.7447 H   0  0  0  0  0  0
  -21.0854   -8.8805   19.8913 H   0  0  0  0  0  0
  -22.3730  -10.9705   19.6149 H   0  0  0  0  0  0
  -21.2077   -7.6190   23.9767 H   0  0  0  0  0  0
  -21.1422   -6.0516   25.9081 H   0  0  0  0  0  0
  -22.0620   -2.7645   23.2807 H   0  0  0  0  0  0
  -22.4053  -11.9905   22.4846 H   0  0  0  0  0  0
  -21.1067  -13.1258   22.2532 H   0  0  0  0  0  0
  -24.6668  -15.8442   20.5106 H   0  0  0  0  0  0
  -26.2703  -15.6164   20.0419 H   0  0  0  0  0  0
  -26.7130  -32.5515   23.0994 H   0  0  0  0  0  0
  -25.0141  -33.9726   25.0402 H   0  0  0  0  0  0
  -22.7066  -31.2711   21.3669 H   0  0  0  0  0  0
  -23.3821  -35.9559   23.3346 H   0  0  0  0  0  0
  -24.3608  -36.8823   22.2055 H   0  0  0  0  0  0
  -23.7262  -37.6455   23.6640 H   0  0  0  0  0  0
  -26.1322  -31.5347   20.6185 H   0  0  0  0  0  0
  -26.8491  -30.8180   22.0237 H   0  0  0  0  0  0
  -28.1260  -28.9314   21.2195 H   0  0  0  0  0  0
  -25.9888  -25.9135   18.9859 H   0  0  0  0  0  0
  -24.0091  -27.3163   18.9587 H   0  0  0  0  0  0
  -23.7842  -30.5843   19.4054 H   0  0  0  0  0  0
  -22.7823  -29.2295   19.8410 H   0  0  0  0  0  0
  -25.1340  -36.1820   25.0811 H   0  0  0  0  0  0
  -21.0046  -28.3156   24.1478 H   0  0  0  0  0  0
  -20.5786  -26.2116   23.3549 H   0  0  0  0  0  0
  -21.6684  -26.7428   22.1147 H   0  0  0  0  0  0
  -19.6893  -25.6295   21.1260 H   0  0  0  0  0  0
  -19.6792  -27.3233   20.6812 H   0  0  0  0  0  0
  -17.4246  -26.6749   21.4029 H   0  0  0  0  0  0
  -18.0308  -26.0182   22.9090 H   0  0  0  0  0  0
  -19.7941  -30.7471   24.2023 H   0  0  0  0  0  0
  -17.4964  -31.6249   24.5198 H   0  0  0  0  0  0
  -15.5325  -30.2835   23.7803 H   0  0  0  0  0  0
  -15.8764  -28.0911   22.6787 H   0  0  0  0  0  0
  -24.5836  -30.7142   25.7654 H   0  0  0  0  0  0
  -24.8917  -32.2945   26.4778 H   0  0  0  0  0  0
  -25.7924  -30.8877   27.0160 H   0  0  0  0  0  0
  -26.2948  -29.6734   24.1218 H   0  0  0  0  0  0
  -27.4098  -29.7282   25.4666 H   0  0  0  0  0  0
  -27.8778  -30.4371   23.9401 H   0  0  0  0  0  0
  -27.2721  -33.3584   26.2031 H   0  0  0  0  0  0
  -28.3874  -32.6819   25.0251 H   0  0  0  0  0  0
  -28.0741  -31.8387   26.5317 H   0  0  0  0  0  0
  -28.2592  -38.0117   24.7556 H   0  0  0  0  0  0
  -28.1112  -36.2638   24.6265 H   0  0  0  0  0  0
  -27.2333  -37.1374   25.8908 H   0  0  0  0  0  0
  -20.9391  -29.8633   21.6973 H   0  0  0  0  0  0
  -26.0173  -38.2836   24.1431 H   0  0  0  0  0  0
  -32.0080  -20.6730   22.0503 H   0  0  0  0  0  0
  -32.3066  -20.7765   20.2977 H   0  0  0  0  0  0
  -33.0154  -19.4786   21.2325 H   0  0  0  0  0  0
  -27.3704  -23.7891   22.0759 H   0  0  0  0  0  0
  -26.8081  -25.4573   22.0149 H   0  0  0  0  0  0
  -28.4561  -25.1214   22.5128 H   0  0  0  0  0  0
  -30.7078  -22.3245   20.6066 H   0  0  0  0  0  0
  -29.5082  -22.5543   21.8101 H   0  0  0  0  0  0
  -29.3068  -23.7455   18.9288 H   0  0  0  0  0  0
  -30.2246  -24.5308   20.1358 H   0  0  0  0  0  0
  -27.3203  -24.5681   19.7528 H   0  0  0  0  0  0
  -29.0263  -15.3541   21.4202 H   0  0  0  0  0  0
  1 25  1  0  0  0
  1 30  2  0  0  0
  1 81  1  0  0  0
  2  3  1  0  0  0
  2 25  1  0  0  0
  2 84  1  0  0  0
  2 85  1  0  0  0
  3  4  1  0  0  0
  3 86  1  0  0  0
  3 87  1  0  0  0
  4  5  1  0  0  0
  4 88  1  0  0  0
  4 89  1  0  0  0
  5  6  1  0  0  0
  5 26  1  0  0  0
  5 90  1  0  0  0
  6 25  1  0  0  0
  6 91  1  0  0  0
  6 92  1  0  0  0
  7  8  2  0  0  0
  7 26  1  0  0  0
  7 29  1  0  0  0
  8  9  1  0  0  0
  8 22  1  0  0  0
  9 10  1  0  0  0
  9 27  2  0  0  0
 10 11  2  0  0  0
 10 15  1  0  0  0
 11 12  1  0  0  0
 11 93  1  0  0  0
 12 13  2  0  0  0
 12 94  1  0  0  0
 13 14  1  0  0  0
 13 31  1  0  0  0
 14 15  2  0  0  0
 14 95  1  0  0  0
 15 96  1  0  0  0
 16 17  2  0  0  0
 16 21  1  0  0  0
 16 31  1  0  0  0
 17 18  1  0  0  0
 17 97  1  0  0  0
 18 19  2  0  0  0
 18 98  1  0  0  0
 19 20  1  0  0  0
 19 24  1  0  0  0
 20 21  2  0  0  0
 20 99  1  0  0  0
 21 23  1  0  0  0
 22 28  1  0  0  0
 22 32  2  0  0  0
 26 27  1  0  0  0
 28100  1  0  0  0
 28101  1  0  0  0
 29102  1  0  0  0
 29103  1  0  0  0
 33 34  1  0  0  0
 33 66  1  0  0  0
 33 70  2  0  0  0
 34 36  1  0  0  0
 34 59  1  0  0  0
 34104  1  0  0  0
 35 44  2  0  0  0
 35 45  1  0  0  0
 35 68  1  0  0  0
 36 56  1  0  0  0
 36105  1  0  0  0
 37 39  1  0  0  0
 37 47  1  0  0  0
 37 66  1  0  0  0
 37106  1  0  0  0
 38 43  2  0  0  0
 38 46  1  0  0  0
 38 47  1  0  0  0
 39 64  1  0  0  0
 39 67  2  0  0  0
 40 52  1  0  0  0
 40 53  2  0  0  0
 40 58  1  0  0  0
 41107  1  0  0  0
 41108  1  0  0  0
 41109  1  0  0  0
 41 48  1  0  0  0
 42 43  1  0  0  0
 42 66  1  0  0  0
 42110  1  0  0  0
 42111  1  0  0  0
 43 44  1  0  0  0
 44112  1  0  0  0
 45 46  2  0  0  0
 45113  1  0  0  0
 46114  1  0  0  0
 47115  1  0  0  0
 47116  1  0  0  0
 48 56  1  0  0  0
 48 65  1  0  0  0
 48117  1  0  0  0
 49 50  1  0  0  0
 49 53  1  0  0  0
 49 64  1  0  0  0
 49118  1  0  0  0
 50 51  1  0  0  0
 50119  1  0  0  0
 50120  1  0  0  0
 51 52  1  0  0  0
 51121  1  0  0  0
 51122  1  0  0  0
 52123  1  0  0  0
 52124  1  0  0  0
 53 54  1  0  0  0
 54 55  2  0  0  0
 54125  1  0  0  0
 55 57  1  0  0  0
 55126  1  0  0  0
 56 69  2  0  0  0
 57 58  2  0  0  0
 57127  1  0  0  0
 58128  1  0  0  0
 59 60  1  0  0  0
 59 61  1  0  0  0
 59 62  1  0  0  0
 60129  1  0  0  0
 60130  1  0  0  0
 60131  1  0  0  0
 61132  1  0  0  0
 61133  1  0  0  0
 61134  1  0  0  0
 62135  1  0  0  0
 62136  1  0  0  0
 62137  1  0  0  0
 63 65  1  0  0  0
 63138  1  0  0  0
 63139  1  0  0  0
 63140  1  0  0  0
 64141  1  0  0  0
 65142  1  0  0  0
 68 79  1  0  0  0
 71 72  2  0  0  0
 71 74  1  0  0  0
 71 83  1  0  0  0
 72 75  1  0  0  0
 72 80  1  0  0  0
 73 80  2  0  0  0
 73 81  1  0  0  0
 73 83  1  0  0  0
 74 77  1  0  0  0
 74 82  2  0  0  0
 75143  1  0  0  0
 75144  1  0  0  0
 75145  1  0  0  0
 76146  1  0  0  0
 76147  1  0  0  0
 76148  1  0  0  0
 76 79  1  0  0  0
 77 78  1  0  0  0
 77149  1  0  0  0
 77150  1  0  0  0
 78 79  1  0  0  0
 78151  1  0  0  0
 78152  1  0  0  0
 79153  1  0  0  0
 81154  1  0  0  0
M  ISO  4   1 100  68 101  79 101  81 100
M  END
> <chiral flag>
0

> <version>
0

> <s_m_source_file>
/data/baiqing/PycharmProjects/Reinvent-master-3.2/result/LINK_invent/BTK/process_docking_weight1_custom_product_contain_oxygen_bond_distance_aromatic_linkinvent_7_9_3/rearranged_h_0180.sdf

> <i_m_source_file_index>
26

> <r_mmod_Potential_Energy-OPLS-2005>
34.8974533081055

> <r_mmod_Stretch_Energy-OPLS-2005>
114.458618164062

> <r_mmod_Bend_Energy-OPLS-2005>
176.882186889648

> <r_mmod_Torsional_Energy-OPLS-2005>
246.753402709961

> <r_mmod_Improper_Torsional_Energy-OPLS-2005>
4.16076946258545

> <r_mmod_Van_der_Waal_Energy-OPLS-2005>
115.767349243164

> <r_mmod_Electrostatic_Energy-OPLS-2005>
-446.249420166016

> <r_mmod_Solvation_Energy-OPLS-2005>
-230.391937255859

> <b_mmod_Minimization_Converged-OPLS-2005>
0

> <r_mmod_RMS_Derivative-OPLS-2005>
9.06232452392578

$$$$
26
                    3D
 Structure written by MMmdl.
151159  0  0  1  0            999 V2000
  -30.5709  -14.8029   20.4630 C   0  0  0  0  0  0
  -30.4399  -12.4929   19.4804 C   0  0  0  0  0  0
  -29.5146  -12.5162   18.2425 C   0  0  0  0  0  0
  -28.0425  -12.3285   18.6558 C   0  0  0  0  0  0
  -27.6395  -13.2316   19.8507 C   0  0  2  0  0  0
  -28.6832  -13.1742   20.9872 C   0  0  0  0  0  0
  -25.2495  -13.8189   20.5686 C   0  0  0  0  0  0
  -24.1798  -13.0437   20.9212 C   0  0  0  0  0  0
  -24.6388  -11.6909   20.8739 C   0  0  0  0  0  0
  -23.9072  -10.4291   21.0410 C   0  0  0  0  0  0
  -24.3626   -9.4204   21.9185 C   0  0  0  0  0  0
  -23.6299   -8.2243   22.0754 C   0  0  0  0  0  0
  -22.4284   -8.0284   21.3550 C   0  0  0  0  0  0
  -21.9921   -9.0257   20.4654 C   0  0  0  0  0  0
  -22.7246  -10.2134   20.3058 C   0  0  0  0  0  0
  -21.6856   -6.0733   22.5282 C   0  0  0  0  0  0
  -21.4006   -6.5634   23.8213 C   0  0  0  0  0  0
  -21.3661   -5.6791   24.9178 C   0  0  0  0  0  0
  -21.6046   -4.3056   24.7226 C   0  0  0  0  0  0
  -21.8821   -3.8147   23.4351 C   0  0  0  0  0  0
  -21.9188   -4.6959   22.3400 C   0  0  0  0  0  0
  -22.7813  -13.5208   21.1885 C   0  0  0  0  0  0
  -22.1662   -4.2140   21.0981 F   0  0  0  0  0  0
  -21.5634   -3.4541   25.7740 F   0  0  0  0  0  0
  -29.9789  -13.5550   20.4090 N   0  0  0  0  0  0
  -26.2923  -12.9392   20.3274 N   0  0  0  0  0  0
  -25.9316  -11.6538   20.5750 N   0  0  0  0  0  0
  -22.0474  -12.8188   22.0447 N   0  0  0  0  0  0
  -25.4170  -15.1914   20.4071 N   0  0  0  0  0  0
  -31.7609  -14.9090   20.1437 O   0  0  0  0  0  0
  -21.6645   -6.8883   21.4250 O   0  0  0  0  0  0
  -22.3494  -14.5518   20.6741 O   0  0  0  0  0  0
  -24.6347  -31.8547   23.1960 C   0  0  0  0  0  0
  -25.9154  -32.4760   23.8333 C   0  0  1  0  0  0
  -27.2126  -27.2334   20.1447 C   0  0  0  0  0  0
  -25.5932  -33.8562   24.2258 N   0  0  0  0  0  0
  -23.4329  -30.4771   21.5381 C   0  0  2  0  0  0
  -24.8806  -28.9165   20.1102 C   0  0  0  0  0  0
  -22.7511  -29.4617   22.4882 C   0  0  0  0  0  0
  -18.0309  -28.1413   22.8502 C   0  0  0  0  0  0
  -24.1482  -36.7275   23.2646 C   0  0  0  0  0  0
  -25.9807  -30.7558   21.3826 C   0  0  0  0  0  0
  -26.0520  -29.3743   20.7288 C   0  0  0  0  0  0
  -27.2226  -28.5443   20.7372 C   0  0  0  0  0  0
  -26.0245  -26.8543   19.4841 C   0  0  0  0  0  0
  -24.8724  -27.6657   19.4741 C   0  0  0  0  0  0
  -23.6554  -29.8102   20.1550 C   0  0  0  0  0  0
  -25.4113  -36.3067   24.0336 C   0  0  1  0  0  0
  -20.5913  -28.3720   23.1264 C   0  0  2  0  0  0
  -20.6791  -26.9443   22.5400 C   0  0  0  0  0  0
  -19.5752  -26.6406   21.5217 C   0  0  0  0  0  0
  -18.1941  -26.7959   22.1638 C   0  0  0  0  0  0
  -19.1569  -28.8885   23.2883 C   0  0  0  0  0  0
  -18.9485  -30.1486   23.8905 C   0  0  0  0  0  0
  -17.6484  -30.6612   24.0584 C   0  0  0  0  0  0
  -25.9055  -34.9438   23.5100 C   0  0  0  0  0  0
  -16.5379  -29.9111   23.6351 C   0  0  0  0  0  0
  -16.7293  -28.6530   23.0377 C   0  0  0  0  0  0
  -26.4505  -31.6590   25.0729 C   0  0  0  0  0  0
  -25.3712  -31.3771   26.1436 C   0  0  0  0  0  0
  -27.0360  -30.3004   24.6222 C   0  0  0  0  0  0
  -27.6055  -32.4342   25.7505 C   0  0  0  0  0  0
  -27.5569  -37.1807   24.8489 C   0  0  0  0  0  0
  -21.4215  -29.3074   22.3640 N   0  0  0  0  0  0
  -26.4292  -37.3758   23.9413 N   0  0  0  0  0  0
  -24.7014  -31.0488   22.0945 N   0  0  0  0  0  0
  -23.4192  -28.8165   23.2998 O   0  0  0  0  0  0
  -28.2843  -26.3041   20.1803 O   0  0  0  0  0  0
  -26.5626  -34.8909   22.4665 O   0  0  0  0  0  0
  -23.5482  -32.1388   23.7229 O   0  0  0  0  0  0
  -31.0501  -19.4438   20.3609 C   0  0  0  0  0  0
  -29.7860  -20.0468   20.4230 C   0  0  0  0  0  0
  -29.9175  -17.3941   20.5862 C   0  0  0  0  0  0
  -28.0317  -24.9078   20.4235 C   0  0  0  0  0  0
  -32.2983  -20.2123   20.2077 C   0  0  0  0  0  0
  -28.8786  -23.8202   20.2145 C   0  0  0  0  0  0
  -28.5392  -22.3597   20.5096 C   0  0  0  0  0  0
  -33.5995  -19.4256   20.3269 C   0  0  0  0  0  0
  -31.0953  -18.0129   20.4430 N   0  0  0  0  0  0
  -29.5570  -21.4463   20.2908 N   0  0  0  0  0  0
  -29.7457  -15.9088   20.6908 N   0  0  0  0  0  0
  -32.3754  -21.4291   20.0011 O   0  0  0  0  0  0
  -27.4412  -21.9876   20.9282 O   0  0  0  0  0  0
  -30.0956  -24.0733   19.7104 O   0  0  0  0  0  0
  -28.6256  -18.6833   20.6507 S   0  0  0  0  0  0
  -31.4780  -12.6351   19.1763 H   0  0  0  0  0  0
  -30.4068  -11.5178   19.9692 H   0  0  0  0  0  0
  -29.8078  -11.7385   17.5365 H   0  0  0  0  0  0
  -29.6296  -13.4639   17.7162 H   0  0  0  0  0  0
  -27.9099  -11.2803   18.9261 H   0  0  0  0  0  0
  -27.3836  -12.5064   17.8057 H   0  0  0  0  0  0
  -27.6310  -14.2502   19.4630 H   0  0  0  0  0  0
  -28.7327  -12.1731   21.4184 H   0  0  0  0  0  0
  -28.4045  -13.8422   21.8034 H   0  0  0  0  0  0
  -25.2775   -9.5667   22.4756 H   0  0  0  0  0  0
  -24.0002   -7.4627   22.7464 H   0  0  0  0  0  0
  -21.0855   -8.8779   19.8956 H   0  0  0  0  0  0
  -22.3712  -10.9673   19.6162 H   0  0  0  0  0  0
  -21.2002   -7.6142   23.9713 H   0  0  0  0  0  0
  -21.1483   -6.0523   25.9079 H   0  0  0  0  0  0
  -22.0598   -2.7610   23.2854 H   0  0  0  0  0  0
  -22.4100  -11.9833   22.4789 H   0  0  0  0  0  0
  -21.1106  -13.1219   22.2695 H   0  0  0  0  0  0
  -24.6405  -15.8374   20.5001 H   0  0  0  0  0  0
  -26.2462  -15.6305   20.0308 H   0  0  0  0  0  0
  -26.7220  -32.5398   23.1078 H   0  0  0  0  0  0
  -25.0085  -33.9706   25.0407 H   0  0  0  0  0  0
  -22.7316  -31.3009   21.3899 H   0  0  0  0  0  0
  -23.3725  -35.9632   23.3364 H   0  0  0  0  0  0
  -24.3540  -36.8815   22.2041 H   0  0  0  0  0  0
  -23.7258  -37.6507   23.6624 H   0  0  0  0  0  0
  -26.1268  -31.5117   20.6098 H   0  0  0  0  0  0
  -26.8565  -30.8075   22.0179 H   0  0  0  0  0  0
  -28.1182  -28.8848   21.2369 H   0  0  0  0  0  0
  -25.9714  -25.8941   18.9920 H   0  0  0  0  0  0
  -23.9784  -27.3121   18.9774 H   0  0  0  0  0  0
  -23.7959  -30.5877   19.4037 H   0  0  0  0  0  0
  -22.7707  -29.2529   19.8441 H   0  0  0  0  0  0
  -25.1299  -36.1904   25.0830 H   0  0  0  0  0  0
  -21.0041  -28.3291   24.1375 H   0  0  0  0  0  0
  -20.5688  -26.2350   23.3609 H   0  0  0  0  0  0
  -21.6655  -26.7464   22.1201 H   0  0  0  0  0  0
  -19.6903  -25.6305   21.1281 H   0  0  0  0  0  0
  -19.6676  -27.3201   20.6727 H   0  0  0  0  0  0
  -17.4208  -26.6736   21.4040 H   0  0  0  0  0  0
  -18.0339  -26.0105   22.9038 H   0  0  0  0  0  0
  -19.7954  -30.7330   24.2260 H   0  0  0  0  0  0
  -17.5033  -31.6294   24.5191 H   0  0  0  0  0  0
  -15.5377  -30.3024   23.7656 H   0  0  0  0  0  0
  -15.8699  -28.0843   22.7097 H   0  0  0  0  0  0
  -24.5873  -30.7134   25.7768 H   0  0  0  0  0  0
  -24.8921  -32.2961   26.4819 H   0  0  0  0  0  0
  -25.7997  -30.8967   27.0236 H   0  0  0  0  0  0
  -26.2955  -29.6738   24.1226 H   0  0  0  0  0  0
  -27.4032  -29.7273   25.4742 H   0  0  0  0  0  0
  -27.8844  -30.4304   23.9499 H   0  0  0  0  0  0
  -27.2667  -33.3663   26.2048 H   0  0  0  0  0  0
  -28.3879  -32.6852   25.0336 H   0  0  0  0  0  0
  -28.0717  -31.8480   26.5428 H   0  0  0  0  0  0
  -28.2640  -38.0048   24.7443 H   0  0  0  0  0  0
  -28.0997  -36.2563   24.6436 H   0  0  0  0  0  0
  -27.2284  -37.1626   25.8895 H   0  0  0  0  0  0
  -20.9395  -29.8792   21.6843 H   0  0  0  0  0  0
  -26.0159  -38.2842   24.1340 H   0  0  0  0  0  0
  -27.0408  -24.7528   20.8315 H   0  0  0  0  0  0
  -33.7821  -18.8729   19.4055 H   0  0  0  0  0  0
  -33.5453  -18.7267   21.1620 H   0  0  0  0  0  0
  -34.4314  -20.1065   20.5066 H   0  0  0  0  0  0
  -30.3849  -21.9577   19.9956 H   0  0  0  0  0  0
  -28.8025  -15.6358   20.9125 H   0  0  0  0  0  0
  -30.1454  -25.0117   19.5733 H   0  0  0  0  0  0
  1 25  1  0  0  0
  1 30  2  0  0  0
  1 81  1  0  0  0
  2  3  1  0  0  0
  2 25  1  0  0  0
  2 86  1  0  0  0
  2 87  1  0  0  0
  3  4  1  0  0  0
  3 88  1  0  0  0
  3 89  1  0  0  0
  4  5  1  0  0  0
  4 90  1  0  0  0
  4 91  1  0  0  0
  5  6  1  0  0  0
  5 26  1  0  0  0
  5 92  1  0  0  0
  6 25  1  0  0  0
  6 93  1  0  0  0
  6 94  1  0  0  0
  7  8  2  0  0  0
  7 26  1  0  0  0
  7 29  1  0  0  0
  8  9  1  0  0  0
  8 22  1  0  0  0
  9 10  1  0  0  0
  9 27  2  0  0  0
 10 11  2  0  0  0
 10 15  1  0  0  0
 11 12  1  0  0  0
 11 95  1  0  0  0
 12 13  2  0  0  0
 12 96  1  0  0  0
 13 14  1  0  0  0
 13 31  1  0  0  0
 14 15  2  0  0  0
 14 97  1  0  0  0
 15 98  1  0  0  0
 16 17  2  0  0  0
 16 21  1  0  0  0
 16 31  1  0  0  0
 17 18  1  0  0  0
 17 99  1  0  0  0
 18 19  2  0  0  0
 18100  1  0  0  0
 19 20  1  0  0  0
 19 24  1  0  0  0
 20 21  2  0  0  0
 20101  1  0  0  0
 21 23  1  0  0  0
 22 28  1  0  0  0
 22 32  2  0  0  0
 26 27  1  0  0  0
 28102  1  0  0  0
 28103  1  0  0  0
 29104  1  0  0  0
 29105  1  0  0  0
 33 34  1  0  0  0
 33 66  1  0  0  0
 33 70  2  0  0  0
 34 36  1  0  0  0
 34 59  1  0  0  0
 34106  1  0  0  0
 35 44  2  0  0  0
 35 45  1  0  0  0
 35 68  1  0  0  0
 36 56  1  0  0  0
 36107  1  0  0  0
 37 39  1  0  0  0
 37 47  1  0  0  0
 37 66  1  0  0  0
 37108  1  0  0  0
 38 43  2  0  0  0
 38 46  1  0  0  0
 38 47  1  0  0  0
 39 64  1  0  0  0
 39 67  2  0  0  0
 40 52  1  0  0  0
 40 53  2  0  0  0
 40 58  1  0  0  0
 41109  1  0  0  0
 41110  1  0  0  0
 41111  1  0  0  0
 41 48  1  0  0  0
 42 43  1  0  0  0
 42 66  1  0  0  0
 42112  1  0  0  0
 42113  1  0  0  0
 43 44  1  0  0  0
 44114  1  0  0  0
 45 46  2  0  0  0
 45115  1  0  0  0
 46116  1  0  0  0
 47117  1  0  0  0
 47118  1  0  0  0
 48 56  1  0  0  0
 48 65  1  0  0  0
 48119  1  0  0  0
 49 50  1  0  0  0
 49 53  1  0  0  0
 49 64  1  0  0  0
 49120  1  0  0  0
 50 51  1  0  0  0
 50121  1  0  0  0
 50122  1  0  0  0
 51 52  1  0  0  0
 51123  1  0  0  0
 51124  1  0  0  0
 52125  1  0  0  0
 52126  1  0  0  0
 53 54  1  0  0  0
 54 55  2  0  0  0
 54127  1  0  0  0
 55 57  1  0  0  0
 55128  1  0  0  0
 56 69  2  0  0  0
 57 58  2  0  0  0
 57129  1  0  0  0
 58130  1  0  0  0
 59 60  1  0  0  0
 59 61  1  0  0  0
 59 62  1  0  0  0
 60131  1  0  0  0
 60132  1  0  0  0
 60133  1  0  0  0
 61134  1  0  0  0
 61135  1  0  0  0
 61136  1  0  0  0
 62137  1  0  0  0
 62138  1  0  0  0
 62139  1  0  0  0
 63 65  1  0  0  0
 63140  1  0  0  0
 63141  1  0  0  0
 63142  1  0  0  0
 64143  1  0  0  0
 65144  1  0  0  0
 68 74  1  0  0  0
 71 72  2  0  0  0
 71 75  1  0  0  0
 71 79  1  0  0  0
 72 80  1  0  0  0
 72 85  1  0  0  0
 73 79  2  0  0  0
 73 81  1  0  0  0
 73 85  1  0  0  0
 74 76  2  0  0  0
 74145  1  0  0  0
 75 78  1  0  0  0
 75 82  2  0  0  0
 76 77  1  0  0  0
 76 84  1  0  0  0
 77 80  1  0  0  0
 77 83  2  0  0  0
 78146  1  0  0  0
 78147  1  0  0  0
 78148  1  0  0  0
 80149  1  0  0  0
 81150  1  0  0  0
 84151  1  0  0  0
M  ISO  4   1 100  68 101  74 101  81 100
M  END
> <chiral flag>
0

> <version>
0

> <s_m_source_file>
/data/baiqing/PycharmProjects/Reinvent-master-3.2/result/LINK_invent/BTK/process_docking_weight1_custom_product_contain_oxygen_bond_distance_aromatic_linkinvent_7_9_3/rearranged_h_0180.sdf

> <i_m_source_file_index>
27

> <r_mmod_Potential_Energy-OPLS-2005>
100.443901062012

> <r_mmod_Stretch_Energy-OPLS-2005>
130.113174438477

> <r_mmod_Bend_Energy-OPLS-2005>
189.271636962891

> <r_mmod_Torsional_Energy-OPLS-2005>
192.589370727539

> <r_mmod_Improper_Torsional_Energy-OPLS-2005>
4.50094366073608

> <r_mmod_Van_der_Waal_Energy-OPLS-2005>
124.815673828125

> <r_mmod_Electrostatic_Energy-OPLS-2005>
-410.975158691406

> <r_mmod_Solvation_Energy-OPLS-2005>
-239.043548583984

> <b_mmod_Minimization_Converged-OPLS-2005>
0

> <r_mmod_RMS_Derivative-OPLS-2005>
2.43170189857483

$$$$
27
                    3D
 Structure written by MMmdl.
152160  0  0  1  0            999 V2000
  -30.6818  -14.5719   20.5040 C   0  0  0  0  0  0
  -30.4127  -12.3504   19.4474 C   0  0  0  0  0  0
  -29.5045  -12.5051   18.2105 C   0  0  0  0  0  0
  -28.0253  -12.3532   18.6187 C   0  0  0  0  0  0
  -27.6471  -13.2230   19.8484 C   0  0  2  0  0  0
  -28.6882  -13.0913   20.9816 C   0  0  0  0  0  0
  -25.2553  -13.8213   20.5654 C   0  0  0  0  0  0
  -24.1822  -13.0466   20.9191 C   0  0  0  0  0  0
  -24.6393  -11.6947   20.8727 C   0  0  0  0  0  0
  -23.9083  -10.4315   21.0394 C   0  0  0  0  0  0
  -24.3648   -9.4238   21.9172 C   0  0  0  0  0  0
  -23.6333   -8.2269   22.0754 C   0  0  0  0  0  0
  -22.4299   -8.0316   21.3573 C   0  0  0  0  0  0
  -21.9928   -9.0275   20.4660 C   0  0  0  0  0  0
  -22.7258  -10.2145   20.3049 C   0  0  0  0  0  0
  -21.6867   -6.0759   22.5300 C   0  0  0  0  0  0
  -21.4020   -6.5652   23.8239 C   0  0  0  0  0  0
  -21.3649   -5.6796   24.9200 C   0  0  0  0  0  0
  -21.6042   -4.3062   24.7229 C   0  0  0  0  0  0
  -21.8809   -3.8169   23.4337 C   0  0  0  0  0  0
  -21.9189   -4.6987   22.3399 C   0  0  0  0  0  0
  -22.7848  -13.5281   21.1860 C   0  0  0  0  0  0
  -22.1666   -4.2174   21.0973 F   0  0  0  0  0  0
  -21.5607   -3.4536   25.7731 F   0  0  0  0  0  0
  -30.0063  -13.3886   20.4109 N   0  0  0  0  0  0
  -26.2955  -12.9391   20.3217 N   0  0  0  0  0  0
  -25.9311  -11.6548   20.5698 N   0  0  0  0  0  0
  -22.0470  -12.8299   22.0402 N   0  0  0  0  0  0
  -25.4211  -15.1934   20.4025 N   0  0  0  0  0  0
  -31.8728  -14.6325   20.1807 O   0  0  0  0  0  0
  -21.6667   -6.8912   21.4276 O   0  0  0  0  0  0
  -22.3533  -14.5577   20.6702 O   0  0  0  0  0  0
  -24.6156  -31.8663   23.2069 C   0  0  0  0  0  0
  -25.9040  -32.4817   23.8396 C   0  0  1  0  0  0
  -27.2356  -27.3976   20.1188 C   0  0  0  0  0  0
  -25.5906  -33.8616   24.2332 N   0  0  0  0  0  0
  -23.4088  -30.4884   21.5448 C   0  0  2  0  0  0
  -24.8579  -28.9396   20.1224 C   0  0  0  0  0  0
  -22.7439  -29.4669   22.4962 C   0  0  0  0  0  0
  -18.0302  -28.1360   22.8514 C   0  0  0  0  0  0
  -24.1486  -36.7318   23.2643 C   0  0  0  0  0  0
  -25.9393  -30.8173   21.3661 C   0  0  0  0  0  0
  -26.0180  -29.4439   20.7258 C   0  0  0  0  0  0
  -27.2127  -28.6806   20.7204 C   0  0  0  0  0  0
  -26.0641  -26.9166   19.5030 C   0  0  0  0  0  0
  -24.8768  -27.6763   19.5051 C   0  0  0  0  0  0
  -23.6234  -29.8148   20.1630 C   0  0  0  0  0  0
  -25.4104  -36.3102   24.0355 C   0  0  1  0  0  0
  -20.5894  -28.3676   23.1304 C   0  0  2  0  0  0
  -20.6771  -26.9404   22.5406 C   0  0  0  0  0  0
  -19.5727  -26.6382   21.5218 C   0  0  0  0  0  0
  -18.1936  -26.7920   22.1653 C   0  0  0  0  0  0
  -19.1539  -28.8838   23.2913 C   0  0  0  0  0  0
  -18.9467  -30.1460   23.8901 C   0  0  0  0  0  0
  -17.6458  -30.6570   24.0574 C   0  0  0  0  0  0
  -25.9029  -34.9477   23.5140 C   0  0  0  0  0  0
  -16.5359  -29.9067   23.6319 C   0  0  0  0  0  0
  -16.7293  -28.6484   23.0343 C   0  0  0  0  0  0
  -26.4454  -31.6582   25.0724 C   0  0  0  0  0  0
  -25.3720  -31.3694   26.1477 C   0  0  0  0  0  0
  -27.0276  -30.3026   24.6071 C   0  0  0  0  0  0
  -27.6036  -32.4281   25.7478 C   0  0  0  0  0  0
  -27.5584  -37.1816   24.8471 C   0  0  0  0  0  0
  -21.4158  -29.3052   22.3717 N   0  0  0  0  0  0
  -26.4284  -37.3791   23.9429 N   0  0  0  0  0  0
  -24.6731  -31.0748   22.0977 N   0  0  0  0  0  0
  -23.4199  -28.8240   23.3038 O   0  0  0  0  0  0
  -28.3904  -26.6450   20.0235 O   0  0  0  0  0  0
  -26.5595  -34.8941   22.4698 O   0  0  0  0  0  0
  -23.5332  -32.1429   23.7433 O   0  0  0  0  0  0
  -29.4456  -18.1407   20.5641 C   0  0  0  0  0  0
  -28.3894  -18.1650   19.6822 C   0  0  0  0  0  0
  -28.8745  -20.4035   20.5680 C   0  0  0  0  0  0
  -30.3935  -16.9747   20.8210 C   0  0  0  0  0  0
  -28.0866  -24.1913   20.6297 C   0  0  0  0  0  0
  -29.0886  -22.9059   18.6852 C   0  0  0  0  0  0
  -28.6235  -25.6077   21.0070 C   0  0  0  0  0  0
  -29.1007  -23.0656   20.2173 C   0  0  2  0  0  0
  -29.6691  -19.4461   21.0867 N   0  0  0  0  0  0
  -28.9473  -21.7655   20.9242 N   0  0  0  0  0  0
  -29.9331  -15.6935   20.7156 N   0  0  0  0  0  0
  -31.5632  -17.2391   21.1381 O   0  0  0  0  0  0
  -26.8739  -23.9668   20.6911 O   0  0  0  0  0  0
  -27.9365  -17.0820   19.0015 F   0  0  0  0  0  0
  -27.6963  -19.7539   19.4273 S   0  0  0  0  0  0
  -31.4645  -12.4184   19.1656 H   0  0  0  0  0  0
  -30.2936  -11.3602   19.8873 H   0  0  0  0  0  0
  -29.7649  -11.7683   17.4502 H   0  0  0  0  0  0
  -29.6604  -13.4838   17.7543 H   0  0  0  0  0  0
  -27.8612  -11.3006   18.8490 H   0  0  0  0  0  0
  -27.3746  -12.5907   17.7751 H   0  0  0  0  0  0
  -27.6629  -14.2564   19.4988 H   0  0  0  0  0  0
  -28.6807  -12.0817   21.3953 H   0  0  0  0  0  0
  -28.4511  -13.7613   21.8097 H   0  0  0  0  0  0
  -25.2774   -9.5723   22.4756 H   0  0  0  0  0  0
  -24.0052   -7.4633   22.7444 H   0  0  0  0  0  0
  -21.0861   -8.8801   19.8950 H   0  0  0  0  0  0
  -22.3725  -10.9702   19.6154 H   0  0  0  0  0  0
  -21.2052   -7.6163   23.9776 H   0  0  0  0  0  0
  -21.1467   -6.0513   25.9111 H   0  0  0  0  0  0
  -22.0589   -2.7635   23.2829 H   0  0  0  0  0  0
  -22.4117  -12.0021   22.4873 H   0  0  0  0  0  0
  -21.1068  -13.1324   22.2522 H   0  0  0  0  0  0
  -24.6343  -15.8285   20.4910 H   0  0  0  0  0  0
  -26.2343  -15.6364   19.9937 H   0  0  0  0  0  0
  -26.7147  -32.5521   23.1186 H   0  0  0  0  0  0
  -25.0064  -33.9797   25.0488 H   0  0  0  0  0  0
  -22.7001  -31.3052   21.4001 H   0  0  0  0  0  0
  -23.3743  -35.9647   23.3276 H   0  0  0  0  0  0
  -24.3568  -36.8924   22.2049 H   0  0  0  0  0  0
  -23.7239  -37.6537   23.6644 H   0  0  0  0  0  0
  -26.0498  -31.5715   20.5855 H   0  0  0  0  0  0
  -26.8313  -30.8844   21.9786 H   0  0  0  0  0  0
  -28.1133  -29.0741   21.1728 H   0  0  0  0  0  0
  -26.0745  -25.9539   19.0105 H   0  0  0  0  0  0
  -23.9925  -27.2841   19.0201 H   0  0  0  0  0  0
  -23.7422  -30.5834   19.3982 H   0  0  0  0  0  0
  -22.7481  -29.2331   19.8670 H   0  0  0  0  0  0
  -25.1259  -36.1958   25.0847 H   0  0  0  0  0  0
  -21.0016  -28.3241   24.1402 H   0  0  0  0  0  0
  -20.5634  -26.2320   23.3628 H   0  0  0  0  0  0
  -21.6660  -26.7406   22.1215 H   0  0  0  0  0  0
  -19.6877  -25.6288   21.1255 H   0  0  0  0  0  0
  -19.6624  -27.3194   20.6752 H   0  0  0  0  0  0
  -17.4195  -26.6699   21.4060 H   0  0  0  0  0  0
  -18.0309  -26.0042   22.9020 H   0  0  0  0  0  0
  -19.7931  -30.7302   24.2244 H   0  0  0  0  0  0
  -17.4994  -31.6230   24.5189 H   0  0  0  0  0  0
  -15.5346  -30.2948   23.7629 H   0  0  0  0  0  0
  -15.8717  -28.0810   22.7008 H   0  0  0  0  0  0
  -24.5894  -30.7023   25.7841 H   0  0  0  0  0  0
  -24.8916  -32.2841   26.4944 H   0  0  0  0  0  0
  -25.8079  -30.8868   27.0226 H   0  0  0  0  0  0
  -26.2818  -29.6810   24.1095 H   0  0  0  0  0  0
  -27.4045  -29.7226   25.4506 H   0  0  0  0  0  0
  -27.8649  -30.4392   23.9226 H   0  0  0  0  0  0
  -27.2677  -33.3573   26.2092 H   0  0  0  0  0  0
  -28.3813  -32.6828   25.0270 H   0  0  0  0  0  0
  -28.0727  -31.8365   26.5341 H   0  0  0  0  0  0
  -28.2599  -38.0120   24.7510 H   0  0  0  0  0  0
  -28.1084  -36.2652   24.6267 H   0  0  0  0  0  0
  -27.2320  -37.1421   25.8882 H   0  0  0  0  0  0
  -20.9335  -29.8834   21.6983 H   0  0  0  0  0  0
  -26.0166  -38.2875   24.1384 H   0  0  0  0  0  0
  -28.0751  -22.7735   18.3025 H   0  0  0  0  0  0
  -29.6868  -22.0572   18.3527 H   0  0  0  0  0  0
  -29.4997  -23.7946   18.2027 H   0  0  0  0  0  0
  -29.7009  -25.5375   21.1634 H   0  0  0  0  0  0
  -28.1936  -25.9106   21.9614 H   0  0  0  0  0  0
  -30.0990  -23.4128   20.4913 H   0  0  0  0  0  0
  -29.3018  -21.8564   21.8726 H   0  0  0  0  0  0
  -28.9348  -15.5838   20.6779 H   0  0  0  0  0  0
  1 25  1  0  0  0
  1 30  2  0  0  0
  1 81  1  0  0  0
  2  3  1  0  0  0
  2 25  1  0  0  0
  2 86  1  0  0  0
  2 87  1  0  0  0
  3  4  1  0  0  0
  3 88  1  0  0  0
  3 89  1  0  0  0
  4  5  1  0  0  0
  4 90  1  0  0  0
  4 91  1  0  0  0
  5  6  1  0  0  0
  5 26  1  0  0  0
  5 92  1  0  0  0
  6 25  1  0  0  0
  6 93  1  0  0  0
  6 94  1  0  0  0
  7  8  2  0  0  0
  7 26  1  0  0  0
  7 29  1  0  0  0
  8  9  1  0  0  0
  8 22  1  0  0  0
  9 10  1  0  0  0
  9 27  2  0  0  0
 10 11  2  0  0  0
 10 15  1  0  0  0
 11 12  1  0  0  0
 11 95  1  0  0  0
 12 13  2  0  0  0
 12 96  1  0  0  0
 13 14  1  0  0  0
 13 31  1  0  0  0
 14 15  2  0  0  0
 14 97  1  0  0  0
 15 98  1  0  0  0
 16 17  2  0  0  0
 16 21  1  0  0  0
 16 31  1  0  0  0
 17 18  1  0  0  0
 17 99  1  0  0  0
 18 19  2  0  0  0
 18100  1  0  0  0
 19 20  1  0  0  0
 19 24  1  0  0  0
 20 21  2  0  0  0
 20101  1  0  0  0
 21 23  1  0  0  0
 22 28  1  0  0  0
 22 32  2  0  0  0
 26 27  1  0  0  0
 28102  1  0  0  0
 28103  1  0  0  0
 29104  1  0  0  0
 29105  1  0  0  0
 33 34  1  0  0  0
 33 66  1  0  0  0
 33 70  2  0  0  0
 34 36  1  0  0  0
 34 59  1  0  0  0
 34106  1  0  0  0
 35 44  2  0  0  0
 35 45  1  0  0  0
 35 68  1  0  0  0
 36 56  1  0  0  0
 36107  1  0  0  0
 37 39  1  0  0  0
 37 47  1  0  0  0
 37 66  1  0  0  0
 37108  1  0  0  0
 38 43  2  0  0  0
 38 46  1  0  0  0
 38 47  1  0  0  0
 39 64  1  0  0  0
 39 67  2  0  0  0
 40 52  1  0  0  0
 40 53  2  0  0  0
 40 58  1  0  0  0
 41109  1  0  0  0
 41110  1  0  0  0
 41111  1  0  0  0
 41 48  1  0  0  0
 42 43  1  0  0  0
 42 66  1  0  0  0
 42112  1  0  0  0
 42113  1  0  0  0
 43 44  1  0  0  0
 44114  1  0  0  0
 45 46  2  0  0  0
 45115  1  0  0  0
 46116  1  0  0  0
 47117  1  0  0  0
 47118  1  0  0  0
 48 56  1  0  0  0
 48 65  1  0  0  0
 48119  1  0  0  0
 49 50  1  0  0  0
 49 53  1  0  0  0
 49 64  1  0  0  0
 49120  1  0  0  0
 50 51  1  0  0  0
 50121  1  0  0  0
 50122  1  0  0  0
 51 52  1  0  0  0
 51123  1  0  0  0
 51124  1  0  0  0
 52125  1  0  0  0
 52126  1  0  0  0
 53 54  1  0  0  0
 54 55  2  0  0  0
 54127  1  0  0  0
 55 57  1  0  0  0
 55128  1  0  0  0
 56 69  2  0  0  0
 57 58  2  0  0  0
 57129  1  0  0  0
 58130  1  0  0  0
 59 60  1  0  0  0
 59 61  1  0  0  0
 59 62  1  0  0  0
 60131  1  0  0  0
 60132  1  0  0  0
 60133  1  0  0  0
 61134  1  0  0  0
 61135  1  0  0  0
 61136  1  0  0  0
 62137  1  0  0  0
 62138  1  0  0  0
 62139  1  0  0  0
 63 65  1  0  0  0
 63140  1  0  0  0
 63141  1  0  0  0
 63142  1  0  0  0
 64143  1  0  0  0
 65144  1  0  0  0
 68 77  1  0  0  0
 71 72  2  0  0  0
 71 74  1  0  0  0
 71 79  1  0  0  0
 72 84  1  0  0  0
 72 85  1  0  0  0
 73 79  2  0  0  0
 73 80  1  0  0  0
 73 85  1  0  0  0
 74 81  1  0  0  0
 74 82  2  0  0  0
 75 77  1  0  0  0
 75 78  1  0  0  0
 75 83  2  0  0  0
 76145  1  0  0  0
 76146  1  0  0  0
 76147  1  0  0  0
 76 78  1  0  0  0
 77148  1  0  0  0
 77149  1  0  0  0
 78 80  1  0  0  0
 78150  1  0  0  0
 80151  1  0  0  0
 81152  1  0  0  0
M  ISO  4   1 100  68 101  77 101  81 100
M  END
> <chiral flag>
0

> <version>
0

> <s_m_source_file>
/data/baiqing/PycharmProjects/Reinvent-master-3.2/result/LINK_invent/BTK/process_docking_weight1_custom_product_contain_oxygen_bond_distance_aromatic_linkinvent_7_9_3/rearranged_h_0180.sdf

> <i_m_source_file_index>
28

> <r_mmod_Potential_Energy-OPLS-2005>
-69.8069229125977

> <r_mmod_Stretch_Energy-OPLS-2005>
50.4656410217285

> <r_mmod_Bend_Energy-OPLS-2005>
117.637771606445

> <r_mmod_Torsional_Energy-OPLS-2005>
278.356109619141

> <r_mmod_Improper_Torsional_Energy-OPLS-2005>
9.0395975112915

> <r_mmod_Van_der_Waal_Energy-OPLS-2005>
117.494613647461

> <r_mmod_Electrostatic_Energy-OPLS-2005>
-423.548919677734

> <r_mmod_Solvation_Energy-OPLS-2005>
-246.77766418457

> <b_mmod_Minimization_Converged-OPLS-2005>
0

> <r_mmod_RMS_Derivative-OPLS-2005>
4.14056396484375

$$$$
28
                    3D
 Structure written by MMmdl.
154162  0  0  1  0            999 V2000
  -30.5991  -14.8242   20.4283 C   0  0  0  0  0  0
  -30.4320  -12.5000   19.5010 C   0  0  0  0  0  0
  -29.5188  -12.5165   18.2540 C   0  0  0  0  0  0
  -28.0464  -12.3275   18.6628 C   0  0  0  0  0  0
  -27.6378  -13.2423   19.8481 C   0  0  2  0  0  0
  -28.6781  -13.2229   20.9905 C   0  0  0  0  0  0
  -25.2487  -13.8217   20.5711 C   0  0  0  0  0  0
  -24.1789  -13.0449   20.9210 C   0  0  0  0  0  0
  -24.6392  -11.6928   20.8736 C   0  0  0  0  0  0
  -23.9071  -10.4299   21.0399 C   0  0  0  0  0  0
  -24.3619   -9.4212   21.9174 C   0  0  0  0  0  0
  -23.6292   -8.2248   22.0745 C   0  0  0  0  0  0
  -22.4272   -8.0287   21.3540 C   0  0  0  0  0  0
  -21.9907   -9.0263   20.4644 C   0  0  0  0  0  0
  -22.7238  -10.2138   20.3054 C   0  0  0  0  0  0
  -21.6860   -6.0731   22.5278 C   0  0  0  0  0  0
  -21.4021   -6.5629   23.8211 C   0  0  0  0  0  0
  -21.3661   -5.6781   24.9174 C   0  0  0  0  0  0
  -21.6044   -4.3046   24.7226 C   0  0  0  0  0  0
  -21.8819   -3.8138   23.4348 C   0  0  0  0  0  0
  -21.9195   -4.6956   22.3404 C   0  0  0  0  0  0
  -22.7812  -13.5230   21.1872 C   0  0  0  0  0  0
  -22.1666   -4.2138   21.0982 F   0  0  0  0  0  0
  -21.5624   -3.4530   25.7741 F   0  0  0  0  0  0
  -29.9767  -13.5859   20.4102 N   0  0  0  0  0  0
  -26.2918  -12.9442   20.3271 N   0  0  0  0  0  0
  -25.9324  -11.6572   20.5735 N   0  0  0  0  0  0
  -22.0459  -12.8224   22.0435 N   0  0  0  0  0  0
  -25.4159  -15.1949   20.4143 N   0  0  0  0  0  0
  -31.7920  -14.8728   20.1110 O   0  0  0  0  0  0
  -21.6644   -6.8876   21.4240 O   0  0  0  0  0  0
  -22.3493  -14.5533   20.6717 O   0  0  0  0  0  0
  -24.6365  -31.8513   23.1976 C   0  0  0  0  0  0
  -25.9171  -32.4730   23.8330 C   0  0  1  0  0  0
  -27.2083  -27.1945   20.1337 C   0  0  0  0  0  0
  -25.5948  -33.8536   24.2238 N   0  0  0  0  0  0
  -23.4361  -30.4753   21.5423 C   0  0  2  0  0  0
  -24.8833  -28.9205   20.1080 C   0  0  0  0  0  0
  -22.7533  -29.4575   22.4891 C   0  0  0  0  0  0
  -18.0300  -28.1393   22.8481 C   0  0  0  0  0  0
  -24.1494  -36.7275   23.2630 C   0  0  0  0  0  0
  -25.9896  -30.7390   21.3944 C   0  0  0  0  0  0
  -26.0563  -29.3572   20.7348 C   0  0  0  0  0  0
  -27.2165  -28.5047   20.7441 C   0  0  0  0  0  0
  -26.0164  -26.8647   19.4439 C   0  0  0  0  0  0
  -24.8734  -27.6851   19.4490 C   0  0  0  0  0  0
  -23.6585  -29.8158   20.1568 C   0  0  0  0  0  0
  -25.4114  -36.3052   24.0320 C   0  0  1  0  0  0
  -20.5906  -28.3710   23.1255 C   0  0  2  0  0  0
  -20.6787  -26.9419   22.5410 C   0  0  0  0  0  0
  -19.5759  -26.6377   21.5219 C   0  0  0  0  0  0
  -18.1940  -26.7931   22.1630 C   0  0  0  0  0  0
  -19.1553  -28.8870   23.2863 C   0  0  0  0  0  0
  -18.9470  -30.1468   23.8884 C   0  0  0  0  0  0
  -17.6466  -30.6587   24.0560 C   0  0  0  0  0  0
  -25.9070  -34.9427   23.5085 C   0  0  0  0  0  0
  -16.5359  -29.9081   23.6330 C   0  0  0  0  0  0
  -16.7285  -28.6501   23.0349 C   0  0  0  0  0  0
  -26.4509  -31.6579   25.0749 C   0  0  0  0  0  0
  -25.3705  -31.3767   26.1454 C   0  0  0  0  0  0
  -27.0357  -30.2970   24.6313 C   0  0  0  0  0  0
  -27.6058  -32.4333   25.7516 C   0  0  0  0  0  0
  -27.5598  -37.1759   24.8433 C   0  0  0  0  0  0
  -21.4233  -29.3044   22.3632 N   0  0  0  0  0  0
  -26.4272  -37.3771   23.9436 N   0  0  0  0  0  0
  -24.7064  -31.0416   22.0995 N   0  0  0  0  0  0
  -23.4210  -28.8107   23.3004 O   0  0  0  0  0  0
  -28.2793  -26.2458   20.2081 O   0  0  0  0  0  0
  -26.5647  -34.8909   22.4661 O   0  0  0  0  0  0
  -23.5501  -32.1374   23.7226 O   0  0  0  0  0  0
  -30.5842  -17.4231   18.7743 C   0  0  0  0  0  0
  -30.3392  -19.8546   18.6383 C   0  0  0  0  0  0
  -30.7483  -18.6275   18.0819 C   0  0  0  0  0  0
  -30.0096  -17.3845   20.0547 C   0  0  0  0  0  0
  -29.7011  -19.8786   19.9151 C   0  0  0  0  0  0
  -28.0827  -24.8150   20.0519 C   0  0  0  0  0  0
  -30.6258  -21.0588   17.8113 C   0  0  0  0  0  0
  -28.8919  -23.7282   20.4078 C   0  0  0  0  0  0
  -28.5529  -22.2704   20.0779 C   0  0  0  0  0  0
  -32.0883  -21.4720   17.7010 C   0  0  0  0  0  0
  -29.5733  -18.6273   20.5797 N   0  0  0  0  0  0
  -29.4155  -21.2469   20.4906 N   0  0  0  0  0  0
  -29.8585  -16.0026   20.6418 N   0  0  0  0  0  0
  -29.7631  -21.7180   17.2258 O   0  0  0  0  0  0
  -27.5242  -21.9717   19.4665 O   0  0  0  0  0  0
  -30.0448  -23.9669   21.0479 O   0  0  0  0  0  0
  -31.3250  -18.5855   16.8540 F   0  0  0  0  0  0
  -31.4735  -12.6195   19.1978 H   0  0  0  0  0  0
  -30.3822  -11.5342   20.0060 H   0  0  0  0  0  0
  -29.8160  -11.7336   17.5544 H   0  0  0  0  0  0
  -29.6349  -13.4625   17.7231 H   0  0  0  0  0  0
  -27.9148  -11.2811   18.9407 H   0  0  0  0  0  0
  -27.3928  -12.4997   17.8070 H   0  0  0  0  0  0
  -27.6186  -14.2552   19.4460 H   0  0  0  0  0  0
  -28.7242  -12.2388   21.4584 H   0  0  0  0  0  0
  -28.3968  -13.9228   21.7784 H   0  0  0  0  0  0
  -25.2758   -9.5690   22.4753 H   0  0  0  0  0  0
  -24.0002   -7.4637   22.7460 H   0  0  0  0  0  0
  -21.0832   -8.8787   19.8955 H   0  0  0  0  0  0
  -22.3689  -10.9680   19.6169 H   0  0  0  0  0  0
  -21.2016   -7.6136   23.9717 H   0  0  0  0  0  0
  -21.1484   -6.0509   25.9075 H   0  0  0  0  0  0
  -22.0596   -2.7600   23.2859 H   0  0  0  0  0  0
  -22.4077  -11.9901   22.4846 H   0  0  0  0  0  0
  -21.1082  -13.1258   22.2639 H   0  0  0  0  0  0
  -24.6447  -15.8444   20.5241 H   0  0  0  0  0  0
  -26.2582  -15.6384   20.0709 H   0  0  0  0  0  0
  -26.7233  -32.5352   23.1060 H   0  0  0  0  0  0
  -25.0061  -33.9665   25.0358 H   0  0  0  0  0  0
  -22.7350  -31.2999   21.3969 H   0  0  0  0  0  0
  -23.3776  -35.9582   23.3216 H   0  0  0  0  0  0
  -24.3608  -36.8981   22.2062 H   0  0  0  0  0  0
  -23.7213  -37.6435   23.6713 H   0  0  0  0  0  0
  -26.1437  -31.4966   20.6249 H   0  0  0  0  0  0
  -26.8616  -30.7833   22.0352 H   0  0  0  0  0  0
  -28.1084  -28.8291   21.2614 H   0  0  0  0  0  0
  -25.9138  -25.9488   18.8867 H   0  0  0  0  0  0
  -23.9837  -27.3564   18.9295 H   0  0  0  0  0  0
  -23.7896  -30.5960   19.4061 H   0  0  0  0  0  0
  -22.7738  -29.2571   19.8464 H   0  0  0  0  0  0
  -25.1284  -36.1877   25.0806 H   0  0  0  0  0  0
  -21.0001  -28.3299   24.1375 H   0  0  0  0  0  0
  -20.5686  -26.2322   23.3623 H   0  0  0  0  0  0
  -21.6654  -26.7432   22.1205 H   0  0  0  0  0  0
  -19.6919  -25.6283   21.1258 H   0  0  0  0  0  0
  -19.6692  -27.3179   20.6741 H   0  0  0  0  0  0
  -17.4206  -26.6673   21.4037 H   0  0  0  0  0  0
  -18.0339  -26.0081   22.9034 H   0  0  0  0  0  0
  -19.7942  -30.7293   24.2248 H   0  0  0  0  0  0
  -17.5013  -31.6264   24.5166 H   0  0  0  0  0  0
  -15.5358  -30.2977   23.7653 H   0  0  0  0  0  0
  -15.8687  -28.0812   22.7073 H   0  0  0  0  0  0
  -24.5878  -30.7119   25.7779 H   0  0  0  0  0  0
  -24.8899  -32.2953   26.4833 H   0  0  0  0  0  0
  -25.7989  -30.8967   27.0261 H   0  0  0  0  0  0
  -26.2966  -29.6711   24.1299 H   0  0  0  0  0  0
  -27.3937  -29.7251   25.4884 H   0  0  0  0  0  0
  -27.8896  -30.4193   23.9646 H   0  0  0  0  0  0
  -27.2658  -33.3628   26.2094 H   0  0  0  0  0  0
  -28.3862  -32.6904   25.0341 H   0  0  0  0  0  0
  -28.0744  -31.8468   26.5430 H   0  0  0  0  0  0
  -28.2504  -38.0164   24.7636 H   0  0  0  0  0  0
  -28.1206  -36.2707   24.6050 H   0  0  0  0  0  0
  -27.2350  -37.1146   25.8834 H   0  0  0  0  0  0
  -20.9430  -29.8770   21.6829 H   0  0  0  0  0  0
  -26.0135  -38.2816   24.1541 H   0  0  0  0  0  0
  -30.9133  -16.5214   18.2795 H   0  0  0  0  0  0
  -27.1594  -24.5782   19.5550 H   0  0  0  0  0  0
  -32.6752  -21.0487   18.5160 H   0  0  0  0  0  0
  -32.1780  -22.5572   17.7412 H   0  0  0  0  0  0
  -32.5053  -21.1269   16.7552 H   0  0  0  0  0  0
  -30.1185  -21.5815   21.1348 H   0  0  0  0  0  0
  -28.9915  -15.8584   21.1347 H   0  0  0  0  0  0
  -30.1081  -24.9075   21.1599 H   0  0  0  0  0  0
  1 25  1  0  0  0
  1 30  2  0  0  0
  1 83  1  0  0  0
  2  3  1  0  0  0
  2 25  1  0  0  0
  2 88  1  0  0  0
  2 89  1  0  0  0
  3  4  1  0  0  0
  3 90  1  0  0  0
  3 91  1  0  0  0
  4  5  1  0  0  0
  4 92  1  0  0  0
  4 93  1  0  0  0
  5  6  1  0  0  0
  5 26  1  0  0  0
  5 94  1  0  0  0
  6 25  1  0  0  0
  6 95  1  0  0  0
  6 96  1  0  0  0
  7  8  2  0  0  0
  7 26  1  0  0  0
  7 29  1  0  0  0
  8  9  1  0  0  0
  8 22  1  0  0  0
  9 10  1  0  0  0
  9 27  2  0  0  0
 10 11  2  0  0  0
 10 15  1  0  0  0
 11 12  1  0  0  0
 11 97  1  0  0  0
 12 13  2  0  0  0
 12 98  1  0  0  0
 13 14  1  0  0  0
 13 31  1  0  0  0
 14 15  2  0  0  0
 14 99  1  0  0  0
 15100  1  0  0  0
 16 17  2  0  0  0
 16 21  1  0  0  0
 16 31  1  0  0  0
 17 18  1  0  0  0
 17101  1  0  0  0
 18 19  2  0  0  0
 18102  1  0  0  0
 19 20  1  0  0  0
 19 24  1  0  0  0
 20 21  2  0  0  0
 20103  1  0  0  0
 21 23  1  0  0  0
 22 28  1  0  0  0
 22 32  2  0  0  0
 26 27  1  0  0  0
 28104  1  0  0  0
 28105  1  0  0  0
 29106  1  0  0  0
 29107  1  0  0  0
 33 34  1  0  0  0
 33 66  1  0  0  0
 33 70  2  0  0  0
 34 36  1  0  0  0
 34 59  1  0  0  0
 34108  1  0  0  0
 35 44  2  0  0  0
 35 45  1  0  0  0
 35 68  1  0  0  0
 36 56  1  0  0  0
 36109  1  0  0  0
 37 39  1  0  0  0
 37 47  1  0  0  0
 37 66  1  0  0  0
 37110  1  0  0  0
 38 43  2  0  0  0
 38 46  1  0  0  0
 38 47  1  0  0  0
 39 64  1  0  0  0
 39 67  2  0  0  0
 40 52  1  0  0  0
 40 53  2  0  0  0
 40 58  1  0  0  0
 41111  1  0  0  0
 41112  1  0  0  0
 41113  1  0  0  0
 41 48  1  0  0  0
 42 43  1  0  0  0
 42 66  1  0  0  0
 42114  1  0  0  0
 42115  1  0  0  0
 43 44  1  0  0  0
 44116  1  0  0  0
 45 46  2  0  0  0
 45117  1  0  0  0
 46118  1  0  0  0
 47119  1  0  0  0
 47120  1  0  0  0
 48 56  1  0  0  0
 48 65  1  0  0  0
 48121  1  0  0  0
 49 50  1  0  0  0
 49 53  1  0  0  0
 49 64  1  0  0  0
 49122  1  0  0  0
 50 51  1  0  0  0
 50123  1  0  0  0
 50124  1  0  0  0
 51 52  1  0  0  0
 51125  1  0  0  0
 51126  1  0  0  0
 52127  1  0  0  0
 52128  1  0  0  0
 53 54  1  0  0  0
 54 55  2  0  0  0
 54129  1  0  0  0
 55 57  1  0  0  0
 55130  1  0  0  0
 56 69  2  0  0  0
 57 58  2  0  0  0
 57131  1  0  0  0
 58132  1  0  0  0
 59 60  1  0  0  0
 59 61  1  0  0  0
 59 62  1  0  0  0
 60133  1  0  0  0
 60134  1  0  0  0
 60135  1  0  0  0
 61136  1  0  0  0
 61137  1  0  0  0
 61138  1  0  0  0
 62139  1  0  0  0
 62140  1  0  0  0
 62141  1  0  0  0
 63 65  1  0  0  0
 63142  1  0  0  0
 63143  1  0  0  0
 63144  1  0  0  0
 64145  1  0  0  0
 65146  1  0  0  0
 68 76  1  0  0  0
 71 73  2  0  0  0
 71 74  1  0  0  0
 71147  1  0  0  0
 72 73  1  0  0  0
 72 75  2  0  0  0
 72 77  1  0  0  0
 73 87  1  0  0  0
 74 81  2  0  0  0
 74 83  1  0  0  0
 75 81  1  0  0  0
 75 82  1  0  0  0
 76 78  2  0  0  0
 76148  1  0  0  0
 77 80  1  0  0  0
 77 84  2  0  0  0
 78 79  1  0  0  0
 78 86  1  0  0  0
 79 82  1  0  0  0
 79 85  2  0  0  0
 80149  1  0  0  0
 80150  1  0  0  0
 80151  1  0  0  0
 82152  1  0  0  0
 83153  1  0  0  0
 86154  1  0  0  0
M  ISO  4   1 100  68 101  76 101  83 100
M  END
> <chiral flag>
0

> <version>
0

> <s_m_source_file>
/data/baiqing/PycharmProjects/Reinvent-master-3.2/result/LINK_invent/BTK/process_docking_weight1_custom_product_contain_oxygen_bond_distance_aromatic_linkinvent_7_9_3/rearranged_h_0180.sdf

> <i_m_source_file_index>
29

> <r_mmod_Potential_Energy-OPLS-2005>
133.339660644531

> <r_mmod_Stretch_Energy-OPLS-2005>
173.072937011719

> <r_mmod_Bend_Energy-OPLS-2005>
182.706283569336

> <r_mmod_Torsional_Energy-OPLS-2005>
307.589660644531

> <r_mmod_Improper_Torsional_Energy-OPLS-2005>
5.8338189125061

> <r_mmod_Van_der_Waal_Energy-OPLS-2005>
151.391204833984

> <r_mmod_Electrostatic_Energy-OPLS-2005>
-568.187255859375

> <r_mmod_Solvation_Energy-OPLS-2005>
-247.165100097656

> <b_mmod_Minimization_Converged-OPLS-2005>
0

> <r_mmod_RMS_Derivative-OPLS-2005>
1.02040660381317

$$$$
29
                    3D
 Structure written by MMmdl.
155163  0  0  1  0            999 V2000
  -30.6683  -14.5577   20.5106 C   0  0  0  0  0  0
  -30.4201  -12.3417   19.4551 C   0  0  0  0  0  0
  -29.5039  -12.5117   18.2243 C   0  0  0  0  0  0
  -28.0256  -12.3592   18.6292 C   0  0  0  0  0  0
  -27.6547  -13.2179   19.8677 C   0  0  2  0  0  0
  -28.6926  -13.0565   21.0032 C   0  0  0  0  0  0
  -25.2554  -13.8184   20.5673 C   0  0  0  0  0  0
  -24.1822  -13.0446   20.9167 C   0  0  0  0  0  0
  -24.6394  -11.6919   20.8719 C   0  0  0  0  0  0
  -23.9073  -10.4295   21.0399 C   0  0  0  0  0  0
  -24.3623   -9.4203   21.9165 C   0  0  0  0  0  0
  -23.6290   -8.2245   22.0748 C   0  0  0  0  0  0
  -22.4263   -8.0286   21.3554 C   0  0  0  0  0  0
  -21.9908   -9.0257   20.4649 C   0  0  0  0  0  0
  -22.7249  -10.2131   20.3048 C   0  0  0  0  0  0
  -21.6842   -6.0736   22.5282 C   0  0  0  0  0  0
  -21.4019   -6.5638   23.8216 C   0  0  0  0  0  0
  -21.3665   -5.6787   24.9177 C   0  0  0  0  0  0
  -21.6047   -4.3051   24.7224 C   0  0  0  0  0  0
  -21.8815   -3.8146   23.4343 C   0  0  0  0  0  0
  -21.9193   -4.6968   22.3401 C   0  0  0  0  0  0
  -22.7844  -13.5241   21.1840 C   0  0  0  0  0  0
  -22.1653   -4.2159   21.0973 F   0  0  0  0  0  0
  -21.5627   -3.4533   25.7732 F   0  0  0  0  0  0
  -30.0215  -13.3573   20.4500 N   0  0  0  0  0  0
  -26.2985  -12.9371   20.3310 N   0  0  0  0  0  0
  -25.9321  -11.6526   20.5733 N   0  0  0  0  0  0
  -22.0484  -12.8237   22.0400 N   0  0  0  0  0  0
  -25.4289  -15.1905   20.4102 N   0  0  0  0  0  0
  -31.8221  -14.6928   20.0897 O   0  0  0  0  0  0
  -21.6635   -6.8880   21.4243 O   0  0  0  0  0  0
  -22.3527  -14.5543   20.6682 O   0  0  0  0  0  0
  -24.6179  -31.8644   23.2069 C   0  0  0  0  0  0
  -25.9052  -32.4808   23.8378 C   0  0  1  0  0  0
  -27.2357  -27.3805   20.0984 C   0  0  0  0  0  0
  -25.5887  -33.8607   24.2310 N   0  0  0  0  0  0
  -23.4093  -30.4858   21.5492 C   0  0  2  0  0  0
  -24.8575  -28.9468   20.1098 C   0  0  0  0  0  0
  -22.7436  -29.4630   22.4982 C   0  0  0  0  0  0
  -18.0274  -28.1394   22.8498 C   0  0  0  0  0  0
  -24.1475  -36.7298   23.2643 C   0  0  0  0  0  0
  -25.9435  -30.8103   21.3713 C   0  0  0  0  0  0
  -26.0181  -29.4409   20.7158 C   0  0  0  0  0  0
  -27.2035  -28.6620   20.7132 C   0  0  0  0  0  0
  -26.0529  -26.9159   19.4824 C   0  0  0  0  0  0
  -24.8727  -27.6851   19.4914 C   0  0  0  0  0  0
  -23.6202  -29.8182   20.1628 C   0  0  0  0  0  0
  -25.4103  -36.3103   24.0338 C   0  0  1  0  0  0
  -20.5870  -28.3671   23.1328 C   0  0  2  0  0  0
  -20.6768  -26.9404   22.5435 C   0  0  0  0  0  0
  -19.5745  -26.6392   21.5234 C   0  0  0  0  0  0
  -18.1920  -26.7939   22.1639 C   0  0  0  0  0  0
  -19.1530  -28.8848   23.2908 C   0  0  0  0  0  0
  -18.9453  -30.1455   23.8920 C   0  0  0  0  0  0
  -17.6457  -30.6590   24.0573 C   0  0  0  0  0  0
  -25.9039  -34.9469   23.5129 C   0  0  0  0  0  0
  -16.5343  -29.9102   23.6329 C   0  0  0  0  0  0
  -16.7266  -28.6519   23.0348 C   0  0  0  0  0  0
  -26.4466  -31.6611   25.0725 C   0  0  0  0  0  0
  -25.3713  -31.3739   26.1469 C   0  0  0  0  0  0
  -27.0311  -30.3047   24.6146 C   0  0  0  0  0  0
  -27.6043  -32.4343   25.7476 C   0  0  0  0  0  0
  -27.5578  -37.1799   24.8467 C   0  0  0  0  0  0
  -21.4158  -29.3023   22.3723 N   0  0  0  0  0  0
  -26.4289  -37.3790   23.9414 N   0  0  0  0  0  0
  -24.6754  -31.0695   22.0996 N   0  0  0  0  0  0
  -23.4188  -28.8182   23.3050 O   0  0  0  0  0  0
  -28.3918  -26.6107   20.1630 O   0  0  0  0  0  0
  -26.5623  -34.8927   22.4706 O   0  0  0  0  0  0
  -23.5362  -32.1431   23.7422 O   0  0  0  0  0  0
  -30.0820  -18.8404   18.6836 C   0  0  0  0  0  0
  -29.7373  -19.2061   19.9735 C   0  0  0  0  0  0
  -29.9672  -16.9216   20.2593 C   0  0  0  0  0  0
  -30.3214  -19.6217   17.4774 C   0  0  0  0  0  0
  -28.9737  -22.9760   20.1057 C   0  0  0  0  0  0
  -28.5757  -21.4282   20.1022 C   0  0  0  0  0  0
  -27.4003  -23.5907   18.1523 C   0  0  0  0  0  0
  -28.6275  -25.5071   19.2480 C   0  0  0  0  0  0
  -28.0037  -24.0670   19.4992 C   0  0  2  0  0  0
  -29.6682  -18.0979   20.8663 N   0  0  0  0  0  0
  -30.7947  -20.7950   17.4249 N   0  0  0  0  0  0
  -29.6139  -20.5907   20.3582 N   0  0  0  0  0  0
  -29.9477  -15.6383   20.9144 N   0  0  0  0  0  0
  -30.0573  -23.3189   20.5930 O   0  0  0  0  0  0
  -27.4196  -21.0297   19.9231 O   0  0  0  0  0  0
  -30.2918  -17.1123   18.5375 S   0  0  0  0  0  0
  -31.4675  -12.4292   19.1606 H   0  0  0  0  0  0
  -30.3131  -11.3410   19.8771 H   0  0  0  0  0  0
  -29.7590  -11.7813   17.4556 H   0  0  0  0  0  0
  -29.6665  -13.4940   17.7763 H   0  0  0  0  0  0
  -27.8492  -11.3039   18.8421 H   0  0  0  0  0  0
  -27.3797  -12.6103   17.7869 H   0  0  0  0  0  0
  -27.6821  -14.2571   19.5383 H   0  0  0  0  0  0
  -28.6770  -12.0392   21.3971 H   0  0  0  0  0  0
  -28.4487  -13.7061   21.8447 H   0  0  0  0  0  0
  -25.2782   -9.5654   22.4723 H   0  0  0  0  0  0
  -24.0004   -7.4624   22.7448 H   0  0  0  0  0  0
  -21.0841   -8.8774   19.8940 H   0  0  0  0  0  0
  -22.3723  -10.9657   19.6137 H   0  0  0  0  0  0
  -21.2015   -7.6147   23.9724 H   0  0  0  0  0  0
  -21.1490   -6.0516   25.9079 H   0  0  0  0  0  0
  -22.0594   -2.7611   23.2835 H   0  0  0  0  0  0
  -22.4116  -11.9934   22.4836 H   0  0  0  0  0  0
  -21.1094  -13.1247   22.2598 H   0  0  0  0  0  0
  -24.6640  -15.8473   20.5205 H   0  0  0  0  0  0
  -26.2842  -15.6292   20.0924 H   0  0  0  0  0  0
  -26.7110  -32.5503   23.1133 H   0  0  0  0  0  0
  -24.9987  -33.9766   25.0419 H   0  0  0  0  0  0
  -22.6990  -31.3026   21.4098 H   0  0  0  0  0  0
  -23.3744  -35.9623   23.3315 H   0  0  0  0  0  0
  -24.3556  -36.8911   22.2053 H   0  0  0  0  0  0
  -23.7220  -37.6500   23.6659 H   0  0  0  0  0  0
  -26.0647  -31.5743   20.6018 H   0  0  0  0  0  0
  -26.8270  -30.8629   21.9954 H   0  0  0  0  0  0
  -28.0956  -29.0371   21.1949 H   0  0  0  0  0  0
  -26.0132  -25.9457   19.0159 H   0  0  0  0  0  0
  -23.9789  -27.2974   19.0236 H   0  0  0  0  0  0
  -23.7295  -30.5958   19.4062 H   0  0  0  0  0  0
  -22.7420  -29.2411   19.8667 H   0  0  0  0  0  0
  -25.1276  -36.1969   25.0830 H   0  0  0  0  0  0
  -20.9956  -28.3239   24.1457 H   0  0  0  0  0  0
  -20.5692  -26.2268   23.3620 H   0  0  0  0  0  0
  -21.6633  -26.7456   22.1213 H   0  0  0  0  0  0
  -19.6900  -25.6311   21.1248 H   0  0  0  0  0  0
  -19.6689  -27.3218   20.6776 H   0  0  0  0  0  0
  -17.4192  -26.6694   21.4038 H   0  0  0  0  0  0
  -18.0304  -26.0086   22.9036 H   0  0  0  0  0  0
  -19.7925  -30.7269   24.2301 H   0  0  0  0  0  0
  -17.5007  -31.6276   24.5167 H   0  0  0  0  0  0
  -15.5345  -30.3011   23.7639 H   0  0  0  0  0  0
  -15.8662  -28.0845   22.7054 H   0  0  0  0  0  0
  -24.5859  -30.7130   25.7790 H   0  0  0  0  0  0
  -24.8938  -32.2910   26.4931 H   0  0  0  0  0  0
  -25.8035  -30.8875   27.0223 H   0  0  0  0  0  0
  -26.2878  -29.6804   24.1175 H   0  0  0  0  0  0
  -27.4042  -29.7294   25.4631 H   0  0  0  0  0  0
  -27.8728  -30.4360   23.9341 H   0  0  0  0  0  0
  -27.2664  -33.3635   26.2079 H   0  0  0  0  0  0
  -28.3822  -32.6925   25.0276 H   0  0  0  0  0  0
  -28.0751  -31.8460   26.5367 H   0  0  0  0  0  0
  -28.2607  -38.0083   24.7513 H   0  0  0  0  0  0
  -28.1062  -36.2624   24.6293 H   0  0  0  0  0  0
  -27.2300  -37.1446   25.8870 H   0  0  0  0  0  0
  -20.9329  -29.8716   21.6914 H   0  0  0  0  0  0
  -26.0181  -38.2868   24.1424 H   0  0  0  0  0  0
  -30.0546  -19.1218   16.5423 H   0  0  0  0  0  0
  -26.7337  -22.7389   18.2679 H   0  0  0  0  0  0
  -28.1810  -23.3174   17.4406 H   0  0  0  0  0  0
  -26.7988  -24.3658   17.6790 H   0  0  0  0  0  0
  -28.3648  -25.8691   18.2532 H   0  0  0  0  0  0
  -29.7122  -25.4141   19.1869 H   0  0  0  0  0  0
  -27.1828  -24.1769   20.2070 H   0  0  0  0  0  0
  -31.0434  -21.1583   18.3366 H   0  0  0  0  0  0
  -30.4720  -21.0710   20.5958 H   0  0  0  0  0  0
  -29.1412  -15.4513   21.4886 H   0  0  0  0  0  0
  1 25  1  0  0  0
  1 30  2  0  0  0
  1 83  1  0  0  0
  2  3  1  0  0  0
  2 25  1  0  0  0
  2 87  1  0  0  0
  2 88  1  0  0  0
  3  4  1  0  0  0
  3 89  1  0  0  0
  3 90  1  0  0  0
  4  5  1  0  0  0
  4 91  1  0  0  0
  4 92  1  0  0  0
  5  6  1  0  0  0
  5 26  1  0  0  0
  5 93  1  0  0  0
  6 25  1  0  0  0
  6 94  1  0  0  0
  6 95  1  0  0  0
  7  8  2  0  0  0
  7 26  1  0  0  0
  7 29  1  0  0  0
  8  9  1  0  0  0
  8 22  1  0  0  0
  9 10  1  0  0  0
  9 27  2  0  0  0
 10 11  2  0  0  0
 10 15  1  0  0  0
 11 12  1  0  0  0
 11 96  1  0  0  0
 12 13  2  0  0  0
 12 97  1  0  0  0
 13 14  1  0  0  0
 13 31  1  0  0  0
 14 15  2  0  0  0
 14 98  1  0  0  0
 15 99  1  0  0  0
 16 17  2  0  0  0
 16 21  1  0  0  0
 16 31  1  0  0  0
 17 18  1  0  0  0
 17100  1  0  0  0
 18 19  2  0  0  0
 18101  1  0  0  0
 19 20  1  0  0  0
 19 24  1  0  0  0
 20 21  2  0  0  0
 20102  1  0  0  0
 21 23  1  0  0  0
 22 28  1  0  0  0
 22 32  2  0  0  0
 26 27  1  0  0  0
 28103  1  0  0  0
 28104  1  0  0  0
 29105  1  0  0  0
 29106  1  0  0  0
 33 34  1  0  0  0
 33 66  1  0  0  0
 33 70  2  0  0  0
 34 36  1  0  0  0
 34 59  1  0  0  0
 34107  1  0  0  0
 35 44  2  0  0  0
 35 45  1  0  0  0
 35 68  1  0  0  0
 36 56  1  0  0  0
 36108  1  0  0  0
 37 39  1  0  0  0
 37 47  1  0  0  0
 37 66  1  0  0  0
 37109  1  0  0  0
 38 43  2  0  0  0
 38 46  1  0  0  0
 38 47  1  0  0  0
 39 64  1  0  0  0
 39 67  2  0  0  0
 40 52  1  0  0  0
 40 53  2  0  0  0
 40 58  1  0  0  0
 41110  1  0  0  0
 41111  1  0  0  0
 41112  1  0  0  0
 41 48  1  0  0  0
 42 43  1  0  0  0
 42 66  1  0  0  0
 42113  1  0  0  0
 42114  1  0  0  0
 43 44  1  0  0  0
 44115  1  0  0  0
 45 46  2  0  0  0
 45116  1  0  0  0
 46117  1  0  0  0
 47118  1  0  0  0
 47119  1  0  0  0
 48 56  1  0  0  0
 48 65  1  0  0  0
 48120  1  0  0  0
 49 50  1  0  0  0
 49 53  1  0  0  0
 49 64  1  0  0  0
 49121  1  0  0  0
 50 51  1  0  0  0
 50122  1  0  0  0
 50123  1  0  0  0
 51 52  1  0  0  0
 51124  1  0  0  0
 51125  1  0  0  0
 52126  1  0  0  0
 52127  1  0  0  0
 53 54  1  0  0  0
 54 55  2  0  0  0
 54128  1  0  0  0
 55 57  1  0  0  0
 55129  1  0  0  0
 56 69  2  0  0  0
 57 58  2  0  0  0
 57130  1  0  0  0
 58131  1  0  0  0
 59 60  1  0  0  0
 59 61  1  0  0  0
 59 62  1  0  0  0
 60132  1  0  0  0
 60133  1  0  0  0
 60134  1  0  0  0
 61135  1  0  0  0
 61136  1  0  0  0
 61137  1  0  0  0
 62138  1  0  0  0
 62139  1  0  0  0
 62140  1  0  0  0
 63 65  1  0  0  0
 63141  1  0  0  0
 63142  1  0  0  0
 63143  1  0  0  0
 64144  1  0  0  0
 65145  1  0  0  0
 68 78  1  0  0  0
 71 72  2  0  0  0
 71 74  1  0  0  0
 71 86  1  0  0  0
 72 80  1  0  0  0
 72 82  1  0  0  0
 73 80  2  0  0  0
 73 83  1  0  0  0
 73 86  1  0  0  0
 74 81  2  0  0  0
 74146  1  0  0  0
 75 76  1  0  0  0
 75 79  1  0  0  0
 75 84  2  0  0  0
 76 82  1  0  0  0
 76 85  2  0  0  0
 77147  1  0  0  0
 77148  1  0  0  0
 77149  1  0  0  0
 77 79  1  0  0  0
 78 79  1  0  0  0
 78150  1  0  0  0
 78151  1  0  0  0
 79152  1  0  0  0
 81153  1  0  0  0
 82154  1  0  0  0
 83155  1  0  0  0
M  ISO  4   1 100  68 101  78 101  83 100
M  END
> <chiral flag>
0

> <version>
0

> <s_m_source_file>
/data/baiqing/PycharmProjects/Reinvent-master-3.2/result/LINK_invent/BTK/process_docking_weight1_custom_product_contain_oxygen_bond_distance_aromatic_linkinvent_7_9_3/rearranged_h_0180.sdf

> <i_m_source_file_index>
30

> <r_mmod_Potential_Energy-OPLS-2005>
-22.2758502960205

> <r_mmod_Stretch_Energy-OPLS-2005>
60.2521095275879

> <r_mmod_Bend_Energy-OPLS-2005>
130.341384887695

> <r_mmod_Torsional_Energy-OPLS-2005>
274.648529052734

> <r_mmod_Improper_Torsional_Energy-OPLS-2005>
6.23017358779907

> <r_mmod_Van_der_Waal_Energy-OPLS-2005>
126.442520141602

> <r_mmod_Electrostatic_Energy-OPLS-2005>
-396.846801757812

> <r_mmod_Solvation_Energy-OPLS-2005>
-249.999114990234

> <b_mmod_Minimization_Converged-OPLS-2005>
0

> <r_mmod_RMS_Derivative-OPLS-2005>
1.98348796367645

$$$$
30
                    3D
 Structure written by MMmdl.
158166  0  0  1  0            999 V2000
  -30.6958  -14.4281   20.6102 C   0  0  0  0  0  0
  -30.4310  -12.2920   19.4059 C   0  0  0  0  0  0
  -29.4921  -12.5160   18.2011 C   0  0  0  0  0  0
  -28.0142  -12.3729   18.6162 C   0  0  0  0  0  0
  -27.6693  -13.1947   19.8857 C   0  0  2  0  0  0
  -28.7088  -12.9272   20.9976 C   0  0  0  0  0  0
  -25.2661  -13.8139   20.5751 C   0  0  0  0  0  0
  -24.1852  -13.0441   20.9125 C   0  0  0  0  0  0
  -24.6379  -11.6895   20.8697 C   0  0  0  0  0  0
  -23.9039  -10.4293   21.0391 C   0  0  0  0  0  0
  -24.3601   -9.4215   21.9175 C   0  0  0  0  0  0
  -23.6288   -8.2245   22.0749 C   0  0  0  0  0  0
  -22.4268   -8.0278   21.3541 C   0  0  0  0  0  0
  -21.9894   -9.0247   20.4638 C   0  0  0  0  0  0
  -22.7211  -10.2133   20.3044 C   0  0  0  0  0  0
  -21.6851   -6.0736   22.5283 C   0  0  0  0  0  0
  -21.4012   -6.5642   23.8216 C   0  0  0  0  0  0
  -21.3662   -5.6793   24.9179 C   0  0  0  0  0  0
  -21.6050   -4.3057   24.7226 C   0  0  0  0  0  0
  -21.8819   -3.8150   23.4347 C   0  0  0  0  0  0
  -21.9192   -4.6966   22.3404 C   0  0  0  0  0  0
  -22.7882  -13.5253   21.1819 C   0  0  0  0  0  0
  -22.1661   -4.2156   21.0980 F   0  0  0  0  0  0
  -21.5634   -3.4537   25.7737 F   0  0  0  0  0  0
  -30.0485  -13.2407   20.4611 N   0  0  0  0  0  0
  -26.3070  -12.9277   20.3428 N   0  0  0  0  0  0
  -25.9306  -11.6445   20.5742 N   0  0  0  0  0  0
  -22.0524  -12.8232   22.0371 N   0  0  0  0  0  0
  -25.4576  -15.1852   20.4432 N   0  0  0  0  0  0
  -31.7810  -14.6796   20.0717 O   0  0  0  0  0  0
  -21.6639   -6.8873   21.4240 O   0  0  0  0  0  0
  -22.3560  -14.5572   20.6698 O   0  0  0  0  0  0
  -24.6132  -31.8696   23.2114 C   0  0  0  0  0  0
  -25.9031  -32.4831   23.8402 C   0  0  1  0  0  0
  -27.2405  -27.4535   20.0749 C   0  0  0  0  0  0
  -25.5891  -33.8629   24.2326 N   0  0  0  0  0  0
  -23.3997  -30.4940   21.5520 C   0  0  2  0  0  0
  -24.8437  -28.9614   20.1152 C   0  0  0  0  0  0
  -22.7401  -29.4667   22.5000 C   0  0  0  0  0  0
  -18.0272  -28.1376   22.8491 C   0  0  0  0  0  0
  -24.1483  -36.7319   23.2636 C   0  0  0  0  0  0
  -25.9277  -30.8385   21.3621 C   0  0  0  0  0  0
  -26.0032  -29.4733   20.7094 C   0  0  0  0  0  0
  -27.2000  -28.7249   20.6895 C   0  0  0  0  0  0
  -26.0555  -26.9468   19.4877 C   0  0  0  0  0  0
  -24.8638  -27.6954   19.5059 C   0  0  0  0  0  0
  -23.6064  -29.8282   20.1655 C   0  0  0  0  0  0
  -25.4102  -36.3115   24.0338 C   0  0  1  0  0  0
  -20.5859  -28.3658   23.1324 C   0  0  2  0  0  0
  -20.6763  -26.9399   22.5418 C   0  0  0  0  0  0
  -19.5743  -26.6387   21.5213 C   0  0  0  0  0  0
  -18.1920  -26.7924   22.1622 C   0  0  0  0  0  0
  -19.1520  -28.8832   23.2908 C   0  0  0  0  0  0
  -18.9452  -30.1440   23.8916 C   0  0  0  0  0  0
  -17.6455  -30.6583   24.0566 C   0  0  0  0  0  0
  -25.9032  -34.9480   23.5131 C   0  0  0  0  0  0
  -16.5346  -29.9092   23.6318 C   0  0  0  0  0  0
  -16.7263  -28.6508   23.0339 C   0  0  0  0  0  0
  -26.4462  -31.6607   25.0729 C   0  0  0  0  0  0
  -25.3731  -31.3726   26.1482 C   0  0  0  0  0  0
  -27.0280  -30.3049   24.6095 C   0  0  0  0  0  0
  -27.6040  -32.4327   25.7489 C   0  0  0  0  0  0
  -27.5581  -37.1810   24.8466 C   0  0  0  0  0  0
  -21.4131  -29.3032   22.3736 N   0  0  0  0  0  0
  -26.4292  -37.3797   23.9413 N   0  0  0  0  0  0
  -24.6652  -31.0811   22.1004 N   0  0  0  0  0  0
  -23.4182  -28.8205   23.3029 O   0  0  0  0  0  0
  -28.4393  -26.7691   20.0743 O   0  0  0  0  0  0
  -26.5596  -34.8929   22.4694 O   0  0  0  0  0  0
  -23.5328  -32.1444   23.7517 O   0  0  0  0  0  0
  -30.5634  -17.6582   20.8608 C   0  0  0  0  0  0
  -30.0835  -18.9319   20.4932 C   0  0  0  0  0  0
  -29.6374  -16.5968   20.9226 C   0  0  0  0  0  0
  -27.9903  -18.0576   20.3119 C   0  0  0  0  0  0
  -30.5488  -21.3046   19.5553 C   0  0  0  0  0  0
  -29.9839  -23.4551   19.0344 C   0  0  0  0  0  0
  -31.0001  -25.7626   18.9574 C   0  0  0  0  0  0
  -31.0072  -20.1542   20.4476 C   0  0  0  0  0  0
  -28.5062  -25.4937   19.4321 C   0  0  0  0  0  0
  -29.9156  -24.8846   19.6061 C   0  0  1  0  0  0
  -28.7721  -19.1111   20.2225 N   0  0  0  0  0  0
  -28.3330  -16.8292   20.6536 N   0  0  0  0  0  0
  -30.4763  -22.5246   19.9416 N   0  0  0  0  0  0
  -26.6793  -18.2747   20.0483 N   0  0  0  0  0  0
  -30.0397  -15.3176   21.3683 N   0  0  0  0  0  0
  -29.6174  -23.2608   17.8709 O   0  0  0  0  0  0
  -31.4727  -12.4058   19.1002 H   0  0  0  0  0  0
  -30.3437  -11.2691   19.7749 H   0  0  0  0  0  0
  -29.7249  -11.8079   17.4048 H   0  0  0  0  0  0
  -29.6587  -13.5107   17.7846 H   0  0  0  0  0  0
  -27.8210  -11.3154   18.7981 H   0  0  0  0  0  0
  -27.3619  -12.6636   17.7927 H   0  0  0  0  0  0
  -27.7266  -14.2482   19.6124 H   0  0  0  0  0  0
  -28.6764  -11.8774   21.2918 H   0  0  0  0  0  0
  -28.4569  -13.4784   21.9049 H   0  0  0  0  0  0
  -25.2749   -9.5711   22.4739 H   0  0  0  0  0  0
  -24.0014   -7.4640   22.7463 H   0  0  0  0  0  0
  -21.0831   -8.8761   19.8934 H   0  0  0  0  0  0
  -22.3671  -10.9674   19.6150 H   0  0  0  0  0  0
  -21.1994   -7.6148   23.9727 H   0  0  0  0  0  0
  -21.1490   -6.0517   25.9084 H   0  0  0  0  0  0
  -22.0594   -2.7612   23.2845 H   0  0  0  0  0  0
  -22.4142  -11.9875   22.4724 H   0  0  0  0  0  0
  -21.1149  -13.1261   22.2610 H   0  0  0  0  0  0
  -24.7387  -15.8381   20.7338 H   0  0  0  0  0  0
  -26.3931  -15.5843   20.4469 H   0  0  0  0  0  0
  -26.7108  -32.5541   23.1172 H   0  0  0  0  0  0
  -25.0038  -33.9796   25.0468 H   0  0  0  0  0  0
  -22.6878  -31.3105   21.4151 H   0  0  0  0  0  0
  -23.3740  -35.9658   23.3310 H   0  0  0  0  0  0
  -24.3581  -36.8924   22.2051 H   0  0  0  0  0  0
  -23.7245  -37.6531   23.6644 H   0  0  0  0  0  0
  -26.0389  -31.6056   20.5941 H   0  0  0  0  0  0
  -26.8165  -30.8907   21.9798 H   0  0  0  0  0  0
  -28.0987  -29.1237   21.1392 H   0  0  0  0  0  0
  -26.0267  -25.9807   19.0057 H   0  0  0  0  0  0
  -23.9708  -27.2948   19.0458 H   0  0  0  0  0  0
  -23.7147  -30.6054   19.4076 H   0  0  0  0  0  0
  -22.7299  -29.2502   19.8679 H   0  0  0  0  0  0
  -25.1276  -36.1983   25.0832 H   0  0  0  0  0  0
  -20.9953  -28.3222   24.1445 H   0  0  0  0  0  0
  -20.5670  -26.2266   23.3602 H   0  0  0  0  0  0
  -21.6637  -26.7447   22.1209 H   0  0  0  0  0  0
  -19.6907  -25.6301   21.1233 H   0  0  0  0  0  0
  -19.6685  -27.3204   20.6750 H   0  0  0  0  0  0
  -17.4192  -26.6672   21.4026 H   0  0  0  0  0  0
  -18.0324  -26.0064   22.9015 H   0  0  0  0  0  0
  -19.7931  -30.7253   24.2294 H   0  0  0  0  0  0
  -17.5014  -31.6266   24.5168 H   0  0  0  0  0  0
  -15.5351  -30.3006   23.7630 H   0  0  0  0  0  0
  -15.8662  -28.0847   22.7031 H   0  0  0  0  0  0
  -24.5905  -30.7060   25.7840 H   0  0  0  0  0  0
  -24.8910  -32.2883   26.4917 H   0  0  0  0  0  0
  -25.8085  -30.8921   27.0250 H   0  0  0  0  0  0
  -26.2817  -29.6836   24.1127 H   0  0  0  0  0  0
  -27.4031  -29.7265   25.4550 H   0  0  0  0  0  0
  -27.8662  -30.4373   23.9249 H   0  0  0  0  0  0
  -27.2660  -33.3629   26.2073 H   0  0  0  0  0  0
  -28.3842  -32.6885   25.0308 H   0  0  0  0  0  0
  -28.0706  -31.8444   26.5403 H   0  0  0  0  0  0
  -28.2600  -38.0106   24.7509 H   0  0  0  0  0  0
  -28.1072  -36.2636   24.6286 H   0  0  0  0  0  0
  -27.2303  -37.1459   25.8871 H   0  0  0  0  0  0
  -20.9287  -29.8772   21.6975 H   0  0  0  0  0  0
  -26.0181  -38.2876   24.1411 H   0  0  0  0  0  0
  -31.6067  -17.5043   21.1057 H   0  0  0  0  0  0
  -30.2813  -20.9720   18.5463 H   0  0  0  0  0  0
  -31.9878  -25.3097   19.0518 H   0  0  0  0  0  0
  -31.0451  -26.7429   19.4316 H   0  0  0  0  0  0
  -30.8034  -25.9188   17.8964 H   0  0  0  0  0  0
  -31.9927  -19.8362   20.1075 H   0  0  0  0  0  0
  -31.1385  -20.5208   21.4656 H   0  0  0  0  0  0
  -27.7685  -24.8189   19.8719 H   0  0  0  0  0  0
  -28.2709  -25.6031   18.3716 H   0  0  0  0  0  0
  -30.1195  -24.8361   20.6774 H   0  0  0  0  0  0
  -26.4564  -19.1268   19.5548 H   0  0  0  0  0  0
  -26.1206  -17.4695   19.8059 H   0  0  0  0  0  0
  -29.3081  -14.8512   21.8780 H   0  0  0  0  0  0
  1 25  1  0  0  0
  1 30  2  0  0  0
  1 85  1  0  0  0
  2  3  1  0  0  0
  2 25  1  0  0  0
  2 87  1  0  0  0
  2 88  1  0  0  0
  3  4  1  0  0  0
  3 89  1  0  0  0
  3 90  1  0  0  0
  4  5  1  0  0  0
  4 91  1  0  0  0
  4 92  1  0  0  0
  5  6  1  0  0  0
  5 26  1  0  0  0
  5 93  1  0  0  0
  6 25  1  0  0  0
  6 94  1  0  0  0
  6 95  1  0  0  0
  7  8  2  0  0  0
  7 26  1  0  0  0
  7 29  1  0  0  0
  8  9  1  0  0  0
  8 22  1  0  0  0
  9 10  1  0  0  0
  9 27  2  0  0  0
 10 11  2  0  0  0
 10 15  1  0  0  0
 11 12  1  0  0  0
 11 96  1  0  0  0
 12 13  2  0  0  0
 12 97  1  0  0  0
 13 14  1  0  0  0
 13 31  1  0  0  0
 14 15  2  0  0  0
 14 98  1  0  0  0
 15 99  1  0  0  0
 16 17  2  0  0  0
 16 21  1  0  0  0
 16 31  1  0  0  0
 17 18  1  0  0  0
 17100  1  0  0  0
 18 19  2  0  0  0
 18101  1  0  0  0
 19 20  1  0  0  0
 19 24  1  0  0  0
 20 21  2  0  0  0
 20102  1  0  0  0
 21 23  1  0  0  0
 22 28  1  0  0  0
 22 32  2  0  0  0
 26 27  1  0  0  0
 28103  1  0  0  0
 28104  1  0  0  0
 29105  1  0  0  0
 29106  1  0  0  0
 33 34  1  0  0  0
 33 66  1  0  0  0
 33 70  2  0  0  0
 34 36  1  0  0  0
 34 59  1  0  0  0
 34107  1  0  0  0
 35 44  2  0  0  0
 35 45  1  0  0  0
 35 68  1  0  0  0
 36 56  1  0  0  0
 36108  1  0  0  0
 37 39  1  0  0  0
 37 47  1  0  0  0
 37 66  1  0  0  0
 37109  1  0  0  0
 38 43  2  0  0  0
 38 46  1  0  0  0
 38 47  1  0  0  0
 39 64  1  0  0  0
 39 67  2  0  0  0
 40 52  1  0  0  0
 40 53  2  0  0  0
 40 58  1  0  0  0
 41110  1  0  0  0
 41111  1  0  0  0
 41112  1  0  0  0
 41 48  1  0  0  0
 42 43  1  0  0  0
 42 66  1  0  0  0
 42113  1  0  0  0
 42114  1  0  0  0
 43 44  1  0  0  0
 44115  1  0  0  0
 45 46  2  0  0  0
 45116  1  0  0  0
 46117  1  0  0  0
 47118  1  0  0  0
 47119  1  0  0  0
 48 56  1  0  0  0
 48 65  1  0  0  0
 48120  1  0  0  0
 49 50  1  0  0  0
 49 53  1  0  0  0
 49 64  1  0  0  0
 49121  1  0  0  0
 50 51  1  0  0  0
 50122  1  0  0  0
 50123  1  0  0  0
 51 52  1  0  0  0
 51124  1  0  0  0
 51125  1  0  0  0
 52126  1  0  0  0
 52127  1  0  0  0
 53 54  1  0  0  0
 54 55  2  0  0  0
 54128  1  0  0  0
 55 57  1  0  0  0
 55129  1  0  0  0
 56 69  2  0  0  0
 57 58  2  0  0  0
 57130  1  0  0  0
 58131  1  0  0  0
 59 60  1  0  0  0
 59 61  1  0  0  0
 59 62  1  0  0  0
 60132  1  0  0  0
 60133  1  0  0  0
 60134  1  0  0  0
 61135  1  0  0  0
 61136  1  0  0  0
 61137  1  0  0  0
 62138  1  0  0  0
 62139  1  0  0  0
 62140  1  0  0  0
 63 65  1  0  0  0
 63141  1  0  0  0
 63142  1  0  0  0
 63143  1  0  0  0
 64144  1  0  0  0
 65145  1  0  0  0
 68 79  1  0  0  0
 71 72  2  0  0  0
 71 73  1  0  0  0
 71146  1  0  0  0
 72 78  1  0  0  0
 72 81  1  0  0  0
 73 82  2  0  0  0
 73 85  1  0  0  0
 74 81  2  0  0  0
 74 82  1  0  0  0
 74 84  1  0  0  0
 75 78  1  0  0  0
 75 83  2  0  0  0
 75147  1  0  0  0
 76 80  1  0  0  0
 76 83  1  0  0  0
 76 86  2  0  0  0
 77148  1  0  0  0
 77149  1  0  0  0
 77150  1  0  0  0
 77 80  1  0  0  0
 78151  1  0  0  0
 78152  1  0  0  0
 79 80  1  0  0  0
 79153  1  0  0  0
 79154  1  0  0  0
 80155  1  0  0  0
 84156  1  0  0  0
 84157  1  0  0  0
 85158  1  0  0  0
M  ISO  4   1 100  68 101  79 101  85 100
M  END
> <chiral flag>
0

> <version>
0

> <s_m_source_file>
/data/baiqing/PycharmProjects/Reinvent-master-3.2/result/LINK_invent/BTK/process_docking_weight1_custom_product_contain_oxygen_bond_distance_aromatic_linkinvent_7_9_3/rearranged_h_0180.sdf

> <i_m_source_file_index>
31

> <r_mmod_Potential_Energy-OPLS-2005>
-567.349975585938

> <r_mmod_Stretch_Energy-OPLS-2005>
36.2843437194824

> <r_mmod_Bend_Energy-OPLS-2005>
106.200942993164

> <r_mmod_Torsional_Energy-OPLS-2005>
236.927917480469

> <r_mmod_Improper_Torsional_Energy-OPLS-2005>
11.0848903656006

> <r_mmod_Van_der_Waal_Energy-OPLS-2005>
172.064590454102

> <r_mmod_Electrostatic_Energy-OPLS-2005>
-914.952392578125

> <r_mmod_Solvation_Energy-OPLS-2005>
-224.47087097168

> <b_mmod_Minimization_Converged-OPLS-2005>
0

> <r_mmod_RMS_Derivative-OPLS-2005>
1.05409467220306

$$$$
31
                    3D
 Structure written by MMmdl.
152160  0  0  1  0            999 V2000
  -30.5822  -14.8232   20.4487 C   0  0  0  0  0  0
  -30.4365  -12.4978   19.5089 C   0  0  0  0  0  0
  -29.5269  -12.5218   18.2595 C   0  0  0  0  0  0
  -28.0502  -12.3389   18.6592 C   0  0  0  0  0  0
  -27.6419  -13.2420   19.8537 C   0  0  2  0  0  0
  -28.6796  -13.2024   20.9984 C   0  0  0  0  0  0
  -25.2508  -13.8222   20.5701 C   0  0  0  0  0  0
  -24.1809  -13.0454   20.9199 C   0  0  0  0  0  0
  -24.6403  -11.6931   20.8725 C   0  0  0  0  0  0
  -23.9083  -10.4304   21.0393 C   0  0  0  0  0  0
  -24.3629   -9.4211   21.9172 C   0  0  0  0  0  0
  -23.6296   -8.2255   22.0746 C   0  0  0  0  0  0
  -22.4277   -8.0288   21.3541 C   0  0  0  0  0  0
  -21.9915   -9.0261   20.4645 C   0  0  0  0  0  0
  -22.7251  -10.2137   20.3043 C   0  0  0  0  0  0
  -21.6849   -6.0746   22.5280 C   0  0  0  0  0  0
  -21.4021   -6.5642   23.8216 C   0  0  0  0  0  0
  -21.3656   -5.6791   24.9175 C   0  0  0  0  0  0
  -21.6040   -4.3054   24.7216 C   0  0  0  0  0  0
  -21.8821   -3.8153   23.4339 C   0  0  0  0  0  0
  -21.9193   -4.6978   22.3400 C   0  0  0  0  0  0
  -22.7839  -13.5238   21.1872 C   0  0  0  0  0  0
  -22.1653   -4.2175   21.0972 F   0  0  0  0  0  0
  -21.5624   -3.4519   25.7720 F   0  0  0  0  0  0
  -29.9828  -13.5728   20.4309 N   0  0  0  0  0  0
  -26.2933  -12.9449   20.3255 N   0  0  0  0  0  0
  -25.9337  -11.6576   20.5722 N   0  0  0  0  0  0
  -22.0494  -12.8214   22.0421 N   0  0  0  0  0  0
  -25.4186  -15.1951   20.4159 N   0  0  0  0  0  0
  -31.7538  -14.9180   20.0649 O   0  0  0  0  0  0
  -21.6633   -6.8889   21.4243 O   0  0  0  0  0  0
  -22.3525  -14.5553   20.6738 O   0  0  0  0  0  0
  -24.6377  -31.8509   23.1966 C   0  0  0  0  0  0
  -25.9183  -32.4730   23.8323 C   0  0  1  0  0  0
  -27.2161  -27.1973   20.1348 C   0  0  0  0  0  0
  -25.5966  -33.8539   24.2234 N   0  0  0  0  0  0
  -23.4384  -30.4734   21.5403 C   0  0  2  0  0  0
  -24.8866  -28.9156   20.1080 C   0  0  0  0  0  0
  -22.7540  -29.4582   22.4889 C   0  0  0  0  0  0
  -18.0302  -28.1395   22.8486 C   0  0  0  0  0  0
  -24.1491  -36.7271   23.2639 C   0  0  0  0  0  0
  -25.9896  -30.7386   21.3925 C   0  0  0  0  0  0
  -26.0583  -29.3558   20.7355 C   0  0  0  0  0  0
  -27.2205  -28.5068   20.7468 C   0  0  0  0  0  0
  -26.0291  -26.8668   19.4376 C   0  0  0  0  0  0
  -24.8806  -27.6811   19.4464 C   0  0  0  0  0  0
  -23.6616  -29.8111   20.1550 C   0  0  0  0  0  0
  -25.4120  -36.3059   24.0323 C   0  0  1  0  0  0
  -20.5910  -28.3719   23.1243 C   0  0  2  0  0  0
  -20.6786  -26.9428   22.5403 C   0  0  0  0  0  0
  -19.5751  -26.6382   21.5218 C   0  0  0  0  0  0
  -18.1937  -26.7941   22.1631 C   0  0  0  0  0  0
  -19.1556  -28.8875   23.2859 C   0  0  0  0  0  0
  -18.9473  -30.1476   23.8881 C   0  0  0  0  0  0
  -17.6468  -30.6594   24.0569 C   0  0  0  0  0  0
  -25.9065  -34.9431   23.5076 C   0  0  0  0  0  0
  -16.5362  -29.9088   23.6336 C   0  0  0  0  0  0
  -16.7290  -28.6506   23.0359 C   0  0  0  0  0  0
  -26.4529  -31.6582   25.0739 C   0  0  0  0  0  0
  -25.3731  -31.3750   26.1439 C   0  0  0  0  0  0
  -27.0392  -30.2990   24.6282 C   0  0  0  0  0  0
  -27.6067  -32.4340   25.7518 C   0  0  0  0  0  0
  -27.5579  -37.1789   24.8465 C   0  0  0  0  0  0
  -21.4239  -29.3060   22.3631 N   0  0  0  0  0  0
  -26.4284  -37.3768   23.9413 N   0  0  0  0  0  0
  -24.7074  -31.0418   22.0981 N   0  0  0  0  0  0
  -23.4208  -28.8119   23.3010 O   0  0  0  0  0  0
  -28.2851  -26.2457   20.2012 O   0  0  0  0  0  0
  -26.5634  -34.8920   22.4642 O   0  0  0  0  0  0
  -23.5511  -32.1367   23.7216 O   0  0  0  0  0  0
  -28.9473  -19.5760   18.6311 C   0  0  0  0  0  0
  -28.9259  -18.3025   18.0327 C   0  0  0  0  0  0
  -29.2743  -17.1617   18.7786 C   0  0  0  0  0  0
  -29.2987  -19.7546   19.9852 C   0  0  0  0  0  0
  -29.6638  -17.2801   20.1323 C   0  0  0  0  0  0
  -28.0556  -24.8133   20.1266 C   0  0  0  0  0  0
  -28.9060  -23.7201   20.3466 C   0  0  0  0  0  0
  -28.4765  -22.2659   20.1222 C   0  0  0  0  0  0
  -28.4959  -18.1487   16.5867 C   0  0  0  0  0  0
  -29.6576  -18.5833   20.6983 N   0  0  0  0  0  0
  -29.3295  -21.1942   20.4371 N   0  0  0  0  0  0
  -29.8471  -15.9571   20.8215 N   0  0  0  0  0  0
  -27.3539  -22.0177   19.6738 O   0  0  0  0  0  0
  -30.1646  -23.9491   20.7463 O   0  0  0  0  0  0
  -29.1766  -15.9451   18.1892 F   0  0  0  0  0  0
  -31.4808  -12.6198   19.2172 H   0  0  0  0  0  0
  -30.3843  -11.5266   20.0036 H   0  0  0  0  0  0
  -29.8262  -11.7410   17.5595 H   0  0  0  0  0  0
  -29.6545  -13.4679   17.7318 H   0  0  0  0  0  0
  -27.9083  -11.2902   18.9228 H   0  0  0  0  0  0
  -27.4014  -12.5256   17.8030 H   0  0  0  0  0  0
  -27.6275  -14.2596   19.4643 H   0  0  0  0  0  0
  -28.7253  -12.2100   21.4494 H   0  0  0  0  0  0
  -28.3947  -13.8870   21.7982 H   0  0  0  0  0  0
  -25.2771   -9.5671   22.4752 H   0  0  0  0  0  0
  -23.9996   -7.4630   22.7445 H   0  0  0  0  0  0
  -21.0857   -8.8769   19.8944 H   0  0  0  0  0  0
  -22.3706  -10.9668   19.6142 H   0  0  0  0  0  0
  -21.2033   -7.6151   23.9731 H   0  0  0  0  0  0
  -21.1463   -6.0519   25.9077 H   0  0  0  0  0  0
  -22.0613   -2.7621   23.2829 H   0  0  0  0  0  0
  -22.4089  -11.9844   22.4773 H   0  0  0  0  0  0
  -21.1121  -13.1240   22.2645 H   0  0  0  0  0  0
  -24.6470  -15.8438   20.5293 H   0  0  0  0  0  0
  -26.2575  -15.6369   20.0640 H   0  0  0  0  0  0
  -26.7251  -32.5348   23.1059 H   0  0  0  0  0  0
  -25.0157  -33.9666   25.0415 H   0  0  0  0  0  0
  -22.7390  -31.2983   21.3919 H   0  0  0  0  0  0
  -23.3762  -35.9591   23.3287 H   0  0  0  0  0  0
  -24.3585  -36.8912   22.2054 H   0  0  0  0  0  0
  -23.7228  -37.6459   23.6680 H   0  0  0  0  0  0
  -26.1402  -31.4946   20.6205 H   0  0  0  0  0  0
  -26.8626  -30.7870   22.0318 H   0  0  0  0  0  0
  -28.1118  -28.8358   21.2631 H   0  0  0  0  0  0
  -25.9484  -25.9515   18.8732 H   0  0  0  0  0  0
  -23.9938  -27.3485   18.9248 H   0  0  0  0  0  0
  -23.7968  -30.5896   19.4029 H   0  0  0  0  0  0
  -22.7782  -29.2512   19.8435 H   0  0  0  0  0  0
  -25.1302  -36.1896   25.0815 H   0  0  0  0  0  0
  -21.0002  -28.3303   24.1361 H   0  0  0  0  0  0
  -20.5677  -26.2343   23.3624 H   0  0  0  0  0  0
  -21.6650  -26.7445   22.1187 H   0  0  0  0  0  0
  -19.6906  -25.6283   21.1263 H   0  0  0  0  0  0
  -19.6677  -27.3178   20.6734 H   0  0  0  0  0  0
  -17.4206  -26.6709   21.4033 H   0  0  0  0  0  0
  -18.0326  -26.0080   22.9018 H   0  0  0  0  0  0
  -19.7950  -30.7300   24.2239 H   0  0  0  0  0  0
  -17.5022  -31.6272   24.5174 H   0  0  0  0  0  0
  -15.5361  -30.2982   23.7658 H   0  0  0  0  0  0
  -15.8698  -28.0815   22.7080 H   0  0  0  0  0  0
  -24.5912  -30.7102   25.7753 H   0  0  0  0  0  0
  -24.8923  -32.2926   26.4833 H   0  0  0  0  0  0
  -25.8018  -30.8936   27.0237 H   0  0  0  0  0  0
  -26.2997  -29.6716   24.1287 H   0  0  0  0  0  0
  -27.4032  -29.7281   25.4836 H   0  0  0  0  0  0
  -27.8904  -30.4253   23.9585 H   0  0  0  0  0  0
  -27.2666  -33.3657   26.2053 H   0  0  0  0  0  0
  -28.3897  -32.6865   25.0356 H   0  0  0  0  0  0
  -28.0720  -31.8496   26.5465 H   0  0  0  0  0  0
  -28.2574  -38.0107   24.7532 H   0  0  0  0  0  0
  -28.1096  -36.2635   24.6266 H   0  0  0  0  0  0
  -27.2303  -37.1405   25.8869 H   0  0  0  0  0  0
  -20.9438  -29.8809   21.6846 H   0  0  0  0  0  0
  -26.0157  -38.2837   24.1428 H   0  0  0  0  0  0
  -28.6864  -20.4305   18.0239 H   0  0  0  0  0  0
  -27.0434  -24.5829   19.8403 H   0  0  0  0  0  0
  -28.5306  -19.0994   16.0557 H   0  0  0  0  0  0
  -27.4757  -17.7674   16.5380 H   0  0  0  0  0  0
  -29.1463  -17.4468   16.0645 H   0  0  0  0  0  0
  -30.1422  -21.4621   20.9737 H   0  0  0  0  0  0
  -29.0436  -15.7125   21.3748 H   0  0  0  0  0  0
  -30.2645  -24.8909   20.8128 H   0  0  0  0  0  0
  1 25  1  0  0  0
  1 30  2  0  0  0
  1 82  1  0  0  0
  2  3  1  0  0  0
  2 25  1  0  0  0
  2 86  1  0  0  0
  2 87  1  0  0  0
  3  4  1  0  0  0
  3 88  1  0  0  0
  3 89  1  0  0  0
  4  5  1  0  0  0
  4 90  1  0  0  0
  4 91  1  0  0  0
  5  6  1  0  0  0
  5 26  1  0  0  0
  5 92  1  0  0  0
  6 25  1  0  0  0
  6 93  1  0  0  0
  6 94  1  0  0  0
  7  8  2  0  0  0
  7 26  1  0  0  0
  7 29  1  0  0  0
  8  9  1  0  0  0
  8 22  1  0  0  0
  9 10  1  0  0  0
  9 27  2  0  0  0
 10 11  2  0  0  0
 10 15  1  0  0  0
 11 12  1  0  0  0
 11 95  1  0  0  0
 12 13  2  0  0  0
 12 96  1  0  0  0
 13 14  1  0  0  0
 13 31  1  0  0  0
 14 15  2  0  0  0
 14 97  1  0  0  0
 15 98  1  0  0  0
 16 17  2  0  0  0
 16 21  1  0  0  0
 16 31  1  0  0  0
 17 18  1  0  0  0
 17 99  1  0  0  0
 18 19  2  0  0  0
 18100  1  0  0  0
 19 20  1  0  0  0
 19 24  1  0  0  0
 20 21  2  0  0  0
 20101  1  0  0  0
 21 23  1  0  0  0
 22 28  1  0  0  0
 22 32  2  0  0  0
 26 27  1  0  0  0
 28102  1  0  0  0
 28103  1  0  0  0
 29104  1  0  0  0
 29105  1  0  0  0
 33 34  1  0  0  0
 33 66  1  0  0  0
 33 70  2  0  0  0
 34 36  1  0  0  0
 34 59  1  0  0  0
 34106  1  0  0  0
 35 44  2  0  0  0
 35 45  1  0  0  0
 35 68  1  0  0  0
 36 56  1  0  0  0
 36107  1  0  0  0
 37 39  1  0  0  0
 37 47  1  0  0  0
 37 66  1  0  0  0
 37108  1  0  0  0
 38 43  2  0  0  0
 38 46  1  0  0  0
 38 47  1  0  0  0
 39 64  1  0  0  0
 39 67  2  0  0  0
 40 52  1  0  0  0
 40 53  2  0  0  0
 40 58  1  0  0  0
 41109  1  0  0  0
 41110  1  0  0  0
 41111  1  0  0  0
 41 48  1  0  0  0
 42 43  1  0  0  0
 42 66  1  0  0  0
 42112  1  0  0  0
 42113  1  0  0  0
 43 44  1  0  0  0
 44114  1  0  0  0
 45 46  2  0  0  0
 45115  1  0  0  0
 46116  1  0  0  0
 47117  1  0  0  0
 47118  1  0  0  0
 48 56  1  0  0  0
 48 65  1  0  0  0
 48119  1  0  0  0
 49 50  1  0  0  0
 49 53  1  0  0  0
 49 64  1  0  0  0
 49120  1  0  0  0
 50 51  1  0  0  0
 50121  1  0  0  0
 50122  1  0  0  0
 51 52  1  0  0  0
 51123  1  0  0  0
 51124  1  0  0  0
 52125  1  0  0  0
 52126  1  0  0  0
 53 54  1  0  0  0
 54 55  2  0  0  0
 54127  1  0  0  0
 55 57  1  0  0  0
 55128  1  0  0  0
 56 69  2  0  0  0
 57 58  2  0  0  0
 57129  1  0  0  0
 58130  1  0  0  0
 59 60  1  0  0  0
 59 61  1  0  0  0
 59 62  1  0  0  0
 60131  1  0  0  0
 60132  1  0  0  0
 60133  1  0  0  0
 61134  1  0  0  0
 61135  1  0  0  0
 61136  1  0  0  0
 62137  1  0  0  0
 62138  1  0  0  0
 62139  1  0  0  0
 63 65  1  0  0  0
 63140  1  0  0  0
 63141  1  0  0  0
 63142  1  0  0  0
 64143  1  0  0  0
 65144  1  0  0  0
 68 76  1  0  0  0
 71 72  2  0  0  0
 71 74  1  0  0  0
 71145  1  0  0  0
 72 73  1  0  0  0
 72 79  1  0  0  0
 73 75  2  0  0  0
 73 85  1  0  0  0
 74 80  2  0  0  0
 74 81  1  0  0  0
 75 80  1  0  0  0
 75 82  1  0  0  0
 76 77  2  0  0  0
 76146  1  0  0  0
 77 78  1  0  0  0
 77 84  1  0  0  0
 78 81  1  0  0  0
 78 83  2  0  0  0
 79147  1  0  0  0
 79148  1  0  0  0
 79149  1  0  0  0
 81150  1  0  0  0
 82151  1  0  0  0
 84152  1  0  0  0
M  ISO  4   1 100  68 101  76 101  82 100
M  END
> <chiral flag>
0

> <version>
0

> <s_m_source_file>
/data/baiqing/PycharmProjects/Reinvent-master-3.2/result/LINK_invent/BTK/process_docking_weight1_custom_product_contain_oxygen_bond_distance_aromatic_linkinvent_7_9_3/rearranged_h_0180.sdf

> <i_m_source_file_index>
32

> <r_mmod_Potential_Energy-OPLS-2005>
89.9262847900391

> <r_mmod_Stretch_Energy-OPLS-2005>
168.49739074707

> <r_mmod_Bend_Energy-OPLS-2005>
180.849227905273

> <r_mmod_Torsional_Energy-OPLS-2005>
258.449279785156

> <r_mmod_Improper_Torsional_Energy-OPLS-2005>
5.76537370681763

> <r_mmod_Van_der_Waal_Energy-OPLS-2005>
146.876220703125

> <r_mmod_Electrostatic_Energy-OPLS-2005>
-565.562377929688

> <r_mmod_Solvation_Energy-OPLS-2005>
-231.337814331055

> <b_mmod_Minimization_Converged-OPLS-2005>
0

> <r_mmod_RMS_Derivative-OPLS-2005>
1.60287940502167

$$$$
32
                    3D
 Structure written by MMmdl.
162170  0  0  1  0            999 V2000
  -30.6543  -14.5359   20.5476 C   0  0  0  0  0  0
  -30.4341  -12.3415   19.4208 C   0  0  0  0  0  0
  -29.4956  -12.5010   18.2043 C   0  0  0  0  0  0
  -28.0178  -12.3463   18.6217 C   0  0  0  0  0  0
  -27.6546  -13.2018   19.8633 C   0  0  2  0  0  0
  -28.7007  -13.0081   20.9850 C   0  0  0  0  0  0
  -25.2577  -13.8147   20.5679 C   0  0  0  0  0  0
  -24.1828  -13.0423   20.9214 C   0  0  0  0  0  0
  -24.6378  -11.6896   20.8755 C   0  0  0  0  0  0
  -23.9044  -10.4281   21.0406 C   0  0  0  0  0  0
  -24.3606   -9.4193   21.9170 C   0  0  0  0  0  0
  -23.6286   -8.2226   22.0739 C   0  0  0  0  0  0
  -22.4261   -8.0276   21.3540 C   0  0  0  0  0  0
  -21.9900   -9.0243   20.4633 C   0  0  0  0  0  0
  -22.7230  -10.2123   20.3041 C   0  0  0  0  0  0
  -21.6845   -6.0730   22.5273 C   0  0  0  0  0  0
  -21.4013   -6.5635   23.8206 C   0  0  0  0  0  0
  -21.3665   -5.6788   24.9173 C   0  0  0  0  0  0
  -21.6042   -4.3050   24.7220 C   0  0  0  0  0  0
  -21.8822   -3.8143   23.4343 C   0  0  0  0  0  0
  -21.9195   -4.6958   22.3401 C   0  0  0  0  0  0
  -22.7852  -13.5222   21.1874 C   0  0  0  0  0  0
  -22.1657   -4.2148   21.0977 F   0  0  0  0  0  0
  -21.5635   -3.4537   25.7733 F   0  0  0  0  0  0
  -30.0206  -13.3355   20.4216 N   0  0  0  0  0  0
  -26.2979  -12.9291   20.3312 N   0  0  0  0  0  0
  -25.9291  -11.6462   20.5753 N   0  0  0  0  0  0
  -22.0501  -12.8200   22.0435 N   0  0  0  0  0  0
  -25.4334  -15.1860   20.4058 N   0  0  0  0  0  0
  -31.8236  -14.7113   20.1877 O   0  0  0  0  0  0
  -21.6632   -6.8868   21.4229 O   0  0  0  0  0  0
  -22.3534  -14.5527   20.6734 O   0  0  0  0  0  0
  -24.6168  -31.8671   23.2095 C   0  0  0  0  0  0
  -25.9044  -32.4809   23.8386 C   0  0  1  0  0  0
  -27.2185  -27.3974   20.1021 C   0  0  0  0  0  0
  -25.5898  -33.8606   24.2328 N   0  0  0  0  0  0
  -23.4050  -30.4948   21.5491 C   0  0  2  0  0  0
  -24.8472  -28.9585   20.1130 C   0  0  0  0  0  0
  -22.7416  -29.4654   22.4927 C   0  0  0  0  0  0
  -18.0282  -28.1378   22.8476 C   0  0  0  0  0  0
  -24.1482  -36.7305   23.2646 C   0  0  0  0  0  0
  -25.9375  -30.8232   21.3662 C   0  0  0  0  0  0
  -26.0130  -29.4563   20.7096 C   0  0  0  0  0  0
  -27.2026  -28.6849   20.6974 C   0  0  0  0  0  0
  -26.0327  -26.9309   19.4887 C   0  0  0  0  0  0
  -24.8544  -27.6969   19.4969 C   0  0  0  0  0  0
  -23.6155  -29.8348   20.1624 C   0  0  0  0  0  0
  -25.4114  -36.3109   24.0345 C   0  0  1  0  0  0
  -20.5877  -28.3671   23.1309 C   0  0  2  0  0  0
  -20.6772  -26.9405   22.5410 C   0  0  0  0  0  0
  -19.5758  -26.6395   21.5194 C   0  0  0  0  0  0
  -18.1934  -26.7913   22.1618 C   0  0  0  0  0  0
  -19.1534  -28.8829   23.2886 C   0  0  0  0  0  0
  -18.9475  -30.1440   23.8880 C   0  0  0  0  0  0
  -17.6484  -30.6573   24.0560 C   0  0  0  0  0  0
  -25.9054  -34.9467   23.5139 C   0  0  0  0  0  0
  -16.5370  -29.9091   23.6324 C   0  0  0  0  0  0
  -16.7272  -28.6518   23.0317 C   0  0  0  0  0  0
  -26.4479  -31.6592   25.0707 C   0  0  0  0  0  0
  -25.3731  -31.3716   26.1449 C   0  0  0  0  0  0
  -27.0341  -30.3055   24.6074 C   0  0  0  0  0  0
  -27.6058  -32.4313   25.7464 C   0  0  0  0  0  0
  -27.5587  -37.1802   24.8476 C   0  0  0  0  0  0
  -21.4141  -29.3034   22.3687 N   0  0  0  0  0  0
  -26.4297  -37.3805   23.9420 N   0  0  0  0  0  0
  -24.6721  -31.0745   22.1008 N   0  0  0  0  0  0
  -23.4181  -28.8174   23.2963 O   0  0  0  0  0  0
  -28.3625  -26.6105   20.1355 O   0  0  0  0  0  0
  -26.5616  -34.8922   22.4698 O   0  0  0  0  0  0
  -23.5358  -32.1433   23.7486 O   0  0  0  0  0  0
  -30.6717  -18.6159   22.5787 C   0  0  0  0  0  0
  -30.0642  -19.3952   21.6110 C   0  0  0  0  0  0
  -30.1242  -16.9238   21.1538 C   0  0  0  0  0  0
  -29.3559  -21.7376   21.0019 C   0  0  0  0  0  0
  -32.7505  -19.3416   23.8101 C   0  0  0  0  0  0
  -30.3229  -23.2653   22.8120 C   0  0  0  0  0  0
  -27.8646  -23.1254   22.4557 C   0  0  0  0  0  0
  -31.2396  -19.1022   23.8826 C   0  0  0  0  0  0
  -29.3965  -24.4059   20.7790 C   0  0  0  0  0  0
  -28.1517  -25.1761   20.2365 C   0  0  0  0  0  0
  -29.2237  -23.1334   21.7186 C   0  0  0  0  0  0
  -30.7219  -17.2398   22.3031 N   0  0  0  0  0  0
  -29.9079  -20.7523   21.7475 N   0  0  0  0  0  0
  -29.8248  -15.5643   20.8359 N   0  0  0  0  0  0
  -28.9581  -21.5804   19.8467 O   0  0  0  0  0  0
  -29.4921  -18.3534   20.3023 S   0  0  0  0  0  0
  -31.4752  -12.4672   19.1177 H   0  0  0  0  0  0
  -30.3615  -11.3362   19.8384 H   0  0  0  0  0  0
  -29.7438  -11.7684   17.4350 H   0  0  0  0  0  0
  -29.6452  -13.4810   17.7490 H   0  0  0  0  0  0
  -27.8419  -11.2913   18.8381 H   0  0  0  0  0  0
  -27.3602  -12.5951   17.7884 H   0  0  0  0  0  0
  -27.6850  -14.2417   19.5388 H   0  0  0  0  0  0
  -28.6959  -11.9738   21.3328 H   0  0  0  0  0  0
  -28.4616  -13.6160   21.8600 H   0  0  0  0  0  0
  -25.2751   -9.5671   22.4739 H   0  0  0  0  0  0
  -24.0005   -7.4608   22.7448 H   0  0  0  0  0  0
  -21.0837   -8.8753   19.8928 H   0  0  0  0  0  0
  -22.3685  -10.9658   19.6150 H   0  0  0  0  0  0
  -21.2001   -7.6143   23.9715 H   0  0  0  0  0  0
  -21.1484   -6.0515   25.9078 H   0  0  0  0  0  0
  -22.0601   -2.7608   23.2841 H   0  0  0  0  0  0
  -22.4129  -11.9857   22.4798 H   0  0  0  0  0  0
  -21.1109  -13.1194   22.2637 H   0  0  0  0  0  0
  -24.6685  -15.8440   20.5087 H   0  0  0  0  0  0
  -26.2691  -15.6142   20.0286 H   0  0  0  0  0  0
  -26.7097  -32.5506   23.1133 H   0  0  0  0  0  0
  -24.9988  -33.9774   25.0429 H   0  0  0  0  0  0
  -22.6951  -31.3132   21.4125 H   0  0  0  0  0  0
  -23.3739  -35.9646   23.3322 H   0  0  0  0  0  0
  -24.3581  -36.8909   22.2056 H   0  0  0  0  0  0
  -23.7231  -37.6513   23.6655 H   0  0  0  0  0  0
  -26.0550  -31.5945   20.6027 H   0  0  0  0  0  0
  -26.8220  -30.8682   21.9892 H   0  0  0  0  0  0
  -28.0998  -29.0593   21.1691 H   0  0  0  0  0  0
  -25.9966  -25.9675   19.0019 H   0  0  0  0  0  0
  -23.9578  -27.3111   19.0305 H   0  0  0  0  0  0
  -23.7378  -30.6158   19.4115 H   0  0  0  0  0  0
  -22.7343  -29.2690   19.8554 H   0  0  0  0  0  0
  -25.1280  -36.1982   25.0842 H   0  0  0  0  0  0
  -20.9975  -28.3232   24.1429 H   0  0  0  0  0  0
  -20.5678  -26.2263   23.3593 H   0  0  0  0  0  0
  -21.6637  -26.7436   22.1205 H   0  0  0  0  0  0
  -19.6936  -25.6312   21.1219 H   0  0  0  0  0  0
  -19.6709  -27.3182   20.6702 H   0  0  0  0  0  0
  -17.4207  -26.6646   21.4015 H   0  0  0  0  0  0
  -18.0355  -26.0044   22.9009 H   0  0  0  0  0  0
  -19.7956  -30.7249   24.2237 H   0  0  0  0  0  0
  -17.5054  -31.6243   24.5164 H   0  0  0  0  0  0
  -15.5373  -30.2996   23.7659 H   0  0  0  0  0  0
  -15.8675  -28.0856   22.7014 H   0  0  0  0  0  0
  -24.5900  -30.7069   25.7779 H   0  0  0  0  0  0
  -24.8912  -32.2878   26.4891 H   0  0  0  0  0  0
  -25.8076  -30.8889   27.0212 H   0  0  0  0  0  0
  -26.2903  -29.6778   24.1158 H   0  0  0  0  0  0
  -27.4163  -29.7349   25.4546 H   0  0  0  0  0  0
  -27.8706  -30.4388   23.9213 H   0  0  0  0  0  0
  -27.2690  -33.3620   26.2058 H   0  0  0  0  0  0
  -28.3852  -32.6863   25.0257 H   0  0  0  0  0  0
  -28.0730  -31.8406   26.5356 H   0  0  0  0  0  0
  -28.2602  -38.0100   24.7513 H   0  0  0  0  0  0
  -28.1077  -36.2620   24.6305 H   0  0  0  0  0  0
  -27.2300  -37.1457   25.8881 H   0  0  0  0  0  0
  -20.9298  -29.8796   21.6939 H   0  0  0  0  0  0
  -26.0187  -38.2891   24.1420 H   0  0  0  0  0  0
  -33.1283  -19.7124   24.7632 H   0  0  0  0  0  0
  -32.9930  -20.0749   23.0396 H   0  0  0  0  0  0
  -33.2841  -18.4193   23.5818 H   0  0  0  0  0  0
  -30.2292  -22.5258   23.6068 H   0  0  0  0  0  0
  -30.2725  -24.2335   23.3139 H   0  0  0  0  0  0
  -31.3234  -23.1762   22.3840 H   0  0  0  0  0  0
  -27.8085  -22.3105   23.1780 H   0  0  0  0  0  0
  -27.0276  -22.9886   21.7690 H   0  0  0  0  0  0
  -27.7013  -24.0463   23.0151 H   0  0  0  0  0  0
  -31.0320  -18.3790   24.6716 H   0  0  0  0  0  0
  -30.7415  -20.0188   24.2027 H   0  0  0  0  0  0
  -29.9696  -25.1577   21.3207 H   0  0  0  0  0  0
  -30.0429  -24.1512   19.9380 H   0  0  0  0  0  0
  -27.2976  -25.0197   20.8924 H   0  0  0  0  0  0
  -27.8816  -24.7674   19.2616 H   0  0  0  0  0  0
  -30.2244  -21.1126   22.6356 H   0  0  0  0  0  0
  -28.8496  -15.3196   20.8783 H   0  0  0  0  0  0
  1 25  1  0  0  0
  1 30  2  0  0  0
  1 84  1  0  0  0
  2  3  1  0  0  0
  2 25  1  0  0  0
  2 87  1  0  0  0
  2 88  1  0  0  0
  3  4  1  0  0  0
  3 89  1  0  0  0
  3 90  1  0  0  0
  4  5  1  0  0  0
  4 91  1  0  0  0
  4 92  1  0  0  0
  5  6  1  0  0  0
  5 26  1  0  0  0
  5 93  1  0  0  0
  6 25  1  0  0  0
  6 94  1  0  0  0
  6 95  1  0  0  0
  7  8  2  0  0  0
  7 26  1  0  0  0
  7 29  1  0  0  0
  8  9  1  0  0  0
  8 22  1  0  0  0
  9 10  1  0  0  0
  9 27  2  0  0  0
 10 11  2  0  0  0
 10 15  1  0  0  0
 11 12  1  0  0  0
 11 96  1  0  0  0
 12 13  2  0  0  0
 12 97  1  0  0  0
 13 14  1  0  0  0
 13 31  1  0  0  0
 14 15  2  0  0  0
 14 98  1  0  0  0
 15 99  1  0  0  0
 16 17  2  0  0  0
 16 21  1  0  0  0
 16 31  1  0  0  0
 17 18  1  0  0  0
 17100  1  0  0  0
 18 19  2  0  0  0
 18101  1  0  0  0
 19 20  1  0  0  0
 19 24  1  0  0  0
 20 21  2  0  0  0
 20102  1  0  0  0
 21 23  1  0  0  0
 22 28  1  0  0  0
 22 32  2  0  0  0
 26 27  1  0  0  0
 28103  1  0  0  0
 28104  1  0  0  0
 29105  1  0  0  0
 29106  1  0  0  0
 33 34  1  0  0  0
 33 66  1  0  0  0
 33 70  2  0  0  0
 34 36  1  0  0  0
 34 59  1  0  0  0
 34107  1  0  0  0
 35 44  2  0  0  0
 35 45  1  0  0  0
 35 68  1  0  0  0
 36 56  1  0  0  0
 36108  1  0  0  0
 37 39  1  0  0  0
 37 47  1  0  0  0
 37 66  1  0  0  0
 37109  1  0  0  0
 38 43  2  0  0  0
 38 46  1  0  0  0
 38 47  1  0  0  0
 39 64  1  0  0  0
 39 67  2  0  0  0
 40 52  1  0  0  0
 40 53  2  0  0  0
 40 58  1  0  0  0
 41110  1  0  0  0
 41111  1  0  0  0
 41112  1  0  0  0
 41 48  1  0  0  0
 42 43  1  0  0  0
 42 66  1  0  0  0
 42113  1  0  0  0
 42114  1  0  0  0
 43 44  1  0  0  0
 44115  1  0  0  0
 45 46  2  0  0  0
 45116  1  0  0  0
 46117  1  0  0  0
 47118  1  0  0  0
 47119  1  0  0  0
 48 56  1  0  0  0
 48 65  1  0  0  0
 48120  1  0  0  0
 49 50  1  0  0  0
 49 53  1  0  0  0
 49 64  1  0  0  0
 49121  1  0  0  0
 50 51  1  0  0  0
 50122  1  0  0  0
 50123  1  0  0  0
 51 52  1  0  0  0
 51124  1  0  0  0
 51125  1  0  0  0
 52126  1  0  0  0
 52127  1  0  0  0
 53 54  1  0  0  0
 54 55  2  0  0  0
 54128  1  0  0  0
 55 57  1  0  0  0
 55129  1  0  0  0
 56 69  2  0  0  0
 57 58  2  0  0  0
 57130  1  0  0  0
 58131  1  0  0  0
 59 60  1  0  0  0
 59 61  1  0  0  0
 59 62  1  0  0  0
 60132  1  0  0  0
 60133  1  0  0  0
 60134  1  0  0  0
 61135  1  0  0  0
 61136  1  0  0  0
 61137  1  0  0  0
 62138  1  0  0  0
 62139  1  0  0  0
 62140  1  0  0  0
 63 65  1  0  0  0
 63141  1  0  0  0
 63142  1  0  0  0
 63143  1  0  0  0
 64144  1  0  0  0
 65145  1  0  0  0
 68 80  1  0  0  0
 71 72  2  0  0  0
 71 78  1  0  0  0
 71 82  1  0  0  0
 72 83  1  0  0  0
 72 86  1  0  0  0
 73 82  2  0  0  0
 73 84  1  0  0  0
 73 86  1  0  0  0
 74 81  1  0  0  0
 74 83  1  0  0  0
 74 85  2  0  0  0
 75 78  1  0  0  0
 75146  1  0  0  0
 75147  1  0  0  0
 75148  1  0  0  0
 76149  1  0  0  0
 76150  1  0  0  0
 76151  1  0  0  0
 76 81  1  0  0  0
 77 81  1  0  0  0
 77152  1  0  0  0
 77153  1  0  0  0
 77154  1  0  0  0
 78155  1  0  0  0
 78156  1  0  0  0
 79 80  1  0  0  0
 79 81  1  0  0  0
 79157  1  0  0  0
 79158  1  0  0  0
 80159  1  0  0  0
 80160  1  0  0  0
 83161  1  0  0  0
 84162  1  0  0  0
M  ISO  4   1 100  68 101  80 101  84 100
M  END
> <chiral flag>
0

> <version>
0

> <s_m_source_file>
/data/baiqing/PycharmProjects/Reinvent-master-3.2/result/LINK_invent/BTK/process_docking_weight1_custom_product_contain_oxygen_bond_distance_aromatic_linkinvent_7_9_3/rearranged_h_0180.sdf

> <i_m_source_file_index>
33

> <r_mmod_Potential_Energy-OPLS-2005>
-83.2781066894531

> <r_mmod_Stretch_Energy-OPLS-2005>
49.0943641662598

> <r_mmod_Bend_Energy-OPLS-2005>
136.165878295898

> <r_mmod_Torsional_Energy-OPLS-2005>
257.685974121094

> <r_mmod_Improper_Torsional_Energy-OPLS-2005>
8.0727367401123

> <r_mmod_Van_der_Waal_Energy-OPLS-2005>
138.674301147461

> <r_mmod_Electrostatic_Energy-OPLS-2005>
-461.154937744141

> <r_mmod_Solvation_Energy-OPLS-2005>
-235.513275146484

> <b_mmod_Minimization_Converged-OPLS-2005>
0

> <r_mmod_RMS_Derivative-OPLS-2005>
2.4482364654541

$$$$
33
                    3D
 Structure written by MMmdl.
161168  0  0  1  0            999 V2000
  -30.5564  -15.0062   20.4202 C   0  0  0  0  0  0
  -30.4287  -12.6204   19.5282 C   0  0  0  0  0  0
  -29.5252  -12.5334   18.2772 C   0  0  0  0  0  0
  -28.0628  -12.3085   18.6965 C   0  0  0  0  0  0
  -27.6265  -13.2598   19.8410 C   0  0  2  0  0  0
  -28.6624  -13.3353   20.9855 C   0  0  0  0  0  0
  -25.2443  -13.8239   20.5753 C   0  0  0  0  0  0
  -24.1768  -13.0437   20.9238 C   0  0  0  0  0  0
  -24.6398  -11.6926   20.8765 C   0  0  0  0  0  0
  -23.9091  -10.4292   21.0408 C   0  0  0  0  0  0
  -24.3635   -9.4205   21.9188 C   0  0  0  0  0  0
  -23.6302   -8.2244   22.0759 C   0  0  0  0  0  0
  -22.4286   -8.0284   21.3544 C   0  0  0  0  0  0
  -21.9923   -9.0258   20.4652 C   0  0  0  0  0  0
  -22.7262  -10.2130   20.3055 C   0  0  0  0  0  0
  -21.6860   -6.0741   22.5284 C   0  0  0  0  0  0
  -21.4012   -6.5646   23.8216 C   0  0  0  0  0  0
  -21.3655   -5.6796   24.9181 C   0  0  0  0  0  0
  -21.6046   -4.3060   24.7229 C   0  0  0  0  0  0
  -21.8819   -3.8153   23.4350 C   0  0  0  0  0  0
  -21.9190   -4.6968   22.3407 C   0  0  0  0  0  0
  -22.7793  -13.5205   21.1892 C   0  0  0  0  0  0
  -22.1666   -4.2154   21.0983 F   0  0  0  0  0  0
  -21.5619   -3.4542   25.7739 F   0  0  0  0  0  0
  -29.9382  -13.7474   20.3880 N   0  0  0  0  0  0
  -26.2875  -12.9493   20.3281 N   0  0  0  0  0  0
  -25.9334  -11.6614   20.5762 N   0  0  0  0  0  0
  -22.0440  -12.8185   22.0439 N   0  0  0  0  0  0
  -25.4106  -15.1968   20.4200 N   0  0  0  0  0  0
  -31.7388  -15.0063   20.0711 O   0  0  0  0  0  0
  -21.6644   -6.8881   21.4244 O   0  0  0  0  0  0
  -22.3474  -14.5502   20.6735 O   0  0  0  0  0  0
  -24.6456  -31.8376   23.1810 C   0  0  0  0  0  0
  -25.9223  -32.4657   23.8225 C   0  0  1  0  0  0
  -27.2235  -27.0922   20.1591 C   0  0  0  0  0  0
  -25.5971  -33.8475   24.2144 N   0  0  0  0  0  0
  -23.4524  -30.4515   21.5270 C   0  0  2  0  0  0
  -24.9036  -28.8647   20.1010 C   0  0  0  0  0  0
  -22.7589  -29.4510   22.4834 C   0  0  0  0  0  0
  -18.0308  -28.1380   22.8491 C   0  0  0  0  0  0
  -24.1500  -36.7229   23.2650 C   0  0  0  0  0  0
  -26.0079  -30.6969   21.3844 C   0  0  0  0  0  0
  -26.0765  -29.3022   20.7289 C   0  0  0  0  0  0
  -27.2290  -28.4271   20.7444 C   0  0  0  0  0  0
  -26.0316  -26.7632   19.4797 C   0  0  0  0  0  0
  -24.8971  -27.6136   19.4603 C   0  0  0  0  0  0
  -23.6796  -29.7715   20.1469 C   0  0  0  0  0  0
  -25.4128  -36.3009   24.0318 C   0  0  1  0  0  0
  -20.5926  -28.3726   23.1228 C   0  0  2  0  0  0
  -20.6789  -26.9421   22.5414 C   0  0  0  0  0  0
  -19.5766  -26.6367   21.5218 C   0  0  0  0  0  0
  -18.1940  -26.7931   22.1617 C   0  0  0  0  0  0
  -19.1570  -28.8867   23.2844 C   0  0  0  0  0  0
  -18.9488  -30.1463   23.8860 C   0  0  0  0  0  0
  -17.6486  -30.6581   24.0558 C   0  0  0  0  0  0
  -25.9088  -34.9397   23.5034 C   0  0  0  0  0  0
  -16.5372  -29.9080   23.6330 C   0  0  0  0  0  0
  -16.7294  -28.6494   23.0360 C   0  0  0  0  0  0
  -26.4539  -31.6548   25.0694 C   0  0  0  0  0  0
  -25.3722  -31.3760   26.1384 C   0  0  0  0  0  0
  -27.0386  -30.2938   24.6304 C   0  0  0  0  0  0
  -27.6059  -32.4329   25.7478 C   0  0  0  0  0  0
  -27.5560  -37.1761   24.8466 C   0  0  0  0  0  0
  -21.4274  -29.3037   22.3596 N   0  0  0  0  0  0
  -26.4266  -37.3741   23.9423 N   0  0  0  0  0  0
  -24.7215  -31.0198   22.0854 N   0  0  0  0  0  0
  -23.4213  -28.8080   23.3016 O   0  0  0  0  0  0
  -28.2725  -26.1036   20.3282 O   0  0  0  0  0  0
  -26.5662  -34.8910   22.4615 O   0  0  0  0  0  0
  -23.5566  -32.1266   23.7019 O   0  0  0  0  0  0
  -28.2061  -23.1691   20.3366 C   0  0  0  0  0  0
  -29.1918  -19.1190   20.6990 C   0  0  0  0  0  0
  -31.0835  -17.8144   22.9837 C   0  0  0  0  0  0
  -32.7987  -17.5817   21.1521 C   0  0  0  0  0  0
  -29.2207  -21.8432   22.2794 C   0  0  0  0  0  0
  -30.7136  -22.5365   20.4356 C   0  0  0  0  0  0
  -28.4706  -24.6897   19.6602 C   0  0  0  0  0  0
  -30.2330  -17.8034   20.5241 C   0  0  1  0  0  0
  -31.4105  -18.1385   21.5119 C   0  0  0  0  0  0
  -29.3169  -21.9595   20.7393 C   0  0  0  0  0  0
  -29.3968  -20.4454   20.1868 N   0  0  0  0  0  0
  -29.8543  -16.2410   20.6537 N   0  0  0  0  0  0
  -27.0230  -22.8948   20.5631 O   0  0  0  0  0  0
  -28.2192  -18.9232   21.4285 O   0  0  0  0  0  0
  -31.4674  -12.7488   19.2225 H   0  0  0  0  0  0
  -30.4064  -11.6795   20.0812 H   0  0  0  0  0  0
  -29.8535  -11.7228   17.6261 H   0  0  0  0  0  0
  -29.6106  -13.4529   17.6963 H   0  0  0  0  0  0
  -27.9779  -11.2743   19.0331 H   0  0  0  0  0  0
  -27.3964  -12.4055   17.8387 H   0  0  0  0  0  0
  -27.5775  -14.2516   19.3904 H   0  0  0  0  0  0
  -28.7562  -12.3784   21.5003 H   0  0  0  0  0  0
  -28.3501  -14.0615   21.7371 H   0  0  0  0  0  0
  -25.2762   -9.5686   22.4787 H   0  0  0  0  0  0
  -24.0008   -7.4634   22.7476 H   0  0  0  0  0  0
  -21.0859   -8.8780   19.8959 H   0  0  0  0  0  0
  -22.3717  -10.9673   19.6177 H   0  0  0  0  0  0
  -21.2009   -7.6154   23.9722 H   0  0  0  0  0  0
  -21.1474   -6.0528   25.9081 H   0  0  0  0  0  0
  -22.0599   -2.7615   23.2851 H   0  0  0  0  0  0
  -22.4053  -11.9843   22.4825 H   0  0  0  0  0  0
  -21.1058  -13.1211   22.2646 H   0  0  0  0  0  0
  -24.6435  -15.8492   20.5374 H   0  0  0  0  0  0
  -26.2607  -15.6405   20.0962 H   0  0  0  0  0  0
  -26.7288  -32.5240   23.0946 H   0  0  0  0  0  0
  -25.0153  -33.9606   25.0318 H   0  0  0  0  0  0
  -22.7572  -31.2781   21.3664 H   0  0  0  0  0  0
  -23.3768  -35.9551   23.3290 H   0  0  0  0  0  0
  -24.3595  -36.8883   22.2067 H   0  0  0  0  0  0
  -23.7256  -37.6422   23.6697 H   0  0  0  0  0  0
  -26.1679  -31.4492   20.6102 H   0  0  0  0  0  0
  -26.8776  -30.7496   22.0278 H   0  0  0  0  0  0
  -28.1150  -28.7505   21.2723 H   0  0  0  0  0  0
  -25.9400  -25.7940   19.0116 H   0  0  0  0  0  0
  -23.9990  -27.2723   18.9637 H   0  0  0  0  0  0
  -23.8174  -30.5443   19.3893 H   0  0  0  0  0  0
  -22.7927  -29.2157   19.8349 H   0  0  0  0  0  0
  -25.1328  -36.1802   25.0808 H   0  0  0  0  0  0
  -21.0007  -28.3307   24.1344 H   0  0  0  0  0  0
  -20.5678  -26.2335   23.3643 H   0  0  0  0  0  0
  -21.6652  -26.7413   22.1208 H   0  0  0  0  0  0
  -19.6945  -25.6275   21.1254 H   0  0  0  0  0  0
  -19.6699  -27.3172   20.6741 H   0  0  0  0  0  0
  -17.4221  -26.6689   21.4005 H   0  0  0  0  0  0
  -18.0313  -26.0067   22.8997 H   0  0  0  0  0  0
  -19.7972  -30.7292   24.2190 H   0  0  0  0  0  0
  -17.5046  -31.6258   24.5180 H   0  0  0  0  0  0
  -15.5374  -30.2974   23.7674 H   0  0  0  0  0  0
  -15.8691  -28.0801   22.7084 H   0  0  0  0  0  0
  -24.5933  -30.7072   25.7724 H   0  0  0  0  0  0
  -24.8873  -32.2938   26.4709 H   0  0  0  0  0  0
  -25.8010  -30.9020   27.0221 H   0  0  0  0  0  0
  -26.2983  -29.6671   24.1318 H   0  0  0  0  0  0
  -27.3987  -29.7253   25.4890 H   0  0  0  0  0  0
  -27.8919  -30.4169   23.9633 H   0  0  0  0  0  0
  -27.2649  -33.3671   26.1949 H   0  0  0  0  0  0
  -28.3906  -32.6809   25.0326 H   0  0  0  0  0  0
  -28.0676  -31.8522   26.5469 H   0  0  0  0  0  0
  -28.2559  -38.0071   24.7494 H   0  0  0  0  0  0
  -28.1055  -36.2592   24.6277 H   0  0  0  0  0  0
  -27.2276  -37.1391   25.8871 H   0  0  0  0  0  0
  -20.9480  -29.8728   21.6751 H   0  0  0  0  0  0
  -26.0109  -38.2801   24.1435 H   0  0  0  0  0  0
  -31.8742  -18.1714   23.6446 H   0  0  0  0  0  0
  -30.9815  -16.7422   23.1489 H   0  0  0  0  0  0
  -30.1570  -18.2887   23.3084 H   0  0  0  0  0  0
  -33.5810  -18.1586   21.6471 H   0  0  0  0  0  0
  -32.9939  -17.6228   20.0801 H   0  0  0  0  0  0
  -32.9317  -16.5573   21.4948 H   0  0  0  0  0  0
  -29.2883  -22.8177   22.7650 H   0  0  0  0  0  0
  -30.0201  -21.2262   22.6909 H   0  0  0  0  0  0
  -28.2746  -21.3980   22.5904 H   0  0  0  0  0  0
  -30.8579  -23.5113   20.9056 H   0  0  0  0  0  0
  -30.8749  -22.6618   19.3633 H   0  0  0  0  0  0
  -31.5081  -21.8915   20.8143 H   0  0  0  0  0  0
  -27.8854  -24.7018   18.7391 H   0  0  0  0  0  0
  -29.5017  -24.6815   19.3103 H   0  0  0  0  0  0
  -30.6107  -17.9055   19.5052 H   0  0  0  0  0  0
  -31.5625  -19.2198   21.4708 H   0  0  0  0  0  0
  -30.0458  -20.4082   19.4120 H   0  0  0  0  0  0
  -28.8894  -16.1040   20.9158 H   0  0  0  0  0  0
  1 25  1  0  0  0
  1 30  2  0  0  0
  1 82  1  0  0  0
  2  3  1  0  0  0
  2 25  1  0  0  0
  2 85  1  0  0  0
  2 86  1  0  0  0
  3  4  1  0  0  0
  3 87  1  0  0  0
  3 88  1  0  0  0
  4  5  1  0  0  0
  4 89  1  0  0  0
  4 90  1  0  0  0
  5  6  1  0  0  0
  5 26  1  0  0  0
  5 91  1  0  0  0
  6 25  1  0  0  0
  6 92  1  0  0  0
  6 93  1  0  0  0
  7  8  2  0  0  0
  7 26  1  0  0  0
  7 29  1  0  0  0
  8  9  1  0  0  0
  8 22  1  0  0  0
  9 10  1  0  0  0
  9 27  2  0  0  0
 10 11  2  0  0  0
 10 15  1  0  0  0
 11 12  1  0  0  0
 11 94  1  0  0  0
 12 13  2  0  0  0
 12 95  1  0  0  0
 13 14  1  0  0  0
 13 31  1  0  0  0
 14 15  2  0  0  0
 14 96  1  0  0  0
 15 97  1  0  0  0
 16 17  2  0  0  0
 16 21  1  0  0  0
 16 31  1  0  0  0
 17 18  1  0  0  0
 17 98  1  0  0  0
 18 19  2  0  0  0
 18 99  1  0  0  0
 19 20  1  0  0  0
 19 24  1  0  0  0
 20 21  2  0  0  0
 20100  1  0  0  0
 21 23  1  0  0  0
 22 28  1  0  0  0
 22 32  2  0  0  0
 26 27  1  0  0  0
 28101  1  0  0  0
 28102  1  0  0  0
 29103  1  0  0  0
 29104  1  0  0  0
 33 34  1  0  0  0
 33 66  1  0  0  0
 33 70  2  0  0  0
 34 36  1  0  0  0
 34 59  1  0  0  0
 34105  1  0  0  0
 35 44  2  0  0  0
 35 45  1  0  0  0
 35 68  1  0  0  0
 36 56  1  0  0  0
 36106  1  0  0  0
 37 39  1  0  0  0
 37 47  1  0  0  0
 37 66  1  0  0  0
 37107  1  0  0  0
 38 43  2  0  0  0
 38 46  1  0  0  0
 38 47  1  0  0  0
 39 64  1  0  0  0
 39 67  2  0  0  0
 40 52  1  0  0  0
 40 53  2  0  0  0
 40 58  1  0  0  0
 41108  1  0  0  0
 41109  1  0  0  0
 41110  1  0  0  0
 41 48  1  0  0  0
 42 43  1  0  0  0
 42 66  1  0  0  0
 42111  1  0  0  0
 42112  1  0  0  0
 43 44  1  0  0  0
 44113  1  0  0  0
 45 46  2  0  0  0
 45114  1  0  0  0
 46115  1  0  0  0
 47116  1  0  0  0
 47117  1  0  0  0
 48 56  1  0  0  0
 48 65  1  0  0  0
 48118  1  0  0  0
 49 50  1  0  0  0
 49 53  1  0  0  0
 49 64  1  0  0  0
 49119  1  0  0  0
 50 51  1  0  0  0
 50120  1  0  0  0
 50121  1  0  0  0
 51 52  1  0  0  0
 51122  1  0  0  0
 51123  1  0  0  0
 52124  1  0  0  0
 52125  1  0  0  0
 53 54  1  0  0  0
 54 55  2  0  0  0
 54126  1  0  0  0
 55 57  1  0  0  0
 55127  1  0  0  0
 56 69  2  0  0  0
 57 58  2  0  0  0
 57128  1  0  0  0
 58129  1  0  0  0
 59 60  1  0  0  0
 59 61  1  0  0  0
 59 62  1  0  0  0
 60130  1  0  0  0
 60131  1  0  0  0
 60132  1  0  0  0
 61133  1  0  0  0
 61134  1  0  0  0
 61135  1  0  0  0
 62136  1  0  0  0
 62137  1  0  0  0
 62138  1  0  0  0
 63 65  1  0  0  0
 63139  1  0  0  0
 63140  1  0  0  0
 63141  1  0  0  0
 64142  1  0  0  0
 65143  1  0  0  0
 68 77  1  0  0  0
 71 77  1  0  0  0
 71 80  1  0  0  0
 71 83  2  0  0  0
 72 78  1  0  0  0
 72 81  1  0  0  0
 72 84  2  0  0  0
 73144  1  0  0  0
 73145  1  0  0  0
 73146  1  0  0  0
 73 79  1  0  0  0
 74 79  1  0  0  0
 74147  1  0  0  0
 74148  1  0  0  0
 74149  1  0  0  0
 75150  1  0  0  0
 75151  1  0  0  0
 75152  1  0  0  0
 75 80  1  0  0  0
 76 80  1  0  0  0
 76153  1  0  0  0
 76154  1  0  0  0
 76155  1  0  0  0
 77156  1  0  0  0
 77157  1  0  0  0
 78 79  1  0  0  0
 78 82  1  0  0  0
 78158  1  0  0  0
 79159  1  0  0  0
 80 81  1  0  0  0
 81160  1  0  0  0
 82161  1  0  0  0
M  ISO  4   1 100  68 101  77 101  82 100
M  END
> <chiral flag>
0

> <version>
0

> <s_m_source_file>
/data/baiqing/PycharmProjects/Reinvent-master-3.2/result/LINK_invent/BTK/process_docking_weight1_custom_product_contain_oxygen_bond_distance_aromatic_linkinvent_7_9_3/rearranged_h_0180.sdf

> <i_m_source_file_index>
34

> <r_mmod_Potential_Energy-OPLS-2005>
632.601928710938

> <r_mmod_Stretch_Energy-OPLS-2005>
339.054473876953

> <r_mmod_Bend_Energy-OPLS-2005>
364.933166503906

> <r_mmod_Torsional_Energy-OPLS-2005>
267.023010253906

> <r_mmod_Improper_Torsional_Energy-OPLS-2005>
6.57243633270264

> <r_mmod_Van_der_Waal_Energy-OPLS-2005>
112.659477233887

> <r_mmod_Electrostatic_Energy-OPLS-2005>
-443.262481689453

> <r_mmod_Solvation_Energy-OPLS-2005>
-249.138137817383

> <b_mmod_Minimization_Converged-OPLS-2005>
0

> <r_mmod_RMS_Derivative-OPLS-2005>
2.36835074424744

$$$$
34
                    3D
 Structure written by MMmdl.
149157  0  0  1  0            999 V2000
  -30.5752  -14.7281   20.4598 C   0  0  0  0  0  0
  -30.4427  -12.4393   19.4638 C   0  0  0  0  0  0
  -29.5137  -12.5024   18.2298 C   0  0  0  0  0  0
  -28.0399  -12.3205   18.6459 C   0  0  0  0  0  0
  -27.6452  -13.2161   19.8501 C   0  0  2  0  0  0
  -28.6896  -13.1207   20.9849 C   0  0  0  0  0  0
  -25.2537  -13.8157   20.5664 C   0  0  0  0  0  0
  -24.1816  -13.0426   20.9198 C   0  0  0  0  0  0
  -24.6379  -11.6895   20.8732 C   0  0  0  0  0  0
  -23.9052  -10.4277   21.0404 C   0  0  0  0  0  0
  -24.3609   -9.4199   21.9182 C   0  0  0  0  0  0
  -23.6276   -8.2239   22.0759 C   0  0  0  0  0  0
  -22.4263   -8.0270   21.3546 C   0  0  0  0  0  0
  -21.9897   -9.0243   20.4648 C   0  0  0  0  0  0
  -22.7226  -10.2119   20.3050 C   0  0  0  0  0  0
  -21.6854   -6.0723   22.5275 C   0  0  0  0  0  0
  -21.4013   -6.5633   23.8206 C   0  0  0  0  0  0
  -21.3658   -5.6787   24.9172 C   0  0  0  0  0  0
  -21.6047   -4.3050   24.7226 C   0  0  0  0  0  0
  -21.8815   -3.8138   23.4350 C   0  0  0  0  0  0
  -21.9189   -4.6950   22.3405 C   0  0  0  0  0  0
  -22.7846  -13.5226   21.1870 C   0  0  0  0  0  0
  -22.1658   -4.2134   21.0984 F   0  0  0  0  0  0
  -21.5629   -3.4538   25.7744 F   0  0  0  0  0  0
  -29.9940  -13.4820   20.4119 N   0  0  0  0  0  0
  -26.2947  -12.9328   20.3254 N   0  0  0  0  0  0
  -25.9303  -11.6489   20.5729 N   0  0  0  0  0  0
  -22.0474  -12.8217   22.0415 N   0  0  0  0  0  0
  -25.4231  -15.1888   20.4076 N   0  0  0  0  0  0
  -31.7625  -14.8726   20.1465 O   0  0  0  0  0  0
  -21.6636   -6.8864   21.4237 O   0  0  0  0  0  0
  -22.3534  -14.5531   20.6712 O   0  0  0  0  0  0
  -24.6293  -31.8564   23.1971 C   0  0  0  0  0  0
  -25.9126  -32.4762   23.8320 C   0  0  1  0  0  0
  -27.2268  -27.2864   20.1326 C   0  0  0  0  0  0
  -25.5939  -33.8566   24.2264 N   0  0  0  0  0  0
  -23.4251  -30.4757   21.5411 C   0  0  2  0  0  0
  -24.8738  -28.9186   20.1163 C   0  0  0  0  0  0
  -22.7488  -29.4599   22.4926 C   0  0  0  0  0  0
  -18.0289  -28.1398   22.8482 C   0  0  0  0  0  0
  -24.1497  -36.7282   23.2642 C   0  0  0  0  0  0
  -25.9674  -30.7781   21.3710 C   0  0  0  0  0  0
  -26.0432  -29.3998   20.7183 C   0  0  0  0  0  0
  -27.2266  -28.5982   20.7081 C   0  0  0  0  0  0
  -26.0350  -26.8538   19.5183 C   0  0  0  0  0  0
  -24.8727  -27.6527   19.5060 C   0  0  0  0  0  0
  -23.6417  -29.8019   20.1596 C   0  0  0  0  0  0
  -25.4122  -36.3072   24.0334 C   0  0  1  0  0  0
  -20.5888  -28.3698   23.1287 C   0  0  2  0  0  0
  -20.6785  -26.9420   22.5411 C   0  0  0  0  0  0
  -19.5758  -26.6382   21.5221 C   0  0  0  0  0  0
  -18.1931  -26.7941   22.1616 C   0  0  0  0  0  0
  -19.1540  -28.8862   23.2882 C   0  0  0  0  0  0
  -18.9464  -30.1467   23.8898 C   0  0  0  0  0  0
  -17.6467  -30.6599   24.0561 C   0  0  0  0  0  0
  -25.9050  -34.9445   23.5094 C   0  0  0  0  0  0
  -16.5360  -29.9094   23.6337 C   0  0  0  0  0  0
  -16.7274  -28.6519   23.0352 C   0  0  0  0  0  0
  -26.4507  -31.6588   25.0707 C   0  0  0  0  0  0
  -25.3733  -31.3728   26.1428 C   0  0  0  0  0  0
  -27.0378  -30.3020   24.6167 C   0  0  0  0  0  0
  -27.6057  -32.4340   25.7485 C   0  0  0  0  0  0
  -27.5588  -37.1784   24.8464 C   0  0  0  0  0  0
  -21.4196  -29.3054   22.3683 N   0  0  0  0  0  0
  -26.4295  -37.3769   23.9416 N   0  0  0  0  0  0
  -24.6932  -31.0544   22.0935 N   0  0  0  0  0  0
  -23.4203  -28.8136   23.3014 O   0  0  0  0  0  0
  -28.3408  -26.4296   20.1198 O   0  0  0  0  0  0
  -26.5612  -34.8921   22.4654 O   0  0  0  0  0  0
  -23.5445  -32.1376   23.7285 O   0  0  0  0  0  0
  -29.3845  -19.8171   20.2169 C   0  0  0  0  0  0
  -30.6784  -19.4209   20.5449 C   0  0  0  0  0  0
  -29.7949  -17.2576   20.5053 C   0  0  0  0  0  0
  -29.0872  -22.4602   20.3259 C   0  0  0  0  0  0
  -28.8099  -21.1688   19.8856 C   0  0  0  0  0  0
  -28.5206  -23.8008   19.7844 C   0  0  0  0  0  0
  -28.2098  -25.0604   20.7122 C   0  0  0  0  0  0
  -30.8915  -18.0181   20.6866 N   0  0  0  0  0  0
  -31.7743  -20.2714   20.6973 N   0  0  0  0  0  0
  -29.7076  -15.7888   20.6495 N   0  0  0  0  0  0
  -28.3027  -23.9499   18.5767 O   0  0  0  0  0  0
  -27.8818  -21.0383   18.9228 O   0  0  0  0  0  0
  -28.3926  -18.3276   20.1562 S   0  0  0  0  0  0
  -31.4826  -12.5773   19.1632 H   0  0  0  0  0  0
  -30.3947  -11.4536   19.9296 H   0  0  0  0  0  0
  -29.7952  -11.7339   17.5086 H   0  0  0  0  0  0
  -29.6381  -13.4595   17.7211 H   0  0  0  0  0  0
  -27.9051  -11.2711   18.9123 H   0  0  0  0  0  0
  -27.3778  -12.5050   17.7987 H   0  0  0  0  0  0
  -27.6441  -14.2394   19.4749 H   0  0  0  0  0  0
  -28.7204  -12.1118   21.3984 H   0  0  0  0  0  0
  -28.4233  -13.7755   21.8162 H   0  0  0  0  0  0
  -25.2750   -9.5680   22.4763 H   0  0  0  0  0  0
  -23.9979   -7.4638   22.7489 H   0  0  0  0  0  0
  -21.0826   -8.8757   19.8957 H   0  0  0  0  0  0
  -22.3679  -10.9659   19.6160 H   0  0  0  0  0  0
  -21.2004   -7.6138   23.9703 H   0  0  0  0  0  0
  -21.1490   -6.0524   25.9073 H   0  0  0  0  0  0
  -22.0595   -2.7595   23.2858 H   0  0  0  0  0  0
  -22.4070  -11.9873   22.4806 H   0  0  0  0  0  0
  -21.1098  -13.1262   22.2619 H   0  0  0  0  0  0
  -24.6454  -15.8325   20.5088 H   0  0  0  0  0  0
  -26.2467  -15.6288   20.0199 H   0  0  0  0  0  0
  -26.7195  -32.5418   23.1064 H   0  0  0  0  0  0
  -25.0142  -33.9711   25.0448 H   0  0  0  0  0  0
  -22.7207  -31.2962   21.3907 H   0  0  0  0  0  0
  -23.3773  -35.9592   23.3276 H   0  0  0  0  0  0
  -24.3596  -36.8927   22.2061 H   0  0  0  0  0  0
  -23.7228  -37.6467   23.6682 H   0  0  0  0  0  0
  -26.0998  -31.5373   20.5995 H   0  0  0  0  0  0
  -26.8483  -30.8309   21.9991 H   0  0  0  0  0  0
  -28.1299  -28.9680   21.1720 H   0  0  0  0  0  0
  -26.0005  -25.8804   19.0494 H   0  0  0  0  0  0
  -23.9759  -27.2760   19.0346 H   0  0  0  0  0  0
  -23.7609  -30.5750   19.3996 H   0  0  0  0  0  0
  -22.7622  -29.2297   19.8580 H   0  0  0  0  0  0
  -25.1295  -36.1915   25.0826 H   0  0  0  0  0  0
  -20.9974  -28.3275   24.1414 H   0  0  0  0  0  0
  -20.5710  -26.2302   23.3613 H   0  0  0  0  0  0
  -21.6646  -26.7454   22.1184 H   0  0  0  0  0  0
  -19.6923  -25.6289   21.1267 H   0  0  0  0  0  0
  -19.6713  -27.3183   20.6746 H   0  0  0  0  0  0
  -17.4203  -26.6709   21.4015 H   0  0  0  0  0  0
  -18.0308  -26.0086   22.9009 H   0  0  0  0  0  0
  -19.7945  -30.7288   24.2262 H   0  0  0  0  0  0
  -17.5021  -31.6281   24.5157 H   0  0  0  0  0  0
  -15.5362  -30.3000   23.7671 H   0  0  0  0  0  0
  -15.8672  -28.0843   22.7069 H   0  0  0  0  0  0
  -24.5921  -30.7064   25.7749 H   0  0  0  0  0  0
  -24.8911  -32.2897   26.4832 H   0  0  0  0  0  0
  -25.8048  -30.8920   27.0215 H   0  0  0  0  0  0
  -26.2960  -29.6745   24.1210 H   0  0  0  0  0  0
  -27.4125  -29.7297   25.4663 H   0  0  0  0  0  0
  -27.8797  -30.4340   23.9366 H   0  0  0  0  0  0
  -27.2662  -33.3660   26.2020 H   0  0  0  0  0  0
  -28.3886  -32.6868   25.0323 H   0  0  0  0  0  0
  -28.0703  -31.8494   26.5435 H   0  0  0  0  0  0
  -28.2560  -38.0120   24.7539 H   0  0  0  0  0  0
  -28.1126  -36.2648   24.6246 H   0  0  0  0  0  0
  -27.2307  -37.1368   25.8864 H   0  0  0  0  0  0
  -20.9382  -29.8790   21.6892 H   0  0  0  0  0  0
  -26.0176  -38.2838   24.1426 H   0  0  0  0  0  0
  -29.8080  -22.5715   21.1229 H   0  0  0  0  0  0
  -28.8741  -25.0086   21.5746 H   0  0  0  0  0  0
  -27.2024  -24.9348   21.1097 H   0  0  0  0  0  0
  -31.7087  -21.2229   20.3552 H   0  0  0  0  0  0
  -32.7087  -19.8788   20.6621 H   0  0  0  0  0  0
  -28.7668  -15.4659   20.8064 H   0  0  0  0  0  0
  -27.7990  -20.1149   18.7212 H   0  0  0  0  0  0
  1 25  1  0  0  0
  1 30  2  0  0  0
  1 80  1  0  0  0
  2  3  1  0  0  0
  2 25  1  0  0  0
  2 84  1  0  0  0
  2 85  1  0  0  0
  3  4  1  0  0  0
  3 86  1  0  0  0
  3 87  1  0  0  0
  4  5  1  0  0  0
  4 88  1  0  0  0
  4 89  1  0  0  0
  5  6  1  0  0  0
  5 26  1  0  0  0
  5 90  1  0  0  0
  6 25  1  0  0  0
  6 91  1  0  0  0
  6 92  1  0  0  0
  7  8  2  0  0  0
  7 26  1  0  0  0
  7 29  1  0  0  0
  8  9  1  0  0  0
  8 22  1  0  0  0
  9 10  1  0  0  0
  9 27  2  0  0  0
 10 11  2  0  0  0
 10 15  1  0  0  0
 11 12  1  0  0  0
 11 93  1  0  0  0
 12 13  2  0  0  0
 12 94  1  0  0  0
 13 14  1  0  0  0
 13 31  1  0  0  0
 14 15  2  0  0  0
 14 95  1  0  0  0
 15 96  1  0  0  0
 16 17  2  0  0  0
 16 21  1  0  0  0
 16 31  1  0  0  0
 17 18  1  0  0  0
 17 97  1  0  0  0
 18 19  2  0  0  0
 18 98  1  0  0  0
 19 20  1  0  0  0
 19 24  1  0  0  0
 20 21  2  0  0  0
 20 99  1  0  0  0
 21 23  1  0  0  0
 22 28  1  0  0  0
 22 32  2  0  0  0
 26 27  1  0  0  0
 28100  1  0  0  0
 28101  1  0  0  0
 29102  1  0  0  0
 29103  1  0  0  0
 33 34  1  0  0  0
 33 66  1  0  0  0
 33 70  2  0  0  0
 34 36  1  0  0  0
 34 59  1  0  0  0
 34104  1  0  0  0
 35 44  2  0  0  0
 35 45  1  0  0  0
 35 68  1  0  0  0
 36 56  1  0  0  0
 36105  1  0  0  0
 37 39  1  0  0  0
 37 47  1  0  0  0
 37 66  1  0  0  0
 37106  1  0  0  0
 38 43  2  0  0  0
 38 46  1  0  0  0
 38 47  1  0  0  0
 39 64  1  0  0  0
 39 67  2  0  0  0
 40 52  1  0  0  0
 40 53  2  0  0  0
 40 58  1  0  0  0
 41107  1  0  0  0
 41108  1  0  0  0
 41109  1  0  0  0
 41 48  1  0  0  0
 42 43  1  0  0  0
 42 66  1  0  0  0
 42110  1  0  0  0
 42111  1  0  0  0
 43 44  1  0  0  0
 44112  1  0  0  0
 45 46  2  0  0  0
 45113  1  0  0  0
 46114  1  0  0  0
 47115  1  0  0  0
 47116  1  0  0  0
 48 56  1  0  0  0
 48 65  1  0  0  0
 48117  1  0  0  0
 49 50  1  0  0  0
 49 53  1  0  0  0
 49 64  1  0  0  0
 49118  1  0  0  0
 50 51  1  0  0  0
 50119  1  0  0  0
 50120  1  0  0  0
 51 52  1  0  0  0
 51121  1  0  0  0
 51122  1  0  0  0
 52123  1  0  0  0
 52124  1  0  0  0
 53 54  1  0  0  0
 54 55  2  0  0  0
 54125  1  0  0  0
 55 57  1  0  0  0
 55126  1  0  0  0
 56 69  2  0  0  0
 57 58  2  0  0  0
 57127  1  0  0  0
 58128  1  0  0  0
 59 60  1  0  0  0
 59 61  1  0  0  0
 59 62  1  0  0  0
 60129  1  0  0  0
 60130  1  0  0  0
 60131  1  0  0  0
 61132  1  0  0  0
 61133  1  0  0  0
 61134  1  0  0  0
 62135  1  0  0  0
 62136  1  0  0  0
 62137  1  0  0  0
 63 65  1  0  0  0
 63138  1  0  0  0
 63139  1  0  0  0
 63140  1  0  0  0
 64141  1  0  0  0
 65142  1  0  0  0
 68 77  1  0  0  0
 71 72  2  0  0  0
 71 75  1  0  0  0
 71 83  1  0  0  0
 72 78  1  0  0  0
 72 79  1  0  0  0
 73 78  2  0  0  0
 73 80  1  0  0  0
 73 83  1  0  0  0
 74 75  2  0  0  0
 74 76  1  0  0  0
 74143  1  0  0  0
 75 82  1  0  0  0
 76 77  1  0  0  0
 76 81  2  0  0  0
 77144  1  0  0  0
 77145  1  0  0  0
 79146  1  0  0  0
 79147  1  0  0  0
 80148  1  0  0  0
 82149  1  0  0  0
M  ISO  4   1 100  68 101  77 101  80 100
M  END
> <chiral flag>
0

> <version>
0

> <s_m_source_file>
/data/baiqing/PycharmProjects/Reinvent-master-3.2/result/LINK_invent/BTK/process_docking_weight1_custom_product_contain_oxygen_bond_distance_aromatic_linkinvent_7_9_3/rearranged_h_0180.sdf

> <i_m_source_file_index>
35

> <r_mmod_Potential_Energy-OPLS-2005>
83.5674514770508

> <r_mmod_Stretch_Energy-OPLS-2005>
105.239738464355

> <r_mmod_Bend_Energy-OPLS-2005>
160.800979614258

> <r_mmod_Torsional_Energy-OPLS-2005>
243.487777709961

> <r_mmod_Improper_Torsional_Energy-OPLS-2005>
8.58896636962891

> <r_mmod_Van_der_Waal_Energy-OPLS-2005>
113.768623352051

> <r_mmod_Electrostatic_Energy-OPLS-2005>
-348.193542480469

> <r_mmod_Solvation_Energy-OPLS-2005>
-272.93310546875

> <b_mmod_Minimization_Converged-OPLS-2005>
0

> <r_mmod_RMS_Derivative-OPLS-2005>
1.5338237285614

$$$$
35
                    3D
 Structure written by MMmdl.
152160  0  0  1  0            999 V2000
  -30.7018  -14.4299   20.5173 C   0  0  0  0  0  0
  -30.4192  -12.2520   19.4360 C   0  0  0  0  0  0
  -29.4971  -12.4405   18.2127 C   0  0  0  0  0  0
  -28.0105  -12.3543   18.6158 C   0  0  0  0  0  0
  -27.6621  -13.1977   19.8714 C   0  0  2  0  0  0
  -28.7017  -12.9788   20.9965 C   0  0  0  0  0  0
  -25.2582  -13.8145   20.5656 C   0  0  0  0  0  0
  -24.1824  -13.0442   20.9175 C   0  0  0  0  0  0
  -24.6362  -11.6902   20.8734 C   0  0  0  0  0  0
  -23.9023  -10.4290   21.0413 C   0  0  0  0  0  0
  -24.3585   -9.4198   21.9182 C   0  0  0  0  0  0
  -23.6269   -8.2234   22.0748 C   0  0  0  0  0  0
  -22.4255   -8.0270   21.3542 C   0  0  0  0  0  0
  -21.9882   -9.0243   20.4645 C   0  0  0  0  0  0
  -22.7206  -10.2122   20.3051 C   0  0  0  0  0  0
  -21.6851   -6.0728   22.5280 C   0  0  0  0  0  0
  -21.4018   -6.5643   23.8212 C   0  0  0  0  0  0
  -21.3660   -5.6794   24.9170 C   0  0  0  0  0  0
  -21.6036   -4.3054   24.7221 C   0  0  0  0  0  0
  -21.8825   -3.8145   23.4344 C   0  0  0  0  0  0
  -21.9195   -4.6959   22.3396 C   0  0  0  0  0  0
  -22.7849  -13.5257   21.1847 C   0  0  0  0  0  0
  -22.1671   -4.2149   21.0971 F   0  0  0  0  0  0
  -21.5608   -3.4537   25.7731 F   0  0  0  0  0  0
  -30.0384  -13.2492   20.4448 N   0  0  0  0  0  0
  -26.3009  -12.9295   20.3328 N   0  0  0  0  0  0
  -25.9280  -11.6473   20.5757 N   0  0  0  0  0  0
  -22.0476  -12.8249   22.0394 N   0  0  0  0  0  0
  -25.4333  -15.1860   20.4068 N   0  0  0  0  0  0
  -31.8643  -14.5867   20.1323 O   0  0  0  0  0  0
  -21.6619   -6.8866   21.4245 O   0  0  0  0  0  0
  -22.3542  -14.5568   20.6694 O   0  0  0  0  0  0
  -24.6085  -31.8717   23.2132 C   0  0  0  0  0  0
  -25.8999  -32.4846   23.8416 C   0  0  1  0  0  0
  -27.2371  -27.4847   20.1026 C   0  0  0  0  0  0
  -25.5877  -33.8644   24.2352 N   0  0  0  0  0  0
  -23.3947  -30.4933   21.5517 C   0  0  2  0  0  0
  -24.8437  -28.9628   20.1168 C   0  0  0  0  0  0
  -22.7382  -29.4666   22.5012 C   0  0  0  0  0  0
  -18.0263  -28.1372   22.8496 C   0  0  0  0  0  0
  -24.1486  -36.7330   23.2640 C   0  0  0  0  0  0
  -25.9164  -30.8551   21.3561 C   0  0  0  0  0  0
  -25.9979  -29.4915   20.7082 C   0  0  0  0  0  0
  -27.2006  -28.7593   20.6964 C   0  0  0  0  0  0
  -26.0729  -26.9544   19.5069 C   0  0  0  0  0  0
  -24.8727  -27.6912   19.5143 C   0  0  0  0  0  0
  -23.6016  -29.8218   20.1665 C   0  0  0  0  0  0
  -25.4104  -36.3129   24.0345 C   0  0  1  0  0  0
  -20.5847  -28.3646   23.1348 C   0  0  2  0  0  0
  -20.6751  -26.9391   22.5428 C   0  0  0  0  0  0
  -19.5735  -26.6382   21.5215 C   0  0  0  0  0  0
  -18.1912  -26.7922   22.1622 C   0  0  0  0  0  0
  -19.1512  -28.8828   23.2919 C   0  0  0  0  0  0
  -18.9442  -30.1435   23.8921 C   0  0  0  0  0  0
  -17.6447  -30.6582   24.0561 C   0  0  0  0  0  0
  -25.9024  -34.9491   23.5143 C   0  0  0  0  0  0
  -16.5335  -29.9081   23.6321 C   0  0  0  0  0  0
  -16.7255  -28.6497   23.0345 C   0  0  0  0  0  0
  -26.4452  -31.6607   25.0722 C   0  0  0  0  0  0
  -25.3746  -31.3688   26.1486 C   0  0  0  0  0  0
  -27.0274  -30.3064   24.6047 C   0  0  0  0  0  0
  -27.6046  -32.4315   25.7477 C   0  0  0  0  0  0
  -27.5583  -37.1820   24.8466 C   0  0  0  0  0  0
  -21.4116  -29.3019   22.3762 N   0  0  0  0  0  0
  -26.4300  -37.3805   23.9408 N   0  0  0  0  0  0
  -24.6578  -31.0861   22.1003 N   0  0  0  0  0  0
  -23.4179  -28.8206   23.3037 O   0  0  0  0  0  0
  -28.4101  -26.7830   20.0980 O   0  0  0  0  0  0
  -26.5581  -34.8933   22.4701 O   0  0  0  0  0  0
  -23.5291  -32.1438   23.7556 O   0  0  0  0  0  0
  -29.2203  -18.4869   18.9022 C   0  0  0  0  0  0
  -29.3661  -17.7904   17.7236 C   0  0  0  0  0  0
  -29.7168  -16.4679   19.7724 C   0  0  0  0  0  0
  -29.0092  -19.9364   18.9178 C   0  0  0  0  0  0
  -29.0326  -20.7463   19.9876 C   0  0  0  0  0  0
  -29.0404  -24.4548   20.1125 C   0  0  0  0  0  0
  -28.9846  -23.0560   20.7615 C   0  0  0  0  0  0
  -28.3668  -25.5889   20.8785 C   0  0  0  0  0  0
  -29.3870  -17.7298   20.0728 N   0  0  0  0  0  0
  -29.2562  -18.2365   16.4078 N   0  0  0  0  0  0
  -29.9306  -15.4929   20.7758 N   0  0  0  0  0  0
  -28.9008  -22.1196   19.8115 N   0  0  0  0  0  0
  -29.5782  -24.6451   19.0117 O   0  0  0  0  0  0
  -29.0368  -22.8474   21.9789 O   0  0  0  0  0  0
  -29.7901  -16.1387   18.0336 S   0  0  0  0  0  0
  -31.4661  -12.3347   19.1377 H   0  0  0  0  0  0
  -30.3053  -11.2481   19.8482 H   0  0  0  0  0  0
  -29.7189  -11.6800   17.4639 H   0  0  0  0  0  0
  -29.6982  -13.3931   17.7293 H   0  0  0  0  0  0
  -27.7846  -11.3043   18.8045 H   0  0  0  0  0  0
  -27.3765  -12.6522   17.7801 H   0  0  0  0  0  0
  -27.7059  -14.2427   19.5671 H   0  0  0  0  0  0
  -28.6585  -11.9493   21.3560 H   0  0  0  0  0  0
  -28.4805  -13.6032   21.8639 H   0  0  0  0  0  0
  -25.2730   -9.5673   22.4762 H   0  0  0  0  0  0
  -23.9984   -7.4615   22.7453 H   0  0  0  0  0  0
  -21.0813   -8.8746   19.8950 H   0  0  0  0  0  0
  -22.3654  -10.9651   19.6154 H   0  0  0  0  0  0
  -21.2020   -7.6159   23.9721 H   0  0  0  0  0  0
  -21.1484   -6.0513   25.9072 H   0  0  0  0  0  0
  -22.0607   -2.7613   23.2826 H   0  0  0  0  0  0
  -22.4064  -11.9912   22.4809 H   0  0  0  0  0  0
  -21.1108  -13.1300   22.2603 H   0  0  0  0  0  0
  -24.6704  -15.8440   20.5262 H   0  0  0  0  0  0
  -26.2829  -15.6241   20.0761 H   0  0  0  0  0  0
  -26.7077  -32.5585   23.1198 H   0  0  0  0  0  0
  -25.0044  -33.9819   25.0504 H   0  0  0  0  0  0
  -22.6802  -31.3068   21.4127 H   0  0  0  0  0  0
  -23.3742  -35.9671   23.3322 H   0  0  0  0  0  0
  -24.3581  -36.8919   22.2051 H   0  0  0  0  0  0
  -23.7246  -37.6548   23.6635 H   0  0  0  0  0  0
  -26.0156  -31.6223   20.5862 H   0  0  0  0  0  0
  -26.8092  -30.9152   21.9669 H   0  0  0  0  0  0
  -28.0956  -29.1643   21.1473 H   0  0  0  0  0  0
  -26.0962  -25.9821   19.0351 H   0  0  0  0  0  0
  -23.9841  -27.2788   19.0561 H   0  0  0  0  0  0
  -23.7043  -30.5939   19.4036 H   0  0  0  0  0  0
  -22.7290  -29.2343   19.8752 H   0  0  0  0  0  0
  -25.1279  -36.2005   25.0840 H   0  0  0  0  0  0
  -20.9941  -28.3202   24.1465 H   0  0  0  0  0  0
  -20.5657  -26.2250   23.3602 H   0  0  0  0  0  0
  -21.6625  -26.7445   22.1214 H   0  0  0  0  0  0
  -19.6892  -25.6296   21.1238 H   0  0  0  0  0  0
  -19.6682  -27.3205   20.6756 H   0  0  0  0  0  0
  -17.4187  -26.6681   21.4017 H   0  0  0  0  0  0
  -18.0307  -26.0061   22.9013 H   0  0  0  0  0  0
  -19.7914  -30.7241   24.2307 H   0  0  0  0  0  0
  -17.5000  -31.6272   24.5148 H   0  0  0  0  0  0
  -15.5333  -30.2987   23.7639 H   0  0  0  0  0  0
  -15.8655  -28.0828   22.7044 H   0  0  0  0  0  0
  -24.5908  -30.7044   25.7825 H   0  0  0  0  0  0
  -24.8943  -32.2834   26.4981 H   0  0  0  0  0  0
  -25.8119  -30.8825   27.0215 H   0  0  0  0  0  0
  -26.2791  -29.6839   24.1128 H   0  0  0  0  0  0
  -27.4098  -29.7285   25.4472 H   0  0  0  0  0  0
  -27.8604  -30.4408   23.9141 H   0  0  0  0  0  0
  -27.2676  -33.3599   26.2103 H   0  0  0  0  0  0
  -28.3826  -32.6901   25.0282 H   0  0  0  0  0  0
  -28.0747  -31.8409   26.5349 H   0  0  0  0  0  0
  -28.2614  -38.0105   24.7503 H   0  0  0  0  0  0
  -28.1063  -36.2636   24.6299 H   0  0  0  0  0  0
  -27.2304  -37.1487   25.8871 H   0  0  0  0  0  0
  -20.9263  -29.8748   21.6995 H   0  0  0  0  0  0
  -26.0196  -38.2893   24.1390 H   0  0  0  0  0  0
  -28.8374  -20.3810   17.9480 H   0  0  0  0  0  0
  -29.1767  -20.4104   21.0070 H   0  0  0  0  0  0
  -28.8955  -25.7532   21.8179 H   0  0  0  0  0  0
  -27.3478  -25.2902   21.1294 H   0  0  0  0  0  0
  -28.9697  -19.1771   16.1519 H   0  0  0  0  0  0
  -29.3443  -17.6272   15.5995 H   0  0  0  0  0  0
  -29.1290  -15.3162   21.3600 H   0  0  0  0  0  0
  -28.8810  -22.4773   18.8647 H   0  0  0  0  0  0
  1 25  1  0  0  0
  1 30  2  0  0  0
  1 81  1  0  0  0
  2  3  1  0  0  0
  2 25  1  0  0  0
  2 86  1  0  0  0
  2 87  1  0  0  0
  3  4  1  0  0  0
  3 88  1  0  0  0
  3 89  1  0  0  0
  4  5  1  0  0  0
  4 90  1  0  0  0
  4 91  1  0  0  0
  5  6  1  0  0  0
  5 26  1  0  0  0
  5 92  1  0  0  0
  6 25  1  0  0  0
  6 93  1  0  0  0
  6 94  1  0  0  0
  7  8  2  0  0  0
  7 26  1  0  0  0
  7 29  1  0  0  0
  8  9  1  0  0  0
  8 22  1  0  0  0
  9 10  1  0  0  0
  9 27  2  0  0  0
 10 11  2  0  0  0
 10 15  1  0  0  0
 11 12  1  0  0  0
 11 95  1  0  0  0
 12 13  2  0  0  0
 12 96  1  0  0  0
 13 14  1  0  0  0
 13 31  1  0  0  0
 14 15  2  0  0  0
 14 97  1  0  0  0
 15 98  1  0  0  0
 16 17  2  0  0  0
 16 21  1  0  0  0
 16 31  1  0  0  0
 17 18  1  0  0  0
 17 99  1  0  0  0
 18 19  2  0  0  0
 18100  1  0  0  0
 19 20  1  0  0  0
 19 24  1  0  0  0
 20 21  2  0  0  0
 20101  1  0  0  0
 21 23  1  0  0  0
 22 28  1  0  0  0
 22 32  2  0  0  0
 26 27  1  0  0  0
 28102  1  0  0  0
 28103  1  0  0  0
 29104  1  0  0  0
 29105  1  0  0  0
 33 34  1  0  0  0
 33 66  1  0  0  0
 33 70  2  0  0  0
 34 36  1  0  0  0
 34 59  1  0  0  0
 34106  1  0  0  0
 35 44  2  0  0  0
 35 45  1  0  0  0
 35 68  1  0  0  0
 36 56  1  0  0  0
 36107  1  0  0  0
 37 39  1  0  0  0
 37 47  1  0  0  0
 37 66  1  0  0  0
 37108  1  0  0  0
 38 43  2  0  0  0
 38 46  1  0  0  0
 38 47  1  0  0  0
 39 64  1  0  0  0
 39 67  2  0  0  0
 40 52  1  0  0  0
 40 53  2  0  0  0
 40 58  1  0  0  0
 41109  1  0  0  0
 41110  1  0  0  0
 41111  1  0  0  0
 41 48  1  0  0  0
 42 43  1  0  0  0
 42 66  1  0  0  0
 42112  1  0  0  0
 42113  1  0  0  0
 43 44  1  0  0  0
 44114  1  0  0  0
 45 46  2  0  0  0
 45115  1  0  0  0
 46116  1  0  0  0
 47117  1  0  0  0
 47118  1  0  0  0
 48 56  1  0  0  0
 48 65  1  0  0  0
 48119  1  0  0  0
 49 50  1  0  0  0
 49 53  1  0  0  0
 49 64  1  0  0  0
 49120  1  0  0  0
 50 51  1  0  0  0
 50121  1  0  0  0
 50122  1  0  0  0
 51 52  1  0  0  0
 51123  1  0  0  0
 51124  1  0  0  0
 52125  1  0  0  0
 52126  1  0  0  0
 53 54  1  0  0  0
 54 55  2  0  0  0
 54127  1  0  0  0
 55 57  1  0  0  0
 55128  1  0  0  0
 56 69  2  0  0  0
 57 58  2  0  0  0
 57129  1  0  0  0
 58130  1  0  0  0
 59 60  1  0  0  0
 59 61  1  0  0  0
 59 62  1  0  0  0
 60131  1  0  0  0
 60132  1  0  0  0
 60133  1  0  0  0
 61134  1  0  0  0
 61135  1  0  0  0
 61136  1  0  0  0
 62137  1  0  0  0
 62138  1  0  0  0
 62139  1  0  0  0
 63 65  1  0  0  0
 63140  1  0  0  0
 63141  1  0  0  0
 63142  1  0  0  0
 64143  1  0  0  0
 65144  1  0  0  0
 68 78  1  0  0  0
 71 72  2  0  0  0
 71 74  1  0  0  0
 71 79  1  0  0  0
 72 80  1  0  0  0
 72 85  1  0  0  0
 73 79  2  0  0  0
 73 81  1  0  0  0
 73 85  1  0  0  0
 74 75  2  0  0  0
 74145  1  0  0  0
 75 82  1  0  0  0
 75146  1  0  0  0
 76 77  1  0  0  0
 76 78  1  0  0  0
 76 83  2  0  0  0
 77 82  1  0  0  0
 77 84  2  0  0  0
 78147  1  0  0  0
 78148  1  0  0  0
 80149  1  0  0  0
 80150  1  0  0  0
 81151  1  0  0  0
 82152  1  0  0  0
M  ISO  4   1 100  68 101  78 101  81 100
M  END
> <chiral flag>
0

> <version>
0

> <s_m_source_file>
/data/baiqing/PycharmProjects/Reinvent-master-3.2/result/LINK_invent/BTK/process_docking_weight1_custom_product_contain_oxygen_bond_distance_aromatic_linkinvent_7_9_3/rearranged_h_0180.sdf

> <i_m_source_file_index>
36

> <r_mmod_Potential_Energy-OPLS-2005>
8.87460899353027

> <r_mmod_Stretch_Energy-OPLS-2005>
30.0782279968262

> <r_mmod_Bend_Energy-OPLS-2005>
100.228507995605

> <r_mmod_Torsional_Energy-OPLS-2005>
279.458435058594

> <r_mmod_Improper_Torsional_Energy-OPLS-2005>
10.4969625473022

> <r_mmod_Van_der_Waal_Energy-OPLS-2005>
130.692596435547

> <r_mmod_Electrostatic_Energy-OPLS-2005>
-299.307464599609

> <r_mmod_Solvation_Energy-OPLS-2005>
-255.796539306641

> <b_mmod_Minimization_Converged-OPLS-2005>
0

> <r_mmod_RMS_Derivative-OPLS-2005>
1.49183320999146

$$$$
36
                    3D
 Structure written by MMmdl.
159167  0  0  1  0            999 V2000
  -30.6225  -14.6773   20.4969 C   0  0  0  0  0  0
  -30.4409  -12.4155   19.4604 C   0  0  0  0  0  0
  -29.5096  -12.5035   18.2301 C   0  0  0  0  0  0
  -28.0341  -12.3355   18.6437 C   0  0  0  0  0  0
  -27.6511  -13.2182   19.8605 C   0  0  2  0  0  0
  -28.6976  -13.1017   20.9924 C   0  0  0  0  0  0
  -25.2563  -13.8172   20.5707 C   0  0  0  0  0  0
  -24.1832  -13.0437   20.9217 C   0  0  0  0  0  0
  -24.6394  -11.6906   20.8746 C   0  0  0  0  0  0
  -23.9059  -10.4289   21.0396 C   0  0  0  0  0  0
  -24.3612   -9.4211   21.9178 C   0  0  0  0  0  0
  -23.6298   -8.2237   22.0742 C   0  0  0  0  0  0
  -22.4278   -8.0273   21.3535 C   0  0  0  0  0  0
  -21.9913   -9.0243   20.4636 C   0  0  0  0  0  0
  -22.7229  -10.2131   20.3049 C   0  0  0  0  0  0
  -21.6859   -6.0732   22.5279 C   0  0  0  0  0  0
  -21.4007   -6.5640   23.8213 C   0  0  0  0  0  0
  -21.3659   -5.6793   24.9176 C   0  0  0  0  0  0
  -21.6046   -4.3052   24.7228 C   0  0  0  0  0  0
  -21.8821   -3.8148   23.4348 C   0  0  0  0  0  0
  -21.9193   -4.6962   22.3400 C   0  0  0  0  0  0
  -22.7856  -13.5229   21.1887 C   0  0  0  0  0  0
  -22.1668   -4.2145   21.0983 F   0  0  0  0  0  0
  -21.5630   -3.4536   25.7742 F   0  0  0  0  0  0
  -30.0089  -13.4497   20.4249 N   0  0  0  0  0  0
  -26.2981  -12.9352   20.3311 N   0  0  0  0  0  0
  -25.9322  -11.6504   20.5759 N   0  0  0  0  0  0
  -22.0505  -12.8192   22.0425 N   0  0  0  0  0  0
  -25.4287  -15.1891   20.4106 N   0  0  0  0  0  0
  -31.7982  -14.8103   20.1425 O   0  0  0  0  0  0
  -21.6643   -6.8870   21.4236 O   0  0  0  0  0  0
  -22.3537  -14.5538   20.6745 O   0  0  0  0  0  0
  -24.6278  -31.8579   23.2002 C   0  0  0  0  0  0
  -25.9114  -32.4782   23.8352 C   0  0  1  0  0  0
  -27.2349  -27.3016   20.1341 C   0  0  0  0  0  0
  -25.5921  -33.8579   24.2271 N   0  0  0  0  0  0
  -23.4252  -30.4795   21.5399 C   0  0  2  0  0  0
  -24.8757  -28.9262   20.1139 C   0  0  0  0  0  0
  -22.7487  -29.4617   22.4898 C   0  0  0  0  0  0
  -18.0289  -28.1410   22.8504 C   0  0  0  0  0  0
  -24.1479  -36.7293   23.2636 C   0  0  0  0  0  0
  -25.9666  -30.7839   21.3723 C   0  0  0  0  0  0
  -26.0434  -29.4063   20.7210 C   0  0  0  0  0  0
  -27.2263  -28.6079   20.7183 C   0  0  0  0  0  0
  -26.0464  -26.8752   19.5000 C   0  0  0  0  0  0
  -24.8801  -27.6668   19.4924 C   0  0  0  0  0  0
  -23.6456  -29.8117   20.1562 C   0  0  0  0  0  0
  -25.4100  -36.3082   24.0332 C   0  0  1  0  0  0
  -20.5895  -28.3710   23.1282 C   0  0  2  0  0  0
  -20.6789  -26.9430   22.5416 C   0  0  0  0  0  0
  -19.5760  -26.6406   21.5227 C   0  0  0  0  0  0
  -18.1935  -26.7956   22.1633 C   0  0  0  0  0  0
  -19.1547  -28.8877   23.2895 C   0  0  0  0  0  0
  -18.9472  -30.1475   23.8919 C   0  0  0  0  0  0
  -17.6478  -30.6613   24.0578 C   0  0  0  0  0  0
  -25.9049  -34.9452   23.5105 C   0  0  0  0  0  0
  -16.5367  -29.9120   23.6339 C   0  0  0  0  0  0
  -16.7279  -28.6535   23.0367 C   0  0  0  0  0  0
  -26.4501  -31.6597   25.0720 C   0  0  0  0  0  0
  -25.3743  -31.3755   26.1457 C   0  0  0  0  0  0
  -27.0331  -30.3021   24.6156 C   0  0  0  0  0  0
  -27.6060  -32.4321   25.7500 C   0  0  0  0  0  0
  -27.5574  -37.1797   24.8455 C   0  0  0  0  0  0
  -21.4196  -29.3061   22.3666 N   0  0  0  0  0  0
  -26.4273  -37.3778   23.9423 N   0  0  0  0  0  0
  -24.6918  -31.0581   22.0950 N   0  0  0  0  0  0
  -23.4204  -28.8143   23.2976 O   0  0  0  0  0  0
  -28.3545  -26.4531   20.1419 O   0  0  0  0  0  0
  -26.5608  -34.8930   22.4666 O   0  0  0  0  0  0
  -23.5442  -32.1374   23.7330 O   0  0  0  0  0  0
  -29.6728  -19.7449   20.2777 C   0  0  0  0  0  0
  -30.9689  -19.2829   20.4544 C   0  0  0  0  0  0
  -29.9563  -17.1998   20.6412 C   0  0  0  0  0  0
  -29.1081  -23.9543   19.8909 C   0  0  0  0  0  0
  -28.8737  -21.4549   15.7965 C   0  0  0  0  0  0
  -28.1673  -25.0351   20.5737 C   0  0  0  0  0  0
  -28.4904  -21.6929   17.2612 C   0  0  0  0  0  0
  -29.5748  -21.1911   18.2311 C   0  0  0  0  0  0
  -29.1612  -21.1310   19.7261 C   0  0  2  0  0  0
  -29.3827  -22.5143   20.5460 C   0  0  1  0  0  0
  -31.1130  -17.8852   20.6540 N   0  0  0  0  0  0
  -32.1146  -20.0683   20.3651 N   0  0  0  0  0  0
  -29.8087  -15.7461   20.7949 N   0  0  0  0  0  0
  -29.7117  -24.2791   18.8617 O   0  0  0  0  0  0
  -30.6537  -22.5078   20.9573 F   0  0  0  0  0  0
  -28.5876  -18.3421   20.4527 S   0  0  0  0  0  0
  -31.4803  -12.5438   19.1549 H   0  0  0  0  0  0
  -30.3848  -11.4262   19.9169 H   0  0  0  0  0  0
  -29.7799  -11.7407   17.4986 H   0  0  0  0  0  0
  -29.6443  -13.4655   17.7322 H   0  0  0  0  0  0
  -27.8800  -11.2841   18.8909 H   0  0  0  0  0  0
  -27.3769  -12.5476   17.7997 H   0  0  0  0  0  0
  -27.6610  -14.2473   19.5013 H   0  0  0  0  0  0
  -28.7190  -12.0882   21.3950 H   0  0  0  0  0  0
  -28.4378  -13.7487   21.8316 H   0  0  0  0  0  0
  -25.2758   -9.5694   22.4749 H   0  0  0  0  0  0
  -24.0024   -7.4621   22.7450 H   0  0  0  0  0  0
  -21.0853   -8.8742   19.8935 H   0  0  0  0  0  0
  -22.3678  -10.9659   19.6156 H   0  0  0  0  0  0
  -21.1990   -7.6146   23.9713 H   0  0  0  0  0  0
  -21.1483   -6.0524   25.9082 H   0  0  0  0  0  0
  -22.0597   -2.7608   23.2849 H   0  0  0  0  0  0
  -22.4142  -11.9843   22.4780 H   0  0  0  0  0  0
  -21.1118  -13.1174   22.2646 H   0  0  0  0  0  0
  -24.6584  -15.8406   20.5142 H   0  0  0  0  0  0
  -26.2624  -15.6212   20.0341 H   0  0  0  0  0  0
  -26.7172  -32.5447   23.1098 H   0  0  0  0  0  0
  -25.0106  -33.9731   25.0446 H   0  0  0  0  0  0
  -22.7217  -31.3014   21.3936 H   0  0  0  0  0  0
  -23.3754  -35.9609   23.3274 H   0  0  0  0  0  0
  -24.3585  -36.8936   22.2054 H   0  0  0  0  0  0
  -23.7217  -37.6485   23.6675 H   0  0  0  0  0  0
  -26.0977  -31.5418   20.5992 H   0  0  0  0  0  0
  -26.8484  -30.8404   21.9987 H   0  0  0  0  0  0
  -28.1240  -28.9768   21.1946 H   0  0  0  0  0  0
  -26.0134  -25.9176   19.0020 H   0  0  0  0  0  0
  -23.9891  -27.2973   19.0027 H   0  0  0  0  0  0
  -23.7778  -30.5895   19.4026 H   0  0  0  0  0  0
  -22.7644  -29.2475   19.8446 H   0  0  0  0  0  0
  -25.1284  -36.1927   25.0822 H   0  0  0  0  0  0
  -21.0011  -28.3286   24.1394 H   0  0  0  0  0  0
  -20.5721  -26.2313   23.3616 H   0  0  0  0  0  0
  -21.6652  -26.7473   22.1190 H   0  0  0  0  0  0
  -19.6909  -25.6314   21.1268 H   0  0  0  0  0  0
  -19.6703  -27.3215   20.6755 H   0  0  0  0  0  0
  -17.4214  -26.6726   21.4024 H   0  0  0  0  0  0
  -18.0308  -26.0106   22.9035 H   0  0  0  0  0  0
  -19.7946  -30.7291   24.2295 H   0  0  0  0  0  0
  -17.5034  -31.6292   24.5176 H   0  0  0  0  0  0
  -15.5371  -30.3040   23.7649 H   0  0  0  0  0  0
  -15.8676  -28.0869   22.7066 H   0  0  0  0  0  0
  -24.5903  -30.7107   25.7821 H   0  0  0  0  0  0
  -24.8955  -32.2933   26.4874 H   0  0  0  0  0  0
  -25.8079  -30.8961   27.0240 H   0  0  0  0  0  0
  -26.2889  -29.6782   24.1192 H   0  0  0  0  0  0
  -27.4057  -29.7267   25.4638 H   0  0  0  0  0  0
  -27.8751  -30.4331   23.9354 H   0  0  0  0  0  0
  -27.2681  -33.3644   26.2043 H   0  0  0  0  0  0
  -28.3901  -32.6837   25.0348 H   0  0  0  0  0  0
  -28.0686  -31.8457   26.5451 H   0  0  0  0  0  0
  -28.2570  -38.0120   24.7554 H   0  0  0  0  0  0
  -28.1099  -36.2658   24.6217 H   0  0  0  0  0  0
  -27.2319  -37.1363   25.8864 H   0  0  0  0  0  0
  -20.9357  -29.8817   21.6913 H   0  0  0  0  0  0
  -26.0150  -38.2845   24.1469 H   0  0  0  0  0  0
  -28.1110  -21.8515   15.1260 H   0  0  0  0  0  0
  -28.9765  -20.3896   15.5852 H   0  0  0  0  0  0
  -29.8194  -21.9368   15.5476 H   0  0  0  0  0  0
  -28.3468  -24.9956   21.6487 H   0  0  0  0  0  0
  -27.1368  -24.7139   20.4303 H   0  0  0  0  0  0
  -27.5482  -21.1824   17.4616 H   0  0  0  0  0  0
  -28.2995  -22.7531   17.4083 H   0  0  0  0  0  0
  -30.5095  -21.7399   18.1143 H   0  0  0  0  0  0
  -29.8094  -20.1772   17.9002 H   0  0  0  0  0  0
  -28.0760  -21.0301   19.7190 H   0  0  0  0  0  0
  -28.7969  -22.4675   21.4637 H   0  0  0  0  0  0
  -32.0155  -21.0764   20.4406 H   0  0  0  0  0  0
  -33.0154  -19.7037   20.6544 H   0  0  0  0  0  0
  -28.8699  -15.4583   21.0224 H   0  0  0  0  0  0
  1 25  1  0  0  0
  1 30  2  0  0  0
  1 83  1  0  0  0
  2  3  1  0  0  0
  2 25  1  0  0  0
  2 87  1  0  0  0
  2 88  1  0  0  0
  3  4  1  0  0  0
  3 89  1  0  0  0
  3 90  1  0  0  0
  4  5  1  0  0  0
  4 91  1  0  0  0
  4 92  1  0  0  0
  5  6  1  0  0  0
  5 26  1  0  0  0
  5 93  1  0  0  0
  6 25  1  0  0  0
  6 94  1  0  0  0
  6 95  1  0  0  0
  7  8  2  0  0  0
  7 26  1  0  0  0
  7 29  1  0  0  0
  8  9  1  0  0  0
  8 22  1  0  0  0
  9 10  1  0  0  0
  9 27  2  0  0  0
 10 11  2  0  0  0
 10 15  1  0  0  0
 11 12  1  0  0  0
 11 96  1  0  0  0
 12 13  2  0  0  0
 12 97  1  0  0  0
 13 14  1  0  0  0
 13 31  1  0  0  0
 14 15  2  0  0  0
 14 98  1  0  0  0
 15 99  1  0  0  0
 16 17  2  0  0  0
 16 21  1  0  0  0
 16 31  1  0  0  0
 17 18  1  0  0  0
 17100  1  0  0  0
 18 19  2  0  0  0
 18101  1  0  0  0
 19 20  1  0  0  0
 19 24  1  0  0  0
 20 21  2  0  0  0
 20102  1  0  0  0
 21 23  1  0  0  0
 22 28  1  0  0  0
 22 32  2  0  0  0
 26 27  1  0  0  0
 28103  1  0  0  0
 28104  1  0  0  0
 29105  1  0  0  0
 29106  1  0  0  0
 33 34  1  0  0  0
 33 66  1  0  0  0
 33 70  2  0  0  0
 34 36  1  0  0  0
 34 59  1  0  0  0
 34107  1  0  0  0
 35 44  2  0  0  0
 35 45  1  0  0  0
 35 68  1  0  0  0
 36 56  1  0  0  0
 36108  1  0  0  0
 37 39  1  0  0  0
 37 47  1  0  0  0
 37 66  1  0  0  0
 37109  1  0  0  0
 38 43  2  0  0  0
 38 46  1  0  0  0
 38 47  1  0  0  0
 39 64  1  0  0  0
 39 67  2  0  0  0
 40 52  1  0  0  0
 40 53  2  0  0  0
 40 58  1  0  0  0
 41110  1  0  0  0
 41111  1  0  0  0
 41112  1  0  0  0
 41 48  1  0  0  0
 42 43  1  0  0  0
 42 66  1  0  0  0
 42113  1  0  0  0
 42114  1  0  0  0
 43 44  1  0  0  0
 44115  1  0  0  0
 45 46  2  0  0  0
 45116  1  0  0  0
 46117  1  0  0  0
 47118  1  0  0  0
 47119  1  0  0  0
 48 56  1  0  0  0
 48 65  1  0  0  0
 48120  1  0  0  0
 49 50  1  0  0  0
 49 53  1  0  0  0
 49 64  1  0  0  0
 49121  1  0  0  0
 50 51  1  0  0  0
 50122  1  0  0  0
 50123  1  0  0  0
 51 52  1  0  0  0
 51124  1  0  0  0
 51125  1  0  0  0
 52126  1  0  0  0
 52127  1  0  0  0
 53 54  1  0  0  0
 54 55  2  0  0  0
 54128  1  0  0  0
 55 57  1  0  0  0
 55129  1  0  0  0
 56 69  2  0  0  0
 57 58  2  0  0  0
 57130  1  0  0  0
 58131  1  0  0  0
 59 60  1  0  0  0
 59 61  1  0  0  0
 59 62  1  0  0  0
 60132  1  0  0  0
 60133  1  0  0  0
 60134  1  0  0  0
 61135  1  0  0  0
 61136  1  0  0  0
 61137  1  0  0  0
 62138  1  0  0  0
 62139  1  0  0  0
 62140  1  0  0  0
 63 65  1  0  0  0
 63141  1  0  0  0
 63142  1  0  0  0
 63143  1  0  0  0
 64144  1  0  0  0
 65145  1  0  0  0
 68 76  1  0  0  0
 71 72  2  0  0  0
 71 79  1  0  0  0
 71 86  1  0  0  0
 72 81  1  0  0  0
 72 82  1  0  0  0
 73 81  2  0  0  0
 73 83  1  0  0  0
 73 86  1  0  0  0
 74 76  1  0  0  0
 74 80  1  0  0  0
 74 84  2  0  0  0
 75 77  1  0  0  0
 75146  1  0  0  0
 75147  1  0  0  0
 75148  1  0  0  0
 76149  1  0  0  0
 76150  1  0  0  0
 77 78  1  0  0  0
 77151  1  0  0  0
 77152  1  0  0  0
 78153  1  0  0  0
 78154  1  0  0  0
 78 79  1  0  0  0
 79 80  1  0  0  0
 79155  1  0  0  0
 80 85  1  0  0  0
 80156  1  0  0  0
 82157  1  0  0  0
 82158  1  0  0  0
 83159  1  0  0  0
M  ISO  4   1 100  68 101  76 101  83 100
M  END
> <chiral flag>
0

> <version>
0

> <s_m_source_file>
/data/baiqing/PycharmProjects/Reinvent-master-3.2/result/LINK_invent/BTK/process_docking_weight1_custom_product_contain_oxygen_bond_distance_aromatic_linkinvent_7_9_3/rearranged_h_0180.sdf

> <i_m_source_file_index>
37

> <r_mmod_Potential_Energy-OPLS-2005>
30.4075355529785

> <r_mmod_Stretch_Energy-OPLS-2005>
98.147705078125

> <r_mmod_Bend_Energy-OPLS-2005>
166.774551391602

> <r_mmod_Torsional_Energy-OPLS-2005>
230.822616577148

> <r_mmod_Improper_Torsional_Energy-OPLS-2005>
8.60246467590332

> <r_mmod_Van_der_Waal_Energy-OPLS-2005>
113.85237121582

> <r_mmod_Electrostatic_Energy-OPLS-2005>
-392.156036376953

> <r_mmod_Solvation_Energy-OPLS-2005>
-252.955871582031

> <b_mmod_Minimization_Converged-OPLS-2005>
0

> <r_mmod_RMS_Derivative-OPLS-2005>
2.10154843330383

$$$$
37
                    3D
 Structure written by MMmdl.
152160  0  0  1  0            999 V2000
  -30.6549  -14.5091   20.5092 C   0  0  0  0  0  0
  -30.4215  -12.3117   19.4321 C   0  0  0  0  0  0
  -29.5027  -12.5201   18.2099 C   0  0  0  0  0  0
  -28.0178  -12.3875   18.6077 C   0  0  0  0  0  0
  -27.6610  -13.2125   19.8744 C   0  0  2  0  0  0
  -28.6996  -12.9916   20.9969 C   0  0  0  0  0  0
  -25.2576  -13.8160   20.5685 C   0  0  0  0  0  0
  -24.1834  -13.0431   20.9178 C   0  0  0  0  0  0
  -24.6402  -11.6904   20.8689 C   0  0  0  0  0  0
  -23.9057  -10.4297   21.0395 C   0  0  0  0  0  0
  -24.3623   -9.4218   21.9177 C   0  0  0  0  0  0
  -23.6313   -8.2239   22.0736 C   0  0  0  0  0  0
  -22.4287   -8.0277   21.3525 C   0  0  0  0  0  0
  -21.9916   -9.0244   20.4637 C   0  0  0  0  0  0
  -22.7225  -10.2133   20.3047 C   0  0  0  0  0  0
  -21.6853   -6.0745   22.5276 C   0  0  0  0  0  0
  -21.4025   -6.5650   23.8220 C   0  0  0  0  0  0
  -21.3658   -5.6790   24.9167 C   0  0  0  0  0  0
  -21.6049   -4.3053   24.7207 C   0  0  0  0  0  0
  -21.8816   -3.8148   23.4330 C   0  0  0  0  0  0
  -21.9200   -4.6977   22.3389 C   0  0  0  0  0  0
  -22.7850  -13.5228   21.1843 C   0  0  0  0  0  0
  -22.1666   -4.2163   21.0965 F   0  0  0  0  0  0
  -21.5622   -3.4539   25.7724 F   0  0  0  0  0  0
  -30.0285  -13.3000   20.4499 N   0  0  0  0  0  0
  -26.3025  -12.9347   20.3336 N   0  0  0  0  0  0
  -25.9332  -11.6498   20.5701 N   0  0  0  0  0  0
  -22.0491  -12.8221   22.0411 N   0  0  0  0  0  0
  -25.4288  -15.1870   20.4122 N   0  0  0  0  0  0
  -31.8072  -14.6732   20.0967 O   0  0  0  0  0  0
  -21.6638   -6.8884   21.4239 O   0  0  0  0  0  0
  -22.3542  -14.5552   20.6703 O   0  0  0  0  0  0
  -24.6160  -31.8659   23.2098 C   0  0  0  0  0  0
  -25.9067  -32.4789   23.8380 C   0  0  1  0  0  0
  -27.2241  -27.4198   20.0984 C   0  0  0  0  0  0
  -25.5935  -33.8595   24.2317 N   0  0  0  0  0  0
  -23.4033  -30.4929   21.5473 C   0  0  2  0  0  0
  -24.8508  -28.9568   20.1108 C   0  0  0  0  0  0
  -22.7402  -29.4666   22.4944 C   0  0  0  0  0  0
  -18.0279  -28.1360   22.8485 C   0  0  0  0  0  0
  -24.1495  -36.7321   23.2630 C   0  0  0  0  0  0
  -25.9342  -30.8262   21.3660 C   0  0  0  0  0  0
  -26.0115  -29.4600   20.7130 C   0  0  0  0  0  0
  -27.2048  -28.6981   20.7053 C   0  0  0  0  0  0
  -26.0545  -26.9459   19.4680 C   0  0  0  0  0  0
  -24.8670  -27.6996   19.4837 C   0  0  0  0  0  0
  -23.6144  -29.8270   20.1611 C   0  0  0  0  0  0
  -25.4110  -36.3088   24.0323 C   0  0  1  0  0  0
  -20.5870  -28.3674   23.1303 C   0  0  2  0  0  0
  -20.6763  -26.9413   22.5400 C   0  0  0  0  0  0
  -19.5748  -26.6384   21.5183 C   0  0  0  0  0  0
  -18.1934  -26.7909   22.1604 C   0  0  0  0  0  0
  -19.1525  -28.8824   23.2900 C   0  0  0  0  0  0
  -18.9452  -30.1416   23.8922 C   0  0  0  0  0  0
  -17.6451  -30.6568   24.0564 C   0  0  0  0  0  0
  -25.9035  -34.9454   23.5102 C   0  0  0  0  0  0
  -16.5349  -29.9076   23.6306 C   0  0  0  0  0  0
  -16.7267  -28.6495   23.0343 C   0  0  0  0  0  0
  -26.4503  -31.6577   25.0717 C   0  0  0  0  0  0
  -25.3784  -31.3685   26.1475 C   0  0  0  0  0  0
  -27.0337  -30.3014   24.6097 C   0  0  0  0  0  0
  -27.6052  -32.4306   25.7515 C   0  0  0  0  0  0
  -27.5573  -37.1822   24.8456 C   0  0  0  0  0  0
  -21.4131  -29.3060   22.3707 N   0  0  0  0  0  0
  -26.4284  -37.3773   23.9391 N   0  0  0  0  0  0
  -24.6690  -31.0767   22.0991 N   0  0  0  0  0  0
  -23.4185  -28.8186   23.2964 O   0  0  0  0  0  0
  -28.3565  -26.6329   20.1089 O   0  0  0  0  0  0
  -26.5583  -34.8913   22.4654 O   0  0  0  0  0  0
  -23.5367  -32.1413   23.7504 O   0  0  0  0  0  0
  -30.2202  -17.0632   18.9497 C   0  0  0  0  0  0
  -29.8618  -16.8521   20.2621 C   0  0  0  0  0  0
  -29.4400  -19.1028   20.0985 C   0  0  0  0  0  0
  -28.7641  -22.8191   20.7533 C   0  0  0  0  0  0
  -28.9636  -21.5466   19.8615 C   0  0  0  0  0  0
  -30.5445  -24.5664   20.1907 C   0  0  0  0  0  0
  -28.1900  -25.3448   20.7496 C   0  0  0  0  0  0
  -29.0447  -24.2129   20.1168 C   0  0  2  0  0  0
  -29.3939  -18.0207   20.9036 N   0  0  0  0  0  0
  -29.8810  -15.5590   20.8806 N   0  0  0  0  0  0
  -29.0900  -20.4036   20.5744 N   0  0  0  0  0  0
  -28.4136  -22.7231   21.9358 O   0  0  0  0  0  0
  -28.9700  -21.6199   18.6273 O   0  0  0  0  0  0
  -30.0269  -18.7284   18.4751 S   0  0  0  0  0  0
  -31.4691  -12.4064   19.1416 H   0  0  0  0  0  0
  -30.3113  -11.2977   19.8198 H   0  0  0  0  0  0
  -29.7466  -11.7997   17.4291 H   0  0  0  0  0  0
  -29.6799  -13.5065   17.7784 H   0  0  0  0  0  0
  -27.8107  -11.3305   18.7767 H   0  0  0  0  0  0
  -27.3783  -12.6937   17.7784 H   0  0  0  0  0  0
  -27.7012  -14.2641   19.5850 H   0  0  0  0  0  0
  -28.6721  -11.9549   21.3370 H   0  0  0  0  0  0
  -28.4695  -13.5963   21.8743 H   0  0  0  0  0  0
  -25.2780   -9.5699   22.4739 H   0  0  0  0  0  0
  -24.0033   -7.4634   22.7456 H   0  0  0  0  0  0
  -21.0840   -8.8771   19.8947 H   0  0  0  0  0  0
  -22.3697  -10.9672   19.6149 H   0  0  0  0  0  0
  -21.2021   -7.6164   23.9724 H   0  0  0  0  0  0
  -21.1482   -6.0519   25.9077 H   0  0  0  0  0  0
  -22.0599   -2.7620   23.2812 H   0  0  0  0  0  0
  -22.4126  -11.9895   22.4801 H   0  0  0  0  0  0
  -21.1098  -13.1218   22.2594 H   0  0  0  0  0  0
  -24.6590  -15.8378   20.5310 H   0  0  0  0  0  0
  -26.2789  -15.6333   20.0892 H   0  0  0  0  0  0
  -26.7134  -32.5519   23.1137 H   0  0  0  0  0  0
  -25.0145  -33.9741   25.0504 H   0  0  0  0  0  0
  -22.6933  -31.3113   21.4066 H   0  0  0  0  0  0
  -23.3716  -35.9691   23.3294 H   0  0  0  0  0  0
  -24.3589  -36.8937   22.2044 H   0  0  0  0  0  0
  -23.7299  -37.6546   23.6649 H   0  0  0  0  0  0
  -26.0494  -31.5911   20.5964 H   0  0  0  0  0  0
  -26.8207  -30.8786   21.9856 H   0  0  0  0  0  0
  -28.1000  -29.0749   21.1793 H   0  0  0  0  0  0
  -26.0620  -25.9904   18.9624 H   0  0  0  0  0  0
  -23.9775  -27.3116   19.0053 H   0  0  0  0  0  0
  -23.7320  -30.6026   19.4029 H   0  0  0  0  0  0
  -22.7365  -29.2521   19.8603 H   0  0  0  0  0  0
  -25.1286  -36.1921   25.0811 H   0  0  0  0  0  0
  -20.9977  -28.3235   24.1410 H   0  0  0  0  0  0
  -20.5640  -26.2285   23.3589 H   0  0  0  0  0  0
  -21.6645  -26.7433   22.1214 H   0  0  0  0  0  0
  -19.6919  -25.6295   21.1212 H   0  0  0  0  0  0
  -19.6681  -27.3194   20.6718 H   0  0  0  0  0  0
  -17.4201  -26.6661   21.4011 H   0  0  0  0  0  0
  -18.0354  -26.0033   22.8995 H   0  0  0  0  0  0
  -19.7933  -30.7216   24.2336 H   0  0  0  0  0  0
  -17.5017  -31.6249   24.5167 H   0  0  0  0  0  0
  -15.5359  -30.2992   23.7586 H   0  0  0  0  0  0
  -15.8680  -28.0805   22.7045 H   0  0  0  0  0  0
  -24.5934  -30.7045   25.7834 H   0  0  0  0  0  0
  -24.9013  -32.2854   26.4954 H   0  0  0  0  0  0
  -25.8164  -30.8842   27.0213 H   0  0  0  0  0  0
  -26.2879  -29.6766   24.1159 H   0  0  0  0  0  0
  -27.4115  -29.7246   25.4553 H   0  0  0  0  0  0
  -27.8717  -30.4312   23.9235 H   0  0  0  0  0  0
  -27.2621  -33.3569   26.2130 H   0  0  0  0  0  0
  -28.3876  -32.6923   25.0381 H   0  0  0  0  0  0
  -28.0708  -31.8414   26.5424 H   0  0  0  0  0  0
  -28.2580  -38.0129   24.7468 H   0  0  0  0  0  0
  -28.1075  -36.2647   24.6299 H   0  0  0  0  0  0
  -27.2291  -37.1506   25.8863 H   0  0  0  0  0  0
  -20.9264  -29.8857   21.7006 H   0  0  0  0  0  0
  -26.0157  -38.2842   24.1365 H   0  0  0  0  0  0
  -30.5869  -16.3495   18.2245 H   0  0  0  0  0  0
  -31.1831  -23.7274   19.9142 H   0  0  0  0  0  0
  -30.8347  -24.8812   21.1948 H   0  0  0  0  0  0
  -30.7764  -25.3886   19.5120 H   0  0  0  0  0  0
  -28.4705  -25.4723   21.7958 H   0  0  0  0  0  0
  -27.1486  -25.0200   20.7713 H   0  0  0  0  0  0
  -28.7649  -24.1335   19.0659 H   0  0  0  0  0  0
  -29.0721  -15.3354   21.4393 H   0  0  0  0  0  0
  -28.9711  -20.5104   21.5717 H   0  0  0  0  0  0
  1 25  1  0  0  0
  1 30  2  0  0  0
  1 80  1  0  0  0
  2  3  1  0  0  0
  2 25  1  0  0  0
  2 85  1  0  0  0
  2 86  1  0  0  0
  3  4  1  0  0  0
  3 87  1  0  0  0
  3 88  1  0  0  0
  4  5  1  0  0  0
  4 89  1  0  0  0
  4 90  1  0  0  0
  5  6  1  0  0  0
  5 26  1  0  0  0
  5 91  1  0  0  0
  6 25  1  0  0  0
  6 92  1  0  0  0
  6 93  1  0  0  0
  7  8  2  0  0  0
  7 26  1  0  0  0
  7 29  1  0  0  0
  8  9  1  0  0  0
  8 22  1  0  0  0
  9 10  1  0  0  0
  9 27  2  0  0  0
 10 11  2  0  0  0
 10 15  1  0  0  0
 11 12  1  0  0  0
 11 94  1  0  0  0
 12 13  2  0  0  0
 12 95  1  0  0  0
 13 14  1  0  0  0
 13 31  1  0  0  0
 14 15  2  0  0  0
 14 96  1  0  0  0
 15 97  1  0  0  0
 16 17  2  0  0  0
 16 21  1  0  0  0
 16 31  1  0  0  0
 17 18  1  0  0  0
 17 98  1  0  0  0
 18 19  2  0  0  0
 18 99  1  0  0  0
 19 20  1  0  0  0
 19 24  1  0  0  0
 20 21  2  0  0  0
 20100  1  0  0  0
 21 23  1  0  0  0
 22 28  1  0  0  0
 22 32  2  0  0  0
 26 27  1  0  0  0
 28101  1  0  0  0
 28102  1  0  0  0
 29103  1  0  0  0
 29104  1  0  0  0
 33 34  1  0  0  0
 33 66  1  0  0  0
 33 70  2  0  0  0
 34 36  1  0  0  0
 34 59  1  0  0  0
 34105  1  0  0  0
 35 44  2  0  0  0
 35 45  1  0  0  0
 35 68  1  0  0  0
 36 56  1  0  0  0
 36106  1  0  0  0
 37 39  1  0  0  0
 37 47  1  0  0  0
 37 66  1  0  0  0
 37107  1  0  0  0
 38 43  2  0  0  0
 38 46  1  0  0  0
 38 47  1  0  0  0
 39 64  1  0  0  0
 39 67  2  0  0  0
 40 52  1  0  0  0
 40 53  2  0  0  0
 40 58  1  0  0  0
 41108  1  0  0  0
 41109  1  0  0  0
 41110  1  0  0  0
 41 48  1  0  0  0
 42 43  1  0  0  0
 42 66  1  0  0  0
 42111  1  0  0  0
 42112  1  0  0  0
 43 44  1  0  0  0
 44113  1  0  0  0
 45 46  2  0  0  0
 45114  1  0  0  0
 46115  1  0  0  0
 47116  1  0  0  0
 47117  1  0  0  0
 48 56  1  0  0  0
 48 65  1  0  0  0
 48118  1  0  0  0
 49 50  1  0  0  0
 49 53  1  0  0  0
 49 64  1  0  0  0
 49119  1  0  0  0
 50 51  1  0  0  0
 50120  1  0  0  0
 50121  1  0  0  0
 51 52  1  0  0  0
 51122  1  0  0  0
 51123  1  0  0  0
 52124  1  0  0  0
 52125  1  0  0  0
 53 54  1  0  0  0
 54 55  2  0  0  0
 54126  1  0  0  0
 55 57  1  0  0  0
 55127  1  0  0  0
 56 69  2  0  0  0
 57 58  2  0  0  0
 57128  1  0  0  0
 58129  1  0  0  0
 59 60  1  0  0  0
 59 61  1  0  0  0
 59 62  1  0  0  0
 60130  1  0  0  0
 60131  1  0  0  0
 60132  1  0  0  0
 61133  1  0  0  0
 61134  1  0  0  0
 61135  1  0  0  0
 62136  1  0  0  0
 62137  1  0  0  0
 62138  1  0  0  0
 63 65  1  0  0  0
 63139  1  0  0  0
 63140  1  0  0  0
 63141  1  0  0  0
 64142  1  0  0  0
 65143  1  0  0  0
 68 77  1  0  0  0
 71 72  2  0  0  0
 71 84  1  0  0  0
 71144  1  0  0  0
 72 79  1  0  0  0
 72 80  1  0  0  0
 73 79  2  0  0  0
 73 81  1  0  0  0
 73 84  1  0  0  0
 74 75  1  0  0  0
 74 78  1  0  0  0
 74 82  2  0  0  0
 75 81  1  0  0  0
 75 83  2  0  0  0
 76145  1  0  0  0
 76146  1  0  0  0
 76147  1  0  0  0
 76 78  1  0  0  0
 77 78  1  0  0  0
 77148  1  0  0  0
 77149  1  0  0  0
 78150  1  0  0  0
 80151  1  0  0  0
 81152  1  0  0  0
M  ISO  4   1 100  68 101  77 101  80 100
M  END
> <chiral flag>
0

> <version>
0

> <s_m_source_file>
/data/baiqing/PycharmProjects/Reinvent-master-3.2/result/LINK_invent/BTK/process_docking_weight1_custom_product_contain_oxygen_bond_distance_aromatic_linkinvent_7_9_3/rearranged_h_0180.sdf

> <i_m_source_file_index>
38

> <r_mmod_Potential_Energy-OPLS-2005>
-96.8323440551758

> <r_mmod_Stretch_Energy-OPLS-2005>
41.8056755065918

> <r_mmod_Bend_Energy-OPLS-2005>
97.5635070800781

> <r_mmod_Torsional_Energy-OPLS-2005>
261.438507080078

> <r_mmod_Improper_Torsional_Energy-OPLS-2005>
5.49853944778442

> <r_mmod_Van_der_Waal_Energy-OPLS-2005>
133.548797607422

> <r_mmod_Electrostatic_Energy-OPLS-2005>
-425.749481201172

> <r_mmod_Solvation_Energy-OPLS-2005>
-228.768035888672

> <b_mmod_Minimization_Converged-OPLS-2005>
0

> <r_mmod_RMS_Derivative-OPLS-2005>
3.27863049507141

$$$$
38
                    3D
 Structure written by MMmdl.
152160  0  0  1  0            999 V2000
  -30.5670  -14.8507   20.4361 C   0  0  0  0  0  0
  -30.4386  -12.5241   19.4731 C   0  0  0  0  0  0
  -29.5136  -12.5198   18.2352 C   0  0  0  0  0  0
  -28.0422  -12.3270   18.6524 C   0  0  0  0  0  0
  -27.6329  -13.2382   19.8404 C   0  0  2  0  0  0
  -28.6811  -13.2172   20.9721 C   0  0  0  0  0  0
  -25.2460  -13.8194   20.5700 C   0  0  0  0  0  0
  -24.1776  -13.0420   20.9220 C   0  0  0  0  0  0
  -24.6394  -11.6908   20.8755 C   0  0  0  0  0  0
  -23.9073  -10.4289   21.0427 C   0  0  0  0  0  0
  -24.3629   -9.4195   21.9191 C   0  0  0  0  0  0
  -23.6305   -8.2233   22.0758 C   0  0  0  0  0  0
  -22.4287   -8.0277   21.3554 C   0  0  0  0  0  0
  -21.9926   -9.0245   20.4644 C   0  0  0  0  0  0
  -22.7255  -10.2122   20.3062 C   0  0  0  0  0  0
  -21.6847   -6.0732   22.5284 C   0  0  0  0  0  0
  -21.4008   -6.5646   23.8213 C   0  0  0  0  0  0
  -21.3660   -5.6806   24.9180 C   0  0  0  0  0  0
  -21.6046   -4.3065   24.7232 C   0  0  0  0  0  0
  -21.8815   -3.8148   23.4355 C   0  0  0  0  0  0
  -21.9186   -4.6961   22.3407 C   0  0  0  0  0  0
  -22.7797  -13.5188   21.1878 C   0  0  0  0  0  0
  -22.1660   -4.2149   21.0982 F   0  0  0  0  0  0
  -21.5628   -3.4549   25.7742 F   0  0  0  0  0  0
  -29.9636  -13.6050   20.3717 N   0  0  0  0  0  0
  -26.2895  -12.9415   20.3256 N   0  0  0  0  0  0
  -25.9324  -11.6553   20.5744 N   0  0  0  0  0  0
  -22.0450  -12.8183   22.0439 N   0  0  0  0  0  0
  -25.4081  -15.1927   20.4081 N   0  0  0  0  0  0
  -31.7791  -14.9266   20.2078 O   0  0  0  0  0  0
  -21.6644   -6.8882   21.4255 O   0  0  0  0  0  0
  -22.3476  -14.5489   20.6717 O   0  0  0  0  0  0
  -24.6369  -31.8489   23.1931 C   0  0  0  0  0  0
  -25.9173  -32.4716   23.8308 C   0  0  1  0  0  0
  -27.2242  -27.1985   20.1565 C   0  0  0  0  0  0
  -25.5956  -33.8521   24.2231 N   0  0  0  0  0  0
  -23.4382  -30.4681   21.5363 C   0  0  2  0  0  0
  -24.8895  -28.8989   20.1166 C   0  0  0  0  0  0
  -22.7530  -29.4568   22.4880 C   0  0  0  0  0  0
  -18.0298  -28.1394   22.8478 C   0  0  0  0  0  0
  -24.1490  -36.7255   23.2637 C   0  0  0  0  0  0
  -25.9881  -30.7430   21.3833 C   0  0  0  0  0  0
  -26.0622  -29.3568   20.7316 C   0  0  0  0  0  0
  -27.2339  -28.5210   20.7362 C   0  0  0  0  0  0
  -26.0292  -26.8193   19.5124 C   0  0  0  0  0  0
  -24.8808  -27.6400   19.4940 C   0  0  0  0  0  0
  -23.6635  -29.7957   20.1557 C   0  0  0  0  0  0
  -25.4120  -36.3041   24.0321 C   0  0  1  0  0  0
  -20.5909  -28.3713   23.1249 C   0  0  2  0  0  0
  -20.6784  -26.9424   22.5407 C   0  0  0  0  0  0
  -19.5757  -26.6383   21.5213 C   0  0  0  0  0  0
  -18.1937  -26.7938   22.1628 C   0  0  0  0  0  0
  -19.1553  -28.8869   23.2858 C   0  0  0  0  0  0
  -18.9473  -30.1473   23.8872 C   0  0  0  0  0  0
  -17.6466  -30.6591   24.0562 C   0  0  0  0  0  0
  -25.9067  -34.9413   23.5078 C   0  0  0  0  0  0
  -16.5360  -29.9081   23.6337 C   0  0  0  0  0  0
  -16.7286  -28.6505   23.0354 C   0  0  0  0  0  0
  -26.4525  -31.6553   25.0718 C   0  0  0  0  0  0
  -25.3740  -31.3747   26.1445 C   0  0  0  0  0  0
  -27.0352  -30.2941   24.6256 C   0  0  0  0  0  0
  -27.6082  -32.4289   25.7492 C   0  0  0  0  0  0
  -27.5583  -37.1783   24.8457 C   0  0  0  0  0  0
  -21.4230  -29.3048   22.3625 N   0  0  0  0  0  0
  -26.4282  -37.3756   23.9422 N   0  0  0  0  0  0
  -24.7067  -31.0400   22.0931 N   0  0  0  0  0  0
  -23.4204  -28.8117   23.3012 O   0  0  0  0  0  0
  -28.3050  -26.2683   20.1465 O   0  0  0  0  0  0
  -26.5638  -34.8901   22.4647 O   0  0  0  0  0  0
  -23.5508  -32.1344   23.7190 O   0  0  0  0  0  0
  -30.9214  -19.7468   21.3396 C   0  0  0  0  0  0
  -29.7614  -19.8854   20.5929 C   0  0  0  0  0  0
  -30.0502  -17.4626   20.6315 C   0  0  0  0  0  0
  -28.1415  -24.8898   20.5605 C   0  0  0  0  0  0
  -28.8276  -23.7381   20.1382 C   0  0  0  0  0  0
  -28.6656  -22.3279   20.7278 C   0  0  0  0  0  0
  -31.8130  -20.8135   21.9157 C   0  0  1  0  0  0
  -32.8281  -21.3949   20.9126 C   0  0  0  0  0  0
  -29.2862  -18.5502   20.2097 N   0  0  0  0  0  0
  -29.3229  -21.2521   20.1139 N   0  0  0  0  0  0
  -29.7536  -15.9975   20.4600 N   0  0  0  0  0  0
  -27.9573  -22.1161   21.7148 O   0  0  0  0  0  0
  -29.7277  -23.8782   19.1552 O   0  0  0  0  0  0
  -31.1233  -21.8000   22.4932 F   0  0  0  0  0  0
  -33.5781  -20.4128   20.4091 F   0  0  0  0  0  0
  -32.2104  -22.0147   19.9061 F   0  0  0  0  0  0
  -33.6375  -22.2574   21.5287 F   0  0  0  0  0  0
  -31.4357  -18.0593   21.5349 S   0  0  0  0  0  0
  -31.4760  -12.6703   19.1668 H   0  0  0  0  0  0
  -30.4062  -11.5597   19.9832 H   0  0  0  0  0  0
  -29.8112  -11.7357   17.5394 H   0  0  0  0  0  0
  -29.6193  -13.4621   17.6953 H   0  0  0  0  0  0
  -27.9131  -11.2809   18.9314 H   0  0  0  0  0  0
  -27.3834  -12.4986   17.8006 H   0  0  0  0  0  0
  -27.6071  -14.2502   19.4379 H   0  0  0  0  0  0
  -28.7477  -12.2282   21.4268 H   0  0  0  0  0  0
  -28.4051  -13.9035   21.7729 H   0  0  0  0  0  0
  -25.2772   -9.5660   22.4762 H   0  0  0  0  0  0
  -24.0007   -7.4627   22.7481 H   0  0  0  0  0  0
  -21.0851   -8.8768   19.8953 H   0  0  0  0  0  0
  -22.3721  -10.9665   19.6172 H   0  0  0  0  0  0
  -21.2011   -7.6159   23.9716 H   0  0  0  0  0  0
  -21.1485   -6.0542   25.9087 H   0  0  0  0  0  0
  -22.0592   -2.7607   23.2862 H   0  0  0  0  0  0
  -22.4097  -11.9866   22.4841 H   0  0  0  0  0  0
  -21.1058  -13.1184   22.2634 H   0  0  0  0  0  0
  -24.6230  -15.8294   20.4946 H   0  0  0  0  0  0
  -26.2334  -15.6389   20.0315 H   0  0  0  0  0  0
  -26.7236  -32.5358   23.1040 H   0  0  0  0  0  0
  -25.0116  -33.9645   25.0388 H   0  0  0  0  0  0
  -22.7384  -31.2923   21.3825 H   0  0  0  0  0  0
  -23.3768  -35.9567   23.3257 H   0  0  0  0  0  0
  -24.3585  -36.8924   22.2058 H   0  0  0  0  0  0
  -23.7220  -37.6432   23.6694 H   0  0  0  0  0  0
  -26.1346  -31.4990   20.6111 H   0  0  0  0  0  0
  -26.8616  -30.7960   22.0208 H   0  0  0  0  0  0
  -28.1357  -28.8689   21.2206 H   0  0  0  0  0  0
  -25.9773  -25.8525   19.0317 H   0  0  0  0  0  0
  -23.9846  -27.2845   19.0043 H   0  0  0  0  0  0
  -23.7986  -30.5693   19.3988 H   0  0  0  0  0  0
  -22.7804  -29.2343   19.8457 H   0  0  0  0  0  0
  -25.1300  -36.1869   25.0811 H   0  0  0  0  0  0
  -21.0007  -28.3301   24.1367 H   0  0  0  0  0  0
  -20.5682  -26.2322   23.3621 H   0  0  0  0  0  0
  -21.6647  -26.7429   22.1205 H   0  0  0  0  0  0
  -19.6916  -25.6287   21.1251 H   0  0  0  0  0  0
  -19.6692  -27.3182   20.6737 H   0  0  0  0  0  0
  -17.4210  -26.6682   21.4033 H   0  0  0  0  0  0
  -18.0334  -26.0082   22.9025 H   0  0  0  0  0  0
  -19.7948  -30.7302   24.2227 H   0  0  0  0  0  0
  -17.5021  -31.6269   24.5169 H   0  0  0  0  0  0
  -15.5363  -30.2976   23.7670 H   0  0  0  0  0  0
  -15.8691  -28.0823   22.7072 H   0  0  0  0  0  0
  -24.5853  -30.7172   25.7770 H   0  0  0  0  0  0
  -24.9024  -32.2944   26.4911 H   0  0  0  0  0  0
  -25.8040  -30.8863   27.0195 H   0  0  0  0  0  0
  -26.2934  -29.6688   24.1267 H   0  0  0  0  0  0
  -27.3964  -29.7219   25.4812 H   0  0  0  0  0  0
  -27.8857  -30.4162   23.9546 H   0  0  0  0  0  0
  -27.2705  -33.3607   26.2038 H   0  0  0  0  0  0
  -28.3917  -32.6804   25.0332 H   0  0  0  0  0  0
  -28.0715  -31.8421   26.5436 H   0  0  0  0  0  0
  -28.2562  -38.0113   24.7541 H   0  0  0  0  0  0
  -28.1112  -36.2644   24.6226 H   0  0  0  0  0  0
  -27.2309  -37.1361   25.8860 H   0  0  0  0  0  0
  -20.9429  -29.8762   21.6808 H   0  0  0  0  0  0
  -26.0142  -38.2813   24.1462 H   0  0  0  0  0  0
  -27.3889  -24.8181   21.3347 H   0  0  0  0  0  0
  -32.3865  -20.3776   22.7337 H   0  0  0  0  0  0
  -29.7736  -21.5527   19.2600 H   0  0  0  0  0  0
  -28.7730  -15.7898   20.3798 H   0  0  0  0  0  0
  -29.7389  -24.7981   18.9230 H   0  0  0  0  0  0
  1 25  1  0  0  0
  1 30  2  0  0  0
  1 81  1  0  0  0
  2  3  1  0  0  0
  2 25  1  0  0  0
  2 89  1  0  0  0
  2 90  1  0  0  0
  3  4  1  0  0  0
  3 91  1  0  0  0
  3 92  1  0  0  0
  4  5  1  0  0  0
  4 93  1  0  0  0
  4 94  1  0  0  0
  5  6  1  0  0  0
  5 26  1  0  0  0
  5 95  1  0  0  0
  6 25  1  0  0  0
  6 96  1  0  0  0
  6 97  1  0  0  0
  7  8  2  0  0  0
  7 26  1  0  0  0
  7 29  1  0  0  0
  8  9  1  0  0  0
  8 22  1  0  0  0
  9 10  1  0  0  0
  9 27  2  0  0  0
 10 11  2  0  0  0
 10 15  1  0  0  0
 11 12  1  0  0  0
 11 98  1  0  0  0
 12 13  2  0  0  0
 12 99  1  0  0  0
 13 14  1  0  0  0
 13 31  1  0  0  0
 14 15  2  0  0  0
 14100  1  0  0  0
 15101  1  0  0  0
 16 17  2  0  0  0
 16 21  1  0  0  0
 16 31  1  0  0  0
 17 18  1  0  0  0
 17102  1  0  0  0
 18 19  2  0  0  0
 18103  1  0  0  0
 19 20  1  0  0  0
 19 24  1  0  0  0
 20 21  2  0  0  0
 20104  1  0  0  0
 21 23  1  0  0  0
 22 28  1  0  0  0
 22 32  2  0  0  0
 26 27  1  0  0  0
 28105  1  0  0  0
 28106  1  0  0  0
 29107  1  0  0  0
 29108  1  0  0  0
 33 34  1  0  0  0
 33 66  1  0  0  0
 33 70  2  0  0  0
 34 36  1  0  0  0
 34 59  1  0  0  0
 34109  1  0  0  0
 35 44  2  0  0  0
 35 45  1  0  0  0
 35 68  1  0  0  0
 36 56  1  0  0  0
 36110  1  0  0  0
 37 39  1  0  0  0
 37 47  1  0  0  0
 37 66  1  0  0  0
 37111  1  0  0  0
 38 43  2  0  0  0
 38 46  1  0  0  0
 38 47  1  0  0  0
 39 64  1  0  0  0
 39 67  2  0  0  0
 40 52  1  0  0  0
 40 53  2  0  0  0
 40 58  1  0  0  0
 41112  1  0  0  0
 41113  1  0  0  0
 41114  1  0  0  0
 41 48  1  0  0  0
 42 43  1  0  0  0
 42 66  1  0  0  0
 42115  1  0  0  0
 42116  1  0  0  0
 43 44  1  0  0  0
 44117  1  0  0  0
 45 46  2  0  0  0
 45118  1  0  0  0
 46119  1  0  0  0
 47120  1  0  0  0
 47121  1  0  0  0
 48 56  1  0  0  0
 48 65  1  0  0  0
 48122  1  0  0  0
 49 50  1  0  0  0
 49 53  1  0  0  0
 49 64  1  0  0  0
 49123  1  0  0  0
 50 51  1  0  0  0
 50124  1  0  0  0
 50125  1  0  0  0
 51 52  1  0  0  0
 51126  1  0  0  0
 51127  1  0  0  0
 52128  1  0  0  0
 52129  1  0  0  0
 53 54  1  0  0  0
 54 55  2  0  0  0
 54130  1  0  0  0
 55 57  1  0  0  0
 55131  1  0  0  0
 56 69  2  0  0  0
 57 58  2  0  0  0
 57132  1  0  0  0
 58133  1  0  0  0
 59 60  1  0  0  0
 59 61  1  0  0  0
 59 62  1  0  0  0
 60134  1  0  0  0
 60135  1  0  0  0
 60136  1  0  0  0
 61137  1  0  0  0
 61138  1  0  0  0
 61139  1  0  0  0
 62140  1  0  0  0
 62141  1  0  0  0
 62142  1  0  0  0
 63 65  1  0  0  0
 63143  1  0  0  0
 63144  1  0  0  0
 63145  1  0  0  0
 64146  1  0  0  0
 65147  1  0  0  0
 68 74  1  0  0  0
 71 72  2  0  0  0
 71 77  1  0  0  0
 71 88  1  0  0  0
 72 79  1  0  0  0
 72 80  1  0  0  0
 73 79  2  0  0  0
 73 81  1  0  0  0
 73 88  1  0  0  0
 74 75  2  0  0  0
 74148  1  0  0  0
 75 76  1  0  0  0
 75 83  1  0  0  0
 76 80  1  0  0  0
 76 82  2  0  0  0
 77 78  1  0  0  0
 77 84  1  0  0  0
 77149  1  0  0  0
 78 85  1  0  0  0
 78 86  1  0  0  0
 78 87  1  0  0  0
 80150  1  0  0  0
 81151  1  0  0  0
 83152  1  0  0  0
M  ISO  4   1 100  68 101  74 101  81 100
M  END
> <chiral flag>
0

> <version>
0

> <s_m_source_file>
/data/baiqing/PycharmProjects/Reinvent-master-3.2/result/LINK_invent/BTK/process_docking_weight1_custom_product_contain_oxygen_bond_distance_aromatic_linkinvent_7_9_3/rearranged_h_0180.sdf

> <i_m_source_file_index>
39

> <r_mmod_Potential_Energy-OPLS-2005>
134.786270141602

> <r_mmod_Stretch_Energy-OPLS-2005>
161.06510925293

> <r_mmod_Bend_Energy-OPLS-2005>
184.516250610352

> <r_mmod_Torsional_Energy-OPLS-2005>
231.761352539062

> <r_mmod_Improper_Torsional_Energy-OPLS-2005>
10.0316600799561

> <r_mmod_Van_der_Waal_Energy-OPLS-2005>
107.887657165527

> <r_mmod_Electrostatic_Energy-OPLS-2005>
-468.921508789062

> <r_mmod_Solvation_Energy-OPLS-2005>
-224.621246337891

> <b_mmod_Minimization_Converged-OPLS-2005>
0

> <r_mmod_RMS_Derivative-OPLS-2005>
1.62860691547394

$$$$
39
                    3D
 Structure written by MMmdl.
150158  0  0  1  0            999 V2000
  -30.6019  -14.7214   20.5058 C   0  0  0  0  0  0
  -30.4477  -12.4377   19.4981 C   0  0  0  0  0  0
  -29.5234  -12.4844   18.2616 C   0  0  0  0  0  0
  -28.0497  -12.2875   18.6721 C   0  0  0  0  0  0
  -27.6417  -13.2152   19.8485 C   0  0  2  0  0  0
  -28.6779  -13.1285   20.9918 C   0  0  0  0  0  0
  -25.2443  -13.8162   20.5621 C   0  0  0  0  0  0
  -24.1717  -13.0435   20.9193 C   0  0  0  0  0  0
  -24.6283  -11.6907   20.8730 C   0  0  0  0  0  0
  -23.8967  -10.4279   21.0386 C   0  0  0  0  0  0
  -24.3526   -9.4193   21.9160 C   0  0  0  0  0  0
  -23.6221   -8.2223   22.0745 C   0  0  0  0  0  0
  -22.4214   -8.0237   21.3544 C   0  0  0  0  0  0
  -21.9817   -9.0199   20.4653 C   0  0  0  0  0  0
  -22.7125  -10.2098   20.3046 C   0  0  0  0  0  0
  -21.6834   -6.0675   22.5267 C   0  0  0  0  0  0
  -21.4013   -6.5600   23.8195 C   0  0  0  0  0  0
  -21.3686   -5.6763   24.9169 C   0  0  0  0  0  0
  -21.6065   -4.3023   24.7230 C   0  0  0  0  0  0
  -21.8820   -3.8102   23.4350 C   0  0  0  0  0  0
  -21.9174   -4.6904   22.3396 C   0  0  0  0  0  0
  -22.7740  -13.5224   21.1866 C   0  0  0  0  0  0
  -22.1635   -4.2088   21.0973 F   0  0  0  0  0  0
  -21.5642   -3.4513   25.7750 F   0  0  0  0  0  0
  -29.9897  -13.4906   20.4333 N   0  0  0  0  0  0
  -26.2866  -12.9354   20.3209 N   0  0  0  0  0  0
  -25.9200  -11.6518   20.5695 N   0  0  0  0  0  0
  -22.0356  -12.8276   22.0466 N   0  0  0  0  0  0
  -25.4104  -15.1884   20.3969 N   0  0  0  0  0  0
  -31.7822  -14.8414   20.1609 O   0  0  0  0  0  0
  -21.6623   -6.8805   21.4227 O   0  0  0  0  0  0
  -22.3420  -14.5509   20.6660 O   0  0  0  0  0  0
  -24.6278  -31.8577   23.1984 C   0  0  0  0  0  0
  -25.9111  -32.4752   23.8328 C   0  0  1  0  0  0
  -27.2247  -27.2820   20.1199 C   0  0  0  0  0  0
  -25.5909  -33.8553   24.2264 N   0  0  0  0  0  0
  -23.4249  -30.4797   21.5399 C   0  0  2  0  0  0
  -24.8776  -28.9336   20.1017 C   0  0  0  0  0  0
  -22.7510  -29.4606   22.4909 C   0  0  0  0  0  0
  -18.0305  -28.1396   22.8489 C   0  0  0  0  0  0
  -24.1498  -36.7314   23.2652 C   0  0  0  0  0  0
  -25.9686  -30.7752   21.3814 C   0  0  0  0  0  0
  -26.0435  -29.3968   20.7277 C   0  0  0  0  0  0
  -27.2179  -28.5770   20.7373 C   0  0  0  0  0  0
  -26.0591  -26.9151   19.4186 C   0  0  0  0  0  0
  -24.8918  -27.7009   19.4305 C   0  0  0  0  0  0
  -23.6454  -29.8161   20.1544 C   0  0  0  0  0  0
  -25.4108  -36.3057   24.0336 C   0  0  1  0  0  0
  -20.5914  -28.3713   23.1268 C   0  0  2  0  0  0
  -20.6779  -26.9442   22.5402 C   0  0  0  0  0  0
  -19.5748  -26.6393   21.5218 C   0  0  0  0  0  0
  -18.1937  -26.7943   22.1630 C   0  0  0  0  0  0
  -19.1562  -28.8876   23.2870 C   0  0  0  0  0  0
  -18.9477  -30.1485   23.8873 C   0  0  0  0  0  0
  -17.6470  -30.6587   24.0596 C   0  0  0  0  0  0
  -25.9041  -34.9432   23.5104 C   0  0  0  0  0  0
  -16.5364  -29.9094   23.6344 C   0  0  0  0  0  0
  -16.7294  -28.6527   23.0339 C   0  0  0  0  0  0
  -26.4507  -31.6542   25.0694 C   0  0  0  0  0  0
  -25.3749  -31.3673   26.1440 C   0  0  0  0  0  0
  -27.0344  -30.2957   24.6152 C   0  0  0  0  0  0
  -27.6059  -32.4282   25.7453 C   0  0  0  0  0  0
  -27.5585  -37.1812   24.8462 C   0  0  0  0  0  0
  -21.4226  -29.3042   22.3651 N   0  0  0  0  0  0
  -26.4279  -37.3757   23.9416 N   0  0  0  0  0  0
  -24.6909  -31.0564   22.0945 N   0  0  0  0  0  0
  -23.4216  -28.8177   23.3030 O   0  0  0  0  0  0
  -28.3103  -26.3773   20.1426 O   0  0  0  0  0  0
  -26.5640  -34.8895   22.4686 O   0  0  0  0  0  0
  -23.5420  -32.1383   23.7266 O   0  0  0  0  0  0
  -31.1673  -17.8557   20.1702 C   0  0  0  0  0  0
  -30.0304  -17.2025   20.6112 C   0  0  0  0  0  0
  -29.8760  -19.8003   20.2963 C   0  0  0  0  0  0
  -29.0087  -22.2611   20.6483 C   0  0  0  0  0  0
  -26.7539  -24.6080   21.1804 C   0  0  0  0  0  0
  -28.8682  -23.7155   19.9582 C   0  0  0  0  0  0
  -28.1839  -24.9794   20.7208 C   0  0  1  0  0  0
  -31.0611  -19.2590   19.9657 N   0  0  0  0  0  0
  -29.8110  -15.8230   20.8004 N   0  0  0  0  0  0
  -29.6191  -21.2214   19.9760 N   0  0  0  0  0  0
  -28.6076  -22.0923   21.8026 O   0  0  0  0  0  0
  -28.7911  -18.4853   20.8879 S   0  0  0  0  0  0
  -31.4848  -12.5769   19.1945 H   0  0  0  0  0  0
  -30.4150  -11.4600   19.9824 H   0  0  0  0  0  0
  -29.8224  -11.7168   17.5468 H   0  0  0  0  0  0
  -29.6369  -13.4454   17.7574 H   0  0  0  0  0  0
  -27.9320  -11.2458   18.9799 H   0  0  0  0  0  0
  -27.3918  -12.4228   17.8132 H   0  0  0  0  0  0
  -27.6457  -14.2330   19.4535 H   0  0  0  0  0  0
  -28.7062  -12.1166   21.3989 H   0  0  0  0  0  0
  -28.4029  -13.7772   21.8241 H   0  0  0  0  0  0
  -25.2641   -9.5720   22.4734 H   0  0  0  0  0  0
  -23.9953   -7.4631   22.7476 H   0  0  0  0  0  0
  -21.0725   -8.8681   19.8960 H   0  0  0  0  0  0
  -22.3514  -10.9623   19.6162 H   0  0  0  0  0  0
  -21.2008   -7.6096   23.9690 H   0  0  0  0  0  0
  -21.1527   -6.0485   25.9080 H   0  0  0  0  0  0
  -22.0577   -2.7548   23.2858 H   0  0  0  0  0  0
  -22.3893  -11.9976   22.4990 H   0  0  0  0  0  0
  -21.0981  -13.1375   22.2658 H   0  0  0  0  0  0
  -24.6267  -15.8296   20.4732 H   0  0  0  0  0  0
  -26.2326  -15.6233   19.9994 H   0  0  0  0  0  0
  -26.7201  -32.5449   23.1093 H   0  0  0  0  0  0
  -24.9968  -33.9664   25.0348 H   0  0  0  0  0  0
  -22.7193  -31.3002   21.3962 H   0  0  0  0  0  0
  -23.3701  -35.9700   23.3278 H   0  0  0  0  0  0
  -24.3598  -36.8969   22.2071 H   0  0  0  0  0  0
  -23.7300  -37.6528   23.6700 H   0  0  0  0  0  0
  -26.0980  -31.5340   20.6077 H   0  0  0  0  0  0
  -26.8472  -30.8290   22.0108 H   0  0  0  0  0  0
  -28.1081  -28.9229   21.2429 H   0  0  0  0  0  0
  -26.0512  -25.9922   18.8579 H   0  0  0  0  0  0
  -24.0155  -27.3551   18.8985 H   0  0  0  0  0  0
  -23.7644  -30.5907   19.3956 H   0  0  0  0  0  0
  -22.7633  -29.2462   19.8564 H   0  0  0  0  0  0
  -25.1283  -36.1901   25.0825 H   0  0  0  0  0  0
  -21.0025  -28.3305   24.1377 H   0  0  0  0  0  0
  -20.5676  -26.2346   23.3599 H   0  0  0  0  0  0
  -21.6655  -26.7451   22.1221 H   0  0  0  0  0  0
  -19.6891  -25.6303   21.1251 H   0  0  0  0  0  0
  -19.6665  -27.3197   20.6741 H   0  0  0  0  0  0
  -17.4209  -26.6716   21.4021 H   0  0  0  0  0  0
  -18.0324  -26.0079   22.9015 H   0  0  0  0  0  0
  -19.7951  -30.7339   24.2185 H   0  0  0  0  0  0
  -17.5017  -31.6244   24.5237 H   0  0  0  0  0  0
  -15.5365  -30.2979   23.7645 H   0  0  0  0  0  0
  -15.8708  -28.0840   22.7004 H   0  0  0  0  0  0
  -24.5865  -30.7097   25.7800 H   0  0  0  0  0  0
  -24.9007  -32.2836   26.4956 H   0  0  0  0  0  0
  -25.8080  -30.8776   27.0166 H   0  0  0  0  0  0
  -26.2920  -29.6678   24.1227 H   0  0  0  0  0  0
  -27.4080  -29.7256   25.4662 H   0  0  0  0  0  0
  -27.8777  -30.4213   23.9353 H   0  0  0  0  0  0
  -27.2651  -33.3539   26.2097 H   0  0  0  0  0  0
  -28.3839  -32.6920   25.0280 H   0  0  0  0  0  0
  -28.0787  -31.8369   26.5302 H   0  0  0  0  0  0
  -28.2589  -38.0127   24.7500 H   0  0  0  0  0  0
  -28.1089  -36.2650   24.6265 H   0  0  0  0  0  0
  -27.2323  -37.1464   25.8876 H   0  0  0  0  0  0
  -20.9386  -29.8815   21.6914 H   0  0  0  0  0  0
  -26.0135  -38.2823   24.1390 H   0  0  0  0  0  0
  -32.1130  -17.3930   19.9265 H   0  0  0  0  0  0
  -26.2856  -25.4061   21.7569 H   0  0  0  0  0  0
  -26.7571  -23.7387   21.8344 H   0  0  0  0  0  0
  -26.1052  -24.3568   20.3410 H   0  0  0  0  0  0
  -28.3295  -23.5675   19.0207 H   0  0  0  0  0  0
  -29.8721  -24.0140   19.6569 H   0  0  0  0  0  0
  -28.7500  -25.0786   21.6457 H   0  0  0  0  0  0
  -28.8750  -15.5767   21.0868 H   0  0  0  0  0  0
  -30.0562  -21.5185   19.1155 H   0  0  0  0  0  0
  1 25  1  0  0  0
  1 30  2  0  0  0
  1 79  1  0  0  0
  2  3  1  0  0  0
  2 25  1  0  0  0
  2 83  1  0  0  0
  2 84  1  0  0  0
  3  4  1  0  0  0
  3 85  1  0  0  0
  3 86  1  0  0  0
  4  5  1  0  0  0
  4 87  1  0  0  0
  4 88  1  0  0  0
  5  6  1  0  0  0
  5 26  1  0  0  0
  5 89  1  0  0  0
  6 25  1  0  0  0
  6 90  1  0  0  0
  6 91  1  0  0  0
  7  8  2  0  0  0
  7 26  1  0  0  0
  7 29  1  0  0  0
  8  9  1  0  0  0
  8 22  1  0  0  0
  9 10  1  0  0  0
  9 27  2  0  0  0
 10 11  2  0  0  0
 10 15  1  0  0  0
 11 12  1  0  0  0
 11 92  1  0  0  0
 12 13  2  0  0  0
 12 93  1  0  0  0
 13 14  1  0  0  0
 13 31  1  0  0  0
 14 15  2  0  0  0
 14 94  1  0  0  0
 15 95  1  0  0  0
 16 17  2  0  0  0
 16 21  1  0  0  0
 16 31  1  0  0  0
 17 18  1  0  0  0
 17 96  1  0  0  0
 18 19  2  0  0  0
 18 97  1  0  0  0
 19 20  1  0  0  0
 19 24  1  0  0  0
 20 21  2  0  0  0
 20 98  1  0  0  0
 21 23  1  0  0  0
 22 28  1  0  0  0
 22 32  2  0  0  0
 26 27  1  0  0  0
 28 99  1  0  0  0
 28100  1  0  0  0
 29101  1  0  0  0
 29102  1  0  0  0
 33 34  1  0  0  0
 33 66  1  0  0  0
 33 70  2  0  0  0
 34 36  1  0  0  0
 34 59  1  0  0  0
 34103  1  0  0  0
 35 44  2  0  0  0
 35 45  1  0  0  0
 35 68  1  0  0  0
 36 56  1  0  0  0
 36104  1  0  0  0
 37 39  1  0  0  0
 37 47  1  0  0  0
 37 66  1  0  0  0
 37105  1  0  0  0
 38 43  2  0  0  0
 38 46  1  0  0  0
 38 47  1  0  0  0
 39 64  1  0  0  0
 39 67  2  0  0  0
 40 52  1  0  0  0
 40 53  2  0  0  0
 40 58  1  0  0  0
 41106  1  0  0  0
 41107  1  0  0  0
 41108  1  0  0  0
 41 48  1  0  0  0
 42 43  1  0  0  0
 42 66  1  0  0  0
 42109  1  0  0  0
 42110  1  0  0  0
 43 44  1  0  0  0
 44111  1  0  0  0
 45 46  2  0  0  0
 45112  1  0  0  0
 46113  1  0  0  0
 47114  1  0  0  0
 47115  1  0  0  0
 48 56  1  0  0  0
 48 65  1  0  0  0
 48116  1  0  0  0
 49 50  1  0  0  0
 49 53  1  0  0  0
 49 64  1  0  0  0
 49117  1  0  0  0
 50 51  1  0  0  0
 50118  1  0  0  0
 50119  1  0  0  0
 51 52  1  0  0  0
 51120  1  0  0  0
 51121  1  0  0  0
 52122  1  0  0  0
 52123  1  0  0  0
 53 54  1  0  0  0
 54 55  2  0  0  0
 54124  1  0  0  0
 55 57  1  0  0  0
 55125  1  0  0  0
 56 69  2  0  0  0
 57 58  2  0  0  0
 57126  1  0  0  0
 58127  1  0  0  0
 59 60  1  0  0  0
 59 61  1  0  0  0
 59 62  1  0  0  0
 60128  1  0  0  0
 60129  1  0  0  0
 60130  1  0  0  0
 61131  1  0  0  0
 61132  1  0  0  0
 61133  1  0  0  0
 62134  1  0  0  0
 62135  1  0  0  0
 62136  1  0  0  0
 63 65  1  0  0  0
 63137  1  0  0  0
 63138  1  0  0  0
 63139  1  0  0  0
 64140  1  0  0  0
 65141  1  0  0  0
 68 77  1  0  0  0
 71 72  2  0  0  0
 71 78  1  0  0  0
 71142  1  0  0  0
 72 79  1  0  0  0
 72 82  1  0  0  0
 73 78  2  0  0  0
 73 80  1  0  0  0
 73 82  1  0  0  0
 74 76  1  0  0  0
 74 80  1  0  0  0
 74 81  2  0  0  0
 75143  1  0  0  0
 75144  1  0  0  0
 75145  1  0  0  0
 75 77  1  0  0  0
 76 77  1  0  0  0
 76146  1  0  0  0
 76147  1  0  0  0
 77148  1  0  0  0
 79149  1  0  0  0
 80150  1  0  0  0
M  ISO  4   1 100  68 101  77 101  79 100
M  END
> <chiral flag>
0

> <version>
0

> <s_m_source_file>
/data/baiqing/PycharmProjects/Reinvent-master-3.2/result/LINK_invent/BTK/process_docking_weight1_custom_product_contain_oxygen_bond_distance_aromatic_linkinvent_7_9_3/rearranged_h_0180.sdf

> <i_m_source_file_index>
40

> <r_mmod_Potential_Energy-OPLS-2005>
78.477653503418

> <r_mmod_Stretch_Energy-OPLS-2005>
114.671501159668

> <r_mmod_Bend_Energy-OPLS-2005>
177.021942138672

> <r_mmod_Torsional_Energy-OPLS-2005>
239.047943115234

> <r_mmod_Improper_Torsional_Energy-OPLS-2005>
5.46805858612061

> <r_mmod_Van_der_Waal_Energy-OPLS-2005>
123.845634460449

> <r_mmod_Electrostatic_Energy-OPLS-2005>
-428.496551513672

> <r_mmod_Solvation_Energy-OPLS-2005>
-230.833053588867

> <b_mmod_Minimization_Converged-OPLS-2005>
0

> <r_mmod_RMS_Derivative-OPLS-2005>
4.64395093917847

$$$$
40
                    3D
 Structure written by MMmdl.
149157  0  0  1  0            999 V2000
  -30.5626  -14.6451   20.5023 C   0  0  0  0  0  0
  -30.4477  -12.3940   19.4614 C   0  0  0  0  0  0
  -29.5198  -12.5036   18.2309 C   0  0  0  0  0  0
  -28.0421  -12.3260   18.6388 C   0  0  0  0  0  0
  -27.6528  -13.1976   19.8619 C   0  0  2  0  0  0
  -28.6895  -13.0365   20.9956 C   0  0  0  0  0  0
  -25.2579  -13.8119   20.5641 C   0  0  0  0  0  0
  -24.1830  -13.0417   20.9166 C   0  0  0  0  0  0
  -24.6353  -11.6882   20.8704 C   0  0  0  0  0  0
  -23.9017  -10.4285   21.0395 C   0  0  0  0  0  0
  -24.3589   -9.4213   21.9178 C   0  0  0  0  0  0
  -23.6284   -8.2248   22.0750 C   0  0  0  0  0  0
  -22.4276   -8.0263   21.3536 C   0  0  0  0  0  0
  -21.9889   -9.0230   20.4646 C   0  0  0  0  0  0
  -22.7189  -10.2122   20.3047 C   0  0  0  0  0  0
  -21.6851   -6.0718   22.5276 C   0  0  0  0  0  0
  -21.4019   -6.5616   23.8211 C   0  0  0  0  0  0
  -21.3665   -5.6778   24.9173 C   0  0  0  0  0  0
  -21.6047   -4.3046   24.7230 C   0  0  0  0  0  0
  -21.8813   -3.8137   23.4350 C   0  0  0  0  0  0
  -21.9195   -4.6946   22.3397 C   0  0  0  0  0  0
  -22.7862  -13.5241   21.1852 C   0  0  0  0  0  0
  -22.1663   -4.2138   21.0977 F   0  0  0  0  0  0
  -21.5634   -3.4533   25.7743 F   0  0  0  0  0  0
  -30.0045  -13.3982   20.4451 N   0  0  0  0  0  0
  -26.2963  -12.9246   20.3266 N   0  0  0  0  0  0
  -25.9270  -11.6423   20.5715 N   0  0  0  0  0  0
  -22.0481  -12.8231   22.0397 N   0  0  0  0  0  0
  -25.4283  -15.1836   20.4053 N   0  0  0  0  0  0
  -31.7253  -14.8502   20.1330 O   0  0  0  0  0  0
  -21.6629   -6.8865   21.4247 O   0  0  0  0  0  0
  -22.3553  -14.5547   20.6705 O   0  0  0  0  0  0
  -24.6263  -31.8615   23.2033 C   0  0  0  0  0  0
  -25.9118  -32.4779   23.8340 C   0  0  1  0  0  0
  -27.2049  -27.3348   20.1183 C   0  0  0  0  0  0
  -25.5981  -33.8575   24.2300 N   0  0  0  0  0  0
  -23.4173  -30.4877   21.5448 C   0  0  2  0  0  0
  -24.8592  -28.9385   20.1180 C   0  0  0  0  0  0
  -22.7479  -29.4655   22.4930 C   0  0  0  0  0  0
  -18.0296  -28.1390   22.8486 C   0  0  0  0  0  0
  -24.1490  -36.7267   23.2632 C   0  0  0  0  0  0
  -25.9561  -30.7975   21.3697 C   0  0  0  0  0  0
  -26.0281  -29.4207   20.7251 C   0  0  0  0  0  0
  -27.2106  -28.6248   20.7258 C   0  0  0  0  0  0
  -26.0251  -26.8961   19.4956 C   0  0  0  0  0  0
  -24.8564  -27.6779   19.4973 C   0  0  0  0  0  0
  -23.6293  -29.8193   20.1632 C   0  0  0  0  0  0
  -25.4116  -36.3064   24.0332 C   0  0  1  0  0  0
  -20.5910  -28.3687   23.1272 C   0  0  2  0  0  0
  -20.6793  -26.9409   22.5398 C   0  0  0  0  0  0
  -19.5748  -26.6408   21.5206 C   0  0  0  0  0  0
  -18.1936  -26.7948   22.1622 C   0  0  0  0  0  0
  -19.1551  -28.8860   23.2884 C   0  0  0  0  0  0
  -18.9465  -30.1488   23.8878 C   0  0  0  0  0  0
  -17.6460  -30.6594   24.0571 C   0  0  0  0  0  0
  -25.9036  -34.9432   23.5085 C   0  0  0  0  0  0
  -16.5360  -29.9080   23.6346 C   0  0  0  0  0  0
  -16.7288  -28.6510   23.0342 C   0  0  0  0  0  0
  -26.4521  -31.6578   25.0688 C   0  0  0  0  0  0
  -25.3799  -31.3733   26.1462 C   0  0  0  0  0  0
  -27.0347  -30.2999   24.6109 C   0  0  0  0  0  0
  -27.6111  -32.4284   25.7459 C   0  0  0  0  0  0
  -27.5562  -37.1820   24.8481 C   0  0  0  0  0  0
  -21.4191  -29.3045   22.3663 N   0  0  0  0  0  0
  -26.4309  -37.3747   23.9387 N   0  0  0  0  0  0
  -24.6845  -31.0646   22.0962 N   0  0  0  0  0  0
  -23.4217  -28.8190   23.2984 O   0  0  0  0  0  0
  -28.2899  -26.4732   20.0394 O   0  0  0  0  0  0
  -26.5584  -34.8904   22.4628 O   0  0  0  0  0  0
  -23.5432  -32.1412   23.7390 O   0  0  0  0  0  0
  -30.3233  -19.2967   20.3167 C   0  0  0  0  0  0
  -30.7153  -17.9052   20.3885 C   0  0  0  0  0  0
  -28.9843  -19.5337   20.5071 C   0  0  0  0  0  0
  -29.6867  -17.0210   20.6539 C   0  0  0  0  0  0
  -28.6103  -25.6841   21.1350 C   0  0  0  0  0  0
  -28.1288  -20.7863   20.3652 C   0  0  0  0  0  0
  -28.6435  -24.3159   21.2950 C   0  0  0  0  0  0
  -28.1906  -23.2687   20.3415 C   0  0  0  0  0  0
  -29.6764  -15.6442   20.8152 N   0  0  0  0  0  0
  -28.6616  -22.0132   20.6448 N   0  0  0  0  0  0
  -26.9467  -20.6451   20.0277 O   0  0  0  0  0  0
  -27.4303  -23.4927   19.3951 O   0  0  0  0  0  0
  -29.1171  -23.8648   22.4698 O   0  0  0  0  0  0
  -28.1915  -17.9713   20.7791 S   0  0  0  0  0  0
  -31.4873  -12.5403   19.1653 H   0  0  0  0  0  0
  -30.3975  -11.3957   19.8975 H   0  0  0  0  0  0
  -29.7965  -11.7568   17.4852 H   0  0  0  0  0  0
  -29.6558  -13.4749   17.7542 H   0  0  0  0  0  0
  -27.8982  -11.2721   18.8816 H   0  0  0  0  0  0
  -27.3845  -12.5379   17.7955 H   0  0  0  0  0  0
  -27.6744  -14.2325   19.5210 H   0  0  0  0  0  0
  -28.7074  -12.0080   21.3597 H   0  0  0  0  0  0
  -28.4222  -13.6464   21.8600 H   0  0  0  0  0  0
  -25.2752   -9.5694   22.4726 H   0  0  0  0  0  0
  -24.0003   -7.4635   22.7453 H   0  0  0  0  0  0
  -21.0827   -8.8729   19.8943 H   0  0  0  0  0  0
  -22.3648  -10.9649   19.6136 H   0  0  0  0  0  0
  -21.2004   -7.6122   23.9710 H   0  0  0  0  0  0
  -21.1491   -6.0509   25.9081 H   0  0  0  0  0  0
  -22.0586   -2.7606   23.2850 H   0  0  0  0  0  0
  -22.4094  -11.9906   22.4812 H   0  0  0  0  0  0
  -21.1091  -13.1275   22.2588 H   0  0  0  0  0  0
  -24.6481  -15.8257   20.4888 H   0  0  0  0  0  0
  -26.2664  -15.6283   20.0561 H   0  0  0  0  0  0
  -26.7176  -32.5482   23.1090 H   0  0  0  0  0  0
  -25.0235  -33.9682   25.0522 H   0  0  0  0  0  0
  -22.7090  -31.3052   21.4015 H   0  0  0  0  0  0
  -23.3688  -35.9669   23.3414 H   0  0  0  0  0  0
  -24.3535  -36.8738   22.2010 H   0  0  0  0  0  0
  -23.7333  -37.6553   23.6555 H   0  0  0  0  0  0
  -26.0836  -31.5571   20.5963 H   0  0  0  0  0  0
  -26.8394  -30.8529   21.9940 H   0  0  0  0  0  0
  -28.1176  -28.9863   21.1884 H   0  0  0  0  0  0
  -26.0103  -25.9292   19.0111 H   0  0  0  0  0  0
  -23.9625  -27.3009   19.0173 H   0  0  0  0  0  0
  -23.7512  -30.5870   19.4001 H   0  0  0  0  0  0
  -22.7461  -29.2505   19.8674 H   0  0  0  0  0  0
  -25.1297  -36.1919   25.0834 H   0  0  0  0  0  0
  -21.0045  -28.3292   24.1376 H   0  0  0  0  0  0
  -20.5693  -26.2283   23.3581 H   0  0  0  0  0  0
  -21.6660  -26.7458   22.1189 H   0  0  0  0  0  0
  -19.6883  -25.6323   21.1226 H   0  0  0  0  0  0
  -19.6665  -27.3200   20.6712 H   0  0  0  0  0  0
  -17.4205  -26.6699   21.4040 H   0  0  0  0  0  0
  -18.0314  -26.0122   22.9025 H   0  0  0  0  0  0
  -19.7944  -30.7347   24.2189 H   0  0  0  0  0  0
  -17.5001  -31.6258   24.5186 H   0  0  0  0  0  0
  -15.5352  -30.2954   23.7687 H   0  0  0  0  0  0
  -15.8703  -28.0831   22.7031 H   0  0  0  0  0  0
  -24.5924  -30.7111   25.7833 H   0  0  0  0  0  0
  -24.9042  -32.2903   26.4931 H   0  0  0  0  0  0
  -25.8159  -30.8899   27.0212 H   0  0  0  0  0  0
  -26.2887  -29.6738   24.1195 H   0  0  0  0  0  0
  -27.4115  -29.7252   25.4578 H   0  0  0  0  0  0
  -27.8723  -30.4240   23.9246 H   0  0  0  0  0  0
  -27.2755  -33.3590   26.2031 H   0  0  0  0  0  0
  -28.3948  -32.6834   25.0318 H   0  0  0  0  0  0
  -28.0758  -31.8410   26.5383 H   0  0  0  0  0  0
  -28.2697  -37.9993   24.7404 H   0  0  0  0  0  0
  -28.0951  -36.2542   24.6510 H   0  0  0  0  0  0
  -27.2260  -37.1732   25.8878 H   0  0  0  0  0  0
  -20.9334  -29.8719   21.6864 H   0  0  0  0  0  0
  -26.0183  -38.2842   24.1302 H   0  0  0  0  0  0
  -31.0360  -20.0738   20.0855 H   0  0  0  0  0  0
  -31.7427  -17.6094   20.2332 H   0  0  0  0  0  0
  -28.9165  -26.3284   21.9455 H   0  0  0  0  0  0
  -28.7792  -15.2728   21.0890 H   0  0  0  0  0  0
  -29.4741  -22.0088   21.2412 H   0  0  0  0  0  0
  -29.3333  -24.6213   22.9981 H   0  0  0  0  0  0
  1 25  1  0  0  0
  1 30  2  0  0  0
  1 79  1  0  0  0
  2  3  1  0  0  0
  2 25  1  0  0  0
  2 85  1  0  0  0
  2 86  1  0  0  0
  3  4  1  0  0  0
  3 87  1  0  0  0
  3 88  1  0  0  0
  4  5  1  0  0  0
  4 89  1  0  0  0
  4 90  1  0  0  0
  5  6  1  0  0  0
  5 26  1  0  0  0
  5 91  1  0  0  0
  6 25  1  0  0  0
  6 92  1  0  0  0
  6 93  1  0  0  0
  7  8  2  0  0  0
  7 26  1  0  0  0
  7 29  1  0  0  0
  8  9  1  0  0  0
  8 22  1  0  0  0
  9 10  1  0  0  0
  9 27  2  0  0  0
 10 11  2  0  0  0
 10 15  1  0  0  0
 11 12  1  0  0  0
 11 94  1  0  0  0
 12 13  2  0  0  0
 12 95  1  0  0  0
 13 14  1  0  0  0
 13 31  1  0  0  0
 14 15  2  0  0  0
 14 96  1  0  0  0
 15 97  1  0  0  0
 16 17  2  0  0  0
 16 21  1  0  0  0
 16 31  1  0  0  0
 17 18  1  0  0  0
 17 98  1  0  0  0
 18 19  2  0  0  0
 18 99  1  0  0  0
 19 20  1  0  0  0
 19 24  1  0  0  0
 20 21  2  0  0  0
 20100  1  0  0  0
 21 23  1  0  0  0
 22 28  1  0  0  0
 22 32  2  0  0  0
 26 27  1  0  0  0
 28101  1  0  0  0
 28102  1  0  0  0
 29103  1  0  0  0
 29104  1  0  0  0
 33 34  1  0  0  0
 33 66  1  0  0  0
 33 70  2  0  0  0
 34 36  1  0  0  0
 34 59  1  0  0  0
 34105  1  0  0  0
 35 44  2  0  0  0
 35 45  1  0  0  0
 35 68  1  0  0  0
 36 56  1  0  0  0
 36106  1  0  0  0
 37 39  1  0  0  0
 37 47  1  0  0  0
 37 66  1  0  0  0
 37107  1  0  0  0
 38 43  2  0  0  0
 38 46  1  0  0  0
 38 47  1  0  0  0
 39 64  1  0  0  0
 39 67  2  0  0  0
 40 52  1  0  0  0
 40 53  2  0  0  0
 40 58  1  0  0  0
 41108  1  0  0  0
 41109  1  0  0  0
 41110  1  0  0  0
 41 48  1  0  0  0
 42 43  1  0  0  0
 42 66  1  0  0  0
 42111  1  0  0  0
 42112  1  0  0  0
 43 44  1  0  0  0
 44113  1  0  0  0
 45 46  2  0  0  0
 45114  1  0  0  0
 46115  1  0  0  0
 47116  1  0  0  0
 47117  1  0  0  0
 48 56  1  0  0  0
 48 65  1  0  0  0
 48118  1  0  0  0
 49 50  1  0  0  0
 49 53  1  0  0  0
 49 64  1  0  0  0
 49119  1  0  0  0
 50 51  1  0  0  0
 50120  1  0  0  0
 50121  1  0  0  0
 51 52  1  0  0  0
 51122  1  0  0  0
 51123  1  0  0  0
 52124  1  0  0  0
 52125  1  0  0  0
 53 54  1  0  0  0
 54 55  2  0  0  0
 54126  1  0  0  0
 55 57  1  0  0  0
 55127  1  0  0  0
 56 69  2  0  0  0
 57 58  2  0  0  0
 57128  1  0  0  0
 58129  1  0  0  0
 59 60  1  0  0  0
 59 61  1  0  0  0
 59 62  1  0  0  0
 60130  1  0  0  0
 60131  1  0  0  0
 60132  1  0  0  0
 61133  1  0  0  0
 61134  1  0  0  0
 61135  1  0  0  0
 62136  1  0  0  0
 62137  1  0  0  0
 62138  1  0  0  0
 63 65  1  0  0  0
 63139  1  0  0  0
 63140  1  0  0  0
 63141  1  0  0  0
 64142  1  0  0  0
 65143  1  0  0  0
 68 75  1  0  0  0
 71 72  1  0  0  0
 71 73  2  0  0  0
 71144  1  0  0  0
 72 74  2  0  0  0
 72145  1  0  0  0
 73 76  1  0  0  0
 73 84  1  0  0  0
 74 79  1  0  0  0
 74 84  1  0  0  0
 75 77  2  0  0  0
 75146  1  0  0  0
 76 80  1  0  0  0
 76 81  2  0  0  0
 77 78  1  0  0  0
 77 83  1  0  0  0
 78 80  1  0  0  0
 78 82  2  0  0  0
 79147  1  0  0  0
 80148  1  0  0  0
 83149  1  0  0  0
M  ISO  4   1 100  68 101  75 101  79 100
M  END
> <chiral flag>
0

> <version>
0

> <s_m_source_file>
/data/baiqing/PycharmProjects/Reinvent-master-3.2/result/LINK_invent/BTK/process_docking_weight1_custom_product_contain_oxygen_bond_distance_aromatic_linkinvent_7_9_3/rearranged_h_0180.sdf

> <i_m_source_file_index>
41

> <r_mmod_Potential_Energy-OPLS-2005>
-120.112289428711

> <r_mmod_Stretch_Energy-OPLS-2005>
60.5233955383301

> <r_mmod_Bend_Energy-OPLS-2005>
148.855224609375

> <r_mmod_Torsional_Energy-OPLS-2005>
256.609985351562

> <r_mmod_Improper_Torsional_Energy-OPLS-2005>
5.97795915603638

> <r_mmod_Van_der_Waal_Energy-OPLS-2005>
123.56005859375

> <r_mmod_Electrostatic_Energy-OPLS-2005>
-499.851837158203

> <r_mmod_Solvation_Energy-OPLS-2005>
-265.467132568359

> <b_mmod_Minimization_Converged-OPLS-2005>
0

> <r_mmod_RMS_Derivative-OPLS-2005>
4.49488592147827

$$$$
41
                    3D
 Structure written by MMmdl.
152160  0  0  1  0            999 V2000
  -30.6601  -14.5465   20.4884 C   0  0  0  0  0  0
  -30.4216  -12.3265   19.4435 C   0  0  0  0  0  0
  -29.5013  -12.4938   18.2156 C   0  0  0  0  0  0
  -28.0208  -12.3536   18.6226 C   0  0  0  0  0  0
  -27.6543  -13.2100   19.8652 C   0  0  2  0  0  0
  -28.6971  -13.0407   20.9945 C   0  0  0  0  0  0
  -25.2572  -13.8161   20.5659 C   0  0  0  0  0  0
  -24.1831  -13.0436   20.9175 C   0  0  0  0  0  0
  -24.6380  -11.6909   20.8725 C   0  0  0  0  0  0
  -23.9046  -10.4295   21.0406 C   0  0  0  0  0  0
  -24.3602   -9.4222   21.9185 C   0  0  0  0  0  0
  -23.6292   -8.2255   22.0753 C   0  0  0  0  0  0
  -22.4276   -8.0275   21.3547 C   0  0  0  0  0  0
  -21.9911   -9.0242   20.4643 C   0  0  0  0  0  0
  -22.7224  -10.2133   20.3056 C   0  0  0  0  0  0
  -21.6854   -6.0739   22.5277 C   0  0  0  0  0  0
  -21.4011   -6.5643   23.8206 C   0  0  0  0  0  0
  -21.3660   -5.6799   24.9170 C   0  0  0  0  0  0
  -21.6042   -4.3061   24.7229 C   0  0  0  0  0  0
  -21.8824   -3.8150   23.4348 C   0  0  0  0  0  0
  -21.9197   -4.6965   22.3400 C   0  0  0  0  0  0
  -22.7867  -13.5245   21.1845 C   0  0  0  0  0  0
  -22.1667   -4.2153   21.0981 F   0  0  0  0  0  0
  -21.5622   -3.4543   25.7746 F   0  0  0  0  0  0
  -30.0218  -13.3423   20.4327 N   0  0  0  0  0  0
  -26.2989  -12.9327   20.3311 N   0  0  0  0  0  0
  -25.9310  -11.6493   20.5746 N   0  0  0  0  0  0
  -22.0510  -12.8222   22.0394 N   0  0  0  0  0  0
  -25.4307  -15.1884   20.4061 N   0  0  0  0  0  0
  -31.8340  -14.6704   20.1231 O   0  0  0  0  0  0
  -21.6641   -6.8875   21.4242 O   0  0  0  0  0  0
  -22.3568  -14.5564   20.6711 O   0  0  0  0  0  0
  -24.6194  -31.8650   23.2063 C   0  0  0  0  0  0
  -25.9074  -32.4798   23.8378 C   0  0  1  0  0  0
  -27.2314  -27.3929   20.1001 C   0  0  0  0  0  0
  -25.5909  -33.8598   24.2301 N   0  0  0  0  0  0
  -23.4070  -30.4886   21.5482 C   0  0  2  0  0  0
  -24.8516  -28.9469   20.1170 C   0  0  0  0  0  0
  -22.7400  -29.4675   22.4986 C   0  0  0  0  0  0
  -18.0260  -28.1391   22.8518 C   0  0  0  0  0  0
  -24.1474  -36.7295   23.2625 C   0  0  0  0  0  0
  -25.9396  -30.8179   21.3629 C   0  0  0  0  0  0
  -26.0140  -29.4479   20.7142 C   0  0  0  0  0  0
  -27.2034  -28.6780   20.7020 C   0  0  0  0  0  0
  -26.0430  -26.9140   19.5011 C   0  0  0  0  0  0
  -24.8629  -27.6807   19.5099 C   0  0  0  0  0  0
  -23.6157  -29.8178   20.1648 C   0  0  0  0  0  0
  -25.4090  -36.3083   24.0329 C   0  0  1  0  0  0
  -20.5856  -28.3703   23.1328 C   0  0  2  0  0  0
  -20.6766  -26.9437   22.5438 C   0  0  0  0  0  0
  -19.5736  -26.6407   21.5243 C   0  0  0  0  0  0
  -18.1905  -26.7945   22.1637 C   0  0  0  0  0  0
  -19.1510  -28.8861   23.2922 C   0  0  0  0  0  0
  -18.9438  -30.1464   23.8939 C   0  0  0  0  0  0
  -17.6444  -30.6604   24.0583 C   0  0  0  0  0  0
  -25.9047  -34.9459   23.5116 C   0  0  0  0  0  0
  -16.5342  -29.9110   23.6341 C   0  0  0  0  0  0
  -16.7253  -28.6522   23.0375 C   0  0  0  0  0  0
  -26.4483  -31.6581   25.0721 C   0  0  0  0  0  0
  -25.3732  -31.3681   26.1456 C   0  0  0  0  0  0
  -27.0331  -30.3024   24.6124 C   0  0  0  0  0  0
  -27.6056  -32.4311   25.7490 C   0  0  0  0  0  0
  -27.5600  -37.1732   24.8414 C   0  0  0  0  0  0
  -21.4129  -29.3058   22.3714 N   0  0  0  0  0  0
  -26.4231  -37.3816   23.9485 N   0  0  0  0  0  0
  -24.6745  -31.0716   22.0981 N   0  0  0  0  0  0
  -23.4155  -28.8221   23.3047 O   0  0  0  0  0  0
  -28.4095  -26.6598   20.1275 O   0  0  0  0  0  0
  -26.5613  -34.8926   22.4680 O   0  0  0  0  0  0
  -23.5376  -32.1436   23.7436 O   0  0  0  0  0  0
  -29.8375  -19.4458   19.8909 C   0  0  0  0  0  0
  -30.8614  -18.7788   19.2389 C   0  0  0  0  0  0
  -30.0188  -16.9916   20.4102 C   0  0  0  0  0  0
  -29.4398  -20.8836   19.7956 C   0  0  0  0  0  0
  -28.2491  -24.1873   20.6023 C   0  0  0  0  0  0
  -28.3548  -21.5244   20.6915 C   0  0  0  0  0  0
  -27.7120  -22.8278   20.0927 C   0  0  0  0  0  0
  -28.4717  -25.3226   19.5646 C   0  0  0  0  0  0
  -30.9460  -17.4153   19.5421 N   0  0  0  0  0  0
  -31.7939  -19.2991   18.3366 N   0  0  0  0  0  0
  -29.8800  -15.6123   20.8101 N   0  0  0  0  0  0
  -29.9974  -21.6301   18.9848 O   0  0  0  0  0  0
  -28.4978  -24.3555   21.8007 O   0  0  0  0  0  0
  -28.9455  -18.3168   20.9193 S   0  0  0  0  0  0
  -31.4685  -12.4198   19.1478 H   0  0  0  0  0  0
  -30.3193  -11.3263   19.8660 H   0  0  0  0  0  0
  -29.7520  -11.7551   17.4527 H   0  0  0  0  0  0
  -29.6651  -13.4711   17.7594 H   0  0  0  0  0  0
  -27.8358  -11.2998   18.8320 H   0  0  0  0  0  0
  -27.3765  -12.6154   17.7825 H   0  0  0  0  0  0
  -27.6804  -14.2498   19.5395 H   0  0  0  0  0  0
  -28.6834  -12.0199   21.3794 H   0  0  0  0  0  0
  -28.4634  -13.6798   21.8475 H   0  0  0  0  0  0
  -25.2745   -9.5705   22.4764 H   0  0  0  0  0  0
  -24.0009   -7.4657   22.7486 H   0  0  0  0  0  0
  -21.0839   -8.8749   19.8950 H   0  0  0  0  0  0
  -22.3671  -10.9667   19.6167 H   0  0  0  0  0  0
  -21.2001   -7.6147   23.9713 H   0  0  0  0  0  0
  -21.1470   -6.0528   25.9078 H   0  0  0  0  0  0
  -22.0599   -2.7615   23.2853 H   0  0  0  0  0  0
  -22.4129  -11.9866   22.4745 H   0  0  0  0  0  0
  -21.1133  -13.1241   22.2608 H   0  0  0  0  0  0
  -24.6564  -15.8382   20.4897 H   0  0  0  0  0  0
  -26.2736  -15.6224   20.0504 H   0  0  0  0  0  0
  -26.7143  -32.5500   23.1138 H   0  0  0  0  0  0
  -25.0047  -33.9756   25.0441 H   0  0  0  0  0  0
  -22.7013  -31.3091   21.4038 H   0  0  0  0  0  0
  -23.3785  -35.9560   23.3136 H   0  0  0  0  0  0
  -24.3618  -36.9087   22.2075 H   0  0  0  0  0  0
  -23.7135  -37.6411   23.6760 H   0  0  0  0  0  0
  -26.0481  -31.5773   20.5880 H   0  0  0  0  0  0
  -26.8295  -30.8811   21.9768 H   0  0  0  0  0  0
  -28.1022  -29.0617   21.1654 H   0  0  0  0  0  0
  -25.9880  -25.9452   19.0302 H   0  0  0  0  0  0
  -23.9658  -27.2878   19.0507 H   0  0  0  0  0  0
  -23.7255  -30.5911   19.4043 H   0  0  0  0  0  0
  -22.7387  -29.2396   19.8683 H   0  0  0  0  0  0
  -25.1233  -36.1908   25.0809 H   0  0  0  0  0  0
  -20.9942  -28.3282   24.1454 H   0  0  0  0  0  0
  -20.5731  -26.2298   23.3624 H   0  0  0  0  0  0
  -21.6630  -26.7513   22.1203 H   0  0  0  0  0  0
  -19.6913  -25.6324   21.1257 H   0  0  0  0  0  0
  -19.6666  -27.3238   20.6794 H   0  0  0  0  0  0
  -17.4185  -26.6728   21.4021 H   0  0  0  0  0  0
  -18.0279  -26.0072   22.9012 H   0  0  0  0  0  0
  -19.7910  -30.7277   24.2327 H   0  0  0  0  0  0
  -17.4996  -31.6284   24.5177 H   0  0  0  0  0  0
  -15.5346  -30.3028   23.7651 H   0  0  0  0  0  0
  -15.8645  -28.0855   22.7098 H   0  0  0  0  0  0
  -24.5958  -30.6963   25.7805 H   0  0  0  0  0  0
  -24.8850  -32.2813   26.4866 H   0  0  0  0  0  0
  -25.8091  -30.8906   27.0238 H   0  0  0  0  0  0
  -26.2881  -29.6754   24.1217 H   0  0  0  0  0  0
  -27.4136  -29.7304   25.4600 H   0  0  0  0  0  0
  -27.8688  -30.4353   23.9253 H   0  0  0  0  0  0
  -27.2713  -33.3654   26.2019 H   0  0  0  0  0  0
  -28.3893  -32.6802   25.0320 H   0  0  0  0  0  0
  -28.0676  -31.8445   26.5441 H   0  0  0  0  0  0
  -28.2411  -38.0231   24.7805 H   0  0  0  0  0  0
  -28.1305  -36.2805   24.5798 H   0  0  0  0  0  0
  -27.2387  -37.0836   25.8806 H   0  0  0  0  0  0
  -20.9292  -29.8752   21.6909 H   0  0  0  0  0  0
  -26.0091  -38.2828   24.1720 H   0  0  0  0  0  0
  -28.7750  -21.7110   21.6795 H   0  0  0  0  0  0
  -27.5657  -20.7874   20.8324 H   0  0  0  0  0  0
  -27.7387  -22.8138   19.0033 H   0  0  0  0  0  0
  -26.6528  -22.8190   20.3502 H   0  0  0  0  0  0
  -27.8350  -25.1918   18.6923 H   0  0  0  0  0  0
  -29.4871  -25.1924   19.1897 H   0  0  0  0  0  0
  -31.8077  -20.2886   18.1038 H   0  0  0  0  0  0
  -32.5334  -18.7346   17.9332 H   0  0  0  0  0  0
  -28.9907  -15.3782   21.2210 H   0  0  0  0  0  0
  1 25  1  0  0  0
  1 30  2  0  0  0
  1 81  1  0  0  0
  2  3  1  0  0  0
  2 25  1  0  0  0
  2 85  1  0  0  0
  2 86  1  0  0  0
  3  4  1  0  0  0
  3 87  1  0  0  0
  3 88  1  0  0  0
  4  5  1  0  0  0
  4 89  1  0  0  0
  4 90  1  0  0  0
  5  6  1  0  0  0
  5 26  1  0  0  0
  5 91  1  0  0  0
  6 25  1  0  0  0
  6 92  1  0  0  0
  6 93  1  0  0  0
  7  8  2  0  0  0
  7 26  1  0  0  0
  7 29  1  0  0  0
  8  9  1  0  0  0
  8 22  1  0  0  0
  9 10  1  0  0  0
  9 27  2  0  0  0
 10 11  2  0  0  0
 10 15  1  0  0  0
 11 12  1  0  0  0
 11 94  1  0  0  0
 12 13  2  0  0  0
 12 95  1  0  0  0
 13 14  1  0  0  0
 13 31  1  0  0  0
 14 15  2  0  0  0
 14 96  1  0  0  0
 15 97  1  0  0  0
 16 17  2  0  0  0
 16 21  1  0  0  0
 16 31  1  0  0  0
 17 18  1  0  0  0
 17 98  1  0  0  0
 18 19  2  0  0  0
 18 99  1  0  0  0
 19 20  1  0  0  0
 19 24  1  0  0  0
 20 21  2  0  0  0
 20100  1  0  0  0
 21 23  1  0  0  0
 22 28  1  0  0  0
 22 32  2  0  0  0
 26 27  1  0  0  0
 28101  1  0  0  0
 28102  1  0  0  0
 29103  1  0  0  0
 29104  1  0  0  0
 33 34  1  0  0  0
 33 66  1  0  0  0
 33 70  2  0  0  0
 34 36  1  0  0  0
 34 59  1  0  0  0
 34105  1  0  0  0
 35 44  2  0  0  0
 35 45  1  0  0  0
 35 68  1  0  0  0
 36 56  1  0  0  0
 36106  1  0  0  0
 37 39  1  0  0  0
 37 47  1  0  0  0
 37 66  1  0  0  0
 37107  1  0  0  0
 38 43  2  0  0  0
 38 46  1  0  0  0
 38 47  1  0  0  0
 39 64  1  0  0  0
 39 67  2  0  0  0
 40 52  1  0  0  0
 40 53  2  0  0  0
 40 58  1  0  0  0
 41108  1  0  0  0
 41109  1  0  0  0
 41110  1  0  0  0
 41 48  1  0  0  0
 42 43  1  0  0  0
 42 66  1  0  0  0
 42111  1  0  0  0
 42112  1  0  0  0
 43 44  1  0  0  0
 44113  1  0  0  0
 45 46  2  0  0  0
 45114  1  0  0  0
 46115  1  0  0  0
 47116  1  0  0  0
 47117  1  0  0  0
 48 56  1  0  0  0
 48 65  1  0  0  0
 48118  1  0  0  0
 49 50  1  0  0  0
 49 53  1  0  0  0
 49 64  1  0  0  0
 49119  1  0  0  0
 50 51  1  0  0  0
 50120  1  0  0  0
 50121  1  0  0  0
 51 52  1  0  0  0
 51122  1  0  0  0
 51123  1  0  0  0
 52124  1  0  0  0
 52125  1  0  0  0
 53 54  1  0  0  0
 54 55  2  0  0  0
 54126  1  0  0  0
 55 57  1  0  0  0
 55127  1  0  0  0
 56 69  2  0  0  0
 57 58  2  0  0  0
 57128  1  0  0  0
 58129  1  0  0  0
 59 60  1  0  0  0
 59 61  1  0  0  0
 59 62  1  0  0  0
 60130  1  0  0  0
 60131  1  0  0  0
 60132  1  0  0  0
 61133  1  0  0  0
 61134  1  0  0  0
 61135  1  0  0  0
 62136  1  0  0  0
 62137  1  0  0  0
 62138  1  0  0  0
 63 65  1  0  0  0
 63139  1  0  0  0
 63140  1  0  0  0
 63141  1  0  0  0
 64142  1  0  0  0
 65143  1  0  0  0
 68 78  1  0  0  0
 71 72  2  0  0  0
 71 74  1  0  0  0
 71 84  1  0  0  0
 72 79  1  0  0  0
 72 80  1  0  0  0
 73 79  2  0  0  0
 73 81  1  0  0  0
 73 84  1  0  0  0
 74 76  1  0  0  0
 74 82  2  0  0  0
 75 77  1  0  0  0
 75 78  1  0  0  0
 75 83  2  0  0  0
 76 77  1  0  0  0
 76144  1  0  0  0
 76145  1  0  0  0
 77146  1  0  0  0
 77147  1  0  0  0
 78148  1  0  0  0
 78149  1  0  0  0
 80150  1  0  0  0
 80151  1  0  0  0
 81152  1  0  0  0
M  ISO  4   1 100  68 101  78 101  81 100
M  END
> <chiral flag>
0

> <version>
0

> <s_m_source_file>
/data/baiqing/PycharmProjects/Reinvent-master-3.2/result/LINK_invent/BTK/process_docking_weight1_custom_product_contain_oxygen_bond_distance_aromatic_linkinvent_7_9_3/rearranged_h_0180.sdf

> <i_m_source_file_index>
42

> <r_mmod_Potential_Energy-OPLS-2005>
-172.238067626953

> <r_mmod_Stretch_Energy-OPLS-2005>
47.105655670166

> <r_mmod_Bend_Energy-OPLS-2005>
127.137084960938

> <r_mmod_Torsional_Energy-OPLS-2005>
200.840667724609

> <r_mmod_Improper_Torsional_Energy-OPLS-2005>
4.59500551223755

> <r_mmod_Van_der_Waal_Energy-OPLS-2005>
131.034408569336

> <r_mmod_Electrostatic_Energy-OPLS-2005>
-443.142639160156

> <r_mmod_Solvation_Energy-OPLS-2005>
-263.587982177734

> <b_mmod_Minimization_Converged-OPLS-2005>
0

> <r_mmod_RMS_Derivative-OPLS-2005>
2.30391216278076

$$$$
42
                    3D
 Structure written by MMmdl.
161169  0  0  1  0            999 V2000
  -30.6793  -14.5158   20.5805 C   0  0  0  0  0  0
  -30.4193  -12.3225   19.4438 C   0  0  0  0  0  0
  -29.5038  -12.5218   18.2157 C   0  0  0  0  0  0
  -28.0209  -12.3900   18.6195 C   0  0  0  0  0  0
  -27.6594  -13.2219   19.8810 C   0  0  2  0  0  0
  -28.7014  -13.0076   21.0034 C   0  0  0  0  0  0
  -25.2503  -13.8191   20.5676 C   0  0  0  0  0  0
  -24.1805  -13.0422   20.9192 C   0  0  0  0  0  0
  -24.6410  -11.6908   20.8770 C   0  0  0  0  0  0
  -23.9102  -10.4267   21.0423 C   0  0  0  0  0  0
  -24.3638   -9.4152   21.9181 C   0  0  0  0  0  0
  -23.6284   -8.2201   22.0768 C   0  0  0  0  0  0
  -22.4251   -8.0276   21.3570 C   0  0  0  0  0  0
  -21.9899   -9.0269   20.4682 C   0  0  0  0  0  0
  -22.7280  -10.2120   20.3064 C   0  0  0  0  0  0
  -21.6846   -6.0721   22.5278 C   0  0  0  0  0  0
  -21.4047   -6.5632   23.8214 C   0  0  0  0  0  0
  -21.3671   -5.6778   24.9173 C   0  0  0  0  0  0
  -21.6023   -4.3032   24.7217 C   0  0  0  0  0  0
  -21.8807   -3.8131   23.4335 C   0  0  0  0  0  0
  -21.9169   -4.6951   22.3395 C   0  0  0  0  0  0
  -22.7809  -13.5197   21.1833 C   0  0  0  0  0  0
  -22.1634   -4.2135   21.0972 F   0  0  0  0  0  0
  -21.5616   -3.4519   25.7731 F   0  0  0  0  0  0
  -30.0264  -13.3247   20.4472 N   0  0  0  0  0  0
  -26.3000  -12.9420   20.3395 N   0  0  0  0  0  0
  -25.9343  -11.6562   20.5808 N   0  0  0  0  0  0
  -22.0449  -12.8235   22.0436 N   0  0  0  0  0  0
  -25.4087  -15.1935   20.4086 N   0  0  0  0  0  0
  -31.8248  -14.6893   20.1485 O   0  0  0  0  0  0
  -21.6620   -6.8870   21.4245 O   0  0  0  0  0  0
  -22.3477  -14.5474   20.6645 O   0  0  0  0  0  0
  -24.6176  -31.8663   23.2086 C   0  0  0  0  0  0
  -25.9062  -32.4819   23.8382 C   0  0  1  0  0  0
  -27.2307  -27.3887   20.1013 C   0  0  0  0  0  0
  -25.5895  -33.8621   24.2302 N   0  0  0  0  0  0
  -23.4080  -30.4905   21.5530 C   0  0  2  0  0  0
  -24.8523  -28.9558   20.1157 C   0  0  0  0  0  0
  -22.7426  -29.4640   22.5004 C   0  0  0  0  0  0
  -18.0263  -28.1345   22.8476 C   0  0  0  0  0  0
  -24.1476  -36.7300   23.2641 C   0  0  0  0  0  0
  -25.9435  -30.8196   21.3689 C   0  0  0  0  0  0
  -26.0200  -29.4529   20.7077 C   0  0  0  0  0  0
  -27.2132  -28.6826   20.6885 C   0  0  0  0  0  0
  -26.0365  -26.9260   19.4940 C   0  0  0  0  0  0
  -24.8603  -27.6942   19.5025 C   0  0  0  0  0  0
  -23.6175  -29.8280   20.1667 C   0  0  0  0  0  0
  -25.4111  -36.3127   24.0341 C   0  0  1  0  0  0
  -20.5855  -28.3616   23.1314 C   0  0  2  0  0  0
  -20.6743  -26.9353   22.5415 C   0  0  0  0  0  0
  -19.5740  -26.6362   21.5191 C   0  0  0  0  0  0
  -18.1911  -26.7888   22.1601 C   0  0  0  0  0  0
  -19.1515  -28.8807   23.2880 C   0  0  0  0  0  0
  -18.9447  -30.1411   23.8883 C   0  0  0  0  0  0
  -17.6453  -30.6561   24.0557 C   0  0  0  0  0  0
  -25.9052  -34.9492   23.5137 C   0  0  0  0  0  0
  -16.5347  -29.9061   23.6323 C   0  0  0  0  0  0
  -16.7246  -28.6483   23.0329 C   0  0  0  0  0  0
  -26.4445  -31.6609   25.0726 C   0  0  0  0  0  0
  -25.3692  -31.3732   26.1467 C   0  0  0  0  0  0
  -27.0292  -30.3052   24.6124 C   0  0  0  0  0  0
  -27.6006  -32.4330   25.7488 C   0  0  0  0  0  0
  -27.5584  -37.1813   24.8459 C   0  0  0  0  0  0
  -21.4151  -29.3005   22.3754 N   0  0  0  0  0  0
  -26.4281  -37.3826   23.9429 N   0  0  0  0  0  0
  -24.6750  -31.0733   22.1015 N   0  0  0  0  0  0
  -23.4181  -28.8169   23.3053 O   0  0  0  0  0  0
  -28.3754  -26.5971   20.1324 O   0  0  0  0  0  0
  -26.5648  -34.8954   22.4710 O   0  0  0  0  0  0
  -23.5363  -32.1421   23.7449 O   0  0  0  0  0  0
  -31.2572  -17.0694   22.3724 C   0  0  0  0  0  0
  -30.8543  -19.4696   22.2848 C   0  0  0  0  0  0
  -31.5421  -18.3625   22.8275 C   0  0  0  0  0  0
  -30.2784  -16.8839   21.3792 C   0  0  0  0  0  0
  -29.9006  -19.2320   21.2681 C   0  0  0  0  0  0
  -29.1866  -22.8460   20.9599 C   0  0  0  0  0  0
  -31.0086  -22.1035   18.0159 C   0  0  0  0  0  0
  -29.4429  -24.2886   20.4265 C   0  0  0  0  0  0
  -28.1783  -25.1507   20.1184 C   0  0  0  0  0  0
  -29.5817  -21.5771   20.1111 C   0  0  1  0  0  0
  -31.0181  -21.6267   19.4822 C   0  0  0  0  0  0
  -29.6052  -17.9604   20.8688 N   0  0  0  0  0  0
  -31.0913  -20.7430   22.8033 N   0  0  0  0  0  0
  -29.9148  -15.5368   21.0446 N   0  0  0  0  0  0
  -29.1332  -20.2607   20.6610 N   0  0  0  0  0  0
  -28.6707  -22.7346   22.0739 O   0  0  0  0  0  0
  -32.4519  -18.5497   23.8147 F   0  0  0  0  0  0
  -31.6085  -20.4321   19.4503 F   0  0  0  0  0  0
  -31.8133  -22.4392   20.1777 F   0  0  0  0  0  0
  -31.4732  -12.3927   19.1667 H   0  0  0  0  0  0
  -30.2948  -11.3164   19.8499 H   0  0  0  0  0  0
  -29.7474  -11.7932   17.4433 H   0  0  0  0  0  0
  -29.6872  -13.5045   17.7781 H   0  0  0  0  0  0
  -27.8193  -11.3358   18.8088 H   0  0  0  0  0  0
  -27.3780  -12.6774   17.7858 H   0  0  0  0  0  0
  -27.6964  -14.2714   19.5886 H   0  0  0  0  0  0
  -28.6848  -11.9759   21.3550 H   0  0  0  0  0  0
  -28.4677  -13.6104   21.8825 H   0  0  0  0  0  0
  -25.2791   -9.5575   22.4748 H   0  0  0  0  0  0
  -23.9967   -7.4576   22.7490 H   0  0  0  0  0  0
  -21.0797   -8.8830   19.9006 H   0  0  0  0  0  0
  -22.3775  -10.9661   19.6153 H   0  0  0  0  0  0
  -21.2108   -7.6155   23.9729 H   0  0  0  0  0  0
  -21.1507   -6.0512   25.9078 H   0  0  0  0  0  0
  -22.0580   -2.7596   23.2832 H   0  0  0  0  0  0
  -22.4066  -11.9936   22.4903 H   0  0  0  0  0  0
  -21.1077  -13.1321   22.2649 H   0  0  0  0  0  0
  -24.6198  -15.8244   20.5084 H   0  0  0  0  0  0
  -26.2434  -15.6567   20.0716 H   0  0  0  0  0  0
  -26.7132  -32.5491   23.1138 H   0  0  0  0  0  0
  -25.0007  -33.9775   25.0425 H   0  0  0  0  0  0
  -22.6963  -31.3064   21.4160 H   0  0  0  0  0  0
  -23.3770  -35.9592   23.3291 H   0  0  0  0  0  0
  -24.3562  -36.8927   22.2052 H   0  0  0  0  0  0
  -23.7173  -37.6481   23.6656 H   0  0  0  0  0  0
  -26.0719  -31.5896   20.6060 H   0  0  0  0  0  0
  -26.8250  -30.8613   21.9976 H   0  0  0  0  0  0
  -28.1139  -29.0687   21.1467 H   0  0  0  0  0  0
  -25.9863  -25.9646   19.0081 H   0  0  0  0  0  0
  -23.9643  -27.3034   19.0378 H   0  0  0  0  0  0
  -23.7325  -30.6065   19.4111 H   0  0  0  0  0  0
  -22.7367  -29.2559   19.8647 H   0  0  0  0  0  0
  -25.1278  -36.2000   25.0828 H   0  0  0  0  0  0
  -20.9916  -28.3170   24.1444 H   0  0  0  0  0  0
  -20.5589  -26.2236   23.3595 H   0  0  0  0  0  0
  -21.6625  -26.7375   22.1251 H   0  0  0  0  0  0
  -19.6915  -25.6270   21.1207 H   0  0  0  0  0  0
  -19.6686  -27.3173   20.6715 H   0  0  0  0  0  0
  -17.4178  -26.6591   21.4001 H   0  0  0  0  0  0
  -18.0345  -26.0014   22.8990 H   0  0  0  0  0  0
  -19.7938  -30.7219   24.2243 H   0  0  0  0  0  0
  -17.5025  -31.6231   24.5156 H   0  0  0  0  0  0
  -15.5344  -30.2964   23.7679 H   0  0  0  0  0  0
  -15.8637  -28.0824   22.7031 H   0  0  0  0  0  0
  -24.5813  -30.7149   25.7797 H   0  0  0  0  0  0
  -24.8933  -32.2896   26.4961 H   0  0  0  0  0  0
  -25.8005  -30.8839   27.0206 H   0  0  0  0  0  0
  -26.2870  -29.6826   24.1114 H   0  0  0  0  0  0
  -27.4008  -29.7272   25.4596 H   0  0  0  0  0  0
  -27.8719  -30.4390   23.9339 H   0  0  0  0  0  0
  -27.2612  -33.3612   26.2100 H   0  0  0  0  0  0
  -28.3784  -32.6926   25.0295 H   0  0  0  0  0  0
  -28.0709  -31.8437   26.5367 H   0  0  0  0  0  0
  -28.2611  -38.0114   24.7572 H   0  0  0  0  0  0
  -28.1083  -36.2660   24.6205 H   0  0  0  0  0  0
  -27.2326  -37.1384   25.8868 H   0  0  0  0  0  0
  -20.9315  -29.8760   21.6999 H   0  0  0  0  0  0
  -26.0180  -38.2907   24.1431 H   0  0  0  0  0  0
  -31.7684  -16.2321   22.8231 H   0  0  0  0  0  0
  -30.4313  -21.4312   17.3824 H   0  0  0  0  0  0
  -32.0122  -22.1409   17.5933 H   0  0  0  0  0  0
  -30.5743  -23.0930   17.8978 H   0  0  0  0  0  0
  -30.0883  -24.2548   19.5555 H   0  0  0  0  0  0
  -30.0259  -24.8025   21.1927 H   0  0  0  0  0  0
  -27.3860  -24.9022   20.8251 H   0  0  0  0  0  0
  -27.8282  -24.8508   19.1287 H   0  0  0  0  0  0
  -28.9265  -21.6424   19.2434 H   0  0  0  0  0  0
  -31.9477  -20.9267   23.3125 H   0  0  0  0  0  0
  -30.6841  -21.5398   22.3342 H   0  0  0  0  0  0
  -28.9416  -15.3086   21.1724 H   0  0  0  0  0  0
  -28.3312  -19.9007   20.1648 H   0  0  0  0  0  0
  1 25  1  0  0  0
  1 30  2  0  0  0
  1 84  1  0  0  0
  2  3  1  0  0  0
  2 25  1  0  0  0
  2 90  1  0  0  0
  2 91  1  0  0  0
  3  4  1  0  0  0
  3 92  1  0  0  0
  3 93  1  0  0  0
  4  5  1  0  0  0
  4 94  1  0  0  0
  4 95  1  0  0  0
  5  6  1  0  0  0
  5 26  1  0  0  0
  5 96  1  0  0  0
  6 25  1  0  0  0
  6 97  1  0  0  0
  6 98  1  0  0  0
  7  8  2  0  0  0
  7 26  1  0  0  0
  7 29  1  0  0  0
  8  9  1  0  0  0
  8 22  1  0  0  0
  9 10  1  0  0  0
  9 27  2  0  0  0
 10 11  2  0  0  0
 10 15  1  0  0  0
 11 12  1  0  0  0
 11 99  1  0  0  0
 12 13  2  0  0  0
 12100  1  0  0  0
 13 14  1  0  0  0
 13 31  1  0  0  0
 14 15  2  0  0  0
 14101  1  0  0  0
 15102  1  0  0  0
 16 17  2  0  0  0
 16 21  1  0  0  0
 16 31  1  0  0  0
 17 18  1  0  0  0
 17103  1  0  0  0
 18 19  2  0  0  0
 18104  1  0  0  0
 19 20  1  0  0  0
 19 24  1  0  0  0
 20 21  2  0  0  0
 20105  1  0  0  0
 21 23  1  0  0  0
 22 28  1  0  0  0
 22 32  2  0  0  0
 26 27  1  0  0  0
 28106  1  0  0  0
 28107  1  0  0  0
 29108  1  0  0  0
 29109  1  0  0  0
 33 34  1  0  0  0
 33 66  1  0  0  0
 33 70  2  0  0  0
 34 36  1  0  0  0
 34 59  1  0  0  0
 34110  1  0  0  0
 35 44  2  0  0  0
 35 45  1  0  0  0
 35 68  1  0  0  0
 36 56  1  0  0  0
 36111  1  0  0  0
 37 39  1  0  0  0
 37 47  1  0  0  0
 37 66  1  0  0  0
 37112  1  0  0  0
 38 43  2  0  0  0
 38 46  1  0  0  0
 38 47  1  0  0  0
 39 64  1  0  0  0
 39 67  2  0  0  0
 40 52  1  0  0  0
 40 53  2  0  0  0
 40 58  1  0  0  0
 41113  1  0  0  0
 41114  1  0  0  0
 41115  1  0  0  0
 41 48  1  0  0  0
 42 43  1  0  0  0
 42 66  1  0  0  0
 42116  1  0  0  0
 42117  1  0  0  0
 43 44  1  0  0  0
 44118  1  0  0  0
 45 46  2  0  0  0
 45119  1  0  0  0
 46120  1  0  0  0
 47121  1  0  0  0
 47122  1  0  0  0
 48 56  1  0  0  0
 48 65  1  0  0  0
 48123  1  0  0  0
 49 50  1  0  0  0
 49 53  1  0  0  0
 49 64  1  0  0  0
 49124  1  0  0  0
 50 51  1  0  0  0
 50125  1  0  0  0
 50126  1  0  0  0
 51 52  1  0  0  0
 51127  1  0  0  0
 51128  1  0  0  0
 52129  1  0  0  0
 52130  1  0  0  0
 53 54  1  0  0  0
 54 55  2  0  0  0
 54131  1  0  0  0
 55 57  1  0  0  0
 55132  1  0  0  0
 56 69  2  0  0  0
 57 58  2  0  0  0
 57133  1  0  0  0
 58134  1  0  0  0
 59 60  1  0  0  0
 59 61  1  0  0  0
 59 62  1  0  0  0
 60135  1  0  0  0
 60136  1  0  0  0
 60137  1  0  0  0
 61138  1  0  0  0
 61139  1  0  0  0
 61140  1  0  0  0
 62141  1  0  0  0
 62142  1  0  0  0
 62143  1  0  0  0
 63 65  1  0  0  0
 63144  1  0  0  0
 63145  1  0  0  0
 63146  1  0  0  0
 64147  1  0  0  0
 65148  1  0  0  0
 68 79  1  0  0  0
 71 73  2  0  0  0
 71 74  1  0  0  0
 71149  1  0  0  0
 72 73  1  0  0  0
 72 75  2  0  0  0
 72 83  1  0  0  0
 73 87  1  0  0  0
 74 82  2  0  0  0
 74 84  1  0  0  0
 75 82  1  0  0  0
 75 85  1  0  0  0
 76 78  1  0  0  0
 76 80  1  0  0  0
 76 86  2  0  0  0
 77150  1  0  0  0
 77151  1  0  0  0
 77152  1  0  0  0
 77 81  1  0  0  0
 78 79  1  0  0  0
 78153  1  0  0  0
 78154  1  0  0  0
 79155  1  0  0  0
 79156  1  0  0  0
 80 81  1  0  0  0
 80 85  1  0  0  0
 80157  1  0  0  0
 81 88  1  0  0  0
 81 89  1  0  0  0
 83158  1  0  0  0
 83159  1  0  0  0
 84160  1  0  0  0
 85161  1  0  0  0
M  ISO  4   1 100  68 101  79 101  84 100
M  END
> <chiral flag>
0

> <version>
0

> <s_m_source_file>
/data/baiqing/PycharmProjects/Reinvent-master-3.2/result/LINK_invent/BTK/process_docking_weight1_custom_product_contain_oxygen_bond_distance_aromatic_linkinvent_7_9_3/rearranged_h_0180.sdf

> <i_m_source_file_index>
43

> <r_mmod_Potential_Energy-OPLS-2005>
-234.394775390625

> <r_mmod_Stretch_Energy-OPLS-2005>
56.0476837158203

> <r_mmod_Bend_Energy-OPLS-2005>
151.303421020508

> <r_mmod_Torsional_Energy-OPLS-2005>
245.408248901367

> <r_mmod_Improper_Torsional_Energy-OPLS-2005>
9.07656478881836

> <r_mmod_Van_der_Waal_Energy-OPLS-2005>
158.94157409668

> <r_mmod_Electrostatic_Energy-OPLS-2005>
-629.134704589844

> <r_mmod_Solvation_Energy-OPLS-2005>
-246.690353393555

> <b_mmod_Minimization_Converged-OPLS-2005>
0

> <r_mmod_RMS_Derivative-OPLS-2005>
4.702712059021

$$$$
43
                    3D
 Structure written by MMmdl.
156164  0  0  1  0            999 V2000
  -30.7070  -14.4233   20.6305 C   0  0  0  0  0  0
  -30.4269  -12.2944   19.4076 C   0  0  0  0  0  0
  -29.4929  -12.5190   18.2005 C   0  0  0  0  0  0
  -28.0140  -12.3782   18.6123 C   0  0  0  0  0  0
  -27.6673  -13.1985   19.8826 C   0  0  2  0  0  0
  -28.7045  -12.9310   20.9957 C   0  0  0  0  0  0
  -25.2609  -13.8144   20.5665 C   0  0  0  0  0  0
  -24.1847  -13.0434   20.9155 C   0  0  0  0  0  0
  -24.6385  -11.6897   20.8723 C   0  0  0  0  0  0
  -23.9050  -10.4290   21.0401 C   0  0  0  0  0  0
  -24.3606   -9.4208   21.9180 C   0  0  0  0  0  0
  -23.6283   -8.2245   22.0755 C   0  0  0  0  0  0
  -22.4266   -8.0281   21.3543 C   0  0  0  0  0  0
  -21.9896   -9.0255   20.4647 C   0  0  0  0  0  0
  -22.7223  -10.2133   20.3052 C   0  0  0  0  0  0
  -21.6850   -6.0731   22.5279 C   0  0  0  0  0  0
  -21.4015   -6.5637   23.8212 C   0  0  0  0  0  0
  -21.3660   -5.6789   24.9173 C   0  0  0  0  0  0
  -21.6045   -4.3054   24.7226 C   0  0  0  0  0  0
  -21.8819   -3.8144   23.4349 C   0  0  0  0  0  0
  -21.9191   -4.6959   22.3403 C   0  0  0  0  0  0
  -22.7872  -13.5245   21.1828 C   0  0  0  0  0  0
  -22.1658   -4.2144   21.0981 F   0  0  0  0  0  0
  -21.5629   -3.4538   25.7740 F   0  0  0  0  0  0
  -30.0451  -13.2457   20.4625 N   0  0  0  0  0  0
  -26.3045  -12.9298   20.3377 N   0  0  0  0  0  0
  -25.9311  -11.6465   20.5757 N   0  0  0  0  0  0
  -22.0509  -12.8247   22.0391 N   0  0  0  0  0  0
  -25.4353  -15.1860   20.4082 N   0  0  0  0  0  0
  -31.7817  -14.6711   20.0712 O   0  0  0  0  0  0
  -21.6636   -6.8874   21.4240 O   0  0  0  0  0  0
  -22.3562  -14.5554   20.6683 O   0  0  0  0  0  0
  -24.6099  -31.8702   23.2119 C   0  0  0  0  0  0
  -25.9009  -32.4838   23.8402 C   0  0  1  0  0  0
  -27.2499  -27.4648   20.1059 C   0  0  0  0  0  0
  -25.5880  -33.8634   24.2341 N   0  0  0  0  0  0
  -23.3969  -30.4908   21.5510 C   0  0  2  0  0  0
  -24.8468  -28.9524   20.1231 C   0  0  0  0  0  0
  -22.7383  -29.4666   22.5017 C   0  0  0  0  0  0
  -18.0262  -28.1371   22.8498 C   0  0  0  0  0  0
  -24.1483  -36.7325   23.2640 C   0  0  0  0  0  0
  -25.9192  -30.8451   21.3589 C   0  0  0  0  0  0
  -26.0002  -29.4759   20.7198 C   0  0  0  0  0  0
  -27.2026  -28.7398   20.7125 C   0  0  0  0  0  0
  -26.0841  -26.9512   19.5024 C   0  0  0  0  0  0
  -24.8806  -27.6846   19.5139 C   0  0  0  0  0  0
  -23.6055  -29.8152   20.1679 C   0  0  0  0  0  0
  -25.4106  -36.3124   24.0340 C   0  0  1  0  0  0
  -20.5849  -28.3651   23.1332 C   0  0  2  0  0  0
  -20.6752  -26.9393   22.5420 C   0  0  0  0  0  0
  -19.5734  -26.6384   21.5214 C   0  0  0  0  0  0
  -18.1912  -26.7918   22.1626 C   0  0  0  0  0  0
  -19.1511  -28.8828   23.2913 C   0  0  0  0  0  0
  -18.9443  -30.1437   23.8918 C   0  0  0  0  0  0
  -17.6447  -30.6581   24.0568 C   0  0  0  0  0  0
  -25.9025  -34.9485   23.5137 C   0  0  0  0  0  0
  -16.5336  -29.9087   23.6327 C   0  0  0  0  0  0
  -16.7253  -28.6503   23.0350 C   0  0  0  0  0  0
  -26.4469  -31.6603   25.0707 C   0  0  0  0  0  0
  -25.3751  -31.3662   26.1460 C   0  0  0  0  0  0
  -27.0329  -30.3073   24.6037 C   0  0  0  0  0  0
  -27.6040  -32.4331   25.7471 C   0  0  0  0  0  0
  -27.5585  -37.1814   24.8464 C   0  0  0  0  0  0
  -21.4116  -29.3024   22.3747 N   0  0  0  0  0  0
  -26.4299  -37.3802   23.9406 N   0  0  0  0  0  0
  -24.6600  -31.0829   22.1001 N   0  0  0  0  0  0
  -23.4169  -28.8219   23.3058 O   0  0  0  0  0  0
  -28.4066  -26.7258   20.0081 O   0  0  0  0  0  0
  -26.5588  -34.8929   22.4699 O   0  0  0  0  0  0
  -23.5302  -32.1441   23.7537 O   0  0  0  0  0  0
  -29.8042  -19.1053   21.9590 C   0  0  0  0  0  0
  -30.6737  -18.8405   20.9167 C   0  0  0  0  0  0
  -30.1418  -16.7006   21.5003 C   0  0  0  0  0  0
  -29.3521  -20.3574   22.6243 C   0  0  0  0  0  0
  -28.6584  -23.7149   20.9301 C   0  0  0  0  0  0
  -28.8214  -22.6657   22.0650 C   0  0  0  0  0  0
  -31.4309  -19.8288   20.0795 C   0  0  0  0  0  0
  -30.1119  -27.2549   21.6634 C   0  0  0  0  0  0
  -29.6474  -24.8867   20.9472 C   0  0  0  0  0  0
  -29.0150  -26.2699   21.2199 C   0  0  2  0  0  0
  -30.8466  -17.4695   20.6620 N   0  0  0  0  0  0
  -29.1893  -21.3895   21.7597 N   0  5  0  0  0  0
  -30.0886  -15.2843   21.4549 N   0  0  0  0  0  0
  -29.1422  -20.3271   23.8412 O   0  0  0  0  0  0
  -27.8023  -23.6046   20.0431 O   0  0  0  0  0  0
  -28.5936  -23.1074   23.1996 O   0  0  0  0  0  0
  -29.1942  -17.6156   22.6573 S   0  0  0  0  0  0
  -31.4698  -12.4042   19.1043 H   0  0  0  0  0  0
  -30.3345  -11.2724   19.7781 H   0  0  0  0  0  0
  -29.7271  -11.8092   17.4061 H   0  0  0  0  0  0
  -29.6637  -13.5125   17.7825 H   0  0  0  0  0  0
  -27.8182  -11.3204   18.7919 H   0  0  0  0  0  0
  -27.3642  -12.6713   17.7871 H   0  0  0  0  0  0
  -27.7269  -14.2533   19.6135 H   0  0  0  0  0  0
  -28.6742  -11.8812   21.2908 H   0  0  0  0  0  0
  -28.4490  -13.4820   21.9013 H   0  0  0  0  0  0
  -25.2750   -9.5687   22.4752 H   0  0  0  0  0  0
  -23.9993   -7.4638   22.7474 H   0  0  0  0  0  0
  -21.0827   -8.8771   19.8957 H   0  0  0  0  0  0
  -22.3678  -10.9672   19.6164 H   0  0  0  0  0  0
  -21.2010   -7.6145   23.9713 H   0  0  0  0  0  0
  -21.1481   -6.0522   25.9076 H   0  0  0  0  0  0
  -22.0597   -2.7608   23.2849 H   0  0  0  0  0  0
  -22.4115  -11.9908   22.4787 H   0  0  0  0  0  0
  -21.1135  -13.1297   22.2606 H   0  0  0  0  0  0
  -24.6716  -15.8448   20.5155 H   0  0  0  0  0  0
  -26.2915  -15.6228   20.0909 H   0  0  0  0  0  0
  -26.7080  -32.5575   23.1176 H   0  0  0  0  0  0
  -25.0043  -33.9804   25.0492 H   0  0  0  0  0  0
  -22.6843  -31.3059   21.4095 H   0  0  0  0  0  0
  -23.3734  -35.9670   23.3328 H   0  0  0  0  0  0
  -24.3576  -36.8916   22.2050 H   0  0  0  0  0  0
  -23.7248  -37.6543   23.6637 H   0  0  0  0  0  0
  -26.0196  -31.6052   20.5829 H   0  0  0  0  0  0
  -26.8109  -30.9098   21.9702 H   0  0  0  0  0  0
  -28.0877  -29.1783   21.1433 H   0  0  0  0  0  0
  -26.1138  -25.9828   19.0226 H   0  0  0  0  0  0
  -23.9959  -27.2745   19.0468 H   0  0  0  0  0  0
  -23.7103  -30.5856   19.4031 H   0  0  0  0  0  0
  -22.7315  -29.2300   19.8762 H   0  0  0  0  0  0
  -25.1283  -36.2001   25.0834 H   0  0  0  0  0  0
  -20.9943  -28.3207   24.1452 H   0  0  0  0  0  0
  -20.5653  -26.2260   23.3603 H   0  0  0  0  0  0
  -21.6627  -26.7439   22.1217 H   0  0  0  0  0  0
  -19.6899  -25.6303   21.1227 H   0  0  0  0  0  0
  -19.6672  -27.3209   20.6755 H   0  0  0  0  0  0
  -17.4185  -26.6668   21.4025 H   0  0  0  0  0  0
  -18.0310  -26.0052   22.9012 H   0  0  0  0  0  0
  -19.7919  -30.7247   24.2297 H   0  0  0  0  0  0
  -17.5003  -31.6264   24.5165 H   0  0  0  0  0  0
  -15.5340  -30.2999   23.7640 H   0  0  0  0  0  0
  -15.8649  -28.0833   22.7057 H   0  0  0  0  0  0
  -24.5969  -30.6956   25.7798 H   0  0  0  0  0  0
  -24.8873  -32.2782   26.4904 H   0  0  0  0  0  0
  -25.8134  -30.8859   27.0217 H   0  0  0  0  0  0
  -26.2878  -29.6827   24.1097 H   0  0  0  0  0  0
  -27.4150  -29.7298   25.4470 H   0  0  0  0  0  0
  -27.8674  -30.4442   23.9153 H   0  0  0  0  0  0
  -28.0816  -31.8395   26.5279 H   0  0  0  0  0  0
  -27.2632  -33.3558   26.2180 H   0  0  0  0  0  0
  -28.3776  -32.7022   25.0265 H   0  0  0  0  0  0
  -28.2626  -38.0089   24.7503 H   0  0  0  0  0  0
  -28.1057  -36.2627   24.6297 H   0  0  0  0  0  0
  -27.2307  -37.1483   25.8868 H   0  0  0  0  0  0
  -20.9278  -29.8746   21.6967 H   0  0  0  0  0  0
  -26.0194  -38.2885   24.1397 H   0  0  0  0  0  0
  -31.9103  -20.5869   20.6991 H   0  0  0  0  0  0
  -30.7670  -20.3446   19.3857 H   0  0  0  0  0  0
  -32.2131  -19.3497   19.4906 H   0  0  0  0  0  0
  -29.7103  -28.1967   22.0281 H   0  0  0  0  0  0
  -30.7992  -27.4744   20.8459 H   0  0  0  0  0  0
  -30.7003  -26.8413   22.4830 H   0  0  0  0  0  0
  -30.1973  -24.8975   20.0072 H   0  0  0  0  0  0
  -30.3819  -24.6710   21.7232 H   0  0  0  0  0  0
  -28.2712  -26.1778   22.0147 H   0  0  0  0  0  0
  -29.3328  -14.8771   21.9821 H   0  0  0  0  0  0
  1 25  1  0  0  0
  1 30  2  0  0  0
  1 83  1  0  0  0
  2  3  1  0  0  0
  2 25  1  0  0  0
  2 88  1  0  0  0
  2 89  1  0  0  0
  3  4  1  0  0  0
  3 90  1  0  0  0
  3 91  1  0  0  0
  4  5  1  0  0  0
  4 92  1  0  0  0
  4 93  1  0  0  0
  5  6  1  0  0  0
  5 26  1  0  0  0
  5 94  1  0  0  0
  6 25  1  0  0  0
  6 95  1  0  0  0
  6 96  1  0  0  0
  7  8  2  0  0  0
  7 26  1  0  0  0
  7 29  1  0  0  0
  8  9  1  0  0  0
  8 22  1  0  0  0
  9 10  1  0  0  0
  9 27  2  0  0  0
 10 11  2  0  0  0
 10 15  1  0  0  0
 11 12  1  0  0  0
 11 97  1  0  0  0
 12 13  2  0  0  0
 12 98  1  0  0  0
 13 14  1  0  0  0
 13 31  1  0  0  0
 14 15  2  0  0  0
 14 99  1  0  0  0
 15100  1  0  0  0
 16 17  2  0  0  0
 16 21  1  0  0  0
 16 31  1  0  0  0
 17 18  1  0  0  0
 17101  1  0  0  0
 18 19  2  0  0  0
 18102  1  0  0  0
 19 20  1  0  0  0
 19 24  1  0  0  0
 20 21  2  0  0  0
 20103  1  0  0  0
 21 23  1  0  0  0
 22 28  1  0  0  0
 22 32  2  0  0  0
 26 27  1  0  0  0
 28104  1  0  0  0
 28105  1  0  0  0
 29106  1  0  0  0
 29107  1  0  0  0
 33 34  1  0  0  0
 33 66  1  0  0  0
 33 70  2  0  0  0
 34 36  1  0  0  0
 34 59  1  0  0  0
 34108  1  0  0  0
 35 44  2  0  0  0
 35 45  1  0  0  0
 35 68  1  0  0  0
 36 56  1  0  0  0
 36109  1  0  0  0
 37 39  1  0  0  0
 37 47  1  0  0  0
 37 66  1  0  0  0
 37110  1  0  0  0
 38 43  2  0  0  0
 38 46  1  0  0  0
 38 47  1  0  0  0
 39 64  1  0  0  0
 39 67  2  0  0  0
 40 52  1  0  0  0
 40 53  2  0  0  0
 40 58  1  0  0  0
 41111  1  0  0  0
 41112  1  0  0  0
 41113  1  0  0  0
 41 48  1  0  0  0
 42 43  1  0  0  0
 42 66  1  0  0  0
 42114  1  0  0  0
 42115  1  0  0  0
 43 44  1  0  0  0
 44116  1  0  0  0
 45 46  2  0  0  0
 45117  1  0  0  0
 46118  1  0  0  0
 47119  1  0  0  0
 47120  1  0  0  0
 48 56  1  0  0  0
 48 65  1  0  0  0
 48121  1  0  0  0
 49 50  1  0  0  0
 49 53  1  0  0  0
 49 64  1  0  0  0
 49122  1  0  0  0
 50 51  1  0  0  0
 50123  1  0  0  0
 50124  1  0  0  0
 51 52  1  0  0  0
 51125  1  0  0  0
 51126  1  0  0  0
 52127  1  0  0  0
 52128  1  0  0  0
 53 54  1  0  0  0
 54 55  2  0  0  0
 54129  1  0  0  0
 55 57  1  0  0  0
 55130  1  0  0  0
 56 69  2  0  0  0
 57 58  2  0  0  0
 57131  1  0  0  0
 58132  1  0  0  0
 59 60  1  0  0  0
 59 61  1  0  0  0
 59 62  1  0  0  0
 60133  1  0  0  0
 60134  1  0  0  0
 60135  1  0  0  0
 61136  1  0  0  0
 61137  1  0  0  0
 61138  1  0  0  0
 62139  1  0  0  0
 62140  1  0  0  0
 62141  1  0  0  0
 63 65  1  0  0  0
 63142  1  0  0  0
 63143  1  0  0  0
 63144  1  0  0  0
 64145  1  0  0  0
 65146  1  0  0  0
 68 80  1  0  0  0
 71 72  2  0  0  0
 71 74  1  0  0  0
 71 87  1  0  0  0
 72 77  1  0  0  0
 72 81  1  0  0  0
 73 81  2  0  0  0
 73 83  1  0  0  0
 73 87  1  0  0  0
 74 82  1  0  0  0
 74 84  2  0  0  0
 75 76  1  0  0  0
 75 79  1  0  0  0
 75 85  2  0  0  0
 76 82  1  0  0  0
 76 86  2  0  0  0
 77147  1  0  0  0
 77148  1  0  0  0
 77149  1  0  0  0
 78150  1  0  0  0
 78151  1  0  0  0
 78152  1  0  0  0
 78 80  1  0  0  0
 79 80  1  0  0  0
 79153  1  0  0  0
 79154  1  0  0  0
 80155  1  0  0  0
 83156  1  0  0  0
M  CHG  1  82  -1
M  ISO  4   1 100  68 101  80 101  83 100
M  END
> <chiral flag>
0

> <version>
0

> <s_m_source_file>
/data/baiqing/PycharmProjects/Reinvent-master-3.2/result/LINK_invent/BTK/process_docking_weight1_custom_product_contain_oxygen_bond_distance_aromatic_linkinvent_7_9_3/rearranged_h_0180.sdf

> <i_m_source_file_index>
44

> <r_mmod_Potential_Energy-OPLS-2005>
-313.561614990234

> <r_mmod_Stretch_Energy-OPLS-2005>
34.643310546875

> <r_mmod_Bend_Energy-OPLS-2005>
115.245910644531

> <r_mmod_Torsional_Energy-OPLS-2005>
234.170837402344

> <r_mmod_Improper_Torsional_Energy-OPLS-2005>
2.99498867988586

> <r_mmod_Van_der_Waal_Energy-OPLS-2005>
129.060638427734

> <r_mmod_Electrostatic_Energy-OPLS-2005>
-317.689971923828

> <r_mmod_Solvation_Energy-OPLS-2005>
-518.818908691406

> <b_mmod_Minimization_Converged-OPLS-2005>
0

> <r_mmod_RMS_Derivative-OPLS-2005>
0.660299718379974

$$$$
44
                    3D
 Structure written by MMmdl.
153161  0  0  1  0            999 V2000
  -30.6078  -14.8010   20.5018 C   0  0  0  0  0  0
  -30.4393  -12.5129   19.4617 C   0  0  0  0  0  0
  -29.5057  -12.5307   18.2289 C   0  0  0  0  0  0
  -28.0327  -12.3390   18.6430 C   0  0  0  0  0  0
  -27.6397  -13.2252   19.8536 C   0  0  2  0  0  0
  -28.6911  -13.1097   20.9756 C   0  0  0  0  0  0
  -25.2473  -13.8169   20.5652 C   0  0  0  0  0  0
  -24.1780  -13.0418   20.9205 C   0  0  0  0  0  0
  -24.6376  -11.6902   20.8757 C   0  0  0  0  0  0
  -23.9058  -10.4283   21.0416 C   0  0  0  0  0  0
  -24.3610   -9.4198   21.9189 C   0  0  0  0  0  0
  -23.6286   -8.2234   22.0754 C   0  0  0  0  0  0
  -22.4269   -8.0274   21.3541 C   0  0  0  0  0  0
  -21.9903   -9.0248   20.4645 C   0  0  0  0  0  0
  -22.7234  -10.2127   20.3059 C   0  0  0  0  0  0
  -21.6849   -6.0730   22.5279 C   0  0  0  0  0  0
  -21.4013   -6.5634   23.8213 C   0  0  0  0  0  0
  -21.3655   -5.6789   24.9177 C   0  0  0  0  0  0
  -21.6041   -4.3053   24.7229 C   0  0  0  0  0  0
  -21.8820   -3.8144   23.4352 C   0  0  0  0  0  0
  -21.9191   -4.6959   22.3405 C   0  0  0  0  0  0
  -22.7804  -13.5207   21.1865 C   0  0  0  0  0  0
  -22.1661   -4.2142   21.0983 F   0  0  0  0  0  0
  -21.5625   -3.4537   25.7742 F   0  0  0  0  0  0
  -29.9696  -13.5664   20.4041 N   0  0  0  0  0  0
  -26.2914  -12.9369   20.3290 N   0  0  0  0  0  0
  -25.9302  -11.6517   20.5768 N   0  0  0  0  0  0
  -22.0451  -12.8206   22.0430 N   0  0  0  0  0  0
  -25.4091  -15.1888   20.3981 N   0  0  0  0  0  0
  -31.7870  -14.8555   20.1326 O   0  0  0  0  0  0
  -21.6632   -6.8873   21.4241 O   0  0  0  0  0  0
  -22.3489  -14.5509   20.6709 O   0  0  0  0  0  0
  -24.6333  -31.8532   23.1942 C   0  0  0  0  0  0
  -25.9147  -32.4743   23.8300 C   0  0  1  0  0  0
  -27.2256  -27.2459   20.1384 C   0  0  0  0  0  0
  -25.5937  -33.8544   24.2228 N   0  0  0  0  0  0
  -23.4316  -30.4729   21.5382 C   0  0  2  0  0  0
  -24.8801  -28.9083   20.1169 C   0  0  0  0  0  0
  -22.7513  -29.4597   22.4902 C   0  0  0  0  0  0
  -18.0298  -28.1392   22.8478 C   0  0  0  0  0  0
  -24.1487  -36.7276   23.2637 C   0  0  0  0  0  0
  -25.9778  -30.7611   21.3743 C   0  0  0  0  0  0
  -26.0532  -29.3791   20.7220 C   0  0  0  0  0  0
  -27.2326  -28.5634   20.7141 C   0  0  0  0  0  0
  -26.0296  -26.8375   19.5150 C   0  0  0  0  0  0
  -24.8732  -27.6454   19.5026 C   0  0  0  0  0  0
  -23.6520  -29.7996   20.1578 C   0  0  0  0  0  0
  -25.4114  -36.3058   24.0318 C   0  0  1  0  0  0
  -20.5902  -28.3707   23.1257 C   0  0  2  0  0  0
  -20.6784  -26.9421   22.5404 C   0  0  0  0  0  0
  -19.5761  -26.6383   21.5209 C   0  0  0  0  0  0
  -18.1941  -26.7930   22.1619 C   0  0  0  0  0  0
  -19.1551  -28.8865   23.2860 C   0  0  0  0  0  0
  -18.9478  -30.1463   23.8880 C   0  0  0  0  0  0
  -17.6477  -30.6591   24.0562 C   0  0  0  0  0  0
  -25.9063  -34.9434   23.5078 C   0  0  0  0  0  0
  -16.5367  -29.9089   23.6330 C   0  0  0  0  0  0
  -16.7286  -28.6509   23.0347 C   0  0  0  0  0  0
  -26.4503  -31.6581   25.0702 C   0  0  0  0  0  0
  -25.3712  -31.3741   26.1413 C   0  0  0  0  0  0
  -27.0361  -30.2997   24.6198 C   0  0  0  0  0  0
  -27.6047  -32.4335   25.7477 C   0  0  0  0  0  0
  -27.5584  -37.1778   24.8455 C   0  0  0  0  0  0
  -21.4218  -29.3051   22.3644 N   0  0  0  0  0  0
  -26.4280  -37.3770   23.9423 N   0  0  0  0  0  0
  -24.7001  -31.0476   22.0922 N   0  0  0  0  0  0
  -23.4199  -28.8140   23.3014 O   0  0  0  0  0  0
  -28.3206  -26.3497   20.1143 O   0  0  0  0  0  0
  -26.5645  -34.8918   22.4652 O   0  0  0  0  0  0
  -23.5478  -32.1366   23.7223 O   0  0  0  0  0  0
  -28.2520  -20.5457   19.1019 C   0  0  0  0  0  0
  -28.9945  -21.0438   20.1459 C   0  0  0  0  0  0
  -29.6220  -18.7059   20.1861 C   0  0  0  0  0  0
  -28.5179  -23.6479   19.9661 C   0  0  0  0  0  0
  -29.0703  -25.1047   22.0578 C   0  0  0  0  0  0
  -28.8361  -16.1124   21.7229 C   0  0  0  0  0  0
  -30.5087  -17.4086   20.4566 C   0  0  0  0  0  0
  -28.2014  -25.0053   20.7946 C   0  0  1  0  0  0
  -29.7511  -19.9631   20.7503 N   0  0  0  0  0  0
  -28.9148  -22.4646   20.5995 N   0  0  0  0  0  0
  -29.9100  -16.0116   20.7309 N   0  0  0  0  0  0
  -28.3778  -23.6872   18.7405 O   0  0  0  0  0  0
  -28.4629  -18.8065   18.8567 S   0  0  0  0  0  0
  -31.4708  -12.6644   19.1404 H   0  0  0  0  0  0
  -30.4317  -11.5322   19.9396 H   0  0  0  0  0  0
  -29.7991  -11.7557   17.5192 H   0  0  0  0  0  0
  -29.6139  -13.4815   17.7044 H   0  0  0  0  0  0
  -27.8959  -11.2873   18.8983 H   0  0  0  0  0  0
  -27.3709  -12.5337   17.7982 H   0  0  0  0  0  0
  -27.6424  -14.2534   19.4916 H   0  0  0  0  0  0
  -28.7677  -12.0723   21.3045 H   0  0  0  0  0  0
  -28.3931  -13.6419   21.8723 H   0  0  0  0  0  0
  -25.2755   -9.5671   22.4763 H   0  0  0  0  0  0
  -23.9991   -7.4624   22.7471 H   0  0  0  0  0  0
  -21.0835   -8.8772   19.8951 H   0  0  0  0  0  0
  -22.3697  -10.9666   19.6164 H   0  0  0  0  0  0
  -21.2008   -7.6143   23.9717 H   0  0  0  0  0  0
  -21.1471   -6.0518   25.9078 H   0  0  0  0  0  0
  -22.0602   -2.7604   23.2856 H   0  0  0  0  0  0
  -22.4072  -11.9877   22.4834 H   0  0  0  0  0  0
  -21.1065  -13.1228   22.2629 H   0  0  0  0  0  0
  -24.6378  -15.8383   20.5063 H   0  0  0  0  0  0
  -26.2521  -15.6296   20.0540 H   0  0  0  0  0  0
  -26.7211  -32.5385   23.1038 H   0  0  0  0  0  0
  -25.0071  -33.9674   25.0365 H   0  0  0  0  0  0
  -22.7290  -31.2948   21.3862 H   0  0  0  0  0  0
  -23.3758  -35.9597   23.3273 H   0  0  0  0  0  0
  -24.3581  -36.8937   22.2058 H   0  0  0  0  0  0
  -23.7232  -37.6459   23.6689 H   0  0  0  0  0  0
  -26.1156  -31.5169   20.6001 H   0  0  0  0  0  0
  -26.8558  -30.8154   22.0065 H   0  0  0  0  0  0
  -28.1372  -28.9256   21.1819 H   0  0  0  0  0  0
  -25.9869  -25.8675   19.0396 H   0  0  0  0  0  0
  -23.9751  -27.2788   19.0248 H   0  0  0  0  0  0
  -23.7797  -30.5720   19.3987 H   0  0  0  0  0  0
  -22.7692  -29.2344   19.8527 H   0  0  0  0  0  0
  -25.1291  -36.1888   25.0807 H   0  0  0  0  0  0
  -20.9997  -28.3296   24.1377 H   0  0  0  0  0  0
  -20.5687  -26.2321   23.3614 H   0  0  0  0  0  0
  -21.6653  -26.7441   22.1199 H   0  0  0  0  0  0
  -19.6925  -25.6288   21.1254 H   0  0  0  0  0  0
  -19.6699  -27.3175   20.6724 H   0  0  0  0  0  0
  -17.4209  -26.6674   21.4023 H   0  0  0  0  0  0
  -18.0344  -26.0072   22.9016 H   0  0  0  0  0  0
  -19.7956  -30.7282   24.2245 H   0  0  0  0  0  0
  -17.5034  -31.6267   24.5169 H   0  0  0  0  0  0
  -15.5369  -30.2990   23.7662 H   0  0  0  0  0  0
  -15.8684  -28.0831   22.7064 H   0  0  0  0  0  0
  -24.5887  -30.7092   25.7739 H   0  0  0  0  0  0
  -24.8894  -32.2912   26.4810 H   0  0  0  0  0  0
  -25.8009  -30.8935   27.0212 H   0  0  0  0  0  0
  -26.2951  -29.6728   24.1222 H   0  0  0  0  0  0
  -27.4051  -29.7276   25.4721 H   0  0  0  0  0  0
  -27.8819  -30.4278   23.9439 H   0  0  0  0  0  0
  -27.2655  -33.3654   26.2014 H   0  0  0  0  0  0
  -28.3871  -32.6876   25.0313 H   0  0  0  0  0  0
  -28.0697  -31.8490   26.5427 H   0  0  0  0  0  0
  -28.2553  -38.0124   24.7573 H   0  0  0  0  0  0
  -28.1134  -36.2659   24.6191 H   0  0  0  0  0  0
  -27.2316  -37.1317   25.8859 H   0  0  0  0  0  0
  -20.9414  -29.8776   21.6841 H   0  0  0  0  0  0
  -26.0149  -38.2827   24.1477 H   0  0  0  0  0  0
  -27.5710  -21.0900   18.4603 H   0  0  0  0  0  0
  -28.9517  -24.2356   22.7048 H   0  0  0  0  0  0
  -28.7949  -25.9805   22.6453 H   0  0  0  0  0  0
  -30.1266  -25.1956   21.8031 H   0  0  0  0  0  0
  -27.8913  -15.7672   21.3126 H   0  0  0  0  0  0
  -28.6691  -17.1324   22.0684 H   0  0  0  0  0  0
  -29.0769  -15.5390   22.6185 H   0  0  0  0  0  0
  -31.1741  -17.6387   21.2892 H   0  0  0  0  0  0
  -31.1663  -17.3171   19.5912 H   0  0  0  0  0  0
  -27.1690  -24.8924   21.1280 H   0  0  0  0  0  0
  -29.1549  -22.5990   21.5710 H   0  0  0  0  0  0
  1 25  1  0  0  0
  1 30  2  0  0  0
  1 81  1  0  0  0
  2  3  1  0  0  0
  2 25  1  0  0  0
  2 84  1  0  0  0
  2 85  1  0  0  0
  3  4  1  0  0  0
  3 86  1  0  0  0
  3 87  1  0  0  0
  4  5  1  0  0  0
  4 88  1  0  0  0
  4 89  1  0  0  0
  5  6  1  0  0  0
  5 26  1  0  0  0
  5 90  1  0  0  0
  6 25  1  0  0  0
  6 91  1  0  0  0
  6 92  1  0  0  0
  7  8  2  0  0  0
  7 26  1  0  0  0
  7 29  1  0  0  0
  8  9  1  0  0  0
  8 22  1  0  0  0
  9 10  1  0  0  0
  9 27  2  0  0  0
 10 11  2  0  0  0
 10 15  1  0  0  0
 11 12  1  0  0  0
 11 93  1  0  0  0
 12 13  2  0  0  0
 12 94  1  0  0  0
 13 14  1  0  0  0
 13 31  1  0  0  0
 14 15  2  0  0  0
 14 95  1  0  0  0
 15 96  1  0  0  0
 16 17  2  0  0  0
 16 21  1  0  0  0
 16 31  1  0  0  0
 17 18  1  0  0  0
 17 97  1  0  0  0
 18 19  2  0  0  0
 18 98  1  0  0  0
 19 20  1  0  0  0
 19 24  1  0  0  0
 20 21  2  0  0  0
 20 99  1  0  0  0
 21 23  1  0  0  0
 22 28  1  0  0  0
 22 32  2  0  0  0
 26 27  1  0  0  0
 28100  1  0  0  0
 28101  1  0  0  0
 29102  1  0  0  0
 29103  1  0  0  0
 33 34  1  0  0  0
 33 66  1  0  0  0
 33 70  2  0  0  0
 34 36  1  0  0  0
 34 59  1  0  0  0
 34104  1  0  0  0
 35 44  2  0  0  0
 35 45  1  0  0  0
 35 68  1  0  0  0
 36 56  1  0  0  0
 36105  1  0  0  0
 37 39  1  0  0  0
 37 47  1  0  0  0
 37 66  1  0  0  0
 37106  1  0  0  0
 38 43  2  0  0  0
 38 46  1  0  0  0
 38 47  1  0  0  0
 39 64  1  0  0  0
 39 67  2  0  0  0
 40 52  1  0  0  0
 40 53  2  0  0  0
 40 58  1  0  0  0
 41107  1  0  0  0
 41108  1  0  0  0
 41109  1  0  0  0
 41 48  1  0  0  0
 42 43  1  0  0  0
 42 66  1  0  0  0
 42110  1  0  0  0
 42111  1  0  0  0
 43 44  1  0  0  0
 44112  1  0  0  0
 45 46  2  0  0  0
 45113  1  0  0  0
 46114  1  0  0  0
 47115  1  0  0  0
 47116  1  0  0  0
 48 56  1  0  0  0
 48 65  1  0  0  0
 48117  1  0  0  0
 49 50  1  0  0  0
 49 53  1  0  0  0
 49 64  1  0  0  0
 49118  1  0  0  0
 50 51  1  0  0  0
 50119  1  0  0  0
 50120  1  0  0  0
 51 52  1  0  0  0
 51121  1  0  0  0
 51122  1  0  0  0
 52123  1  0  0  0
 52124  1  0  0  0
 53 54  1  0  0  0
 54 55  2  0  0  0
 54125  1  0  0  0
 55 57  1  0  0  0
 55126  1  0  0  0
 56 69  2  0  0  0
 57 58  2  0  0  0
 57127  1  0  0  0
 58128  1  0  0  0
 59 60  1  0  0  0
 59 61  1  0  0  0
 59 62  1  0  0  0
 60129  1  0  0  0
 60130  1  0  0  0
 60131  1  0  0  0
 61132  1  0  0  0
 61133  1  0  0  0
 61134  1  0  0  0
 62135  1  0  0  0
 62136  1  0  0  0
 62137  1  0  0  0
 63 65  1  0  0  0
 63138  1  0  0  0
 63139  1  0  0  0
 63140  1  0  0  0
 64141  1  0  0  0
 65142  1  0  0  0
 68 78  1  0  0  0
 71 72  2  0  0  0
 71 83  1  0  0  0
 71143  1  0  0  0
 72 79  1  0  0  0
 72 80  1  0  0  0
 73 77  1  0  0  0
 73 79  2  0  0  0
 73 83  1  0  0  0
 74 78  1  0  0  0
 74 80  1  0  0  0
 74 82  2  0  0  0
 75144  1  0  0  0
 75145  1  0  0  0
 75146  1  0  0  0
 75 78  1  0  0  0
 76 81  1  0  0  0
 76147  1  0  0  0
 76148  1  0  0  0
 76149  1  0  0  0
 77 81  1  0  0  0
 77150  1  0  0  0
 77151  1  0  0  0
 78152  1  0  0  0
 80153  1  0  0  0
M  ISO  4   1 100  68 101  78 101  81 100
M  END
> <chiral flag>
0

> <version>
0

> <s_m_source_file>
/data/baiqing/PycharmProjects/Reinvent-master-3.2/result/LINK_invent/BTK/process_docking_weight1_custom_product_contain_oxygen_bond_distance_aromatic_linkinvent_7_9_3/rearranged_h_0180.sdf

> <i_m_source_file_index>
45

> <r_mmod_Potential_Energy-OPLS-2005>
230.423202514648

> <r_mmod_Stretch_Energy-OPLS-2005>
147.444702148438

> <r_mmod_Bend_Energy-OPLS-2005>
201.522247314453

> <r_mmod_Torsional_Energy-OPLS-2005>
285.829040527344

> <r_mmod_Improper_Torsional_Energy-OPLS-2005>
9.16763305664062

> <r_mmod_Van_der_Waal_Energy-OPLS-2005>
121.089202880859

> <r_mmod_Electrostatic_Energy-OPLS-2005>
-399.696136474609

> <r_mmod_Solvation_Energy-OPLS-2005>
-229.730590820312

> <b_mmod_Minimization_Converged-OPLS-2005>
0

> <r_mmod_RMS_Derivative-OPLS-2005>
0.722292542457581

$$$$
45
                    3D
 Structure written by MMmdl.
154162  0  0  1  0            999 V2000
  -30.7224  -14.4225   20.6411 C   0  0  0  0  0  0
  -30.4168  -12.3058   19.4068 C   0  0  0  0  0  0
  -29.4835  -12.5202   18.1985 C   0  0  0  0  0  0
  -28.0135  -12.3561   18.6240 C   0  0  0  0  0  0
  -27.6637  -13.1961   19.8821 C   0  0  2  0  0  0
  -28.7009  -12.9584   21.0010 C   0  0  0  0  0  0
  -25.2619  -13.8152   20.5735 C   0  0  0  0  0  0
  -24.1846  -13.0439   20.9151 C   0  0  0  0  0  0
  -24.6368  -11.6894   20.8716 C   0  0  0  0  0  0
  -23.9035  -10.4283   21.0404 C   0  0  0  0  0  0
  -24.3586   -9.4203   21.9184 C   0  0  0  0  0  0
  -23.6276   -8.2238   22.0768 C   0  0  0  0  0  0
  -22.4259   -8.0282   21.3559 C   0  0  0  0  0  0
  -21.9891   -9.0247   20.4660 C   0  0  0  0  0  0
  -22.7204  -10.2124   20.3062 C   0  0  0  0  0  0
  -21.6852   -6.0722   22.5269 C   0  0  0  0  0  0
  -21.4003   -6.5634   23.8205 C   0  0  0  0  0  0
  -21.3660   -5.6793   24.9181 C   0  0  0  0  0  0
  -21.6053   -4.3051   24.7240 C   0  0  0  0  0  0
  -21.8816   -3.8138   23.4350 C   0  0  0  0  0  0
  -21.9185   -4.6949   22.3393 C   0  0  0  0  0  0
  -22.7879  -13.5262   21.1843 C   0  0  0  0  0  0
  -22.1657   -4.2123   21.0965 F   0  0  0  0  0  0
  -21.5639   -3.4531   25.7757 F   0  0  0  0  0  0
  -30.0330  -13.2660   20.4544 N   0  0  0  0  0  0
  -26.3025  -12.9286   20.3397 N   0  0  0  0  0  0
  -25.9289  -11.6443   20.5755 N   0  0  0  0  0  0
  -22.0509  -12.8255   22.0375 N   0  0  0  0  0  0
  -25.4438  -15.1876   20.4292 N   0  0  0  0  0  0
  -31.8001  -14.6558   20.0850 O   0  0  0  0  0  0
  -21.6633   -6.8870   21.4239 O   0  0  0  0  0  0
  -22.3596  -14.5601   20.6732 O   0  0  0  0  0  0
  -24.6163  -31.8675   23.2115 C   0  0  0  0  0  0
  -25.9052  -32.4831   23.8407 C   0  0  1  0  0  0
  -27.2309  -27.4208   20.0944 C   0  0  0  0  0  0
  -25.5910  -33.8636   24.2331 N   0  0  0  0  0  0
  -23.4042  -30.4914   21.5531 C   0  0  2  0  0  0
  -24.8446  -28.9534   20.1177 C   0  0  0  0  0  0
  -22.7423  -29.4654   22.5013 C   0  0  0  0  0  0
  -18.0274  -28.1388   22.8499 C   0  0  0  0  0  0
  -24.1481  -36.7325   23.2644 C   0  0  0  0  0  0
  -25.9322  -30.8300   21.3607 C   0  0  0  0  0  0
  -26.0060  -29.4616   20.7110 C   0  0  0  0  0  0
  -27.1986  -28.7028   20.6929 C   0  0  0  0  0  0
  -26.0442  -26.9249   19.5043 C   0  0  0  0  0  0
  -24.8592  -27.6842   19.5128 C   0  0  0  0  0  0
  -23.6100  -29.8261   20.1668 C   0  0  0  0  0  0
  -25.4111  -36.3123   24.0338 C   0  0  1  0  0  0
  -20.5859  -28.3683   23.1320 C   0  0  2  0  0  0
  -20.6753  -26.9415   22.5451 C   0  0  0  0  0  0
  -19.5755  -26.6397   21.5225 C   0  0  0  0  0  0
  -18.1907  -26.7952   22.1590 C   0  0  0  0  0  0
  -19.1524  -28.8854   23.2903 C   0  0  0  0  0  0
  -18.9454  -30.1454   23.8929 C   0  0  0  0  0  0
  -17.6452  -30.6587   24.0597 C   0  0  0  0  0  0
  -25.9047  -34.9490   23.5130 C   0  0  0  0  0  0
  -16.5353  -29.9109   23.6315 C   0  0  0  0  0  0
  -16.7271  -28.6521   23.0346 C   0  0  0  0  0  0
  -26.4471  -31.6623   25.0748 C   0  0  0  0  0  0
  -25.3741  -31.3774   26.1517 C   0  0  0  0  0  0
  -27.0236  -30.3045   24.6130 C   0  0  0  0  0  0
  -27.6124  -32.4285   25.7443 C   0  0  0  0  0  0
  -27.5579  -37.1822   24.8459 C   0  0  0  0  0  0
  -21.4152  -29.3046   22.3739 N   0  0  0  0  0  0
  -26.4295  -37.3802   23.9397 N   0  0  0  0  0  0
  -24.6705  -31.0761   22.1018 N   0  0  0  0  0  0
  -23.4184  -28.8197   23.3060 O   0  0  0  0  0  0
  -28.4251  -26.7253   20.1081 O   0  0  0  0  0  0
  -26.5606  -34.8933   22.4693 O   0  0  0  0  0  0
  -23.5349  -32.1448   23.7498 O   0  0  0  0  0  0
  -29.7487  -17.6596   22.3230 C   0  0  0  0  0  0
  -28.9108  -17.5143   23.4128 C   0  0  0  0  0  0
  -28.9337  -19.7957   22.4811 C   0  0  0  0  0  0
  -28.3159  -24.4102   20.9710 C   0  0  0  0  0  0
  -28.9617  -21.9103   21.1536 C   0  0  0  0  0  0
  -30.7095  -16.6529   21.7254 C   0  0  0  0  0  0
  -29.4243  -23.3777   21.2500 C   0  0  0  0  0  0
  -28.4876  -25.3316   19.7444 C   0  0  0  0  0  0
  -29.7266  -18.9620   21.7917 N   0  0  0  0  0  0
  -28.6947  -16.4017   24.2208 N   0  0  0  0  0  0
  -28.9427  -21.2049   22.3011 N   0  0  0  0  0  0
  -30.1395  -15.3344   21.4355 N   0  0  0  0  0  0
  -27.3463  -24.5255   21.7298 O   0  0  0  0  0  0
  -28.6355  -21.4322   20.0610 O   0  0  0  0  0  0
  -28.0982  -19.0115   23.8121 S   0  0  0  0  0  0
  -31.4616  -12.4045   19.1039 H   0  0  0  0  0  0
  -30.3168  -11.2878   19.7859 H   0  0  0  0  0  0
  -29.7257  -11.8112   17.4055 H   0  0  0  0  0  0
  -29.6370  -13.5152   17.7779 H   0  0  0  0  0  0
  -27.8493  -11.2974   18.8318 H   0  0  0  0  0  0
  -27.3464  -12.6075   17.7998 H   0  0  0  0  0  0
  -27.7163  -14.2466   19.5957 H   0  0  0  0  0  0
  -28.6746  -11.9162   21.3246 H   0  0  0  0  0  0
  -28.4533  -13.5376   21.8899 H   0  0  0  0  0  0
  -25.2738   -9.5673   22.4747 H   0  0  0  0  0  0
  -23.9984   -7.4630   22.7486 H   0  0  0  0  0  0
  -21.0826   -8.8761   19.8960 H   0  0  0  0  0  0
  -22.3676  -10.9668   19.6162 H   0  0  0  0  0  0
  -21.1989   -7.6141   23.9707 H   0  0  0  0  0  0
  -21.1495   -6.0527   25.9088 H   0  0  0  0  0  0
  -22.0596   -2.7595   23.2865 H   0  0  0  0  0  0
  -22.4129  -11.9894   22.4719 H   0  0  0  0  0  0
  -21.1142  -13.1293   22.2608 H   0  0  0  0  0  0
  -24.7023  -15.8553   20.6054 H   0  0  0  0  0  0
  -26.3314  -15.6248   20.2170 H   0  0  0  0  0  0
  -26.7143  -32.5526   23.1186 H   0  0  0  0  0  0
  -25.0066  -33.9793   25.0472 H   0  0  0  0  0  0
  -22.6934  -31.3087   21.4179 H   0  0  0  0  0  0
  -23.3768  -35.9622   23.3249 H   0  0  0  0  0  0
  -24.3571  -36.9007   22.2063 H   0  0  0  0  0  0
  -23.7186  -37.6493   23.6713 H   0  0  0  0  0  0
  -26.0327  -31.5881   20.5832 H   0  0  0  0  0  0
  -26.8249  -30.8909   21.9727 H   0  0  0  0  0  0
  -28.0984  -29.0975   21.1439 H   0  0  0  0  0  0
  -25.9991  -25.9577   19.0306 H   0  0  0  0  0  0
  -23.9646  -27.2855   19.0539 H   0  0  0  0  0  0
  -23.7271  -30.6053   19.4134 H   0  0  0  0  0  0
  -22.7301  -29.2546   19.8664 H   0  0  0  0  0  0
  -25.1280  -36.2005   25.0822 H   0  0  0  0  0  0
  -20.9950  -28.3280   24.1442 H   0  0  0  0  0  0
  -20.5603  -26.2328   23.3662 H   0  0  0  0  0  0
  -21.6636  -26.7419   22.1296 H   0  0  0  0  0  0
  -19.6922  -25.6309   21.1240 H   0  0  0  0  0  0
  -19.6699  -27.3210   20.6753 H   0  0  0  0  0  0
  -17.4223  -26.6801   21.3933 H   0  0  0  0  0  0
  -18.0224  -26.0031   22.8897 H   0  0  0  0  0  0
  -19.7928  -30.7264   24.2313 H   0  0  0  0  0  0
  -17.5011  -31.6244   24.5243 H   0  0  0  0  0  0
  -15.5359  -30.3044   23.7583 H   0  0  0  0  0  0
  -15.8676  -28.0854   22.7041 H   0  0  0  0  0  0
  -24.5923  -30.7088   25.7897 H   0  0  0  0  0  0
  -24.8903  -32.2930   26.4923 H   0  0  0  0  0  0
  -25.8079  -30.9011   27.0316 H   0  0  0  0  0  0
  -26.2729  -29.6817   24.1260 H   0  0  0  0  0  0
  -27.4046  -29.7290   25.4573 H   0  0  0  0  0  0
  -27.8557  -30.4313   23.9208 H   0  0  0  0  0  0
  -27.2912  -33.3709   26.1882 H   0  0  0  0  0  0
  -28.3989  -32.6607   25.0256 H   0  0  0  0  0  0
  -28.0713  -31.8450   26.5433 H   0  0  0  0  0  0
  -28.2674  -38.0051   24.7444 H   0  0  0  0  0  0
  -28.1005  -36.2578   24.6368 H   0  0  0  0  0  0
  -27.2301  -37.1605   25.8872 H   0  0  0  0  0  0
  -20.9355  -29.8815   21.6972 H   0  0  0  0  0  0
  -26.0198  -38.2889   24.1387 H   0  0  0  0  0  0
  -31.5523  -16.5129   22.4022 H   0  0  0  0  0  0
  -31.1344  -17.0642   20.8089 H   0  0  0  0  0  0
  -29.8348  -23.5819   22.2395 H   0  0  0  0  0  0
  -30.2493  -23.5203   20.5515 H   0  0  0  0  0  0
  -27.7809  -25.0487   18.9660 H   0  0  0  0  0  0
  -29.4719  -25.1574   19.3126 H   0  0  0  0  0  0
  -29.3462  -15.6245   24.2808 H   0  0  0  0  0  0
  -28.1233  -16.4738   25.0573 H   0  0  0  0  0  0
  -29.0229  -21.7391   23.1544 H   0  0  0  0  0  0
  -29.2559  -15.1030   21.8673 H   0  0  0  0  0  0
  1 25  1  0  0  0
  1 30  2  0  0  0
  1 82  1  0  0  0
  2  3  1  0  0  0
  2 25  1  0  0  0
  2 86  1  0  0  0
  2 87  1  0  0  0
  3  4  1  0  0  0
  3 88  1  0  0  0
  3 89  1  0  0  0
  4  5  1  0  0  0
  4 90  1  0  0  0
  4 91  1  0  0  0
  5  6  1  0  0  0
  5 26  1  0  0  0
  5 92  1  0  0  0
  6 25  1  0  0  0
  6 93  1  0  0  0
  6 94  1  0  0  0
  7  8  2  0  0  0
  7 26  1  0  0  0
  7 29  1  0  0  0
  8  9  1  0  0  0
  8 22  1  0  0  0
  9 10  1  0  0  0
  9 27  2  0  0  0
 10 11  2  0  0  0
 10 15  1  0  0  0
 11 12  1  0  0  0
 11 95  1  0  0  0
 12 13  2  0  0  0
 12 96  1  0  0  0
 13 14  1  0  0  0
 13 31  1  0  0  0
 14 15  2  0  0  0
 14 97  1  0  0  0
 15 98  1  0  0  0
 16 17  2  0  0  0
 16 21  1  0  0  0
 16 31  1  0  0  0
 17 18  1  0  0  0
 17 99  1  0  0  0
 18 19  2  0  0  0
 18100  1  0  0  0
 19 20  1  0  0  0
 19 24  1  0  0  0
 20 21  2  0  0  0
 20101  1  0  0  0
 21 23  1  0  0  0
 22 28  1  0  0  0
 22 32  2  0  0  0
 26 27  1  0  0  0
 28102  1  0  0  0
 28103  1  0  0  0
 29104  1  0  0  0
 29105  1  0  0  0
 33 34  1  0  0  0
 33 66  1  0  0  0
 33 70  2  0  0  0
 34 36  1  0  0  0
 34 59  1  0  0  0
 34106  1  0  0  0
 35 44  2  0  0  0
 35 45  1  0  0  0
 35 68  1  0  0  0
 36 56  1  0  0  0
 36107  1  0  0  0
 37 39  1  0  0  0
 37 47  1  0  0  0
 37 66  1  0  0  0
 37108  1  0  0  0
 38 43  2  0  0  0
 38 46  1  0  0  0
 38 47  1  0  0  0
 39 64  1  0  0  0
 39 67  2  0  0  0
 40 52  1  0  0  0
 40 53  2  0  0  0
 40 58  1  0  0  0
 41109  1  0  0  0
 41110  1  0  0  0
 41111  1  0  0  0
 41 48  1  0  0  0
 42 43  1  0  0  0
 42 66  1  0  0  0
 42112  1  0  0  0
 42113  1  0  0  0
 43 44  1  0  0  0
 44114  1  0  0  0
 45 46  2  0  0  0
 45115  1  0  0  0
 46116  1  0  0  0
 47117  1  0  0  0
 47118  1  0  0  0
 48 56  1  0  0  0
 48 65  1  0  0  0
 48119  1  0  0  0
 49 50  1  0  0  0
 49 53  1  0  0  0
 49 64  1  0  0  0
 49120  1  0  0  0
 50 51  1  0  0  0
 50121  1  0  0  0
 50122  1  0  0  0
 51 52  1  0  0  0
 51123  1  0  0  0
 51124  1  0  0  0
 52125  1  0  0  0
 52126  1  0  0  0
 53 54  1  0  0  0
 54 55  2  0  0  0
 54127  1  0  0  0
 55 57  1  0  0  0
 55128  1  0  0  0
 56 69  2  0  0  0
 57 58  2  0  0  0
 57129  1  0  0  0
 58130  1  0  0  0
 59 60  1  0  0  0
 59 61  1  0  0  0
 59 62  1  0  0  0
 60131  1  0  0  0
 60132  1  0  0  0
 60133  1  0  0  0
 61134  1  0  0  0
 61135  1  0  0  0
 61136  1  0  0  0
 62137  1  0  0  0
 62138  1  0  0  0
 62139  1  0  0  0
 63 65  1  0  0  0
 63140  1  0  0  0
 63141  1  0  0  0
 63142  1  0  0  0
 64143  1  0  0  0
 65144  1  0  0  0
 68 78  1  0  0  0
 71 72  2  0  0  0
 71 76  1  0  0  0
 71 79  1  0  0  0
 72 80  1  0  0  0
 72 85  1  0  0  0
 73 79  2  0  0  0
 73 81  1  0  0  0
 73 85  1  0  0  0
 74 77  1  0  0  0
 74 78  1  0  0  0
 74 83  2  0  0  0
 75 77  1  0  0  0
 75 81  1  0  0  0
 75 84  2  0  0  0
 76 82  1  0  0  0
 76145  1  0  0  0
 76146  1  0  0  0
 77147  1  0  0  0
 77148  1  0  0  0
 78149  1  0  0  0
 78150  1  0  0  0
 80151  1  0  0  0
 80152  1  0  0  0
 81153  1  0  0  0
 82154  1  0  0  0
M  ISO  4   1 100  68 101  78 101  82 100
M  END
> <chiral flag>
0

> <version>
0

> <s_m_source_file>
/data/baiqing/PycharmProjects/Reinvent-master-3.2/result/LINK_invent/BTK/process_docking_weight1_custom_product_contain_oxygen_bond_distance_aromatic_linkinvent_7_9_3/rearranged_h_0180.sdf

> <i_m_source_file_index>
46

> <r_mmod_Potential_Energy-OPLS-2005>
-186.884628295898

> <r_mmod_Stretch_Energy-OPLS-2005>
35.715217590332

> <r_mmod_Bend_Energy-OPLS-2005>
111.377952575684

> <r_mmod_Torsional_Energy-OPLS-2005>
222.634674072266

> <r_mmod_Improper_Torsional_Energy-OPLS-2005>
4.98073101043701

> <r_mmod_Van_der_Waal_Energy-OPLS-2005>
127.544235229492

> <r_mmod_Electrostatic_Energy-OPLS-2005>
-433.601684570312

> <r_mmod_Solvation_Energy-OPLS-2005>
-266.206085205078

> <b_mmod_Minimization_Converged-OPLS-2005>
0

> <r_mmod_RMS_Derivative-OPLS-2005>
3.03234958648682

$$$$
46
                    3D
 Structure written by MMmdl.
156164  0  0  1  0            999 V2000
  -30.7171  -14.4217   20.6033 C   0  0  0  0  0  0
  -30.4154  -12.2693   19.4364 C   0  0  0  0  0  0
  -29.5088  -12.5085   18.2151 C   0  0  0  0  0  0
  -28.0212  -12.3831   18.6046 C   0  0  0  0  0  0
  -27.6643  -13.2060   19.8725 C   0  0  2  0  0  0
  -28.6940  -12.9648   21.0001 C   0  0  0  0  0  0
  -25.2594  -13.8153   20.5635 C   0  0  0  0  0  0
  -24.1851  -13.0443   20.9158 C   0  0  0  0  0  0
  -24.6380  -11.6913   20.8697 C   0  0  0  0  0  0
  -23.9041  -10.4300   21.0385 C   0  0  0  0  0  0
  -24.3600   -9.4224   21.9159 C   0  0  0  0  0  0
  -23.6286   -8.2256   22.0744 C   0  0  0  0  0  0
  -22.4274   -8.0281   21.3545 C   0  0  0  0  0  0
  -21.9909   -9.0240   20.4642 C   0  0  0  0  0  0
  -22.7222  -10.2125   20.3032 C   0  0  0  0  0  0
  -21.6848   -6.0741   22.5279 C   0  0  0  0  0  0
  -21.4019   -6.5636   23.8218 C   0  0  0  0  0  0
  -21.3664   -5.6782   24.9176 C   0  0  0  0  0  0
  -21.6061   -4.3048   24.7215 C   0  0  0  0  0  0
  -21.8810   -3.8144   23.4328 C   0  0  0  0  0  0
  -21.9196   -4.6970   22.3395 C   0  0  0  0  0  0
  -22.7869  -13.5256   21.1831 C   0  0  0  0  0  0
  -22.1657   -4.2156   21.0969 F   0  0  0  0  0  0
  -21.5633   -3.4529   25.7719 F   0  0  0  0  0  0
  -30.0393  -13.2492   20.4652 N   0  0  0  0  0  0
  -26.3025  -12.9325   20.3292 N   0  0  0  0  0  0
  -25.9304  -11.6484   20.5675 N   0  0  0  0  0  0
  -22.0490  -12.8248   22.0370 N   0  0  0  0  0  0
  -25.4353  -15.1873   20.4045 N   0  0  0  0  0  0
  -31.8190  -14.6169   20.0802 O   0  0  0  0  0  0
  -21.6646   -6.8883   21.4248 O   0  0  0  0  0  0
  -22.3586  -14.5568   20.6683 O   0  0  0  0  0  0
  -24.6098  -31.8693   23.2128 C   0  0  0  0  0  0
  -25.9011  -32.4825   23.8422 C   0  0  1  0  0  0
  -27.2449  -27.4845   20.0957 C   0  0  0  0  0  0
  -25.5889  -33.8620   24.2351 N   0  0  0  0  0  0
  -23.3960  -30.4947   21.5502 C   0  0  2  0  0  0
  -24.8430  -28.9612   20.1178 C   0  0  0  0  0  0
  -22.7387  -29.4690   22.5006 C   0  0  0  0  0  0
  -18.0299  -28.1344   22.8490 C   0  0  0  0  0  0
  -24.1485  -36.7310   23.2624 C   0  0  0  0  0  0
  -25.9198  -30.8511   21.3610 C   0  0  0  0  0  0
  -25.9991  -29.4899   20.7077 C   0  0  0  0  0  0
  -27.2034  -28.7594   20.6904 C   0  0  0  0  0  0
  -26.0746  -26.9565   19.5035 C   0  0  0  0  0  0
  -24.8726  -27.6906   19.5134 C   0  0  0  0  0  0
  -23.6020  -29.8212   20.1666 C   0  0  0  0  0  0
  -25.4102  -36.3103   24.0328 C   0  0  1  0  0  0
  -20.5878  -28.3623   23.1319 C   0  0  2  0  0  0
  -20.6812  -26.9369   22.5425 C   0  0  0  0  0  0
  -19.5789  -26.6324   21.5234 C   0  0  0  0  0  0
  -18.1954  -26.7881   22.1635 C   0  0  0  0  0  0
  -19.1541  -28.8785   23.2912 C   0  0  0  0  0  0
  -18.9471  -30.1390   23.8921 C   0  0  0  0  0  0
  -17.6491  -30.6556   24.0567 C   0  0  0  0  0  0
  -25.9006  -34.9460   23.5127 C   0  0  0  0  0  0
  -16.5373  -29.9067   23.6348 C   0  0  0  0  0  0
  -16.7294  -28.6478   23.0360 C   0  0  0  0  0  0
  -26.4424  -31.6587   25.0737 C   0  0  0  0  0  0
  -25.3645  -31.3683   26.1454 C   0  0  0  0  0  0
  -27.0290  -30.3014   24.6165 C   0  0  0  0  0  0
  -27.5954  -32.4301   25.7560 C   0  0  0  0  0  0
  -27.5584  -37.1812   24.8453 C   0  0  0  0  0  0
  -21.4124  -29.3033   22.3731 N   0  0  0  0  0  0
  -26.4296  -37.3771   23.9395 N   0  0  0  0  0  0
  -24.6602  -31.0843   22.1009 N   0  0  0  0  0  0
  -23.4160  -28.8232   23.3048 O   0  0  0  0  0  0
  -28.4384  -26.8072   20.0646 O   0  0  0  0  0  0
  -26.5562  -34.8886   22.4684 O   0  0  0  0  0  0
  -23.5286  -32.1439   23.7510 O   0  0  0  0  0  0
  -29.4077  -17.6272   21.9639 C   0  0  0  0  0  0
  -31.0629  -18.7432   21.0863 C   0  0  0  0  0  0
  -30.2781  -16.7662   21.3349 C   0  0  0  0  0  0
  -29.5777  -22.3798   21.0580 C   0  0  0  0  0  0
  -29.0995  -21.1220   21.1325 C   0  0  0  0  0  0
  -29.2987  -23.2236   19.8868 C   0  0  0  0  0  0
  -28.5995  -25.6380   22.1648 C   0  0  0  0  0  0
  -29.3636  -20.1554   22.2702 C   0  0  0  0  0  0
  -29.5933  -24.7215   19.9748 C   0  0  0  0  0  0
  -28.4439  -25.5052   20.6387 C   0  0  2  0  0  0
  -31.3360  -17.4802   20.7699 N   0  0  0  0  0  0
  -29.9297  -18.9049   21.7887 N   0  0  0  0  0  0
  -30.0531  -15.3677   21.2897 N   0  0  0  0  0  0
  -28.8282  -22.7778   18.8355 O   0  0  0  0  0  0
  -31.4680  -12.3359   19.1575 H   0  0  0  0  0  0
  -30.2729  -11.2557   19.8171 H   0  0  0  0  0  0
  -29.7552  -11.7998   17.4235 H   0  0  0  0  0  0
  -29.7031  -13.5016   17.8071 H   0  0  0  0  0  0
  -27.8133  -11.3263   18.7756 H   0  0  0  0  0  0
  -27.3887  -12.6879   17.7696 H   0  0  0  0  0  0
  -27.7152  -14.2586   19.5909 H   0  0  0  0  0  0
  -28.6479  -11.9283   21.3375 H   0  0  0  0  0  0
  -28.4424  -13.5609   21.8789 H   0  0  0  0  0  0
  -25.2733   -9.5727   22.4738 H   0  0  0  0  0  0
  -24.0005   -7.4668   22.7464 H   0  0  0  0  0  0
  -21.0846   -8.8740   19.8941 H   0  0  0  0  0  0
  -22.3661  -10.9656   19.6133 H   0  0  0  0  0  0
  -21.1999   -7.6139   23.9727 H   0  0  0  0  0  0
  -21.1514   -6.0508   25.9091 H   0  0  0  0  0  0
  -22.0589   -2.7600   23.2813 H   0  0  0  0  0  0
  -22.4042  -11.9882   22.4761 H   0  0  0  0  0  0
  -21.1102  -13.1305   22.2528 H   0  0  0  0  0  0
  -24.6682  -15.8444   20.5051 H   0  0  0  0  0  0
  -26.2835  -15.6207   20.0602 H   0  0  0  0  0  0
  -26.7125  -32.5521   23.1236 H   0  0  0  0  0  0
  -25.0173  -33.9812   25.0581 H   0  0  0  0  0  0
  -22.6821  -31.3095   21.4105 H   0  0  0  0  0  0
  -23.3718  -35.9673   23.3292 H   0  0  0  0  0  0
  -24.3581  -36.8903   22.2037 H   0  0  0  0  0  0
  -23.7263  -37.6506   23.6652 H   0  0  0  0  0  0
  -26.0293  -31.6234   20.5980 H   0  0  0  0  0  0
  -26.8056  -30.8941   21.9828 H   0  0  0  0  0  0
  -28.1002  -29.1738   21.1327 H   0  0  0  0  0  0
  -26.0937  -25.9933   19.0153 H   0  0  0  0  0  0
  -23.9879  -27.2788   19.0469 H   0  0  0  0  0  0
  -23.7042  -30.5913   19.4018 H   0  0  0  0  0  0
  -22.7305  -29.2335   19.8764 H   0  0  0  0  0  0
  -25.1283  -36.1961   25.0820 H   0  0  0  0  0  0
  -20.9942  -28.3161   24.1449 H   0  0  0  0  0  0
  -20.5718  -26.2265   23.3619 H   0  0  0  0  0  0
  -21.6704  -26.7433   22.1261 H   0  0  0  0  0  0
  -19.6939  -25.6225   21.1298 H   0  0  0  0  0  0
  -19.6742  -27.3099   20.6734 H   0  0  0  0  0  0
  -17.4241  -26.6603   21.4040 H   0  0  0  0  0  0
  -18.0369  -26.0049   22.9063 H   0  0  0  0  0  0
  -19.7946  -30.7169   24.2325 H   0  0  0  0  0  0
  -17.5072  -31.6224   24.5199 H   0  0  0  0  0  0
  -15.5376  -30.2973   23.7720 H   0  0  0  0  0  0
  -15.8694  -28.0793   22.7077 H   0  0  0  0  0  0
  -24.5950  -30.6816   25.7845 H   0  0  0  0  0  0
  -24.8667  -32.2808   26.4742 H   0  0  0  0  0  0
  -25.8002  -30.9103   27.0349 H   0  0  0  0  0  0
  -26.2823  -29.6678   24.1387 H   0  0  0  0  0  0
  -27.4214  -29.7342   25.4630 H   0  0  0  0  0  0
  -27.8588  -30.4292   23.9215 H   0  0  0  0  0  0
  -27.2498  -33.3518   26.2265 H   0  0  0  0  0  0
  -28.3766  -32.6960   25.0436 H   0  0  0  0  0  0
  -28.0604  -31.8377   26.5447 H   0  0  0  0  0  0
  -28.2594  -38.0114   24.7509 H   0  0  0  0  0  0
  -28.1077  -36.2642   24.6274 H   0  0  0  0  0  0
  -27.2313  -37.1455   25.8853 H   0  0  0  0  0  0
  -20.9222  -29.8809   21.7028 H   0  0  0  0  0  0
  -26.0150  -38.2823   24.1382 H   0  0  0  0  0  0
  -28.4863  -17.4469   22.5009 H   0  0  0  0  0  0
  -31.6901  -19.5720   20.7869 H   0  0  0  0  0  0
  -30.1821  -22.7958   21.8514 H   0  0  0  0  0  0
  -28.4795  -20.7316   20.3368 H   0  0  0  0  0  0
  -29.5185  -26.1664   22.4238 H   0  0  0  0  0  0
  -28.6242  -24.6652   22.6527 H   0  0  0  0  0  0
  -27.7682  -26.1947   22.5980 H   0  0  0  0  0  0
  -28.4239  -19.9471   22.7871 H   0  0  0  0  0  0
  -30.0467  -20.5949   23.0013 H   0  0  0  0  0  0
  -29.7294  -25.0807   18.9548 H   0  0  0  0  0  0
  -30.5430  -24.8984   20.4814 H   0  0  0  0  0  0
  -27.5057  -24.9903   20.4331 H   0  0  0  0  0  0
  -29.1962  -15.0484   21.7121 H   0  0  0  0  0  0
  1 25  1  0  0  0
  1 30  2  0  0  0
  1 83  1  0  0  0
  2  3  1  0  0  0
  2 25  1  0  0  0
  2 85  1  0  0  0
  2 86  1  0  0  0
  3  4  1  0  0  0
  3 87  1  0  0  0
  3 88  1  0  0  0
  4  5  1  0  0  0
  4 89  1  0  0  0
  4 90  1  0  0  0
  5  6  1  0  0  0
  5 26  1  0  0  0
  5 91  1  0  0  0
  6 25  1  0  0  0
  6 92  1  0  0  0
  6 93  1  0  0  0
  7  8  2  0  0  0
  7 26  1  0  0  0
  7 29  1  0  0  0
  8  9  1  0  0  0
  8 22  1  0  0  0
  9 10  1  0  0  0
  9 27  2  0  0  0
 10 11  2  0  0  0
 10 15  1  0  0  0
 11 12  1  0  0  0
 11 94  1  0  0  0
 12 13  2  0  0  0
 12 95  1  0  0  0
 13 14  1  0  0  0
 13 31  1  0  0  0
 14 15  2  0  0  0
 14 96  1  0  0  0
 15 97  1  0  0  0
 16 17  2  0  0  0
 16 21  1  0  0  0
 16 31  1  0  0  0
 17 18  1  0  0  0
 17 98  1  0  0  0
 18 19  2  0  0  0
 18 99  1  0  0  0
 19 20  1  0  0  0
 19 24  1  0  0  0
 20 21  2  0  0  0
 20100  1  0  0  0
 21 23  1  0  0  0
 22 28  1  0  0  0
 22 32  2  0  0  0
 26 27  1  0  0  0
 28101  1  0  0  0
 28102  1  0  0  0
 29103  1  0  0  0
 29104  1  0  0  0
 33 34  1  0  0  0
 33 66  1  0  0  0
 33 70  2  0  0  0
 34 36  1  0  0  0
 34 59  1  0  0  0
 34105  1  0  0  0
 35 44  2  0  0  0
 35 45  1  0  0  0
 35 68  1  0  0  0
 36 56  1  0  0  0
 36106  1  0  0  0
 37 39  1  0  0  0
 37 47  1  0  0  0
 37 66  1  0  0  0
 37107  1  0  0  0
 38 43  2  0  0  0
 38 46  1  0  0  0
 38 47  1  0  0  0
 39 64  1  0  0  0
 39 67  2  0  0  0
 40 52  1  0  0  0
 40 53  2  0  0  0
 40 58  1  0  0  0
 41108  1  0  0  0
 41109  1  0  0  0
 41110  1  0  0  0
 41 48  1  0  0  0
 42 43  1  0  0  0
 42 66  1  0  0  0
 42111  1  0  0  0
 42112  1  0  0  0
 43 44  1  0  0  0
 44113  1  0  0  0
 45 46  2  0  0  0
 45114  1  0  0  0
 46115  1  0  0  0
 47116  1  0  0  0
 47117  1  0  0  0
 48 56  1  0  0  0
 48 65  1  0  0  0
 48118  1  0  0  0
 49 50  1  0  0  0
 49 53  1  0  0  0
 49 64  1  0  0  0
 49119  1  0  0  0
 50 51  1  0  0  0
 50120  1  0  0  0
 50121  1  0  0  0
 51 52  1  0  0  0
 51122  1  0  0  0
 51123  1  0  0  0
 52124  1  0  0  0
 52125  1  0  0  0
 53 54  1  0  0  0
 54 55  2  0  0  0
 54126  1  0  0  0
 55 57  1  0  0  0
 55127  1  0  0  0
 56 69  2  0  0  0
 57 58  2  0  0  0
 57128  1  0  0  0
 58129  1  0  0  0
 59 60  1  0  0  0
 59 61  1  0  0  0
 59 62  1  0  0  0
 60130  1  0  0  0
 60131  1  0  0  0
 60132  1  0  0  0
 61133  1  0  0  0
 61134  1  0  0  0
 61135  1  0  0  0
 62136  1  0  0  0
 62137  1  0  0  0
 62138  1  0  0  0
 63 65  1  0  0  0
 63139  1  0  0  0
 63140  1  0  0  0
 63141  1  0  0  0
 64142  1  0  0  0
 65143  1  0  0  0
 68 80  1  0  0  0
 71 73  2  0  0  0
 71 82  1  0  0  0
 71144  1  0  0  0
 72 81  2  0  0  0
 72 82  1  0  0  0
 72145  1  0  0  0
 73 81  1  0  0  0
 73 83  1  0  0  0
 74 75  2  0  0  0
 74 76  1  0  0  0
 74146  1  0  0  0
 75 78  1  0  0  0
 75147  1  0  0  0
 76 79  1  0  0  0
 76 84  2  0  0  0
 77148  1  0  0  0
 77149  1  0  0  0
 77150  1  0  0  0
 77 80  1  0  0  0
 78 82  1  0  0  0
 78151  1  0  0  0
 78152  1  0  0  0
 79 80  1  0  0  0
 79153  1  0  0  0
 79154  1  0  0  0
 80155  1  0  0  0
 83156  1  0  0  0
M  ISO  4   1 100  68 101  80 101  83 100
M  END
> <chiral flag>
0

> <version>
0

> <s_m_source_file>
/data/baiqing/PycharmProjects/Reinvent-master-3.2/result/LINK_invent/BTK/process_docking_weight1_custom_product_contain_oxygen_bond_distance_aromatic_linkinvent_7_9_3/rearranged_h_0180.sdf

> <i_m_source_file_index>
47

> <r_mmod_Potential_Energy-OPLS-2005>
-115.359161376953

> <r_mmod_Stretch_Energy-OPLS-2005>
30.4635982513428

> <r_mmod_Bend_Energy-OPLS-2005>
103.027305603027

> <r_mmod_Torsional_Energy-OPLS-2005>
217.864974975586

> <r_mmod_Improper_Torsional_Energy-OPLS-2005>
2.79953670501709

> <r_mmod_Van_der_Waal_Energy-OPLS-2005>
132.03938293457

> <r_mmod_Electrostatic_Energy-OPLS-2005>
-353.084167480469

> <r_mmod_Solvation_Energy-OPLS-2005>
-257.307525634766

> <b_mmod_Minimization_Converged-OPLS-2005>
0

> <r_mmod_RMS_Derivative-OPLS-2005>
3.92177200317383

$$$$
47
                    3D
 Structure written by MMmdl.
153161  0  0  1  0            999 V2000
  -30.6740  -14.5360   20.5412 C   0  0  0  0  0  0
  -30.4272  -12.3378   19.4330 C   0  0  0  0  0  0
  -29.4976  -12.5012   18.2119 C   0  0  0  0  0  0
  -28.0197  -12.3534   18.6253 C   0  0  0  0  0  0
  -27.6565  -13.2095   19.8682 C   0  0  2  0  0  0
  -28.7005  -13.0266   20.9934 C   0  0  0  0  0  0
  -25.2571  -13.8165   20.5676 C   0  0  0  0  0  0
  -24.1833  -13.0437   20.9188 C   0  0  0  0  0  0
  -24.6393  -11.6906   20.8744 C   0  0  0  0  0  0
  -23.9061  -10.4292   21.0412 C   0  0  0  0  0  0
  -24.3615   -9.4206   21.9187 C   0  0  0  0  0  0
  -23.6291   -8.2242   22.0755 C   0  0  0  0  0  0
  -22.4272   -8.0283   21.3547 C   0  0  0  0  0  0
  -21.9907   -9.0255   20.4648 C   0  0  0  0  0  0
  -22.7235  -10.2136   20.3059 C   0  0  0  0  0  0
  -21.6850   -6.0736   22.5279 C   0  0  0  0  0  0
  -21.4012   -6.5640   23.8212 C   0  0  0  0  0  0
  -21.3658   -5.6793   24.9174 C   0  0  0  0  0  0
  -21.6043   -4.3056   24.7224 C   0  0  0  0  0  0
  -21.8819   -3.8148   23.4346 C   0  0  0  0  0  0
  -21.9192   -4.6965   22.3403 C   0  0  0  0  0  0
  -22.7855  -13.5236   21.1849 C   0  0  0  0  0  0
  -22.1661   -4.2151   21.0979 F   0  0  0  0  0  0
  -21.5630   -3.4540   25.7737 F   0  0  0  0  0  0
  -30.0237  -13.3421   20.4320 N   0  0  0  0  0  0
  -26.2999  -12.9334   20.3338 N   0  0  0  0  0  0
  -25.9320  -11.6496   20.5768 N   0  0  0  0  0  0
  -22.0495  -12.8231   22.0406 N   0  0  0  0  0  0
  -25.4290  -15.1884   20.4065 N   0  0  0  0  0  0
  -31.8235  -14.6932   20.1219 O   0  0  0  0  0  0
  -21.6638   -6.8880   21.4241 O   0  0  0  0  0  0
  -22.3541  -14.5544   20.6698 O   0  0  0  0  0  0
  -24.6184  -31.8649   23.2070 C   0  0  0  0  0  0
  -25.9060  -32.4810   23.8380 C   0  0  1  0  0  0
  -27.2329  -27.4003   20.1085 C   0  0  0  0  0  0
  -25.5907  -33.8606   24.2316 N   0  0  0  0  0  0
  -23.4091  -30.4870   21.5479 C   0  0  2  0  0  0
  -24.8569  -28.9460   20.1163 C   0  0  0  0  0  0
  -22.7436  -29.4641   22.4976 C   0  0  0  0  0  0
  -18.0279  -28.1381   22.8490 C   0  0  0  0  0  0
  -24.1489  -36.7307   23.2640 C   0  0  0  0  0  0
  -25.9408  -30.8214   21.3641 C   0  0  0  0  0  0
  -26.0196  -29.4518   20.7134 C   0  0  0  0  0  0
  -27.2142  -28.6879   20.7030 C   0  0  0  0  0  0
  -26.0550  -26.9154   19.5067 C   0  0  0  0  0  0
  -24.8714  -27.6783   19.5079 C   0  0  0  0  0  0
  -23.6204  -29.8174   20.1635 C   0  0  0  0  0  0
  -25.4110  -36.3103   24.0341 C   0  0  1  0  0  0
  -20.5871  -28.3668   23.1313 C   0  0  2  0  0  0
  -20.6767  -26.9402   22.5420 C   0  0  0  0  0  0
  -19.5745  -26.6384   21.5220 C   0  0  0  0  0  0
  -18.1923  -26.7928   22.1627 C   0  0  0  0  0  0
  -19.1528  -28.8842   23.2898 C   0  0  0  0  0  0
  -18.9455  -30.1444   23.8913 C   0  0  0  0  0  0
  -17.6457  -30.6585   24.0562 C   0  0  0  0  0  0
  -25.9037  -34.9468   23.5126 C   0  0  0  0  0  0
  -16.5348  -29.9085   23.6327 C   0  0  0  0  0  0
  -16.7268  -28.6505   23.0346 C   0  0  0  0  0  0
  -26.4473  -31.6597   25.0720 C   0  0  0  0  0  0
  -25.3735  -31.3706   26.1465 C   0  0  0  0  0  0
  -27.0304  -30.3039   24.6100 C   0  0  0  0  0  0
  -27.6055  -32.4306   25.7477 C   0  0  0  0  0  0
  -27.5580  -37.1806   24.8465 C   0  0  0  0  0  0
  -21.4158  -29.3032   22.3719 N   0  0  0  0  0  0
  -26.4294  -37.3790   23.9411 N   0  0  0  0  0  0
  -24.6748  -31.0724   22.0981 N   0  0  0  0  0  0
  -23.4194  -28.8187   23.3034 O   0  0  0  0  0  0
  -28.3718  -26.6154   20.0861 O   0  0  0  0  0  0
  -26.5597  -34.8924   22.4688 O   0  0  0  0  0  0
  -23.5367  -32.1409   23.7442 O   0  0  0  0  0  0
  -31.4430  -18.9110   21.5416 C   0  0  0  0  0  0
  -31.4148  -17.4798   21.4655 C   0  0  0  0  0  0
  -30.2431  -19.4979   21.1657 C   0  0  0  0  0  0
  -30.2418  -16.9103   21.0371 C   0  0  0  0  0  0
  -29.0419  -22.9979   21.0107 C   0  0  0  0  0  0
  -28.4937  -24.0769   20.3783 C   0  0  0  0  0  0
  -29.1244  -21.6208   20.4882 C   0  0  0  0  0  0
  -28.3695  -25.4893   20.9995 C   0  0  0  0  0  0
  -32.6889  -19.6209   22.0124 C   0  0  0  0  0  0
  -29.9343  -20.8395   21.2406 N   0  0  0  0  0  0
  -29.9031  -15.5825   20.9313 N   0  0  0  0  0  0
  -28.5434  -21.2144   19.4787 O   0  0  0  0  0  0
  -27.9795  -24.0480   19.1376 O   0  0  0  0  0  0
  -32.4512  -16.7679   21.8458 F   0  0  0  0  0  0
  -33.7212  -19.3674   21.2073 F   0  0  0  0  0  0
  -32.5433  -20.9473   22.0528 F   0  0  0  0  0  0
  -33.0301  -19.2343   23.2420 F   0  0  0  0  0  0
  -29.1086  -18.2192   20.6991 S   0  0  0  0  0  0
  -31.4705  -12.4446   19.1309 H   0  0  0  0  0  0
  -30.3402  -11.3342   19.8519 H   0  0  0  0  0  0
  -29.7467  -11.7642   17.4473 H   0  0  0  0  0  0
  -29.6552  -13.4797   17.7553 H   0  0  0  0  0  0
  -27.8413  -11.2989   18.8389 H   0  0  0  0  0  0
  -27.3669  -12.6073   17.7894 H   0  0  0  0  0  0
  -27.6876  -14.2507   19.5470 H   0  0  0  0  0  0
  -28.6901  -11.9990   21.3598 H   0  0  0  0  0  0
  -28.4596  -13.6490   21.8567 H   0  0  0  0  0  0
  -25.2763   -9.5679   22.4759 H   0  0  0  0  0  0
  -24.0000   -7.4631   22.7473 H   0  0  0  0  0  0
  -21.0840   -8.8776   19.8952 H   0  0  0  0  0  0
  -22.3698  -10.9676   19.6168 H   0  0  0  0  0  0
  -21.2004   -7.6148   23.9716 H   0  0  0  0  0  0
  -21.1480   -6.0523   25.9077 H   0  0  0  0  0  0
  -22.0600   -2.7610   23.2845 H   0  0  0  0  0  0
  -22.4104  -11.9886   22.4791 H   0  0  0  0  0  0
  -21.1116  -13.1262   22.2618 H   0  0  0  0  0  0
  -24.6581  -15.8402   20.5051 H   0  0  0  0  0  0
  -26.2711  -15.6259   20.0550 H   0  0  0  0  0  0
  -26.7137  -32.5516   23.1146 H   0  0  0  0  0  0
  -25.0063  -33.9760   25.0466 H   0  0  0  0  0  0
  -22.6999  -31.3053   21.4061 H   0  0  0  0  0  0
  -23.3748  -35.9642   23.3312 H   0  0  0  0  0  0
  -24.3584  -36.8915   22.2052 H   0  0  0  0  0  0
  -23.7243  -37.6517   23.6644 H   0  0  0  0  0  0
  -26.0551  -31.5848   20.5931 H   0  0  0  0  0  0
  -26.8277  -30.8768   21.9835 H   0  0  0  0  0  0
  -28.1128  -29.0744   21.1634 H   0  0  0  0  0  0
  -26.0545  -25.9406   19.0393 H   0  0  0  0  0  0
  -23.9790  -27.2826   19.0430 H   0  0  0  0  0  0
  -23.7323  -30.5912   19.4028 H   0  0  0  0  0  0
  -22.7437  -29.2391   19.8663 H   0  0  0  0  0  0
  -25.1289  -36.1969   25.0836 H   0  0  0  0  0  0
  -20.9958  -28.3229   24.1436 H   0  0  0  0  0  0
  -20.5678  -26.2272   23.3606 H   0  0  0  0  0  0
  -21.6635  -26.7444   22.1208 H   0  0  0  0  0  0
  -19.6903  -25.6303   21.1235 H   0  0  0  0  0  0
  -19.6688  -27.3206   20.6760 H   0  0  0  0  0  0
  -17.4197  -26.6680   21.4026 H   0  0  0  0  0  0
  -18.0314  -26.0071   22.9023 H   0  0  0  0  0  0
  -19.7930  -30.7249   24.2293 H   0  0  0  0  0  0
  -17.5013  -31.6267   24.5154 H   0  0  0  0  0  0
  -15.5347  -30.2987   23.7643 H   0  0  0  0  0  0
  -15.8669  -28.0824   22.7052 H   0  0  0  0  0  0
  -24.5902  -30.7064   25.7797 H   0  0  0  0  0  0
  -24.8929  -32.2862   26.4921 H   0  0  0  0  0  0
  -25.8079  -30.8863   27.0218 H   0  0  0  0  0  0
  -26.2846  -29.6801   24.1152 H   0  0  0  0  0  0
  -27.4081  -29.7276   25.4556 H   0  0  0  0  0  0
  -27.8682  -30.4371   23.9248 H   0  0  0  0  0  0
  -27.2690  -33.3606   26.2068 H   0  0  0  0  0  0
  -28.3850  -32.6859   25.0288 H   0  0  0  0  0  0
  -28.0730  -31.8416   26.5377 H   0  0  0  0  0  0
  -28.2602  -38.0096   24.7505 H   0  0  0  0  0  0
  -28.1070  -36.2628   24.6299 H   0  0  0  0  0  0
  -27.2293  -37.1469   25.8867 H   0  0  0  0  0  0
  -20.9323  -29.8760   21.6944 H   0  0  0  0  0  0
  -26.0185  -38.2873   24.1405 H   0  0  0  0  0  0
  -29.4328  -23.1742   22.0035 H   0  0  0  0  0  0
  -29.2124  -25.6315   21.6765 H   0  0  0  0  0  0
  -27.4812  -25.4979   21.6346 H   0  0  0  0  0  0
  -30.4415  -21.3575   21.9461 H   0  0  0  0  0  0
  -28.9328  -15.3591   21.0880 H   0  0  0  0  0  0
  -28.0511  -23.1543   18.8183 H   0  0  0  0  0  0
  1 25  1  0  0  0
  1 30  2  0  0  0
  1 81  1  0  0  0
  2  3  1  0  0  0
  2 25  1  0  0  0
  2 89  1  0  0  0
  2 90  1  0  0  0
  3  4  1  0  0  0
  3 91  1  0  0  0
  3 92  1  0  0  0
  4  5  1  0  0  0
  4 93  1  0  0  0
  4 94  1  0  0  0
  5  6  1  0  0  0
  5 26  1  0  0  0
  5 95  1  0  0  0
  6 25  1  0  0  0
  6 96  1  0  0  0
  6 97  1  0  0  0
  7  8  2  0  0  0
  7 26  1  0  0  0
  7 29  1  0  0  0
  8  9  1  0  0  0
  8 22  1  0  0  0
  9 10  1  0  0  0
  9 27  2  0  0  0
 10 11  2  0  0  0
 10 15  1  0  0  0
 11 12  1  0  0  0
 11 98  1  0  0  0
 12 13  2  0  0  0
 12 99  1  0  0  0
 13 14  1  0  0  0
 13 31  1  0  0  0
 14 15  2  0  0  0
 14100  1  0  0  0
 15101  1  0  0  0
 16 17  2  0  0  0
 16 21  1  0  0  0
 16 31  1  0  0  0
 17 18  1  0  0  0
 17102  1  0  0  0
 18 19  2  0  0  0
 18103  1  0  0  0
 19 20  1  0  0  0
 19 24  1  0  0  0
 20 21  2  0  0  0
 20104  1  0  0  0
 21 23  1  0  0  0
 22 28  1  0  0  0
 22 32  2  0  0  0
 26 27  1  0  0  0
 28105  1  0  0  0
 28106  1  0  0  0
 29107  1  0  0  0
 29108  1  0  0  0
 33 34  1  0  0  0
 33 66  1  0  0  0
 33 70  2  0  0  0
 34 36  1  0  0  0
 34 59  1  0  0  0
 34109  1  0  0  0
 35 44  2  0  0  0
 35 45  1  0  0  0
 35 68  1  0  0  0
 36 56  1  0  0  0
 36110  1  0  0  0
 37 39  1  0  0  0
 37 47  1  0  0  0
 37 66  1  0  0  0
 37111  1  0  0  0
 38 43  2  0  0  0
 38 46  1  0  0  0
 38 47  1  0  0  0
 39 64  1  0  0  0
 39 67  2  0  0  0
 40 52  1  0  0  0
 40 53  2  0  0  0
 40 58  1  0  0  0
 41112  1  0  0  0
 41113  1  0  0  0
 41114  1  0  0  0
 41 48  1  0  0  0
 42 43  1  0  0  0
 42 66  1  0  0  0
 42115  1  0  0  0
 42116  1  0  0  0
 43 44  1  0  0  0
 44117  1  0  0  0
 45 46  2  0  0  0
 45118  1  0  0  0
 46119  1  0  0  0
 47120  1  0  0  0
 47121  1  0  0  0
 48 56  1  0  0  0
 48 65  1  0  0  0
 48122  1  0  0  0
 49 50  1  0  0  0
 49 53  1  0  0  0
 49 64  1  0  0  0
 49123  1  0  0  0
 50 51  1  0  0  0
 50124  1  0  0  0
 50125  1  0  0  0
 51 52  1  0  0  0
 51126  1  0  0  0
 51127  1  0  0  0
 52128  1  0  0  0
 52129  1  0  0  0
 53 54  1  0  0  0
 54 55  2  0  0  0
 54130  1  0  0  0
 55 57  1  0  0  0
 55131  1  0  0  0
 56 69  2  0  0  0
 57 58  2  0  0  0
 57132  1  0  0  0
 58133  1  0  0  0
 59 60  1  0  0  0
 59 61  1  0  0  0
 59 62  1  0  0  0
 60134  1  0  0  0
 60135  1  0  0  0
 60136  1  0  0  0
 61137  1  0  0  0
 61138  1  0  0  0
 61139  1  0  0  0
 62140  1  0  0  0
 62141  1  0  0  0
 62142  1  0  0  0
 63 65  1  0  0  0
 63143  1  0  0  0
 63144  1  0  0  0
 63145  1  0  0  0
 64146  1  0  0  0
 65147  1  0  0  0
 68 78  1  0  0  0
 71 72  1  0  0  0
 71 73  2  0  0  0
 71 79  1  0  0  0
 72 74  2  0  0  0
 72 84  1  0  0  0
 73 80  1  0  0  0
 73 88  1  0  0  0
 74 81  1  0  0  0
 74 88  1  0  0  0
 75 76  2  0  0  0
 75 77  1  0  0  0
 75148  1  0  0  0
 76 78  1  0  0  0
 76 83  1  0  0  0
 77 80  1  0  0  0
 77 82  2  0  0  0
 78149  1  0  0  0
 78150  1  0  0  0
 79 85  1  0  0  0
 79 86  1  0  0  0
 79 87  1  0  0  0
 80151  1  0  0  0
 81152  1  0  0  0
 83153  1  0  0  0
M  ISO  4   1 100  68 101  78 101  81 100
M  END
> <chiral flag>
0

> <version>
0

> <s_m_source_file>
/data/baiqing/PycharmProjects/Reinvent-master-3.2/result/LINK_invent/BTK/process_docking_weight1_custom_product_contain_oxygen_bond_distance_aromatic_linkinvent_7_9_3/rearranged_h_0180.sdf

> <i_m_source_file_index>
48

> <r_mmod_Potential_Energy-OPLS-2005>
-43.7368354797363

> <r_mmod_Stretch_Energy-OPLS-2005>
46.3318824768066

> <r_mmod_Bend_Energy-OPLS-2005>
120.88688659668

> <r_mmod_Torsional_Energy-OPLS-2005>
236.650772094727

> <r_mmod_Improper_Torsional_Energy-OPLS-2005>
5.56240892410278

> <r_mmod_Van_der_Waal_Energy-OPLS-2005>
130.700897216797

> <r_mmod_Electrostatic_Energy-OPLS-2005>
-372.650054931641

> <r_mmod_Solvation_Energy-OPLS-2005>
-231.877700805664

> <b_mmod_Minimization_Converged-OPLS-2005>
0

> <r_mmod_RMS_Derivative-OPLS-2005>
0.639388382434845

$$$$
48
                    3D
 Structure written by MMmdl.
156164  0  0  1  0            999 V2000
  -30.6920  -14.4588   20.5858 C   0  0  0  0  0  0
  -30.4291  -12.2995   19.4177 C   0  0  0  0  0  0
  -29.4981  -12.5112   18.2049 C   0  0  0  0  0  0
  -28.0180  -12.3719   18.6146 C   0  0  0  0  0  0
  -27.6672  -13.1996   19.8781 C   0  0  2  0  0  0
  -28.7062  -12.9544   20.9966 C   0  0  0  0  0  0
  -25.2622  -13.8146   20.5665 C   0  0  0  0  0  0
  -24.1859  -13.0440   20.9158 C   0  0  0  0  0  0
  -24.6387  -11.6900   20.8717 C   0  0  0  0  0  0
  -23.9044  -10.4295   21.0405 C   0  0  0  0  0  0
  -24.3599   -9.4217   21.9185 C   0  0  0  0  0  0
  -23.6280   -8.2252   22.0759 C   0  0  0  0  0  0
  -22.4267   -8.0282   21.3547 C   0  0  0  0  0  0
  -21.9894   -9.0255   20.4652 C   0  0  0  0  0  0
  -22.7217  -10.2136   20.3060 C   0  0  0  0  0  0
  -21.6855   -6.0732   22.5273 C   0  0  0  0  0  0
  -21.4018   -6.5637   23.8208 C   0  0  0  0  0  0
  -21.3653   -5.6787   24.9171 C   0  0  0  0  0  0
  -21.6047   -4.3052   24.7219 C   0  0  0  0  0  0
  -21.8821   -3.8141   23.4343 C   0  0  0  0  0  0
  -21.9190   -4.6957   22.3400 C   0  0  0  0  0  0
  -22.7885  -13.5263   21.1812 C   0  0  0  0  0  0
  -22.1664   -4.2145   21.0980 F   0  0  0  0  0  0
  -21.5626   -3.4534   25.7731 F   0  0  0  0  0  0
  -30.0434  -13.2683   20.4553 N   0  0  0  0  0  0
  -26.3051  -12.9300   20.3361 N   0  0  0  0  0  0
  -25.9314  -11.6469   20.5749 N   0  0  0  0  0  0
  -22.0503  -12.8279   22.0369 N   0  0  0  0  0  0
  -25.4370  -15.1855   20.4076 N   0  0  0  0  0  0
  -31.8034  -14.6687   20.0880 O   0  0  0  0  0  0
  -21.6639   -6.8877   21.4236 O   0  0  0  0  0  0
  -22.3585  -14.5571   20.6648 O   0  0  0  0  0  0
  -24.6140  -31.8693   23.2101 C   0  0  0  0  0  0
  -25.9039  -32.4837   23.8401 C   0  0  1  0  0  0
  -27.2387  -27.4542   20.0914 C   0  0  0  0  0  0
  -25.5903  -33.8636   24.2348 N   0  0  0  0  0  0
  -23.4021  -30.4911   21.5510 C   0  0  2  0  0  0
  -24.8505  -28.9622   20.1117 C   0  0  0  0  0  0
  -22.7403  -29.4667   22.5004 C   0  0  0  0  0  0
  -18.0284  -28.1332   22.8512 C   0  0  0  0  0  0
  -24.1482  -36.7314   23.2635 C   0  0  0  0  0  0
  -25.9279  -30.8429   21.3593 C   0  0  0  0  0  0
  -26.0096  -29.4783   20.7060 C   0  0  0  0  0  0
  -27.2096  -28.7319   20.6924 C   0  0  0  0  0  0
  -26.0664  -26.9515   19.4874 C   0  0  0  0  0  0
  -24.8737  -27.6977   19.4976 C   0  0  0  0  0  0
  -23.6085  -29.8229   20.1651 C   0  0  0  0  0  0
  -25.4102  -36.3120   24.0339 C   0  0  1  0  0  0
  -20.5867  -28.3656   23.1314 C   0  0  2  0  0  0
  -20.6810  -26.9417   22.5369 C   0  0  0  0  0  0
  -19.5755  -26.6346   21.5222 C   0  0  0  0  0  0
  -18.1959  -26.7858   22.1692 C   0  0  0  0  0  0
  -19.1529  -28.8806   23.2904 C   0  0  0  0  0  0
  -18.9464  -30.1416   23.8899 C   0  0  0  0  0  0
  -17.6470  -30.6569   24.0543 C   0  0  0  0  0  0
  -25.9032  -34.9486   23.5138 C   0  0  0  0  0  0
  -16.5358  -29.9065   23.6319 C   0  0  0  0  0  0
  -16.7275  -28.6464   23.0366 C   0  0  0  0  0  0
  -26.4473  -31.6606   25.0721 C   0  0  0  0  0  0
  -25.3746  -31.3697   26.1474 C   0  0  0  0  0  0
  -27.0297  -30.3056   24.6065 C   0  0  0  0  0  0
  -27.6063  -32.4303   25.7483 C   0  0  0  0  0  0
  -27.5582  -37.1812   24.8467 C   0  0  0  0  0  0
  -21.4129  -29.3060   22.3757 N   0  0  0  0  0  0
  -26.4296  -37.3802   23.9412 N   0  0  0  0  0  0
  -24.6666  -31.0805   22.0991 N   0  0  0  0  0  0
  -23.4181  -28.8204   23.3042 O   0  0  0  0  0  0
  -28.3798  -26.6862   20.1148 O   0  0  0  0  0  0
  -26.5588  -34.8928   22.4694 O   0  0  0  0  0  0
  -23.5336  -32.1438   23.7496 O   0  0  0  0  0  0
  -29.5107  -19.1717   21.0021 C   0  0  0  0  0  0
  -29.9924  -16.8116   21.0752 C   0  0  0  0  0  0
  -29.4424  -21.6904   20.7753 C   0  0  0  0  0  0
  -28.8292  -23.1873   22.6519 C   0  0  0  0  0  0
  -27.0336  -22.4921   21.0335 C   0  0  0  0  0  0
  -28.2403  -25.5102   20.9283 C   0  0  0  0  0  0
  -28.8109  -24.2060   20.2968 C   0  0  1  0  0  0
  -28.5323  -22.9040   21.1592 C   0  0  0  0  0  0
  -30.6883  -18.8792   20.4220 N   0  0  0  0  0  0
  -30.9667  -17.5102   20.4638 N   0  0  0  0  0  0
  -28.9590  -20.4764   21.1091 N   0  0  0  0  0  0
  -29.9841  -15.3981   21.2358 N   0  0  0  0  0  0
  -30.5445  -21.8671   20.2492 O   0  0  0  0  0  0
  -28.2183  -24.0669   19.0104 O   0  0  0  0  0  0
  -28.6497  -17.7845   21.6620 S   0  0  0  0  0  0
  -31.4726  -12.4055   19.1158 H   0  0  0  0  0  0
  -30.3317  -11.2829   19.8012 H   0  0  0  0  0  0
  -29.7378  -11.7944   17.4186 H   0  0  0  0  0  0
  -29.6692  -13.5008   17.7782 H   0  0  0  0  0  0
  -27.8246  -11.3150   18.8002 H   0  0  0  0  0  0
  -27.3695  -12.6583   17.7853 H   0  0  0  0  0  0
  -27.7204  -14.2512   19.5934 H   0  0  0  0  0  0
  -28.6805  -11.9110   21.3154 H   0  0  0  0  0  0
  -28.4575  -13.5276   21.8906 H   0  0  0  0  0  0
  -25.2741   -9.5706   22.4761 H   0  0  0  0  0  0
  -23.9982   -7.4654   22.7487 H   0  0  0  0  0  0
  -21.0824   -8.8770   19.8970 H   0  0  0  0  0  0
  -22.3661  -10.9673   19.6178 H   0  0  0  0  0  0
  -21.2021   -7.6143   23.9714 H   0  0  0  0  0  0
  -21.1475   -6.0518   25.9076 H   0  0  0  0  0  0
  -22.0603   -2.7600   23.2841 H   0  0  0  0  0  0
  -22.4079  -11.9923   22.4765 H   0  0  0  0  0  0
  -21.1141  -13.1364   22.2578 H   0  0  0  0  0  0
  -24.6677  -15.8397   20.5064 H   0  0  0  0  0  0
  -26.2818  -15.6196   20.0601 H   0  0  0  0  0  0
  -26.7125  -32.5555   23.1184 H   0  0  0  0  0  0
  -25.0063  -33.9797   25.0500 H   0  0  0  0  0  0
  -22.6901  -31.3064   21.4122 H   0  0  0  0  0  0
  -23.3738  -35.9654   23.3309 H   0  0  0  0  0  0
  -24.3583  -36.8914   22.2049 H   0  0  0  0  0  0
  -23.7235  -37.6524   23.6636 H   0  0  0  0  0  0
  -26.0323  -31.6109   20.5913 H   0  0  0  0  0  0
  -26.8173  -30.9002   21.9743 H   0  0  0  0  0  0
  -28.1040  -29.1222   21.1591 H   0  0  0  0  0  0
  -26.0740  -25.9795   19.0171 H   0  0  0  0  0  0
  -23.9843  -27.2972   19.0322 H   0  0  0  0  0  0
  -23.7078  -30.5966   19.4028 H   0  0  0  0  0  0
  -22.7344  -29.2365   19.8754 H   0  0  0  0  0  0
  -25.1278  -36.2003   25.0835 H   0  0  0  0  0  0
  -20.9925  -28.3195   24.1444 H   0  0  0  0  0  0
  -20.5833  -26.2250   23.3537 H   0  0  0  0  0  0
  -21.6663  -26.7548   22.1082 H   0  0  0  0  0  0
  -19.6960  -25.6251   21.1287 H   0  0  0  0  0  0
  -19.6629  -27.3129   20.6724 H   0  0  0  0  0  0
  -17.4203  -26.6497   21.4143 H   0  0  0  0  0  0
  -18.0454  -26.0033   22.9140 H   0  0  0  0  0  0
  -19.7956  -30.7213   24.2270 H   0  0  0  0  0  0
  -17.5046  -31.6266   24.5113 H   0  0  0  0  0  0
  -15.5365  -30.2982   23.7633 H   0  0  0  0  0  0
  -15.8666  -28.0789   22.7095 H   0  0  0  0  0  0
  -24.5920  -30.7046   25.7809 H   0  0  0  0  0  0
  -24.8925  -32.2839   26.4943 H   0  0  0  0  0  0
  -25.8105  -30.8859   27.0223 H   0  0  0  0  0  0
  -26.2829  -29.6826   24.1128 H   0  0  0  0  0  0
  -27.4095  -29.7290   25.4509 H   0  0  0  0  0  0
  -27.8655  -30.4383   23.9188 H   0  0  0  0  0  0
  -27.2704  -33.3586   26.2112 H   0  0  0  0  0  0
  -28.3852  -32.6885   25.0298 H   0  0  0  0  0  0
  -28.0754  -31.8390   26.5357 H   0  0  0  0  0  0
  -28.2612  -38.0097   24.7516 H   0  0  0  0  0  0
  -28.1066  -36.2633   24.6295 H   0  0  0  0  0  0
  -27.2303  -37.1470   25.8871 H   0  0  0  0  0  0
  -20.9274  -29.8846   21.7040 H   0  0  0  0  0  0
  -26.0190  -38.2888   24.1405 H   0  0  0  0  0  0
  -28.8092  -22.2773   23.2538 H   0  0  0  0  0  0
  -28.0921  -23.8566   23.0950 H   0  0  0  0  0  0
  -29.8125  -23.6400   22.7833 H   0  0  0  0  0  0
  -26.7482  -21.7360   21.7665 H   0  0  0  0  0  0
  -26.8089  -22.0809   20.0478 H   0  0  0  0  0  0
  -26.3570  -23.3308   21.1924 H   0  0  0  0  0  0
  -27.2114  -25.3561   21.2547 H   0  0  0  0  0  0
  -28.7930  -25.7314   21.8407 H   0  0  0  0  0  0
  -29.8853  -24.3438   20.1633 H   0  0  0  0  0  0
  -28.0498  -20.5089   21.5443 H   0  0  0  0  0  0
  -29.1584  -15.0396   21.6864 H   0  0  0  0  0  0
  -27.2762  -24.0578   19.1305 H   0  0  0  0  0  0
  1 25  1  0  0  0
  1 30  2  0  0  0
  1 82  1  0  0  0
  2  3  1  0  0  0
  2 25  1  0  0  0
  2 86  1  0  0  0
  2 87  1  0  0  0
  3  4  1  0  0  0
  3 88  1  0  0  0
  3 89  1  0  0  0
  4  5  1  0  0  0
  4 90  1  0  0  0
  4 91  1  0  0  0
  5  6  1  0  0  0
  5 26  1  0  0  0
  5 92  1  0  0  0
  6 25  1  0  0  0
  6 93  1  0  0  0
  6 94  1  0  0  0
  7  8  2  0  0  0
  7 26  1  0  0  0
  7 29  1  0  0  0
  8  9  1  0  0  0
  8 22  1  0  0  0
  9 10  1  0  0  0
  9 27  2  0  0  0
 10 11  2  0  0  0
 10 15  1  0  0  0
 11 12  1  0  0  0
 11 95  1  0  0  0
 12 13  2  0  0  0
 12 96  1  0  0  0
 13 14  1  0  0  0
 13 31  1  0  0  0
 14 15  2  0  0  0
 14 97  1  0  0  0
 15 98  1  0  0  0
 16 17  2  0  0  0
 16 21  1  0  0  0
 16 31  1  0  0  0
 17 18  1  0  0  0
 17 99  1  0  0  0
 18 19  2  0  0  0
 18100  1  0  0  0
 19 20  1  0  0  0
 19 24  1  0  0  0
 20 21  2  0  0  0
 20101  1  0  0  0
 21 23  1  0  0  0
 22 28  1  0  0  0
 22 32  2  0  0  0
 26 27  1  0  0  0
 28102  1  0  0  0
 28103  1  0  0  0
 29104  1  0  0  0
 29105  1  0  0  0
 33 34  1  0  0  0
 33 66  1  0  0  0
 33 70  2  0  0  0
 34 36  1  0  0  0
 34 59  1  0  0  0
 34106  1  0  0  0
 35 44  2  0  0  0
 35 45  1  0  0  0
 35 68  1  0  0  0
 36 56  1  0  0  0
 36107  1  0  0  0
 37 39  1  0  0  0
 37 47  1  0  0  0
 37 66  1  0  0  0
 37108  1  0  0  0
 38 43  2  0  0  0
 38 46  1  0  0  0
 38 47  1  0  0  0
 39 64  1  0  0  0
 39 67  2  0  0  0
 40 52  1  0  0  0
 40 53  2  0  0  0
 40 58  1  0  0  0
 41109  1  0  0  0
 41110  1  0  0  0
 41111  1  0  0  0
 41 48  1  0  0  0
 42 43  1  0  0  0
 42 66  1  0  0  0
 42112  1  0  0  0
 42113  1  0  0  0
 43 44  1  0  0  0
 44114  1  0  0  0
 45 46  2  0  0  0
 45115  1  0  0  0
 46116  1  0  0  0
 47117  1  0  0  0
 47118  1  0  0  0
 48 56  1  0  0  0
 48 65  1  0  0  0
 48119  1  0  0  0
 49 50  1  0  0  0
 49 53  1  0  0  0
 49 64  1  0  0  0
 49120  1  0  0  0
 50 51  1  0  0  0
 50121  1  0  0  0
 50122  1  0  0  0
 51 52  1  0  0  0
 51123  1  0  0  0
 51124  1  0  0  0
 52125  1  0  0  0
 52126  1  0  0  0
 53 54  1  0  0  0
 54 55  2  0  0  0
 54127  1  0  0  0
 55 57  1  0  0  0
 55128  1  0  0  0
 56 69  2  0  0  0
 57 58  2  0  0  0
 57129  1  0  0  0
 58130  1  0  0  0
 59 60  1  0  0  0
 59 61  1  0  0  0
 59 62  1  0  0  0
 60131  1  0  0  0
 60132  1  0  0  0
 60133  1  0  0  0
 61134  1  0  0  0
 61135  1  0  0  0
 61136  1  0  0  0
 62137  1  0  0  0
 62138  1  0  0  0
 62139  1  0  0  0
 63 65  1  0  0  0
 63140  1  0  0  0
 63141  1  0  0  0
 63142  1  0  0  0
 64143  1  0  0  0
 65144  1  0  0  0
 68 76  1  0  0  0
 71 79  2  0  0  0
 71 81  1  0  0  0
 71 85  1  0  0  0
 72 80  2  0  0  0
 72 82  1  0  0  0
 72 85  1  0  0  0
 73 78  1  0  0  0
 73 81  1  0  0  0
 73 83  2  0  0  0
 74145  1  0  0  0
 74146  1  0  0  0
 74147  1  0  0  0
 74 78  1  0  0  0
 75 78  1  0  0  0
 75148  1  0  0  0
 75149  1  0  0  0
 75150  1  0  0  0
 76 77  1  0  0  0
 76151  1  0  0  0
 76152  1  0  0  0
 77 78  1  0  0  0
 77 84  1  0  0  0
 77153  1  0  0  0
 79 80  1  0  0  0
 81154  1  0  0  0
 82155  1  0  0  0
 84156  1  0  0  0
M  ISO  4   1 100  68 101  76 101  82 100
M  END
> <chiral flag>
0

> <version>
0

> <s_m_source_file>
/data/baiqing/PycharmProjects/Reinvent-master-3.2/result/LINK_invent/BTK/process_docking_weight1_custom_product_contain_oxygen_bond_distance_aromatic_linkinvent_7_9_3/rearranged_h_0180.sdf

> <i_m_source_file_index>
49

> <r_mmod_Potential_Energy-OPLS-2005>
-141.798400878906

> <r_mmod_Stretch_Energy-OPLS-2005>
41.6224098205566

> <r_mmod_Bend_Energy-OPLS-2005>
114.680549621582

> <r_mmod_Torsional_Energy-OPLS-2005>
258.318664550781

> <r_mmod_Improper_Torsional_Energy-OPLS-2005>
3.73256731033325

> <r_mmod_Van_der_Waal_Energy-OPLS-2005>
146.647537231445

> <r_mmod_Electrostatic_Energy-OPLS-2005>
-412.175354003906

> <r_mmod_Solvation_Energy-OPLS-2005>
-305.478637695312

> <b_mmod_Minimization_Converged-OPLS-2005>
0

> <r_mmod_RMS_Derivative-OPLS-2005>
1.64349412918091

$$$$
49
                    3D
 Structure written by MMmdl.
148156  0  0  1  0            999 V2000
  -30.6485  -14.5810   20.5182 C   0  0  0  0  0  0
  -30.4360  -12.3570   19.4441 C   0  0  0  0  0  0
  -29.5055  -12.4924   18.2190 C   0  0  0  0  0  0
  -28.0265  -12.3386   18.6312 C   0  0  0  0  0  0
  -27.6541  -13.2073   19.8622 C   0  0  2  0  0  0
  -28.6986  -13.0486   20.9902 C   0  0  0  0  0  0
  -25.2569  -13.8155   20.5656 C   0  0  0  0  0  0
  -24.1830  -13.0429   20.9177 C   0  0  0  0  0  0
  -24.6378  -11.6894   20.8735 C   0  0  0  0  0  0
  -23.9040  -10.4290   21.0407 C   0  0  0  0  0  0
  -24.3596   -9.4207   21.9188 C   0  0  0  0  0  0
  -23.6285   -8.2233   22.0750 C   0  0  0  0  0  0
  -22.4265   -8.0273   21.3541 C   0  0  0  0  0  0
  -21.9893   -9.0246   20.4642 C   0  0  0  0  0  0
  -22.7211  -10.2132   20.3057 C   0  0  0  0  0  0
  -21.6843   -6.0729   22.5286 C   0  0  0  0  0  0
  -21.4006   -6.5633   23.8221 C   0  0  0  0  0  0
  -21.3664   -5.6791   24.9188 C   0  0  0  0  0  0
  -21.6052   -4.3053   24.7232 C   0  0  0  0  0  0
  -21.8820   -3.8139   23.4353 C   0  0  0  0  0  0
  -21.9186   -4.6957   22.3410 C   0  0  0  0  0  0
  -22.7858  -13.5225   21.1852 C   0  0  0  0  0  0
  -22.1652   -4.2138   21.0988 F   0  0  0  0  0  0
  -21.5639   -3.4540   25.7744 F   0  0  0  0  0  0
  -30.0186  -13.3719   20.4278 N   0  0  0  0  0  0
  -26.2988  -12.9310   20.3310 N   0  0  0  0  0  0
  -25.9309  -11.6479   20.5766 N   0  0  0  0  0  0
  -22.0494  -12.8234   22.0413 N   0  0  0  0  0  0
  -25.4284  -15.1875   20.4036 N   0  0  0  0  0  0
  -31.8207  -14.7318   20.1603 O   0  0  0  0  0  0
  -21.6626   -6.8872   21.4244 O   0  0  0  0  0  0
  -22.3548  -14.5538   20.6698 O   0  0  0  0  0  0
  -24.6224  -31.8644   23.2073 C   0  0  0  0  0  0
  -25.9091  -32.4797   23.8384 C   0  0  1  0  0  0
  -27.2234  -27.3643   20.0964 C   0  0  0  0  0  0
  -25.5934  -33.8600   24.2314 N   0  0  0  0  0  0
  -23.4130  -30.4913   21.5502 C   0  0  2  0  0  0
  -24.8558  -28.9566   20.1108 C   0  0  0  0  0  0
  -22.7457  -29.4644   22.4960 C   0  0  0  0  0  0
  -18.0287  -28.1380   22.8493 C   0  0  0  0  0  0
  -24.1487  -36.7297   23.2635 C   0  0  0  0  0  0
  -25.9506  -30.8085   21.3721 C   0  0  0  0  0  0
  -26.0237  -29.4408   20.7114 C   0  0  0  0  0  0
  -27.2085  -28.6543   20.6991 C   0  0  0  0  0  0
  -26.0216  -26.9149   19.4937 C   0  0  0  0  0  0
  -24.8534  -27.6963   19.4964 C   0  0  0  0  0  0
  -23.6228  -29.8316   20.1630 C   0  0  0  0  0  0
  -25.4112  -36.3089   24.0329 C   0  0  1  0  0  0
  -20.5882  -28.3676   23.1306 C   0  0  2  0  0  0
  -20.6766  -26.9405   22.5417 C   0  0  0  0  0  0
  -19.5745  -26.6380   21.5215 C   0  0  0  0  0  0
  -18.1930  -26.7923   22.1631 C   0  0  0  0  0  0
  -19.1538  -28.8849   23.2893 C   0  0  0  0  0  0
  -18.9453  -30.1454   23.8899 C   0  0  0  0  0  0
  -17.6450  -30.6577   24.0568 C   0  0  0  0  0  0
  -25.9051  -34.9459   23.5119 C   0  0  0  0  0  0
  -16.5346  -29.9075   23.6328 C   0  0  0  0  0  0
  -16.7274  -28.6499   23.0344 C   0  0  0  0  0  0
  -26.4492  -31.6592   25.0738 C   0  0  0  0  0  0
  -25.3726  -31.3737   26.1467 C   0  0  0  0  0  0
  -27.0306  -30.3011   24.6161 C   0  0  0  0  0  0
  -27.6069  -32.4313   25.7496 C   0  0  0  0  0  0
  -27.5588  -37.1798   24.8461 C   0  0  0  0  0  0
  -21.4176  -29.3036   22.3703 N   0  0  0  0  0  0
  -26.4293  -37.3782   23.9411 N   0  0  0  0  0  0
  -24.6807  -31.0700   22.1006 N   0  0  0  0  0  0
  -23.4209  -28.8173   23.3011 O   0  0  0  0  0  0
  -28.3620  -26.5548   20.1430 O   0  0  0  0  0  0
  -26.5606  -34.8919   22.4676 O   0  0  0  0  0  0
  -23.5405  -32.1429   23.7428 O   0  0  0  0  0  0
  -30.8827  -19.3992   20.7379 C   0  0  0  0  0  0
  -29.5648  -19.2832   20.3562 C   0  0  0  0  0  0
  -30.1048  -17.0443   20.7351 C   0  0  0  0  0  0
  -28.3173  -25.2731   19.5904 C   0  0  0  0  0  0
  -28.7096  -20.3998   19.7585 C   0  0  0  0  0  0
  -28.6994  -24.1016   20.1829 C   0  0  0  0  0  0
  -28.4973  -22.8192   19.4669 C   0  0  0  0  0  0
  -29.1376  -17.9252   20.4075 N   0  0  0  0  0  0
  -29.8355  -15.6332   20.8034 N   0  0  0  0  0  0
  -28.9673  -21.6989   20.0939 N   0  0  0  0  0  0
  -27.7898  -20.0730   18.9959 O   0  0  0  0  0  0
  -27.9298  -22.7768   18.3683 O   0  0  0  0  0  0
  -29.2285  -24.1004   21.4152 O   0  0  0  0  0  0
  -31.6336  -17.8474   21.0866 S   0  0  0  0  0  0
  -31.4788  -12.4751   19.1434 H   0  0  0  0  0  0
  -30.3606  -11.3586   19.8772 H   0  0  0  0  0  0
  -29.7656  -11.7463   17.4666 H   0  0  0  0  0  0
  -29.6538  -13.4659   17.7495 H   0  0  0  0  0  0
  -27.8568  -11.2850   18.8600 H   0  0  0  0  0  0
  -27.3715  -12.5740   17.7912 H   0  0  0  0  0  0
  -27.6757  -14.2424   19.5222 H   0  0  0  0  0  0
  -28.7004  -12.0261   21.3696 H   0  0  0  0  0  0
  -28.4522  -13.6805   21.8452 H   0  0  0  0  0  0
  -25.2743   -9.5688   22.4759 H   0  0  0  0  0  0
  -24.0012   -7.4619   22.7457 H   0  0  0  0  0  0
  -21.0831   -8.8752   19.8948 H   0  0  0  0  0  0
  -22.3668  -10.9670   19.6165 H   0  0  0  0  0  0
  -21.1991   -7.6141   23.9716 H   0  0  0  0  0  0
  -21.1492   -6.0523   25.9096 H   0  0  0  0  0  0
  -22.0596   -2.7597   23.2840 H   0  0  0  0  0  0
  -22.4089  -11.9898   22.4824 H   0  0  0  0  0  0
  -21.1121  -13.1297   22.2619 H   0  0  0  0  0  0
  -24.6549  -15.8375   20.4878 H   0  0  0  0  0  0
  -26.2702  -15.6240   20.0493 H   0  0  0  0  0  0
  -26.7155  -32.5469   23.1135 H   0  0  0  0  0  0
  -25.0095  -33.9754   25.0467 H   0  0  0  0  0  0
  -22.7047  -31.3104   21.4132 H   0  0  0  0  0  0
  -23.3748  -35.9629   23.3294 H   0  0  0  0  0  0
  -24.3590  -36.8918   22.2053 H   0  0  0  0  0  0
  -23.7233  -37.6499   23.6650 H   0  0  0  0  0  0
  -26.0789  -31.5767   20.6080 H   0  0  0  0  0  0
  -26.8322  -30.8535   21.9992 H   0  0  0  0  0  0
  -28.1072  -29.0236   21.1732 H   0  0  0  0  0  0
  -25.9428  -25.9433   19.0297 H   0  0  0  0  0  0
  -23.9535  -27.3162   19.0336 H   0  0  0  0  0  0
  -23.7336  -30.6086   19.4064 H   0  0  0  0  0  0
  -22.7444  -29.2567   19.8654 H   0  0  0  0  0  0
  -25.1284  -36.1953   25.0822 H   0  0  0  0  0  0
  -20.9987  -28.3222   24.1419 H   0  0  0  0  0  0
  -20.5673  -26.2274   23.3604 H   0  0  0  0  0  0
  -21.6636  -26.7431   22.1206 H   0  0  0  0  0  0
  -19.6903  -25.6292   21.1236 H   0  0  0  0  0  0
  -19.6684  -27.3192   20.6749 H   0  0  0  0  0  0
  -17.4201  -26.6688   21.4024 H   0  0  0  0  0  0
  -18.0326  -26.0056   22.9022 H   0  0  0  0  0  0
  -19.7928  -30.7285   24.2259 H   0  0  0  0  0  0
  -17.4995  -31.6251   24.5175 H   0  0  0  0  0  0
  -15.5346  -30.2973   23.7643 H   0  0  0  0  0  0
  -15.8677  -28.0820   22.7046 H   0  0  0  0  0  0
  -24.5922  -30.7059   25.7810 H   0  0  0  0  0  0
  -24.8887  -32.2901   26.4854 H   0  0  0  0  0  0
  -25.8054  -30.8959   27.0262 H   0  0  0  0  0  0
  -26.2863  -29.6792   24.1172 H   0  0  0  0  0  0
  -27.3995  -29.7248   25.4655 H   0  0  0  0  0  0
  -27.8741  -30.4303   23.9373 H   0  0  0  0  0  0
  -27.2694  -33.3610   26.2092 H   0  0  0  0  0  0
  -28.3861  -32.6879   25.0305 H   0  0  0  0  0  0
  -28.0744  -31.8415   26.5392 H   0  0  0  0  0  0
  -28.2594  -38.0106   24.7521 H   0  0  0  0  0  0
  -28.1088  -36.2639   24.6251 H   0  0  0  0  0  0
  -27.2313  -37.1412   25.8865 H   0  0  0  0  0  0
  -20.9343  -29.8790   21.6947 H   0  0  0  0  0  0
  -26.0174  -38.2854   24.1420 H   0  0  0  0  0  0
  -31.4823  -20.2985   20.7691 H   0  0  0  0  0  0
  -27.9258  -25.2954   18.5826 H   0  0  0  0  0  0
  -28.8722  -15.3881   20.9569 H   0  0  0  0  0  0
  -29.5597  -21.8628   20.8919 H   0  0  0  0  0  0
  -29.2518  -25.0050   21.7002 H   0  0  0  0  0  0
  1 25  1  0  0  0
  1 30  2  0  0  0
  1 79  1  0  0  0
  2  3  1  0  0  0
  2 25  1  0  0  0
  2 85  1  0  0  0
  2 86  1  0  0  0
  3  4  1  0  0  0
  3 87  1  0  0  0
  3 88  1  0  0  0
  4  5  1  0  0  0
  4 89  1  0  0  0
  4 90  1  0  0  0
  5  6  1  0  0  0
  5 26  1  0  0  0
  5 91  1  0  0  0
  6 25  1  0  0  0
  6 92  1  0  0  0
  6 93  1  0  0  0
  7  8  2  0  0  0
  7 26  1  0  0  0
  7 29  1  0  0  0
  8  9  1  0  0  0
  8 22  1  0  0  0
  9 10  1  0  0  0
  9 27  2  0  0  0
 10 11  2  0  0  0
 10 15  1  0  0  0
 11 12  1  0  0  0
 11 94  1  0  0  0
 12 13  2  0  0  0
 12 95  1  0  0  0
 13 14  1  0  0  0
 13 31  1  0  0  0
 14 15  2  0  0  0
 14 96  1  0  0  0
 15 97  1  0  0  0
 16 17  2  0  0  0
 16 21  1  0  0  0
 16 31  1  0  0  0
 17 18  1  0  0  0
 17 98  1  0  0  0
 18 19  2  0  0  0
 18 99  1  0  0  0
 19 20  1  0  0  0
 19 24  1  0  0  0
 20 21  2  0  0  0
 20100  1  0  0  0
 21 23  1  0  0  0
 22 28  1  0  0  0
 22 32  2  0  0  0
 26 27  1  0  0  0
 28101  1  0  0  0
 28102  1  0  0  0
 29103  1  0  0  0
 29104  1  0  0  0
 33 34  1  0  0  0
 33 66  1  0  0  0
 33 70  2  0  0  0
 34 36  1  0  0  0
 34 59  1  0  0  0
 34105  1  0  0  0
 35 44  2  0  0  0
 35 45  1  0  0  0
 35 68  1  0  0  0
 36 56  1  0  0  0
 36106  1  0  0  0
 37 39  1  0  0  0
 37 47  1  0  0  0
 37 66  1  0  0  0
 37107  1  0  0  0
 38 43  2  0  0  0
 38 46  1  0  0  0
 38 47  1  0  0  0
 39 64  1  0  0  0
 39 67  2  0  0  0
 40 52  1  0  0  0
 40 53  2  0  0  0
 40 58  1  0  0  0
 41108  1  0  0  0
 41109  1  0  0  0
 41110  1  0  0  0
 41 48  1  0  0  0
 42 43  1  0  0  0
 42 66  1  0  0  0
 42111  1  0  0  0
 42112  1  0  0  0
 43 44  1  0  0  0
 44113  1  0  0  0
 45 46  2  0  0  0
 45114  1  0  0  0
 46115  1  0  0  0
 47116  1  0  0  0
 47117  1  0  0  0
 48 56  1  0  0  0
 48 65  1  0  0  0
 48118  1  0  0  0
 49 50  1  0  0  0
 49 53  1  0  0  0
 49 64  1  0  0  0
 49119  1  0  0  0
 50 51  1  0  0  0
 50120  1  0  0  0
 50121  1  0  0  0
 51 52  1  0  0  0
 51122  1  0  0  0
 51123  1  0  0  0
 52124  1  0  0  0
 52125  1  0  0  0
 53 54  1  0  0  0
 54 55  2  0  0  0
 54126  1  0  0  0
 55 57  1  0  0  0
 55127  1  0  0  0
 56 69  2  0  0  0
 57 58  2  0  0  0
 57128  1  0  0  0
 58129  1  0  0  0
 59 60  1  0  0  0
 59 61  1  0  0  0
 59 62  1  0  0  0
 60130  1  0  0  0
 60131  1  0  0  0
 60132  1  0  0  0
 61133  1  0  0  0
 61134  1  0  0  0
 61135  1  0  0  0
 62136  1  0  0  0
 62137  1  0  0  0
 62138  1  0  0  0
 63 65  1  0  0  0
 63139  1  0  0  0
 63140  1  0  0  0
 63141  1  0  0  0
 64142  1  0  0  0
 65143  1  0  0  0
 68 74  1  0  0  0
 71 72  2  0  0  0
 71 84  1  0  0  0
 71144  1  0  0  0
 72 75  1  0  0  0
 72 78  1  0  0  0
 73 78  2  0  0  0
 73 79  1  0  0  0
 73 84  1  0  0  0
 74 76  2  0  0  0
 74145  1  0  0  0
 75 80  1  0  0  0
 75 81  2  0  0  0
 76 77  1  0  0  0
 76 83  1  0  0  0
 77 80  1  0  0  0
 77 82  2  0  0  0
 79146  1  0  0  0
 80147  1  0  0  0
 83148  1  0  0  0
M  ISO  4   1 100  68 101  74 101  79 100
M  END
> <chiral flag>
0

> <version>
0

> <s_m_source_file>
/data/baiqing/PycharmProjects/Reinvent-master-3.2/result/LINK_invent/BTK/process_docking_weight1_custom_product_contain_oxygen_bond_distance_aromatic_linkinvent_7_9_3/rearranged_h_0180.sdf

> <i_m_source_file_index>
50

> <r_mmod_Potential_Energy-OPLS-2005>
-275.811859130859

> <r_mmod_Stretch_Energy-OPLS-2005>
54.223331451416

> <r_mmod_Bend_Energy-OPLS-2005>
111.516181945801

> <r_mmod_Torsional_Energy-OPLS-2005>
219.198181152344

> <r_mmod_Improper_Torsional_Energy-OPLS-2005>
6.42347574234009

> <r_mmod_Van_der_Waal_Energy-OPLS-2005>
144.196548461914

> <r_mmod_Electrostatic_Energy-OPLS-2005>
-576.02734375

> <r_mmod_Solvation_Energy-OPLS-2005>
-268.147064208984

> <b_mmod_Minimization_Converged-OPLS-2005>
0

> <r_mmod_RMS_Derivative-OPLS-2005>
1.65149700641632

$$$$
50
                    3D
 Structure written by MMmdl.
156164  0  0  1  0            999 V2000
  -30.6789  -14.4876   20.5832 C   0  0  0  0  0  0
  -30.4340  -12.3172   19.4277 C   0  0  0  0  0  0
  -29.5040  -12.5126   18.2108 C   0  0  0  0  0  0
  -28.0229  -12.3669   18.6152 C   0  0  0  0  0  0
  -27.6650  -13.1977   19.8751 C   0  0  2  0  0  0
  -28.7044  -12.9704   20.9973 C   0  0  0  0  0  0
  -25.2642  -13.8129   20.5686 C   0  0  0  0  0  0
  -24.1862  -13.0432   20.9151 C   0  0  0  0  0  0
  -24.6391  -11.6891   20.8700 C   0  0  0  0  0  0
  -23.9047  -10.4293   21.0380 C   0  0  0  0  0  0
  -24.3605   -9.4216   21.9160 C   0  0  0  0  0  0
  -23.6288   -8.2247   22.0743 C   0  0  0  0  0  0
  -22.4270   -8.0279   21.3541 C   0  0  0  0  0  0
  -21.9891   -9.0245   20.4641 C   0  0  0  0  0  0
  -22.7214  -10.2129   20.3040 C   0  0  0  0  0  0
  -21.6856   -6.0733   22.5283 C   0  0  0  0  0  0
  -21.4014   -6.5633   23.8215 C   0  0  0  0  0  0
  -21.3662   -5.6786   24.9175 C   0  0  0  0  0  0
  -21.6051   -4.3049   24.7223 C   0  0  0  0  0  0
  -21.8822   -3.8143   23.4344 C   0  0  0  0  0  0
  -21.9193   -4.6962   22.3404 C   0  0  0  0  0  0
  -22.7895  -13.5247   21.1820 C   0  0  0  0  0  0
  -22.1657   -4.2146   21.0979 F   0  0  0  0  0  0
  -21.5634   -3.4531   25.7734 F   0  0  0  0  0  0
  -30.0402  -13.2888   20.4604 N   0  0  0  0  0  0
  -26.3049  -12.9272   20.3347 N   0  0  0  0  0  0
  -25.9315  -11.6442   20.5729 N   0  0  0  0  0  0
  -22.0525  -12.8257   22.0390 N   0  0  0  0  0  0
  -25.4459  -15.1840   20.4183 N   0  0  0  0  0  0
  -31.7832  -14.7147   20.0766 O   0  0  0  0  0  0
  -21.6641   -6.8876   21.4244 O   0  0  0  0  0  0
  -22.3584  -14.5551   20.6664 O   0  0  0  0  0  0
  -24.6166  -31.8664   23.2116 C   0  0  0  0  0  0
  -25.9046  -32.4819   23.8406 C   0  0  1  0  0  0
  -27.2302  -27.4029   20.0911 C   0  0  0  0  0  0
  -25.5891  -33.8619   24.2319 N   0  0  0  0  0  0
  -23.4066  -30.4915   21.5538 C   0  0  2  0  0  0
  -24.8517  -28.9635   20.1128 C   0  0  0  0  0  0
  -22.7428  -29.4639   22.4999 C   0  0  0  0  0  0
  -18.0266  -28.1373   22.8499 C   0  0  0  0  0  0
  -24.1486  -36.7312   23.2639 C   0  0  0  0  0  0
  -25.9421  -30.8183   21.3767 C   0  0  0  0  0  0
  -26.0163  -29.4552   20.7151 C   0  0  0  0  0  0
  -27.2054  -28.6818   20.7046 C   0  0  0  0  0  0
  -26.0419  -26.9515   19.4609 C   0  0  0  0  0  0
  -24.8613  -27.7114   19.4827 C   0  0  0  0  0  0
  -23.6150  -29.8309   20.1671 C   0  0  0  0  0  0
  -25.4108  -36.3110   24.0335 C   0  0  1  0  0  0
  -20.5862  -28.3648   23.1323 C   0  0  2  0  0  0
  -20.6757  -26.9384   22.5420 C   0  0  0  0  0  0
  -19.5731  -26.6376   21.5220 C   0  0  0  0  0  0
  -18.1913  -26.7918   22.1637 C   0  0  0  0  0  0
  -19.1520  -28.8830   23.2905 C   0  0  0  0  0  0
  -18.9449  -30.1442   23.8907 C   0  0  0  0  0  0
  -17.6452  -30.6583   24.0562 C   0  0  0  0  0  0
  -25.9033  -34.9477   23.5124 C   0  0  0  0  0  0
  -16.5341  -29.9083   23.6334 C   0  0  0  0  0  0
  -16.7256  -28.6501   23.0354 C   0  0  0  0  0  0
  -26.4455  -31.6620   25.0756 C   0  0  0  0  0  0
  -25.3715  -31.3754   26.1508 C   0  0  0  0  0  0
  -27.0288  -30.3047   24.6190 C   0  0  0  0  0  0
  -27.6023  -32.4358   25.7509 C   0  0  0  0  0  0
  -27.5582  -37.1805   24.8459 C   0  0  0  0  0  0
  -21.4154  -29.3017   22.3734 N   0  0  0  0  0  0
  -26.4292  -37.3795   23.9410 N   0  0  0  0  0  0
  -24.6731  -31.0733   22.1043 N   0  0  0  0  0  0
  -23.4190  -28.8175   23.3040 O   0  0  0  0  0  0
  -28.3843  -26.6238   20.1373 O   0  0  0  0  0  0
  -26.5603  -34.8924   22.4689 O   0  0  0  0  0  0
  -23.5349  -32.1436   23.7482 O   0  0  0  0  0  0
  -28.3216  -18.0719   19.4153 C   0  0  0  0  0  0
  -29.1302  -19.0441   19.9882 C   0  0  0  0  0  0
  -29.6431  -16.6914   20.6653 C   0  0  0  0  0  0
  -29.5088  -21.4998   20.2961 C   0  0  0  0  0  0
  -30.7344  -24.6328   19.7957 C   0  0  0  0  0  0
  -28.9230  -22.7999   19.6930 C   0  0  0  0  0  0
  -28.2458  -25.2326   19.7634 C   0  0  0  0  0  0
  -29.3225  -24.2121   20.2406 C   0  0  2  0  0  0
  -27.1785  -18.2602   18.4353 C   0  0  0  0  0  0
  -28.5975  -16.7633   19.8466 N   0  0  0  0  0  0
  -28.9921  -20.3851   19.7407 N   0  0  0  0  0  0
  -29.9895  -15.4381   21.2392 N   0  0  0  0  0  0
  -30.3476  -21.5130   21.1980 O   0  0  0  0  0  0
  -27.1115  -19.5079   17.9635 F   0  0  0  0  0  0
  -27.3054  -17.4485   17.3844 F   0  0  0  0  0  0
  -26.0061  -17.9937   19.0098 F   0  0  0  0  0  0
  -30.3320  -18.2782   21.0395 S   0  0  0  0  0  0
  -31.4774  -12.4302   19.1285 H   0  0  0  0  0  0
  -30.3463  -11.3021   19.8171 H   0  0  0  0  0  0
  -29.7519  -11.7919   17.4308 H   0  0  0  0  0  0
  -29.6702  -13.5006   17.7782 H   0  0  0  0  0  0
  -27.8314  -11.3099   18.8028 H   0  0  0  0  0  0
  -27.3769  -12.6496   17.7824 H   0  0  0  0  0  0
  -27.7079  -14.2443   19.5791 H   0  0  0  0  0  0
  -28.6829  -11.9290   21.3209 H   0  0  0  0  0  0
  -28.4505  -13.5511   21.8842 H   0  0  0  0  0  0
  -25.2747   -9.5703   22.4731 H   0  0  0  0  0  0
  -24.0005   -7.4646   22.7460 H   0  0  0  0  0  0
  -21.0819   -8.8759   19.8951 H   0  0  0  0  0  0
  -22.3656  -10.9668   19.6153 H   0  0  0  0  0  0
  -21.2000   -7.6139   23.9719 H   0  0  0  0  0  0
  -21.1484   -6.0512   25.9084 H   0  0  0  0  0  0
  -22.0598   -2.7605   23.2842 H   0  0  0  0  0  0
  -22.4116  -11.9919   22.4797 H   0  0  0  0  0  0
  -21.1150  -13.1314   22.2581 H   0  0  0  0  0  0
  -24.6894  -15.8497   20.5281 H   0  0  0  0  0  0
  -26.3224  -15.6165   20.1540 H   0  0  0  0  0  0
  -26.7120  -32.5506   23.1166 H   0  0  0  0  0  0
  -25.0015  -33.9785   25.0444 H   0  0  0  0  0  0
  -22.6959  -31.3092   21.4177 H   0  0  0  0  0  0
  -23.3748  -35.9644   23.3309 H   0  0  0  0  0  0
  -24.3581  -36.8920   22.2053 H   0  0  0  0  0  0
  -23.7239  -37.6518   23.6650 H   0  0  0  0  0  0
  -26.0711  -31.5893   20.6160 H   0  0  0  0  0  0
  -26.8234  -30.8584   22.0054 H   0  0  0  0  0  0
  -28.0994  -29.0523   21.1863 H   0  0  0  0  0  0
  -25.9881  -26.0062   18.9422 H   0  0  0  0  0  0
  -23.9695  -27.3293   19.0047 H   0  0  0  0  0  0
  -23.7227  -30.6081   19.4098 H   0  0  0  0  0  0
  -22.7384  -29.2517   19.8713 H   0  0  0  0  0  0
  -25.1289  -36.1974   25.0829 H   0  0  0  0  0  0
  -20.9949  -28.3204   24.1446 H   0  0  0  0  0  0
  -20.5667  -26.2248   23.3602 H   0  0  0  0  0  0
  -21.6625  -26.7429   22.1203 H   0  0  0  0  0  0
  -19.6887  -25.6294   21.1231 H   0  0  0  0  0  0
  -19.6673  -27.3204   20.6766 H   0  0  0  0  0  0
  -17.4180  -26.6665   21.4042 H   0  0  0  0  0  0
  -18.0311  -26.0062   22.9035 H   0  0  0  0  0  0
  -19.7925  -30.7254   24.2281 H   0  0  0  0  0  0
  -17.5007  -31.6269   24.5153 H   0  0  0  0  0  0
  -15.5341  -30.2986   23.7658 H   0  0  0  0  0  0
  -15.8655  -28.0826   22.7065 H   0  0  0  0  0  0
  -24.5856  -30.7135   25.7850 H   0  0  0  0  0  0
  -24.8944  -32.2926   26.4975 H   0  0  0  0  0  0
  -25.8056  -30.8901   27.0260 H   0  0  0  0  0  0
  -26.2858  -29.6827   24.1185 H   0  0  0  0  0  0
  -27.3954  -29.7275   25.4688 H   0  0  0  0  0  0
  -27.8741  -30.4336   23.9427 H   0  0  0  0  0  0
  -27.2618  -33.3631   26.2132 H   0  0  0  0  0  0
  -28.3794  -32.6978   25.0317 H   0  0  0  0  0  0
  -28.0740  -31.8475   26.5390 H   0  0  0  0  0  0
  -28.2597  -38.0105   24.7520 H   0  0  0  0  0  0
  -28.1081  -36.2639   24.6267 H   0  0  0  0  0  0
  -27.2301  -37.1434   25.8861 H   0  0  0  0  0  0
  -20.9313  -29.8749   21.6969 H   0  0  0  0  0  0
  -26.0182  -38.2868   24.1428 H   0  0  0  0  0  0
  -31.4900  -23.9301   20.1483 H   0  0  0  0  0  0
  -30.9939  -25.6154   20.1906 H   0  0  0  0  0  0
  -30.8117  -24.6847   18.7093 H   0  0  0  0  0  0
  -27.8426  -22.6903   19.8007 H   0  0  0  0  0  0
  -29.1061  -22.7765   18.6180 H   0  0  0  0  0  0
  -27.3091  -24.8533   20.1740 H   0  0  0  0  0  0
  -28.1669  -25.1833   18.6759 H   0  0  0  0  0  0
  -29.3030  -24.1848   21.3311 H   0  0  0  0  0  0
  -28.3131  -20.5992   19.0202 H   0  0  0  0  0  0
  -29.2256  -15.0271   21.7504 H   0  0  0  0  0  0
  1 25  1  0  0  0
  1 30  2  0  0  0
  1 82  1  0  0  0
  2  3  1  0  0  0
  2 25  1  0  0  0
  2 88  1  0  0  0
  2 89  1  0  0  0
  3  4  1  0  0  0
  3 90  1  0  0  0
  3 91  1  0  0  0
  4  5  1  0  0  0
  4 92  1  0  0  0
  4 93  1  0  0  0
  5  6  1  0  0  0
  5 26  1  0  0  0
  5 94  1  0  0  0
  6 25  1  0  0  0
  6 95  1  0  0  0
  6 96  1  0  0  0
  7  8  2  0  0  0
  7 26  1  0  0  0
  7 29  1  0  0  0
  8  9  1  0  0  0
  8 22  1  0  0  0
  9 10  1  0  0  0
  9 27  2  0  0  0
 10 11  2  0  0  0
 10 15  1  0  0  0
 11 12  1  0  0  0
 11 97  1  0  0  0
 12 13  2  0  0  0
 12 98  1  0  0  0
 13 14  1  0  0  0
 13 31  1  0  0  0
 14 15  2  0  0  0
 14 99  1  0  0  0
 15100  1  0  0  0
 16 17  2  0  0  0
 16 21  1  0  0  0
 16 31  1  0  0  0
 17 18  1  0  0  0
 17101  1  0  0  0
 18 19  2  0  0  0
 18102  1  0  0  0
 19 20  1  0  0  0
 19 24  1  0  0  0
 20 21  2  0  0  0
 20103  1  0  0  0
 21 23  1  0  0  0
 22 28  1  0  0  0
 22 32  2  0  0  0
 26 27  1  0  0  0
 28104  1  0  0  0
 28105  1  0  0  0
 29106  1  0  0  0
 29107  1  0  0  0
 33 34  1  0  0  0
 33 66  1  0  0  0
 33 70  2  0  0  0
 34 36  1  0  0  0
 34 59  1  0  0  0
 34108  1  0  0  0
 35 44  2  0  0  0
 35 45  1  0  0  0
 35 68  1  0  0  0
 36 56  1  0  0  0
 36109  1  0  0  0
 37 39  1  0  0  0
 37 47  1  0  0  0
 37 66  1  0  0  0
 37110  1  0  0  0
 38 43  2  0  0  0
 38 46  1  0  0  0
 38 47  1  0  0  0
 39 64  1  0  0  0
 39 67  2  0  0  0
 40 52  1  0  0  0
 40 53  2  0  0  0
 40 58  1  0  0  0
 41111  1  0  0  0
 41112  1  0  0  0
 41113  1  0  0  0
 41 48  1  0  0  0
 42 43  1  0  0  0
 42 66  1  0  0  0
 42114  1  0  0  0
 42115  1  0  0  0
 43 44  1  0  0  0
 44116  1  0  0  0
 45 46  2  0  0  0
 45117  1  0  0  0
 46118  1  0  0  0
 47119  1  0  0  0
 47120  1  0  0  0
 48 56  1  0  0  0
 48 65  1  0  0  0
 48121  1  0  0  0
 49 50  1  0  0  0
 49 53  1  0  0  0
 49 64  1  0  0  0
 49122  1  0  0  0
 50 51  1  0  0  0
 50123  1  0  0  0
 50124  1  0  0  0
 51 52  1  0  0  0
 51125  1  0  0  0
 51126  1  0  0  0
 52127  1  0  0  0
 52128  1  0  0  0
 53 54  1  0  0  0
 54 55  2  0  0  0
 54129  1  0  0  0
 55 57  1  0  0  0
 55130  1  0  0  0
 56 69  2  0  0  0
 57 58  2  0  0  0
 57131  1  0  0  0
 58132  1  0  0  0
 59 60  1  0  0  0
 59 61  1  0  0  0
 59 62  1  0  0  0
 60133  1  0  0  0
 60134  1  0  0  0
 60135  1  0  0  0
 61136  1  0  0  0
 61137  1  0  0  0
 61138  1  0  0  0
 62139  1  0  0  0
 62140  1  0  0  0
 62141  1  0  0  0
 63 65  1  0  0  0
 63142  1  0  0  0
 63143  1  0  0  0
 63144  1  0  0  0
 64145  1  0  0  0
 65146  1  0  0  0
 68 77  1  0  0  0
 71 72  2  0  0  0
 71 79  1  0  0  0
 71 80  1  0  0  0
 72 81  1  0  0  0
 72 87  1  0  0  0
 73 80  2  0  0  0
 73 82  1  0  0  0
 73 87  1  0  0  0
 74 76  1  0  0  0
 74 81  1  0  0  0
 74 83  2  0  0  0
 75147  1  0  0  0
 75148  1  0  0  0
 75149  1  0  0  0
 75 78  1  0  0  0
 76 78  1  0  0  0
 76150  1  0  0  0
 76151  1  0  0  0
 77 78  1  0  0  0
 77152  1  0  0  0
 77153  1  0  0  0
 78154  1  0  0  0
 79 84  1  0  0  0
 79 85  1  0  0  0
 79 86  1  0  0  0
 81155  1  0  0  0
 82156  1  0  0  0
M  ISO  4   1 100  68 101  77 101  82 100
M  END
> <chiral flag>
0

> <version>
0

> <s_m_source_file>
/data/baiqing/PycharmProjects/Reinvent-master-3.2/result/LINK_invent/BTK/process_docking_weight1_custom_product_contain_oxygen_bond_distance_aromatic_linkinvent_7_9_3/rearranged_h_0180.sdf

> <i_m_source_file_index>
51

> <r_mmod_Potential_Energy-OPLS-2005>
-15.9376907348633

> <r_mmod_Stretch_Energy-OPLS-2005>
42.2099456787109

> <r_mmod_Bend_Energy-OPLS-2005>
136.774002075195

> <r_mmod_Torsional_Energy-OPLS-2005>
228.403167724609

> <r_mmod_Improper_Torsional_Energy-OPLS-2005>
6.79974222183228

> <r_mmod_Van_der_Waal_Energy-OPLS-2005>
129.973419189453

> <r_mmod_Electrostatic_Energy-OPLS-2005>
-349.058837890625

> <r_mmod_Solvation_Energy-OPLS-2005>
-228.052749633789

> <b_mmod_Minimization_Converged-OPLS-2005>
0

> <r_mmod_RMS_Derivative-OPLS-2005>
1.15552866458893

$$$$
51
                    3D
 Structure written by MMmdl.
154162  0  0  1  0            999 V2000
  -30.6521  -14.5909   20.5044 C   0  0  0  0  0  0
  -30.4314  -12.3651   19.4386 C   0  0  0  0  0  0
  -29.5035  -12.5016   18.2127 C   0  0  0  0  0  0
  -28.0222  -12.3573   18.6191 C   0  0  0  0  0  0
  -27.6511  -13.2175   19.8583 C   0  0  2  0  0  0
  -28.6985  -13.0632   20.9844 C   0  0  0  0  0  0
  -25.2553  -13.8166   20.5686 C   0  0  0  0  0  0
  -24.1833  -13.0431   20.9199 C   0  0  0  0  0  0
  -24.6410  -11.6908   20.8732 C   0  0  0  0  0  0
  -23.9093  -10.4285   21.0409 C   0  0  0  0  0  0
  -24.3639   -9.4203   21.9186 C   0  0  0  0  0  0
  -23.6310   -8.2247   22.0750 C   0  0  0  0  0  0
  -22.4298   -8.0287   21.3540 C   0  0  0  0  0  0
  -21.9935   -9.0262   20.4643 C   0  0  0  0  0  0
  -22.7270  -10.2134   20.3055 C   0  0  0  0  0  0
  -21.6851   -6.0743   22.5282 C   0  0  0  0  0  0
  -21.4016   -6.5652   23.8221 C   0  0  0  0  0  0
  -21.3653   -5.6800   24.9179 C   0  0  0  0  0  0
  -21.6041   -4.3063   24.7226 C   0  0  0  0  0  0
  -21.8817   -3.8159   23.4352 C   0  0  0  0  0  0
  -21.9199   -4.6973   22.3409 C   0  0  0  0  0  0
  -22.7857  -13.5217   21.1872 C   0  0  0  0  0  0
  -22.1659   -4.2173   21.0978 F   0  0  0  0  0  0
  -21.5630   -3.4543   25.7726 F   0  0  0  0  0  0
  -30.0131  -13.3866   20.4115 N   0  0  0  0  0  0
  -26.2984  -12.9353   20.3300 N   0  0  0  0  0  0
  -25.9339  -11.6510   20.5753 N   0  0  0  0  0  0
  -22.0496  -12.8186   22.0409 N   0  0  0  0  0  0
  -25.4239  -15.1896   20.4103 N   0  0  0  0  0  0
  -31.8364  -14.7183   20.1733 O   0  0  0  0  0  0
  -21.6639   -6.8892   21.4253 O   0  0  0  0  0  0
  -22.3539  -14.5526   20.6726 O   0  0  0  0  0  0
  -24.6189  -31.8654   23.2082 C   0  0  0  0  0  0
  -25.9071  -32.4814   23.8380 C   0  0  1  0  0  0
  -27.2357  -27.3905   20.1192 C   0  0  0  0  0  0
  -25.5942  -33.8609   24.2318 N   0  0  0  0  0  0
  -23.4096  -30.4851   21.5508 C   0  0  2  0  0  0
  -24.8579  -28.9386   20.1254 C   0  0  0  0  0  0
  -22.7427  -29.4656   22.5026 C   0  0  0  0  0  0
  -18.0261  -28.1384   22.8496 C   0  0  0  0  0  0
  -24.1486  -36.7283   23.2643 C   0  0  0  0  0  0
  -25.9380  -30.8212   21.3631 C   0  0  0  0  0  0
  -26.0192  -29.4436   20.7254 C   0  0  0  0  0  0
  -27.2120  -28.6754   20.7226 C   0  0  0  0  0  0
  -26.0601  -26.9114   19.5103 C   0  0  0  0  0  0
  -24.8742  -27.6726   19.5154 C   0  0  0  0  0  0
  -23.6198  -29.8082   20.1688 C   0  0  0  0  0  0
  -25.4106  -36.3083   24.0338 C   0  0  1  0  0  0
  -20.5861  -28.3671   23.1313 C   0  0  2  0  0  0
  -20.6768  -26.9414   22.5408 C   0  0  0  0  0  0
  -19.5744  -26.6378   21.5215 C   0  0  0  0  0  0
  -18.1910  -26.7921   22.1620 C   0  0  0  0  0  0
  -19.1515  -28.8839   23.2905 C   0  0  0  0  0  0
  -18.9445  -30.1438   23.8925 C   0  0  0  0  0  0
  -17.6451  -30.6595   24.0556 C   0  0  0  0  0  0
  -25.9040  -34.9458   23.5106 C   0  0  0  0  0  0
  -16.5343  -29.9094   23.6334 C   0  0  0  0  0  0
  -16.7257  -28.6501   23.0376 C   0  0  0  0  0  0
  -26.4491  -31.6595   25.0718 C   0  0  0  0  0  0
  -25.3741  -31.3714   26.1459 C   0  0  0  0  0  0
  -27.0330  -30.3043   24.6081 C   0  0  0  0  0  0
  -27.6064  -32.4306   25.7478 C   0  0  0  0  0  0
  -27.5560  -37.1797   24.8457 C   0  0  0  0  0  0
  -21.4157  -29.3043   22.3734 N   0  0  0  0  0  0
  -26.4274  -37.3773   23.9410 N   0  0  0  0  0  0
  -24.6743  -31.0722   22.1003 N   0  0  0  0  0  0
  -23.4161  -28.8196   23.3091 O   0  0  0  0  0  0
  -28.3873  -26.6289   20.0240 O   0  0  0  0  0  0
  -26.5559  -34.8896   22.4648 O   0  0  0  0  0  0
  -23.5376  -32.1440   23.7456 O   0  0  0  0  0  0
  -30.4459  -19.5818   20.8477 C   0  0  0  0  0  0
  -31.4052  -18.8723   21.5578 C   0  0  0  0  0  0
  -30.1933  -17.0664   20.8375 C   0  0  0  0  0  0
  -30.4223  -21.0451   20.4499 C   0  0  0  0  0  0
  -28.2542  -24.1822   20.7279 C   0  0  0  0  0  0
  -28.6497  -25.6576   21.0666 C   0  0  0  0  0  0
  -29.2805  -23.2491   19.9994 C   0  0  2  0  0  0
  -29.1281  -23.3142   18.4609 C   0  0  0  0  0  0
  -31.2435  -17.4797   21.5539 N   0  0  0  0  0  0
  -32.5052  -19.3899   22.2487 N   0  0  0  0  0  0
  -29.8467  -15.6689   20.7157 N   0  0  0  0  0  0
  -29.3058  -21.8169   20.4660 N   0  0  0  0  0  0
  -31.4992  -21.5573   20.1396 O   0  0  0  0  0  0
  -27.1469  -23.7670   21.0885 O   0  0  0  0  0  0
  -30.1375  -22.6993   17.8429 F   0  0  0  0  0  0
  -29.1051  -24.5792   18.0381 F   0  0  0  0  0  0
  -27.9867  -22.7329   18.0862 F   0  0  0  0  0  0
  -29.2670  -18.4459   20.1758 S   0  0  0  0  0  0
  -31.4761  -12.4743   19.1414 H   0  0  0  0  0  0
  -30.3493  -11.3694   19.8763 H   0  0  0  0  0  0
  -29.7626  -11.7551   17.4602 H   0  0  0  0  0  0
  -29.6600  -13.4728   17.7428 H   0  0  0  0  0  0
  -27.8378  -11.3024   18.8296 H   0  0  0  0  0  0
  -27.3767  -12.6149   17.7789 H   0  0  0  0  0  0
  -27.6676  -14.2541   19.5229 H   0  0  0  0  0  0
  -28.7006  -12.0431   21.3684 H   0  0  0  0  0  0
  -28.4611  -13.7051   21.8346 H   0  0  0  0  0  0
  -25.2783   -9.5670   22.4761 H   0  0  0  0  0  0
  -24.0018   -7.4631   22.7465 H   0  0  0  0  0  0
  -21.0867   -8.8779   19.8941 H   0  0  0  0  0  0
  -22.3739  -10.9671   19.6156 H   0  0  0  0  0  0
  -21.2000   -7.6164   23.9734 H   0  0  0  0  0  0
  -21.1475   -6.0524   25.9077 H   0  0  0  0  0  0
  -22.0603   -2.7634   23.2838 H   0  0  0  0  0  0
  -22.4115  -11.9831   22.4755 H   0  0  0  0  0  0
  -21.1108  -13.1190   22.2614 H   0  0  0  0  0  0
  -24.6515  -15.8368   20.5262 H   0  0  0  0  0  0
  -26.2579  -15.6349   20.0521 H   0  0  0  0  0  0
  -26.7154  -32.5513   23.1152 H   0  0  0  0  0  0
  -25.0146  -33.9782   25.0505 H   0  0  0  0  0  0
  -22.7007  -31.3023   21.4029 H   0  0  0  0  0  0
  -23.3756  -35.9612   23.3284 H   0  0  0  0  0  0
  -24.3575  -36.8927   22.2063 H   0  0  0  0  0  0
  -23.7217  -37.6476   23.6661 H   0  0  0  0  0  0
  -26.0341  -31.5762   20.5826 H   0  0  0  0  0  0
  -26.8328  -30.8950   21.9704 H   0  0  0  0  0  0
  -28.1115  -29.0669   21.1757 H   0  0  0  0  0  0
  -26.0645  -25.9461   19.0229 H   0  0  0  0  0  0
  -23.9814  -27.2817   19.0453 H   0  0  0  0  0  0
  -23.7214  -30.5762   19.4013 H   0  0  0  0  0  0
  -22.7484  -29.2204   19.8780 H   0  0  0  0  0  0
  -25.1291  -36.1929   25.0831 H   0  0  0  0  0  0
  -20.9932  -28.3219   24.1442 H   0  0  0  0  0  0
  -20.5670  -26.2291   23.3612 H   0  0  0  0  0  0
  -21.6633  -26.7462   22.1188 H   0  0  0  0  0  0
  -19.6910  -25.6278   21.1260 H   0  0  0  0  0  0
  -19.6682  -27.3189   20.6740 H   0  0  0  0  0  0
  -17.4189  -26.6694   21.4004 H   0  0  0  0  0  0
  -18.0302  -26.0055   22.8999 H   0  0  0  0  0  0
  -19.7924  -30.7239   24.2326 H   0  0  0  0  0  0
  -17.5009  -31.6289   24.5129 H   0  0  0  0  0  0
  -15.5344  -30.3013   23.7635 H   0  0  0  0  0  0
  -15.8650  -28.0811   22.7130 H   0  0  0  0  0  0
  -24.5877  -30.7123   25.7750 H   0  0  0  0  0  0
  -24.8991  -32.2902   26.4912 H   0  0  0  0  0  0
  -25.8068  -30.8825   27.0199 H   0  0  0  0  0  0
  -26.2881  -29.6804   24.1121 H   0  0  0  0  0  0
  -27.4128  -29.7260   25.4509 H   0  0  0  0  0  0
  -27.8688  -30.4386   23.9205 H   0  0  0  0  0  0
  -27.2710  -33.3633   26.2010 H   0  0  0  0  0  0
  -28.3897  -32.6823   25.0313 H   0  0  0  0  0  0
  -28.0699  -31.8454   26.5434 H   0  0  0  0  0  0
  -28.2560  -38.0104   24.7509 H   0  0  0  0  0  0
  -28.1076  -36.2635   24.6281 H   0  0  0  0  0  0
  -27.2278  -37.1435   25.8859 H   0  0  0  0  0  0
  -20.9329  -29.8766   21.6945 H   0  0  0  0  0  0
  -26.0157  -38.2847   24.1436 H   0  0  0  0  0  0
  -29.7156  -25.6895   21.2924 H   0  0  0  0  0  0
  -28.1427  -25.9621   21.9827 H   0  0  0  0  0  0
  -30.2549  -23.6846   20.2203 H   0  0  0  0  0  0
  -32.8070  -20.3401   22.0535 H   0  0  0  0  0  0
  -33.2496  -18.7639   22.5392 H   0  0  0  0  0  0
  -28.8605  -15.4672   20.7141 H   0  0  0  0  0  0
  -28.4227  -21.4095   20.7404 H   0  0  0  0  0  0
  1 25  1  0  0  0
  1 30  2  0  0  0
  1 81  1  0  0  0
  2  3  1  0  0  0
  2 25  1  0  0  0
  2 89  1  0  0  0
  2 90  1  0  0  0
  3  4  1  0  0  0
  3 91  1  0  0  0
  3 92  1  0  0  0
  4  5  1  0  0  0
  4 93  1  0  0  0
  4 94  1  0  0  0
  5  6  1  0  0  0
  5 26  1  0  0  0
  5 95  1  0  0  0
  6 25  1  0  0  0
  6 96  1  0  0  0
  6 97  1  0  0  0
  7  8  2  0  0  0
  7 26  1  0  0  0
  7 29  1  0  0  0
  8  9  1  0  0  0
  8 22  1  0  0  0
  9 10  1  0  0  0
  9 27  2  0  0  0
 10 11  2  0  0  0
 10 15  1  0  0  0
 11 12  1  0  0  0
 11 98  1  0  0  0
 12 13  2  0  0  0
 12 99  1  0  0  0
 13 14  1  0  0  0
 13 31  1  0  0  0
 14 15  2  0  0  0
 14100  1  0  0  0
 15101  1  0  0  0
 16 17  2  0  0  0
 16 21  1  0  0  0
 16 31  1  0  0  0
 17 18  1  0  0  0
 17102  1  0  0  0
 18 19  2  0  0  0
 18103  1  0  0  0
 19 20  1  0  0  0
 19 24  1  0  0  0
 20 21  2  0  0  0
 20104  1  0  0  0
 21 23  1  0  0  0
 22 28  1  0  0  0
 22 32  2  0  0  0
 26 27  1  0  0  0
 28105  1  0  0  0
 28106  1  0  0  0
 29107  1  0  0  0
 29108  1  0  0  0
 33 34  1  0  0  0
 33 66  1  0  0  0
 33 70  2  0  0  0
 34 36  1  0  0  0
 34 59  1  0  0  0
 34109  1  0  0  0
 35 44  2  0  0  0
 35 45  1  0  0  0
 35 68  1  0  0  0
 36 56  1  0  0  0
 36110  1  0  0  0
 37 39  1  0  0  0
 37 47  1  0  0  0
 37 66  1  0  0  0
 37111  1  0  0  0
 38 43  2  0  0  0
 38 46  1  0  0  0
 38 47  1  0  0  0
 39 64  1  0  0  0
 39 67  2  0  0  0
 40 52  1  0  0  0
 40 53  2  0  0  0
 40 58  1  0  0  0
 41112  1  0  0  0
 41113  1  0  0  0
 41114  1  0  0  0
 41 48  1  0  0  0
 42 43  1  0  0  0
 42 66  1  0  0  0
 42115  1  0  0  0
 42116  1  0  0  0
 43 44  1  0  0  0
 44117  1  0  0  0
 45 46  2  0  0  0
 45118  1  0  0  0
 46119  1  0  0  0
 47120  1  0  0  0
 47121  1  0  0  0
 48 56  1  0  0  0
 48 65  1  0  0  0
 48122  1  0  0  0
 49 50  1  0  0  0
 49 53  1  0  0  0
 49 64  1  0  0  0
 49123  1  0  0  0
 50 51  1  0  0  0
 50124  1  0  0  0
 50125  1  0  0  0
 51 52  1  0  0  0
 51126  1  0  0  0
 51127  1  0  0  0
 52128  1  0  0  0
 52129  1  0  0  0
 53 54  1  0  0  0
 54 55  2  0  0  0
 54130  1  0  0  0
 55 57  1  0  0  0
 55131  1  0  0  0
 56 69  2  0  0  0
 57 58  2  0  0  0
 57132  1  0  0  0
 58133  1  0  0  0
 59 60  1  0  0  0
 59 61  1  0  0  0
 59 62  1  0  0  0
 60134  1  0  0  0
 60135  1  0  0  0
 60136  1  0  0  0
 61137  1  0  0  0
 61138  1  0  0  0
 61139  1  0  0  0
 62140  1  0  0  0
 62141  1  0  0  0
 62142  1  0  0  0
 63 65  1  0  0  0
 63143  1  0  0  0
 63144  1  0  0  0
 63145  1  0  0  0
 64146  1  0  0  0
 65147  1  0  0  0
 68 76  1  0  0  0
 71 72  2  0  0  0
 71 74  1  0  0  0
 71 88  1  0  0  0
 72 79  1  0  0  0
 72 80  1  0  0  0
 73 79  2  0  0  0
 73 81  1  0  0  0
 73 88  1  0  0  0
 74 82  1  0  0  0
 74 83  2  0  0  0
 75 76  1  0  0  0
 75 77  1  0  0  0
 75 84  2  0  0  0
 76148  1  0  0  0
 76149  1  0  0  0
 77 78  1  0  0  0
 77 82  1  0  0  0
 77150  1  0  0  0
 78 85  1  0  0  0
 78 86  1  0  0  0
 78 87  1  0  0  0
 80151  1  0  0  0
 80152  1  0  0  0
 81153  1  0  0  0
 82154  1  0  0  0
M  ISO  4   1 100  68 101  76 101  81 100
M  END
> <chiral flag>
0

> <version>
0

> <s_m_source_file>
/data/baiqing/PycharmProjects/Reinvent-master-3.2/result/LINK_invent/BTK/process_docking_weight1_custom_product_contain_oxygen_bond_distance_aromatic_linkinvent_7_9_3/rearranged_h_0180.sdf

> <i_m_source_file_index>
52

> <r_mmod_Potential_Energy-OPLS-2005>
-176.446136474609

> <r_mmod_Stretch_Energy-OPLS-2005>
53.8226127624512

> <r_mmod_Bend_Energy-OPLS-2005>
127.393798828125

> <r_mmod_Torsional_Energy-OPLS-2005>
277.12109375

> <r_mmod_Improper_Torsional_Energy-OPLS-2005>
10.0776195526123

> <r_mmod_Van_der_Waal_Energy-OPLS-2005>
119.554473876953

> <r_mmod_Electrostatic_Energy-OPLS-2005>
-536.341125488281

> <r_mmod_Solvation_Energy-OPLS-2005>
-256.054595947266

> <b_mmod_Minimization_Converged-OPLS-2005>
0

> <r_mmod_RMS_Derivative-OPLS-2005>
2.93704843521118

$$$$
52
                    3D
 Structure written by MMmdl.
156164  0  0  1  0            999 V2000
  -30.5679  -14.7896   20.4499 C   0  0  0  0  0  0
  -30.4422  -12.4821   19.4618 C   0  0  0  0  0  0
  -29.5077  -12.4917   18.2318 C   0  0  0  0  0  0
  -28.0369  -12.3092   18.6544 C   0  0  0  0  0  0
  -27.6384  -13.2229   19.8435 C   0  0  2  0  0  0
  -28.6883  -13.1785   20.9736 C   0  0  0  0  0  0
  -25.2514  -13.8195   20.5673 C   0  0  0  0  0  0
  -24.1816  -13.0440   20.9217 C   0  0  0  0  0  0
  -24.6406  -11.6909   20.8759 C   0  0  0  0  0  0
  -23.9095  -10.4280   21.0396 C   0  0  0  0  0  0
  -24.3654   -9.4197   21.9164 C   0  0  0  0  0  0
  -23.6310   -8.2246   22.0748 C   0  0  0  0  0  0
  -22.4289   -8.0299   21.3559 C   0  0  0  0  0  0
  -21.9940   -9.0268   20.4644 C   0  0  0  0  0  0
  -22.7279  -10.2136   20.3036 C   0  0  0  0  0  0
  -21.6863   -6.0749   22.5274 C   0  0  0  0  0  0
  -21.4015   -6.5647   23.8214 C   0  0  0  0  0  0
  -21.3650   -5.6782   24.9171 C   0  0  0  0  0  0
  -21.6054   -4.3051   24.7202 C   0  0  0  0  0  0
  -21.8831   -3.8156   23.4320 C   0  0  0  0  0  0
  -21.9197   -4.6975   22.3386 C   0  0  0  0  0  0
  -22.7838  -13.5223   21.1861 C   0  0  0  0  0  0
  -22.1674   -4.2174   21.0956 F   0  0  0  0  0  0
  -21.5615   -3.4530   25.7704 F   0  0  0  0  0  0
  -29.9743  -13.5476   20.3721 N   0  0  0  0  0  0
  -26.2925  -12.9372   20.3272 N   0  0  0  0  0  0
  -25.9336  -11.6535   20.5772 N   0  0  0  0  0  0
  -22.0510  -12.8194   22.0422 N   0  0  0  0  0  0
  -25.4173  -15.1905   20.4030 N   0  0  0  0  0  0
  -31.7812  -14.8985   20.2462 O   0  0  0  0  0  0
  -21.6661   -6.8898   21.4242 O   0  0  0  0  0  0
  -22.3525  -14.5526   20.6694 O   0  0  0  0  0  0
  -24.6332  -31.8563   23.1991 C   0  0  0  0  0  0
  -25.9141  -32.4789   23.8342 C   0  0  1  0  0  0
  -27.2045  -27.2402   20.1200 C   0  0  0  0  0  0
  -25.5963  -33.8596   24.2283 N   0  0  0  0  0  0
  -23.4283  -30.4864   21.5424 C   0  0  2  0  0  0
  -24.8726  -28.9378   20.1089 C   0  0  0  0  0  0
  -22.7523  -29.4605   22.4854 C   0  0  0  0  0  0
  -18.0308  -28.1397   22.8491 C   0  0  0  0  0  0
  -24.1496  -36.7273   23.2627 C   0  0  0  0  0  0
  -25.9788  -30.7657   21.3780 C   0  0  0  0  0  0
  -26.0487  -29.3880   20.7173 C   0  0  0  0  0  0
  -27.2188  -28.5547   20.7084 C   0  0  0  0  0  0
  -25.9888  -26.8618   19.5005 C   0  0  0  0  0  0
  -24.8481  -27.6825   19.4890 C   0  0  0  0  0  0
  -23.6504  -29.8344   20.1550 C   0  0  0  0  0  0
  -25.4123  -36.3080   24.0329 C   0  0  1  0  0  0
  -20.5911  -28.3704   23.1270 C   0  0  2  0  0  0
  -20.6806  -26.9420   22.5394 C   0  0  0  0  0  0
  -19.5781  -26.6387   21.5202 C   0  0  0  0  0  0
  -18.1958  -26.7948   22.1611 C   0  0  0  0  0  0
  -19.1563  -28.8861   23.2899 C   0  0  0  0  0  0
  -18.9486  -30.1458   23.8933 C   0  0  0  0  0  0
  -17.6488  -30.6605   24.0557 C   0  0  0  0  0  0
  -25.9061  -34.9454   23.5085 C   0  0  0  0  0  0
  -16.5380  -29.9110   23.6333 C   0  0  0  0  0  0
  -16.7288  -28.6516   23.0370 C   0  0  0  0  0  0
  -26.4506  -31.6622   25.0728 C   0  0  0  0  0  0
  -25.3732  -31.3736   26.1434 C   0  0  0  0  0  0
  -27.0318  -30.3061   24.6146 C   0  0  0  0  0  0
  -27.6100  -32.4313   25.7496 C   0  0  0  0  0  0
  -27.5582  -37.1791   24.8475 C   0  0  0  0  0  0
  -21.4215  -29.3052   22.3639 N   0  0  0  0  0  0
  -26.4292  -37.3789   23.9418 N   0  0  0  0  0  0
  -24.7006  -31.0526   22.0971 N   0  0  0  0  0  0
  -23.4238  -28.8099   23.2898 O   0  0  0  0  0  0
  -28.2976  -26.3305   20.1653 O   0  0  0  0  0  0
  -26.5601  -34.8918   22.4630 O   0  0  0  0  0  0
  -23.5477  -32.1364   23.7297 O   0  0  0  0  0  0
  -29.2306  -19.6576   22.3395 C   0  0  0  0  0  0
  -29.3489  -18.4494   23.0537 C   0  0  0  0  0  0
  -29.5903  -17.2440   22.3615 C   0  0  0  0  0  0
  -29.3778  -19.6983   20.9379 C   0  0  0  0  0  0
  -29.7280  -17.2469   20.9553 C   0  0  0  0  0  0
  -28.5877  -22.1735   20.6331 C   0  0  0  0  0  0
  -29.1843  -18.4520   24.5623 C   0  0  0  0  0  0
  -28.1439  -24.7119   18.3077 C   0  0  0  0  0  0
  -29.0652  -23.7078   20.4716 C   0  0  0  0  0  0
  -28.1003  -24.8592   19.8444 C   0  0  1  0  0  0
  -29.6242  -18.4794   20.2811 N   0  0  0  0  0  0
  -29.3945  -21.0695   20.3551 N   0  0  0  0  0  0
  -29.7198  -15.8896   20.3556 N   0  0  0  0  0  0
  -27.4351  -21.9998   21.0409 O   0  0  0  0  0  0
  -29.6278  -16.0733   23.0471 F   0  0  0  0  0  0
  -31.4763  -12.6356   19.1517 H   0  0  0  0  0  0
  -30.4182  -11.5128   19.9622 H   0  0  0  0  0  0
  -29.7932  -11.6996   17.5383 H   0  0  0  0  0  0
  -29.6215  -13.4323   17.6880 H   0  0  0  0  0  0
  -27.9087  -11.2628   18.9370 H   0  0  0  0  0  0
  -27.3757  -12.4782   17.8038 H   0  0  0  0  0  0
  -27.6244  -14.2363   19.4448 H   0  0  0  0  0  0
  -28.7411  -12.1857   21.4203 H   0  0  0  0  0  0
  -28.4205  -13.8665   21.7771 H   0  0  0  0  0  0
  -25.2811   -9.5671   22.4746 H   0  0  0  0  0  0
  -24.0030   -7.4631   22.7466 H   0  0  0  0  0  0
  -21.0883   -8.8779   19.8935 H   0  0  0  0  0  0
  -22.3746  -10.9676   19.6144 H   0  0  0  0  0  0
  -21.2018   -7.6150   23.9722 H   0  0  0  0  0  0
  -21.1464   -6.0510   25.9078 H   0  0  0  0  0  0
  -22.0622   -2.7621   23.2798 H   0  0  0  0  0  0
  -22.4187  -11.9842   22.4733 H   0  0  0  0  0  0
  -21.1127  -13.1176   22.2661 H   0  0  0  0  0  0
  -24.6343  -15.8273   20.4970 H   0  0  0  0  0  0
  -26.2308  -15.6343   19.9992 H   0  0  0  0  0  0
  -26.7180  -32.5443   23.1059 H   0  0  0  0  0  0
  -25.0248  -33.9775   25.0516 H   0  0  0  0  0  0
  -22.7204  -31.3077   21.4022 H   0  0  0  0  0  0
  -23.3794  -35.9577   23.3305 H   0  0  0  0  0  0
  -24.3567  -36.8878   22.2035 H   0  0  0  0  0  0
  -23.7221  -37.6462   23.6644 H   0  0  0  0  0  0
  -26.1110  -31.5249   20.6059 H   0  0  0  0  0  0
  -26.8557  -30.8168   22.0103 H   0  0  0  0  0  0
  -28.1201  -28.8971   21.1968 H   0  0  0  0  0  0
  -25.8623  -25.8999   19.0305 H   0  0  0  0  0  0
  -23.9419  -27.3305   19.0155 H   0  0  0  0  0  0
  -23.7920  -30.6191   19.4114 H   0  0  0  0  0  0
  -22.7659  -29.2858   19.8329 H   0  0  0  0  0  0
  -25.1298  -36.1913   25.0828 H   0  0  0  0  0  0
  -21.0024  -28.3263   24.1383 H   0  0  0  0  0  0
  -20.5721  -26.2289   23.3584 H   0  0  0  0  0  0
  -21.6676  -26.7447   22.1171 H   0  0  0  0  0  0
  -19.6947  -25.6291   21.1254 H   0  0  0  0  0  0
  -19.6762  -27.3190   20.6735 H   0  0  0  0  0  0
  -17.4231  -26.6713   21.4015 H   0  0  0  0  0  0
  -18.0363  -26.0090   22.9008 H   0  0  0  0  0  0
  -19.7953  -30.7253   24.2351 H   0  0  0  0  0  0
  -17.5041  -31.6303   24.5130 H   0  0  0  0  0  0
  -15.5380  -30.3023   23.7645 H   0  0  0  0  0  0
  -15.8684  -28.0830   22.7102 H   0  0  0  0  0  0
  -24.6007  -30.6975   25.7737 H   0  0  0  0  0  0
  -24.8797  -32.2871   26.4767 H   0  0  0  0  0  0
  -25.8041  -30.8999   27.0263 H   0  0  0  0  0  0
  -26.2853  -29.6866   24.1157 H   0  0  0  0  0  0
  -27.4028  -29.7260   25.4602 H   0  0  0  0  0  0
  -27.8732  -30.4378   23.9343 H   0  0  0  0  0  0
  -27.2807  -33.3689   26.1980 H   0  0  0  0  0  0
  -28.3963  -32.6726   25.0336 H   0  0  0  0  0  0
  -28.0693  -31.8466   26.5471 H   0  0  0  0  0  0
  -28.2585  -38.0101   24.7523 H   0  0  0  0  0  0
  -28.1085  -36.2621   24.6303 H   0  0  0  0  0  0
  -27.2278  -37.1420   25.8872 H   0  0  0  0  0  0
  -20.9372  -29.8825   21.6909 H   0  0  0  0  0  0
  -26.0174  -38.2852   24.1480 H   0  0  0  0  0  0
  -29.0532  -20.5701   22.8921 H   0  0  0  0  0  0
  -29.7663  -17.6565   25.0265 H   0  0  0  0  0  0
  -28.1356  -18.3103   24.8205 H   0  0  0  0  0  0
  -29.5144  -19.3947   24.9961 H   0  0  0  0  0  0
  -27.7377  -23.7487   17.9973 H   0  0  0  0  0  0
  -29.1709  -24.7658   17.9456 H   0  0  0  0  0  0
  -27.5862  -25.4834   17.7774 H   0  0  0  0  0  0
  -30.0367  -23.7294   19.9796 H   0  0  0  0  0  0
  -29.2748  -24.0197   21.4941 H   0  0  0  0  0  0
  -27.1044  -24.5935   20.1992 H   0  0  0  0  0  0
  -30.2199  -21.2710   19.8079 H   0  0  0  0  0  0
  -28.7817  -15.5871   20.1633 H   0  0  0  0  0  0
  1 25  1  0  0  0
  1 30  2  0  0  0
  1 83  1  0  0  0
  2  3  1  0  0  0
  2 25  1  0  0  0
  2 86  1  0  0  0
  2 87  1  0  0  0
  3  4  1  0  0  0
  3 88  1  0  0  0
  3 89  1  0  0  0
  4  5  1  0  0  0
  4 90  1  0  0  0
  4 91  1  0  0  0
  5  6  1  0  0  0
  5 26  1  0  0  0
  5 92  1  0  0  0
  6 25  1  0  0  0
  6 93  1  0  0  0
  6 94  1  0  0  0
  7  8  2  0  0  0
  7 26  1  0  0  0
  7 29  1  0  0  0
  8  9  1  0  0  0
  8 22  1  0  0  0
  9 10  1  0  0  0
  9 27  2  0  0  0
 10 11  2  0  0  0
 10 15  1  0  0  0
 11 12  1  0  0  0
 11 95  1  0  0  0
 12 13  2  0  0  0
 12 96  1  0  0  0
 13 14  1  0  0  0
 13 31  1  0  0  0
 14 15  2  0  0  0
 14 97  1  0  0  0
 15 98  1  0  0  0
 16 17  2  0  0  0
 16 21  1  0  0  0
 16 31  1  0  0  0
 17 18  1  0  0  0
 17 99  1  0  0  0
 18 19  2  0  0  0
 18100  1  0  0  0
 19 20  1  0  0  0
 19 24  1  0  0  0
 20 21  2  0  0  0
 20101  1  0  0  0
 21 23  1  0  0  0
 22 28  1  0  0  0
 22 32  2  0  0  0
 26 27  1  0  0  0
 28102  1  0  0  0
 28103  1  0  0  0
 29104  1  0  0  0
 29105  1  0  0  0
 33 34  1  0  0  0
 33 66  1  0  0  0
 33 70  2  0  0  0
 34 36  1  0  0  0
 34 59  1  0  0  0
 34106  1  0  0  0
 35 44  2  0  0  0
 35 45  1  0  0  0
 35 68  1  0  0  0
 36 56  1  0  0  0
 36107  1  0  0  0
 37 39  1  0  0  0
 37 47  1  0  0  0
 37 66  1  0  0  0
 37108  1  0  0  0
 38 43  2  0  0  0
 38 46  1  0  0  0
 38 47  1  0  0  0
 39 64  1  0  0  0
 39 67  2  0  0  0
 40 52  1  0  0  0
 40 53  2  0  0  0
 40 58  1  0  0  0
 41109  1  0  0  0
 41110  1  0  0  0
 41111  1  0  0  0
 41 48  1  0  0  0
 42 43  1  0  0  0
 42 66  1  0  0  0
 42112  1  0  0  0
 42113  1  0  0  0
 43 44  1  0  0  0
 44114  1  0  0  0
 45 46  2  0  0  0
 45115  1  0  0  0
 46116  1  0  0  0
 47117  1  0  0  0
 47118  1  0  0  0
 48 56  1  0  0  0
 48 65  1  0  0  0
 48119  1  0  0  0
 49 50  1  0  0  0
 49 53  1  0  0  0
 49 64  1  0  0  0
 49120  1  0  0  0
 50 51  1  0  0  0
 50121  1  0  0  0
 50122  1  0  0  0
 51 52  1  0  0  0
 51123  1  0  0  0
 51124  1  0  0  0
 52125  1  0  0  0
 52126  1  0  0  0
 53 54  1  0  0  0
 54 55  2  0  0  0
 54127  1  0  0  0
 55 57  1  0  0  0
 55128  1  0  0  0
 56 69  2  0  0  0
 57 58  2  0  0  0
 57129  1  0  0  0
 58130  1  0  0  0
 59 60  1  0  0  0
 59 61  1  0  0  0
 59 62  1  0  0  0
 60131  1  0  0  0
 60132  1  0  0  0
 60133  1  0  0  0
 61134  1  0  0  0
 61135  1  0  0  0
 61136  1  0  0  0
 62137  1  0  0  0
 62138  1  0  0  0
 62139  1  0  0  0
 63 65  1  0  0  0
 63140  1  0  0  0
 63141  1  0  0  0
 63142  1  0  0  0
 64143  1  0  0  0
 65144  1  0  0  0
 68 80  1  0  0  0
 71 72  2  0  0  0
 71 74  1  0  0  0
 71145  1  0  0  0
 72 73  1  0  0  0
 72 77  1  0  0  0
 73 75  2  0  0  0
 73 85  1  0  0  0
 74 81  2  0  0  0
 74 82  1  0  0  0
 75 81  1  0  0  0
 75 83  1  0  0  0
 76 79  1  0  0  0
 76 82  1  0  0  0
 76 84  2  0  0  0
 77146  1  0  0  0
 77147  1  0  0  0
 77148  1  0  0  0
 78149  1  0  0  0
 78150  1  0  0  0
 78151  1  0  0  0
 78 80  1  0  0  0
 79 80  1  0  0  0
 79152  1  0  0  0
 79153  1  0  0  0
 80154  1  0  0  0
 82155  1  0  0  0
 83156  1  0  0  0
M  ISO  4   1 100  68 101  80 101  83 100
M  END
> <chiral flag>
0

> <version>
0

> <s_m_source_file>
/data/baiqing/PycharmProjects/Reinvent-master-3.2/result/LINK_invent/BTK/process_docking_weight1_custom_product_contain_oxygen_bond_distance_aromatic_linkinvent_7_9_3/rearranged_h_0180.sdf

> <i_m_source_file_index>
53

> <r_mmod_Potential_Energy-OPLS-2005>
94.1877975463867

> <r_mmod_Stretch_Energy-OPLS-2005>
139.213729858398

> <r_mmod_Bend_Energy-OPLS-2005>
176.684753417969

> <r_mmod_Torsional_Energy-OPLS-2005>
275.196319580078

> <r_mmod_Improper_Torsional_Energy-OPLS-2005>
15.7399005889893

> <r_mmod_Van_der_Waal_Energy-OPLS-2005>
142.541458129883

> <r_mmod_Electrostatic_Energy-OPLS-2005>
-525.060302734375

> <r_mmod_Solvation_Energy-OPLS-2005>
-236.389831542969

> <b_mmod_Minimization_Converged-OPLS-2005>
0

> <r_mmod_RMS_Derivative-OPLS-2005>
3.40916776657104

$$$$
53
                    3D
 Structure written by MMmdl.
160168  0  0  1  0            999 V2000
  -30.6934  -14.4504   20.6162 C   0  0  0  0  0  0
  -30.4292  -12.3051   19.4075 C   0  0  0  0  0  0
  -29.4914  -12.5176   18.2001 C   0  0  0  0  0  0
  -28.0120  -12.3806   18.6115 C   0  0  0  0  0  0
  -27.6666  -13.2011   19.8819 C   0  0  2  0  0  0
  -28.7069  -12.9374   20.9932 C   0  0  0  0  0  0
  -25.2605  -13.8130   20.5638 C   0  0  0  0  0  0
  -24.1857  -13.0429   20.9166 C   0  0  0  0  0  0
  -24.6404  -11.6896   20.8743 C   0  0  0  0  0  0
  -23.9063  -10.4293   21.0413 C   0  0  0  0  0  0
  -24.3628   -9.4203   21.9179 C   0  0  0  0  0  0
  -23.6299   -8.2239   22.0745 C   0  0  0  0  0  0
  -22.4279   -8.0278   21.3537 C   0  0  0  0  0  0
  -21.9909   -9.0264   20.4652 C   0  0  0  0  0  0
  -22.7235  -10.2144   20.3061 C   0  0  0  0  0  0
  -21.6855   -6.0737   22.5279 C   0  0  0  0  0  0
  -21.4022   -6.5646   23.8213 C   0  0  0  0  0  0
  -21.3653   -5.6800   24.9176 C   0  0  0  0  0  0
  -21.6039   -4.3060   24.7221 C   0  0  0  0  0  0
  -21.8824   -3.8147   23.4344 C   0  0  0  0  0  0
  -21.9195   -4.6965   22.3400 C   0  0  0  0  0  0
  -22.7892  -13.5239   21.1860 C   0  0  0  0  0  0
  -22.1663   -4.2147   21.0976 F   0  0  0  0  0  0
  -21.5620   -3.4541   25.7730 F   0  0  0  0  0  0
  -30.0453  -13.2613   20.4584 N   0  0  0  0  0  0
  -26.3054  -12.9297   20.3391 N   0  0  0  0  0  0
  -25.9334  -11.6469   20.5798 N   0  0  0  0  0  0
  -22.0565  -12.8231   22.0446 N   0  0  0  0  0  0
  -25.4315  -15.1820   20.3963 N   0  0  0  0  0  0
  -31.7725  -14.7040   20.0684 O   0  0  0  0  0  0
  -21.6637   -6.8875   21.4239 O   0  0  0  0  0  0
  -22.3549  -14.5530   20.6703 O   0  0  0  0  0  0
  -24.6138  -31.8668   23.2102 C   0  0  0  0  0  0
  -25.9024  -32.4830   23.8398 C   0  0  1  0  0  0
  -27.2364  -27.4331   20.1023 C   0  0  0  0  0  0
  -25.5874  -33.8627   24.2322 N   0  0  0  0  0  0
  -23.4052  -30.4886   21.5487 C   0  0  2  0  0  0
  -24.8554  -28.9526   20.1151 C   0  0  0  0  0  0
  -22.7421  -29.4644   22.4979 C   0  0  0  0  0  0
  -18.0270  -28.1379   22.8493 C   0  0  0  0  0  0
  -24.1478  -36.7326   23.2648 C   0  0  0  0  0  0
  -25.9341  -30.8305   21.3669 C   0  0  0  0  0  0
  -26.0135  -29.4635   20.7166 C   0  0  0  0  0  0
  -27.2095  -28.7078   20.7134 C   0  0  0  0  0  0
  -26.0682  -26.9358   19.4935 C   0  0  0  0  0  0
  -24.8763  -27.6869   19.5027 C   0  0  0  0  0  0
  -23.6173  -29.8200   20.1635 C   0  0  0  0  0  0
  -25.4102  -36.3119   24.0342 C   0  0  1  0  0  0
  -20.5865  -28.3663   23.1315 C   0  0  2  0  0  0
  -20.6759  -26.9397   22.5422 C   0  0  0  0  0  0
  -19.5742  -26.6381   21.5215 C   0  0  0  0  0  0
  -18.1917  -26.7922   22.1627 C   0  0  0  0  0  0
  -19.1524  -28.8840   23.2899 C   0  0  0  0  0  0
  -18.9451  -30.1445   23.8909 C   0  0  0  0  0  0
  -17.6456  -30.6583   24.0573 C   0  0  0  0  0  0
  -25.9026  -34.9484   23.5135 C   0  0  0  0  0  0
  -16.5345  -29.9091   23.6328 C   0  0  0  0  0  0
  -16.7263  -28.6511   23.0343 C   0  0  0  0  0  0
  -26.4463  -31.6620   25.0730 C   0  0  0  0  0  0
  -25.3752  -31.3722   26.1504 C   0  0  0  0  0  0
  -27.0311  -30.3071   24.6111 C   0  0  0  0  0  0
  -27.6035  -32.4361   25.7466 C   0  0  0  0  0  0
  -27.5576  -37.1814   24.8465 C   0  0  0  0  0  0
  -21.4151  -29.3026   22.3716 N   0  0  0  0  0  0
  -26.4289  -37.3793   23.9404 N   0  0  0  0  0  0
  -24.6689  -31.0765   22.1000 N   0  0  0  0  0  0
  -23.4195  -28.8198   23.3032 O   0  0  0  0  0  0
  -28.3726  -26.6567   20.0819 O   0  0  0  0  0  0
  -26.5598  -34.8931   22.4698 O   0  0  0  0  0  0
  -23.5326  -32.1418   23.7480 O   0  0  0  0  0  0
  -30.1853  -18.8458   20.4036 C   0  0  0  0  0  0
  -29.2879  -19.4717   21.2973 C   0  0  0  0  0  0
  -28.9926  -17.2705   22.3175 C   0  0  0  0  0  0
  -28.7036  -18.6563   22.2819 C   0  0  0  0  0  0
  -29.8951  -16.7257   21.3712 C   0  0  0  0  0  0
  -25.5537  -14.8375   24.7202 C   0  0  0  0  0  0
  -26.8133  -15.2405   24.4798 C   0  0  0  0  0  0
  -28.6194  -23.2114   20.7461 C   0  0  0  0  0  0
  -27.0852  -16.2811   23.5061 C   0  0  0  0  0  0
  -29.4738  -21.9007   20.6374 C   0  0  0  0  0  0
  -29.3776  -24.5393   20.9636 C   0  0  0  0  0  0
  -28.5110  -25.8054   21.2294 C   0  0  0  0  0  0
  -30.4792  -17.5215   20.4420 N   0  0  0  0  0  0
  -28.8857  -20.8491   21.2401 N   0  0  0  0  0  0
  -28.3999  -16.4219   23.2956 N   0  0  0  0  0  0
  -30.0556  -15.3075   21.4334 N   0  0  0  0  0  0
  -27.3841  -23.1768   20.6835 O   0  0  0  0  0  0
  -26.2345  -16.9555   22.9219 O   0  0  0  0  0  0
  -30.5713  -21.8600   20.0733 O   0  0  0  0  0  0
  -27.8751  -19.2211   23.1964 F   0  0  0  0  0  0
  -31.4707  -12.4178   19.1026 H   0  0  0  0  0  0
  -30.3399  -11.2840   19.7830 H   0  0  0  0  0  0
  -29.7231  -11.7993   17.4116 H   0  0  0  0  0  0
  -29.6607  -13.5072   17.7727 H   0  0  0  0  0  0
  -27.8126  -11.3229   18.7883 H   0  0  0  0  0  0
  -27.3621  -12.6764   17.7870 H   0  0  0  0  0  0
  -27.7225  -14.2561   19.6111 H   0  0  0  0  0  0
  -28.6823  -11.8870   21.2877 H   0  0  0  0  0  0
  -28.4489  -13.4837   21.9004 H   0  0  0  0  0  0
  -25.2787   -9.5670   22.4740 H   0  0  0  0  0  0
  -24.0005   -7.4633   22.7469 H   0  0  0  0  0  0
  -21.0825   -8.8801   19.8979 H   0  0  0  0  0  0
  -22.3694  -10.9692   19.6174 H   0  0  0  0  0  0
  -21.2031   -7.6159   23.9713 H   0  0  0  0  0  0
  -21.1463   -6.0531   25.9076 H   0  0  0  0  0  0
  -22.0604   -2.7607   23.2849 H   0  0  0  0  0  0
  -22.4208  -11.9894   22.4819 H   0  0  0  0  0  0
  -21.1191  -13.1249   22.2686 H   0  0  0  0  0  0
  -24.6961  -15.8437   20.6166 H   0  0  0  0  0  0
  -26.3106  -15.6341   20.1838 H   0  0  0  0  0  0
  -26.7102  -32.5551   23.1169 H   0  0  0  0  0  0
  -25.0007  -33.9784   25.0460 H   0  0  0  0  0  0
  -22.6941  -31.3051   21.4073 H   0  0  0  0  0  0
  -23.3729  -35.9672   23.3334 H   0  0  0  0  0  0
  -24.3573  -36.8917   22.2060 H   0  0  0  0  0  0
  -23.7245  -37.6544   23.6649 H   0  0  0  0  0  0
  -26.0473  -31.5951   20.5975 H   0  0  0  0  0  0
  -26.8219  -30.8847   21.9854 H   0  0  0  0  0  0
  -28.1042  -29.0945   21.1805 H   0  0  0  0  0  0
  -26.0818  -25.9635   19.0216 H   0  0  0  0  0  0
  -23.9862  -27.2865   19.0371 H   0  0  0  0  0  0
  -23.7322  -30.5965   19.4066 H   0  0  0  0  0  0
  -22.7414  -29.2437   19.8608 H   0  0  0  0  0  0
  -25.1275  -36.1989   25.0835 H   0  0  0  0  0  0
  -20.9945  -28.3229   24.1443 H   0  0  0  0  0  0
  -20.5647  -26.2275   23.3613 H   0  0  0  0  0  0
  -21.6628  -26.7427   22.1222 H   0  0  0  0  0  0
  -19.6898  -25.6295   21.1232 H   0  0  0  0  0  0
  -19.6680  -27.3208   20.6759 H   0  0  0  0  0  0
  -17.4182  -26.6665   21.4031 H   0  0  0  0  0  0
  -18.0320  -26.0071   22.9033 H   0  0  0  0  0  0
  -19.7929  -30.7250   24.2284 H   0  0  0  0  0  0
  -17.5015  -31.6260   24.5182 H   0  0  0  0  0  0
  -15.5348  -30.2999   23.7645 H   0  0  0  0  0  0
  -15.8662  -28.0842   22.7037 H   0  0  0  0  0  0
  -24.5862  -30.7141   25.7843 H   0  0  0  0  0  0
  -24.9032  -32.2891   26.5048 H   0  0  0  0  0  0
  -25.8126  -30.8805   27.0206 H   0  0  0  0  0  0
  -26.2858  -29.6813   24.1193 H   0  0  0  0  0  0
  -27.4117  -29.7324   25.4564 H   0  0  0  0  0  0
  -27.8669  -30.4404   23.9240 H   0  0  0  0  0  0
  -27.2632  -33.3623   26.2104 H   0  0  0  0  0  0
  -28.3787  -32.6999   25.0262 H   0  0  0  0  0  0
  -28.0777  -31.8478   26.5329 H   0  0  0  0  0  0
  -28.2608  -38.0094   24.7491 H   0  0  0  0  0  0
  -28.1047  -36.2627   24.6304 H   0  0  0  0  0  0
  -27.2297  -37.1489   25.8869 H   0  0  0  0  0  0
  -20.9312  -29.8768   21.6954 H   0  0  0  0  0  0
  -26.0187  -38.2870   24.1405 H   0  0  0  0  0  0
  -30.6630  -19.3940   19.6051 H   0  0  0  0  0  0
  -25.3482  -14.0646   25.4466 H   0  0  0  0  0  0
  -24.7078  -15.2667   24.1993 H   0  0  0  0  0  0
  -27.6238  -14.7758   25.0253 H   0  0  0  0  0  0
  -30.0578  -24.7098   20.1299 H   0  0  0  0  0  0
  -30.0100  -24.3767   21.8358 H   0  0  0  0  0  0
  -28.9894  -26.3962   22.0118 H   0  0  0  0  0  0
  -27.5348  -25.5312   21.6368 H   0  0  0  0  0  0
  -28.0309  -21.0805   21.7326 H   0  0  0  0  0  0
  -29.0126  -15.7974   23.8008 H   0  0  0  0  0  0
  -29.3349  -14.8514   21.9644 H   0  0  0  0  0  0
  1 25  1  0  0  0
  1 30  2  0  0  0
  1 86  1  0  0  0
  2  3  1  0  0  0
  2 25  1  0  0  0
  2 91  1  0  0  0
  2 92  1  0  0  0
  3  4  1  0  0  0
  3 93  1  0  0  0
  3 94  1  0  0  0
  4  5  1  0  0  0
  4 95  1  0  0  0
  4 96  1  0  0  0
  5  6  1  0  0  0
  5 26  1  0  0  0
  5 97  1  0  0  0
  6 25  1  0  0  0
  6 98  1  0  0  0
  6 99  1  0  0  0
  7  8  2  0  0  0
  7 26  1  0  0  0
  7 29  1  0  0  0
  8  9  1  0  0  0
  8 22  1  0  0  0
  9 10  1  0  0  0
  9 27  2  0  0  0
 10 11  2  0  0  0
 10 15  1  0  0  0
 11 12  1  0  0  0
 11100  1  0  0  0
 12 13  2  0  0  0
 12101  1  0  0  0
 13 14  1  0  0  0
 13 31  1  0  0  0
 14 15  2  0  0  0
 14102  1  0  0  0
 15103  1  0  0  0
 16 17  2  0  0  0
 16 21  1  0  0  0
 16 31  1  0  0  0
 17 18  1  0  0  0
 17104  1  0  0  0
 18 19  2  0  0  0
 18105  1  0  0  0
 19 20  1  0  0  0
 19 24  1  0  0  0
 20 21  2  0  0  0
 20106  1  0  0  0
 21 23  1  0  0  0
 22 28  1  0  0  0
 22 32  2  0  0  0
 26 27  1  0  0  0
 28107  1  0  0  0
 28108  1  0  0  0
 29109  1  0  0  0
 29110  1  0  0  0
 33 34  1  0  0  0
 33 66  1  0  0  0
 33 70  2  0  0  0
 34 36  1  0  0  0
 34 59  1  0  0  0
 34111  1  0  0  0
 35 44  2  0  0  0
 35 45  1  0  0  0
 35 68  1  0  0  0
 36 56  1  0  0  0
 36112  1  0  0  0
 37 39  1  0  0  0
 37 47  1  0  0  0
 37 66  1  0  0  0
 37113  1  0  0  0
 38 43  2  0  0  0
 38 46  1  0  0  0
 38 47  1  0  0  0
 39 64  1  0  0  0
 39 67  2  0  0  0
 40 52  1  0  0  0
 40 53  2  0  0  0
 40 58  1  0  0  0
 41114  1  0  0  0
 41115  1  0  0  0
 41116  1  0  0  0
 41 48  1  0  0  0
 42 43  1  0  0  0
 42 66  1  0  0  0
 42117  1  0  0  0
 42118  1  0  0  0
 43 44  1  0  0  0
 44119  1  0  0  0
 45 46  2  0  0  0
 45120  1  0  0  0
 46121  1  0  0  0
 47122  1  0  0  0
 47123  1  0  0  0
 48 56  1  0  0  0
 48 65  1  0  0  0
 48124  1  0  0  0
 49 50  1  0  0  0
 49 53  1  0  0  0
 49 64  1  0  0  0
 49125  1  0  0  0
 50 51  1  0  0  0
 50126  1  0  0  0
 50127  1  0  0  0
 51 52  1  0  0  0
 51128  1  0  0  0
 51129  1  0  0  0
 52130  1  0  0  0
 52131  1  0  0  0
 53 54  1  0  0  0
 54 55  2  0  0  0
 54132  1  0  0  0
 55 57  1  0  0  0
 55133  1  0  0  0
 56 69  2  0  0  0
 57 58  2  0  0  0
 57134  1  0  0  0
 58135  1  0  0  0
 59 60  1  0  0  0
 59 61  1  0  0  0
 59 62  1  0  0  0
 60136  1  0  0  0
 60137  1  0  0  0
 60138  1  0  0  0
 61139  1  0  0  0
 61140  1  0  0  0
 61141  1  0  0  0
 62142  1  0  0  0
 62143  1  0  0  0
 62144  1  0  0  0
 63 65  1  0  0  0
 63145  1  0  0  0
 63146  1  0  0  0
 63147  1  0  0  0
 64148  1  0  0  0
 65149  1  0  0  0
 68 82  1  0  0  0
 71 72  2  0  0  0
 71 83  1  0  0  0
 71150  1  0  0  0
 72 74  1  0  0  0
 72 84  1  0  0  0
 73 74  2  0  0  0
 73 75  1  0  0  0
 73 85  1  0  0  0
 74 90  1  0  0  0
 75 83  2  0  0  0
 75 86  1  0  0  0
 76 77  2  0  0  0
 76151  1  0  0  0
 76152  1  0  0  0
 77 79  1  0  0  0
 77153  1  0  0  0
 78 80  1  0  0  0
 78 81  1  0  0  0
 78 87  2  0  0  0
 79 85  1  0  0  0
 79 88  2  0  0  0
 80 84  1  0  0  0
 80 89  2  0  0  0
 81 82  1  0  0  0
 81154  1  0  0  0
 81155  1  0  0  0
 82156  1  0  0  0
 82157  1  0  0  0
 84158  1  0  0  0
 85159  1  0  0  0
 86160  1  0  0  0
M  ISO  4   1 100  68 101  82 101  86 100
M  END
> <chiral flag>
0

> <version>
0

> <s_m_source_file>
/data/baiqing/PycharmProjects/Reinvent-master-3.2/result/LINK_invent/BTK/process_docking_weight1_custom_product_contain_oxygen_bond_distance_aromatic_linkinvent_7_9_3/rearranged_h_0180.sdf

> <i_m_source_file_index>
54

> <r_mmod_Potential_Energy-OPLS-2005>
-354.005004882812

> <r_mmod_Stretch_Energy-OPLS-2005>
41.2457618713379

> <r_mmod_Bend_Energy-OPLS-2005>
113.541938781738

> <r_mmod_Torsional_Energy-OPLS-2005>
270.379425048828

> <r_mmod_Improper_Torsional_Energy-OPLS-2005>
3.97702503204346

> <r_mmod_Van_der_Waal_Energy-OPLS-2005>
149.821884155273

> <r_mmod_Electrostatic_Energy-OPLS-2005>
-667.96240234375

> <r_mmod_Solvation_Energy-OPLS-2005>
-275.708709716797

> <b_mmod_Minimization_Converged-OPLS-2005>
0

> <r_mmod_RMS_Derivative-OPLS-2005>
1.73105645179749

$$$$
54
                    3D
 Structure written by MMmdl.
149157  0  0  1  0            999 V2000
  -30.5355  -14.8609   20.4525 C   0  0  0  0  0  0
  -30.4511  -12.5282   19.4879 C   0  0  0  0  0  0
  -29.5230  -12.5301   18.2497 C   0  0  0  0  0  0
  -28.0511  -12.3297   18.6619 C   0  0  0  0  0  0
  -27.6430  -13.2341   19.8542 C   0  0  2  0  0  0
  -28.6874  -13.1835   20.9914 C   0  0  0  0  0  0
  -25.2516  -13.8191   20.5708 C   0  0  0  0  0  0
  -24.1805  -13.0436   20.9211 C   0  0  0  0  0  0
  -24.6398  -11.6915   20.8745 C   0  0  0  0  0  0
  -23.9071  -10.4293   21.0404 C   0  0  0  0  0  0
  -24.3620   -9.4208   21.9182 C   0  0  0  0  0  0
  -23.6297   -8.2242   22.0752 C   0  0  0  0  0  0
  -22.4278   -8.0281   21.3543 C   0  0  0  0  0  0
  -21.9914   -9.0253   20.4645 C   0  0  0  0  0  0
  -22.7242  -10.2133   20.3054 C   0  0  0  0  0  0
  -21.6852   -6.0738   22.5281 C   0  0  0  0  0  0
  -21.4013   -6.5640   23.8215 C   0  0  0  0  0  0
  -21.3661   -5.6792   24.9176 C   0  0  0  0  0  0
  -21.6044   -4.3055   24.7225 C   0  0  0  0  0  0
  -21.8819   -3.8148   23.4346 C   0  0  0  0  0  0
  -21.9192   -4.6966   22.3403 C   0  0  0  0  0  0
  -22.7825  -13.5219   21.1871 C   0  0  0  0  0  0
  -22.1661   -4.2153   21.0980 F   0  0  0  0  0  0
  -21.5631   -3.4537   25.7736 F   0  0  0  0  0  0
  -29.9794  -13.5888   20.4166 N   0  0  0  0  0  0
  -26.2946  -12.9399   20.3291 N   0  0  0  0  0  0
  -25.9333  -11.6540   20.5748 N   0  0  0  0  0  0
  -22.0468  -12.8212   22.0426 N   0  0  0  0  0  0
  -25.4205  -15.1918   20.4144 N   0  0  0  0  0  0
  -31.7055  -15.0060   20.0789 O   0  0  0  0  0  0
  -21.6639   -6.8880   21.4242 O   0  0  0  0  0  0
  -22.3513  -14.5525   20.6717 O   0  0  0  0  0  0
  -24.6387  -31.8477   23.1912 C   0  0  0  0  0  0
  -25.9177  -32.4715   23.8290 C   0  0  1  0  0  0
  -27.2304  -27.1944   20.1290 C   0  0  0  0  0  0
  -25.5942  -33.8520   24.2208 N   0  0  0  0  0  0
  -23.4408  -30.4670   21.5352 C   0  0  2  0  0  0
  -24.8925  -28.9033   20.1052 C   0  0  0  0  0  0
  -22.7547  -29.4560   22.4871 C   0  0  0  0  0  0
  -18.0301  -28.1393   22.8480 C   0  0  0  0  0  0
  -24.1491  -36.7265   23.2642 C   0  0  0  0  0  0
  -25.9925  -30.7375   21.3832 C   0  0  0  0  0  0
  -26.0666  -29.3547   20.7219 C   0  0  0  0  0  0
  -27.2344  -28.5116   20.7261 C   0  0  0  0  0  0
  -26.0260  -26.8237   19.4913 C   0  0  0  0  0  0
  -24.8811  -27.6480   19.4774 C   0  0  0  0  0  0
  -23.6647  -29.7973   20.1530 C   0  0  0  0  0  0
  -25.4122  -36.3044   24.0319 C   0  0  1  0  0  0
  -20.5910  -28.3714   23.1245 C   0  0  2  0  0  0
  -20.6786  -26.9422   22.5405 C   0  0  0  0  0  0
  -19.5760  -26.6381   21.5212 C   0  0  0  0  0  0
  -18.1942  -26.7931   22.1624 C   0  0  0  0  0  0
  -19.1557  -28.8871   23.2854 C   0  0  0  0  0  0
  -18.9474  -30.1468   23.8878 C   0  0  0  0  0  0
  -17.6471  -30.6591   24.0558 C   0  0  0  0  0  0
  -25.9068  -34.9418   23.5071 C   0  0  0  0  0  0
  -16.5362  -29.9084   23.6335 C   0  0  0  0  0  0
  -16.7285  -28.6502   23.0357 C   0  0  0  0  0  0
  -26.4516  -31.6572   25.0717 C   0  0  0  0  0  0
  -25.3714  -31.3749   26.1422 C   0  0  0  0  0  0
  -27.0380  -30.2975   24.6271 C   0  0  0  0  0  0
  -27.6051  -32.4334   25.7499 C   0  0  0  0  0  0
  -27.5575  -37.1790   24.8466 C   0  0  0  0  0  0
  -21.4243  -29.3044   22.3620 N   0  0  0  0  0  0
  -26.4289  -37.3752   23.9405 N   0  0  0  0  0  0
  -24.7099  -31.0373   22.0922 N   0  0  0  0  0  0
  -23.4208  -28.8111   23.3010 O   0  0  0  0  0  0
  -28.2751  -26.2157   20.2420 O   0  0  0  0  0  0
  -26.5651  -34.8907   22.4647 O   0  0  0  0  0  0
  -23.5516  -32.1332   23.7160 O   0  0  0  0  0  0
  -28.9727  -19.5539   21.5817 C   0  0  0  0  0  0
  -29.3544  -20.0880   20.3596 C   0  0  0  0  0  0
  -29.6938  -17.4424   20.7545 C   0  0  0  0  0  0
  -28.7895  -23.7965   19.2754 C   0  0  0  0  0  0
  -28.5457  -25.2031   19.2556 C   0  0  0  0  0  0
  -28.8480  -22.6866   20.3328 C   0  0  0  0  0  0
  -28.6474  -25.9159   17.9004 C   0  0  0  0  0  0
  -29.1300  -18.1380   21.7655 N   0  0  0  0  0  0
  -29.2363  -21.4169   19.8473 N   0  0  0  0  0  0
  -29.6993  -15.9309   20.8048 N   0  0  0  0  0  0
  -28.5840  -22.8528   21.5245 O   0  0  0  0  0  0
  -29.0313  -23.2889   18.0517 O   0  0  0  0  0  0
  -30.0322  -18.6585   19.4396 S   0  0  0  0  0  0
  -31.4858  -12.6884   19.1807 H   0  0  0  0  0  0
  -30.4356  -11.5550   19.9811 H   0  0  0  0  0  0
  -29.8255  -11.7506   17.5491 H   0  0  0  0  0  0
  -29.6269  -13.4765   17.7169 H   0  0  0  0  0  0
  -27.9265  -11.2816   18.9364 H   0  0  0  0  0  0
  -27.3910  -12.5013   17.8109 H   0  0  0  0  0  0
  -27.6298  -14.2526   19.4655 H   0  0  0  0  0  0
  -28.7511  -12.1800   21.4149 H   0  0  0  0  0  0
  -28.3970  -13.8384   21.8141 H   0  0  0  0  0  0
  -25.2764   -9.5688   22.4759 H   0  0  0  0  0  0
  -24.0009   -7.4632   22.7469 H   0  0  0  0  0  0
  -21.0846   -8.8770   19.8949 H   0  0  0  0  0  0
  -22.3697  -10.9672   19.6166 H   0  0  0  0  0  0
  -21.2001   -7.6147   23.9722 H   0  0  0  0  0  0
  -21.1486   -6.0519   25.9080 H   0  0  0  0  0  0
  -22.0596   -2.7611   23.2841 H   0  0  0  0  0  0
  -22.4080  -11.9875   22.4820 H   0  0  0  0  0  0
  -21.1085  -13.1238   22.2630 H   0  0  0  0  0  0
  -24.6514  -15.8432   20.5283 H   0  0  0  0  0  0
  -26.2650  -15.6351   20.0768 H   0  0  0  0  0  0
  -26.7245  -32.5337   23.1025 H   0  0  0  0  0  0
  -25.0072  -33.9642   25.0344 H   0  0  0  0  0  0
  -22.7411  -31.2915   21.3833 H   0  0  0  0  0  0
  -23.3754  -35.9597   23.3302 H   0  0  0  0  0  0
  -24.3575  -36.8897   22.2057 H   0  0  0  0  0  0
  -23.7247  -37.6463   23.6678 H   0  0  0  0  0  0
  -26.1431  -31.4962   20.6140 H   0  0  0  0  0  0
  -26.8645  -30.7857   22.0238 H   0  0  0  0  0  0
  -28.1262  -28.8453   21.2375 H   0  0  0  0  0  0
  -25.9459  -25.8473   19.0356 H   0  0  0  0  0  0
  -23.9807  -27.2917   18.9961 H   0  0  0  0  0  0
  -23.7936  -30.5725   19.3969 H   0  0  0  0  0  0
  -22.7817  -29.2342   19.8459 H   0  0  0  0  0  0
  -25.1310  -36.1878   25.0812 H   0  0  0  0  0  0
  -21.0003  -28.3301   24.1365 H   0  0  0  0  0  0
  -20.5681  -26.2328   23.3620 H   0  0  0  0  0  0
  -21.6652  -26.7432   22.1202 H   0  0  0  0  0  0
  -19.6922  -25.6286   21.1255 H   0  0  0  0  0  0
  -19.6697  -27.3178   20.6732 H   0  0  0  0  0  0
  -17.4210  -26.6674   21.4028 H   0  0  0  0  0  0
  -18.0342  -26.0078   22.9026 H   0  0  0  0  0  0
  -19.7951  -30.7288   24.2241 H   0  0  0  0  0  0
  -17.5026  -31.6271   24.5162 H   0  0  0  0  0  0
  -15.5361  -30.2980   23.7670 H   0  0  0  0  0  0
  -15.8685  -28.0812   22.7086 H   0  0  0  0  0  0
  -24.5886  -30.7107   25.7740 H   0  0  0  0  0  0
  -24.8912  -32.2929   26.4819 H   0  0  0  0  0  0
  -25.8005  -30.8935   27.0218 H   0  0  0  0  0  0
  -26.2990  -29.6703   24.1273 H   0  0  0  0  0  0
  -27.4002  -29.7267   25.4831 H   0  0  0  0  0  0
  -27.8892  -30.4224   23.9575 H   0  0  0  0  0  0
  -27.2644  -33.3645   26.2041 H   0  0  0  0  0  0
  -28.3881  -32.6881   25.0343 H   0  0  0  0  0  0
  -28.0703  -31.8487   26.5447 H   0  0  0  0  0  0
  -28.2593  -38.0085   24.7502 H   0  0  0  0  0  0
  -28.1070  -36.2614   24.6308 H   0  0  0  0  0  0
  -27.2290  -37.1456   25.8869 H   0  0  0  0  0  0
  -20.9448  -29.8756   21.6802 H   0  0  0  0  0  0
  -26.0160  -38.2823   24.1400 H   0  0  0  0  0  0
  -28.5226  -20.1110   22.3916 H   0  0  0  0  0  0
  -27.8041  -25.6542   17.2600 H   0  0  0  0  0  0
  -29.5733  -25.6593   17.3839 H   0  0  0  0  0  0
  -28.6653  -27.0012   17.9981 H   0  0  0  0  0  0
  -29.4542  -21.5007   18.8611 H   0  0  0  0  0  0
  -28.8551  -15.5748   21.2224 H   0  0  0  0  0  0
  -28.9780  -24.0153   17.4437 H   0  0  0  0  0  0
  1 25  1  0  0  0
  1 30  2  0  0  0
  1 80  1  0  0  0
  2  3  1  0  0  0
  2 25  1  0  0  0
  2 84  1  0  0  0
  2 85  1  0  0  0
  3  4  1  0  0  0
  3 86  1  0  0  0
  3 87  1  0  0  0
  4  5  1  0  0  0
  4 88  1  0  0  0
  4 89  1  0  0  0
  5  6  1  0  0  0
  5 26  1  0  0  0
  5 90  1  0  0  0
  6 25  1  0  0  0
  6 91  1  0  0  0
  6 92  1  0  0  0
  7  8  2  0  0  0
  7 26  1  0  0  0
  7 29  1  0  0  0
  8  9  1  0  0  0
  8 22  1  0  0  0
  9 10  1  0  0  0
  9 27  2  0  0  0
 10 11  2  0  0  0
 10 15  1  0  0  0
 11 12  1  0  0  0
 11 93  1  0  0  0
 12 13  2  0  0  0
 12 94  1  0  0  0
 13 14  1  0  0  0
 13 31  1  0  0  0
 14 15  2  0  0  0
 14 95  1  0  0  0
 15 96  1  0  0  0
 16 17  2  0  0  0
 16 21  1  0  0  0
 16 31  1  0  0  0
 17 18  1  0  0  0
 17 97  1  0  0  0
 18 19  2  0  0  0
 18 98  1  0  0  0
 19 20  1  0  0  0
 19 24  1  0  0  0
 20 21  2  0  0  0
 20 99  1  0  0  0
 21 23  1  0  0  0
 22 28  1  0  0  0
 22 32  2  0  0  0
 26 27  1  0  0  0
 28100  1  0  0  0
 28101  1  0  0  0
 29102  1  0  0  0
 29103  1  0  0  0
 33 34  1  0  0  0
 33 66  1  0  0  0
 33 70  2  0  0  0
 34 36  1  0  0  0
 34 59  1  0  0  0
 34104  1  0  0  0
 35 44  2  0  0  0
 35 45  1  0  0  0
 35 68  1  0  0  0
 36 56  1  0  0  0
 36105  1  0  0  0
 37 39  1  0  0  0
 37 47  1  0  0  0
 37 66  1  0  0  0
 37106  1  0  0  0
 38 43  2  0  0  0
 38 46  1  0  0  0
 38 47  1  0  0  0
 39 64  1  0  0  0
 39 67  2  0  0  0
 40 52  1  0  0  0
 40 53  2  0  0  0
 40 58  1  0  0  0
 41107  1  0  0  0
 41108  1  0  0  0
 41109  1  0  0  0
 41 48  1  0  0  0
 42 43  1  0  0  0
 42 66  1  0  0  0
 42110  1  0  0  0
 42111  1  0  0  0
 43 44  1  0  0  0
 44112  1  0  0  0
 45 46  2  0  0  0
 45113  1  0  0  0
 46114  1  0  0  0
 47115  1  0  0  0
 47116  1  0  0  0
 48 56  1  0  0  0
 48 65  1  0  0  0
 48117  1  0  0  0
 49 50  1  0  0  0
 49 53  1  0  0  0
 49 64  1  0  0  0
 49118  1  0  0  0
 50 51  1  0  0  0
 50119  1  0  0  0
 50120  1  0  0  0
 51 52  1  0  0  0
 51121  1  0  0  0
 51122  1  0  0  0
 52123  1  0  0  0
 52124  1  0  0  0
 53 54  1  0  0  0
 54 55  2  0  0  0
 54125  1  0  0  0
 55 57  1  0  0  0
 55126  1  0  0  0
 56 69  2  0  0  0
 57 58  2  0  0  0
 57127  1  0  0  0
 58128  1  0  0  0
 59 60  1  0  0  0
 59 61  1  0  0  0
 59 62  1  0  0  0
 60129  1  0  0  0
 60130  1  0  0  0
 60131  1  0  0  0
 61132  1  0  0  0
 61133  1  0  0  0
 61134  1  0  0  0
 62135  1  0  0  0
 62136  1  0  0  0
 62137  1  0  0  0
 63 65  1  0  0  0
 63138  1  0  0  0
 63139  1  0  0  0
 63140  1  0  0  0
 64141  1  0  0  0
 65142  1  0  0  0
 68 75  1  0  0  0
 71 72  2  0  0  0
 71 78  1  0  0  0
 71143  1  0  0  0
 72 79  1  0  0  0
 72 83  1  0  0  0
 73 78  2  0  0  0
 73 80  1  0  0  0
 73 83  1  0  0  0
 74 75  2  0  0  0
 74 76  1  0  0  0
 74 82  1  0  0  0
 75 77  1  0  0  0
 76 79  1  0  0  0
 76 81  2  0  0  0
 77144  1  0  0  0
 77145  1  0  0  0
 77146  1  0  0  0
 79147  1  0  0  0
 80148  1  0  0  0
 82149  1  0  0  0
M  ISO  4   1 100  68 101  75 101  80 100
M  END
> <chiral flag>
0

> <version>
0

> <s_m_source_file>
/data/baiqing/PycharmProjects/Reinvent-master-3.2/result/LINK_invent/BTK/process_docking_weight1_custom_product_contain_oxygen_bond_distance_aromatic_linkinvent_7_9_3/rearranged_h_0180.sdf

> <i_m_source_file_index>
55

> <r_mmod_Potential_Energy-OPLS-2005>
277.704040527344

> <r_mmod_Stretch_Energy-OPLS-2005>
168.919296264648

> <r_mmod_Bend_Energy-OPLS-2005>
277.532440185547

> <r_mmod_Torsional_Energy-OPLS-2005>
222.935684204102

> <r_mmod_Improper_Torsional_Energy-OPLS-2005>
5.08429384231567

> <r_mmod_Van_der_Waal_Energy-OPLS-2005>
131.899185180664

> <r_mmod_Electrostatic_Energy-OPLS-2005>
-437.165771484375

> <r_mmod_Solvation_Energy-OPLS-2005>
-236.506286621094

> <b_mmod_Minimization_Converged-OPLS-2005>
0

> <r_mmod_RMS_Derivative-OPLS-2005>
0.304340332746506

$$$$
55
                    3D
 Structure written by MMmdl.
156164  0  0  1  0            999 V2000
  -30.6876  -14.5309   20.5442 C   0  0  0  0  0  0
  -30.4236  -12.3334   19.4402 C   0  0  0  0  0  0
  -29.4987  -12.4999   18.2163 C   0  0  0  0  0  0
  -28.0202  -12.3534   18.6268 C   0  0  0  0  0  0
  -27.6561  -13.2126   19.8678 C   0  0  2  0  0  0
  -28.6984  -13.0351   20.9955 C   0  0  0  0  0  0
  -25.2569  -13.8175   20.5677 C   0  0  0  0  0  0
  -24.1833  -13.0446   20.9189 C   0  0  0  0  0  0
  -24.6392  -11.6913   20.8742 C   0  0  0  0  0  0
  -23.9068  -10.4291   21.0402 C   0  0  0  0  0  0
  -24.3618   -9.4209   21.9181 C   0  0  0  0  0  0
  -23.6287   -8.2248   22.0756 C   0  0  0  0  0  0
  -22.4271   -8.0286   21.3545 C   0  0  0  0  0  0
  -21.9913   -9.0261   20.4650 C   0  0  0  0  0  0
  -22.7243  -10.2138   20.3055 C   0  0  0  0  0  0
  -21.6850   -6.0740   22.5276 C   0  0  0  0  0  0
  -21.4009   -6.5642   23.8211 C   0  0  0  0  0  0
  -21.3662   -5.6793   24.9176 C   0  0  0  0  0  0
  -21.6048   -4.3056   24.7221 C   0  0  0  0  0  0
  -21.8819   -3.8151   23.4340 C   0  0  0  0  0  0
  -21.9189   -4.6968   22.3397 C   0  0  0  0  0  0
  -22.7855  -13.5236   21.1847 C   0  0  0  0  0  0
  -22.1660   -4.2155   21.0973 F   0  0  0  0  0  0
  -21.5632   -3.4537   25.7733 F   0  0  0  0  0  0
  -30.0246  -13.3425   20.4364 N   0  0  0  0  0  0
  -26.2998  -12.9355   20.3334 N   0  0  0  0  0  0
  -25.9320  -11.6512   20.5767 N   0  0  0  0  0  0
  -22.0496  -12.8233   22.0404 N   0  0  0  0  0  0
  -25.4286  -15.1897   20.4066 N   0  0  0  0  0  0
  -31.8426  -14.6652   20.1281 O   0  0  0  0  0  0
  -21.6637   -6.8885   21.4239 O   0  0  0  0  0  0
  -22.3547  -14.5542   20.6689 O   0  0  0  0  0  0
  -24.6192  -31.8658   23.2101 C   0  0  0  0  0  0
  -25.9069  -32.4808   23.8398 C   0  0  1  0  0  0
  -27.2192  -27.3889   20.0961 C   0  0  0  0  0  0
  -25.5911  -33.8611   24.2327 N   0  0  0  0  0  0
  -23.4080  -30.4927   21.5512 C   0  0  2  0  0  0
  -24.8526  -28.9636   20.1081 C   0  0  0  0  0  0
  -22.7433  -29.4651   22.4970 C   0  0  0  0  0  0
  -18.0277  -28.1364   22.8483 C   0  0  0  0  0  0
  -24.1491  -36.7315   23.2641 C   0  0  0  0  0  0
  -25.9445  -30.8184   21.3716 C   0  0  0  0  0  0
  -26.0189  -29.4547   20.7076 C   0  0  0  0  0  0
  -27.2070  -28.6783   20.6925 C   0  0  0  0  0  0
  -26.0319  -26.9407   19.4678 C   0  0  0  0  0  0
  -24.8569  -27.7096   19.4815 C   0  0  0  0  0  0
  -23.6181  -29.8340   20.1637 C   0  0  0  0  0  0
  -25.4110  -36.3102   24.0335 C   0  0  1  0  0  0
  -20.5871  -28.3669   23.1301 C   0  0  2  0  0  0
  -20.6765  -26.9400   22.5413 C   0  0  0  0  0  0
  -19.5748  -26.6375   21.5202 C   0  0  0  0  0  0
  -18.1922  -26.7913   22.1612 C   0  0  0  0  0  0
  -19.1525  -28.8831   23.2884 C   0  0  0  0  0  0
  -18.9457  -30.1429   23.8911 C   0  0  0  0  0  0
  -17.6462  -30.6579   24.0555 C   0  0  0  0  0  0
  -25.9040  -34.9470   23.5134 C   0  0  0  0  0  0
  -16.5351  -29.9085   23.6315 C   0  0  0  0  0  0
  -16.7262  -28.6489   23.0352 C   0  0  0  0  0  0
  -26.4486  -31.6598   25.0739 C   0  0  0  0  0  0
  -25.3743  -31.3706   26.1479 C   0  0  0  0  0  0
  -27.0322  -30.3034   24.6145 C   0  0  0  0  0  0
  -27.6054  -32.4328   25.7506 C   0  0  0  0  0  0
  -27.5588  -37.1812   24.8462 C   0  0  0  0  0  0
  -21.4156  -29.3044   22.3718 N   0  0  0  0  0  0
  -26.4302  -37.3787   23.9403 N   0  0  0  0  0  0
  -24.6758  -31.0737   22.1017 N   0  0  0  0  0  0
  -23.4188  -28.8169   23.3006 O   0  0  0  0  0  0
  -28.3561  -26.5866   20.1582 O   0  0  0  0  0  0
  -26.5599  -34.8925   22.4694 O   0  0  0  0  0  0
  -23.5379  -32.1438   23.7476 O   0  0  0  0  0  0
  -31.5803  -18.8563   21.0156 C   0  0  0  0  0  0
  -30.4258  -19.4800   20.5865 C   0  0  0  0  0  0
  -30.2677  -16.9846   20.8929 C   0  0  0  0  0  0
  -29.3181  -21.6672   20.1846 C   0  0  0  0  0  0
  -32.8939  -19.5267   21.2852 C   0  0  0  0  0  0
  -27.3848  -24.7622   21.4875 C   0  0  0  0  0  0
  -29.5535  -22.9970   19.4157 C   0  0  0  0  0  0
  -29.5267  -24.3632   20.1864 C   0  0  0  0  0  0
  -28.1737  -25.1374   20.2162 C   0  0  2  0  0  0
  -31.4804  -17.4651   21.1873 N   0  0  0  0  0  0
  -30.3551  -20.8018   20.2216 N   0  0  0  0  0  0
  -29.9414  -15.5864   20.9537 N   0  0  0  0  0  0
  -28.2240  -21.4308   20.6974 O   0  0  0  0  0  0
  -29.1283  -18.2816   20.4702 S   0  0  0  0  0  0
  -31.4684  -12.4291   19.1402 H   0  0  0  0  0  0
  -30.3275  -11.3320   19.8620 H   0  0  0  0  0  0
  -29.7484  -11.7625   17.4525 H   0  0  0  0  0  0
  -29.6605  -13.4788   17.7619 H   0  0  0  0  0  0
  -27.8395  -11.2993   18.8419 H   0  0  0  0  0  0
  -27.3696  -12.6072   17.7885 H   0  0  0  0  0  0
  -27.6866  -14.2536   19.5439 H   0  0  0  0  0  0
  -28.6849  -12.0092   21.3682 H   0  0  0  0  0  0
  -28.4569  -13.6625   21.8549 H   0  0  0  0  0  0
  -25.2761   -9.5684   22.4761 H   0  0  0  0  0  0
  -23.9995   -7.4641   22.7475 H   0  0  0  0  0  0
  -21.0849   -8.8783   19.8949 H   0  0  0  0  0  0
  -22.3703  -10.9681   19.6168 H   0  0  0  0  0  0
  -21.1998   -7.6148   23.9716 H   0  0  0  0  0  0
  -21.1491   -6.0524   25.9080 H   0  0  0  0  0  0
  -22.0595   -2.7612   23.2836 H   0  0  0  0  0  0
  -22.4105  -11.9890   22.4787 H   0  0  0  0  0  0
  -21.1116  -13.1270   22.2604 H   0  0  0  0  0  0
  -24.6572  -15.8411   20.5044 H   0  0  0  0  0  0
  -26.2698  -15.6263   20.0518 H   0  0  0  0  0  0
  -26.7136  -32.5510   23.1155 H   0  0  0  0  0  0
  -25.0048  -33.9757   25.0466 H   0  0  0  0  0  0
  -22.6986  -31.3124   21.4162 H   0  0  0  0  0  0
  -23.3748  -35.9653   23.3292 H   0  0  0  0  0  0
  -24.3579  -36.8933   22.2052 H   0  0  0  0  0  0
  -23.7253  -37.6523   23.6666 H   0  0  0  0  0  0
  -26.0694  -31.5880   20.6086 H   0  0  0  0  0  0
  -26.8269  -30.8642   21.9975 H   0  0  0  0  0  0
  -28.1044  -29.0495   21.1683 H   0  0  0  0  0  0
  -25.9725  -25.9859   18.9698 H   0  0  0  0  0  0
  -23.9608  -27.3308   19.0083 H   0  0  0  0  0  0
  -23.7300  -30.6147   19.4102 H   0  0  0  0  0  0
  -22.7402  -29.2585   19.8639 H   0  0  0  0  0  0
  -25.1284  -36.1969   25.0832 H   0  0  0  0  0  0
  -20.9956  -28.3247   24.1424 H   0  0  0  0  0  0
  -20.5657  -26.2278   23.3606 H   0  0  0  0  0  0
  -21.6635  -26.7434   22.1213 H   0  0  0  0  0  0
  -19.6911  -25.6285   21.1235 H   0  0  0  0  0  0
  -19.6691  -27.3183   20.6729 H   0  0  0  0  0  0
  -17.4191  -26.6649   21.4019 H   0  0  0  0  0  0
  -18.0320  -26.0055   22.9010 H   0  0  0  0  0  0
  -19.7939  -30.7208   24.2319 H   0  0  0  0  0  0
  -17.5035  -31.6270   24.5134 H   0  0  0  0  0  0
  -15.5358  -30.2997   23.7639 H   0  0  0  0  0  0
  -15.8654  -28.0812   22.7087 H   0  0  0  0  0  0
  -24.5923  -30.7046   25.7814 H   0  0  0  0  0  0
  -24.8929  -32.2863   26.4926 H   0  0  0  0  0  0
  -25.8087  -30.8881   27.0241 H   0  0  0  0  0  0
  -26.2886  -29.6781   24.1194 H   0  0  0  0  0  0
  -27.4069  -29.7277   25.4613 H   0  0  0  0  0  0
  -27.8730  -30.4315   23.9324 H   0  0  0  0  0  0
  -27.2655  -33.3625   26.2084 H   0  0  0  0  0  0
  -28.3863  -32.6887   25.0331 H   0  0  0  0  0  0
  -28.0724  -31.8451   26.5418 H   0  0  0  0  0  0
  -28.2597  -38.0118   24.7511 H   0  0  0  0  0  0
  -28.1089  -36.2647   24.6284 H   0  0  0  0  0  0
  -27.2299  -37.1446   25.8863 H   0  0  0  0  0  0
  -20.9322  -29.8789   21.6954 H   0  0  0  0  0  0
  -26.0188  -38.2865   24.1401 H   0  0  0  0  0  0
  -32.7775  -20.3381   22.0043 H   0  0  0  0  0  0
  -33.3153  -19.9540   20.3755 H   0  0  0  0  0  0
  -33.6289  -18.8340   21.6941 H   0  0  0  0  0  0
  -27.2557  -23.6840   21.5665 H   0  0  0  0  0  0
  -26.3871  -25.1981   21.5049 H   0  0  0  0  0  0
  -27.9027  -25.1012   22.3854 H   0  0  0  0  0  0
  -28.8518  -23.0302   18.5823 H   0  0  0  0  0  0
  -30.5301  -22.9210   18.9358 H   0  0  0  0  0  0
  -30.2478  -25.0096   19.6860 H   0  0  0  0  0  0
  -29.9221  -24.2384   21.1949 H   0  0  0  0  0  0
  -27.6276  -24.8126   19.3329 H   0  0  0  0  0  0
  -31.2259  -21.1944   19.8912 H   0  0  0  0  0  0
  -28.9787  -15.3729   21.1597 H   0  0  0  0  0  0
  1 25  1  0  0  0
  1 30  2  0  0  0
  1 82  1  0  0  0
  2  3  1  0  0  0
  2 25  1  0  0  0
  2 85  1  0  0  0
  2 86  1  0  0  0
  3  4  1  0  0  0
  3 87  1  0  0  0
  3 88  1  0  0  0
  4  5  1  0  0  0
  4 89  1  0  0  0
  4 90  1  0  0  0
  5  6  1  0  0  0
  5 26  1  0  0  0
  5 91  1  0  0  0
  6 25  1  0  0  0
  6 92  1  0  0  0
  6 93  1  0  0  0
  7  8  2  0  0  0
  7 26  1  0  0  0
  7 29  1  0  0  0
  8  9  1  0  0  0
  8 22  1  0  0  0
  9 10  1  0  0  0
  9 27  2  0  0  0
 10 11  2  0  0  0
 10 15  1  0  0  0
 11 12  1  0  0  0
 11 94  1  0  0  0
 12 13  2  0  0  0
 12 95  1  0  0  0
 13 14  1  0  0  0
 13 31  1  0  0  0
 14 15  2  0  0  0
 14 96  1  0  0  0
 15 97  1  0  0  0
 16 17  2  0  0  0
 16 21  1  0  0  0
 16 31  1  0  0  0
 17 18  1  0  0  0
 17 98  1  0  0  0
 18 19  2  0  0  0
 18 99  1  0  0  0
 19 20  1  0  0  0
 19 24  1  0  0  0
 20 21  2  0  0  0
 20100  1  0  0  0
 21 23  1  0  0  0
 22 28  1  0  0  0
 22 32  2  0  0  0
 26 27  1  0  0  0
 28101  1  0  0  0
 28102  1  0  0  0
 29103  1  0  0  0
 29104  1  0  0  0
 33 34  1  0  0  0
 33 66  1  0  0  0
 33 70  2  0  0  0
 34 36  1  0  0  0
 34 59  1  0  0  0
 34105  1  0  0  0
 35 44  2  0  0  0
 35 45  1  0  0  0
 35 68  1  0  0  0
 36 56  1  0  0  0
 36106  1  0  0  0
 37 39  1  0  0  0
 37 47  1  0  0  0
 37 66  1  0  0  0
 37107  1  0  0  0
 38 43  2  0  0  0
 38 46  1  0  0  0
 38 47  1  0  0  0
 39 64  1  0  0  0
 39 67  2  0  0  0
 40 52  1  0  0  0
 40 53  2  0  0  0
 40 58  1  0  0  0
 41108  1  0  0  0
 41109  1  0  0  0
 41110  1  0  0  0
 41 48  1  0  0  0
 42 43  1  0  0  0
 42 66  1  0  0  0
 42111  1  0  0  0
 42112  1  0  0  0
 43 44  1  0  0  0
 44113  1  0  0  0
 45 46  2  0  0  0
 45114  1  0  0  0
 46115  1  0  0  0
 47116  1  0  0  0
 47117  1  0  0  0
 48 56  1  0  0  0
 48 65  1  0  0  0
 48118  1  0  0  0
 49 50  1  0  0  0
 49 53  1  0  0  0
 49 64  1  0  0  0
 49119  1  0  0  0
 50 51  1  0  0  0
 50120  1  0  0  0
 50121  1  0  0  0
 51 52  1  0  0  0
 51122  1  0  0  0
 51123  1  0  0  0
 52124  1  0  0  0
 52125  1  0  0  0
 53 54  1  0  0  0
 54 55  2  0  0  0
 54126  1  0  0  0
 55 57  1  0  0  0
 55127  1  0  0  0
 56 69  2  0  0  0
 57 58  2  0  0  0
 57128  1  0  0  0
 58129  1  0  0  0
 59 60  1  0  0  0
 59 61  1  0  0  0
 59 62  1  0  0  0
 60130  1  0  0  0
 60131  1  0  0  0
 60132  1  0  0  0
 61133  1  0  0  0
 61134  1  0  0  0
 61135  1  0  0  0
 62136  1  0  0  0
 62137  1  0  0  0
 62138  1  0  0  0
 63 65  1  0  0  0
 63139  1  0  0  0
 63140  1  0  0  0
 63141  1  0  0  0
 64142  1  0  0  0
 65143  1  0  0  0
 68 79  1  0  0  0
 71 72  2  0  0  0
 71 75  1  0  0  0
 71 80  1  0  0  0
 72 81  1  0  0  0
 72 84  1  0  0  0
 73 80  2  0  0  0
 73 82  1  0  0  0
 73 84  1  0  0  0
 74 77  1  0  0  0
 74 81  1  0  0  0
 74 83  2  0  0  0
 75144  1  0  0  0
 75145  1  0  0  0
 75146  1  0  0  0
 76147  1  0  0  0
 76148  1  0  0  0
 76149  1  0  0  0
 76 79  1  0  0  0
 77 78  1  0  0  0
 77150  1  0  0  0
 77151  1  0  0  0
 78 79  1  0  0  0
 78152  1  0  0  0
 78153  1  0  0  0
 79154  1  0  0  0
 81155  1  0  0  0
 82156  1  0  0  0
M  ISO  4   1 100  68 101  79 101  82 100
M  END
> <chiral flag>
0

> <version>
0

> <s_m_source_file>
/data/baiqing/PycharmProjects/Reinvent-master-3.2/result/LINK_invent/BTK/process_docking_weight1_custom_product_contain_oxygen_bond_distance_aromatic_linkinvent_7_9_3/rearranged_h_0180.sdf

> <i_m_source_file_index>
56

> <r_mmod_Potential_Energy-OPLS-2005>
-161.4111328125

> <r_mmod_Stretch_Energy-OPLS-2005>
46.4609832763672

> <r_mmod_Bend_Energy-OPLS-2005>
120.795623779297

> <r_mmod_Torsional_Energy-OPLS-2005>
227.568572998047

> <r_mmod_Improper_Torsional_Energy-OPLS-2005>
4.95691728591919

> <r_mmod_Van_der_Waal_Energy-OPLS-2005>
131.645309448242

> <r_mmod_Electrostatic_Energy-OPLS-2005>
-474.003265380859

> <r_mmod_Solvation_Energy-OPLS-2005>
-243.065505981445

> <b_mmod_Minimization_Converged-OPLS-2005>
0

> <r_mmod_RMS_Derivative-OPLS-2005>
1.4062956571579

$$$$
56
                    3D
 Structure written by MMmdl.
149157  0  0  1  0            999 V2000
  -30.5851  -14.7007   20.4924 C   0  0  0  0  0  0
  -30.4483  -12.4307   19.4603 C   0  0  0  0  0  0
  -29.5136  -12.5161   18.2311 C   0  0  0  0  0  0
  -28.0371  -12.3433   18.6423 C   0  0  0  0  0  0
  -27.6527  -13.2183   19.8645 C   0  0  2  0  0  0
  -28.6987  -13.0859   20.9947 C   0  0  0  0  0  0
  -25.2552  -13.8162   20.5685 C   0  0  0  0  0  0
  -24.1818  -13.0425   20.9172 C   0  0  0  0  0  0
  -24.6395  -11.6900   20.8731 C   0  0  0  0  0  0
  -23.9064  -10.4286   21.0400 C   0  0  0  0  0  0
  -24.3616   -9.4204   21.9180 C   0  0  0  0  0  0
  -23.6290   -8.2242   22.0753 C   0  0  0  0  0  0
  -22.4272   -8.0281   21.3543 C   0  0  0  0  0  0
  -21.9905   -9.0253   20.4645 C   0  0  0  0  0  0
  -22.7235  -10.2131   20.3052 C   0  0  0  0  0  0
  -21.6853   -6.0734   22.5279 C   0  0  0  0  0  0
  -21.4015   -6.5638   23.8212 C   0  0  0  0  0  0
  -21.3658   -5.6790   24.9173 C   0  0  0  0  0  0
  -21.6044   -4.3053   24.7225 C   0  0  0  0  0  0
  -21.8819   -3.8145   23.4346 C   0  0  0  0  0  0
  -21.9193   -4.6961   22.3402 C   0  0  0  0  0  0
  -22.7843  -13.5221   21.1845 C   0  0  0  0  0  0
  -22.1661   -4.2147   21.0979 F   0  0  0  0  0  0
  -21.5628   -3.4537   25.7737 F   0  0  0  0  0  0
  -30.0088  -13.4539   20.4327 N   0  0  0  0  0  0
  -26.2988  -12.9348   20.3329 N   0  0  0  0  0  0
  -25.9328  -11.6501   20.5759 N   0  0  0  0  0  0
  -22.0490  -12.8219   22.0410 N   0  0  0  0  0  0
  -25.4250  -15.1884   20.4135 N   0  0  0  0  0  0
  -31.7397  -14.8915   20.0997 O   0  0  0  0  0  0
  -21.6637   -6.8877   21.4241 O   0  0  0  0  0  0
  -22.3522  -14.5527   20.6699 O   0  0  0  0  0  0
  -24.6284  -31.8567   23.2000 C   0  0  0  0  0  0
  -25.9117  -32.4764   23.8341 C   0  0  1  0  0  0
  -27.2278  -27.2901   20.1274 C   0  0  0  0  0  0
  -25.5919  -33.8566   24.2264 N   0  0  0  0  0  0
  -23.4252  -30.4784   21.5423 C   0  0  2  0  0  0
  -24.8750  -28.9271   20.1122 C   0  0  0  0  0  0
  -22.7491  -29.4604   22.4920 C   0  0  0  0  0  0
  -18.0289  -28.1387   22.8486 C   0  0  0  0  0  0
  -24.1488  -36.7291   23.2641 C   0  0  0  0  0  0
  -25.9686  -30.7773   21.3777 C   0  0  0  0  0  0
  -26.0440  -29.4006   20.7230 C   0  0  0  0  0  0
  -27.2240  -28.5928   20.7230 C   0  0  0  0  0  0
  -26.0396  -26.8786   19.4850 C   0  0  0  0  0  0
  -24.8755  -27.6716   19.4841 C   0  0  0  0  0  0
  -23.6436  -29.8105   20.1589 C   0  0  0  0  0  0
  -25.4113  -36.3076   24.0328 C   0  0  1  0  0  0
  -20.5891  -28.3693   23.1276 C   0  0  2  0  0  0
  -20.6777  -26.9413   22.5409 C   0  0  0  0  0  0
  -19.5751  -26.6383   21.5213 C   0  0  0  0  0  0
  -18.1932  -26.7928   22.1628 C   0  0  0  0  0  0
  -19.1542  -28.8857   23.2876 C   0  0  0  0  0  0
  -18.9463  -30.1457   23.8894 C   0  0  0  0  0  0
  -17.6463  -30.6588   24.0562 C   0  0  0  0  0  0
  -25.9049  -34.9445   23.5099 C   0  0  0  0  0  0
  -16.5354  -29.9086   23.6331 C   0  0  0  0  0  0
  -16.7275  -28.6503   23.0353 C   0  0  0  0  0  0
  -26.4494  -31.6587   25.0725 C   0  0  0  0  0  0
  -25.3720  -31.3734   26.1447 C   0  0  0  0  0  0
  -27.0347  -30.3008   24.6205 C   0  0  0  0  0  0
  -27.6044  -32.4334   25.7497 C   0  0  0  0  0  0
  -27.5576  -37.1803   24.8466 C   0  0  0  0  0  0
  -21.4200  -29.3042   22.3666 N   0  0  0  0  0  0
  -26.4292  -37.3770   23.9403 N   0  0  0  0  0  0
  -24.6927  -31.0550   22.0966 N   0  0  0  0  0  0
  -23.4199  -28.8146   23.3015 O   0  0  0  0  0  0
  -28.3256  -26.4069   20.1452 O   0  0  0  0  0  0
  -26.5625  -34.8917   22.4671 O   0  0  0  0  0  0
  -23.5439  -32.1379   23.7306 O   0  0  0  0  0  0
  -28.5232  -19.3347   20.9995 C   0  0  0  0  0  0
  -30.7596  -18.0137   20.1329 C   0  0  0  0  0  0
  -29.7535  -17.1940   20.7045 C   0  0  0  0  0  0
  -28.6192  -17.9215   21.1383 C   0  0  0  0  0  0
  -29.5679  -20.0946   20.4137 C   0  0  0  0  0  0
  -28.1053  -25.0318   20.4367 C   0  0  0  0  0  0
  -28.9390  -23.9574   20.1825 C   0  0  0  0  0  0
  -28.5805  -22.5386   20.5522 C   0  0  0  0  0  0
  -30.6642  -19.3830   19.9993 N   0  0  0  0  0  0
  -29.7506  -15.7262   20.8695 N   0  0  0  0  0  0
  -29.5108  -21.5654   20.2395 N   0  0  0  0  0  0
  -27.5146  -22.2574   21.1051 O   0  0  0  0  0  0
  -30.1168  -24.1803   19.5811 O   0  0  0  0  0  0
  -27.5883  -17.2397   21.6945 F   0  0  0  0  0  0
  -31.4861  -12.5764   19.1557 H   0  0  0  0  0  0
  -30.4053  -11.4376   19.9102 H   0  0  0  0  0  0
  -29.7872  -11.7583   17.4957 H   0  0  0  0  0  0
  -29.6442  -13.4809   17.7381 H   0  0  0  0  0  0
  -27.8823  -11.2903   18.8807 H   0  0  0  0  0  0
  -27.3813  -12.5628   17.7989 H   0  0  0  0  0  0
  -27.6645  -14.2513   19.5163 H   0  0  0  0  0  0
  -28.7252  -12.0632   21.3739 H   0  0  0  0  0  0
  -28.4329  -13.7103   21.8490 H   0  0  0  0  0  0
  -25.2763   -9.5679   22.4752 H   0  0  0  0  0  0
  -23.9997   -7.4633   22.7474 H   0  0  0  0  0  0
  -21.0834   -8.8773   19.8953 H   0  0  0  0  0  0
  -22.3693  -10.9670   19.6161 H   0  0  0  0  0  0
  -21.2010   -7.6147   23.9714 H   0  0  0  0  0  0
  -21.1478   -6.0521   25.9076 H   0  0  0  0  0  0
  -22.0600   -2.7607   23.2847 H   0  0  0  0  0  0
  -22.4106  -11.9878   22.4796 H   0  0  0  0  0  0
  -21.1113  -13.1252   22.2625 H   0  0  0  0  0  0
  -24.6665  -15.8448   20.5610 H   0  0  0  0  0  0
  -26.2930  -15.6417   20.1613 H   0  0  0  0  0  0
  -26.7185  -32.5427   23.1088 H   0  0  0  0  0  0
  -25.0052  -33.9704   25.0399 H   0  0  0  0  0  0
  -22.7205  -31.2996   21.3959 H   0  0  0  0  0  0
  -23.3742  -35.9634   23.3317 H   0  0  0  0  0  0
  -24.3575  -36.8899   22.2053 H   0  0  0  0  0  0
  -23.7254  -37.6502   23.6657 H   0  0  0  0  0  0
  -26.1040  -31.5381   20.6076 H   0  0  0  0  0  0
  -26.8472  -30.8279   22.0092 H   0  0  0  0  0  0
  -28.1210  -28.9494   21.2095 H   0  0  0  0  0  0
  -26.0019  -25.9166   18.9938 H   0  0  0  0  0  0
  -23.9817  -27.3042   18.9988 H   0  0  0  0  0  0
  -23.7655  -30.5859   19.4016 H   0  0  0  0  0  0
  -22.7635  -29.2409   19.8552 H   0  0  0  0  0  0
  -25.1297  -36.1929   25.0822 H   0  0  0  0  0  0
  -20.9982  -28.3270   24.1397 H   0  0  0  0  0  0
  -20.5676  -26.2302   23.3611 H   0  0  0  0  0  0
  -21.6645  -26.7438   22.1203 H   0  0  0  0  0  0
  -19.6911  -25.6293   21.1245 H   0  0  0  0  0  0
  -19.6687  -27.3191   20.6742 H   0  0  0  0  0  0
  -17.4199  -26.6670   21.4034 H   0  0  0  0  0  0
  -18.0336  -26.0074   22.9028 H   0  0  0  0  0  0
  -19.7938  -30.7274   24.2265 H   0  0  0  0  0  0
  -17.5016  -31.6269   24.5162 H   0  0  0  0  0  0
  -15.5354  -30.2988   23.7656 H   0  0  0  0  0  0
  -15.8675  -28.0820   22.7073 H   0  0  0  0  0  0
  -24.5890  -30.7091   25.7774 H   0  0  0  0  0  0
  -24.8919  -32.2905   26.4872 H   0  0  0  0  0  0
  -25.8038  -30.8908   27.0224 H   0  0  0  0  0  0
  -26.2935  -29.6750   24.1220 H   0  0  0  0  0  0
  -27.4024  -29.7275   25.4726 H   0  0  0  0  0  0
  -27.8811  -30.4288   23.9454 H   0  0  0  0  0  0
  -27.2643  -33.3633   26.2068 H   0  0  0  0  0  0
  -28.3855  -32.6899   25.0327 H   0  0  0  0  0  0
  -28.0713  -31.8468   26.5419 H   0  0  0  0  0  0
  -28.2604  -38.0089   24.7493 H   0  0  0  0  0  0
  -28.1061  -36.2619   24.6320 H   0  0  0  0  0  0
  -27.2289  -37.1485   25.8869 H   0  0  0  0  0  0
  -20.9384  -29.8765   21.6873 H   0  0  0  0  0  0
  -26.0173  -38.2848   24.1390 H   0  0  0  0  0  0
  -27.6233  -19.8139   21.3513 H   0  0  0  0  0  0
  -31.6726  -17.5736   19.7604 H   0  0  0  0  0  0
  -27.1505  -24.8820   20.9253 H   0  0  0  0  0  0
  -28.8776  -15.3804   21.2406 H   0  0  0  0  0  0
  -30.3237  -21.9666   19.7940 H   0  0  0  0  0  0
  -30.1714  -25.1150   19.4243 H   0  0  0  0  0  0
  1 25  1  0  0  0
  1 30  2  0  0  0
  1 80  1  0  0  0
  2  3  1  0  0  0
  2 25  1  0  0  0
  2 85  1  0  0  0
  2 86  1  0  0  0
  3  4  1  0  0  0
  3 87  1  0  0  0
  3 88  1  0  0  0
  4  5  1  0  0  0
  4 89  1  0  0  0
  4 90  1  0  0  0
  5  6  1  0  0  0
  5 26  1  0  0  0
  5 91  1  0  0  0
  6 25  1  0  0  0
  6 92  1  0  0  0
  6 93  1  0  0  0
  7  8  2  0  0  0
  7 26  1  0  0  0
  7 29  1  0  0  0
  8  9  1  0  0  0
  8 22  1  0  0  0
  9 10  1  0  0  0
  9 27  2  0  0  0
 10 11  2  0  0  0
 10 15  1  0  0  0
 11 12  1  0  0  0
 11 94  1  0  0  0
 12 13  2  0  0  0
 12 95  1  0  0  0
 13 14  1  0  0  0
 13 31  1  0  0  0
 14 15  2  0  0  0
 14 96  1  0  0  0
 15 97  1  0  0  0
 16 17  2  0  0  0
 16 21  1  0  0  0
 16 31  1  0  0  0
 17 18  1  0  0  0
 17 98  1  0  0  0
 18 19  2  0  0  0
 18 99  1  0  0  0
 19 20  1  0  0  0
 19 24  1  0  0  0
 20 21  2  0  0  0
 20100  1  0  0  0
 21 23  1  0  0  0
 22 28  1  0  0  0
 22 32  2  0  0  0
 26 27  1  0  0  0
 28101  1  0  0  0
 28102  1  0  0  0
 29103  1  0  0  0
 29104  1  0  0  0
 33 34  1  0  0  0
 33 66  1  0  0  0
 33 70  2  0  0  0
 34 36  1  0  0  0
 34 59  1  0  0  0
 34105  1  0  0  0
 35 44  2  0  0  0
 35 45  1  0  0  0
 35 68  1  0  0  0
 36 56  1  0  0  0
 36106  1  0  0  0
 37 39  1  0  0  0
 37 47  1  0  0  0
 37 66  1  0  0  0
 37107  1  0  0  0
 38 43  2  0  0  0
 38 46  1  0  0  0
 38 47  1  0  0  0
 39 64  1  0  0  0
 39 67  2  0  0  0
 40 52  1  0  0  0
 40 53  2  0  0  0
 40 58  1  0  0  0
 41108  1  0  0  0
 41109  1  0  0  0
 41110  1  0  0  0
 41 48  1  0  0  0
 42 43  1  0  0  0
 42 66  1  0  0  0
 42111  1  0  0  0
 42112  1  0  0  0
 43 44  1  0  0  0
 44113  1  0  0  0
 45 46  2  0  0  0
 45114  1  0  0  0
 46115  1  0  0  0
 47116  1  0  0  0
 47117  1  0  0  0
 48 56  1  0  0  0
 48 65  1  0  0  0
 48118  1  0  0  0
 49 50  1  0  0  0
 49 53  1  0  0  0
 49 64  1  0  0  0
 49119  1  0  0  0
 50 51  1  0  0  0
 50120  1  0  0  0
 50121  1  0  0  0
 51 52  1  0  0  0
 51122  1  0  0  0
 51123  1  0  0  0
 52124  1  0  0  0
 52125  1  0  0  0
 53 54  1  0  0  0
 54 55  2  0  0  0
 54126  1  0  0  0
 55 57  1  0  0  0
 55127  1  0  0  0
 56 69  2  0  0  0
 57 58  2  0  0  0
 57128  1  0  0  0
 58129  1  0  0  0
 59 60  1  0  0  0
 59 61  1  0  0  0
 59 62  1  0  0  0
 60130  1  0  0  0
 60131  1  0  0  0
 60132  1  0  0  0
 61133  1  0  0  0
 61134  1  0  0  0
 61135  1  0  0  0
 62136  1  0  0  0
 62137  1  0  0  0
 62138  1  0  0  0
 63 65  1  0  0  0
 63139  1  0  0  0
 63140  1  0  0  0
 63141  1  0  0  0
 64142  1  0  0  0
 65143  1  0  0  0
 68 76  1  0  0  0
 71 74  2  0  0  0
 71 75  1  0  0  0
 71144  1  0  0  0
 72 73  2  0  0  0
 72 79  1  0  0  0
 72145  1  0  0  0
 73 74  1  0  0  0
 73 80  1  0  0  0
 74 84  1  0  0  0
 75 79  2  0  0  0
 75 81  1  0  0  0
 76 77  2  0  0  0
 76146  1  0  0  0
 77 78  1  0  0  0
 77 83  1  0  0  0
 78 81  1  0  0  0
 78 82  2  0  0  0
 80147  1  0  0  0
 81148  1  0  0  0
 83149  1  0  0  0
M  ISO  4   1 100  68 101  76 101  80 100
M  END
> <chiral flag>
0

> <version>
0

> <s_m_source_file>
/data/baiqing/PycharmProjects/Reinvent-master-3.2/result/LINK_invent/BTK/process_docking_weight1_custom_product_contain_oxygen_bond_distance_aromatic_linkinvent_7_9_3/rearranged_h_0180.sdf

> <i_m_source_file_index>
57

> <r_mmod_Potential_Energy-OPLS-2005>
-250.901824951172

> <r_mmod_Stretch_Energy-OPLS-2005>
92.4531021118164

> <r_mmod_Bend_Energy-OPLS-2005>
156.633773803711

> <r_mmod_Torsional_Energy-OPLS-2005>
205.780883789062

> <r_mmod_Improper_Torsional_Energy-OPLS-2005>
3.50378489494324

> <r_mmod_Van_der_Waal_Energy-OPLS-2005>
147.157516479492

> <r_mmod_Electrostatic_Energy-OPLS-2005>
-703.684387207031

> <r_mmod_Solvation_Energy-OPLS-2005>
-220.266952514648

> <b_mmod_Minimization_Converged-OPLS-2005>
0

> <r_mmod_RMS_Derivative-OPLS-2005>
0.283267915248871

$$$$
57
                    3D
 Structure written by MMmdl.
156164  0  0  1  0            999 V2000
  -30.6261  -14.5701   20.5254 C   0  0  0  0  0  0
  -30.4415  -12.3587   19.4286 C   0  0  0  0  0  0
  -29.5092  -12.5027   18.2059 C   0  0  0  0  0  0
  -28.0276  -12.3491   18.6144 C   0  0  0  0  0  0
  -27.6538  -13.2031   19.8566 C   0  0  2  0  0  0
  -28.6959  -13.0174   20.9810 C   0  0  0  0  0  0
  -25.2568  -13.8127   20.5645 C   0  0  0  0  0  0
  -24.1830  -13.0426   20.9168 C   0  0  0  0  0  0
  -24.6368  -11.6883   20.8708 C   0  0  0  0  0  0
  -23.9024  -10.4289   21.0394 C   0  0  0  0  0  0
  -24.3591   -9.4211   21.9174 C   0  0  0  0  0  0
  -23.6280   -8.2239   22.0752 C   0  0  0  0  0  0
  -22.4259   -8.0271   21.3549 C   0  0  0  0  0  0
  -21.9881   -9.0236   20.4645 C   0  0  0  0  0  0
  -22.7194  -10.2123   20.3051 C   0  0  0  0  0  0
  -21.6846   -6.0722   22.5271 C   0  0  0  0  0  0
  -21.4010   -6.5625   23.8203 C   0  0  0  0  0  0
  -21.3659   -5.6776   24.9167 C   0  0  0  0  0  0
  -21.6048   -4.3041   24.7216 C   0  0  0  0  0  0
  -21.8816   -3.8137   23.4335 C   0  0  0  0  0  0
  -21.9186   -4.6955   22.3395 C   0  0  0  0  0  0
  -22.7862  -13.5248   21.1829 C   0  0  0  0  0  0
  -22.1665   -4.2151   21.0973 F   0  0  0  0  0  0
  -21.5627   -3.4530   25.7732 F   0  0  0  0  0  0
  -30.0136  -13.3556   20.4217 N   0  0  0  0  0  0
  -26.2973  -12.9288   20.3239 N   0  0  0  0  0  0
  -25.9283  -11.6447   20.5663 N   0  0  0  0  0  0
  -22.0477  -12.8273   22.0382 N   0  0  0  0  0  0
  -25.4253  -15.1847   20.4092 N   0  0  0  0  0  0
  -31.7990  -14.7482   20.1853 O   0  0  0  0  0  0
  -21.6623   -6.8872   21.4236 O   0  0  0  0  0  0
  -22.3585  -14.5568   20.6662 O   0  0  0  0  0  0
  -24.6190  -31.8667   23.2029 C   0  0  0  0  0  0
  -25.9068  -32.4814   23.8357 C   0  0  1  0  0  0
  -27.2345  -27.3698   20.1311 C   0  0  0  0  0  0
  -25.5919  -33.8609   24.2301 N   0  0  0  0  0  0
  -23.4122  -30.4845   21.5450 C   0  0  2  0  0  0
  -24.8607  -28.9337   20.1224 C   0  0  0  0  0  0
  -22.7439  -29.4651   22.4960 C   0  0  0  0  0  0
  -18.0294  -28.1381   22.8501 C   0  0  0  0  0  0
  -24.1488  -36.7282   23.2637 C   0  0  0  0  0  0
  -25.9451  -30.8105   21.3647 C   0  0  0  0  0  0
  -26.0233  -29.4359   20.7216 C   0  0  0  0  0  0
  -27.2156  -28.6654   20.7160 C   0  0  0  0  0  0
  -26.0555  -26.8937   19.5239 C   0  0  0  0  0  0
  -24.8748  -27.6641   19.5171 C   0  0  0  0  0  0
  -23.6259  -29.8099   20.1634 C   0  0  0  0  0  0
  -25.4115  -36.3101   24.0338 C   0  0  1  0  0  0
  -20.5889  -28.3693   23.1303 C   0  0  2  0  0  0
  -20.6782  -26.9421   22.5424 C   0  0  0  0  0  0
  -19.5748  -26.6392   21.5231 C   0  0  0  0  0  0
  -18.1927  -26.7929   22.1638 C   0  0  0  0  0  0
  -19.1539  -28.8851   23.2894 C   0  0  0  0  0  0
  -18.9467  -30.1455   23.8906 C   0  0  0  0  0  0
  -17.6465  -30.6588   24.0581 C   0  0  0  0  0  0
  -25.9055  -34.9474   23.5113 C   0  0  0  0  0  0
  -16.5360  -29.9095   23.6324 C   0  0  0  0  0  0
  -16.7282  -28.6509   23.0358 C   0  0  0  0  0  0
  -26.4481  -31.6593   25.0695 C   0  0  0  0  0  0
  -25.3738  -31.3716   26.1443 C   0  0  0  0  0  0
  -27.0299  -30.3028   24.6071 C   0  0  0  0  0  0
  -27.6057  -32.4316   25.7461 C   0  0  0  0  0  0
  -27.5573  -37.1804   24.8471 C   0  0  0  0  0  0
  -21.4166  -29.3047   22.3691 N   0  0  0  0  0  0
  -26.4289  -37.3797   23.9409 N   0  0  0  0  0  0
  -24.6773  -31.0712   22.0955 N   0  0  0  0  0  0
  -23.4178  -28.8207   23.3044 O   0  0  0  0  0  0
  -28.3760  -26.5805   20.1041 O   0  0  0  0  0  0
  -26.5632  -34.8944   22.4687 O   0  0  0  0  0  0
  -23.5377  -32.1449   23.7394 O   0  0  0  0  0  0
  -30.1828  -19.2685   21.0217 C   0  0  0  0  0  0
  -30.4095  -19.0705   22.3723 C   0  0  0  0  0  0
  -30.0627  -16.9433   21.1645 C   0  0  0  0  0  0
  -28.5670  -24.0212   20.1816 C   0  0  0  0  0  0
  -29.4021  -22.8557   20.8862 C   0  0  0  0  0  0
  -30.8289  -20.3181   18.8194 C   0  0  0  0  0  0
  -32.1255  -19.5470   18.5793 C   0  0  0  0  0  0
  -28.3648  -25.3784   20.9414 C   0  0  0  0  0  0
  -30.4245  -20.6154   20.2797 C   0  0  1  0  0  0
  -29.8961  -18.0273   20.3750 N   0  0  0  0  0  0
  -30.6912  -20.0143   23.3534 N   0  0  0  0  0  0
  -29.7747  -15.6024   20.7523 N   0  0  0  0  0  0
  -29.3293  -21.6316   20.2976 N   0  0  0  0  0  0
  -28.0801  -23.8582   19.0559 O   0  0  0  0  0  0
  -30.1378  -23.0753   21.8532 O   0  0  0  0  0  0
  -30.1733  -20.7097   17.8467 O   0  0  0  0  0  0
  -30.4161  -17.3760   22.8262 S   0  0  0  0  0  0
  -31.4823  -12.4895   19.1258 H   0  0  0  0  0  0
  -30.3767  -11.3555   19.8503 H   0  0  0  0  0  0
  -29.7695  -11.7591   17.4509 H   0  0  0  0  0  0
  -29.6615  -13.4773   17.7369 H   0  0  0  0  0  0
  -27.8524  -11.2936   18.8239 H   0  0  0  0  0  0
  -27.3815  -12.6029   17.7741 H   0  0  0  0  0  0
  -27.6813  -14.2448   19.5373 H   0  0  0  0  0  0
  -28.6938  -11.9834   21.3307 H   0  0  0  0  0  0
  -28.4489  -13.6281   21.8511 H   0  0  0  0  0  0
  -25.2745   -9.5690   22.4728 H   0  0  0  0  0  0
  -23.9984   -7.4634   22.7482 H   0  0  0  0  0  0
  -21.0804   -8.8747   19.8964 H   0  0  0  0  0  0
  -22.3650  -10.9652   19.6145 H   0  0  0  0  0  0
  -21.2012   -7.6134   23.9712 H   0  0  0  0  0  0
  -21.1486   -6.0507   25.9071 H   0  0  0  0  0  0
  -22.0601   -2.7603   23.2828 H   0  0  0  0  0  0
  -22.4081  -11.9967   22.4846 H   0  0  0  0  0  0
  -21.1089  -13.1320   22.2544 H   0  0  0  0  0  0
  -24.6447  -15.8237   20.5180 H   0  0  0  0  0  0
  -26.2527  -15.6321   20.0388 H   0  0  0  0  0  0
  -26.7133  -32.5526   23.1117 H   0  0  0  0  0  0
  -25.0150  -33.9764   25.0502 H   0  0  0  0  0  0
  -22.7038  -31.3022   21.3997 H   0  0  0  0  0  0
  -23.3771  -35.9594   23.3321 H   0  0  0  0  0  0
  -24.3573  -36.8880   22.2046 H   0  0  0  0  0  0
  -23.7233  -37.6488   23.6637 H   0  0  0  0  0  0
  -26.0609  -31.5620   20.5837 H   0  0  0  0  0  0
  -26.8333  -30.8713   21.9827 H   0  0  0  0  0  0
  -28.1155  -29.0548   21.1719 H   0  0  0  0  0  0
  -26.0511  -25.9214   19.0521 H   0  0  0  0  0  0
  -23.9842  -27.2705   19.0482 H   0  0  0  0  0  0
  -23.7433  -30.5804   19.4009 H   0  0  0  0  0  0
  -22.7489  -29.2342   19.8642 H   0  0  0  0  0  0
  -25.1294  -36.1955   25.0832 H   0  0  0  0  0  0
  -20.9991  -28.3272   24.1422 H   0  0  0  0  0  0
  -20.5697  -26.2312   23.3631 H   0  0  0  0  0  0
  -21.6647  -26.7464   22.1199 H   0  0  0  0  0  0
  -19.6906  -25.6313   21.1234 H   0  0  0  0  0  0
  -19.6650  -27.3229   20.6781 H   0  0  0  0  0  0
  -17.4201  -26.6710   21.4031 H   0  0  0  0  0  0
  -18.0298  -26.0056   22.9014 H   0  0  0  0  0  0
  -19.7947  -30.7273   24.2257 H   0  0  0  0  0  0
  -17.5036  -31.6268   24.5200 H   0  0  0  0  0  0
  -15.5362  -30.3023   23.7626 H   0  0  0  0  0  0
  -15.8684  -28.0839   22.7065 H   0  0  0  0  0  0
  -24.5917  -30.7047   25.7794 H   0  0  0  0  0  0
  -24.8925  -32.2877   26.4863 H   0  0  0  0  0  0
  -25.8098  -30.8917   27.0215 H   0  0  0  0  0  0
  -26.2827  -29.6811   24.1125 H   0  0  0  0  0  0
  -27.4071  -29.7228   25.4504 H   0  0  0  0  0  0
  -27.8666  -30.4344   23.9212 H   0  0  0  0  0  0
  -27.2670  -33.3618   26.2034 H   0  0  0  0  0  0
  -28.3868  -32.6884   25.0287 H   0  0  0  0  0  0
  -28.0724  -31.8451   26.5385 H   0  0  0  0  0  0
  -28.2633  -38.0073   24.7532 H   0  0  0  0  0  0
  -28.1040  -36.2616   24.6289 H   0  0  0  0  0  0
  -27.2287  -37.1442   25.8878 H   0  0  0  0  0  0
  -20.9345  -29.8760   21.6888 H   0  0  0  0  0  0
  -26.0173  -38.2866   24.1440 H   0  0  0  0  0  0
  -32.9803  -20.2185   18.6422 H   0  0  0  0  0  0
  -32.1180  -19.0841   17.5928 H   0  0  0  0  0  0
  -32.2546  -18.7591   19.3215 H   0  0  0  0  0  0
  -27.4362  -25.3165   21.5113 H   0  0  0  0  0  0
  -29.1663  -25.4892   21.6705 H   0  0  0  0  0  0
  -31.3012  -21.0734   20.7391 H   0  0  0  0  0  0
  -30.6160  -21.0178   23.2029 H   0  0  0  0  0  0
  -30.8009  -19.7737   24.3349 H   0  0  0  0  0  0
  -28.8135  -15.3258   20.8556 H   0  0  0  0  0  0
  -28.7061  -21.5752   19.5037 H   0  0  0  0  0  0
  1 25  1  0  0  0
  1 30  2  0  0  0
  1 82  1  0  0  0
  2  3  1  0  0  0
  2 25  1  0  0  0
  2 88  1  0  0  0
  2 89  1  0  0  0
  3  4  1  0  0  0
  3 90  1  0  0  0
  3 91  1  0  0  0
  4  5  1  0  0  0
  4 92  1  0  0  0
  4 93  1  0  0  0
  5  6  1  0  0  0
  5 26  1  0  0  0
  5 94  1  0  0  0
  6 25  1  0  0  0
  6 95  1  0  0  0
  6 96  1  0  0  0
  7  8  2  0  0  0
  7 26  1  0  0  0
  7 29  1  0  0  0
  8  9  1  0  0  0
  8 22  1  0  0  0
  9 10  1  0  0  0
  9 27  2  0  0  0
 10 11  2  0  0  0
 10 15  1  0  0  0
 11 12  1  0  0  0
 11 97  1  0  0  0
 12 13  2  0  0  0
 12 98  1  0  0  0
 13 14  1  0  0  0
 13 31  1  0  0  0
 14 15  2  0  0  0
 14 99  1  0  0  0
 15100  1  0  0  0
 16 17  2  0  0  0
 16 21  1  0  0  0
 16 31  1  0  0  0
 17 18  1  0  0  0
 17101  1  0  0  0
 18 19  2  0  0  0
 18102  1  0  0  0
 19 20  1  0  0  0
 19 24  1  0  0  0
 20 21  2  0  0  0
 20103  1  0  0  0
 21 23  1  0  0  0
 22 28  1  0  0  0
 22 32  2  0  0  0
 26 27  1  0  0  0
 28104  1  0  0  0
 28105  1  0  0  0
 29106  1  0  0  0
 29107  1  0  0  0
 33 34  1  0  0  0
 33 66  1  0  0  0
 33 70  2  0  0  0
 34 36  1  0  0  0
 34 59  1  0  0  0
 34108  1  0  0  0
 35 44  2  0  0  0
 35 45  1  0  0  0
 35 68  1  0  0  0
 36 56  1  0  0  0
 36109  1  0  0  0
 37 39  1  0  0  0
 37 47  1  0  0  0
 37 66  1  0  0  0
 37110  1  0  0  0
 38 43  2  0  0  0
 38 46  1  0  0  0
 38 47  1  0  0  0
 39 64  1  0  0  0
 39 67  2  0  0  0
 40 52  1  0  0  0
 40 53  2  0  0  0
 40 58  1  0  0  0
 41111  1  0  0  0
 41112  1  0  0  0
 41113  1  0  0  0
 41 48  1  0  0  0
 42 43  1  0  0  0
 42 66  1  0  0  0
 42114  1  0  0  0
 42115  1  0  0  0
 43 44  1  0  0  0
 44116  1  0  0  0
 45 46  2  0  0  0
 45117  1  0  0  0
 46118  1  0  0  0
 47119  1  0  0  0
 47120  1  0  0  0
 48 56  1  0  0  0
 48 65  1  0  0  0
 48121  1  0  0  0
 49 50  1  0  0  0
 49 53  1  0  0  0
 49 64  1  0  0  0
 49122  1  0  0  0
 50 51  1  0  0  0
 50123  1  0  0  0
 50124  1  0  0  0
 51 52  1  0  0  0
 51125  1  0  0  0
 51126  1  0  0  0
 52127  1  0  0  0
 52128  1  0  0  0
 53 54  1  0  0  0
 54 55  2  0  0  0
 54129  1  0  0  0
 55 57  1  0  0  0
 55130  1  0  0  0
 56 69  2  0  0  0
 57 58  2  0  0  0
 57131  1  0  0  0
 58132  1  0  0  0
 59 60  1  0  0  0
 59 61  1  0  0  0
 59 62  1  0  0  0
 60133  1  0  0  0
 60134  1  0  0  0
 60135  1  0  0  0
 61136  1  0  0  0
 61137  1  0  0  0
 61138  1  0  0  0
 62139  1  0  0  0
 62140  1  0  0  0
 62141  1  0  0  0
 63 65  1  0  0  0
 63142  1  0  0  0
 63143  1  0  0  0
 63144  1  0  0  0
 64145  1  0  0  0
 65146  1  0  0  0
 68 78  1  0  0  0
 71 72  2  0  0  0
 71 79  1  0  0  0
 71 80  1  0  0  0
 72 81  1  0  0  0
 72 87  1  0  0  0
 73 80  2  0  0  0
 73 82  1  0  0  0
 73 87  1  0  0  0
 74 75  1  0  0  0
 74 78  1  0  0  0
 74 84  2  0  0  0
 75 83  1  0  0  0
 75 85  2  0  0  0
 76 77  1  0  0  0
 76 79  1  0  0  0
 76 86  2  0  0  0
 77147  1  0  0  0
 77148  1  0  0  0
 77149  1  0  0  0
 78150  1  0  0  0
 78151  1  0  0  0
 79 83  1  0  0  0
 79152  1  0  0  0
 81153  1  0  0  0
 81154  1  0  0  0
 82155  1  0  0  0
 83156  1  0  0  0
M  ISO  4   1 100  68 101  78 101  82 100
M  END
> <chiral flag>
0

> <version>
0

> <s_m_source_file>
/data/baiqing/PycharmProjects/Reinvent-master-3.2/result/LINK_invent/BTK/process_docking_weight1_custom_product_contain_oxygen_bond_distance_aromatic_linkinvent_7_9_3/rearranged_h_0180.sdf

> <i_m_source_file_index>
58

> <r_mmod_Potential_Energy-OPLS-2005>
-38.452320098877

> <r_mmod_Stretch_Energy-OPLS-2005>
60.420352935791

> <r_mmod_Bend_Energy-OPLS-2005>
125.832557678223

> <r_mmod_Torsional_Energy-OPLS-2005>
260.818054199219

> <r_mmod_Improper_Torsional_Energy-OPLS-2005>
12.3184328079224

> <r_mmod_Van_der_Waal_Energy-OPLS-2005>
118.21851348877

> <r_mmod_Electrostatic_Energy-OPLS-2005>
-390.919921875

> <r_mmod_Solvation_Energy-OPLS-2005>
-254.520401000977

> <b_mmod_Minimization_Converged-OPLS-2005>
0

> <r_mmod_RMS_Derivative-OPLS-2005>
2.50566101074219

$$$$
58
                    3D
 Structure written by MMmdl.
152160  0  0  1  0            999 V2000
  -30.5080  -14.9824   20.4238 C   0  0  0  0  0  0
  -30.4512  -12.6102   19.4992 C   0  0  0  0  0  0
  -29.5257  -12.5374   18.2600 C   0  0  0  0  0  0
  -28.0606  -12.3103   18.6793 C   0  0  0  0  0  0
  -27.6306  -13.2427   19.8404 C   0  0  2  0  0  0
  -28.6746  -13.2680   20.9783 C   0  0  0  0  0  0
  -25.2401  -13.8097   20.5602 C   0  0  0  0  0  0
  -24.1759  -13.0361   20.9254 C   0  0  0  0  0  0
  -24.6401  -11.6863   20.8792 C   0  0  0  0  0  0
  -23.9083  -10.4251   21.0433 C   0  0  0  0  0  0
  -24.3625   -9.4166   21.9207 C   0  0  0  0  0  0
  -23.6287   -8.2209   22.0765 C   0  0  0  0  0  0
  -22.4271   -8.0264   21.3547 C   0  0  0  0  0  0
  -21.9917   -9.0245   20.4652 C   0  0  0  0  0  0
  -22.7258  -10.2114   20.3073 C   0  0  0  0  0  0
  -21.6843   -6.0728   22.5281 C   0  0  0  0  0  0
  -21.4009   -6.5633   23.8215 C   0  0  0  0  0  0
  -21.3657   -5.6788   24.9177 C   0  0  0  0  0  0
  -21.6044   -4.3051   24.7228 C   0  0  0  0  0  0
  -21.8817   -3.8142   23.4348 C   0  0  0  0  0  0
  -21.9190   -4.6958   22.3404 C   0  0  0  0  0  0
  -22.7784  -13.5159   21.1897 C   0  0  0  0  0  0
  -22.1659   -4.2144   21.0981 F   0  0  0  0  0  0
  -21.5630   -3.4536   25.7741 F   0  0  0  0  0  0
  -29.9508  -13.7002   20.3874 N   0  0  0  0  0  0
  -26.2881  -12.9373   20.3232 N   0  0  0  0  0  0
  -25.9341  -11.6517   20.5785 N   0  0  0  0  0  0
  -22.0429  -12.8168   22.0461 N   0  0  0  0  0  0
  -25.3899  -15.1763   20.3726 N   0  0  0  0  0  0
  -31.7066  -15.0796   20.1327 O   0  0  0  0  0  0
  -21.6626   -6.8871   21.4243 O   0  0  0  0  0  0
  -22.3486  -14.5472   20.6735 O   0  0  0  0  0  0
  -24.6435  -31.8422   23.1849 C   0  0  0  0  0  0
  -25.9197  -32.4685   23.8248 C   0  0  1  0  0  0
  -27.2273  -27.1240   20.1668 C   0  0  0  0  0  0
  -25.5937  -33.8490   24.2166 N   0  0  0  0  0  0
  -23.4492  -30.4577   21.5310 C   0  0  2  0  0  0
  -24.9022  -28.8748   20.1183 C   0  0  0  0  0  0
  -22.7572  -29.4523   22.4849 C   0  0  0  0  0  0
  -18.0305  -28.1404   22.8466 C   0  0  0  0  0  0
  -24.1488  -36.7254   23.2644 C   0  0  0  0  0  0
  -26.0048  -30.7129   21.3842 C   0  0  0  0  0  0
  -26.0789  -29.3180   20.7362 C   0  0  0  0  0  0
  -27.2442  -28.4601   20.7404 C   0  0  0  0  0  0
  -26.0274  -26.7817   19.5103 C   0  0  0  0  0  0
  -24.8878  -27.6181   19.4915 C   0  0  0  0  0  0
  -23.6798  -29.7801   20.1536 C   0  0  0  0  0  0
  -25.4118  -36.3021   24.0316 C   0  0  1  0  0  0
  -20.5921  -28.3721   23.1239 C   0  0  2  0  0  0
  -20.6789  -26.9426   22.5408 C   0  0  0  0  0  0
  -19.5764  -26.6383   21.5216 C   0  0  0  0  0  0
  -18.1941  -26.7938   22.1623 C   0  0  0  0  0  0
  -19.1564  -28.8881   23.2839 C   0  0  0  0  0  0
  -18.9485  -30.1476   23.8869 C   0  0  0  0  0  0
  -17.6485  -30.6598   24.0563 C   0  0  0  0  0  0
  -25.9073  -34.9404   23.5052 C   0  0  0  0  0  0
  -16.5372  -29.9096   23.6341 C   0  0  0  0  0  0
  -16.7292  -28.6519   23.0348 C   0  0  0  0  0  0
  -26.4520  -31.6556   25.0690 C   0  0  0  0  0  0
  -25.3702  -31.3759   26.1383 C   0  0  0  0  0  0
  -27.0384  -30.2955   24.6256 C   0  0  0  0  0  0
  -27.6041  -32.4330   25.7488 C   0  0  0  0  0  0
  -27.5568  -37.1777   24.8464 C   0  0  0  0  0  0
  -21.4264  -29.3042   22.3608 N   0  0  0  0  0  0
  -26.4276  -37.3739   23.9416 N   0  0  0  0  0  0
  -24.7191  -31.0258   22.0895 N   0  0  0  0  0  0
  -23.4210  -28.8080   23.3012 O   0  0  0  0  0  0
  -28.2986  -26.1537   20.1407 O   0  0  0  0  0  0
  -26.5666  -34.8904   22.4635 O   0  0  0  0  0  0
  -23.5551  -32.1305   23.7058 O   0  0  0  0  0  0
  -30.4845  -19.9314   20.2211 C   0  0  0  0  0  0
  -28.4164  -18.3832   20.8133 C   0  0  0  0  0  0
  -29.2493  -20.6467   20.4773 C   0  0  0  0  0  0
  -29.6431  -17.6543   20.5351 C   0  0  0  0  0  0
  -28.5261  -23.2841   20.0761 C   0  0  0  0  0  0
  -27.1589  -17.6642   21.2512 C   0  0  0  0  0  0
  -27.0340  -24.6124   21.7350 C   0  0  0  0  0  0
  -28.2785  -24.7498   20.8391 C   0  0  2  0  0  0
  -30.6675  -18.5331   20.2273 N   0  0  0  0  0  0
  -28.2339  -19.7678   20.7666 N   0  0  0  0  0  0
  -29.1607  -22.1681   20.6921 N   0  0  0  0  0  0
  -29.6520  -16.1077   20.6146 N   0  0  0  0  0  0
  -28.1153  -23.1781   18.9175 O   0  0  0  0  0  0
  -31.4796  -12.7881   19.1820 H   0  0  0  0  0  0
  -30.4647  -11.6573   20.0312 H   0  0  0  0  0  0
  -29.8512  -11.7404   17.5902 H   0  0  0  0  0  0
  -29.6019  -13.4653   17.6914 H   0  0  0  0  0  0
  -27.9664  -11.2700   18.9925 H   0  0  0  0  0  0
  -27.3947  -12.4319   17.8243 H   0  0  0  0  0  0
  -27.5933  -14.2442   19.4114 H   0  0  0  0  0  0
  -28.7697  -12.2854   21.4432 H   0  0  0  0  0  0
  -28.3649  -13.9509   21.7709 H   0  0  0  0  0  0
  -25.2767   -9.5629   22.4787 H   0  0  0  0  0  0
  -23.9986   -7.4594   22.7480 H   0  0  0  0  0  0
  -21.0847   -8.8774   19.8955 H   0  0  0  0  0  0
  -22.3731  -10.9660   19.6183 H   0  0  0  0  0  0
  -21.2000   -7.6142   23.9717 H   0  0  0  0  0  0
  -21.1481   -6.0518   25.9079 H   0  0  0  0  0  0
  -22.0599   -2.7604   23.2851 H   0  0  0  0  0  0
  -22.4033  -11.9831   22.4856 H   0  0  0  0  0  0
  -21.1052  -13.1211   22.2671 H   0  0  0  0  0  0
  -24.5782  -15.7831   20.4079 H   0  0  0  0  0  0
  -26.1513  -15.5684   19.8374 H   0  0  0  0  0  0
  -26.7264  -32.5301   23.0980 H   0  0  0  0  0  0
  -25.0042  -33.9610   25.0283 H   0  0  0  0  0  0
  -22.7521  -31.2828   21.3701 H   0  0  0  0  0  0
  -23.3747  -35.9587   23.3296 H   0  0  0  0  0  0
  -24.3575  -36.8899   22.2061 H   0  0  0  0  0  0
  -23.7253  -37.6451   23.6692 H   0  0  0  0  0  0
  -26.1519  -31.4615   20.6043 H   0  0  0  0  0  0
  -26.8791  -30.7748   22.0207 H   0  0  0  0  0  0
  -28.1463  -28.8020   21.2280 H   0  0  0  0  0  0
  -25.9623  -25.8198   19.0206 H   0  0  0  0  0  0
  -23.9915  -27.2713   18.9961 H   0  0  0  0  0  0
  -23.8214  -30.5518   19.3961 H   0  0  0  0  0  0
  -22.7951  -29.2233   19.8395 H   0  0  0  0  0  0
  -25.1307  -36.1844   25.0806 H   0  0  0  0  0  0
  -20.9998  -28.3309   24.1364 H   0  0  0  0  0  0
  -20.5691  -26.2331   23.3625 H   0  0  0  0  0  0
  -21.6652  -26.7430   22.1201 H   0  0  0  0  0  0
  -19.6931  -25.6288   21.1263 H   0  0  0  0  0  0
  -19.6713  -27.3174   20.6732 H   0  0  0  0  0  0
  -17.4209  -26.6675   21.4025 H   0  0  0  0  0  0
  -18.0338  -26.0093   22.9036 H   0  0  0  0  0  0
  -19.7964  -30.7291   24.2221 H   0  0  0  0  0  0
  -17.5048  -31.6280   24.5165 H   0  0  0  0  0  0
  -15.5375  -30.2999   23.7690 H   0  0  0  0  0  0
  -15.8682  -28.0848   22.7065 H   0  0  0  0  0  0
  -24.5886  -30.7101   25.7711 H   0  0  0  0  0  0
  -24.8884  -32.2949   26.4731 H   0  0  0  0  0  0
  -25.7976  -30.8989   27.0209 H   0  0  0  0  0  0
  -26.2992  -29.6681   24.1261 H   0  0  0  0  0  0
  -27.4014  -29.7249   25.4815 H   0  0  0  0  0  0
  -27.8892  -30.4204   23.9552 H   0  0  0  0  0  0
  -27.2620  -33.3659   26.1982 H   0  0  0  0  0  0
  -28.3896  -32.6847   25.0347 H   0  0  0  0  0  0
  -28.0651  -31.8506   26.5476 H   0  0  0  0  0  0
  -28.2562  -38.0092   24.7503 H   0  0  0  0  0  0
  -28.1083  -36.2620   24.6290 H   0  0  0  0  0  0
  -27.2289  -37.1420   25.8866 H   0  0  0  0  0  0
  -20.9473  -29.8760   21.6793 H   0  0  0  0  0  0
  -26.0138  -38.2799   24.1433 H   0  0  0  0  0  0
  -31.3821  -20.5028   20.0365 H   0  0  0  0  0  0
  -26.4299  -17.6746   20.4419 H   0  0  0  0  0  0
  -26.7133  -18.1724   22.1063 H   0  0  0  0  0  0
  -27.3403  -16.6363   21.5582 H   0  0  0  0  0  0
  -27.0813  -23.7018   22.3340 H   0  0  0  0  0  0
  -26.1198  -24.5569   21.1446 H   0  0  0  0  0  0
  -26.9450  -25.4494   22.4272 H   0  0  0  0  0  0
  -29.1263  -24.8153   21.5216 H   0  0  0  0  0  0
  -29.6014  -22.4439   21.5581 H   0  0  0  0  0  0
  -28.7327  -15.7629   20.8365 H   0  0  0  0  0  0
  1 25  1  0  0  0
  1 30  2  0  0  0
  1 82  1  0  0  0
  2  3  1  0  0  0
  2 25  1  0  0  0
  2 84  1  0  0  0
  2 85  1  0  0  0
  3  4  1  0  0  0
  3 86  1  0  0  0
  3 87  1  0  0  0
  4  5  1  0  0  0
  4 88  1  0  0  0
  4 89  1  0  0  0
  5  6  1  0  0  0
  5 26  1  0  0  0
  5 90  1  0  0  0
  6 25  1  0  0  0
  6 91  1  0  0  0
  6 92  1  0  0  0
  7  8  2  0  0  0
  7 26  1  0  0  0
  7 29  1  0  0  0
  8  9  1  0  0  0
  8 22  1  0  0  0
  9 10  1  0  0  0
  9 27  2  0  0  0
 10 11  2  0  0  0
 10 15  1  0  0  0
 11 12  1  0  0  0
 11 93  1  0  0  0
 12 13  2  0  0  0
 12 94  1  0  0  0
 13 14  1  0  0  0
 13 31  1  0  0  0
 14 15  2  0  0  0
 14 95  1  0  0  0
 15 96  1  0  0  0
 16 17  2  0  0  0
 16 21  1  0  0  0
 16 31  1  0  0  0
 17 18  1  0  0  0
 17 97  1  0  0  0
 18 19  2  0  0  0
 18 98  1  0  0  0
 19 20  1  0  0  0
 19 24  1  0  0  0
 20 21  2  0  0  0
 20 99  1  0  0  0
 21 23  1  0  0  0
 22 28  1  0  0  0
 22 32  2  0  0  0
 26 27  1  0  0  0
 28100  1  0  0  0
 28101  1  0  0  0
 29102  1  0  0  0
 29103  1  0  0  0
 33 34  1  0  0  0
 33 66  1  0  0  0
 33 70  2  0  0  0
 34 36  1  0  0  0
 34 59  1  0  0  0
 34104  1  0  0  0
 35 44  2  0  0  0
 35 45  1  0  0  0
 35 68  1  0  0  0
 36 56  1  0  0  0
 36105  1  0  0  0
 37 39  1  0  0  0
 37 47  1  0  0  0
 37 66  1  0  0  0
 37106  1  0  0  0
 38 43  2  0  0  0
 38 46  1  0  0  0
 38 47  1  0  0  0
 39 64  1  0  0  0
 39 67  2  0  0  0
 40 52  1  0  0  0
 40 53  2  0  0  0
 40 58  1  0  0  0
 41107  1  0  0  0
 41108  1  0  0  0
 41109  1  0  0  0
 41 48  1  0  0  0
 42 43  1  0  0  0
 42 66  1  0  0  0
 42110  1  0  0  0
 42111  1  0  0  0
 43 44  1  0  0  0
 44112  1  0  0  0
 45 46  2  0  0  0
 45113  1  0  0  0
 46114  1  0  0  0
 47115  1  0  0  0
 47116  1  0  0  0
 48 56  1  0  0  0
 48 65  1  0  0  0
 48117  1  0  0  0
 49 50  1  0  0  0
 49 53  1  0  0  0
 49 64  1  0  0  0
 49118  1  0  0  0
 50 51  1  0  0  0
 50119  1  0  0  0
 50120  1  0  0  0
 51 52  1  0  0  0
 51121  1  0  0  0
 51122  1  0  0  0
 52123  1  0  0  0
 52124  1  0  0  0
 53 54  1  0  0  0
 54 55  2  0  0  0
 54125  1  0  0  0
 55 57  1  0  0  0
 55126  1  0  0  0
 56 69  2  0  0  0
 57 58  2  0  0  0
 57127  1  0  0  0
 58128  1  0  0  0
 59 60  1  0  0  0
 59 61  1  0  0  0
 59 62  1  0  0  0
 60129  1  0  0  0
 60130  1  0  0  0
 60131  1  0  0  0
 61132  1  0  0  0
 61133  1  0  0  0
 61134  1  0  0  0
 62135  1  0  0  0
 62136  1  0  0  0
 62137  1  0  0  0
 63 65  1  0  0  0
 63138  1  0  0  0
 63139  1  0  0  0
 63140  1  0  0  0
 64141  1  0  0  0
 65142  1  0  0  0
 68 78  1  0  0  0
 71 73  2  0  0  0
 71 79  1  0  0  0
 71143  1  0  0  0
 72 74  1  0  0  0
 72 76  1  0  0  0
 72 80  2  0  0  0
 73 80  1  0  0  0
 73 81  1  0  0  0
 74 79  2  0  0  0
 74 82  1  0  0  0
 75 78  1  0  0  0
 75 81  1  0  0  0
 75 83  2  0  0  0
 76144  1  0  0  0
 76145  1  0  0  0
 76146  1  0  0  0
 77147  1  0  0  0
 77148  1  0  0  0
 77149  1  0  0  0
 77 78  1  0  0  0
 78150  1  0  0  0
 81151  1  0  0  0
 82152  1  0  0  0
M  ISO  4   1 100  68 101  78 101  82 100
M  END
> <chiral flag>
0

> <version>
0

> <s_m_source_file>
/data/baiqing/PycharmProjects/Reinvent-master-3.2/result/LINK_invent/BTK/process_docking_weight1_custom_product_contain_oxygen_bond_distance_aromatic_linkinvent_7_9_3/rearranged_h_0180.sdf

> <i_m_source_file_index>
59

> <r_mmod_Potential_Energy-OPLS-2005>
477.65576171875

> <r_mmod_Stretch_Energy-OPLS-2005>
254.295989990234

> <r_mmod_Bend_Energy-OPLS-2005>
283.923034667969

> <r_mmod_Torsional_Energy-OPLS-2005>
270.899841308594

> <r_mmod_Improper_Torsional_Energy-OPLS-2005>
7.51293659210205

> <r_mmod_Van_der_Waal_Energy-OPLS-2005>
130.606140136719

> <r_mmod_Electrostatic_Energy-OPLS-2005>
-411.362182617188

> <r_mmod_Solvation_Energy-OPLS-2005>
-263.922760009766

> <b_mmod_Minimization_Converged-OPLS-2005>
0

> <r_mmod_RMS_Derivative-OPLS-2005>
0.987887799739838

$$$$
59
                    3D
 Structure written by MMmdl.
152160  0  0  1  0            999 V2000
  -30.6528  -14.5786   20.5120 C   0  0  0  0  0  0
  -30.4306  -12.3558   19.4404 C   0  0  0  0  0  0
  -29.5032  -12.5025   18.2148 C   0  0  0  0  0  0
  -28.0240  -12.3514   18.6261 C   0  0  0  0  0  0
  -27.6539  -13.2133   19.8637 C   0  0  2  0  0  0
  -28.6989  -13.0508   20.9910 C   0  0  0  0  0  0
  -25.2576  -13.8167   20.5701 C   0  0  0  0  0  0
  -24.1838  -13.0437   20.9196 C   0  0  0  0  0  0
  -24.6409  -11.6905   20.8733 C   0  0  0  0  0  0
  -23.9084  -10.4289   21.0401 C   0  0  0  0  0  0
  -24.3631   -9.4205   21.9184 C   0  0  0  0  0  0
  -23.6304   -8.2240   22.0756 C   0  0  0  0  0  0
  -22.4284   -8.0282   21.3547 C   0  0  0  0  0  0
  -21.9924   -9.0257   20.4652 C   0  0  0  0  0  0
  -22.7256  -10.2132   20.3059 C   0  0  0  0  0  0
  -21.6855   -6.0743   22.5289 C   0  0  0  0  0  0
  -21.4007   -6.5646   23.8222 C   0  0  0  0  0  0
  -21.3655   -5.6798   24.9182 C   0  0  0  0  0  0
  -21.6044   -4.3063   24.7231 C   0  0  0  0  0  0
  -21.8817   -3.8157   23.4351 C   0  0  0  0  0  0
  -21.9190   -4.6971   22.3407 C   0  0  0  0  0  0
  -22.7860  -13.5225   21.1868 C   0  0  0  0  0  0
  -22.1662   -4.2161   21.0983 F   0  0  0  0  0  0
  -21.5630   -3.4548   25.7744 F   0  0  0  0  0  0
  -30.0192  -13.3705   20.4269 N   0  0  0  0  0  0
  -26.2997  -12.9347   20.3324 N   0  0  0  0  0  0
  -25.9332  -11.6501   20.5741 N   0  0  0  0  0  0
  -22.0508  -12.8202   22.0417 N   0  0  0  0  0  0
  -25.4296  -15.1893   20.4150 N   0  0  0  0  0  0
  -31.8217  -14.7216   20.1381 O   0  0  0  0  0  0
  -21.6643   -6.8884   21.4248 O   0  0  0  0  0  0
  -22.3547  -14.5538   20.6735 O   0  0  0  0  0  0
  -24.6201  -31.8647   23.2065 C   0  0  0  0  0  0
  -25.9080  -32.4798   23.8375 C   0  0  1  0  0  0
  -27.2307  -27.3854   20.1137 C   0  0  0  0  0  0
  -25.5928  -33.8594   24.2309 N   0  0  0  0  0  0
  -23.4096  -30.4852   21.5490 C   0  0  2  0  0  0
  -24.8567  -28.9393   20.1214 C   0  0  0  0  0  0
  -22.7434  -29.4642   22.4994 C   0  0  0  0  0  0
  -18.0273  -28.1369   22.8498 C   0  0  0  0  0  0
  -24.1486  -36.7283   23.2629 C   0  0  0  0  0  0
  -25.9417  -30.8148   21.3658 C   0  0  0  0  0  0
  -26.0193  -29.4421   20.7195 C   0  0  0  0  0  0
  -27.2125  -28.6737   20.7098 C   0  0  0  0  0  0
  -26.0523  -26.9055   19.5096 C   0  0  0  0  0  0
  -24.8695  -27.6713   19.5138 C   0  0  0  0  0  0
  -23.6204  -29.8126   20.1667 C   0  0  0  0  0  0
  -25.4104  -36.3087   24.0337 C   0  0  1  0  0  0
  -20.5870  -28.3662   23.1309 C   0  0  2  0  0  0
  -20.6767  -26.9393   22.5411 C   0  0  0  0  0  0
  -19.5743  -26.6378   21.5209 C   0  0  0  0  0  0
  -18.1920  -26.7918   22.1616 C   0  0  0  0  0  0
  -19.1525  -28.8832   23.2896 C   0  0  0  0  0  0
  -18.9454  -30.1440   23.8903 C   0  0  0  0  0  0
  -17.6461  -30.6582   24.0560 C   0  0  0  0  0  0
  -25.9050  -34.9457   23.5123 C   0  0  0  0  0  0
  -16.5349  -29.9081   23.6338 C   0  0  0  0  0  0
  -16.7265  -28.6493   23.0372 C   0  0  0  0  0  0
  -26.4501  -31.6579   25.0713 C   0  0  0  0  0  0
  -25.3762  -31.3679   26.1462 C   0  0  0  0  0  0
  -27.0328  -30.3016   24.6101 C   0  0  0  0  0  0
  -27.6093  -32.4286   25.7470 C   0  0  0  0  0  0
  -27.5591  -37.1767   24.8446 C   0  0  0  0  0  0
  -21.4160  -29.3028   22.3719 N   0  0  0  0  0  0
  -26.4271  -37.3793   23.9446 N   0  0  0  0  0  0
  -24.6753  -31.0702   22.0989 N   0  0  0  0  0  0
  -23.4181  -28.8197   23.3066 O   0  0  0  0  0  0
  -28.3799  -26.6161   20.0434 O   0  0  0  0  0  0
  -26.5599  -34.8913   22.4683 O   0  0  0  0  0  0
  -23.5386  -32.1431   23.7433 O   0  0  0  0  0  0
  -30.1096  -19.5302   20.2728 C   0  0  0  0  0  0
  -31.2589  -19.0271   20.8529 C   0  0  0  0  0  0
  -30.1027  -17.0485   20.6932 C   0  0  0  0  0  0
  -29.8596  -20.8647   19.6199 C   0  0  0  0  0  0
  -29.0331  -23.1653   19.8998 C   0  0  0  0  0  0
  -32.5093  -19.7952   21.1605 C   0  0  0  0  0  0
  -28.0793  -24.0902   20.7121 C   0  0  0  0  0  0
  -28.5458  -25.5633   21.0278 C   0  0  0  0  0  0
  -31.2340  -17.6380   21.1016 N   0  0  0  0  0  0
  -29.8537  -15.6340   20.8256 N   0  0  0  0  0  0
  -29.1950  -21.8568   20.2797 N   0  0  0  0  0  0
  -30.3200  -20.9995   18.4807 O   0  0  0  0  0  0
  -29.5943  -23.6664   18.9198 O   0  0  0  0  0  0
  -28.9351  -18.2315   20.0521 S   0  0  0  0  0  0
  -31.4753  -12.4633   19.1418 H   0  0  0  0  0  0
  -30.3451  -11.3569   19.8705 H   0  0  0  0  0  0
  -29.7584  -11.7595   17.4582 H   0  0  0  0  0  0
  -29.6553  -13.4770   17.7474 H   0  0  0  0  0  0
  -27.8503  -11.2968   18.8442 H   0  0  0  0  0  0
  -27.3730  -12.5996   17.7865 H   0  0  0  0  0  0
  -27.6764  -14.2505   19.5303 H   0  0  0  0  0  0
  -28.6959  -12.0289   21.3732 H   0  0  0  0  0  0
  -28.4563  -13.6849   21.8451 H   0  0  0  0  0  0
  -25.2773   -9.5669   22.4757 H   0  0  0  0  0  0
  -24.0019   -7.4628   22.7470 H   0  0  0  0  0  0
  -21.0859   -8.8776   19.8948 H   0  0  0  0  0  0
  -22.3729  -10.9671   19.6166 H   0  0  0  0  0  0
  -21.1996   -7.6152   23.9727 H   0  0  0  0  0  0
  -21.1481   -6.0528   25.9081 H   0  0  0  0  0  0
  -22.0595   -2.7623   23.2858 H   0  0  0  0  0  0
  -22.4127  -11.9844   22.4758 H   0  0  0  0  0  0
  -21.1118  -13.1206   22.2632 H   0  0  0  0  0  0
  -24.6625  -15.8416   20.5359 H   0  0  0  0  0  0
  -26.2742  -15.6346   20.0799 H   0  0  0  0  0  0
  -26.7151  -32.5500   23.1134 H   0  0  0  0  0  0
  -25.0121  -33.9754   25.0490 H   0  0  0  0  0  0
  -22.7007  -31.3035   21.4066 H   0  0  0  0  0  0
  -23.3781  -35.9576   23.3223 H   0  0  0  0  0  0
  -24.3598  -36.8982   22.2062 H   0  0  0  0  0  0
  -23.7188  -37.6439   23.6698 H   0  0  0  0  0  0
  -26.0569  -31.5762   20.5927 H   0  0  0  0  0  0
  -26.8275  -30.8716   21.9856 H   0  0  0  0  0  0
  -28.1153  -29.0639   21.1595 H   0  0  0  0  0  0
  -26.0509  -25.9380   19.0284 H   0  0  0  0  0  0
  -23.9746  -27.2806   19.0487 H   0  0  0  0  0  0
  -23.7307  -30.5854   19.4052 H   0  0  0  0  0  0
  -22.7431  -29.2336   19.8741 H   0  0  0  0  0  0
  -25.1272  -36.1933   25.0828 H   0  0  0  0  0  0
  -20.9947  -28.3229   24.1436 H   0  0  0  0  0  0
  -20.5668  -26.2270   23.3602 H   0  0  0  0  0  0
  -21.6636  -26.7435   22.1203 H   0  0  0  0  0  0
  -19.6906  -25.6292   21.1230 H   0  0  0  0  0  0
  -19.6690  -27.3196   20.6749 H   0  0  0  0  0  0
  -17.4196  -26.6689   21.4006 H   0  0  0  0  0  0
  -18.0302  -26.0042   22.8994 H   0  0  0  0  0  0
  -19.7932  -30.7255   24.2269 H   0  0  0  0  0  0
  -17.5016  -31.6268   24.5148 H   0  0  0  0  0  0
  -15.5349  -30.2986   23.7655 H   0  0  0  0  0  0
  -15.8662  -28.0808   22.7105 H   0  0  0  0  0  0
  -24.5938  -30.7035   25.7782 H   0  0  0  0  0  0
  -24.8961  -32.2832   26.4929 H   0  0  0  0  0  0
  -25.8116  -30.8819   27.0204 H   0  0  0  0  0  0
  -26.2866  -29.6754   24.1199 H   0  0  0  0  0  0
  -27.4152  -29.7277   25.4553 H   0  0  0  0  0  0
  -27.8680  -30.4332   23.9219 H   0  0  0  0  0  0
  -27.2763  -33.3621   26.2015 H   0  0  0  0  0  0
  -28.3915  -32.6776   25.0286 H   0  0  0  0  0  0
  -28.0731  -31.8412   26.5405 H   0  0  0  0  0  0
  -28.2520  -38.0151   24.7644 H   0  0  0  0  0  0
  -28.1184  -36.2700   24.6085 H   0  0  0  0  0  0
  -27.2334  -37.1184   25.8845 H   0  0  0  0  0  0
  -20.9331  -29.8728   21.6911 H   0  0  0  0  0  0
  -26.0150  -38.2849   24.1543 H   0  0  0  0  0  0
  -32.3031  -20.6360   21.8238 H   0  0  0  0  0  0
  -32.9558  -20.1972   20.2507 H   0  0  0  0  0  0
  -33.2612  -19.1716   21.6452 H   0  0  0  0  0  0
  -27.9086  -23.5978   21.6692 H   0  0  0  0  0  0
  -27.1075  -24.1075   20.2203 H   0  0  0  0  0  0
  -29.6068  -25.5385   21.2782 H   0  0  0  0  0  0
  -28.0553  -25.8823   21.9489 H   0  0  0  0  0  0
  -28.8930  -15.3844   20.9947 H   0  0  0  0  0  0
  -28.7748  -21.5872   21.1551 H   0  0  0  0  0  0
  1 25  1  0  0  0
  1 30  2  0  0  0
  1 80  1  0  0  0
  2  3  1  0  0  0
  2 25  1  0  0  0
  2 85  1  0  0  0
  2 86  1  0  0  0
  3  4  1  0  0  0
  3 87  1  0  0  0
  3 88  1  0  0  0
  4  5  1  0  0  0
  4 89  1  0  0  0
  4 90  1  0  0  0
  5  6  1  0  0  0
  5 26  1  0  0  0
  5 91  1  0  0  0
  6 25  1  0  0  0
  6 92  1  0  0  0
  6 93  1  0  0  0
  7  8  2  0  0  0
  7 26  1  0  0  0
  7 29  1  0  0  0
  8  9  1  0  0  0
  8 22  1  0  0  0
  9 10  1  0  0  0
  9 27  2  0  0  0
 10 11  2  0  0  0
 10 15  1  0  0  0
 11 12  1  0  0  0
 11 94  1  0  0  0
 12 13  2  0  0  0
 12 95  1  0  0  0
 13 14  1  0  0  0
 13 31  1  0  0  0
 14 15  2  0  0  0
 14 96  1  0  0  0
 15 97  1  0  0  0
 16 17  2  0  0  0
 16 21  1  0  0  0
 16 31  1  0  0  0
 17 18  1  0  0  0
 17 98  1  0  0  0
 18 19  2  0  0  0
 18 99  1  0  0  0
 19 20  1  0  0  0
 19 24  1  0  0  0
 20 21  2  0  0  0
 20100  1  0  0  0
 21 23  1  0  0  0
 22 28  1  0  0  0
 22 32  2  0  0  0
 26 27  1  0  0  0
 28101  1  0  0  0
 28102  1  0  0  0
 29103  1  0  0  0
 29104  1  0  0  0
 33 34  1  0  0  0
 33 66  1  0  0  0
 33 70  2  0  0  0
 34 36  1  0  0  0
 34 59  1  0  0  0
 34105  1  0  0  0
 35 44  2  0  0  0
 35 45  1  0  0  0
 35 68  1  0  0  0
 36 56  1  0  0  0
 36106  1  0  0  0
 37 39  1  0  0  0
 37 47  1  0  0  0
 37 66  1  0  0  0
 37107  1  0  0  0
 38 43  2  0  0  0
 38 46  1  0  0  0
 38 47  1  0  0  0
 39 64  1  0  0  0
 39 67  2  0  0  0
 40 52  1  0  0  0
 40 53  2  0  0  0
 40 58  1  0  0  0
 41108  1  0  0  0
 41109  1  0  0  0
 41110  1  0  0  0
 41 48  1  0  0  0
 42 43  1  0  0  0
 42 66  1  0  0  0
 42111  1  0  0  0
 42112  1  0  0  0
 43 44  1  0  0  0
 44113  1  0  0  0
 45 46  2  0  0  0
 45114  1  0  0  0
 46115  1  0  0  0
 47116  1  0  0  0
 47117  1  0  0  0
 48 56  1  0  0  0
 48 65  1  0  0  0
 48118  1  0  0  0
 49 50  1  0  0  0
 49 53  1  0  0  0
 49 64  1  0  0  0
 49119  1  0  0  0
 50 51  1  0  0  0
 50120  1  0  0  0
 50121  1  0  0  0
 51 52  1  0  0  0
 51122  1  0  0  0
 51123  1  0  0  0
 52124  1  0  0  0
 52125  1  0  0  0
 53 54  1  0  0  0
 54 55  2  0  0  0
 54126  1  0  0  0
 55 57  1  0  0  0
 55127  1  0  0  0
 56 69  2  0  0  0
 57 58  2  0  0  0
 57128  1  0  0  0
 58129  1  0  0  0
 59 60  1  0  0  0
 59 61  1  0  0  0
 59 62  1  0  0  0
 60130  1  0  0  0
 60131  1  0  0  0
 60132  1  0  0  0
 61133  1  0  0  0
 61134  1  0  0  0
 61135  1  0  0  0
 62136  1  0  0  0
 62137  1  0  0  0
 62138  1  0  0  0
 63 65  1  0  0  0
 63139  1  0  0  0
 63140  1  0  0  0
 63141  1  0  0  0
 64142  1  0  0  0
 65143  1  0  0  0
 68 78  1  0  0  0
 71 72  2  0  0  0
 71 74  1  0  0  0
 71 84  1  0  0  0
 72 76  1  0  0  0
 72 79  1  0  0  0
 73 79  2  0  0  0
 73 80  1  0  0  0
 73 84  1  0  0  0
 74 81  1  0  0  0
 74 82  2  0  0  0
 75 77  1  0  0  0
 75 81  1  0  0  0
 75 83  2  0  0  0
 76144  1  0  0  0
 76145  1  0  0  0
 76146  1  0  0  0
 77 78  1  0  0  0
 77147  1  0  0  0
 77148  1  0  0  0
 78149  1  0  0  0
 78150  1  0  0  0
 80151  1  0  0  0
 81152  1  0  0  0
M  ISO  4   1 100  68 101  78 101  80 100
M  END
> <chiral flag>
0

> <version>
0

> <s_m_source_file>
/data/baiqing/PycharmProjects/Reinvent-master-3.2/result/LINK_invent/BTK/process_docking_weight1_custom_product_contain_oxygen_bond_distance_aromatic_linkinvent_7_9_3/rearranged_h_0180.sdf

> <i_m_source_file_index>
60

> <r_mmod_Potential_Energy-OPLS-2005>
-175.37971496582

> <r_mmod_Stretch_Energy-OPLS-2005>
50.6161880493164

> <r_mmod_Bend_Energy-OPLS-2005>
122.786888122559

> <r_mmod_Torsional_Energy-OPLS-2005>
275.107513427734

> <r_mmod_Improper_Torsional_Energy-OPLS-2005>
6.78865766525269

> <r_mmod_Van_der_Waal_Energy-OPLS-2005>
119.778358459473

> <r_mmod_Electrostatic_Energy-OPLS-2005>
-479.829986572266

> <r_mmod_Solvation_Energy-OPLS-2005>
-296.940185546875

> <b_mmod_Minimization_Converged-OPLS-2005>
0

> <r_mmod_RMS_Derivative-OPLS-2005>
1.60614836215973

$$$$
60
                    3D
 Structure written by MMmdl.
149157  0  0  1  0            999 V2000
  -30.5967  -14.7391   20.4396 C   0  0  0  0  0  0
  -30.4358  -12.4451   19.4646 C   0  0  0  0  0  0
  -29.5094  -12.5003   18.2293 C   0  0  0  0  0  0
  -28.0352  -12.3226   18.6467 C   0  0  0  0  0  0
  -27.6404  -13.2255   19.8451 C   0  0  2  0  0  0
  -28.6893  -13.1556   20.9781 C   0  0  0  0  0  0
  -25.2515  -13.8183   20.5694 C   0  0  0  0  0  0
  -24.1805  -13.0434   20.9221 C   0  0  0  0  0  0
  -24.6389  -11.6907   20.8760 C   0  0  0  0  0  0
  -23.9073  -10.4283   21.0417 C   0  0  0  0  0  0
  -24.3627   -9.4196   21.9182 C   0  0  0  0  0  0
  -23.6301   -8.2236   22.0753 C   0  0  0  0  0  0
  -22.4286   -8.0279   21.3546 C   0  0  0  0  0  0
  -21.9917   -9.0252   20.4654 C   0  0  0  0  0  0
  -22.7251  -10.2129   20.3061 C   0  0  0  0  0  0
  -21.6846   -6.0743   22.5284 C   0  0  0  0  0  0
  -21.4014   -6.5649   23.8220 C   0  0  0  0  0  0
  -21.3657   -5.6793   24.9177 C   0  0  0  0  0  0
  -21.6052   -4.3063   24.7220 C   0  0  0  0  0  0
  -21.8811   -3.8155   23.4340 C   0  0  0  0  0  0
  -21.9187   -4.6972   22.3399 C   0  0  0  0  0  0
  -22.7821  -13.5218   21.1859 C   0  0  0  0  0  0
  -22.1652   -4.2163   21.0975 F   0  0  0  0  0  0
  -21.5626   -3.4536   25.7729 F   0  0  0  0  0  0
  -29.9899  -13.5053   20.3938 N   0  0  0  0  0  0
  -26.2932  -12.9374   20.3253 N   0  0  0  0  0  0
  -25.9318  -11.6522   20.5749 N   0  0  0  0  0  0
  -22.0460  -12.8224   22.0420 N   0  0  0  0  0  0
  -25.4181  -15.1909   20.4096 N   0  0  0  0  0  0
  -31.7958  -14.8423   20.1614 O   0  0  0  0  0  0
  -21.6639   -6.8884   21.4251 O   0  0  0  0  0  0
  -22.3509  -14.5515   20.6689 O   0  0  0  0  0  0
  -24.6290  -31.8568   23.1978 C   0  0  0  0  0  0
  -25.9117  -32.4769   23.8334 C   0  0  1  0  0  0
  -27.2245  -27.2844   20.1312 C   0  0  0  0  0  0
  -25.5930  -33.8574   24.2272 N   0  0  0  0  0  0
  -23.4251  -30.4758   21.5429 C   0  0  2  0  0  0
  -24.8712  -28.9149   20.1204 C   0  0  0  0  0  0
  -22.7488  -29.4602   22.4941 C   0  0  0  0  0  0
  -18.0291  -28.1381   22.8480 C   0  0  0  0  0  0
  -24.1490  -36.7292   23.2638 C   0  0  0  0  0  0
  -25.9668  -30.7757   21.3714 C   0  0  0  0  0  0
  -26.0419  -29.3969   20.7206 C   0  0  0  0  0  0
  -27.2245  -28.5945   20.7102 C   0  0  0  0  0  0
  -26.0310  -26.8500   19.5218 C   0  0  0  0  0  0
  -24.8676  -27.6474   19.5135 C   0  0  0  0  0  0
  -23.6418  -29.8016   20.1623 C   0  0  0  0  0  0
  -25.4117  -36.3087   24.0330 C   0  0  1  0  0  0
  -20.5891  -28.3690   23.1281 C   0  0  2  0  0  0
  -20.6785  -26.9415   22.5412 C   0  0  0  0  0  0
  -19.5765  -26.6374   21.5215 C   0  0  0  0  0  0
  -18.1939  -26.7923   22.1619 C   0  0  0  0  0  0
  -19.1542  -28.8854   23.2876 C   0  0  0  0  0  0
  -18.9463  -30.1460   23.8886 C   0  0  0  0  0  0
  -17.6461  -30.6587   24.0560 C   0  0  0  0  0  0
  -25.9052  -34.9454   23.5101 C   0  0  0  0  0  0
  -16.5356  -29.9080   23.6333 C   0  0  0  0  0  0
  -16.7274  -28.6500   23.0347 C   0  0  0  0  0  0
  -26.4497  -31.6589   25.0719 C   0  0  0  0  0  0
  -25.3712  -31.3743   26.1436 C   0  0  0  0  0  0
  -27.0344  -30.3015   24.6175 C   0  0  0  0  0  0
  -27.6059  -32.4317   25.7487 C   0  0  0  0  0  0
  -27.5592  -37.1803   24.8466 C   0  0  0  0  0  0
  -21.4197  -29.3041   22.3676 N   0  0  0  0  0  0
  -26.4306  -37.3779   23.9405 N   0  0  0  0  0  0
  -24.6932  -31.0538   22.0943 N   0  0  0  0  0  0
  -23.4189  -28.8150   23.3045 O   0  0  0  0  0  0
  -28.3431  -26.4358   20.1014 O   0  0  0  0  0  0
  -26.5618  -34.8924   22.4669 O   0  0  0  0  0  0
  -23.5446  -32.1385   23.7280 O   0  0  0  0  0  0
  -29.5370  -19.6483   20.3468 C   0  0  0  0  0  0
  -30.9260  -19.6614   20.4479 C   0  0  0  0  0  0
  -30.0430  -17.2957   20.4881 C   0  0  0  0  0  0
  -28.6185  -20.8667   20.1451 C   0  0  0  0  0  0
  -29.0050  -22.3932   20.5987 C   0  0  0  0  0  0
  -28.4379  -23.7013   19.8639 C   0  0  0  0  0  0
  -28.2601  -25.0713   20.7053 C   0  0  0  0  0  0
  -29.0826  -18.2667   20.3742 N   0  0  0  0  0  0
  -31.8219  -20.7312   20.4495 N   0  0  0  0  0  0
  -29.7691  -15.8445   20.5572 N   0  0  0  0  0  0
  -27.4856  -20.7340   19.6588 O   0  0  0  0  0  0
  -29.7456  -22.5595   21.5755 O   0  0  0  0  0  0
  -31.6348  -18.0436   20.5637 S   0  0  0  0  0  0
  -31.4758  -12.5736   19.1621 H   0  0  0  0  0  0
  -30.3796  -11.4696   19.9493 H   0  0  0  0  0  0
  -29.7937  -11.7286   17.5122 H   0  0  0  0  0  0
  -29.6321  -13.4554   17.7159 H   0  0  0  0  0  0
  -27.8947  -11.2753   18.9148 H   0  0  0  0  0  0
  -27.3748  -12.5063   17.7978 H   0  0  0  0  0  0
  -27.6311  -14.2442   19.4590 H   0  0  0  0  0  0
  -28.7238  -12.1578   21.4170 H   0  0  0  0  0  0
  -28.4291  -13.8376   21.7891 H   0  0  0  0  0  0
  -25.2761   -9.5681   22.4760 H   0  0  0  0  0  0
  -24.0014   -7.4629   22.7475 H   0  0  0  0  0  0
  -21.0839   -8.8771   19.8971 H   0  0  0  0  0  0
  -22.3694  -10.9670   19.6176 H   0  0  0  0  0  0
  -21.2016   -7.6154   23.9729 H   0  0  0  0  0  0
  -21.1485   -6.0521   25.9083 H   0  0  0  0  0  0
  -22.0597   -2.7623   23.2825 H   0  0  0  0  0  0
  -22.4072  -11.9905   22.4849 H   0  0  0  0  0  0
  -21.1086  -13.1284   22.2615 H   0  0  0  0  0  0
  -24.6482  -15.8390   20.5346 H   0  0  0  0  0  0
  -26.2521  -15.6398   20.0537 H   0  0  0  0  0  0
  -26.7180  -32.5424   23.1078 H   0  0  0  0  0  0
  -25.0123  -33.9708   25.0448 H   0  0  0  0  0  0
  -22.7219  -31.2979   21.3950 H   0  0  0  0  0  0
  -23.3761  -35.9620   23.3299 H   0  0  0  0  0  0
  -24.3590  -36.8909   22.2056 H   0  0  0  0  0  0
  -23.7227  -37.6488   23.6655 H   0  0  0  0  0  0
  -26.0960  -31.5322   20.5967 H   0  0  0  0  0  0
  -26.8475  -30.8322   21.9992 H   0  0  0  0  0  0
  -28.1284  -28.9631   21.1747 H   0  0  0  0  0  0
  -25.9965  -25.8772   19.0522 H   0  0  0  0  0  0
  -23.9673  -27.2695   19.0476 H   0  0  0  0  0  0
  -23.7669  -30.5738   19.4034 H   0  0  0  0  0  0
  -22.7598  -29.2348   19.8588 H   0  0  0  0  0  0
  -25.1294  -36.1958   25.0825 H   0  0  0  0  0  0
  -20.9982  -28.3267   24.1403 H   0  0  0  0  0  0
  -20.5705  -26.2298   23.3608 H   0  0  0  0  0  0
  -21.6650  -26.7453   22.1198 H   0  0  0  0  0  0
  -19.6934  -25.6282   21.1253 H   0  0  0  0  0  0
  -19.6711  -27.3174   20.6739 H   0  0  0  0  0  0
  -17.4218  -26.6675   21.4012 H   0  0  0  0  0  0
  -18.0342  -26.0066   22.9015 H   0  0  0  0  0  0
  -19.7940  -30.7281   24.2242 H   0  0  0  0  0  0
  -17.5016  -31.6262   24.5167 H   0  0  0  0  0  0
  -15.5356  -30.2976   23.7655 H   0  0  0  0  0  0
  -15.8678  -28.0812   22.7057 H   0  0  0  0  0  0
  -24.5875  -30.7113   25.7758 H   0  0  0  0  0  0
  -24.8912  -32.2917   26.4854 H   0  0  0  0  0  0
  -25.8012  -30.8919   27.0221 H   0  0  0  0  0  0
  -26.2925  -29.6761   24.1200 H   0  0  0  0  0  0
  -27.4054  -29.7281   25.4680 H   0  0  0  0  0  0
  -27.8785  -30.4318   23.9397 H   0  0  0  0  0  0
  -27.2686  -33.3622   26.2065 H   0  0  0  0  0  0
  -28.3869  -32.6866   25.0311 H   0  0  0  0  0  0
  -28.0731  -31.8437   26.5397 H   0  0  0  0  0  0
  -28.2606  -38.0104   24.7519 H   0  0  0  0  0  0
  -28.1084  -36.2631   24.6284 H   0  0  0  0  0  0
  -27.2307  -37.1447   25.8869 H   0  0  0  0  0  0
  -20.9384  -29.8761   21.6876 H   0  0  0  0  0  0
  -26.0190  -38.2862   24.1395 H   0  0  0  0  0  0
  -27.4902  -23.4483   19.3888 H   0  0  0  0  0  0
  -29.1271  -23.8969   19.0437 H   0  0  0  0  0  0
  -29.0401  -25.0850   21.4668 H   0  0  0  0  0  0
  -27.3352  -24.9971   21.2786 H   0  0  0  0  0  0
  -31.5299  -21.6497   20.7807 H   0  0  0  0  0  0
  -32.8043  -20.5704   20.6575 H   0  0  0  0  0  0
  -28.7951  -15.6084   20.6536 H   0  0  0  0  0  0
  1 25  1  0  0  0
  1 30  2  0  0  0
  1 80  1  0  0  0
  2  3  1  0  0  0
  2 25  1  0  0  0
  2 84  1  0  0  0
  2 85  1  0  0  0
  3  4  1  0  0  0
  3 86  1  0  0  0
  3 87  1  0  0  0
  4  5  1  0  0  0
  4 88  1  0  0  0
  4 89  1  0  0  0
  5  6  1  0  0  0
  5 26  1  0  0  0
  5 90  1  0  0  0
  6 25  1  0  0  0
  6 91  1  0  0  0
  6 92  1  0  0  0
  7  8  2  0  0  0
  7 26  1  0  0  0
  7 29  1  0  0  0
  8  9  1  0  0  0
  8 22  1  0  0  0
  9 10  1  0  0  0
  9 27  2  0  0  0
 10 11  2  0  0  0
 10 15  1  0  0  0
 11 12  1  0  0  0
 11 93  1  0  0  0
 12 13  2  0  0  0
 12 94  1  0  0  0
 13 14  1  0  0  0
 13 31  1  0  0  0
 14 15  2  0  0  0
 14 95  1  0  0  0
 15 96  1  0  0  0
 16 17  2  0  0  0
 16 21  1  0  0  0
 16 31  1  0  0  0
 17 18  1  0  0  0
 17 97  1  0  0  0
 18 19  2  0  0  0
 18 98  1  0  0  0
 19 20  1  0  0  0
 19 24  1  0  0  0
 20 21  2  0  0  0
 20 99  1  0  0  0
 21 23  1  0  0  0
 22 28  1  0  0  0
 22 32  2  0  0  0
 26 27  1  0  0  0
 28100  1  0  0  0
 28101  1  0  0  0
 29102  1  0  0  0
 29103  1  0  0  0
 33 34  1  0  0  0
 33 66  1  0  0  0
 33 70  2  0  0  0
 34 36  1  0  0  0
 34 59  1  0  0  0
 34104  1  0  0  0
 35 44  2  0  0  0
 35 45  1  0  0  0
 35 68  1  0  0  0
 36 56  1  0  0  0
 36105  1  0  0  0
 37 39  1  0  0  0
 37 47  1  0  0  0
 37 66  1  0  0  0
 37106  1  0  0  0
 38 43  2  0  0  0
 38 46  1  0  0  0
 38 47  1  0  0  0
 39 64  1  0  0  0
 39 67  2  0  0  0
 40 52  1  0  0  0
 40 53  2  0  0  0
 40 58  1  0  0  0
 41107  1  0  0  0
 41108  1  0  0  0
 41109  1  0  0  0
 41 48  1  0  0  0
 42 43  1  0  0  0
 42 66  1  0  0  0
 42110  1  0  0  0
 42111  1  0  0  0
 43 44  1  0  0  0
 44112  1  0  0  0
 45 46  2  0  0  0
 45113  1  0  0  0
 46114  1  0  0  0
 47115  1  0  0  0
 47116  1  0  0  0
 48 56  1  0  0  0
 48 65  1  0  0  0
 48117  1  0  0  0
 49 50  1  0  0  0
 49 53  1  0  0  0
 49 64  1  0  0  0
 49118  1  0  0  0
 50 51  1  0  0  0
 50119  1  0  0  0
 50120  1  0  0  0
 51 52  1  0  0  0
 51121  1  0  0  0
 51122  1  0  0  0
 52123  1  0  0  0
 52124  1  0  0  0
 53 54  1  0  0  0
 54 55  2  0  0  0
 54125  1  0  0  0
 55 57  1  0  0  0
 55126  1  0  0  0
 56 69  2  0  0  0
 57 58  2  0  0  0
 57127  1  0  0  0
 58128  1  0  0  0
 59 60  1  0  0  0
 59 61  1  0  0  0
 59 62  1  0  0  0
 60129  1  0  0  0
 60130  1  0  0  0
 60131  1  0  0  0
 61132  1  0  0  0
 61133  1  0  0  0
 61134  1  0  0  0
 62135  1  0  0  0
 62136  1  0  0  0
 62137  1  0  0  0
 63 65  1  0  0  0
 63138  1  0  0  0
 63139  1  0  0  0
 63140  1  0  0  0
 64141  1  0  0  0
 65142  1  0  0  0
 68 77  1  0  0  0
 71 72  2  0  0  0
 71 74  1  0  0  0
 71 78  1  0  0  0
 72 79  1  0  0  0
 72 83  1  0  0  0
 73 78  2  0  0  0
 73 80  1  0  0  0
 73 83  1  0  0  0
 74 75  1  0  0  0
 74 81  2  0  0  0
 75 76  1  0  0  0
 75 82  2  0  0  0
 76 77  1  0  0  0
 76143  1  0  0  0
 76144  1  0  0  0
 77145  1  0  0  0
 77146  1  0  0  0
 79147  1  0  0  0
 79148  1  0  0  0
 80149  1  0  0  0
M  ISO  4   1 100  68 101  77 101  80 100
M  END
> <chiral flag>
0

> <version>
0

> <s_m_source_file>
/data/baiqing/PycharmProjects/Reinvent-master-3.2/result/LINK_invent/BTK/process_docking_weight1_custom_product_contain_oxygen_bond_distance_aromatic_linkinvent_7_9_3/rearranged_h_0180.sdf

> <i_m_source_file_index>
61

> <r_mmod_Potential_Energy-OPLS-2005>
240.302597045898

> <r_mmod_Stretch_Energy-OPLS-2005>
118.255310058594

> <r_mmod_Bend_Energy-OPLS-2005>
159.890869140625

> <r_mmod_Torsional_Energy-OPLS-2005>
233.251037597656

> <r_mmod_Improper_Torsional_Energy-OPLS-2005>
8.98715305328369

> <r_mmod_Van_der_Waal_Energy-OPLS-2005>
115.883674621582

> <r_mmod_Electrostatic_Energy-OPLS-2005>
-237.437835693359

> <r_mmod_Solvation_Energy-OPLS-2005>
-234.202239990234

> <b_mmod_Minimization_Converged-OPLS-2005>
0

> <r_mmod_RMS_Derivative-OPLS-2005>
2.08501291275024

$$$$
61
                    3D
 Structure written by MMmdl.
152160  0  0  1  0            999 V2000
  -30.5835  -14.8070   20.4448 C   0  0  0  0  0  0
  -30.4409  -12.4869   19.4835 C   0  0  0  0  0  0
  -29.5161  -12.5179   18.2446 C   0  0  0  0  0  0
  -28.0432  -12.3320   18.6564 C   0  0  0  0  0  0
  -27.6445  -13.2343   19.8545 C   0  0  2  0  0  0
  -28.6925  -13.1768   20.9902 C   0  0  0  0  0  0
  -25.2511  -13.8200   20.5691 C   0  0  0  0  0  0
  -24.1802  -13.0443   20.9220 C   0  0  0  0  0  0
  -24.6395  -11.6926   20.8754 C   0  0  0  0  0  0
  -23.9067  -10.4300   21.0400 C   0  0  0  0  0  0
  -24.3620   -9.4215   21.9184 C   0  0  0  0  0  0
  -23.6304   -8.2242   22.0740 C   0  0  0  0  0  0
  -22.4278   -8.0278   21.3538 C   0  0  0  0  0  0
  -21.9917   -9.0249   20.4634 C   0  0  0  0  0  0
  -22.7238  -10.2141   20.3049 C   0  0  0  0  0  0
  -21.6852   -6.0736   22.5285 C   0  0  0  0  0  0
  -21.4013   -6.5641   23.8220 C   0  0  0  0  0  0
  -21.3665   -5.6794   24.9181 C   0  0  0  0  0  0
  -21.6042   -4.3054   24.7234 C   0  0  0  0  0  0
  -21.8817   -3.8146   23.4350 C   0  0  0  0  0  0
  -21.9194   -4.6964   22.3405 C   0  0  0  0  0  0
  -22.7821  -13.5224   21.1898 C   0  0  0  0  0  0
  -22.1659   -4.2148   21.0986 F   0  0  0  0  0  0
  -21.5637   -3.4541   25.7747 F   0  0  0  0  0  0
  -29.9924  -13.5538   20.4147 N   0  0  0  0  0  0
  -26.2955  -12.9410   20.3305 N   0  0  0  0  0  0
  -25.9336  -11.6553   20.5765 N   0  0  0  0  0  0
  -22.0467  -12.8204   22.0435 N   0  0  0  0  0  0
  -25.4217  -15.1915   20.4070 N   0  0  0  0  0  0
  -31.7617  -14.9182   20.0902 O   0  0  0  0  0  0
  -21.6639   -6.8875   21.4239 O   0  0  0  0  0  0
  -22.3514  -14.5540   20.6746 O   0  0  0  0  0  0
  -24.6390  -31.8476   23.1901 C   0  0  0  0  0  0
  -25.9180  -32.4723   23.8269 C   0  0  1  0  0  0
  -27.2171  -27.2073   20.1291 C   0  0  0  0  0  0
  -25.5927  -33.8523   24.2181 N   0  0  0  0  0  0
  -23.4399  -30.4672   21.5353 C   0  0  2  0  0  0
  -24.8905  -28.9100   20.1000 C   0  0  0  0  0  0
  -22.7548  -29.4558   22.4882 C   0  0  0  0  0  0
  -18.0270  -28.1421   22.8467 C   0  0  0  0  0  0
  -24.1471  -36.7270   23.2638 C   0  0  0  0  0  0
  -25.9895  -30.7448   21.3785 C   0  0  0  0  0  0
  -26.0658  -29.3649   20.7135 C   0  0  0  0  0  0
  -27.2371  -28.5279   20.7128 C   0  0  0  0  0  0
  -26.0262  -26.8398   19.4714 C   0  0  0  0  0  0
  -24.8792  -27.6600   19.4631 C   0  0  0  0  0  0
  -23.6604  -29.7995   20.1528 C   0  0  0  0  0  0
  -25.4106  -36.3060   24.0308 C   0  0  1  0  0  0
  -20.5877  -28.3734   23.1230 C   0  0  2  0  0  0
  -20.6748  -26.9437   22.5397 C   0  0  0  0  0  0
  -19.5731  -26.6399   21.5190 C   0  0  0  0  0  0
  -18.1911  -26.7956   22.1611 C   0  0  0  0  0  0
  -19.1528  -28.8897   23.2839 C   0  0  0  0  0  0
  -18.9472  -30.1491   23.8873 C   0  0  0  0  0  0
  -17.6483  -30.6620   24.0560 C   0  0  0  0  0  0
  -25.9066  -34.9434   23.5067 C   0  0  0  0  0  0
  -16.5360  -29.9118   23.6354 C   0  0  0  0  0  0
  -16.7258  -28.6531   23.0372 C   0  0  0  0  0  0
  -26.4516  -31.6579   25.0712 C   0  0  0  0  0  0
  -25.3708  -31.3778   26.1417 C   0  0  0  0  0  0
  -27.0342  -30.2957   24.6281 C   0  0  0  0  0  0
  -27.6047  -32.4349   25.7507 C   0  0  0  0  0  0
  -27.5560  -37.1788   24.8466 C   0  0  0  0  0  0
  -21.4247  -29.3059   22.3627 N   0  0  0  0  0  0
  -26.4279  -37.3770   23.9409 N   0  0  0  0  0  0
  -24.7083  -31.0388   22.0908 N   0  0  0  0  0  0
  -23.4208  -28.8111   23.3021 O   0  0  0  0  0  0
  -28.2048  -26.1785   20.2607 O   0  0  0  0  0  0
  -26.5671  -34.8940   22.4656 O   0  0  0  0  0  0
  -23.5522  -32.1336   23.7153 O   0  0  0  0  0  0
  -30.4149  -19.5229   19.6777 C   0  0  0  0  0  0
  -29.3530  -20.0202   20.4349 C   0  0  0  0  0  0
  -29.8225  -17.3938   20.5397 C   0  0  0  0  0  0
  -28.1441  -23.6379   21.0833 C   0  0  0  0  0  0
  -27.8885  -25.0420   21.1026 C   0  0  0  0  0  0
  -28.9285  -22.6477   20.2231 C   0  0  0  0  0  0
  -31.3200  -20.3434   18.8084 C   0  0  0  0  0  0
  -27.0936  -25.5670   22.3212 C   0  0  0  0  0  0
  -30.6611  -18.1017   19.7517 N   0  0  0  0  0  0
  -28.8299  -21.3191   20.6818 N   0  0  0  0  0  0
  -29.7769  -15.9049   20.7488 N   0  0  0  0  0  0
  -29.5855  -22.9492   19.2254 O   0  0  0  0  0  0
  -27.5385  -22.9810   22.0934 O   0  0  0  0  0  0
  -28.6462  -18.5714   21.2434 S   0  0  0  0  0  0
  -31.4805  -12.6182   19.1809 H   0  0  0  0  0  0
  -30.3990  -11.5124   19.9730 H   0  0  0  0  0  0
  -29.8071  -11.7426   17.5338 H   0  0  0  0  0  0
  -29.6321  -13.4698   17.7230 H   0  0  0  0  0  0
  -27.9056  -11.2831   18.9227 H   0  0  0  0  0  0
  -27.3856  -12.5173   17.8058 H   0  0  0  0  0  0
  -27.6342  -14.2545   19.4694 H   0  0  0  0  0  0
  -28.7376  -12.1744   21.4195 H   0  0  0  0  0  0
  -28.4154  -13.8430   21.8093 H   0  0  0  0  0  0
  -25.2755   -9.5703   22.4773 H   0  0  0  0  0  0
  -24.0021   -7.4621   22.7447 H   0  0  0  0  0  0
  -21.0854   -8.8761   19.8924 H   0  0  0  0  0  0
  -22.3685  -10.9683   19.6163 H   0  0  0  0  0  0
  -21.1991   -7.6150   23.9724 H   0  0  0  0  0  0
  -21.1492   -6.0525   25.9090 H   0  0  0  0  0  0
  -22.0589   -2.7607   23.2856 H   0  0  0  0  0  0
  -22.4094  -11.9871   22.4832 H   0  0  0  0  0  0
  -21.1073  -13.1205   22.2619 H   0  0  0  0  0  0
  -24.6476  -15.8415   20.4882 H   0  0  0  0  0  0
  -26.2610  -15.6215   20.0414 H   0  0  0  0  0  0
  -26.7253  -32.5354   23.1003 H   0  0  0  0  0  0
  -24.9994  -33.9634   25.0280 H   0  0  0  0  0  0
  -22.7396  -31.2903   21.3856 H   0  0  0  0  0  0
  -23.3752  -35.9587   23.3328 H   0  0  0  0  0  0
  -24.3522  -36.8888   22.2045 H   0  0  0  0  0  0
  -23.7234  -37.6473   23.6670 H   0  0  0  0  0  0
  -26.1312  -31.5061   20.6103 H   0  0  0  0  0  0
  -26.8618  -30.7908   22.0191 H   0  0  0  0  0  0
  -28.1297  -28.8550   21.2266 H   0  0  0  0  0  0
  -25.9596  -25.8637   19.0124 H   0  0  0  0  0  0
  -23.9787  -27.3068   18.9796 H   0  0  0  0  0  0
  -23.7847  -30.5761   19.3970 H   0  0  0  0  0  0
  -22.7768  -29.2335   19.8503 H   0  0  0  0  0  0
  -25.1292  -36.1884   25.0797 H   0  0  0  0  0  0
  -20.9930  -28.3333   24.1370 H   0  0  0  0  0  0
  -20.5593  -26.2366   23.3633 H   0  0  0  0  0  0
  -21.6620  -26.7428   22.1223 H   0  0  0  0  0  0
  -19.6896  -25.6302   21.1243 H   0  0  0  0  0  0
  -19.6666  -27.3187   20.6702 H   0  0  0  0  0  0
  -17.4161  -26.6674   21.4040 H   0  0  0  0  0  0
  -18.0341  -26.0111   22.9022 H   0  0  0  0  0  0
  -19.7958  -30.7284   24.2248 H   0  0  0  0  0  0
  -17.5047  -31.6297   24.5168 H   0  0  0  0  0  0
  -15.5360  -30.3019   23.7715 H   0  0  0  0  0  0
  -15.8649  -28.0845   22.7124 H   0  0  0  0  0  0
  -24.5885  -30.7125   25.7743 H   0  0  0  0  0  0
  -24.8915  -32.2965   26.4797 H   0  0  0  0  0  0
  -25.7989  -30.8986   27.0228 H   0  0  0  0  0  0
  -26.2925  -29.6720   24.1277 H   0  0  0  0  0  0
  -27.3899  -29.7235   25.4860 H   0  0  0  0  0  0
  -27.8867  -30.4148   23.9598 H   0  0  0  0  0  0
  -27.2607  -33.3646   26.2047 H   0  0  0  0  0  0
  -28.3879  -32.6908   25.0362 H   0  0  0  0  0  0
  -28.0689  -31.8515   26.5470 H   0  0  0  0  0  0
  -28.2600  -38.0066   24.7481 H   0  0  0  0  0  0
  -28.1037  -36.2595   24.6324 H   0  0  0  0  0  0
  -27.2273  -37.1464   25.8873 H   0  0  0  0  0  0
  -20.9484  -29.8798   21.6817 H   0  0  0  0  0  0
  -26.0164  -38.2840   24.1445 H   0  0  0  0  0  0
  -31.7219  -21.1999   19.3497 H   0  0  0  0  0  0
  -30.7813  -20.7288   17.9420 H   0  0  0  0  0  0
  -32.1673  -19.7676   18.4360 H   0  0  0  0  0  0
  -27.2859  -25.0274   23.2487 H   0  0  0  0  0  0
  -26.0218  -25.5294   22.1166 H   0  0  0  0  0  0
  -27.3612  -26.5900   22.5807 H   0  0  0  0  0  0
  -28.1702  -21.3343   21.4511 H   0  0  0  0  0  0
  -28.9070  -15.6025   21.1570 H   0  0  0  0  0  0
  -27.0667  -23.6346   22.5930 H   0  0  0  0  0  0
  1 25  1  0  0  0
  1 30  2  0  0  0
  1 81  1  0  0  0
  2  3  1  0  0  0
  2 25  1  0  0  0
  2 85  1  0  0  0
  2 86  1  0  0  0
  3  4  1  0  0  0
  3 87  1  0  0  0
  3 88  1  0  0  0
  4  5  1  0  0  0
  4 89  1  0  0  0
  4 90  1  0  0  0
  5  6  1  0  0  0
  5 26  1  0  0  0
  5 91  1  0  0  0
  6 25  1  0  0  0
  6 92  1  0  0  0
  6 93  1  0  0  0
  7  8  2  0  0  0
  7 26  1  0  0  0
  7 29  1  0  0  0
  8  9  1  0  0  0
  8 22  1  0  0  0
  9 10  1  0  0  0
  9 27  2  0  0  0
 10 11  2  0  0  0
 10 15  1  0  0  0
 11 12  1  0  0  0
 11 94  1  0  0  0
 12 13  2  0  0  0
 12 95  1  0  0  0
 13 14  1  0  0  0
 13 31  1  0  0  0
 14 15  2  0  0  0
 14 96  1  0  0  0
 15 97  1  0  0  0
 16 17  2  0  0  0
 16 21  1  0  0  0
 16 31  1  0  0  0
 17 18  1  0  0  0
 17 98  1  0  0  0
 18 19  2  0  0  0
 18 99  1  0  0  0
 19 20  1  0  0  0
 19 24  1  0  0  0
 20 21  2  0  0  0
 20100  1  0  0  0
 21 23  1  0  0  0
 22 28  1  0  0  0
 22 32  2  0  0  0
 26 27  1  0  0  0
 28101  1  0  0  0
 28102  1  0  0  0
 29103  1  0  0  0
 29104  1  0  0  0
 33 34  1  0  0  0
 33 66  1  0  0  0
 33 70  2  0  0  0
 34 36  1  0  0  0
 34 59  1  0  0  0
 34105  1  0  0  0
 35 44  2  0  0  0
 35 45  1  0  0  0
 35 68  1  0  0  0
 36 56  1  0  0  0
 36106  1  0  0  0
 37 39  1  0  0  0
 37 47  1  0  0  0
 37 66  1  0  0  0
 37107  1  0  0  0
 38 43  2  0  0  0
 38 46  1  0  0  0
 38 47  1  0  0  0
 39 64  1  0  0  0
 39 67  2  0  0  0
 40 52  1  0  0  0
 40 53  2  0  0  0
 40 58  1  0  0  0
 41108  1  0  0  0
 41109  1  0  0  0
 41110  1  0  0  0
 41 48  1  0  0  0
 42 43  1  0  0  0
 42 66  1  0  0  0
 42111  1  0  0  0
 42112  1  0  0  0
 43 44  1  0  0  0
 44113  1  0  0  0
 45 46  2  0  0  0
 45114  1  0  0  0
 46115  1  0  0  0
 47116  1  0  0  0
 47117  1  0  0  0
 48 56  1  0  0  0
 48 65  1  0  0  0
 48118  1  0  0  0
 49 50  1  0  0  0
 49 53  1  0  0  0
 49 64  1  0  0  0
 49119  1  0  0  0
 50 51  1  0  0  0
 50120  1  0  0  0
 50121  1  0  0  0
 51 52  1  0  0  0
 51122  1  0  0  0
 51123  1  0  0  0
 52124  1  0  0  0
 52125  1  0  0  0
 53 54  1  0  0  0
 54 55  2  0  0  0
 54126  1  0  0  0
 55 57  1  0  0  0
 55127  1  0  0  0
 56 69  2  0  0  0
 57 58  2  0  0  0
 57128  1  0  0  0
 58129  1  0  0  0
 59 60  1  0  0  0
 59 61  1  0  0  0
 59 62  1  0  0  0
 60130  1  0  0  0
 60131  1  0  0  0
 60132  1  0  0  0
 61133  1  0  0  0
 61134  1  0  0  0
 61135  1  0  0  0
 62136  1  0  0  0
 62137  1  0  0  0
 62138  1  0  0  0
 63 65  1  0  0  0
 63139  1  0  0  0
 63140  1  0  0  0
 63141  1  0  0  0
 64142  1  0  0  0
 65143  1  0  0  0
 68 75  1  0  0  0
 71 72  2  0  0  0
 71 77  1  0  0  0
 71 79  1  0  0  0
 72 80  1  0  0  0
 72 84  1  0  0  0
 73 79  2  0  0  0
 73 81  1  0  0  0
 73 84  1  0  0  0
 74 75  2  0  0  0
 74 76  1  0  0  0
 74 83  1  0  0  0
 75 78  1  0  0  0
 76 80  1  0  0  0
 76 82  2  0  0  0
 77144  1  0  0  0
 77145  1  0  0  0
 77146  1  0  0  0
 78147  1  0  0  0
 78148  1  0  0  0
 78149  1  0  0  0
 80150  1  0  0  0
 81151  1  0  0  0
 83152  1  0  0  0
M  ISO  4   1 100  68 101  75 101  81 100
M  END
> <chiral flag>
0

> <version>
0

> <s_m_source_file>
/data/baiqing/PycharmProjects/Reinvent-master-3.2/result/LINK_invent/BTK/process_docking_weight1_custom_product_contain_oxygen_bond_distance_aromatic_linkinvent_7_9_3/rearranged_h_0180.sdf

> <i_m_source_file_index>
62

> <r_mmod_Potential_Energy-OPLS-2005>
246.10221862793

> <r_mmod_Stretch_Energy-OPLS-2005>
156.72477722168

> <r_mmod_Bend_Energy-OPLS-2005>
279.267608642578

> <r_mmod_Torsional_Energy-OPLS-2005>
220.294357299805

> <r_mmod_Improper_Torsional_Energy-OPLS-2005>
4.1617169380188

> <r_mmod_Van_der_Waal_Energy-OPLS-2005>
141.517379760742

> <r_mmod_Electrostatic_Energy-OPLS-2005>
-444.441162109375

> <r_mmod_Solvation_Energy-OPLS-2005>
-243.282165527344

> <b_mmod_Minimization_Converged-OPLS-2005>
0

> <r_mmod_RMS_Derivative-OPLS-2005>
2.75477266311646

$$$$
62
                    3D
 Structure written by MMmdl.
155163  0  0  1  0            999 V2000
  -30.7100  -14.4269   20.5859 C   0  0  0  0  0  0
  -30.4202  -12.2810   19.4142 C   0  0  0  0  0  0
  -29.4916  -12.5084   18.2029 C   0  0  0  0  0  0
  -28.0117  -12.3758   18.6143 C   0  0  0  0  0  0
  -27.6654  -13.2025   19.8815 C   0  0  2  0  0  0
  -28.7054  -12.9524   20.9981 C   0  0  0  0  0  0
  -25.2610  -13.8155   20.5693 C   0  0  0  0  0  0
  -24.1855  -13.0437   20.9181 C   0  0  0  0  0  0
  -24.6398  -11.6903   20.8737 C   0  0  0  0  0  0
  -23.9065  -10.4290   21.0405 C   0  0  0  0  0  0
  -24.3617   -9.4203   21.9182 C   0  0  0  0  0  0
  -23.6292   -8.2240   22.0753 C   0  0  0  0  0  0
  -22.4272   -8.0279   21.3544 C   0  0  0  0  0  0
  -21.9910   -9.0251   20.4646 C   0  0  0  0  0  0
  -22.7239  -10.2132   20.3054 C   0  0  0  0  0  0
  -21.6855   -6.0737   22.5280 C   0  0  0  0  0  0
  -21.4012   -6.5641   23.8214 C   0  0  0  0  0  0
  -21.3658   -5.6793   24.9177 C   0  0  0  0  0  0
  -21.6042   -4.3057   24.7228 C   0  0  0  0  0  0
  -21.8818   -3.8149   23.4352 C   0  0  0  0  0  0
  -21.9192   -4.6964   22.3403 C   0  0  0  0  0  0
  -22.7875  -13.5236   21.1843 C   0  0  0  0  0  0
  -22.1663   -4.2151   21.0980 F   0  0  0  0  0  0
  -21.5629   -3.4539   25.7738 F   0  0  0  0  0  0
  -30.0429  -13.2496   20.4539 N   0  0  0  0  0  0
  -26.3046  -12.9317   20.3399 N   0  0  0  0  0  0
  -25.9326  -11.6481   20.5781 N   0  0  0  0  0  0
  -22.0518  -12.8226   22.0398 N   0  0  0  0  0  0
  -25.4342  -15.1869   20.4095 N   0  0  0  0  0  0
  -31.8266  -14.6216   20.0940 O   0  0  0  0  0  0
  -21.6635   -6.8879   21.4237 O   0  0  0  0  0  0
  -22.3558  -14.5546   20.6696 O   0  0  0  0  0  0
  -24.6115  -31.8694   23.2133 C   0  0  0  0  0  0
  -25.9021  -32.4828   23.8423 C   0  0  1  0  0  0
  -27.2383  -27.4677   20.0957 C   0  0  0  0  0  0
  -25.5890  -33.8632   24.2355 N   0  0  0  0  0  0
  -23.3982  -30.4922   21.5524 C   0  0  2  0  0  0
  -24.8468  -28.9591   20.1180 C   0  0  0  0  0  0
  -22.7382  -29.4667   22.5010 C   0  0  0  0  0  0
  -18.0260  -28.1374   22.8501 C   0  0  0  0  0  0
  -24.1483  -36.7318   23.2642 C   0  0  0  0  0  0
  -25.9221  -30.8455   21.3612 C   0  0  0  0  0  0
  -26.0026  -29.4794   20.7153 C   0  0  0  0  0  0
  -27.2026  -28.7379   20.7073 C   0  0  0  0  0  0
  -26.0732  -26.9522   19.4943 C   0  0  0  0  0  0
  -24.8740  -27.6912   19.5081 C   0  0  0  0  0  0
  -23.6053  -29.8209   20.1679 C   0  0  0  0  0  0
  -25.4101  -36.3115   24.0346 C   0  0  1  0  0  0
  -20.5845  -28.3657   23.1328 C   0  0  2  0  0  0
  -20.6755  -26.9400   22.5419 C   0  0  0  0  0  0
  -19.5735  -26.6387   21.5212 C   0  0  0  0  0  0
  -18.1908  -26.7928   22.1618 C   0  0  0  0  0  0
  -19.1509  -28.8833   23.2914 C   0  0  0  0  0  0
  -18.9441  -30.1440   23.8922 C   0  0  0  0  0  0
  -17.6446  -30.6587   24.0567 C   0  0  0  0  0  0
  -25.9022  -34.9478   23.5142 C   0  0  0  0  0  0
  -16.5336  -29.9091   23.6332 C   0  0  0  0  0  0
  -16.7251  -28.6505   23.0359 C   0  0  0  0  0  0
  -26.4468  -31.6595   25.0732 C   0  0  0  0  0  0
  -25.3750  -31.3666   26.1484 C   0  0  0  0  0  0
  -27.0316  -30.3057   24.6076 C   0  0  0  0  0  0
  -27.6054  -32.4307   25.7481 C   0  0  0  0  0  0
  -27.5573  -37.1810   24.8466 C   0  0  0  0  0  0
  -21.4111  -29.3030   22.3743 N   0  0  0  0  0  0
  -26.4289  -37.3796   23.9411 N   0  0  0  0  0  0
  -24.6617  -31.0827   22.1015 N   0  0  0  0  0  0
  -23.4157  -28.8216   23.3053 O   0  0  0  0  0  0
  -28.4023  -26.7452   20.0437 O   0  0  0  0  0  0
  -26.5573  -34.8921   22.4695 O   0  0  0  0  0  0
  -23.5317  -32.1434   23.7548 O   0  0  0  0  0  0
  -30.8384  -18.7761   20.1970 C   0  0  0  0  0  0
  -29.5294  -18.9461   19.7960 C   0  0  0  0  0  0
  -30.0055  -16.7414   20.7767 C   0  0  0  0  0  0
  -28.8785  -23.5410   20.4665 C   0  0  0  0  0  0
  -28.1724  -24.5399   21.0439 C   0  0  0  0  0  0
  -28.3777  -22.1815   20.3095 C   0  0  0  0  0  0
  -31.9697  -19.7455   20.0394 C   0  0  0  0  0  0
  -28.9034  -20.0947   19.0526 C   0  0  0  0  0  0
  -28.6712  -25.9683   21.2076 C   0  0  0  0  0  0
  -31.0918  -17.5212   20.7680 N   0  0  0  0  0  0
  -30.0176  -15.3951   21.2034 N   0  0  0  0  0  0
  -29.2098  -21.4207   19.5882 N   0  0  0  0  0  0
  -27.2999  -21.7652   20.7425 O   0  0  0  0  0  0
  -26.9400  -24.4098   21.5655 O   0  0  0  0  0  0
  -28.5613  -17.5408   20.1839 S   0  0  0  0  0  0
  -31.4662  -12.3708   19.1135 H   0  0  0  0  0  0
  -30.3098  -11.2638   19.7938 H   0  0  0  0  0  0
  -29.7235  -11.7942   17.4117 H   0  0  0  0  0  0
  -29.6683  -13.4990   17.7810 H   0  0  0  0  0  0
  -27.8129  -11.3186   18.7969 H   0  0  0  0  0  0
  -27.3624  -12.6660   17.7872 H   0  0  0  0  0  0
  -27.7185  -14.2548   19.6011 H   0  0  0  0  0  0
  -28.6703  -11.9097   21.3173 H   0  0  0  0  0  0
  -28.4683  -13.5296   21.8925 H   0  0  0  0  0  0
  -25.2763   -9.5672   22.4758 H   0  0  0  0  0  0
  -23.9999   -7.4630   22.7473 H   0  0  0  0  0  0
  -21.0845   -8.8768   19.8953 H   0  0  0  0  0  0
  -22.3700  -10.9668   19.6160 H   0  0  0  0  0  0
  -21.2003   -7.6149   23.9717 H   0  0  0  0  0  0
  -21.1485   -6.0526   25.9077 H   0  0  0  0  0  0
  -22.0600   -2.7612   23.2852 H   0  0  0  0  0  0
  -22.4134  -11.9874   22.4761 H   0  0  0  0  0  0
  -21.1138  -13.1251   22.2620 H   0  0  0  0  0  0
  -24.6662  -15.8417   20.5124 H   0  0  0  0  0  0
  -26.2817  -15.6234   20.0706 H   0  0  0  0  0  0
  -26.7097  -32.5563   23.1200 H   0  0  0  0  0  0
  -25.0075  -33.9808   25.0523 H   0  0  0  0  0  0
  -22.6868  -31.3087   21.4135 H   0  0  0  0  0  0
  -23.3736  -35.9659   23.3322 H   0  0  0  0  0  0
  -24.3577  -36.8911   22.2051 H   0  0  0  0  0  0
  -23.7245  -37.6535   23.6643 H   0  0  0  0  0  0
  -26.0238  -31.6094   20.5889 H   0  0  0  0  0  0
  -26.8139  -30.9058   21.9730 H   0  0  0  0  0  0
  -28.0990  -29.1382   21.1607 H   0  0  0  0  0  0
  -26.0984  -25.9798   19.0226 H   0  0  0  0  0  0
  -23.9854  -27.2834   19.0468 H   0  0  0  0  0  0
  -23.7060  -30.5947   19.4054 H   0  0  0  0  0  0
  -22.7317  -29.2350   19.8771 H   0  0  0  0  0  0
  -25.1276  -36.1988   25.0841 H   0  0  0  0  0  0
  -20.9934  -28.3221   24.1449 H   0  0  0  0  0  0
  -20.5663  -26.2266   23.3598 H   0  0  0  0  0  0
  -21.6628  -26.7453   22.1209 H   0  0  0  0  0  0
  -19.6900  -25.6299   21.1237 H   0  0  0  0  0  0
  -19.6682  -27.3206   20.6747 H   0  0  0  0  0  0
  -17.4185  -26.6685   21.4014 H   0  0  0  0  0  0
  -18.0303  -26.0058   22.8999 H   0  0  0  0  0  0
  -19.7916  -30.7248   24.2306 H   0  0  0  0  0  0
  -17.4999  -31.6275   24.5153 H   0  0  0  0  0  0
  -15.5337  -30.2999   23.7647 H   0  0  0  0  0  0
  -15.8644  -28.0828   22.7075 H   0  0  0  0  0  0
  -24.5948  -30.6983   25.7818 H   0  0  0  0  0  0
  -24.8905  -32.2801   26.4947 H   0  0  0  0  0  0
  -25.8119  -30.8836   27.0235 H   0  0  0  0  0  0
  -26.2854  -29.6789   24.1176 H   0  0  0  0  0  0
  -27.4166  -29.7310   25.4510 H   0  0  0  0  0  0
  -27.8645  -30.4406   23.9169 H   0  0  0  0  0  0
  -27.2700  -33.3611   26.2080 H   0  0  0  0  0  0
  -28.3851  -32.6860   25.0289 H   0  0  0  0  0  0
  -28.0741  -31.8416   26.5376 H   0  0  0  0  0  0
  -28.2598  -38.0100   24.7505 H   0  0  0  0  0  0
  -28.1060  -36.2631   24.6304 H   0  0  0  0  0  0
  -27.2288  -37.1471   25.8868 H   0  0  0  0  0  0
  -20.9267  -29.8738   21.6957 H   0  0  0  0  0  0
  -26.0180  -38.2876   24.1411 H   0  0  0  0  0  0
  -29.8661  -23.7789   20.0954 H   0  0  0  0  0  0
  -31.9781  -20.1838   19.0417 H   0  0  0  0  0  0
  -32.9379  -19.2672   20.1890 H   0  0  0  0  0  0
  -31.8932  -20.5604   20.7588 H   0  0  0  0  0  0
  -27.8234  -19.9512   18.9816 H   0  0  0  0  0  0
  -29.2580  -20.0752   18.0213 H   0  0  0  0  0  0
  -29.7515  -25.9496   21.3592 H   0  0  0  0  0  0
  -28.2515  -26.4233   22.1076 H   0  0  0  0  0  0
  -29.1456  -15.0675   21.5862 H   0  0  0  0  0  0
  -30.0640  -21.8530   19.2652 H   0  0  0  0  0  0
  -26.6777  -23.5017   21.4433 H   0  0  0  0  0  0
  1 25  1  0  0  0
  1 30  2  0  0  0
  1 81  1  0  0  0
  2  3  1  0  0  0
  2 25  1  0  0  0
  2 86  1  0  0  0
  2 87  1  0  0  0
  3  4  1  0  0  0
  3 88  1  0  0  0
  3 89  1  0  0  0
  4  5  1  0  0  0
  4 90  1  0  0  0
  4 91  1  0  0  0
  5  6  1  0  0  0
  5 26  1  0  0  0
  5 92  1  0  0  0
  6 25  1  0  0  0
  6 93  1  0  0  0
  6 94  1  0  0  0
  7  8  2  0  0  0
  7 26  1  0  0  0
  7 29  1  0  0  0
  8  9  1  0  0  0
  8 22  1  0  0  0
  9 10  1  0  0  0
  9 27  2  0  0  0
 10 11  2  0  0  0
 10 15  1  0  0  0
 11 12  1  0  0  0
 11 95  1  0  0  0
 12 13  2  0  0  0
 12 96  1  0  0  0
 13 14  1  0  0  0
 13 31  1  0  0  0
 14 15  2  0  0  0
 14 97  1  0  0  0
 15 98  1  0  0  0
 16 17  2  0  0  0
 16 21  1  0  0  0
 16 31  1  0  0  0
 17 18  1  0  0  0
 17 99  1  0  0  0
 18 19  2  0  0  0
 18100  1  0  0  0
 19 20  1  0  0  0
 19 24  1  0  0  0
 20 21  2  0  0  0
 20101  1  0  0  0
 21 23  1  0  0  0
 22 28  1  0  0  0
 22 32  2  0  0  0
 26 27  1  0  0  0
 28102  1  0  0  0
 28103  1  0  0  0
 29104  1  0  0  0
 29105  1  0  0  0
 33 34  1  0  0  0
 33 66  1  0  0  0
 33 70  2  0  0  0
 34 36  1  0  0  0
 34 59  1  0  0  0
 34106  1  0  0  0
 35 44  2  0  0  0
 35 45  1  0  0  0
 35 68  1  0  0  0
 36 56  1  0  0  0
 36107  1  0  0  0
 37 39  1  0  0  0
 37 47  1  0  0  0
 37 66  1  0  0  0
 37108  1  0  0  0
 38 43  2  0  0  0
 38 46  1  0  0  0
 38 47  1  0  0  0
 39 64  1  0  0  0
 39 67  2  0  0  0
 40 52  1  0  0  0
 40 53  2  0  0  0
 40 58  1  0  0  0
 41109  1  0  0  0
 41110  1  0  0  0
 41111  1  0  0  0
 41 48  1  0  0  0
 42 43  1  0  0  0
 42 66  1  0  0  0
 42112  1  0  0  0
 42113  1  0  0  0
 43 44  1  0  0  0
 44114  1  0  0  0
 45 46  2  0  0  0
 45115  1  0  0  0
 46116  1  0  0  0
 47117  1  0  0  0
 47118  1  0  0  0
 48 56  1  0  0  0
 48 65  1  0  0  0
 48119  1  0  0  0
 49 50  1  0  0  0
 49 53  1  0  0  0
 49 64  1  0  0  0
 49120  1  0  0  0
 50 51  1  0  0  0
 50121  1  0  0  0
 50122  1  0  0  0
 51 52  1  0  0  0
 51123  1  0  0  0
 51124  1  0  0  0
 52125  1  0  0  0
 52126  1  0  0  0
 53 54  1  0  0  0
 54 55  2  0  0  0
 54127  1  0  0  0
 55 57  1  0  0  0
 55128  1  0  0  0
 56 69  2  0  0  0
 57 58  2  0  0  0
 57129  1  0  0  0
 58130  1  0  0  0
 59 60  1  0  0  0
 59 61  1  0  0  0
 59 62  1  0  0  0
 60131  1  0  0  0
 60132  1  0  0  0
 60133  1  0  0  0
 61134  1  0  0  0
 61135  1  0  0  0
 61136  1  0  0  0
 62137  1  0  0  0
 62138  1  0  0  0
 62139  1  0  0  0
 63 65  1  0  0  0
 63140  1  0  0  0
 63141  1  0  0  0
 63142  1  0  0  0
 64143  1  0  0  0
 65144  1  0  0  0
 68 79  1  0  0  0
 71 72  2  0  0  0
 71 77  1  0  0  0
 71 80  1  0  0  0
 72 78  1  0  0  0
 72 85  1  0  0  0
 73 80  2  0  0  0
 73 81  1  0  0  0
 73 85  1  0  0  0
 74 75  2  0  0  0
 74 76  1  0  0  0
 74145  1  0  0  0
 75 79  1  0  0  0
 75 84  1  0  0  0
 76 82  1  0  0  0
 76 83  2  0  0  0
 77146  1  0  0  0
 77147  1  0  0  0
 77148  1  0  0  0
 78 82  1  0  0  0
 78149  1  0  0  0
 78150  1  0  0  0
 79151  1  0  0  0
 79152  1  0  0  0
 81153  1  0  0  0
 82154  1  0  0  0
 84155  1  0  0  0
M  ISO  4   1 100  68 101  79 101  81 100
M  END
> <chiral flag>
0

> <version>
0

> <s_m_source_file>
/data/baiqing/PycharmProjects/Reinvent-master-3.2/result/LINK_invent/BTK/process_docking_weight1_custom_product_contain_oxygen_bond_distance_aromatic_linkinvent_7_9_3/rearranged_h_0180.sdf

> <i_m_source_file_index>
63

> <r_mmod_Potential_Energy-OPLS-2005>
-201.828826904297

> <r_mmod_Stretch_Energy-OPLS-2005>
31.1714935302734

> <r_mmod_Bend_Energy-OPLS-2005>
91.4787750244141

> <r_mmod_Torsional_Energy-OPLS-2005>
229.988479614258

> <r_mmod_Improper_Torsional_Energy-OPLS-2005>
6.00642538070679

> <r_mmod_Van_der_Waal_Energy-OPLS-2005>
126.657531738281

> <r_mmod_Electrostatic_Energy-OPLS-2005>
-441.873229980469

> <r_mmod_Solvation_Energy-OPLS-2005>
-253.416839599609

> <b_mmod_Minimization_Converged-OPLS-2005>
0

> <r_mmod_RMS_Derivative-OPLS-2005>
1.01304996013641

$$$$
63
                    3D
 Structure written by MMmdl.
151159  0  0  1  0            999 V2000
  -30.5756  -14.8459   20.4572 C   0  0  0  0  0  0
  -30.4436  -12.5246   19.4714 C   0  0  0  0  0  0
  -29.5161  -12.5263   18.2351 C   0  0  0  0  0  0
  -28.0437  -12.3316   18.6525 C   0  0  0  0  0  0
  -27.6378  -13.2379   19.8447 C   0  0  2  0  0  0
  -28.6876  -13.2123   20.9768 C   0  0  0  0  0  0
  -25.2511  -13.8200   20.5715 C   0  0  0  0  0  0
  -24.1812  -13.0441   20.9233 C   0  0  0  0  0  0
  -24.6409  -11.6922   20.8757 C   0  0  0  0  0  0
  -23.9084  -10.4304   21.0405 C   0  0  0  0  0  0
  -24.3631   -9.4215   21.9182 C   0  0  0  0  0  0
  -23.6311   -8.2244   22.0745 C   0  0  0  0  0  0
  -22.4289   -8.0290   21.3539 C   0  0  0  0  0  0
  -21.9925   -9.0262   20.4632 C   0  0  0  0  0  0
  -22.7254  -10.2147   20.3048 C   0  0  0  0  0  0
  -21.6853   -6.0741   22.5286 C   0  0  0  0  0  0
  -21.4007   -6.5639   23.8221 C   0  0  0  0  0  0
  -21.3663   -5.6789   24.9174 C   0  0  0  0  0  0
  -21.6053   -4.3051   24.7222 C   0  0  0  0  0  0
  -21.8824   -3.8145   23.4340 C   0  0  0  0  0  0
  -21.9187   -4.6965   22.3404 C   0  0  0  0  0  0
  -22.7826  -13.5210   21.1891 C   0  0  0  0  0  0
  -22.1663   -4.2153   21.0979 F   0  0  0  0  0  0
  -21.5632   -3.4539   25.7735 F   0  0  0  0  0  0
  -29.9722  -13.5999   20.3795 N   0  0  0  0  0  0
  -26.2933  -12.9416   20.3273 N   0  0  0  0  0  0
  -25.9342  -11.6556   20.5749 N   0  0  0  0  0  0
  -22.0463  -12.8190   22.0428 N   0  0  0  0  0  0
  -25.4179  -15.1928   20.4121 N   0  0  0  0  0  0
  -31.7798  -14.9352   20.1970 O   0  0  0  0  0  0
  -21.6642   -6.8893   21.4246 O   0  0  0  0  0  0
  -22.3525  -14.5529   20.6742 O   0  0  0  0  0  0
  -24.6373  -31.8495   23.1907 C   0  0  0  0  0  0
  -25.9174  -32.4718   23.8280 C   0  0  1  0  0  0
  -27.2301  -27.1997   20.1540 C   0  0  0  0  0  0
  -25.5949  -33.8521   24.2207 N   0  0  0  0  0  0
  -23.4380  -30.4673   21.5349 C   0  0  2  0  0  0
  -24.8897  -28.8914   20.1210 C   0  0  0  0  0  0
  -22.7524  -29.4584   22.4888 C   0  0  0  0  0  0
  -18.0298  -28.1392   22.8474 C   0  0  0  0  0  0
  -24.1502  -36.7275   23.2634 C   0  0  0  0  0  0
  -25.9877  -30.7425   21.3793 C   0  0  0  0  0  0
  -26.0630  -29.3538   20.7332 C   0  0  0  0  0  0
  -27.2377  -28.5231   20.7325 C   0  0  0  0  0  0
  -26.0319  -26.8115   19.5233 C   0  0  0  0  0  0
  -24.8812  -27.6284   19.5065 C   0  0  0  0  0  0
  -23.6634  -29.7874   20.1571 C   0  0  0  0  0  0
  -25.4126  -36.3047   24.0313 C   0  0  1  0  0  0
  -20.5908  -28.3724   23.1246 C   0  0  2  0  0  0
  -20.6794  -26.9436   22.5404 C   0  0  0  0  0  0
  -19.5770  -26.6390   21.5210 C   0  0  0  0  0  0
  -18.1949  -26.7934   22.1615 C   0  0  0  0  0  0
  -19.1552  -28.8869   23.2858 C   0  0  0  0  0  0
  -18.9472  -30.1466   23.8883 C   0  0  0  0  0  0
  -17.6469  -30.6592   24.0558 C   0  0  0  0  0  0
  -25.9074  -34.9421   23.5069 C   0  0  0  0  0  0
  -16.5361  -29.9088   23.6332 C   0  0  0  0  0  0
  -16.7282  -28.6506   23.0352 C   0  0  0  0  0  0
  -26.4514  -31.6555   25.0696 C   0  0  0  0  0  0
  -25.3711  -31.3735   26.1395 C   0  0  0  0  0  0
  -27.0357  -30.2952   24.6234 C   0  0  0  0  0  0
  -27.6057  -32.4297   25.7486 C   0  0  0  0  0  0
  -27.5591  -37.1786   24.8447 C   0  0  0  0  0  0
  -21.4228  -29.3058   22.3618 N   0  0  0  0  0  0
  -26.4286  -37.3762   23.9412 N   0  0  0  0  0  0
  -24.7066  -31.0401   22.0909 N   0  0  0  0  0  0
  -23.4192  -28.8147   23.3030 O   0  0  0  0  0  0
  -28.3225  -26.2863   20.1026 O   0  0  0  0  0  0
  -26.5656  -34.8911   22.4647 O   0  0  0  0  0  0
  -23.5507  -32.1340   23.7169 O   0  0  0  0  0  0
  -30.6080  -17.9159   21.9914 C   0  0  0  0  0  0
  -29.9666  -17.4519   20.8463 C   0  0  0  0  0  0
  -29.5393  -19.8557   20.7086 C   0  0  0  0  0  0
  -28.2588  -24.9397   20.6273 C   0  0  0  0  0  0
  -31.2918  -17.2097   23.0898 C   0  0  0  0  0  0
  -28.7560  -23.7350   20.0958 C   0  0  0  0  0  0
  -28.7906  -22.3916   20.8416 C   0  0  0  0  0  0
  -31.9863  -18.0130   24.1886 C   0  0  0  0  0  0
  -29.3710  -18.5961   20.1417 N   0  0  0  0  0  0
  -29.7532  -15.9856   20.5381 N   0  0  0  0  0  0
  -29.1245  -21.2032   20.1710 N   0  0  0  0  0  0
  -31.3170  -15.9805   23.1765 O   0  0  0  0  0  0
  -28.5190  -22.3338   22.0429 O   0  0  0  0  0  0
  -29.2806  -23.7577   18.8635 O   0  0  0  0  0  0
  -30.4853  -19.6812   22.1811 S   0  0  0  0  0  0
  -31.4796  -12.6746   19.1640 H   0  0  0  0  0  0
  -30.4170  -11.5561   19.9742 H   0  0  0  0  0  0
  -29.8147  -11.7459   17.5337 H   0  0  0  0  0  0
  -29.6238  -13.4725   17.7022 H   0  0  0  0  0  0
  -27.9123  -11.2832   18.9230 H   0  0  0  0  0  0
  -27.3817  -12.5100   17.8033 H   0  0  0  0  0  0
  -27.6152  -14.2521   19.4467 H   0  0  0  0  0  0
  -28.7532  -12.2233   21.4320 H   0  0  0  0  0  0
  -28.4115  -13.9005   21.7772 H   0  0  0  0  0  0
  -25.2776   -9.5683   22.4760 H   0  0  0  0  0  0
  -24.0019   -7.4625   22.7455 H   0  0  0  0  0  0
  -21.0859   -8.8773   19.8944 H   0  0  0  0  0  0
  -22.3707  -10.9680   19.6157 H   0  0  0  0  0  0
  -21.1998   -7.6147   23.9726 H   0  0  0  0  0  0
  -21.1486   -6.0512   25.9082 H   0  0  0  0  0  0
  -22.0598   -2.7613   23.2830 H   0  0  0  0  0  0
  -22.4069  -11.9841   22.4805 H   0  0  0  0  0  0
  -21.1082  -13.1214   22.2621 H   0  0  0  0  0  0
  -24.6482  -15.8410   20.5388 H   0  0  0  0  0  0
  -26.2410  -15.6338   20.0243 H   0  0  0  0  0  0
  -26.7239  -32.5355   23.1020 H   0  0  0  0  0  0
  -25.0072  -33.9643   25.0336 H   0  0  0  0  0  0
  -22.7382  -31.2903   21.3772 H   0  0  0  0  0  0
  -23.3770  -35.9599   23.3257 H   0  0  0  0  0  0
  -24.3604  -36.8944   22.2058 H   0  0  0  0  0  0
  -23.7245  -37.6456   23.6690 H   0  0  0  0  0  0
  -26.1301  -31.4947   20.6018 H   0  0  0  0  0  0
  -26.8636  -30.7997   22.0141 H   0  0  0  0  0  0
  -28.1412  -28.8808   21.2049 H   0  0  0  0  0  0
  -25.9852  -25.8432   19.0454 H   0  0  0  0  0  0
  -23.9836  -27.2677   19.0237 H   0  0  0  0  0  0
  -23.7946  -30.5555   19.3937 H   0  0  0  0  0  0
  -22.7810  -29.2206   19.8531 H   0  0  0  0  0  0
  -25.1312  -36.1874   25.0800 H   0  0  0  0  0  0
  -21.0000  -28.3316   24.1371 H   0  0  0  0  0  0
  -20.5695  -26.2337   23.3618 H   0  0  0  0  0  0
  -21.6654  -26.7456   22.1201 H   0  0  0  0  0  0
  -19.6943  -25.6299   21.1247 H   0  0  0  0  0  0
  -19.6716  -27.3189   20.6727 H   0  0  0  0  0  0
  -17.4226  -26.6678   21.4014 H   0  0  0  0  0  0
  -18.0354  -26.0071   22.9008 H   0  0  0  0  0  0
  -19.7951  -30.7281   24.2253 H   0  0  0  0  0  0
  -17.5029  -31.6269   24.5168 H   0  0  0  0  0  0
  -15.5368  -30.2988   23.7660 H   0  0  0  0  0  0
  -15.8683  -28.0820   22.7077 H   0  0  0  0  0  0
  -24.5900  -30.7073   25.7717 H   0  0  0  0  0  0
  -24.8892  -32.2914   26.4768 H   0  0  0  0  0  0
  -25.8005  -30.8942   27.0204 H   0  0  0  0  0  0
  -26.2950  -29.6686   24.1252 H   0  0  0  0  0  0
  -27.3986  -29.7235   25.4791 H   0  0  0  0  0  0
  -27.8856  -30.4184   23.9518 H   0  0  0  0  0  0
  -27.2657  -33.3602   26.2042 H   0  0  0  0  0  0
  -28.3891  -32.6840   25.0335 H   0  0  0  0  0  0
  -28.0694  -31.8426   26.5424 H   0  0  0  0  0  0
  -28.2552  -38.0138   24.7552 H   0  0  0  0  0  0
  -28.1142  -36.2670   24.6191 H   0  0  0  0  0  0
  -27.2320  -37.1326   25.8848 H   0  0  0  0  0  0
  -20.9433  -29.8742   21.6778 H   0  0  0  0  0  0
  -26.0155  -38.2824   24.1437 H   0  0  0  0  0  0
  -27.7941  -24.9486   21.6049 H   0  0  0  0  0  0
  -32.7618  -18.6488   23.7632 H   0  0  0  0  0  0
  -32.4527  -17.3475   24.9127 H   0  0  0  0  0  0
  -31.2676  -18.6349   24.7201 H   0  0  0  0  0  0
  -28.7810  -15.7453   20.4420 H   0  0  0  0  0  0
  -29.1658  -21.2983   19.1668 H   0  0  0  0  0  0
  -29.2109  -24.6517   18.5523 H   0  0  0  0  0  0
  1 25  1  0  0  0
  1 30  2  0  0  0
  1 80  1  0  0  0
  2  3  1  0  0  0
  2 25  1  0  0  0
  2 86  1  0  0  0
  2 87  1  0  0  0
  3  4  1  0  0  0
  3 88  1  0  0  0
  3 89  1  0  0  0
  4  5  1  0  0  0
  4 90  1  0  0  0
  4 91  1  0  0  0
  5  6  1  0  0  0
  5 26  1  0  0  0
  5 92  1  0  0  0
  6 25  1  0  0  0
  6 93  1  0  0  0
  6 94  1  0  0  0
  7  8  2  0  0  0
  7 26  1  0  0  0
  7 29  1  0  0  0
  8  9  1  0  0  0
  8 22  1  0  0  0
  9 10  1  0  0  0
  9 27  2  0  0  0
 10 11  2  0  0  0
 10 15  1  0  0  0
 11 12  1  0  0  0
 11 95  1  0  0  0
 12 13  2  0  0  0
 12 96  1  0  0  0
 13 14  1  0  0  0
 13 31  1  0  0  0
 14 15  2  0  0  0
 14 97  1  0  0  0
 15 98  1  0  0  0
 16 17  2  0  0  0
 16 21  1  0  0  0
 16 31  1  0  0  0
 17 18  1  0  0  0
 17 99  1  0  0  0
 18 19  2  0  0  0
 18100  1  0  0  0
 19 20  1  0  0  0
 19 24  1  0  0  0
 20 21  2  0  0  0
 20101  1  0  0  0
 21 23  1  0  0  0
 22 28  1  0  0  0
 22 32  2  0  0  0
 26 27  1  0  0  0
 28102  1  0  0  0
 28103  1  0  0  0
 29104  1  0  0  0
 29105  1  0  0  0
 33 34  1  0  0  0
 33 66  1  0  0  0
 33 70  2  0  0  0
 34 36  1  0  0  0
 34 59  1  0  0  0
 34106  1  0  0  0
 35 44  2  0  0  0
 35 45  1  0  0  0
 35 68  1  0  0  0
 36 56  1  0  0  0
 36107  1  0  0  0
 37 39  1  0  0  0
 37 47  1  0  0  0
 37 66  1  0  0  0
 37108  1  0  0  0
 38 43  2  0  0  0
 38 46  1  0  0  0
 38 47  1  0  0  0
 39 64  1  0  0  0
 39 67  2  0  0  0
 40 52  1  0  0  0
 40 53  2  0  0  0
 40 58  1  0  0  0
 41109  1  0  0  0
 41110  1  0  0  0
 41111  1  0  0  0
 41 48  1  0  0  0
 42 43  1  0  0  0
 42 66  1  0  0  0
 42112  1  0  0  0
 42113  1  0  0  0
 43 44  1  0  0  0
 44114  1  0  0  0
 45 46  2  0  0  0
 45115  1  0  0  0
 46116  1  0  0  0
 47117  1  0  0  0
 47118  1  0  0  0
 48 56  1  0  0  0
 48 65  1  0  0  0
 48119  1  0  0  0
 49 50  1  0  0  0
 49 53  1  0  0  0
 49 64  1  0  0  0
 49120  1  0  0  0
 50 51  1  0  0  0
 50121  1  0  0  0
 50122  1  0  0  0
 51 52  1  0  0  0
 51123  1  0  0  0
 51124  1  0  0  0
 52125  1  0  0  0
 52126  1  0  0  0
 53 54  1  0  0  0
 54 55  2  0  0  0
 54127  1  0  0  0
 55 57  1  0  0  0
 55128  1  0  0  0
 56 69  2  0  0  0
 57 58  2  0  0  0
 57129  1  0  0  0
 58130  1  0  0  0
 59 60  1  0  0  0
 59 61  1  0  0  0
 59 62  1  0  0  0
 60131  1  0  0  0
 60132  1  0  0  0
 60133  1  0  0  0
 61134  1  0  0  0
 61135  1  0  0  0
 61136  1  0  0  0
 62137  1  0  0  0
 62138  1  0  0  0
 62139  1  0  0  0
 63 65  1  0  0  0
 63140  1  0  0  0
 63141  1  0  0  0
 63142  1  0  0  0
 64143  1  0  0  0
 65144  1  0  0  0
 68 74  1  0  0  0
 71 72  2  0  0  0
 71 75  1  0  0  0
 71 85  1  0  0  0
 72 79  1  0  0  0
 72 80  1  0  0  0
 73 79  2  0  0  0
 73 81  1  0  0  0
 73 85  1  0  0  0
 74 76  2  0  0  0
 74145  1  0  0  0
 75 78  1  0  0  0
 75 82  2  0  0  0
 76 77  1  0  0  0
 76 84  1  0  0  0
 77 81  1  0  0  0
 77 83  2  0  0  0
 78146  1  0  0  0
 78147  1  0  0  0
 78148  1  0  0  0
 80149  1  0  0  0
 81150  1  0  0  0
 84151  1  0  0  0
M  ISO  4   1 100  68 101  74 101  80 100
M  END
> <chiral flag>
0

> <version>
0

> <s_m_source_file>
/data/baiqing/PycharmProjects/Reinvent-master-3.2/result/LINK_invent/BTK/process_docking_weight1_custom_product_contain_oxygen_bond_distance_aromatic_linkinvent_7_9_3/rearranged_h_0180.sdf

> <i_m_source_file_index>
64

> <r_mmod_Potential_Energy-OPLS-2005>
136.049911499023

> <r_mmod_Stretch_Energy-OPLS-2005>
164.729080200195

> <r_mmod_Bend_Energy-OPLS-2005>
185.556716918945

> <r_mmod_Torsional_Energy-OPLS-2005>
247.345001220703

> <r_mmod_Improper_Torsional_Energy-OPLS-2005>
9.25766563415527

> <r_mmod_Van_der_Waal_Energy-OPLS-2005>
115.310760498047

> <r_mmod_Electrostatic_Energy-OPLS-2005>
-478.445190429688

> <r_mmod_Solvation_Energy-OPLS-2005>
-235.386199951172

> <b_mmod_Minimization_Converged-OPLS-2005>
0

> <r_mmod_RMS_Derivative-OPLS-2005>
1.7589362859726

$$$$
64
                    3D
 Structure written by MMmdl.
159167  0  0  1  0            999 V2000
  -30.6898  -14.4394   20.6170 C   0  0  0  0  0  0
  -30.4325  -12.3028   19.4053 C   0  0  0  0  0  0
  -29.4940  -12.5181   18.1988 C   0  0  0  0  0  0
  -28.0147  -12.3765   18.6119 C   0  0  0  0  0  0
  -27.6673  -13.1978   19.8820 C   0  0  2  0  0  0
  -28.7071  -12.9298   20.9931 C   0  0  0  0  0  0
  -25.2604  -13.8134   20.5656 C   0  0  0  0  0  0
  -24.1840  -13.0426   20.9147 C   0  0  0  0  0  0
  -24.6387  -11.6893   20.8719 C   0  0  0  0  0  0
  -23.9050  -10.4286   21.0396 C   0  0  0  0  0  0
  -24.3606   -9.4204   21.9177 C   0  0  0  0  0  0
  -23.6285   -8.2239   22.0750 C   0  0  0  0  0  0
  -22.4268   -8.0276   21.3542 C   0  0  0  0  0  0
  -21.9898   -9.0244   20.4642 C   0  0  0  0  0  0
  -22.7221  -10.2125   20.3049 C   0  0  0  0  0  0
  -21.6851   -6.0732   22.5278 C   0  0  0  0  0  0
  -21.4011   -6.5636   23.8210 C   0  0  0  0  0  0
  -21.3660   -5.6791   24.9174 C   0  0  0  0  0  0
  -21.6045   -4.3054   24.7227 C   0  0  0  0  0  0
  -21.8821   -3.8144   23.4348 C   0  0  0  0  0  0
  -21.9191   -4.6959   22.3403 C   0  0  0  0  0  0
  -22.7868  -13.5232   21.1832 C   0  0  0  0  0  0
  -22.1661   -4.2145   21.0981 F   0  0  0  0  0  0
  -21.5631   -3.4539   25.7741 F   0  0  0  0  0  0
  -30.0440  -13.2536   20.4572 N   0  0  0  0  0  0
  -26.3049  -12.9291   20.3388 N   0  0  0  0  0  0
  -25.9313  -11.6458   20.5757 N   0  0  0  0  0  0
  -22.0516  -12.8226   22.0398 N   0  0  0  0  0  0
  -25.4336  -15.1844   20.4069 N   0  0  0  0  0  0
  -31.7753  -14.6977   20.0895 O   0  0  0  0  0  0
  -21.6635   -6.8872   21.4240 O   0  0  0  0  0  0
  -22.3549  -14.5543   20.6694 O   0  0  0  0  0  0
  -24.6118  -31.8688   23.2106 C   0  0  0  0  0  0
  -25.9022  -32.4828   23.8399 C   0  0  1  0  0  0
  -27.2393  -27.4505   20.0981 C   0  0  0  0  0  0
  -25.5894  -33.8625   24.2333 N   0  0  0  0  0  0
  -23.4006  -30.4888   21.5515 C   0  0  2  0  0  0
  -24.8498  -28.9514   20.1212 C   0  0  0  0  0  0
  -22.7401  -29.4643   22.5011 C   0  0  0  0  0  0
  -18.0266  -28.1365   22.8483 C   0  0  0  0  0  0
  -24.1490  -36.7316   23.2639 C   0  0  0  0  0  0
  -25.9268  -30.8367   21.3634 C   0  0  0  0  0  0
  -26.0074  -29.4686   20.7185 C   0  0  0  0  0  0
  -27.2074  -28.7231   20.7085 C   0  0  0  0  0  0
  -26.0706  -26.9385   19.5017 C   0  0  0  0  0  0
  -24.8742  -27.6822   19.5139 C   0  0  0  0  0  0
  -23.6104  -29.8172   20.1669 C   0  0  0  0  0  0
  -25.4109  -36.3116   24.0339 C   0  0  1  0  0  0
  -20.5853  -28.3647   23.1327 C   0  0  2  0  0  0
  -20.6758  -26.9386   22.5419 C   0  0  0  0  0  0
  -19.5744  -26.6378   21.5208 C   0  0  0  0  0  0
  -18.1917  -26.7911   22.1614 C   0  0  0  0  0  0
  -19.1515  -28.8824   23.2897 C   0  0  0  0  0  0
  -18.9450  -30.1433   23.8904 C   0  0  0  0  0  0
  -17.6453  -30.6577   24.0557 C   0  0  0  0  0  0
  -25.9031  -34.9478   23.5133 C   0  0  0  0  0  0
  -16.5342  -29.9078   23.6320 C   0  0  0  0  0  0
  -16.7258  -28.6495   23.0338 C   0  0  0  0  0  0
  -26.4468  -31.6603   25.0713 C   0  0  0  0  0  0
  -25.3736  -31.3699   26.1466 C   0  0  0  0  0  0
  -27.0301  -30.3053   24.6062 C   0  0  0  0  0  0
  -27.6046  -32.4321   25.7470 C   0  0  0  0  0  0
  -27.5587  -37.1813   24.8467 C   0  0  0  0  0  0
  -21.4130  -29.3018   22.3746 N   0  0  0  0  0  0
  -26.4300  -37.3795   23.9404 N   0  0  0  0  0  0
  -24.6644  -31.0788   22.1008 N   0  0  0  0  0  0
  -23.4170  -28.8186   23.3056 O   0  0  0  0  0  0
  -28.4023  -26.7244   20.0263 O   0  0  0  0  0  0
  -26.5592  -34.8928   22.4693 O   0  0  0  0  0  0
  -23.5316  -32.1446   23.7504 O   0  0  0  0  0  0
  -28.8601  -18.8392   21.7009 C   0  0  0  0  0  0
  -31.1347  -17.5390   20.8771 C   0  0  0  0  0  0
  -30.0408  -16.7557   21.2989 C   0  0  0  0  0  0
  -28.8893  -17.4373   21.7186 C   0  0  0  0  0  0
  -29.9943  -19.5549   21.2622 C   0  0  0  0  0  0
  -29.0194  -21.8735   21.2308 C   0  0  0  0  0  0
  -30.8331  -23.5877   21.8256 C   0  0  0  0  0  0
  -28.6368  -23.5098   23.0567 C   0  0  0  0  0  0
  -28.7080  -24.3666   20.6549 C   0  0  0  0  0  0
  -28.6488  -25.8450   21.1244 C   0  0  0  0  0  0
  -29.3086  -23.3406   21.6762 C   0  0  0  0  0  0
  -31.1112  -18.8944   20.8715 N   0  0  0  0  0  0
  -30.0101  -15.3319   21.3537 N   0  0  0  0  0  0
  -30.0229  -20.9764   21.3320 N   0  0  0  0  0  0
  -27.8977  -21.5805   20.8073 O   0  0  0  0  0  0
  -27.8110  -16.7347   22.1441 F   0  0  0  0  0  0
  -31.4737  -12.4227   19.1006 H   0  0  0  0  0  0
  -30.3489  -11.2801   19.7764 H   0  0  0  0  0  0
  -29.7286  -11.8050   17.4071 H   0  0  0  0  0  0
  -29.6627  -13.5091   17.7747 H   0  0  0  0  0  0
  -27.8196  -11.3184   18.7912 H   0  0  0  0  0  0
  -27.3640  -12.6676   17.7863 H   0  0  0  0  0  0
  -27.7253  -14.2524   19.6107 H   0  0  0  0  0  0
  -28.6821  -11.8778   21.2814 H   0  0  0  0  0  0
  -28.4551  -13.4738   21.9041 H   0  0  0  0  0  0
  -25.2752   -9.5684   22.4746 H   0  0  0  0  0  0
  -23.9996   -7.4633   22.7465 H   0  0  0  0  0  0
  -21.0832   -8.8757   19.8951 H   0  0  0  0  0  0
  -22.3675  -10.9661   19.6155 H   0  0  0  0  0  0
  -21.2003   -7.6145   23.9712 H   0  0  0  0  0  0
  -21.1482   -6.0523   25.9077 H   0  0  0  0  0  0
  -22.0601   -2.7606   23.2849 H   0  0  0  0  0  0
  -22.4133  -11.9879   22.4776 H   0  0  0  0  0  0
  -21.1139  -13.1250   22.2620 H   0  0  0  0  0  0
  -24.6778  -15.8464   20.5428 H   0  0  0  0  0  0
  -26.3093  -15.6285   20.1638 H   0  0  0  0  0  0
  -26.7090  -32.5562   23.1164 H   0  0  0  0  0  0
  -25.0058  -33.9789   25.0490 H   0  0  0  0  0  0
  -22.6883  -31.3044   21.4103 H   0  0  0  0  0  0
  -23.3751  -35.9653   23.3316 H   0  0  0  0  0  0
  -24.3584  -36.8913   22.2052 H   0  0  0  0  0  0
  -23.7244  -37.6526   23.6641 H   0  0  0  0  0  0
  -26.0332  -31.5999   20.5913 H   0  0  0  0  0  0
  -26.8169  -30.8960   21.9776 H   0  0  0  0  0  0
  -28.1068  -29.1222   21.1573 H   0  0  0  0  0  0
  -26.0913  -25.9697   19.0220 H   0  0  0  0  0  0
  -23.9854  -27.2764   19.0497 H   0  0  0  0  0  0
  -23.7174  -30.5911   19.4053 H   0  0  0  0  0  0
  -22.7353  -29.2341   19.8731 H   0  0  0  0  0  0
  -25.1285  -36.1989   25.0834 H   0  0  0  0  0  0
  -20.9938  -28.3207   24.1453 H   0  0  0  0  0  0
  -20.5673  -26.2247   23.3596 H   0  0  0  0  0  0
  -21.6630  -26.7440   22.1211 H   0  0  0  0  0  0
  -19.6910  -25.6296   21.1225 H   0  0  0  0  0  0
  -19.6693  -27.3200   20.6745 H   0  0  0  0  0  0
  -17.4193  -26.6656   21.4010 H   0  0  0  0  0  0
  -18.0318  -26.0048   22.9011 H   0  0  0  0  0  0
  -19.7933  -30.7232   24.2288 H   0  0  0  0  0  0
  -17.5017  -31.6263   24.5149 H   0  0  0  0  0  0
  -15.5345  -30.2982   23.7650 H   0  0  0  0  0  0
  -15.8655  -28.0824   22.7046 H   0  0  0  0  0  0
  -24.5898  -30.7058   25.7801 H   0  0  0  0  0  0
  -24.8937  -32.2856   26.4933 H   0  0  0  0  0  0
  -25.8091  -30.8850   27.0210 H   0  0  0  0  0  0
  -26.2835  -29.6808   24.1136 H   0  0  0  0  0  0
  -27.4122  -29.7285   25.4494 H   0  0  0  0  0  0
  -27.8645  -30.4393   23.9169 H   0  0  0  0  0  0
  -27.2664  -33.3606   26.2082 H   0  0  0  0  0  0
  -28.3835  -32.6908   25.0283 H   0  0  0  0  0  0
  -28.0737  -31.8424   26.5358 H   0  0  0  0  0  0
  -28.2612  -38.0106   24.7514 H   0  0  0  0  0  0
  -28.1076  -36.2635   24.6294 H   0  0  0  0  0  0
  -27.2296  -37.1466   25.8869 H   0  0  0  0  0  0
  -20.9295  -29.8745   21.6968 H   0  0  0  0  0  0
  -26.0195  -38.2875   24.1408 H   0  0  0  0  0  0
  -27.9721  -19.3450   22.0474 H   0  0  0  0  0  0
  -32.0658  -17.0971   20.5588 H   0  0  0  0  0  0
  -31.2923  -22.9122   22.5486 H   0  0  0  0  0  0
  -31.0492  -24.5931   22.1846 H   0  0  0  0  0  0
  -31.3551  -23.4687   20.8746 H   0  0  0  0  0  0
  -28.9628  -22.7392   23.7576 H   0  0  0  0  0  0
  -27.5500  -23.4437   22.9849 H   0  0  0  0  0  0
  -28.8802  -24.4699   23.5121 H   0  0  0  0  0  0
  -29.2889  -24.3151   19.7328 H   0  0  0  0  0  0
  -27.6954  -24.0764   20.3710 H   0  0  0  0  0  0
  -29.5975  -26.1523   21.5618 H   0  0  0  0  0  0
  -27.8995  -25.9621   21.9102 H   0  0  0  0  0  0
  -29.1744  -14.9536   21.7761 H   0  0  0  0  0  0
  -30.9271  -21.3787   21.5258 H   0  0  0  0  0  0
  1 25  1  0  0  0
  1 30  2  0  0  0
  1 83  1  0  0  0
  2  3  1  0  0  0
  2 25  1  0  0  0
  2 87  1  0  0  0
  2 88  1  0  0  0
  3  4  1  0  0  0
  3 89  1  0  0  0
  3 90  1  0  0  0
  4  5  1  0  0  0
  4 91  1  0  0  0
  4 92  1  0  0  0
  5  6  1  0  0  0
  5 26  1  0  0  0
  5 93  1  0  0  0
  6 25  1  0  0  0
  6 94  1  0  0  0
  6 95  1  0  0  0
  7  8  2  0  0  0
  7 26  1  0  0  0
  7 29  1  0  0  0
  8  9  1  0  0  0
  8 22  1  0  0  0
  9 10  1  0  0  0
  9 27  2  0  0  0
 10 11  2  0  0  0
 10 15  1  0  0  0
 11 12  1  0  0  0
 11 96  1  0  0  0
 12 13  2  0  0  0
 12 97  1  0  0  0
 13 14  1  0  0  0
 13 31  1  0  0  0
 14 15  2  0  0  0
 14 98  1  0  0  0
 15 99  1  0  0  0
 16 17  2  0  0  0
 16 21  1  0  0  0
 16 31  1  0  0  0
 17 18  1  0  0  0
 17100  1  0  0  0
 18 19  2  0  0  0
 18101  1  0  0  0
 19 20  1  0  0  0
 19 24  1  0  0  0
 20 21  2  0  0  0
 20102  1  0  0  0
 21 23  1  0  0  0
 22 28  1  0  0  0
 22 32  2  0  0  0
 26 27  1  0  0  0
 28103  1  0  0  0
 28104  1  0  0  0
 29105  1  0  0  0
 29106  1  0  0  0
 33 34  1  0  0  0
 33 66  1  0  0  0
 33 70  2  0  0  0
 34 36  1  0  0  0
 34 59  1  0  0  0
 34107  1  0  0  0
 35 44  2  0  0  0
 35 45  1  0  0  0
 35 68  1  0  0  0
 36 56  1  0  0  0
 36108  1  0  0  0
 37 39  1  0  0  0
 37 47  1  0  0  0
 37 66  1  0  0  0
 37109  1  0  0  0
 38 43  2  0  0  0
 38 46  1  0  0  0
 38 47  1  0  0  0
 39 64  1  0  0  0
 39 67  2  0  0  0
 40 52  1  0  0  0
 40 53  2  0  0  0
 40 58  1  0  0  0
 41110  1  0  0  0
 41111  1  0  0  0
 41112  1  0  0  0
 41 48  1  0  0  0
 42 43  1  0  0  0
 42 66  1  0  0  0
 42113  1  0  0  0
 42114  1  0  0  0
 43 44  1  0  0  0
 44115  1  0  0  0
 45 46  2  0  0  0
 45116  1  0  0  0
 46117  1  0  0  0
 47118  1  0  0  0
 47119  1  0  0  0
 48 56  1  0  0  0
 48 65  1  0  0  0
 48120  1  0  0  0
 49 50  1  0  0  0
 49 53  1  0  0  0
 49 64  1  0  0  0
 49121  1  0  0  0
 50 51  1  0  0  0
 50122  1  0  0  0
 50123  1  0  0  0
 51 52  1  0  0  0
 51124  1  0  0  0
 51125  1  0  0  0
 52126  1  0  0  0
 52127  1  0  0  0
 53 54  1  0  0  0
 54 55  2  0  0  0
 54128  1  0  0  0
 55 57  1  0  0  0
 55129  1  0  0  0
 56 69  2  0  0  0
 57 58  2  0  0  0
 57130  1  0  0  0
 58131  1  0  0  0
 59 60  1  0  0  0
 59 61  1  0  0  0
 59 62  1  0  0  0
 60132  1  0  0  0
 60133  1  0  0  0
 60134  1  0  0  0
 61135  1  0  0  0
 61136  1  0  0  0
 61137  1  0  0  0
 62138  1  0  0  0
 62139  1  0  0  0
 62140  1  0  0  0
 63 65  1  0  0  0
 63141  1  0  0  0
 63142  1  0  0  0
 63143  1  0  0  0
 64144  1  0  0  0
 65145  1  0  0  0
 68 80  1  0  0  0
 71 74  2  0  0  0
 71 75  1  0  0  0
 71146  1  0  0  0
 72 73  2  0  0  0
 72 82  1  0  0  0
 72147  1  0  0  0
 73 74  1  0  0  0
 73 83  1  0  0  0
 74 86  1  0  0  0
 75 82  2  0  0  0
 75 84  1  0  0  0
 76 81  1  0  0  0
 76 84  1  0  0  0
 76 85  2  0  0  0
 77148  1  0  0  0
 77149  1  0  0  0
 77150  1  0  0  0
 77 81  1  0  0  0
 78 81  1  0  0  0
 78151  1  0  0  0
 78152  1  0  0  0
 78153  1  0  0  0
 79 80  1  0  0  0
 79 81  1  0  0  0
 79154  1  0  0  0
 79155  1  0  0  0
 80156  1  0  0  0
 80157  1  0  0  0
 83158  1  0  0  0
 84159  1  0  0  0
M  ISO  4   1 100  68 101  80 101  83 100
M  END
> <chiral flag>
0

> <version>
0

> <s_m_source_file>
/data/baiqing/PycharmProjects/Reinvent-master-3.2/result/LINK_invent/BTK/process_docking_weight1_custom_product_contain_oxygen_bond_distance_aromatic_linkinvent_7_9_3/rearranged_h_0180.sdf

> <i_m_source_file_index>
65

> <r_mmod_Potential_Energy-OPLS-2005>
-328.123870849609

> <r_mmod_Stretch_Energy-OPLS-2005>
37.9421043395996

> <r_mmod_Bend_Energy-OPLS-2005>
108.918991088867

> <r_mmod_Torsional_Energy-OPLS-2005>
276.305541992188

> <r_mmod_Improper_Torsional_Energy-OPLS-2005>
3.63860201835632

> <r_mmod_Van_der_Waal_Energy-OPLS-2005>
166.860778808594

> <r_mmod_Electrostatic_Energy-OPLS-2005>
-712.126770019531

> <r_mmod_Solvation_Energy-OPLS-2005>
-218.277679443359

> <b_mmod_Minimization_Converged-OPLS-2005>
0

> <r_mmod_RMS_Derivative-OPLS-2005>
0.863493263721466

$$$$
65
                    3D
 Structure written by MMmdl.
148156  0  0  1  0            999 V2000
  -30.5745  -14.8391   20.4304 C   0  0  0  0  0  0
  -30.4354  -12.5097   19.4932 C   0  0  0  0  0  0
  -29.5175  -12.5196   18.2485 C   0  0  0  0  0  0
  -28.0445  -12.3298   18.6598 C   0  0  0  0  0  0
  -27.6376  -13.2411   19.8484 C   0  0  2  0  0  0
  -28.6802  -13.2130   20.9876 C   0  0  0  0  0  0
  -25.2489  -13.8210   20.5705 C   0  0  0  0  0  0
  -24.1793  -13.0445   20.9216 C   0  0  0  0  0  0
  -24.6394  -11.6926   20.8749 C   0  0  0  0  0  0
  -23.9077  -10.4299   21.0408 C   0  0  0  0  0  0
  -24.3629   -9.4211   21.9184 C   0  0  0  0  0  0
  -23.6303   -8.2245   22.0751 C   0  0  0  0  0  0
  -22.4285   -8.0281   21.3541 C   0  0  0  0  0  0
  -21.9920   -9.0257   20.4644 C   0  0  0  0  0  0
  -22.7249  -10.2136   20.3055 C   0  0  0  0  0  0
  -21.6851   -6.0741   22.5281 C   0  0  0  0  0  0
  -21.4014   -6.5643   23.8216 C   0  0  0  0  0  0
  -21.3659   -5.6795   24.9179 C   0  0  0  0  0  0
  -21.6045   -4.3057   24.7229 C   0  0  0  0  0  0
  -21.8819   -3.8148   23.4347 C   0  0  0  0  0  0
  -21.9191   -4.6968   22.3403 C   0  0  0  0  0  0
  -22.7812  -13.5217   21.1876 C   0  0  0  0  0  0
  -22.1662   -4.2153   21.0982 F   0  0  0  0  0  0
  -21.5629   -3.4539   25.7738 F   0  0  0  0  0  0
  -29.9743  -13.5896   20.4057 N   0  0  0  0  0  0
  -26.2919  -12.9434   20.3273 N   0  0  0  0  0  0
  -25.9330  -11.6570   20.5748 N   0  0  0  0  0  0
  -22.0459  -12.8207   22.0432 N   0  0  0  0  0  0
  -25.4171  -15.1941   20.4132 N   0  0  0  0  0  0
  -31.7626  -14.9176   20.1001 O   0  0  0  0  0  0
  -21.6643   -6.8882   21.4243 O   0  0  0  0  0  0
  -22.3502  -14.5524   20.6718 O   0  0  0  0  0  0
  -24.6363  -31.8490   23.1922 C   0  0  0  0  0  0
  -25.9165  -32.4716   23.8294 C   0  0  1  0  0  0
  -27.2228  -27.1999   20.1374 C   0  0  0  0  0  0
  -25.5939  -33.8522   24.2216 N   0  0  0  0  0  0
  -23.4372  -30.4694   21.5354 C   0  0  2  0  0  0
  -24.8871  -28.9061   20.1051 C   0  0  0  0  0  0
  -22.7530  -29.4571   22.4868 C   0  0  0  0  0  0
  -18.0298  -28.1391   22.8481 C   0  0  0  0  0  0
  -24.1491  -36.7265   23.2643 C   0  0  0  0  0  0
  -25.9875  -30.7412   21.3829 C   0  0  0  0  0  0
  -26.0587  -29.3587   20.7237 C   0  0  0  0  0  0
  -27.2245  -28.5176   20.7289 C   0  0  0  0  0  0
  -26.0257  -26.8292   19.4848 C   0  0  0  0  0  0
  -24.8796  -27.6524   19.4737 C   0  0  0  0  0  0
  -23.6599  -29.8000   20.1525 C   0  0  0  0  0  0
  -25.4121  -36.3047   24.0321 C   0  0  1  0  0  0
  -20.5906  -28.3712   23.1249 C   0  0  2  0  0  0
  -20.6781  -26.9420   22.5406 C   0  0  0  0  0  0
  -19.5758  -26.6380   21.5212 C   0  0  0  0  0  0
  -18.1940  -26.7929   22.1625 C   0  0  0  0  0  0
  -19.1552  -28.8868   23.2859 C   0  0  0  0  0  0
  -18.9472  -30.1464   23.8884 C   0  0  0  0  0  0
  -17.6471  -30.6588   24.0562 C   0  0  0  0  0  0
  -25.9067  -34.9420   23.5076 C   0  0  0  0  0  0
  -16.5361  -29.9084   23.6334 C   0  0  0  0  0  0
  -16.7284  -28.6502   23.0354 C   0  0  0  0  0  0
  -26.4513  -31.6565   25.0709 C   0  0  0  0  0  0
  -25.3718  -31.3734   26.1415 C   0  0  0  0  0  0
  -27.0377  -30.2972   24.6254 C   0  0  0  0  0  0
  -27.6052  -32.4321   25.7487 C   0  0  0  0  0  0
  -27.5579  -37.1790   24.8466 C   0  0  0  0  0  0
  -21.4230  -29.3041   22.3620 N   0  0  0  0  0  0
  -26.4291  -37.3752   23.9405 N   0  0  0  0  0  0
  -24.7063  -31.0400   22.0925 N   0  0  0  0  0  0
  -23.4202  -28.8123   23.3000 O   0  0  0  0  0  0
  -28.3025  -26.2705   20.2470 O   0  0  0  0  0  0
  -26.5650  -34.8909   22.4653 O   0  0  0  0  0  0
  -23.5499  -32.1344   23.7179 O   0  0  0  0  0  0
  -30.6955  -19.6509   19.2822 C   0  0  0  0  0  0
  -29.6597  -19.8457   20.1865 C   0  0  0  0  0  0
  -30.0063  -17.4309   20.3065 C   0  0  0  0  0  0
  -31.5155  -20.5714   18.4966 C   0  0  0  0  0  0
  -28.2566  -24.8888   19.8155 C   0  0  0  0  0  0
  -28.7237  -23.7280   20.4557 C   0  0  0  0  0  0
  -28.7438  -22.3264   19.8297 C   0  0  0  0  0  0
  -29.3036  -18.5429   20.7652 N   0  0  0  0  0  0
  -29.1729  -21.2232   20.5855 N   0  0  0  0  0  0
  -29.8025  -15.9869   20.6808 N   0  0  0  0  0  0
  -31.5744  -21.7873   18.6969 O   0  0  0  0  0  0
  -28.3783  -22.1413   18.6663 O   0  0  0  0  0  0
  -29.2212  -23.8494   21.6946 O   0  0  0  0  0  0
  -31.1746  -17.9567   19.0982 S   0  0  0  0  0  0
  -31.4758  -12.6393   19.1910 H   0  0  0  0  0  0
  -30.3935  -11.5420   19.9952 H   0  0  0  0  0  0
  -29.8154  -11.7355   17.5512 H   0  0  0  0  0  0
  -29.6315  -13.4636   17.7132 H   0  0  0  0  0  0
  -27.9143  -11.2828   18.9367 H   0  0  0  0  0  0
  -27.3865  -12.5028   17.8072 H   0  0  0  0  0  0
  -27.6199  -14.2559   19.4511 H   0  0  0  0  0  0
  -28.7351  -12.2233   21.4436 H   0  0  0  0  0  0
  -28.3983  -13.9018   21.7853 H   0  0  0  0  0  0
  -25.2773   -9.5686   22.4761 H   0  0  0  0  0  0
  -24.0010   -7.4638   22.7470 H   0  0  0  0  0  0
  -21.0847   -8.8776   19.8951 H   0  0  0  0  0  0
  -22.3707  -10.9675   19.6164 H   0  0  0  0  0  0
  -21.2008   -7.6151   23.9722 H   0  0  0  0  0  0
  -21.1481   -6.0522   25.9080 H   0  0  0  0  0  0
  -22.0597   -2.7611   23.2841 H   0  0  0  0  0  0
  -22.4079  -11.9871   22.4821 H   0  0  0  0  0  0
  -21.1072  -13.1218   22.2635 H   0  0  0  0  0  0
  -24.6464  -15.8438   20.5245 H   0  0  0  0  0  0
  -26.2594  -15.6366   20.0687 H   0  0  0  0  0  0
  -26.7227  -32.5344   23.1022 H   0  0  0  0  0  0
  -25.0064  -33.9646   25.0348 H   0  0  0  0  0  0
  -22.7372  -31.2938   21.3840 H   0  0  0  0  0  0
  -23.3758  -35.9594   23.3297 H   0  0  0  0  0  0
  -24.3582  -36.8901   22.2060 H   0  0  0  0  0  0
  -23.7244  -37.6460   23.6679 H   0  0  0  0  0  0
  -26.1373  -31.5001   20.6135 H   0  0  0  0  0  0
  -26.8604  -30.7887   22.0227 H   0  0  0  0  0  0
  -28.1167  -28.8544   21.2381 H   0  0  0  0  0  0
  -25.9381  -25.8644   19.0091 H   0  0  0  0  0  0
  -23.9825  -27.2991   18.9838 H   0  0  0  0  0  0
  -23.7885  -30.5749   19.3958 H   0  0  0  0  0  0
  -22.7770  -29.2363   19.8453 H   0  0  0  0  0  0
  -25.1309  -36.1886   25.0816 H   0  0  0  0  0  0
  -21.0004  -28.3299   24.1369 H   0  0  0  0  0  0
  -20.5675  -26.2326   23.3620 H   0  0  0  0  0  0
  -21.6649  -26.7430   22.1206 H   0  0  0  0  0  0
  -19.6918  -25.6289   21.1249 H   0  0  0  0  0  0
  -19.6694  -27.3184   20.6739 H   0  0  0  0  0  0
  -17.4209  -26.6676   21.4028 H   0  0  0  0  0  0
  -18.0340  -26.0073   22.9026 H   0  0  0  0  0  0
  -19.7948  -30.7283   24.2247 H   0  0  0  0  0  0
  -17.5024  -31.6269   24.5163 H   0  0  0  0  0  0
  -15.5361  -30.2983   23.7662 H   0  0  0  0  0  0
  -15.8683  -28.0816   22.7076 H   0  0  0  0  0  0
  -24.5893  -30.7087   25.7733 H   0  0  0  0  0  0
  -24.8911  -32.2911   26.4814 H   0  0  0  0  0  0
  -25.8014  -30.8919   27.0209 H   0  0  0  0  0  0
  -26.2986  -29.6690   24.1267 H   0  0  0  0  0  0
  -27.4021  -29.7264   25.4806 H   0  0  0  0  0  0
  -27.8878  -30.4222   23.9542 H   0  0  0  0  0  0
  -27.2649  -33.3627   26.2040 H   0  0  0  0  0  0
  -28.3873  -32.6873   25.0324 H   0  0  0  0  0  0
  -28.0710  -31.8467   26.5424 H   0  0  0  0  0  0
  -28.2591  -38.0090   24.7510 H   0  0  0  0  0  0
  -28.1079  -36.2620   24.6297 H   0  0  0  0  0  0
  -27.2296  -37.1441   25.8869 H   0  0  0  0  0  0
  -20.9426  -29.8761   21.6813 H   0  0  0  0  0  0
  -26.0163  -38.2825   24.1404 H   0  0  0  0  0  0
  -32.1041  -20.0959   17.7118 H   0  0  0  0  0  0
  -27.8370  -24.8156   18.8214 H   0  0  0  0  0  0
  -29.2703  -21.4399   21.5677 H   0  0  0  0  0  0
  -28.9000  -15.7891   21.0815 H   0  0  0  0  0  0
  -29.1542  -24.7663   21.9299 H   0  0  0  0  0  0
  1 25  1  0  0  0
  1 30  2  0  0  0
  1 80  1  0  0  0
  2  3  1  0  0  0
  2 25  1  0  0  0
  2 85  1  0  0  0
  2 86  1  0  0  0
  3  4  1  0  0  0
  3 87  1  0  0  0
  3 88  1  0  0  0
  4  5  1  0  0  0
  4 89  1  0  0  0
  4 90  1  0  0  0
  5  6  1  0  0  0
  5 26  1  0  0  0
  5 91  1  0  0  0
  6 25  1  0  0  0
  6 92  1  0  0  0
  6 93  1  0  0  0
  7  8  2  0  0  0
  7 26  1  0  0  0
  7 29  1  0  0  0
  8  9  1  0  0  0
  8 22  1  0  0  0
  9 10  1  0  0  0
  9 27  2  0  0  0
 10 11  2  0  0  0
 10 15  1  0  0  0
 11 12  1  0  0  0
 11 94  1  0  0  0
 12 13  2  0  0  0
 12 95  1  0  0  0
 13 14  1  0  0  0
 13 31  1  0  0  0
 14 15  2  0  0  0
 14 96  1  0  0  0
 15 97  1  0  0  0
 16 17  2  0  0  0
 16 21  1  0  0  0
 16 31  1  0  0  0
 17 18  1  0  0  0
 17 98  1  0  0  0
 18 19  2  0  0  0
 18 99  1  0  0  0
 19 20  1  0  0  0
 19 24  1  0  0  0
 20 21  2  0  0  0
 20100  1  0  0  0
 21 23  1  0  0  0
 22 28  1  0  0  0
 22 32  2  0  0  0
 26 27  1  0  0  0
 28101  1  0  0  0
 28102  1  0  0  0
 29103  1  0  0  0
 29104  1  0  0  0
 33 34  1  0  0  0
 33 66  1  0  0  0
 33 70  2  0  0  0
 34 36  1  0  0  0
 34 59  1  0  0  0
 34105  1  0  0  0
 35 44  2  0  0  0
 35 45  1  0  0  0
 35 68  1  0  0  0
 36 56  1  0  0  0
 36106  1  0  0  0
 37 39  1  0  0  0
 37 47  1  0  0  0
 37 66  1  0  0  0
 37107  1  0  0  0
 38 43  2  0  0  0
 38 46  1  0  0  0
 38 47  1  0  0  0
 39 64  1  0  0  0
 39 67  2  0  0  0
 40 52  1  0  0  0
 40 53  2  0  0  0
 40 58  1  0  0  0
 41108  1  0  0  0
 41109  1  0  0  0
 41110  1  0  0  0
 41 48  1  0  0  0
 42 43  1  0  0  0
 42 66  1  0  0  0
 42111  1  0  0  0
 42112  1  0  0  0
 43 44  1  0  0  0
 44113  1  0  0  0
 45 46  2  0  0  0
 45114  1  0  0  0
 46115  1  0  0  0
 47116  1  0  0  0
 47117  1  0  0  0
 48 56  1  0  0  0
 48 65  1  0  0  0
 48118  1  0  0  0
 49 50  1  0  0  0
 49 53  1  0  0  0
 49 64  1  0  0  0
 49119  1  0  0  0
 50 51  1  0  0  0
 50120  1  0  0  0
 50121  1  0  0  0
 51 52  1  0  0  0
 51122  1  0  0  0
 51123  1  0  0  0
 52124  1  0  0  0
 52125  1  0  0  0
 53 54  1  0  0  0
 54 55  2  0  0  0
 54126  1  0  0  0
 55 57  1  0  0  0
 55127  1  0  0  0
 56 69  2  0  0  0
 57 58  2  0  0  0
 57128  1  0  0  0
 58129  1  0  0  0
 59 60  1  0  0  0
 59 61  1  0  0  0
 59 62  1  0  0  0
 60130  1  0  0  0
 60131  1  0  0  0
 60132  1  0  0  0
 61133  1  0  0  0
 61134  1  0  0  0
 61135  1  0  0  0
 62136  1  0  0  0
 62137  1  0  0  0
 62138  1  0  0  0
 63 65  1  0  0  0
 63139  1  0  0  0
 63140  1  0  0  0
 63141  1  0  0  0
 64142  1  0  0  0
 65143  1  0  0  0
 68 75  1  0  0  0
 71 72  2  0  0  0
 71 74  1  0  0  0
 71 84  1  0  0  0
 72 78  1  0  0  0
 72 79  1  0  0  0
 73 78  2  0  0  0
 73 80  1  0  0  0
 73 84  1  0  0  0
 74 81  2  0  0  0
 74144  1  0  0  0
 75 76  2  0  0  0
 75145  1  0  0  0
 76 77  1  0  0  0
 76 83  1  0  0  0
 77 79  1  0  0  0
 77 82  2  0  0  0
 79146  1  0  0  0
 80147  1  0  0  0
 83148  1  0  0  0
M  ISO  4   1 100  68 101  75 101  80 100
M  END
> <chiral flag>
0

> <version>
0

> <s_m_source_file>
/data/baiqing/PycharmProjects/Reinvent-master-3.2/result/LINK_invent/BTK/process_docking_weight1_custom_product_contain_oxygen_bond_distance_aromatic_linkinvent_7_9_3/rearranged_h_0180.sdf

> <i_m_source_file_index>
66

> <r_mmod_Potential_Energy-OPLS-2005>
117.078666687012

> <r_mmod_Stretch_Energy-OPLS-2005>
162.393524169922

> <r_mmod_Bend_Energy-OPLS-2005>
181.900939941406

> <r_mmod_Torsional_Energy-OPLS-2005>
233.885025024414

> <r_mmod_Improper_Torsional_Energy-OPLS-2005>
5.24219942092896

> <r_mmod_Van_der_Waal_Energy-OPLS-2005>
117.568260192871

> <r_mmod_Electrostatic_Energy-OPLS-2005>
-475.491241455078

> <r_mmod_Solvation_Energy-OPLS-2005>
-238.522994995117

> <b_mmod_Minimization_Converged-OPLS-2005>
0

> <r_mmod_RMS_Derivative-OPLS-2005>
0.883190631866455

$$$$
66
                    3D
 Structure written by MMmdl.
146154  0  0  1  0            999 V2000
  -30.4883  -15.0778   20.4012 C   0  0  0  0  0  0
  -30.4455  -12.6743   19.5097 C   0  0  0  0  0  0
  -29.5305  -12.5519   18.2672 C   0  0  0  0  0  0
  -28.0685  -12.3104   18.6862 C   0  0  0  0  0  0
  -27.6239  -13.2560   19.8306 C   0  0  2  0  0  0
  -28.6636  -13.3373   20.9689 C   0  0  0  0  0  0
  -25.2437  -13.8226   20.5703 C   0  0  0  0  0  0
  -24.1769  -13.0438   20.9238 C   0  0  0  0  0  0
  -24.6396  -11.6926   20.8752 C   0  0  0  0  0  0
  -23.9085  -10.4295   21.0403 C   0  0  0  0  0  0
  -24.3632   -9.4215   21.9187 C   0  0  0  0  0  0
  -23.6306   -8.2249   22.0760 C   0  0  0  0  0  0
  -22.4287   -8.0284   21.3550 C   0  0  0  0  0  0
  -21.9921   -9.0258   20.4649 C   0  0  0  0  0  0
  -22.7251  -10.2137   20.3058 C   0  0  0  0  0  0
  -21.6863   -6.0735   22.5279 C   0  0  0  0  0  0
  -21.4018   -6.5637   23.8212 C   0  0  0  0  0  0
  -21.3665   -5.6792   24.9177 C   0  0  0  0  0  0
  -21.6048   -4.3057   24.7225 C   0  0  0  0  0  0
  -21.8815   -3.8145   23.4343 C   0  0  0  0  0  0
  -21.9194   -4.6961   22.3400 C   0  0  0  0  0  0
  -22.7787  -13.5204   21.1895 C   0  0  0  0  0  0
  -22.1660   -4.2146   21.0980 F   0  0  0  0  0  0
  -21.5637   -3.4544   25.7739 F   0  0  0  0  0  0
  -29.9248  -13.7892   20.3635 N   0  0  0  0  0  0
  -26.2858  -12.9466   20.3210 N   0  0  0  0  0  0
  -25.9329  -11.6589   20.5714 N   0  0  0  0  0  0
  -22.0442  -12.8198   22.0451 N   0  0  0  0  0  0
  -25.4073  -15.1962   20.4104 N   0  0  0  0  0  0
  -31.7020  -15.1290   20.1606 O   0  0  0  0  0  0
  -21.6648   -6.8880   21.4244 O   0  0  0  0  0  0
  -22.3471  -14.5509   20.6733 O   0  0  0  0  0  0
  -24.6524  -31.8369   23.1816 C   0  0  0  0  0  0
  -25.9256  -32.4658   23.8238 C   0  0  1  0  0  0
  -27.2170  -27.0549   20.1692 C   0  0  0  0  0  0
  -25.5967  -33.8468   24.2147 N   0  0  0  0  0  0
  -23.4604  -30.4531   21.5289 C   0  0  2  0  0  0
  -24.9136  -28.8652   20.1135 C   0  0  0  0  0  0
  -22.7615  -29.4510   22.4836 C   0  0  0  0  0  0
  -18.0310  -28.1410   22.8466 C   0  0  0  0  0  0
  -24.1494  -36.7245   23.2640 C   0  0  0  0  0  0
  -26.0231  -30.6836   21.3948 C   0  0  0  0  0  0
  -26.0947  -29.2853   20.7408 C   0  0  0  0  0  0
  -27.2485  -28.3975   20.7515 C   0  0  0  0  0  0
  -26.0122  -26.7595   19.4964 C   0  0  0  0  0  0
  -24.8892  -27.6169   19.4743 C   0  0  0  0  0  0
  -23.6932  -29.7771   20.1516 C   0  0  0  0  0  0
  -25.4129  -36.3012   24.0303 C   0  0  1  0  0  0
  -20.5931  -28.3744   23.1222 C   0  0  2  0  0  0
  -20.6805  -26.9440   22.5408 C   0  0  0  0  0  0
  -19.5774  -26.6383   21.5224 C   0  0  0  0  0  0
  -18.1952  -26.7941   22.1629 C   0  0  0  0  0  0
  -19.1571  -28.8895   23.2831 C   0  0  0  0  0  0
  -18.9486  -30.1488   23.8857 C   0  0  0  0  0  0
  -17.6480  -30.6599   24.0562 C   0  0  0  0  0  0
  -25.9085  -34.9388   23.5038 C   0  0  0  0  0  0
  -16.5370  -29.9092   23.6339 C   0  0  0  0  0  0
  -16.7294  -28.6519   23.0344 C   0  0  0  0  0  0
  -26.4537  -31.6552   25.0716 C   0  0  0  0  0  0
  -25.3687  -31.3785   26.1387 C   0  0  0  0  0  0
  -27.0395  -30.2924   24.6365 C   0  0  0  0  0  0
  -27.6044  -32.4330   25.7519 C   0  0  0  0  0  0
  -27.5575  -37.1774   24.8458 C   0  0  0  0  0  0
  -21.4298  -29.3049   22.3582 N   0  0  0  0  0  0
  -26.4285  -37.3735   23.9401 N   0  0  0  0  0  0
  -24.7322  -31.0144   22.0896 N   0  0  0  0  0  0
  -23.4215  -28.8068   23.3031 O   0  0  0  0  0  0
  -28.2097  -25.9796   20.1976 O   0  0  0  0  0  0
  -26.5683  -34.8897   22.4625 O   0  0  0  0  0  0
  -23.5624  -32.1282   23.6988 O   0  0  0  0  0  0
  -29.5641  -20.6147   20.2830 C   0  0  0  0  0  0
  -30.8234  -19.9900   20.3611 C   0  0  0  0  0  0
  -29.7768  -17.8226   20.4229 C   0  0  0  0  0  0
  -27.8363  -24.6271   20.6866 C   0  0  0  0  0  0
  -29.2384  -22.2010   20.0077 C   0  0  0  0  0  0
  -28.1733  -23.2087   20.6732 C   0  0  0  0  0  0
  -30.9200  -18.5441   20.4392 N   0  0  0  0  0  0
  -32.0462  -20.6656   20.3569 N   0  0  0  0  0  0
  -29.6590  -16.2591   20.5001 N   0  0  0  0  0  0
  -29.9753  -22.7259   19.1684 O   0  0  0  0  0  0
  -27.3603  -22.4749   21.4489 O   0  0  0  0  0  0
  -28.4442  -19.1487   20.3314 S   0  0  0  0  0  0
  -31.4732  -12.8560   19.1928 H   0  0  0  0  0  0
  -30.4700  -11.7374   20.0684 H   0  0  0  0  0  0
  -29.8735  -11.7447   17.6188 H   0  0  0  0  0  0
  -29.5953  -13.4674   17.6772 H   0  0  0  0  0  0
  -27.9892  -11.2741   19.0151 H   0  0  0  0  0  0
  -27.4047  -12.4094   17.8263 H   0  0  0  0  0  0
  -27.5681  -14.2449   19.3754 H   0  0  0  0  0  0
  -28.7825  -12.3755   21.4696 H   0  0  0  0  0  0
  -28.3369  -14.0455   21.7323 H   0  0  0  0  0  0
  -25.2771   -9.5702   22.4767 H   0  0  0  0  0  0
  -24.0017   -7.4643   22.7476 H   0  0  0  0  0  0
  -21.0856   -8.8768   19.8952 H   0  0  0  0  0  0
  -22.3699  -10.9675   19.6169 H   0  0  0  0  0  0
  -21.2005   -7.6145   23.9717 H   0  0  0  0  0  0
  -21.1499   -6.0524   25.9083 H   0  0  0  0  0  0
  -22.0587   -2.7604   23.2848 H   0  0  0  0  0  0
  -22.4057  -11.9868   22.4848 H   0  0  0  0  0  0
  -21.1053  -13.1218   22.2642 H   0  0  0  0  0  0
  -24.6267  -15.8371   20.5055 H   0  0  0  0  0  0
  -26.2288  -15.6360   20.0177 H   0  0  0  0  0  0
  -26.7322  -32.5237   23.0959 H   0  0  0  0  0  0
  -25.0060  -33.9569   25.0256 H   0  0  0  0  0  0
  -22.7664  -31.2805   21.3672 H   0  0  0  0  0  0
  -23.3757  -35.9577   23.3291 H   0  0  0  0  0  0
  -24.3574  -36.8898   22.2059 H   0  0  0  0  0  0
  -23.7252  -37.6433   23.6696 H   0  0  0  0  0  0
  -26.1880  -31.4312   20.6179 H   0  0  0  0  0  0
  -26.8899  -30.7381   22.0416 H   0  0  0  0  0  0
  -28.1450  -28.7142   21.2657 H   0  0  0  0  0  0
  -25.9179  -25.7991   19.0095 H   0  0  0  0  0  0
  -23.9904  -27.2880   18.9705 H   0  0  0  0  0  0
  -23.8374  -30.5489   19.3948 H   0  0  0  0  0  0
  -22.8060  -29.2237   19.8393 H   0  0  0  0  0  0
  -25.1326  -36.1826   25.0797 H   0  0  0  0  0  0
  -21.0014  -28.3348   24.1347 H   0  0  0  0  0  0
  -20.5724  -26.2358   23.3640 H   0  0  0  0  0  0
  -21.6670  -26.7452   22.1192 H   0  0  0  0  0  0
  -19.6944  -25.6285   21.1278 H   0  0  0  0  0  0
  -19.6718  -27.3178   20.6744 H   0  0  0  0  0  0
  -17.4229  -26.6679   21.4026 H   0  0  0  0  0  0
  -18.0340  -26.0099   22.9042 H   0  0  0  0  0  0
  -19.7961  -30.7320   24.2208 H   0  0  0  0  0  0
  -17.5031  -31.6272   24.5181 H   0  0  0  0  0  0
  -15.5370  -30.2987   23.7685 H   0  0  0  0  0  0
  -15.8693  -28.0839   22.7061 H   0  0  0  0  0  0
  -24.5860  -30.7144   25.7701 H   0  0  0  0  0  0
  -24.8884  -32.2989   26.4723 H   0  0  0  0  0  0
  -25.7936  -30.9005   27.0222 H   0  0  0  0  0  0
  -26.3028  -29.6638   24.1350 H   0  0  0  0  0  0
  -27.3925  -29.7251   25.4986 H   0  0  0  0  0  0
  -27.8980  -30.4110   23.9752 H   0  0  0  0  0  0
  -27.2610  -33.3646   26.2030 H   0  0  0  0  0  0
  -28.3905  -32.6866   25.0395 H   0  0  0  0  0  0
  -28.0653  -31.8497   26.5502 H   0  0  0  0  0  0
  -28.2586  -38.0075   24.7498 H   0  0  0  0  0  0
  -28.1075  -36.2602   24.6291 H   0  0  0  0  0  0
  -27.2291  -37.1431   25.8861 H   0  0  0  0  0  0
  -20.9537  -29.8732   21.6716 H   0  0  0  0  0  0
  -26.0146  -38.2799   24.1404 H   0  0  0  0  0  0
  -26.9798  -24.8236   21.3170 H   0  0  0  0  0  0
  -32.0689  -21.6257   20.0270 H   0  0  0  0  0  0
  -32.8940  -20.1428   20.1658 H   0  0  0  0  0  0
  -28.6990  -15.9810   20.6233 H   0  0  0  0  0  0
  -26.7351  -23.0631   21.8491 H   0  0  0  0  0  0
  1 25  1  0  0  0
  1 30  2  0  0  0
  1 79  1  0  0  0
  2  3  1  0  0  0
  2 25  1  0  0  0
  2 83  1  0  0  0
  2 84  1  0  0  0
  3  4  1  0  0  0
  3 85  1  0  0  0
  3 86  1  0  0  0
  4  5  1  0  0  0
  4 87  1  0  0  0
  4 88  1  0  0  0
  5  6  1  0  0  0
  5 26  1  0  0  0
  5 89  1  0  0  0
  6 25  1  0  0  0
  6 90  1  0  0  0
  6 91  1  0  0  0
  7  8  2  0  0  0
  7 26  1  0  0  0
  7 29  1  0  0  0
  8  9  1  0  0  0
  8 22  1  0  0  0
  9 10  1  0  0  0
  9 27  2  0  0  0
 10 11  2  0  0  0
 10 15  1  0  0  0
 11 12  1  0  0  0
 11 92  1  0  0  0
 12 13  2  0  0  0
 12 93  1  0  0  0
 13 14  1  0  0  0
 13 31  1  0  0  0
 14 15  2  0  0  0
 14 94  1  0  0  0
 15 95  1  0  0  0
 16 17  2  0  0  0
 16 21  1  0  0  0
 16 31  1  0  0  0
 17 18  1  0  0  0
 17 96  1  0  0  0
 18 19  2  0  0  0
 18 97  1  0  0  0
 19 20  1  0  0  0
 19 24  1  0  0  0
 20 21  2  0  0  0
 20 98  1  0  0  0
 21 23  1  0  0  0
 22 28  1  0  0  0
 22 32  2  0  0  0
 26 27  1  0  0  0
 28 99  1  0  0  0
 28100  1  0  0  0
 29101  1  0  0  0
 29102  1  0  0  0
 33 34  1  0  0  0
 33 66  1  0  0  0
 33 70  2  0  0  0
 34 36  1  0  0  0
 34 59  1  0  0  0
 34103  1  0  0  0
 35 44  2  0  0  0
 35 45  1  0  0  0
 35 68  1  0  0  0
 36 56  1  0  0  0
 36104  1  0  0  0
 37 39  1  0  0  0
 37 47  1  0  0  0
 37 66  1  0  0  0
 37105  1  0  0  0
 38 43  2  0  0  0
 38 46  1  0  0  0
 38 47  1  0  0  0
 39 64  1  0  0  0
 39 67  2  0  0  0
 40 52  1  0  0  0
 40 53  2  0  0  0
 40 58  1  0  0  0
 41106  1  0  0  0
 41107  1  0  0  0
 41108  1  0  0  0
 41 48  1  0  0  0
 42 43  1  0  0  0
 42 66  1  0  0  0
 42109  1  0  0  0
 42110  1  0  0  0
 43 44  1  0  0  0
 44111  1  0  0  0
 45 46  2  0  0  0
 45112  1  0  0  0
 46113  1  0  0  0
 47114  1  0  0  0
 47115  1  0  0  0
 48 56  1  0  0  0
 48 65  1  0  0  0
 48116  1  0  0  0
 49 50  1  0  0  0
 49 53  1  0  0  0
 49 64  1  0  0  0
 49117  1  0  0  0
 50 51  1  0  0  0
 50118  1  0  0  0
 50119  1  0  0  0
 51 52  1  0  0  0
 51120  1  0  0  0
 51121  1  0  0  0
 52122  1  0  0  0
 52123  1  0  0  0
 53 54  1  0  0  0
 54 55  2  0  0  0
 54124  1  0  0  0
 55 57  1  0  0  0
 55125  1  0  0  0
 56 69  2  0  0  0
 57 58  2  0  0  0
 57126  1  0  0  0
 58127  1  0  0  0
 59 60  1  0  0  0
 59 61  1  0  0  0
 59 62  1  0  0  0
 60128  1  0  0  0
 60129  1  0  0  0
 60130  1  0  0  0
 61131  1  0  0  0
 61132  1  0  0  0
 61133  1  0  0  0
 62134  1  0  0  0
 62135  1  0  0  0
 62136  1  0  0  0
 63 65  1  0  0  0
 63137  1  0  0  0
 63138  1  0  0  0
 63139  1  0  0  0
 64140  1  0  0  0
 65141  1  0  0  0
 68 74  1  0  0  0
 71 72  2  0  0  0
 71 75  1  0  0  0
 71 82  1  0  0  0
 72 77  1  0  0  0
 72 78  1  0  0  0
 73 77  2  0  0  0
 73 79  1  0  0  0
 73 82  1  0  0  0
 74 76  2  0  0  0
 74142  1  0  0  0
 75 76  1  0  0  0
 75 80  2  0  0  0
 76 81  1  0  0  0
 78143  1  0  0  0
 78144  1  0  0  0
 79145  1  0  0  0
 81146  1  0  0  0
M  ISO  4   1 100  68 101  74 101  79 100
M  END
> <chiral flag>
0

> <version>
0

> <s_m_source_file>
/data/baiqing/PycharmProjects/Reinvent-master-3.2/result/LINK_invent/BTK/process_docking_weight1_custom_product_contain_oxygen_bond_distance_aromatic_linkinvent_7_9_3/rearranged_h_0180.sdf

> <i_m_source_file_index>
67

> <r_mmod_Potential_Energy-OPLS-2005>
718.140014648438

> <r_mmod_Stretch_Energy-OPLS-2005>
323.909973144531

> <r_mmod_Bend_Energy-OPLS-2005>
399.574829101562

> <r_mmod_Torsional_Energy-OPLS-2005>
215.747268676758

> <r_mmod_Improper_Torsional_Energy-OPLS-2005>
8.14681816101074

> <r_mmod_Van_der_Waal_Energy-OPLS-2005>
108.499015808105

> <r_mmod_Electrostatic_Energy-OPLS-2005>
-374.875274658203

> <r_mmod_Solvation_Energy-OPLS-2005>
-253.550384521484

> <b_mmod_Minimization_Converged-OPLS-2005>
0

> <r_mmod_RMS_Derivative-OPLS-2005>
1.06946301460266

$$$$
67
                    3D
 Structure written by MMmdl.
154162  0  0  1  0            999 V2000
  -30.5937  -14.8494   20.3571 C   0  0  0  0  0  0
  -30.4428  -12.5062   19.4680 C   0  0  0  0  0  0
  -29.5096  -12.4689   18.2363 C   0  0  0  0  0  0
  -28.0401  -12.2685   18.6648 C   0  0  0  0  0  0
  -27.6188  -13.1967   19.8323 C   0  0  2  0  0  0
  -28.6831  -13.2514   20.9501 C   0  0  0  0  0  0
  -25.2509  -13.8071   20.5768 C   0  0  0  0  0  0
  -24.1769  -13.0371   20.9261 C   0  0  0  0  0  0
  -24.6322  -11.6836   20.8806 C   0  0  0  0  0  0
  -23.9000  -10.4248   21.0448 C   0  0  0  0  0  0
  -24.3574   -9.4165   21.9208 C   0  0  0  0  0  0
  -23.6261   -8.2201   22.0757 C   0  0  0  0  0  0
  -22.4248   -8.0251   21.3542 C   0  0  0  0  0  0
  -21.9876   -9.0223   20.4648 C   0  0  0  0  0  0
  -22.7190  -10.2105   20.3073 C   0  0  0  0  0  0
  -21.6838   -6.0715   22.5277 C   0  0  0  0  0  0
  -21.4003   -6.5627   23.8207 C   0  0  0  0  0  0
  -21.3652   -5.6786   24.9174 C   0  0  0  0  0  0
  -21.6042   -4.3049   24.7231 C   0  0  0  0  0  0
  -21.8819   -3.8135   23.4354 C   0  0  0  0  0  0
  -21.9188   -4.6946   22.3406 C   0  0  0  0  0  0
  -22.7806  -13.5199   21.1893 C   0  0  0  0  0  0
  -22.1659   -4.2133   21.0984 F   0  0  0  0  0  0
  -21.5630   -3.4537   25.7747 F   0  0  0  0  0  0
  -29.9752  -13.6068   20.3407 N   0  0  0  0  0  0
  -26.2853  -12.9161   20.3331 N   0  0  0  0  0  0
  -25.9235  -11.6357   20.5824 N   0  0  0  0  0  0
  -22.0433  -12.8203   22.0442 N   0  0  0  0  0  0
  -25.4271  -15.1795   20.4180 N   0  0  0  0  0  0
  -31.8241  -14.9081   20.2859 O   0  0  0  0  0  0
  -21.6616   -6.8850   21.4236 O   0  0  0  0  0  0
  -22.3519  -14.5511   20.6725 O   0  0  0  0  0  0
  -24.6343  -31.8532   23.1942 C   0  0  0  0  0  0
  -25.9152  -32.4744   23.8306 C   0  0  1  0  0  0
  -27.2331  -27.2435   20.1186 C   0  0  0  0  0  0
  -25.5941  -33.8544   24.2236 N   0  0  0  0  0  0
  -23.4331  -30.4742   21.5383 C   0  0  2  0  0  0
  -24.8834  -28.9161   20.1104 C   0  0  0  0  0  0
  -22.7520  -29.4594   22.4892 C   0  0  0  0  0  0
  -18.0301  -28.1397   22.8485 C   0  0  0  0  0  0
  -24.1495  -36.7268   23.2638 C   0  0  0  0  0  0
  -25.9819  -30.7586   21.3776 C   0  0  0  0  0  0
  -26.0575  -29.3787   20.7190 C   0  0  0  0  0  0
  -27.2330  -28.5545   20.7147 C   0  0  0  0  0  0
  -26.0241  -26.8453   19.5040 C   0  0  0  0  0  0
  -24.8720  -27.6563   19.4935 C   0  0  0  0  0  0
  -23.6548  -29.8057   20.1560 C   0  0  0  0  0  0
  -25.4120  -36.3057   24.0328 C   0  0  1  0  0  0
  -20.5907  -28.3713   23.1262 C   0  0  2  0  0  0
  -20.6790  -26.9428   22.5406 C   0  0  0  0  0  0
  -19.5763  -26.6393   21.5214 C   0  0  0  0  0  0
  -18.1945  -26.7938   22.1627 C   0  0  0  0  0  0
  -19.1555  -28.8870   23.2870 C   0  0  0  0  0  0
  -18.9474  -30.1467   23.8896 C   0  0  0  0  0  0
  -17.6472  -30.6597   24.0562 C   0  0  0  0  0  0
  -25.9060  -34.9434   23.5084 C   0  0  0  0  0  0
  -16.5363  -29.9093   23.6334 C   0  0  0  0  0  0
  -16.7285  -28.6509   23.0357 C   0  0  0  0  0  0
  -26.4510  -31.6567   25.0698 C   0  0  0  0  0  0
  -25.3725  -31.3734   26.1412 C   0  0  0  0  0  0
  -27.0343  -30.2977   24.6187 C   0  0  0  0  0  0
  -27.6071  -32.4299   25.7480 C   0  0  0  0  0  0
  -27.5582  -37.1791   24.8468 C   0  0  0  0  0  0
  -21.4223  -29.3050   22.3637 N   0  0  0  0  0  0
  -26.4292  -37.3759   23.9412 N   0  0  0  0  0  0
  -24.7025  -31.0468   22.0931 N   0  0  0  0  0  0
  -23.4205  -28.8145   23.3012 O   0  0  0  0  0  0
  -28.3075  -26.3069   20.1867 O   0  0  0  0  0  0
  -26.5635  -34.8916   22.4655 O   0  0  0  0  0  0
  -23.5483  -32.1366   23.7217 O   0  0  0  0  0  0
  -29.9079  -19.7628   21.3648 C   0  0  0  0  0  0
  -30.1310  -18.3064   21.4155 C   0  0  0  0  0  0
  -29.8323  -17.6200   20.2450 C   0  0  0  0  0  0
  -29.4452  -20.2948   20.1700 C   0  0  0  0  0  0
  -29.7463  -16.1314   19.8121 C   0  0  0  0  0  0
  -28.7876  -23.9486   19.1644 C   0  0  0  0  0  0
  -28.5409  -25.3403   19.1640 C   0  0  0  0  0  0
  -28.9615  -22.8843   20.2391 C   0  0  0  0  0  0
  -30.6198  -17.6194   22.6551 C   0  0  0  0  0  0
  -28.5642  -26.0730   17.8148 C   0  0  0  0  0  0
  -29.0076  -15.9201   18.8065 N   0  0  0  0  0  0
  -29.1625  -21.6034   19.7149 N   0  0  0  0  0  0
  -28.9434  -23.0949   21.4530 O   0  0  0  0  0  0
  -28.9109  -23.4307   17.9264 O   0  0  0  0  0  0
  -29.3016  -18.8878   19.0842 S   0  0  0  0  0  0
  -31.4771  -12.6513   19.1512 H   0  0  0  0  0  0
  -30.4201  -11.5566   20.0048 H   0  0  0  0  0  0
  -29.8103  -11.6621   17.5668 H   0  0  0  0  0  0
  -29.6105  -13.3891   17.6602 H   0  0  0  0  0  0
  -27.9299  -11.2279   18.9725 H   0  0  0  0  0  0
  -27.3733  -12.4014   17.8120 H   0  0  0  0  0  0
  -27.5214  -14.1722   19.3865 H   0  0  0  0  0  0
  -28.7551  -12.2934   21.4670 H   0  0  0  0  0  0
  -28.4041  -13.9902   21.7034 H   0  0  0  0  0  0
  -25.2717   -9.5641   22.4787 H   0  0  0  0  0  0
  -23.9969   -7.4582   22.7466 H   0  0  0  0  0  0
  -21.0810   -8.8735   19.8949 H   0  0  0  0  0  0
  -22.3651  -10.9653   19.6189 H   0  0  0  0  0  0
  -21.1994   -7.6136   23.9703 H   0  0  0  0  0  0
  -21.1473   -6.0522   25.9073 H   0  0  0  0  0  0
  -22.0608   -2.7600   23.2861 H   0  0  0  0  0  0
  -22.4045  -11.9867   22.4838 H   0  0  0  0  0  0
  -21.1055  -13.1241   22.2653 H   0  0  0  0  0  0
  -24.6669  -15.8411   20.5306 H   0  0  0  0  0  0
  -26.2820  -15.6105   20.0852 H   0  0  0  0  0  0
  -26.7216  -32.5391   23.1044 H   0  0  0  0  0  0
  -25.0093  -33.9680   25.0385 H   0  0  0  0  0  0
  -22.7307  -31.2969   21.3883 H   0  0  0  0  0  0
  -23.3764  -35.9593   23.3290 H   0  0  0  0  0  0
  -24.3588  -36.8895   22.2054 H   0  0  0  0  0  0
  -23.7242  -37.6465   23.6665 H   0  0  0  0  0  0
  -26.1227  -31.5180   20.6073 H   0  0  0  0  0  0
  -26.8591  -30.8095   22.0111 H   0  0  0  0  0  0
  -28.1307  -28.9035   21.2055 H   0  0  0  0  0  0
  -25.9498  -25.8672   19.0514 H   0  0  0  0  0  0
  -23.9694  -27.2899   19.0243 H   0  0  0  0  0  0
  -23.7842  -30.5819   19.4008 H   0  0  0  0  0  0
  -22.7727  -29.2420   19.8472 H   0  0  0  0  0  0
  -25.1300  -36.1899   25.0820 H   0  0  0  0  0  0
  -21.0005  -28.3299   24.1381 H   0  0  0  0  0  0
  -20.5699  -26.2322   23.3611 H   0  0  0  0  0  0
  -21.6656  -26.7454   22.1195 H   0  0  0  0  0  0
  -19.6925  -25.6302   21.1250 H   0  0  0  0  0  0
  -19.6703  -27.3199   20.6741 H   0  0  0  0  0  0
  -17.4212  -26.6686   21.4032 H   0  0  0  0  0  0
  -18.0346  -26.0085   22.9028 H   0  0  0  0  0  0
  -19.7947  -30.7283   24.2272 H   0  0  0  0  0  0
  -17.5025  -31.6280   24.5156 H   0  0  0  0  0  0
  -15.5362  -30.2994   23.7658 H   0  0  0  0  0  0
  -15.8685  -28.0823   22.7079 H   0  0  0  0  0  0
  -24.5922  -30.7053   25.7743 H   0  0  0  0  0  0
  -24.8893  -32.2908   26.4785 H   0  0  0  0  0  0
  -25.8043  -30.8956   27.0214 H   0  0  0  0  0  0
  -26.2915  -29.6734   24.1207 H   0  0  0  0  0  0
  -27.4009  -29.7233   25.4702 H   0  0  0  0  0  0
  -27.8807  -30.4231   23.9432 H   0  0  0  0  0  0
  -27.2693  -33.3619   26.2023 H   0  0  0  0  0  0
  -28.3915  -32.6818   25.0329 H   0  0  0  0  0  0
  -28.0695  -31.8427   26.5424 H   0  0  0  0  0  0
  -28.2595  -38.0093   24.7514 H   0  0  0  0  0  0
  -28.1087  -36.2624   24.6296 H   0  0  0  0  0  0
  -27.2300  -37.1436   25.8872 H   0  0  0  0  0  0
  -20.9411  -29.8750   21.6821 H   0  0  0  0  0  0
  -26.0169  -38.2831   24.1412 H   0  0  0  0  0  0
  -30.1102  -20.3777   22.2313 H   0  0  0  0  0  0
  -30.7965  -18.3274   23.4653 H   0  0  0  0  0  0
  -31.5599  -17.0978   22.4719 H   0  0  0  0  0  0
  -29.8975  -16.8861   23.0145 H   0  0  0  0  0  0
  -29.4448  -25.8010   17.2310 H   0  0  0  0  0  0
  -28.6186  -27.1554   17.9327 H   0  0  0  0  0  0
  -27.6736  -25.8449   17.2279 H   0  0  0  0  0  0
  -29.0547  -14.9455   18.5334 H   0  0  0  0  0  0
  -29.0752  -21.6702   18.7065 H   0  0  0  0  0  0
  -28.7889  -24.1505   17.3202 H   0  0  0  0  0  0
  1 25  1  0  0  0
  1 30  2  0  0  0
  1 75  1  0  0  0
  2  3  1  0  0  0
  2 25  1  0  0  0
  2 86  1  0  0  0
  2 87  1  0  0  0
  3  4  1  0  0  0
  3 88  1  0  0  0
  3 89  1  0  0  0
  4  5  1  0  0  0
  4 90  1  0  0  0
  4 91  1  0  0  0
  5  6  1  0  0  0
  5 26  1  0  0  0
  5 92  1  0  0  0
  6 25  1  0  0  0
  6 93  1  0  0  0
  6 94  1  0  0  0
  7  8  2  0  0  0
  7 26  1  0  0  0
  7 29  1  0  0  0
  8  9  1  0  0  0
  8 22  1  0  0  0
  9 10  1  0  0  0
  9 27  2  0  0  0
 10 11  2  0  0  0
 10 15  1  0  0  0
 11 12  1  0  0  0
 11 95  1  0  0  0
 12 13  2  0  0  0
 12 96  1  0  0  0
 13 14  1  0  0  0
 13 31  1  0  0  0
 14 15  2  0  0  0
 14 97  1  0  0  0
 15 98  1  0  0  0
 16 17  2  0  0  0
 16 21  1  0  0  0
 16 31  1  0  0  0
 17 18  1  0  0  0
 17 99  1  0  0  0
 18 19  2  0  0  0
 18100  1  0  0  0
 19 20  1  0  0  0
 19 24  1  0  0  0
 20 21  2  0  0  0
 20101  1  0  0  0
 21 23  1  0  0  0
 22 28  1  0  0  0
 22 32  2  0  0  0
 26 27  1  0  0  0
 28102  1  0  0  0
 28103  1  0  0  0
 29104  1  0  0  0
 29105  1  0  0  0
 33 34  1  0  0  0
 33 66  1  0  0  0
 33 70  2  0  0  0
 34 36  1  0  0  0
 34 59  1  0  0  0
 34106  1  0  0  0
 35 44  2  0  0  0
 35 45  1  0  0  0
 35 68  1  0  0  0
 36 56  1  0  0  0
 36107  1  0  0  0
 37 39  1  0  0  0
 37 47  1  0  0  0
 37 66  1  0  0  0
 37108  1  0  0  0
 38 43  2  0  0  0
 38 46  1  0  0  0
 38 47  1  0  0  0
 39 64  1  0  0  0
 39 67  2  0  0  0
 40 52  1  0  0  0
 40 53  2  0  0  0
 40 58  1  0  0  0
 41109  1  0  0  0
 41110  1  0  0  0
 41111  1  0  0  0
 41 48  1  0  0  0
 42 43  1  0  0  0
 42 66  1  0  0  0
 42112  1  0  0  0
 42113  1  0  0  0
 43 44  1  0  0  0
 44114  1  0  0  0
 45 46  2  0  0  0
 45115  1  0  0  0
 46116  1  0  0  0
 47117  1  0  0  0
 47118  1  0  0  0
 48 56  1  0  0  0
 48 65  1  0  0  0
 48119  1  0  0  0
 49 50  1  0  0  0
 49 53  1  0  0  0
 49 64  1  0  0  0
 49120  1  0  0  0
 50 51  1  0  0  0
 50121  1  0  0  0
 50122  1  0  0  0
 51 52  1  0  0  0
 51123  1  0  0  0
 51124  1  0  0  0
 52125  1  0  0  0
 52126  1  0  0  0
 53 54  1  0  0  0
 54 55  2  0  0  0
 54127  1  0  0  0
 55 57  1  0  0  0
 55128  1  0  0  0
 56 69  2  0  0  0
 57 58  2  0  0  0
 57129  1  0  0  0
 58130  1  0  0  0
 59 60  1  0  0  0
 59 61  1  0  0  0
 59 62  1  0  0  0
 60131  1  0  0  0
 60132  1  0  0  0
 60133  1  0  0  0
 61134  1  0  0  0
 61135  1  0  0  0
 61136  1  0  0  0
 62137  1  0  0  0
 62138  1  0  0  0
 62139  1  0  0  0
 63 65  1  0  0  0
 63140  1  0  0  0
 63141  1  0  0  0
 63142  1  0  0  0
 64143  1  0  0  0
 65144  1  0  0  0
 68 77  1  0  0  0
 71 72  1  0  0  0
 71 74  2  0  0  0
 71145  1  0  0  0
 72 73  2  0  0  0
 72 79  1  0  0  0
 73 75  1  0  0  0
 73 85  1  0  0  0
 74 82  1  0  0  0
 74 85  1  0  0  0
 75 81  2  0  0  0
 76 77  2  0  0  0
 76 78  1  0  0  0
 76 84  1  0  0  0
 77 80  1  0  0  0
 78 82  1  0  0  0
 78 83  2  0  0  0
 79146  1  0  0  0
 79147  1  0  0  0
 79148  1  0  0  0
 80149  1  0  0  0
 80150  1  0  0  0
 80151  1  0  0  0
 81152  1  0  0  0
 82153  1  0  0  0
 84154  1  0  0  0
M  ISO  4   1 100  68 101  75 100  77 101
M  END
> <chiral flag>
0

> <version>
0

> <s_m_source_file>
/data/baiqing/PycharmProjects/Reinvent-master-3.2/result/LINK_invent/BTK/process_docking_weight1_custom_product_contain_oxygen_bond_distance_aromatic_linkinvent_7_9_3/rearranged_h_0180.sdf

> <i_m_source_file_index>
68

> <r_mmod_Potential_Energy-OPLS-2005>
456.575927734375

> <r_mmod_Stretch_Energy-OPLS-2005>
149.045822143555

> <r_mmod_Bend_Energy-OPLS-2005>
265.081695556641

> <r_mmod_Torsional_Energy-OPLS-2005>
233.613159179688

> <r_mmod_Improper_Torsional_Energy-OPLS-2005>
21.2470779418945

> <r_mmod_Van_der_Waal_Energy-OPLS-2005>
142.878402709961

> <r_mmod_Electrostatic_Energy-OPLS-2005>
-272.162170410156

> <r_mmod_Solvation_Energy-OPLS-2005>
-216.083602905273

> <b_mmod_Minimization_Converged-OPLS-2005>
0

> <r_mmod_RMS_Derivative-OPLS-2005>
0.870056927204132

$$$$
68
                    3D
 Structure written by MMmdl.
158166  0  0  1  0            999 V2000
  -30.6844  -14.5270   20.5122 C   0  0  0  0  0  0
  -30.4182  -12.3212   19.4427 C   0  0  0  0  0  0
  -29.4975  -12.4928   18.2163 C   0  0  0  0  0  0
  -28.0184  -12.3529   18.6262 C   0  0  0  0  0  0
  -27.6549  -13.2128   19.8666 C   0  0  2  0  0  0
  -28.6969  -13.0404   20.9955 C   0  0  0  0  0  0
  -25.2563  -13.8173   20.5682 C   0  0  0  0  0  0
  -24.1826  -13.0442   20.9189 C   0  0  0  0  0  0
  -24.6388  -11.6911   20.8741 C   0  0  0  0  0  0
  -23.9059  -10.4294   21.0407 C   0  0  0  0  0  0
  -24.3613   -9.4209   21.9184 C   0  0  0  0  0  0
  -23.6290   -8.2244   22.0753 C   0  0  0  0  0  0
  -22.4273   -8.0281   21.3544 C   0  0  0  0  0  0
  -21.9906   -9.0254   20.4647 C   0  0  0  0  0  0
  -22.7232  -10.2135   20.3056 C   0  0  0  0  0  0
  -21.6853   -6.0735   22.5279 C   0  0  0  0  0  0
  -21.4014   -6.5639   23.8212 C   0  0  0  0  0  0
  -21.3659   -5.6792   24.9174 C   0  0  0  0  0  0
  -21.6044   -4.3055   24.7225 C   0  0  0  0  0  0
  -21.8819   -3.8146   23.4347 C   0  0  0  0  0  0
  -21.9193   -4.6963   22.3402 C   0  0  0  0  0  0
  -22.7850  -13.5237   21.1852 C   0  0  0  0  0  0
  -22.1662   -4.2148   21.0980 F   0  0  0  0  0  0
  -21.5629   -3.4539   25.7738 F   0  0  0  0  0  0
  -30.0236  -13.3367   20.4348 N   0  0  0  0  0  0
  -26.2990  -12.9351   20.3331 N   0  0  0  0  0  0
  -25.9315  -11.6508   20.5763 N   0  0  0  0  0  0
  -22.0491  -12.8229   22.0408 N   0  0  0  0  0  0
  -25.4280  -15.1893   20.4086 N   0  0  0  0  0  0
  -31.8528  -14.6341   20.1280 O   0  0  0  0  0  0
  -21.6639   -6.8877   21.4240 O   0  0  0  0  0  0
  -22.3538  -14.5545   20.6701 O   0  0  0  0  0  0
  -24.6171  -31.8655   23.2077 C   0  0  0  0  0  0
  -25.9056  -32.4807   23.8378 C   0  0  1  0  0  0
  -27.2329  -27.4026   20.0931 C   0  0  0  0  0  0
  -25.5903  -33.8607   24.2310 N   0  0  0  0  0  0
  -23.4058  -30.4892   21.5489 C   0  0  2  0  0  0
  -24.8501  -28.9506   20.1125 C   0  0  0  0  0  0
  -22.7420  -29.4649   22.4978 C   0  0  0  0  0  0
  -18.0273  -28.1378   22.8493 C   0  0  0  0  0  0
  -24.1487  -36.7310   23.2639 C   0  0  0  0  0  0
  -25.9374  -30.8202   21.3654 C   0  0  0  0  0  0
  -26.0114  -29.4523   20.7115 C   0  0  0  0  0  0
  -27.2009  -28.6839   20.7014 C   0  0  0  0  0  0
  -26.0444  -26.9177   19.4995 C   0  0  0  0  0  0
  -24.8626  -27.6833   19.5058 C   0  0  0  0  0  0
  -23.6145  -29.8218   20.1631 C   0  0  0  0  0  0
  -25.4109  -36.3104   24.0335 C   0  0  1  0  0  0
  -20.5865  -28.3667   23.1313 C   0  0  2  0  0  0
  -20.6763  -26.9401   22.5417 C   0  0  0  0  0  0
  -19.5742  -26.6385   21.5213 C   0  0  0  0  0  0
  -18.1921  -26.7924   22.1625 C   0  0  0  0  0  0
  -19.1523  -28.8839   23.2900 C   0  0  0  0  0  0
  -18.9451  -30.1445   23.8911 C   0  0  0  0  0  0
  -17.6453  -30.6584   24.0565 C   0  0  0  0  0  0
  -25.9039  -34.9469   23.5122 C   0  0  0  0  0  0
  -16.5344  -29.9086   23.6326 C   0  0  0  0  0  0
  -16.7263  -28.6503   23.0348 C   0  0  0  0  0  0
  -26.4474  -31.6596   25.0718 C   0  0  0  0  0  0
  -25.3735  -31.3707   26.1464 C   0  0  0  0  0  0
  -27.0309  -30.3036   24.6112 C   0  0  0  0  0  0
  -27.6048  -32.4319   25.7481 C   0  0  0  0  0  0
  -27.5581  -37.1809   24.8465 C   0  0  0  0  0  0
  -21.4145  -29.3032   22.3717 N   0  0  0  0  0  0
  -26.4294  -37.3789   23.9407 N   0  0  0  0  0  0
  -24.6719  -31.0735   22.0987 N   0  0  0  0  0  0
  -23.4182  -28.8196   23.3032 O   0  0  0  0  0  0
  -28.4109  -26.6702   20.1287 O   0  0  0  0  0  0
  -26.5605  -34.8925   22.4686 O   0  0  0  0  0  0
  -23.5359  -32.1421   23.7458 O   0  0  0  0  0  0
  -31.2582  -18.8264   19.7281 C   0  0  0  0  0  0
  -30.0974  -19.4750   20.1184 C   0  0  0  0  0  0
  -30.1593  -16.9939   20.5825 C   0  0  0  0  0  0
  -29.0852  -22.9960   19.7205 C   0  0  0  0  0  0
  -28.3869  -24.1255   20.0255 C   0  0  0  0  0  0
  -28.9176  -21.6682   20.3329 C   0  0  0  0  0  0
  -33.7273  -19.2973   19.9223 C   0  0  0  0  0  0
  -32.6969  -18.7797   17.6581 C   0  0  0  0  0  0
  -28.5842  -25.4843   19.3182 C   0  0  0  0  0  0
  -32.4770  -19.4154   19.0388 C   0  0  0  0  0  0
  -31.2735  -17.4509   20.0088 N   0  0  0  0  0  0
  -29.8609  -20.8088   19.8938 N   0  0  0  0  0  0
  -29.9343  -15.6002   20.8734 N   0  0  0  0  0  0
  -28.0399  -21.3672   21.1458 O   0  0  0  0  0  0
  -27.4397  -24.2021   20.9753 O   0  0  0  0  0  0
  -32.3310  -20.7220   18.8021 F   0  0  0  0  0  0
  -28.9962  -18.3055   20.8692 S   0  0  0  0  0  0
  -31.4646  -12.4064   19.1441 H   0  0  0  0  0  0
  -30.3121  -11.3213   19.8664 H   0  0  0  0  0  0
  -29.7443  -11.7532   17.4534 H   0  0  0  0  0  0
  -29.6636  -13.4701   17.7602 H   0  0  0  0  0  0
  -27.8358  -11.2993   18.8410 H   0  0  0  0  0  0
  -27.3687  -12.6074   17.7880 H   0  0  0  0  0  0
  -27.6841  -14.2527   19.5410 H   0  0  0  0  0  0
  -28.6790  -12.0193   21.3795 H   0  0  0  0  0  0
  -28.4609  -13.6806   21.8469 H   0  0  0  0  0  0
  -25.2759   -9.5687   22.4756 H   0  0  0  0  0  0
  -24.0002   -7.4635   22.7471 H   0  0  0  0  0  0
  -21.0838   -8.8771   19.8952 H   0  0  0  0  0  0
  -22.3690  -10.9673   19.6165 H   0  0  0  0  0  0
  -21.2006   -7.6147   23.9715 H   0  0  0  0  0  0
  -21.1482   -6.0523   25.9077 H   0  0  0  0  0  0
  -22.0599   -2.7609   23.2847 H   0  0  0  0  0  0
  -22.4105  -11.9889   22.4795 H   0  0  0  0  0  0
  -21.1110  -13.1258   22.2615 H   0  0  0  0  0  0
  -24.6580  -15.8414   20.5117 H   0  0  0  0  0  0
  -26.2708  -15.6273   20.0597 H   0  0  0  0  0  0
  -26.7123  -32.5504   23.1135 H   0  0  0  0  0  0
  -25.0053  -33.9764   25.0456 H   0  0  0  0  0  0
  -22.6958  -31.3070   21.4094 H   0  0  0  0  0  0
  -23.3745  -35.9648   23.3311 H   0  0  0  0  0  0
  -24.3580  -36.8915   22.2051 H   0  0  0  0  0  0
  -23.7245  -37.6520   23.6648 H   0  0  0  0  0  0
  -26.0553  -31.5855   20.5968 H   0  0  0  0  0  0
  -26.8235  -30.8717   21.9864 H   0  0  0  0  0  0
  -28.0971  -29.0685   21.1679 H   0  0  0  0  0  0
  -25.9997  -25.9373   19.0495 H   0  0  0  0  0  0
  -23.9660  -27.2859   19.0504 H   0  0  0  0  0  0
  -23.7254  -30.5969   19.4040 H   0  0  0  0  0  0
  -22.7368  -29.2446   19.8665 H   0  0  0  0  0  0
  -25.1288  -36.1967   25.0828 H   0  0  0  0  0  0
  -20.9958  -28.3233   24.1433 H   0  0  0  0  0  0
  -20.5667  -26.2274   23.3605 H   0  0  0  0  0  0
  -21.6634  -26.7443   22.1209 H   0  0  0  0  0  0
  -19.6904  -25.6300   21.1233 H   0  0  0  0  0  0
  -19.6682  -27.3204   20.6751 H   0  0  0  0  0  0
  -17.4191  -26.6673   21.4026 H   0  0  0  0  0  0
  -18.0322  -26.0062   22.9018 H   0  0  0  0  0  0
  -19.7927  -30.7256   24.2287 H   0  0  0  0  0  0
  -17.5009  -31.6266   24.5164 H   0  0  0  0  0  0
  -15.5346  -30.2994   23.7641 H   0  0  0  0  0  0
  -15.8662  -28.0828   22.7055 H   0  0  0  0  0  0
  -24.5908  -30.7054   25.7800 H   0  0  0  0  0  0
  -24.8927  -32.2863   26.4916 H   0  0  0  0  0  0
  -25.8085  -30.8873   27.0220 H   0  0  0  0  0  0
  -26.2859  -29.6796   24.1161 H   0  0  0  0  0  0
  -27.4068  -29.7275   25.4578 H   0  0  0  0  0  0
  -27.8698  -30.4350   23.9273 H   0  0  0  0  0  0
  -27.2665  -33.3608   26.2085 H   0  0  0  0  0  0
  -28.3842  -32.6896   25.0299 H   0  0  0  0  0  0
  -28.0733  -31.8428   26.5375 H   0  0  0  0  0  0
  -28.2604  -38.0101   24.7509 H   0  0  0  0  0  0
  -28.1070  -36.2633   24.6295 H   0  0  0  0  0  0
  -27.2299  -37.1465   25.8868 H   0  0  0  0  0  0
  -20.9307  -29.8755   21.6939 H   0  0  0  0  0  0
  -26.0183  -38.2869   24.1403 H   0  0  0  0  0  0
  -29.8263  -23.0915   18.9386 H   0  0  0  0  0  0
  -33.9673  -18.2550   20.1333 H   0  0  0  0  0  0
  -33.5798  -19.8035   20.8764 H   0  0  0  0  0  0
  -34.5959  -19.7456   19.4400 H   0  0  0  0  0  0
  -32.8809  -17.7081   17.7383 H   0  0  0  0  0  0
  -33.5525  -19.2244   17.1501 H   0  0  0  0  0  0
  -31.8236  -18.9193   17.0207 H   0  0  0  0  0  0
  -28.0045  -25.5155   18.3958 H   0  0  0  0  0  0
  -29.6208  -25.5150   18.9811 H   0  0  0  0  0  0
  -30.5545  -21.2428   19.2963 H   0  0  0  0  0  0
  -29.0186  -15.3783   21.2295 H   0  0  0  0  0  0
  -27.3517  -23.3366   21.3619 H   0  0  0  0  0  0
  1 25  1  0  0  0
  1 30  2  0  0  0
  1 83  1  0  0  0
  2  3  1  0  0  0
  2 25  1  0  0  0
  2 88  1  0  0  0
  2 89  1  0  0  0
  3  4  1  0  0  0
  3 90  1  0  0  0
  3 91  1  0  0  0
  4  5  1  0  0  0
  4 92  1  0  0  0
  4 93  1  0  0  0
  5  6  1  0  0  0
  5 26  1  0  0  0
  5 94  1  0  0  0
  6 25  1  0  0  0
  6 95  1  0  0  0
  6 96  1  0  0  0
  7  8  2  0  0  0
  7 26  1  0  0  0
  7 29  1  0  0  0
  8  9  1  0  0  0
  8 22  1  0  0  0
  9 10  1  0  0  0
  9 27  2  0  0  0
 10 11  2  0  0  0
 10 15  1  0  0  0
 11 12  1  0  0  0
 11 97  1  0  0  0
 12 13  2  0  0  0
 12 98  1  0  0  0
 13 14  1  0  0  0
 13 31  1  0  0  0
 14 15  2  0  0  0
 14 99  1  0  0  0
 15100  1  0  0  0
 16 17  2  0  0  0
 16 21  1  0  0  0
 16 31  1  0  0  0
 17 18  1  0  0  0
 17101  1  0  0  0
 18 19  2  0  0  0
 18102  1  0  0  0
 19 20  1  0  0  0
 19 24  1  0  0  0
 20 21  2  0  0  0
 20103  1  0  0  0
 21 23  1  0  0  0
 22 28  1  0  0  0
 22 32  2  0  0  0
 26 27  1  0  0  0
 28104  1  0  0  0
 28105  1  0  0  0
 29106  1  0  0  0
 29107  1  0  0  0
 33 34  1  0  0  0
 33 66  1  0  0  0
 33 70  2  0  0  0
 34 36  1  0  0  0
 34 59  1  0  0  0
 34108  1  0  0  0
 35 44  2  0  0  0
 35 45  1  0  0  0
 35 68  1  0  0  0
 36 56  1  0  0  0
 36109  1  0  0  0
 37 39  1  0  0  0
 37 47  1  0  0  0
 37 66  1  0  0  0
 37110  1  0  0  0
 38 43  2  0  0  0
 38 46  1  0  0  0
 38 47  1  0  0  0
 39 64  1  0  0  0
 39 67  2  0  0  0
 40 52  1  0  0  0
 40 53  2  0  0  0
 40 58  1  0  0  0
 41111  1  0  0  0
 41112  1  0  0  0
 41113  1  0  0  0
 41 48  1  0  0  0
 42 43  1  0  0  0
 42 66  1  0  0  0
 42114  1  0  0  0
 42115  1  0  0  0
 43 44  1  0  0  0
 44116  1  0  0  0
 45 46  2  0  0  0
 45117  1  0  0  0
 46118  1  0  0  0
 47119  1  0  0  0
 47120  1  0  0  0
 48 56  1  0  0  0
 48 65  1  0  0  0
 48121  1  0  0  0
 49 50  1  0  0  0
 49 53  1  0  0  0
 49 64  1  0  0  0
 49122  1  0  0  0
 50 51  1  0  0  0
 50123  1  0  0  0
 50124  1  0  0  0
 51 52  1  0  0  0
 51125  1  0  0  0
 51126  1  0  0  0
 52127  1  0  0  0
 52128  1  0  0  0
 53 54  1  0  0  0
 54 55  2  0  0  0
 54129  1  0  0  0
 55 57  1  0  0  0
 55130  1  0  0  0
 56 69  2  0  0  0
 57 58  2  0  0  0
 57131  1  0  0  0
 58132  1  0  0  0
 59 60  1  0  0  0
 59 61  1  0  0  0
 59 62  1  0  0  0
 60133  1  0  0  0
 60134  1  0  0  0
 60135  1  0  0  0
 61136  1  0  0  0
 61137  1  0  0  0
 61138  1  0  0  0
 62139  1  0  0  0
 62140  1  0  0  0
 62141  1  0  0  0
 63 65  1  0  0  0
 63142  1  0  0  0
 63143  1  0  0  0
 63144  1  0  0  0
 64145  1  0  0  0
 65146  1  0  0  0
 68 79  1  0  0  0
 71 72  2  0  0  0
 71 80  1  0  0  0
 71 81  1  0  0  0
 72 82  1  0  0  0
 72 87  1  0  0  0
 73 81  2  0  0  0
 73 83  1  0  0  0
 73 87  1  0  0  0
 74 75  2  0  0  0
 74 76  1  0  0  0
 74147  1  0  0  0
 75 79  1  0  0  0
 75 85  1  0  0  0
 76 82  1  0  0  0
 76 84  2  0  0  0
 77148  1  0  0  0
 77149  1  0  0  0
 77150  1  0  0  0
 77 80  1  0  0  0
 78 80  1  0  0  0
 78151  1  0  0  0
 78152  1  0  0  0
 78153  1  0  0  0
 79154  1  0  0  0
 79155  1  0  0  0
 80 86  1  0  0  0
 82156  1  0  0  0
 83157  1  0  0  0
 85158  1  0  0  0
M  ISO  4   1 100  68 101  79 101  83 100
M  END
> <chiral flag>
0

> <version>
0

> <s_m_source_file>
/data/baiqing/PycharmProjects/Reinvent-master-3.2/result/LINK_invent/BTK/process_docking_weight1_custom_product_contain_oxygen_bond_distance_aromatic_linkinvent_7_9_3/rearranged_h_0180.sdf

> <i_m_source_file_index>
69

> <r_mmod_Potential_Energy-OPLS-2005>
-132.511276245117

> <r_mmod_Stretch_Energy-OPLS-2005>
45.2350120544434

> <r_mmod_Bend_Energy-OPLS-2005>
135.279190063477

> <r_mmod_Torsional_Energy-OPLS-2005>
172.793823242188

> <r_mmod_Improper_Torsional_Energy-OPLS-2005>
4.36368036270142

> <r_mmod_Van_der_Waal_Energy-OPLS-2005>
137.785079956055

> <r_mmod_Electrostatic_Energy-OPLS-2005>
-410.390594482422

> <r_mmod_Solvation_Energy-OPLS-2005>
-238.868804931641

> <b_mmod_Minimization_Converged-OPLS-2005>
1

> <r_mmod_RMS_Derivative-OPLS-2005>
0.0381242819130421

$$$$
69
                    3D
 Structure written by MMmdl.
149157  0  0  1  0            999 V2000
  -30.5879  -14.7426   20.4718 C   0  0  0  0  0  0
  -30.4369  -12.4522   19.4789 C   0  0  0  0  0  0
  -29.5097  -12.5123   18.2426 C   0  0  0  0  0  0
  -28.0370  -12.3274   18.6558 C   0  0  0  0  0  0
  -27.6459  -13.2242   19.8596 C   0  0  2  0  0  0
  -28.6863  -13.1374   20.9987 C   0  0  0  0  0  0
  -25.2544  -13.8172   20.5683 C   0  0  0  0  0  0
  -24.1827  -13.0448   20.9203 C   0  0  0  0  0  0
  -24.6388  -11.6908   20.8779 C   0  0  0  0  0  0
  -23.9057  -10.4293   21.0414 C   0  0  0  0  0  0
  -24.3607   -9.4211   21.9189 C   0  0  0  0  0  0
  -23.6294   -8.2241   22.0749 C   0  0  0  0  0  0
  -22.4280   -8.0277   21.3533 C   0  0  0  0  0  0
  -21.9906   -9.0248   20.4645 C   0  0  0  0  0  0
  -22.7220  -10.2137   20.3064 C   0  0  0  0  0  0
  -21.6845   -6.0743   22.5273 C   0  0  0  0  0  0
  -21.4015   -6.5641   23.8210 C   0  0  0  0  0  0
  -21.3665   -5.6788   24.9171 C   0  0  0  0  0  0
  -21.6043   -4.3051   24.7214 C   0  0  0  0  0  0
  -21.8818   -3.8152   23.4333 C   0  0  0  0  0  0
  -21.9192   -4.6974   22.3397 C   0  0  0  0  0  0
  -22.7849  -13.5238   21.1847 C   0  0  0  0  0  0
  -22.1656   -4.2160   21.0974 F   0  0  0  0  0  0
  -21.5638   -3.4535   25.7731 F   0  0  0  0  0  0
  -29.9942  -13.4983   20.4319 N   0  0  0  0  0  0
  -26.2960  -12.9358   20.3311 N   0  0  0  0  0  0
  -25.9320  -11.6516   20.5783 N   0  0  0  0  0  0
  -22.0475  -12.8259   22.0412 N   0  0  0  0  0  0
  -25.4266  -15.1884   20.4024 N   0  0  0  0  0  0
  -31.7517  -14.8771   20.0773 O   0  0  0  0  0  0
  -21.6634   -6.8882   21.4233 O   0  0  0  0  0  0
  -22.3544  -14.5530   20.6652 O   0  0  0  0  0  0
  -24.6347  -31.8537   23.1957 C   0  0  0  0  0  0
  -25.9172  -32.4730   23.8307 C   0  0  1  0  0  0
  -27.2138  -27.2475   20.1207 C   0  0  0  0  0  0
  -25.5957  -33.8534   24.2218 N   0  0  0  0  0  0
  -23.4303  -30.4772   21.5405 C   0  0  2  0  0  0
  -24.8760  -28.9277   20.1037 C   0  0  0  0  0  0
  -22.7517  -29.4602   22.4900 C   0  0  0  0  0  0
  -18.0302  -28.1397   22.8471 C   0  0  0  0  0  0
  -24.1501  -36.7286   23.2633 C   0  0  0  0  0  0
  -25.9786  -30.7613   21.3786 C   0  0  0  0  0  0
  -26.0494  -29.3850   20.7168 C   0  0  0  0  0  0
  -27.2226  -28.5584   20.7134 C   0  0  0  0  0  0
  -26.0235  -26.8782   19.4545 C   0  0  0  0  0  0
  -24.8694  -27.6825   19.4606 C   0  0  0  0  0  0
  -23.6467  -29.8134   20.1560 C   0  0  0  0  0  0
  -25.4126  -36.3050   24.0308 C   0  0  1  0  0  0
  -20.5905  -28.3713   23.1249 C   0  0  2  0  0  0
  -20.6800  -26.9429   22.5396 C   0  0  0  0  0  0
  -19.5776  -26.6386   21.5203 C   0  0  0  0  0  0
  -18.1955  -26.7939   22.1616 C   0  0  0  0  0  0
  -19.1556  -28.8871   23.2856 C   0  0  0  0  0  0
  -18.9479  -30.1471   23.8877 C   0  0  0  0  0  0
  -17.6477  -30.6596   24.0564 C   0  0  0  0  0  0
  -25.9073  -34.9423   23.5067 C   0  0  0  0  0  0
  -16.5367  -29.9092   23.6337 C   0  0  0  0  0  0
  -16.7286  -28.6512   23.0349 C   0  0  0  0  0  0
  -26.4523  -31.6559   25.0706 C   0  0  0  0  0  0
  -25.3733  -31.3741   26.1418 C   0  0  0  0  0  0
  -27.0366  -30.2961   24.6223 C   0  0  0  0  0  0
  -27.6067  -32.4301   25.7496 C   0  0  0  0  0  0
  -27.5581  -37.1797   24.8458 C   0  0  0  0  0  0
  -21.4219  -29.3057   22.3638 N   0  0  0  0  0  0
  -26.4293  -37.3753   23.9404 N   0  0  0  0  0  0
  -24.7004  -31.0493   22.0940 N   0  0  0  0  0  0
  -23.4219  -28.8145   23.3005 O   0  0  0  0  0  0
  -28.2827  -26.3140   20.2042 O   0  0  0  0  0  0
  -26.5648  -34.8911   22.4637 O   0  0  0  0  0  0
  -23.5497  -32.1361   23.7251 O   0  0  0  0  0  0
  -29.6996  -19.9152   20.5549 C   0  0  0  0  0  0
  -29.9433  -19.2595   19.3557 C   0  0  0  0  0  0
  -29.8796  -17.2800   20.5902 C   0  0  0  0  0  0
  -29.8167  -21.3713   20.9358 C   0  0  0  0  0  0
  -29.2086  -23.8113   20.4312 C   0  0  0  0  0  0
  -27.0214  -24.5701   21.4438 C   0  0  0  0  0  0
  -27.9737  -24.8223   20.2508 C   0  0  1  0  0  0
  -30.0550  -17.8324   19.3769 N   0  0  0  0  0  0
  -29.8093  -15.8215   20.8579 N   0  0  0  0  0  0
  -29.0577  -22.4107   20.3646 N   0  0  0  0  0  0
  -30.3024  -24.3527   20.6338 O   0  0  0  0  0  0
  -30.1489  -19.9221   18.2405 F   0  0  0  0  0  0
  -30.9537  -21.6214   22.1556 S   0  0  0  0  0  0
  -29.4881  -18.5903   21.7623 S   0  0  0  0  0  0
  -31.4753  -12.5870   19.1732 H   0  0  0  0  0  0
  -30.3950  -11.4675   19.9489 H   0  0  0  0  0  0
  -29.7930  -11.7453   17.5204 H   0  0  0  0  0  0
  -29.6317  -13.4718   17.7366 H   0  0  0  0  0  0
  -27.8985  -11.2775   18.9185 H   0  0  0  0  0  0
  -27.3768  -12.5161   17.8085 H   0  0  0  0  0  0
  -27.6477  -14.2476   19.4858 H   0  0  0  0  0  0
  -28.7180  -12.1318   21.4198 H   0  0  0  0  0  0
  -28.4100  -13.7966   21.8234 H   0  0  0  0  0  0
  -25.2744   -9.5688   22.4774 H   0  0  0  0  0  0
  -24.0001   -7.4625   22.7455 H   0  0  0  0  0  0
  -21.0840   -8.8762   19.8943 H   0  0  0  0  0  0
  -22.3666  -10.9684   19.6188 H   0  0  0  0  0  0
  -21.2000   -7.6147   23.9719 H   0  0  0  0  0  0
  -21.1491   -6.0518   25.9074 H   0  0  0  0  0  0
  -22.0598   -2.7615   23.2824 H   0  0  0  0  0  0
  -22.4078  -11.9936   22.4837 H   0  0  0  0  0  0
  -21.1093  -13.1308   22.2594 H   0  0  0  0  0  0
  -24.6526  -15.8389   20.4788 H   0  0  0  0  0  0
  -26.2650  -15.6121   20.0260 H   0  0  0  0  0  0
  -26.7239  -32.5371   23.1050 H   0  0  0  0  0  0
  -25.0089  -33.9664   25.0356 H   0  0  0  0  0  0
  -22.7274  -31.3008   21.3951 H   0  0  0  0  0  0
  -23.3747  -35.9634   23.3281 H   0  0  0  0  0  0
  -24.3589  -36.8931   22.2050 H   0  0  0  0  0  0
  -23.7279  -37.6490   23.6678 H   0  0  0  0  0  0
  -26.1239  -31.5227   20.6116 H   0  0  0  0  0  0
  -26.8542  -30.8057   22.0140 H   0  0  0  0  0  0
  -28.1182  -28.8980   21.2140 H   0  0  0  0  0  0
  -25.9454  -25.9308   18.9446 H   0  0  0  0  0  0
  -23.9760  -27.3281   18.9653 H   0  0  0  0  0  0
  -23.7678  -30.5900   19.4004 H   0  0  0  0  0  0
  -22.7643  -29.2471   19.8511 H   0  0  0  0  0  0
  -25.1313  -36.1876   25.0798 H   0  0  0  0  0  0
  -20.9997  -28.3308   24.1372 H   0  0  0  0  0  0
  -20.5709  -26.2334   23.3612 H   0  0  0  0  0  0
  -21.6670  -26.7471   22.1187 H   0  0  0  0  0  0
  -19.6949  -25.6291   21.1256 H   0  0  0  0  0  0
  -19.6714  -27.3180   20.6719 H   0  0  0  0  0  0
  -17.4225  -26.6664   21.4021 H   0  0  0  0  0  0
  -18.0367  -26.0085   22.9015 H   0  0  0  0  0  0
  -19.7956  -30.7286   24.2236 H   0  0  0  0  0  0
  -17.5039  -31.6271   24.5171 H   0  0  0  0  0  0
  -15.5373  -30.2994   23.7670 H   0  0  0  0  0  0
  -15.8684  -28.0830   22.7073 H   0  0  0  0  0  0
  -24.5884  -30.7120   25.7740 H   0  0  0  0  0  0
  -24.8964  -32.2931   26.4835 H   0  0  0  0  0  0
  -25.8030  -30.8906   27.0200 H   0  0  0  0  0  0
  -26.2954  -29.6696   24.1245 H   0  0  0  0  0  0
  -27.4016  -29.7238   25.4764 H   0  0  0  0  0  0
  -27.8851  -30.4199   23.9490 H   0  0  0  0  0  0
  -27.2656  -33.3591   26.2079 H   0  0  0  0  0  0
  -28.3892  -32.6875   25.0343 H   0  0  0  0  0  0
  -28.0724  -31.8423   26.5417 H   0  0  0  0  0  0
  -28.2582  -38.0108   24.7505 H   0  0  0  0  0  0
  -28.1094  -36.2636   24.6278 H   0  0  0  0  0  0
  -27.2303  -37.1438   25.8861 H   0  0  0  0  0  0
  -20.9418  -29.8765   21.6819 H   0  0  0  0  0  0
  -26.0157  -38.2823   24.1402 H   0  0  0  0  0  0
  -26.8144  -23.5108   21.5870 H   0  0  0  0  0  0
  -26.0539  -25.0517   21.3232 H   0  0  0  0  0  0
  -27.4598  -24.9441   22.3687 H   0  0  0  0  0  0
  -27.4952  -24.5210   19.3192 H   0  0  0  0  0  0
  -28.9790  -15.5489   21.3615 H   0  0  0  0  0  0
  -28.2283  -22.1078   19.8789 H   0  0  0  0  0  0
  1 25  1  0  0  0
  1 30  2  0  0  0
  1 79  1  0  0  0
  2  3  1  0  0  0
  2 25  1  0  0  0
  2 85  1  0  0  0
  2 86  1  0  0  0
  3  4  1  0  0  0
  3 87  1  0  0  0
  3 88  1  0  0  0
  4  5  1  0  0  0
  4 89  1  0  0  0
  4 90  1  0  0  0
  5  6  1  0  0  0
  5 26  1  0  0  0
  5 91  1  0  0  0
  6 25  1  0  0  0
  6 92  1  0  0  0
  6 93  1  0  0  0
  7  8  2  0  0  0
  7 26  1  0  0  0
  7 29  1  0  0  0
  8  9  1  0  0  0
  8 22  1  0  0  0
  9 10  1  0  0  0
  9 27  2  0  0  0
 10 11  2  0  0  0
 10 15  1  0  0  0
 11 12  1  0  0  0
 11 94  1  0  0  0
 12 13  2  0  0  0
 12 95  1  0  0  0
 13 14  1  0  0  0
 13 31  1  0  0  0
 14 15  2  0  0  0
 14 96  1  0  0  0
 15 97  1  0  0  0
 16 17  2  0  0  0
 16 21  1  0  0  0
 16 31  1  0  0  0
 17 18  1  0  0  0
 17 98  1  0  0  0
 18 19  2  0  0  0
 18 99  1  0  0  0
 19 20  1  0  0  0
 19 24  1  0  0  0
 20 21  2  0  0  0
 20100  1  0  0  0
 21 23  1  0  0  0
 22 28  1  0  0  0
 22 32  2  0  0  0
 26 27  1  0  0  0
 28101  1  0  0  0
 28102  1  0  0  0
 29103  1  0  0  0
 29104  1  0  0  0
 33 34  1  0  0  0
 33 66  1  0  0  0
 33 70  2  0  0  0
 34 36  1  0  0  0
 34 59  1  0  0  0
 34105  1  0  0  0
 35 44  2  0  0  0
 35 45  1  0  0  0
 35 68  1  0  0  0
 36 56  1  0  0  0
 36106  1  0  0  0
 37 39  1  0  0  0
 37 47  1  0  0  0
 37 66  1  0  0  0
 37107  1  0  0  0
 38 43  2  0  0  0
 38 46  1  0  0  0
 38 47  1  0  0  0
 39 64  1  0  0  0
 39 67  2  0  0  0
 40 52  1  0  0  0
 40 53  2  0  0  0
 40 58  1  0  0  0
 41108  1  0  0  0
 41109  1  0  0  0
 41110  1  0  0  0
 41 48  1  0  0  0
 42 43  1  0  0  0
 42 66  1  0  0  0
 42111  1  0  0  0
 42112  1  0  0  0
 43 44  1  0  0  0
 44113  1  0  0  0
 45 46  2  0  0  0
 45114  1  0  0  0
 46115  1  0  0  0
 47116  1  0  0  0
 47117  1  0  0  0
 48 56  1  0  0  0
 48 65  1  0  0  0
 48118  1  0  0  0
 49 50  1  0  0  0
 49 53  1  0  0  0
 49 64  1  0  0  0
 49119  1  0  0  0
 50 51  1  0  0  0
 50120  1  0  0  0
 50121  1  0  0  0
 51 52  1  0  0  0
 51122  1  0  0  0
 51123  1  0  0  0
 52124  1  0  0  0
 52125  1  0  0  0
 53 54  1  0  0  0
 54 55  2  0  0  0
 54126  1  0  0  0
 55 57  1  0  0  0
 55127  1  0  0  0
 56 69  2  0  0  0
 57 58  2  0  0  0
 57128  1  0  0  0
 58129  1  0  0  0
 59 60  1  0  0  0
 59 61  1  0  0  0
 59 62  1  0  0  0
 60130  1  0  0  0
 60131  1  0  0  0
 60132  1  0  0  0
 61133  1  0  0  0
 61134  1  0  0  0
 61135  1  0  0  0
 62136  1  0  0  0
 62137  1  0  0  0
 62138  1  0  0  0
 63 65  1  0  0  0
 63139  1  0  0  0
 63140  1  0  0  0
 63141  1  0  0  0
 64142  1  0  0  0
 65143  1  0  0  0
 68 77  1  0  0  0
 71 72  2  0  0  0
 71 74  1  0  0  0
 71 84  1  0  0  0
 72 78  1  0  0  0
 72 82  1  0  0  0
 73 78  2  0  0  0
 73 79  1  0  0  0
 73 84  1  0  0  0
 74 80  1  0  0  0
 74 83  2  0  0  0
 75 77  1  0  0  0
 75 80  1  0  0  0
 75 81  2  0  0  0
 76144  1  0  0  0
 76145  1  0  0  0
 76146  1  0  0  0
 76 77  1  0  0  0
 77147  1  0  0  0
 79148  1  0  0  0
 80149  1  0  0  0
M  ISO  4   1 100  68 101  77 101  79 100
M  END
> <chiral flag>
0

> <version>
0

> <s_m_source_file>
/data/baiqing/PycharmProjects/Reinvent-master-3.2/result/LINK_invent/BTK/process_docking_weight1_custom_product_contain_oxygen_bond_distance_aromatic_linkinvent_7_9_3/rearranged_h_0180.sdf

> <i_m_source_file_index>
70

> <r_mmod_Potential_Energy-OPLS-2005>
77.4606781005859

> <r_mmod_Stretch_Energy-OPLS-2005>
129.537612915039

> <r_mmod_Bend_Energy-OPLS-2005>
174.911514282227

> <r_mmod_Torsional_Energy-OPLS-2005>
280.525360107422

> <r_mmod_Improper_Torsional_Energy-OPLS-2005>
5.16265773773193

> <r_mmod_Van_der_Waal_Energy-OPLS-2005>
138.920349121094

> <r_mmod_Electrostatic_Energy-OPLS-2005>
-450.568664550781

> <r_mmod_Solvation_Energy-OPLS-2005>
-292.326110839844

> <b_mmod_Minimization_Converged-OPLS-2005>
0

> <r_mmod_RMS_Derivative-OPLS-2005>
2.12659764289856

$$$$
70
                    3D
 Structure written by MMmdl.
149157  0  0  1  0            999 V2000
  -30.5380  -14.8641   20.3572 C   0  0  0  0  0  0
  -30.4375  -12.5143   19.4711 C   0  0  0  0  0  0
  -29.5107  -12.5247   18.2352 C   0  0  0  0  0  0
  -28.0434  -12.3193   18.6557 C   0  0  0  0  0  0
  -27.6335  -13.2362   19.8399 C   0  0  2  0  0  0
  -28.6837  -13.2005   20.9711 C   0  0  0  0  0  0
  -25.2488  -13.8208   20.5833 C   0  0  0  0  0  0
  -24.1751  -13.0432   20.9239 C   0  0  0  0  0  0
  -24.6356  -11.6918   20.8717 C   0  0  0  0  0  0
  -23.9028  -10.4305   21.0368 C   0  0  0  0  0  0
  -24.3592   -9.4220   21.9149 C   0  0  0  0  0  0
  -23.6252   -8.2260   22.0717 C   0  0  0  0  0  0
  -22.4230   -8.0290   21.3529 C   0  0  0  0  0  0
  -21.9877   -9.0269   20.4609 C   0  0  0  0  0  0
  -22.7198  -10.2158   20.3016 C   0  0  0  0  0  0
  -21.6860   -6.0708   22.5281 C   0  0  0  0  0  0
  -21.3994   -6.5596   23.8207 C   0  0  0  0  0  0
  -21.3672   -5.6745   24.9162 C   0  0  0  0  0  0
  -21.6055   -4.3005   24.7216 C   0  0  0  0  0  0
  -21.8820   -3.8113   23.4330 C   0  0  0  0  0  0
  -21.9186   -4.6925   22.3389 C   0  0  0  0  0  0
  -22.7777  -13.5213   21.1917 C   0  0  0  0  0  0
  -22.1659   -4.2124   21.0960 F   0  0  0  0  0  0
  -21.5623   -3.4486   25.7725 F   0  0  0  0  0  0
  -29.9683  -13.5958   20.3777 N   0  0  0  0  0  0
  -26.2880  -12.9416   20.3264 N   0  0  0  0  0  0
  -25.9281  -11.6542   20.5685 N   0  0  0  0  0  0
  -22.0411  -12.8211   22.0443 N   0  0  0  0  0  0
  -25.4205  -15.1954   20.4551 N   0  0  0  0  0  0
  -31.7291  -14.9592   20.0427 O   0  0  0  0  0  0
  -21.6604   -6.8874   21.4257 O   0  0  0  0  0  0
  -22.3476  -14.5571   20.6808 O   0  0  0  0  0  0
  -24.6376  -31.8509   23.1898 C   0  0  0  0  0  0
  -25.9204  -32.4704   23.8241 C   0  0  1  0  0  0
  -27.2070  -27.1961   20.1131 C   0  0  0  0  0  0
  -25.6002  -33.8509   24.2207 N   0  0  0  0  0  0
  -23.4369  -30.4733   21.5357 C   0  0  2  0  0  0
  -24.8815  -28.9165   20.0916 C   0  0  0  0  0  0
  -22.7536  -29.4571   22.4858 C   0  0  0  0  0  0
  -18.0281  -28.1395   22.8426 C   0  0  0  0  0  0
  -24.1504  -36.7238   23.2639 C   0  0  0  0  0  0
  -25.9862  -30.7368   21.3808 C   0  0  0  0  0  0
  -26.0596  -29.3561   20.7185 C   0  0  0  0  0  0
  -27.2281  -28.5095   20.7211 C   0  0  0  0  0  0
  -26.0104  -26.8498   19.4533 C   0  0  0  0  0  0
  -24.8680  -27.6747   19.4449 C   0  0  0  0  0  0
  -23.6541  -29.8110   20.1492 C   0  0  0  0  0  0
  -25.4132  -36.3008   24.0300 C   0  0  1  0  0  0
  -20.5891  -28.3723   23.1217 C   0  0  2  0  0  0
  -20.6764  -26.9425   22.5398 C   0  0  0  0  0  0
  -19.5766  -26.6368   21.5177 C   0  0  0  0  0  0
  -18.1946  -26.7913   22.1598 C   0  0  0  0  0  0
  -19.1539  -28.8871   23.2788 C   0  0  0  0  0  0
  -18.9481  -30.1469   23.8823 C   0  0  0  0  0  0
  -17.6486  -30.6582   24.0550 C   0  0  0  0  0  0
  -25.9078  -34.9412   23.5046 C   0  0  0  0  0  0
  -16.5376  -29.9084   23.6308 C   0  0  0  0  0  0
  -16.7260  -28.6493   23.0317 C   0  0  0  0  0  0
  -26.4517  -31.6529   25.0648 C   0  0  0  0  0  0
  -25.3692  -31.3767   26.1334 C   0  0  0  0  0  0
  -27.0417  -30.2935   24.6242 C   0  0  0  0  0  0
  -27.6075  -32.4257   25.7422 C   0  0  0  0  0  0
  -27.5550  -37.1789   24.8475 C   0  0  0  0  0  0
  -21.4231  -29.3059   22.3596 N   0  0  0  0  0  0
  -26.4284  -37.3721   23.9376 N   0  0  0  0  0  0
  -24.7056  -31.0404   22.0909 N   0  0  0  0  0  0
  -23.4200  -28.8106   23.2974 O   0  0  0  0  0  0
  -28.2146  -26.1750   20.1377 O   0  0  0  0  0  0
  -26.5676  -34.8893   22.4632 O   0  0  0  0  0  0
  -23.5512  -32.1393   23.7198 O   0  0  0  0  0  0
  -30.1690  -19.5929   18.7065 C   0  0  0  0  0  0
  -29.3883  -19.8452   19.8340 C   0  0  0  0  0  0
  -29.8466  -17.4376   20.0616 C   0  0  0  0  0  0
  -27.8449  -24.9298   20.7695 C   0  0  0  0  0  0
  -28.0893  -23.5259   20.7371 C   0  0  0  0  0  0
  -28.9563  -22.5641   19.9222 C   0  0  0  0  0  0
  -30.5636  -20.4971   17.5741 C   0  0  0  0  0  0
  -29.1825  -18.5664   20.5359 N   0  0  0  0  0  0
  -28.7810  -21.1860   20.2203 N   0  0  0  0  0  0
  -29.7293  -16.0060   20.5440 N   0  0  0  0  0  0
  -29.7707  -22.9525   19.0861 O   0  0  0  0  0  0
  -27.3936  -22.8675   21.6811 O   0  0  0  0  0  0
  -30.7567  -17.9130   18.6294 S   0  0  0  0  0  0
  -31.4745  -12.6555   19.1595 H   0  0  0  0  0  0
  -30.4065  -11.5408   19.9664 H   0  0  0  0  0  0
  -29.8127  -11.7548   17.5229 H   0  0  0  0  0  0
  -29.6038  -13.4833   17.7220 H   0  0  0  0  0  0
  -27.9385  -11.2752   18.9548 H   0  0  0  0  0  0
  -27.3767  -12.4679   17.8041 H   0  0  0  0  0  0
  -27.6107  -14.2489   19.4355 H   0  0  0  0  0  0
  -28.7472  -12.1985   21.4018 H   0  0  0  0  0  0
  -28.4096  -13.8668   21.7890 H   0  0  0  0  0  0
  -25.2755   -9.5686   22.4706 H   0  0  0  0  0  0
  -23.9943   -7.4653   22.7447 H   0  0  0  0  0  0
  -21.0801   -8.8773   19.8938 H   0  0  0  0  0  0
  -22.3627  -10.9670   19.6097 H   0  0  0  0  0  0
  -21.1958   -7.6101   23.9740 H   0  0  0  0  0  0
  -21.1498   -6.0434   25.9080 H   0  0  0  0  0  0
  -22.0590   -2.7574   23.2807 H   0  0  0  0  0  0
  -22.4011  -11.9825   22.4761 H   0  0  0  0  0  0
  -21.1054  -13.1273   22.2736 H   0  0  0  0  0  0
  -24.6749  -15.8491   20.6713 H   0  0  0  0  0  0
  -26.3032  -15.6519   20.2682 H   0  0  0  0  0  0
  -26.7271  -32.5355   23.0958 H   0  0  0  0  0  0
  -25.0136  -33.9604   25.0351 H   0  0  0  0  0  0
  -22.7365  -31.2979   21.3916 H   0  0  0  0  0  0
  -23.3712  -35.9618   23.3358 H   0  0  0  0  0  0
  -24.3582  -36.8828   22.2036 H   0  0  0  0  0  0
  -23.7322  -37.6481   23.6649 H   0  0  0  0  0  0
  -26.1406  -31.4965   20.6127 H   0  0  0  0  0  0
  -26.8567  -30.7809   22.0231 H   0  0  0  0  0  0
  -28.1223  -28.8390   21.2330 H   0  0  0  0  0  0
  -25.9434  -25.8895   18.9596 H   0  0  0  0  0  0
  -23.9749  -27.3442   18.9275 H   0  0  0  0  0  0
  -23.7705  -30.5916   19.3947 H   0  0  0  0  0  0
  -22.7666  -29.2448   19.8510 H   0  0  0  0  0  0
  -25.1310  -36.1808   25.0780 H   0  0  0  0  0  0
  -20.9961  -28.3360   24.1348 H   0  0  0  0  0  0
  -20.5647  -26.2319   23.3601 H   0  0  0  0  0  0
  -21.6632  -26.7415   22.1241 H   0  0  0  0  0  0
  -19.6931  -25.6255   21.1254 H   0  0  0  0  0  0
  -19.6739  -27.3142   20.6674 H   0  0  0  0  0  0
  -17.4220  -26.6578   21.4004 H   0  0  0  0  0  0
  -18.0412  -26.0112   22.9065 H   0  0  0  0  0  0
  -19.7982  -30.7256   24.2175 H   0  0  0  0  0  0
  -17.5039  -31.6223   24.5224 H   0  0  0  0  0  0
  -15.5369  -30.2978   23.7621 H   0  0  0  0  0  0
  -15.8643  -28.0784   22.7084 H   0  0  0  0  0  0
  -24.5833  -30.7156   25.7625 H   0  0  0  0  0  0
  -24.8902  -32.2990   26.4647 H   0  0  0  0  0  0
  -25.7909  -30.8975   27.0180 H   0  0  0  0  0  0
  -26.3073  -29.6595   24.1250 H   0  0  0  0  0  0
  -27.4058  -29.7248   25.4809 H   0  0  0  0  0  0
  -27.8935  -30.4151   23.9549 H   0  0  0  0  0  0
  -27.2706  -33.3570   26.1970 H   0  0  0  0  0  0
  -28.3899  -32.6799   25.0258 H   0  0  0  0  0  0
  -28.0721  -31.8396   26.5363 H   0  0  0  0  0  0
  -28.2617  -38.0029   24.7395 H   0  0  0  0  0  0
  -28.1001  -36.2555   24.6445 H   0  0  0  0  0  0
  -27.2278  -37.1598   25.8892 H   0  0  0  0  0  0
  -20.9434  -29.8794   21.6800 H   0  0  0  0  0  0
  -26.0143  -38.2797   24.1319 H   0  0  0  0  0  0
  -27.1405  -25.2176   21.5376 H   0  0  0  0  0  0
  -29.7320  -21.1181   17.2430 H   0  0  0  0  0  0
  -30.8804  -19.9249   16.6974 H   0  0  0  0  0  0
  -31.4022  -21.1368   17.8487 H   0  0  0  0  0  0
  -28.0581  -21.1185   20.9241 H   0  0  0  0  0  0
  -28.8379  -15.7858   20.9556 H   0  0  0  0  0  0
  -26.9327  -23.5045   22.2079 H   0  0  0  0  0  0
  1 25  1  0  0  0
  1 30  2  0  0  0
  1 80  1  0  0  0
  2  3  1  0  0  0
  2 25  1  0  0  0
  2 84  1  0  0  0
  2 85  1  0  0  0
  3  4  1  0  0  0
  3 86  1  0  0  0
  3 87  1  0  0  0
  4  5  1  0  0  0
  4 88  1  0  0  0
  4 89  1  0  0  0
  5  6  1  0  0  0
  5 26  1  0  0  0
  5 90  1  0  0  0
  6 25  1  0  0  0
  6 91  1  0  0  0
  6 92  1  0  0  0
  7  8  2  0  0  0
  7 26  1  0  0  0
  7 29  1  0  0  0
  8  9  1  0  0  0
  8 22  1  0  0  0
  9 10  1  0  0  0
  9 27  2  0  0  0
 10 11  2  0  0  0
 10 15  1  0  0  0
 11 12  1  0  0  0
 11 93  1  0  0  0
 12 13  2  0  0  0
 12 94  1  0  0  0
 13 14  1  0  0  0
 13 31  1  0  0  0
 14 15  2  0  0  0
 14 95  1  0  0  0
 15 96  1  0  0  0
 16 17  2  0  0  0
 16 21  1  0  0  0
 16 31  1  0  0  0
 17 18  1  0  0  0
 17 97  1  0  0  0
 18 19  2  0  0  0
 18 98  1  0  0  0
 19 20  1  0  0  0
 19 24  1  0  0  0
 20 21  2  0  0  0
 20 99  1  0  0  0
 21 23  1  0  0  0
 22 28  1  0  0  0
 22 32  2  0  0  0
 26 27  1  0  0  0
 28100  1  0  0  0
 28101  1  0  0  0
 29102  1  0  0  0
 29103  1  0  0  0
 33 34  1  0  0  0
 33 66  1  0  0  0
 33 70  2  0  0  0
 34 36  1  0  0  0
 34 59  1  0  0  0
 34104  1  0  0  0
 35 44  2  0  0  0
 35 45  1  0  0  0
 35 68  1  0  0  0
 36 56  1  0  0  0
 36105  1  0  0  0
 37 39  1  0  0  0
 37 47  1  0  0  0
 37 66  1  0  0  0
 37106  1  0  0  0
 38 43  2  0  0  0
 38 46  1  0  0  0
 38 47  1  0  0  0
 39 64  1  0  0  0
 39 67  2  0  0  0
 40 52  1  0  0  0
 40 53  2  0  0  0
 40 58  1  0  0  0
 41107  1  0  0  0
 41108  1  0  0  0
 41109  1  0  0  0
 41 48  1  0  0  0
 42 43  1  0  0  0
 42 66  1  0  0  0
 42110  1  0  0  0
 42111  1  0  0  0
 43 44  1  0  0  0
 44112  1  0  0  0
 45 46  2  0  0  0
 45113  1  0  0  0
 46114  1  0  0  0
 47115  1  0  0  0
 47116  1  0  0  0
 48 56  1  0  0  0
 48 65  1  0  0  0
 48117  1  0  0  0
 49 50  1  0  0  0
 49 53  1  0  0  0
 49 64  1  0  0  0
 49118  1  0  0  0
 50 51  1  0  0  0
 50119  1  0  0  0
 50120  1  0  0  0
 51 52  1  0  0  0
 51121  1  0  0  0
 51122  1  0  0  0
 52123  1  0  0  0
 52124  1  0  0  0
 53 54  1  0  0  0
 54 55  2  0  0  0
 54125  1  0  0  0
 55 57  1  0  0  0
 55126  1  0  0  0
 56 69  2  0  0  0
 57 58  2  0  0  0
 57127  1  0  0  0
 58128  1  0  0  0
 59 60  1  0  0  0
 59 61  1  0  0  0
 59 62  1  0  0  0
 60129  1  0  0  0
 60130  1  0  0  0
 60131  1  0  0  0
 61132  1  0  0  0
 61133  1  0  0  0
 61134  1  0  0  0
 62135  1  0  0  0
 62136  1  0  0  0
 62137  1  0  0  0
 63 65  1  0  0  0
 63138  1  0  0  0
 63139  1  0  0  0
 63140  1  0  0  0
 64141  1  0  0  0
 65142  1  0  0  0
 68 74  1  0  0  0
 71 72  2  0  0  0
 71 77  1  0  0  0
 71 83  1  0  0  0
 72 78  1  0  0  0
 72 79  1  0  0  0
 73 78  2  0  0  0
 73 80  1  0  0  0
 73 83  1  0  0  0
 74 75  2  0  0  0
 74143  1  0  0  0
 75 76  1  0  0  0
 75 82  1  0  0  0
 76 79  1  0  0  0
 76 81  2  0  0  0
 77144  1  0  0  0
 77145  1  0  0  0
 77146  1  0  0  0
 79147  1  0  0  0
 80148  1  0  0  0
 82149  1  0  0  0
M  ISO  4   1 100  68 101  74 101  80 100
M  END
> <chiral flag>
0

> <version>
0

> <s_m_source_file>
/data/baiqing/PycharmProjects/Reinvent-master-3.2/result/LINK_invent/BTK/process_docking_weight1_custom_product_contain_oxygen_bond_distance_aromatic_linkinvent_7_9_3/rearranged_h_0180.sdf

> <i_m_source_file_index>
71

> <r_mmod_Potential_Energy-OPLS-2005>
271.281097412109

> <r_mmod_Stretch_Energy-OPLS-2005>
185.117279052734

> <r_mmod_Bend_Energy-OPLS-2005>
282.452087402344

> <r_mmod_Torsional_Energy-OPLS-2005>
223.095001220703

> <r_mmod_Improper_Torsional_Energy-OPLS-2005>
4.48778676986694

> <r_mmod_Van_der_Waal_Energy-OPLS-2005>
121.173538208008

> <r_mmod_Electrostatic_Energy-OPLS-2005>
-460.046905517578

> <r_mmod_Solvation_Energy-OPLS-2005>
-235.469924926758

> <b_mmod_Minimization_Converged-OPLS-2005>
0

> <r_mmod_RMS_Derivative-OPLS-2005>
6.2218451499939

$$$$
71
                    3D
 Structure written by MMmdl.
162170  0  0  1  0            999 V2000
  -30.5852  -14.7323   20.5121 C   0  0  0  0  0  0
  -30.4367  -12.4486   19.4716 C   0  0  0  0  0  0
  -29.5127  -12.5294   18.2358 C   0  0  0  0  0  0
  -28.0398  -12.3346   18.6488 C   0  0  0  0  0  0
  -27.6470  -13.2223   19.8592 C   0  0  2  0  0  0
  -28.6895  -13.1260   20.9969 C   0  0  0  0  0  0
  -25.2548  -13.8171   20.5696 C   0  0  0  0  0  0
  -24.1835  -13.0443   20.9199 C   0  0  0  0  0  0
  -24.6402  -11.6893   20.8705 C   0  0  0  0  0  0
  -23.9042  -10.4282   21.0361 C   0  0  0  0  0  0
  -24.3595   -9.4199   21.9161 C   0  0  0  0  0  0
  -23.6269   -8.2227   22.0755 C   0  0  0  0  0  0
  -22.4265   -8.0263   21.3539 C   0  0  0  0  0  0
  -21.9892   -9.0221   20.4639 C   0  0  0  0  0  0
  -22.7196  -10.2096   20.3030 C   0  0  0  0  0  0
  -21.6849   -6.0695   22.5260 C   0  0  0  0  0  0
  -21.4032   -6.5611   23.8182 C   0  0  0  0  0  0
  -21.3677   -5.6781   24.9161 C   0  0  0  0  0  0
  -21.6033   -4.3035   24.7228 C   0  0  0  0  0  0
  -21.8811   -3.8114   23.4356 C   0  0  0  0  0  0
  -21.9196   -4.6924   22.3396 C   0  0  0  0  0  0
  -22.7854  -13.5219   21.1894 C   0  0  0  0  0  0
  -22.1657   -4.2103   21.0972 F   0  0  0  0  0  0
  -21.5632   -3.4526   25.7754 F   0  0  0  0  0  0
  -29.9956  -13.4893   20.4292 N   0  0  0  0  0  0
  -26.2975  -12.9354   20.3289 N   0  0  0  0  0  0
  -25.9329  -11.6504   20.5727 N   0  0  0  0  0  0
  -22.0512  -12.8176   22.0408 N   0  0  0  0  0  0
  -25.4246  -15.1910   20.4151 N   0  0  0  0  0  0
  -31.7637  -14.8824   20.1625 O   0  0  0  0  0  0
  -21.6642   -6.8845   21.4232 O   0  0  0  0  0  0
  -22.3519  -14.5518   20.6743 O   0  0  0  0  0  0
  -24.6288  -31.8548   23.1931 C   0  0  0  0  0  0
  -25.9124  -32.4739   23.8274 C   0  0  1  0  0  0
  -27.2220  -27.2571   20.1366 C   0  0  0  0  0  0
  -25.5989  -33.8543   24.2241 N   0  0  0  0  0  0
  -23.4280  -30.4701   21.5327 C   0  0  2  0  0  0
  -24.8764  -28.9071   20.1215 C   0  0  0  0  0  0
  -22.7524  -29.4558   22.4871 C   0  0  0  0  0  0
  -18.0262  -28.1401   22.8412 C   0  0  0  0  0  0
  -24.1577  -36.7317   23.2633 C   0  0  0  0  0  0
  -25.9745  -30.7619   21.3801 C   0  0  0  0  0  0
  -26.0492  -29.3824   20.7246 C   0  0  0  0  0  0
  -27.2274  -28.5721   20.7163 C   0  0  0  0  0  0
  -26.0231  -26.8331   19.5316 C   0  0  0  0  0  0
  -24.8674  -27.6368   19.5193 C   0  0  0  0  0  0
  -23.6518  -29.7983   20.1533 C   0  0  0  0  0  0
  -25.4185  -36.3074   24.0319 C   0  0  1  0  0  0
  -20.5881  -28.3697   23.1294 C   0  0  2  0  0  0
  -20.6803  -26.9428   22.5408 C   0  0  0  0  0  0
  -19.5781  -26.6335   21.5227 C   0  0  0  0  0  0
  -18.1918  -26.7906   22.1577 C   0  0  0  0  0  0
  -19.1523  -28.8852   23.2831 C   0  0  0  0  0  0
  -18.9449  -30.1428   23.8897 C   0  0  0  0  0  0
  -17.6471  -30.6603   24.0531 C   0  0  0  0  0  0
  -25.9102  -34.9426   23.5088 C   0  0  0  0  0  0
  -16.5359  -29.9128   23.6276 C   0  0  0  0  0  0
  -16.7257  -28.6537   23.0295 C   0  0  0  0  0  0
  -26.4515  -31.6584   25.0676 C   0  0  0  0  0  0
  -25.3696  -31.3731   26.1375 C   0  0  0  0  0  0
  -27.0422  -30.3025   24.6160 C   0  0  0  0  0  0
  -27.6075  -32.4331   25.7428 C   0  0  0  0  0  0
  -27.5637  -37.1822   24.8444 C   0  0  0  0  0  0
  -21.4218  -29.3082   22.3769 N   0  0  0  0  0  0
  -26.4360  -37.3749   23.9357 N   0  0  0  0  0  0
  -24.6930  -31.0523   22.0885 N   0  0  0  0  0  0
  -23.4272  -28.7987   23.2820 O   0  0  0  0  0  0
  -28.3467  -26.4167   20.0584 O   0  0  0  0  0  0
  -26.5622  -34.8907   22.4631 O   0  0  0  0  0  0
  -23.5460  -32.1343   23.7270 O   0  0  0  0  0  0
  -30.7638  -19.4157   20.9823 C   0  0  0  0  0  0
  -29.4493  -19.8663   20.7598 C   0  0  0  0  0  0
  -29.8393  -17.2659   20.7644 C   0  0  0  0  0  0
  -29.1950  -22.4364   20.4282 C   0  0  0  0  0  0
  -32.8056  -20.3125   19.8550 C   0  0  0  0  0  0
  -32.9421  -19.5990   22.3107 C   0  0  0  0  0  0
  -26.7095  -23.1423   20.6381 C   0  0  0  0  0  0
  -28.0158  -23.7021   18.5488 C   0  0  0  0  0  0
  -28.4077  -25.0803   20.7435 C   0  0  0  0  0  0
  -32.0476  -20.1985   21.1920 C   0  0  0  0  0  0
  -28.1086  -23.6007   20.1046 C   0  0  0  0  0  0
  -30.9507  -17.9954   20.9111 N   0  0  0  0  0  0
  -28.8041  -21.1216   20.6422 N   0  0  0  0  0  0
  -29.7404  -15.7883   20.8114 N   0  0  0  0  0  0
  -30.3841  -22.7528   20.4279 O   0  0  0  0  0  0
  -28.4477  -18.3848   20.6280 S   0  0  0  0  0  0
  -31.4772  -12.5784   19.1760 H   0  0  0  0  0  0
  -30.3726  -11.4586   19.9273 H   0  0  0  0  0  0
  -29.7995  -11.7807   17.4948 H   0  0  0  0  0  0
  -29.6281  -13.5000   17.7511 H   0  0  0  0  0  0
  -27.9156  -11.2843   18.9150 H   0  0  0  0  0  0
  -27.3752  -12.5231   17.8028 H   0  0  0  0  0  0
  -27.6490  -14.2473   19.4882 H   0  0  0  0  0  0
  -28.7244  -12.1200   21.4199 H   0  0  0  0  0  0
  -28.4178  -13.7901   21.8191 H   0  0  0  0  0  0
  -25.2744   -9.5680   22.4736 H   0  0  0  0  0  0
  -23.9963   -7.4646   22.7501 H   0  0  0  0  0  0
  -21.0804   -8.8724   19.8958 H   0  0  0  0  0  0
  -22.3639  -10.9644   19.6131 H   0  0  0  0  0  0
  -21.2023   -7.6128   23.9675 H   0  0  0  0  0  0
  -21.1523   -6.0525   25.9065 H   0  0  0  0  0  0
  -22.0578   -2.7581   23.2871 H   0  0  0  0  0  0
  -22.4141  -11.9825   22.4753 H   0  0  0  0  0  0
  -21.1152  -13.1238   22.2678 H   0  0  0  0  0  0
  -24.6495  -15.8381   20.5154 H   0  0  0  0  0  0
  -26.2573  -15.6347   20.0520 H   0  0  0  0  0  0
  -26.7150  -32.5434   23.0983 H   0  0  0  0  0  0
  -25.0321  -33.9668   25.0514 H   0  0  0  0  0  0
  -22.7190  -31.2892   21.3829 H   0  0  0  0  0  0
  -23.3842  -35.9654   23.3269 H   0  0  0  0  0  0
  -24.3663  -36.8981   22.2051 H   0  0  0  0  0  0
  -23.7338  -37.6507   23.6693 H   0  0  0  0  0  0
  -26.1469  -31.5226   20.6211 H   0  0  0  0  0  0
  -26.8386  -30.7976   22.0298 H   0  0  0  0  0  0
  -28.1382  -28.9313   21.1778 H   0  0  0  0  0  0
  -25.9915  -25.8612   19.0572 H   0  0  0  0  0  0
  -23.9667  -27.2639   19.0492 H   0  0  0  0  0  0
  -23.7928  -30.5736   19.3978 H   0  0  0  0  0  0
  -22.7697  -29.2387   19.8416 H   0  0  0  0  0  0
  -25.1363  -36.1949   25.0808 H   0  0  0  0  0  0
  -20.9900  -28.3299   24.1445 H   0  0  0  0  0  0
  -20.5827  -26.2307   23.3597 H   0  0  0  0  0  0
  -21.6640  -26.7517   22.1148 H   0  0  0  0  0  0
  -19.6989  -25.6224   21.1325 H   0  0  0  0  0  0
  -19.6772  -27.3085   20.6716 H   0  0  0  0  0  0
  -17.4211  -26.6627   21.3957 H   0  0  0  0  0  0
  -18.0276  -26.0070   22.9005 H   0  0  0  0  0  0
  -19.7952  -30.7159   24.2376 H   0  0  0  0  0  0
  -17.5048  -31.6294   24.5115 H   0  0  0  0  0  0
  -15.5378  -30.3057   23.7597 H   0  0  0  0  0  0
  -15.8620  -28.0899   22.7012 H   0  0  0  0  0  0
  -24.5852  -30.7144   25.7625 H   0  0  0  0  0  0
  -24.8909  -32.2911   26.4805 H   0  0  0  0  0  0
  -25.7897  -30.8838   27.0171 H   0  0  0  0  0  0
  -26.3007  -29.6700   24.1256 H   0  0  0  0  0  0
  -27.4268  -29.7335   25.4640 H   0  0  0  0  0  0
  -27.8814  -30.4376   23.9311 H   0  0  0  0  0  0
  -27.2719  -33.3694   26.1895 H   0  0  0  0  0  0
  -28.3880  -32.6800   25.0212 H   0  0  0  0  0  0
  -28.0747  -31.8529   26.5405 H   0  0  0  0  0  0
  -28.2598  -38.0185   24.7522 H   0  0  0  0  0  0
  -28.1206  -36.2689   24.6264 H   0  0  0  0  0  0
  -27.2315  -37.1418   25.8839 H   0  0  0  0  0  0
  -20.9429  -29.9038   21.7183 H   0  0  0  0  0  0
  -26.0302  -38.2873   24.1258 H   0  0  0  0  0  0
  -32.1881  -20.8012   19.0985 H   0  0  0  0  0  0
  -33.0786  -19.3310   19.4622 H   0  0  0  0  0  0
  -33.7221  -20.8929   19.9538 H   0  0  0  0  0  0
  -32.4259  -19.5724   23.2731 H   0  0  0  0  0  0
  -33.8578  -20.1746   22.4547 H   0  0  0  0  0  0
  -33.2542  -18.5784   22.0801 H   0  0  0  0  0  0
  -26.3478  -22.2221   20.1695 H   0  0  0  0  0  0
  -25.9342  -23.8895   20.4528 H   0  0  0  0  0  0
  -26.7143  -22.9777   21.7196 H   0  0  0  0  0  0
  -28.3210  -22.7733   18.0592 H   0  0  0  0  0  0
  -28.6386  -24.4956   18.1270 H   0  0  0  0  0  0
  -26.9945  -23.8905   18.2126 H   0  0  0  0  0  0
  -29.4352  -25.0583   21.1108 H   0  0  0  0  0  0
  -27.8234  -25.1701   21.6609 H   0  0  0  0  0  0
  -31.8105  -21.1962   21.5513 H   0  0  0  0  0  0
  -27.7971  -21.0445   20.6085 H   0  0  0  0  0  0
  -28.8104  -15.4690   21.0286 H   0  0  0  0  0  0
  1 25  1  0  0  0
  1 30  2  0  0  0
  1 84  1  0  0  0
  2  3  1  0  0  0
  2 25  1  0  0  0
  2 87  1  0  0  0
  2 88  1  0  0  0
  3  4  1  0  0  0
  3 89  1  0  0  0
  3 90  1  0  0  0
  4  5  1  0  0  0
  4 91  1  0  0  0
  4 92  1  0  0  0
  5  6  1  0  0  0
  5 26  1  0  0  0
  5 93  1  0  0  0
  6 25  1  0  0  0
  6 94  1  0  0  0
  6 95  1  0  0  0
  7  8  2  0  0  0
  7 26  1  0  0  0
  7 29  1  0  0  0
  8  9  1  0  0  0
  8 22  1  0  0  0
  9 10  1  0  0  0
  9 27  2  0  0  0
 10 11  2  0  0  0
 10 15  1  0  0  0
 11 12  1  0  0  0
 11 96  1  0  0  0
 12 13  2  0  0  0
 12 97  1  0  0  0
 13 14  1  0  0  0
 13 31  1  0  0  0
 14 15  2  0  0  0
 14 98  1  0  0  0
 15 99  1  0  0  0
 16 17  2  0  0  0
 16 21  1  0  0  0
 16 31  1  0  0  0
 17 18  1  0  0  0
 17100  1  0  0  0
 18 19  2  0  0  0
 18101  1  0  0  0
 19 20  1  0  0  0
 19 24  1  0  0  0
 20 21  2  0  0  0
 20102  1  0  0  0
 21 23  1  0  0  0
 22 28  1  0  0  0
 22 32  2  0  0  0
 26 27  1  0  0  0
 28103  1  0  0  0
 28104  1  0  0  0
 29105  1  0  0  0
 29106  1  0  0  0
 33 34  1  0  0  0
 33 66  1  0  0  0
 33 70  2  0  0  0
 34 36  1  0  0  0
 34 59  1  0  0  0
 34107  1  0  0  0
 35 44  2  0  0  0
 35 45  1  0  0  0
 35 68  1  0  0  0
 36 56  1  0  0  0
 36108  1  0  0  0
 37 39  1  0  0  0
 37 47  1  0  0  0
 37 66  1  0  0  0
 37109  1  0  0  0
 38 43  2  0  0  0
 38 46  1  0  0  0
 38 47  1  0  0  0
 39 64  1  0  0  0
 39 67  2  0  0  0
 40 52  1  0  0  0
 40 53  2  0  0  0
 40 58  1  0  0  0
 41110  1  0  0  0
 41111  1  0  0  0
 41112  1  0  0  0
 41 48  1  0  0  0
 42 43  1  0  0  0
 42 66  1  0  0  0
 42113  1  0  0  0
 42114  1  0  0  0
 43 44  1  0  0  0
 44115  1  0  0  0
 45 46  2  0  0  0
 45116  1  0  0  0
 46117  1  0  0  0
 47118  1  0  0  0
 47119  1  0  0  0
 48 56  1  0  0  0
 48 65  1  0  0  0
 48120  1  0  0  0
 49 50  1  0  0  0
 49 53  1  0  0  0
 49 64  1  0  0  0
 49121  1  0  0  0
 50 51  1  0  0  0
 50122  1  0  0  0
 50123  1  0  0  0
 51 52  1  0  0  0
 51124  1  0  0  0
 51125  1  0  0  0
 52126  1  0  0  0
 52127  1  0  0  0
 53 54  1  0  0  0
 54 55  2  0  0  0
 54128  1  0  0  0
 55 57  1  0  0  0
 55129  1  0  0  0
 56 69  2  0  0  0
 57 58  2  0  0  0
 57130  1  0  0  0
 58131  1  0  0  0
 59 60  1  0  0  0
 59 61  1  0  0  0
 59 62  1  0  0  0
 60132  1  0  0  0
 60133  1  0  0  0
 60134  1  0  0  0
 61135  1  0  0  0
 61136  1  0  0  0
 61137  1  0  0  0
 62138  1  0  0  0
 62139  1  0  0  0
 62140  1  0  0  0
 63 65  1  0  0  0
 63141  1  0  0  0
 63142  1  0  0  0
 63143  1  0  0  0
 64144  1  0  0  0
 65145  1  0  0  0
 68 79  1  0  0  0
 71 72  2  0  0  0
 71 80  1  0  0  0
 71 82  1  0  0  0
 72 83  1  0  0  0
 72 86  1  0  0  0
 73 82  2  0  0  0
 73 84  1  0  0  0
 73 86  1  0  0  0
 74 81  1  0  0  0
 74 83  1  0  0  0
 74 85  2  0  0  0
 75146  1  0  0  0
 75147  1  0  0  0
 75148  1  0  0  0
 75 80  1  0  0  0
 76 80  1  0  0  0
 76149  1  0  0  0
 76150  1  0  0  0
 76151  1  0  0  0
 77152  1  0  0  0
 77153  1  0  0  0
 77154  1  0  0  0
 77 81  1  0  0  0
 78 81  1  0  0  0
 78155  1  0  0  0
 78156  1  0  0  0
 78157  1  0  0  0
 79 81  1  0  0  0
 79158  1  0  0  0
 79159  1  0  0  0
 80160  1  0  0  0
 83161  1  0  0  0
 84162  1  0  0  0
M  ISO  4   1 100  68 101  79 101  84 100
M  END
> <chiral flag>
0

> <version>
0

> <s_m_source_file>
/data/baiqing/PycharmProjects/Reinvent-master-3.2/result/LINK_invent/BTK/process_docking_weight1_custom_product_contain_oxygen_bond_distance_aromatic_linkinvent_7_9_3/rearranged_h_0180.sdf

> <i_m_source_file_index>
72

> <r_mmod_Potential_Energy-OPLS-2005>
113.94898223877

> <r_mmod_Stretch_Energy-OPLS-2005>
124.843719482422

> <r_mmod_Bend_Energy-OPLS-2005>
214.924331665039

> <r_mmod_Torsional_Energy-OPLS-2005>
253.637359619141

> <r_mmod_Improper_Torsional_Energy-OPLS-2005>
5.24221611022949

> <r_mmod_Van_der_Waal_Energy-OPLS-2005>
112.245155334473

> <r_mmod_Electrostatic_Energy-OPLS-2005>
-437.039886474609

> <r_mmod_Solvation_Energy-OPLS-2005>
-236.550445556641

> <b_mmod_Minimization_Converged-OPLS-2005>
0

> <r_mmod_RMS_Derivative-OPLS-2005>
7.01980018615723

$$$$
72
                    3D
 Structure written by MMmdl.
154162  0  0  1  0            999 V2000
  -30.6620  -14.5183   20.5498 C   0  0  0  0  0  0
  -30.4327  -12.3285   19.4269 C   0  0  0  0  0  0
  -29.4993  -12.5060   18.2097 C   0  0  0  0  0  0
  -28.0203  -12.3599   18.6219 C   0  0  0  0  0  0
  -27.6610  -13.2049   19.8734 C   0  0  2  0  0  0
  -28.7036  -12.9921   20.9947 C   0  0  0  0  0  0
  -25.2592  -13.8155   20.5671 C   0  0  0  0  0  0
  -24.1845  -13.0439   20.9186 C   0  0  0  0  0  0
  -24.6395  -11.6903   20.8743 C   0  0  0  0  0  0
  -23.9058  -10.4293   21.0411 C   0  0  0  0  0  0
  -24.3612   -9.4207   21.9188 C   0  0  0  0  0  0
  -23.6289   -8.2241   22.0755 C   0  0  0  0  0  0
  -22.4271   -8.0282   21.3546 C   0  0  0  0  0  0
  -21.9907   -9.0255   20.4648 C   0  0  0  0  0  0
  -22.7232  -10.2134   20.3060 C   0  0  0  0  0  0
  -21.6851   -6.0736   22.5279 C   0  0  0  0  0  0
  -21.4011   -6.5639   23.8213 C   0  0  0  0  0  0
  -21.3659   -5.6793   24.9175 C   0  0  0  0  0  0
  -21.6045   -4.3057   24.7225 C   0  0  0  0  0  0
  -21.8819   -3.8148   23.4347 C   0  0  0  0  0  0
  -21.9192   -4.6965   22.3403 C   0  0  0  0  0  0
  -22.7868  -13.5243   21.1848 C   0  0  0  0  0  0
  -22.1661   -4.2150   21.0981 F   0  0  0  0  0  0
  -21.5629   -3.4542   25.7738 F   0  0  0  0  0  0
  -30.0310  -13.3149   20.4429 N   0  0  0  0  0  0
  -26.3021  -12.9316   20.3352 N   0  0  0  0  0  0
  -25.9320  -11.6481   20.5767 N   0  0  0  0  0  0
  -22.0503  -12.8238   22.0402 N   0  0  0  0  0  0
  -25.4319  -15.1869   20.4042 N   0  0  0  0  0  0
  -31.7989  -14.7149   20.1104 O   0  0  0  0  0  0
  -21.6636   -6.8878   21.4241 O   0  0  0  0  0  0
  -22.3559  -14.5551   20.6697 O   0  0  0  0  0  0
  -24.6170  -31.8660   23.2075 C   0  0  0  0  0  0
  -25.9052  -32.4813   23.8383 C   0  0  1  0  0  0
  -27.2358  -27.4136   20.1067 C   0  0  0  0  0  0
  -25.5900  -33.8611   24.2316 N   0  0  0  0  0  0
  -23.4069  -30.4877   21.5482 C   0  0  2  0  0  0
  -24.8561  -28.9484   20.1158 C   0  0  0  0  0  0
  -22.7425  -29.4647   22.4980 C   0  0  0  0  0  0
  -18.0274  -28.1375   22.8494 C   0  0  0  0  0  0
  -24.1486  -36.7308   23.2639 C   0  0  0  0  0  0
  -25.9374  -30.8261   21.3628 C   0  0  0  0  0  0
  -26.0176  -29.4581   20.7112 C   0  0  0  0  0  0
  -27.2141  -28.7000   20.6993 C   0  0  0  0  0  0
  -26.0596  -26.9217   19.5050 C   0  0  0  0  0  0
  -24.8729  -27.6804   19.5080 C   0  0  0  0  0  0
  -23.6178  -29.8170   20.1643 C   0  0  0  0  0  0
  -25.4107  -36.3105   24.0339 C   0  0  1  0  0  0
  -20.5867  -28.3666   23.1312 C   0  0  2  0  0  0
  -20.6766  -26.9399   22.5418 C   0  0  0  0  0  0
  -19.5744  -26.6383   21.5214 C   0  0  0  0  0  0
  -18.1921  -26.7922   22.1624 C   0  0  0  0  0  0
  -19.1525  -28.8837   23.2901 C   0  0  0  0  0  0
  -18.9452  -30.1442   23.8913 C   0  0  0  0  0  0
  -17.6455  -30.6584   24.0564 C   0  0  0  0  0  0
  -25.9036  -34.9472   23.5126 C   0  0  0  0  0  0
  -16.5345  -29.9087   23.6328 C   0  0  0  0  0  0
  -16.7264  -28.6500   23.0353 C   0  0  0  0  0  0
  -26.4477  -31.6594   25.0714 C   0  0  0  0  0  0
  -25.3743  -31.3694   26.1461 C   0  0  0  0  0  0
  -27.0312  -30.3037   24.6091 C   0  0  0  0  0  0
  -27.6053  -32.4315   25.7477 C   0  0  0  0  0  0
  -27.5580  -37.1807   24.8466 C   0  0  0  0  0  0
  -21.4149  -29.3032   22.3720 N   0  0  0  0  0  0
  -26.4291  -37.3792   23.9411 N   0  0  0  0  0  0
  -24.6721  -31.0744   22.0984 N   0  0  0  0  0  0
  -23.4186  -28.8193   23.3034 O   0  0  0  0  0  0
  -28.3764  -26.6360   20.0989 O   0  0  0  0  0  0
  -26.5600  -34.8927   22.4688 O   0  0  0  0  0  0
  -23.5356  -32.1417   23.7459 O   0  0  0  0  0  0
  -31.2241  -17.6639   20.4948 C   0  0  0  0  0  0
  -30.0930  -16.9402   20.9673 C   0  0  0  0  0  0
  -29.1998  -17.8971   21.3811 C   0  0  0  0  0  0
  -28.9356  -22.9358   21.0886 C   0  0  0  0  0  0
  -29.1742  -21.6578   20.6799 C   0  0  0  0  0  0
  -28.7251  -24.1411   20.2289 C   0  0  0  0  0  0
  -27.8425  -17.7523   21.9912 C   0  0  0  0  0  0
  -29.3688  -20.4742   21.6578 C   0  0  0  0  0  0
  -28.2970  -25.4564   20.9357 C   0  0  0  0  0  0
  -31.0525  -18.9766   20.6497 N   0  0  0  0  0  0
  -29.8097  -19.1390   21.1829 N   0  0  0  0  0  0
  -29.8916  -15.5180   21.0367 N   0  0  0  0  0  0
  -28.8636  -24.1161   19.0002 O   0  0  0  0  0  0
  -29.2542  -21.2799   19.3933 O   0  0  0  0  0  0
  -31.4754  -12.4439   19.1250 H   0  0  0  0  0  0
  -30.3499  -11.3182   19.8308 H   0  0  0  0  0  0
  -29.7446  -11.7759   17.4373 H   0  0  0  0  0  0
  -29.6596  -13.4885   17.7627 H   0  0  0  0  0  0
  -27.8368  -11.3041   18.8247 H   0  0  0  0  0  0
  -27.3683  -12.6254   17.7889 H   0  0  0  0  0  0
  -27.7014  -14.2509   19.5690 H   0  0  0  0  0  0
  -28.6900  -11.9550   21.3326 H   0  0  0  0  0  0
  -28.4601  -13.5861   21.8768 H   0  0  0  0  0  0
  -25.2755   -9.5683   22.4762 H   0  0  0  0  0  0
  -23.9998   -7.4632   22.7473 H   0  0  0  0  0  0
  -21.0837   -8.8775   19.8954 H   0  0  0  0  0  0
  -22.3693  -10.9675   19.6170 H   0  0  0  0  0  0
  -21.2002   -7.6147   23.9716 H   0  0  0  0  0  0
  -21.1481   -6.0524   25.9077 H   0  0  0  0  0  0
  -22.0599   -2.7611   23.2847 H   0  0  0  0  0  0
  -22.4106  -11.9892   22.4787 H   0  0  0  0  0  0
  -21.1125  -13.1274   22.2610 H   0  0  0  0  0  0
  -24.6585  -15.8370   20.4917 H   0  0  0  0  0  0
  -26.2691  -15.6160   20.0320 H   0  0  0  0  0  0
  -26.7124  -32.5524   23.1148 H   0  0  0  0  0  0
  -25.0059  -33.9770   25.0468 H   0  0  0  0  0  0
  -22.6966  -31.3047   21.4058 H   0  0  0  0  0  0
  -23.3748  -35.9641   23.3311 H   0  0  0  0  0  0
  -24.3578  -36.8916   22.2052 H   0  0  0  0  0  0
  -23.7240  -37.6516   23.6650 H   0  0  0  0  0  0
  -26.0502  -31.5906   20.5928 H   0  0  0  0  0  0
  -26.8246  -30.8819   21.9819 H   0  0  0  0  0  0
  -28.1119  -29.0891   21.1586 H   0  0  0  0  0  0
  -26.0623  -25.9477   19.0357 H   0  0  0  0  0  0
  -23.9806  -27.2823   19.0445 H   0  0  0  0  0  0
  -23.7269  -30.5904   19.4031 H   0  0  0  0  0  0
  -22.7419  -29.2368   19.8683 H   0  0  0  0  0  0
  -25.1285  -36.1969   25.0831 H   0  0  0  0  0  0
  -20.9957  -28.3232   24.1433 H   0  0  0  0  0  0
  -20.5670  -26.2273   23.3607 H   0  0  0  0  0  0
  -21.6636  -26.7442   22.1206 H   0  0  0  0  0  0
  -19.6907  -25.6298   21.1232 H   0  0  0  0  0  0
  -19.6683  -27.3205   20.6755 H   0  0  0  0  0  0
  -17.4193  -26.6677   21.4022 H   0  0  0  0  0  0
  -18.0317  -26.0056   22.9009 H   0  0  0  0  0  0
  -19.7929  -30.7251   24.2291 H   0  0  0  0  0  0
  -17.5011  -31.6267   24.5160 H   0  0  0  0  0  0
  -15.5347  -30.2996   23.7642 H   0  0  0  0  0  0
  -15.8661  -28.0824   22.7067 H   0  0  0  0  0  0
  -24.5917  -30.7041   25.7795 H   0  0  0  0  0  0
  -24.8931  -32.2845   26.4922 H   0  0  0  0  0  0
  -25.8095  -30.8853   27.0212 H   0  0  0  0  0  0
  -26.2854  -29.6792   24.1157 H   0  0  0  0  0  0
  -27.4102  -29.7279   25.4544 H   0  0  0  0  0  0
  -27.8680  -30.4359   23.9227 H   0  0  0  0  0  0
  -27.2673  -33.3607   26.2075 H   0  0  0  0  0  0
  -28.3851  -32.6888   25.0297 H   0  0  0  0  0  0
  -28.0734  -31.8426   26.5376 H   0  0  0  0  0  0
  -28.2601  -38.0101   24.7515 H   0  0  0  0  0  0
  -28.1073  -36.2634   24.6288 H   0  0  0  0  0  0
  -27.2296  -37.1452   25.8868 H   0  0  0  0  0  0
  -20.9314  -29.8755   21.6939 H   0  0  0  0  0  0
  -26.0182  -38.2870   24.1414 H   0  0  0  0  0  0
  -32.1543  -17.2980   20.0832 H   0  0  0  0  0  0
  -28.8852  -23.1189   22.1526 H   0  0  0  0  0  0
  -27.5113  -16.7145   21.9852 H   0  0  0  0  0  0
  -27.1049  -18.3378   21.4425 H   0  0  0  0  0  0
  -27.8446  -18.0925   23.0264 H   0  0  0  0  0  0
  -28.4283  -20.3540   22.1955 H   0  0  0  0  0  0
  -30.0864  -20.7925   22.4153 H   0  0  0  0  0  0
  -28.9441  -25.6096   21.7994 H   0  0  0  0  0  0
  -27.2882  -25.3188   21.3276 H   0  0  0  0  0  0
  -28.9971  -15.2136   21.3887 H   0  0  0  0  0  0
  -29.1454  -22.0627   18.8622 H   0  0  0  0  0  0
  1 25  1  0  0  0
  1 30  2  0  0  0
  1 82  1  0  0  0
  2  3  1  0  0  0
  2 25  1  0  0  0
  2 85  1  0  0  0
  2 86  1  0  0  0
  3  4  1  0  0  0
  3 87  1  0  0  0
  3 88  1  0  0  0
  4  5  1  0  0  0
  4 89  1  0  0  0
  4 90  1  0  0  0
  5  6  1  0  0  0
  5 26  1  0  0  0
  5 91  1  0  0  0
  6 25  1  0  0  0
  6 92  1  0  0  0
  6 93  1  0  0  0
  7  8  2  0  0  0
  7 26  1  0  0  0
  7 29  1  0  0  0
  8  9  1  0  0  0
  8 22  1  0  0  0
  9 10  1  0  0  0
  9 27  2  0  0  0
 10 11  2  0  0  0
 10 15  1  0  0  0
 11 12  1  0  0  0
 11 94  1  0  0  0
 12 13  2  0  0  0
 12 95  1  0  0  0
 13 14  1  0  0  0
 13 31  1  0  0  0
 14 15  2  0  0  0
 14 96  1  0  0  0
 15 97  1  0  0  0
 16 17  2  0  0  0
 16 21  1  0  0  0
 16 31  1  0  0  0
 17 18  1  0  0  0
 17 98  1  0  0  0
 18 19  2  0  0  0
 18 99  1  0  0  0
 19 20  1  0  0  0
 19 24  1  0  0  0
 20 21  2  0  0  0
 20100  1  0  0  0
 21 23  1  0  0  0
 22 28  1  0  0  0
 22 32  2  0  0  0
 26 27  1  0  0  0
 28101  1  0  0  0
 28102  1  0  0  0
 29103  1  0  0  0
 29104  1  0  0  0
 33 34  1  0  0  0
 33 66  1  0  0  0
 33 70  2  0  0  0
 34 36  1  0  0  0
 34 59  1  0  0  0
 34105  1  0  0  0
 35 44  2  0  0  0
 35 45  1  0  0  0
 35 68  1  0  0  0
 36 56  1  0  0  0
 36106  1  0  0  0
 37 39  1  0  0  0
 37 47  1  0  0  0
 37 66  1  0  0  0
 37107  1  0  0  0
 38 43  2  0  0  0
 38 46  1  0  0  0
 38 47  1  0  0  0
 39 64  1  0  0  0
 39 67  2  0  0  0
 40 52  1  0  0  0
 40 53  2  0  0  0
 40 58  1  0  0  0
 41108  1  0  0  0
 41109  1  0  0  0
 41110  1  0  0  0
 41 48  1  0  0  0
 42 43  1  0  0  0
 42 66  1  0  0  0
 42111  1  0  0  0
 42112  1  0  0  0
 43 44  1  0  0  0
 44113  1  0  0  0
 45 46  2  0  0  0
 45114  1  0  0  0
 46115  1  0  0  0
 47116  1  0  0  0
 47117  1  0  0  0
 48 56  1  0  0  0
 48 65  1  0  0  0
 48118  1  0  0  0
 49 50  1  0  0  0
 49 53  1  0  0  0
 49 64  1  0  0  0
 49119  1  0  0  0
 50 51  1  0  0  0
 50120  1  0  0  0
 50121  1  0  0  0
 51 52  1  0  0  0
 51122  1  0  0  0
 51123  1  0  0  0
 52124  1  0  0  0
 52125  1  0  0  0
 53 54  1  0  0  0
 54 55  2  0  0  0
 54126  1  0  0  0
 55 57  1  0  0  0
 55127  1  0  0  0
 56 69  2  0  0  0
 57 58  2  0  0  0
 57128  1  0  0  0
 58129  1  0  0  0
 59 60  1  0  0  0
 59 61  1  0  0  0
 59 62  1  0  0  0
 60130  1  0  0  0
 60131  1  0  0  0
 60132  1  0  0  0
 61133  1  0  0  0
 61134  1  0  0  0
 61135  1  0  0  0
 62136  1  0  0  0
 62137  1  0  0  0
 62138  1  0  0  0
 63 65  1  0  0  0
 63139  1  0  0  0
 63140  1  0  0  0
 63141  1  0  0  0
 64142  1  0  0  0
 65143  1  0  0  0
 68 79  1  0  0  0
 71 72  1  0  0  0
 71 80  2  0  0  0
 71144  1  0  0  0
 72 73  2  0  0  0
 72 82  1  0  0  0
 73 77  1  0  0  0
 73 81  1  0  0  0
 74 75  2  0  0  0
 74 76  1  0  0  0
 74145  1  0  0  0
 75 78  1  0  0  0
 75 84  1  0  0  0
 76 79  1  0  0  0
 76 83  2  0  0  0
 77146  1  0  0  0
 77147  1  0  0  0
 77148  1  0  0  0
 78 81  1  0  0  0
 78149  1  0  0  0
 78150  1  0  0  0
 79151  1  0  0  0
 79152  1  0  0  0
 80 81  1  0  0  0
 82153  1  0  0  0
 84154  1  0  0  0
M  ISO  4   1 100  68 101  79 101  82 100
M  END
> <chiral flag>
0

> <version>
0

> <s_m_source_file>
/data/baiqing/PycharmProjects/Reinvent-master-3.2/result/LINK_invent/BTK/process_docking_weight1_custom_product_contain_oxygen_bond_distance_aromatic_linkinvent_7_9_3/rearranged_h_0180.sdf

> <i_m_source_file_index>
73

> <r_mmod_Potential_Energy-OPLS-2005>
-53.3113174438477

> <r_mmod_Stretch_Energy-OPLS-2005>
44.6549415588379

> <r_mmod_Bend_Energy-OPLS-2005>
121.252548217773

> <r_mmod_Torsional_Energy-OPLS-2005>
226.853637695312

> <r_mmod_Improper_Torsional_Energy-OPLS-2005>
4.78493118286133

> <r_mmod_Van_der_Waal_Energy-OPLS-2005>
124.930473327637

> <r_mmod_Electrostatic_Energy-OPLS-2005>
-342.141265869141

> <r_mmod_Solvation_Energy-OPLS-2005>
-251.132095336914

> <b_mmod_Minimization_Converged-OPLS-2005>
0

> <r_mmod_RMS_Derivative-OPLS-2005>
0.364987999200821

$$$$
73
                    3D
 Structure written by MMmdl.
160168  0  0  1  0            999 V2000
  -30.7120  -14.4477   20.6235 C   0  0  0  0  0  0
  -30.4394  -12.2930   19.4459 C   0  0  0  0  0  0
  -29.5299  -12.5280   18.2244 C   0  0  0  0  0  0
  -28.0437  -12.3751   18.6163 C   0  0  0  0  0  0
  -27.6728  -13.2027   19.8756 C   0  0  2  0  0  0
  -28.7054  -12.9545   21.0008 C   0  0  0  0  0  0
  -25.2573  -13.8113   20.5644 C   0  0  0  0  0  0
  -24.1835  -13.0445   20.9120 C   0  0  0  0  0  0
  -24.6345  -11.6887   20.8648 C   0  0  0  0  0  0
  -23.8967  -10.4297   21.0346 C   0  0  0  0  0  0
  -24.3520   -9.4242   21.9168 C   0  0  0  0  0  0
  -23.6218   -8.2291   22.0778 C   0  0  0  0  0  0
  -22.4216   -8.0278   21.3551 C   0  0  0  0  0  0
  -21.9798   -9.0233   20.4676 C   0  0  0  0  0  0
  -22.7095  -10.2120   20.3046 C   0  0  0  0  0  0
  -21.6824   -6.0711   22.5305 C   0  0  0  0  0  0
  -21.4029   -6.5622   23.8242 C   0  0  0  0  0  0
  -21.3657   -5.6780   24.9195 C   0  0  0  0  0  0
  -21.6026   -4.3039   24.7250 C   0  0  0  0  0  0
  -21.8804   -3.8120   23.4369 C   0  0  0  0  0  0
  -21.9197   -4.6949   22.3419 C   0  0  0  0  0  0
  -22.7854  -13.5271   21.1790 C   0  0  0  0  0  0
  -22.1651   -4.2136   21.1002 F   0  0  0  0  0  0
  -21.5604   -3.4520   25.7748 F   0  0  0  0  0  0
  -30.0542  -13.2607   20.4846 N   0  0  0  0  0  0
  -26.3045  -12.9310   20.3259 N   0  0  0  0  0  0
  -25.9270  -11.6454   20.5610 N   0  0  0  0  0  0
  -22.0389  -12.8417   22.0358 N   0  0  0  0  0  0
  -25.4276  -15.1875   20.4190 N   0  0  0  0  0  0
  -31.7673  -14.6971   20.0302 O   0  0  0  0  0  0
  -21.6613   -6.8842   21.4249 O   0  0  0  0  0  0
  -22.3612  -14.5620   20.6617 O   0  0  0  0  0  0
  -24.6208  -31.8658   23.2064 C   0  0  0  0  0  0
  -25.9148  -32.4778   23.8266 C   0  0  1  0  0  0
  -27.2410  -27.3975   20.0986 C   0  0  0  0  0  0
  -25.6008  -33.8567   24.2250 N   0  0  0  0  0  0
  -23.4065  -30.4927   21.5513 C   0  0  2  0  0  0
  -24.8475  -28.9496   20.1051 C   0  0  0  0  0  0
  -22.7408  -29.4668   22.4963 C   0  0  0  0  0  0
  -18.0304  -28.1318   22.8443 C   0  0  0  0  0  0
  -24.1519  -36.7243   23.2616 C   0  0  0  0  0  0
  -25.9388  -30.8057   21.3702 C   0  0  0  0  0  0
  -26.0068  -29.4415   20.7179 C   0  0  0  0  0  0
  -27.1974  -28.6794   20.7047 C   0  0  0  0  0  0
  -26.0610  -26.9290   19.4669 C   0  0  0  0  0  0
  -24.8758  -27.6992   19.4627 C   0  0  0  0  0  0
  -23.6140  -29.8295   20.1636 C   0  0  0  0  0  0
  -25.4164  -36.3094   24.0307 C   0  0  1  0  0  0
  -20.5855  -28.3816   23.1376 C   0  0  2  0  0  0
  -20.6826  -26.9481   22.5671 C   0  0  0  0  0  0
  -19.5972  -26.6393   21.5258 C   0  0  0  0  0  0
  -18.2082  -26.7855   22.1542 C   0  0  0  0  0  0
  -19.1512  -28.8870   23.2859 C   0  0  0  0  0  0
  -18.9353  -30.1466   23.8827 C   0  0  0  0  0  0
  -17.6332  -30.6527   24.0465 C   0  0  0  0  0  0
  -25.9135  -34.9463   23.5095 C   0  0  0  0  0  0
  -16.5257  -29.8975   23.6252 C   0  0  0  0  0  0
  -16.7252  -28.6371   23.0352 C   0  0  0  0  0  0
  -26.4604  -31.6539   25.0574 C   0  0  0  0  0  0
  -25.3781  -31.3614   26.1226 C   0  0  0  0  0  0
  -27.0464  -30.2981   24.5965 C   0  0  0  0  0  0
  -27.6244  -32.4198   25.7248 C   0  0  0  0  0  0
  -27.5608  -37.1766   24.8469 C   0  0  0  0  0  0
  -21.4130  -29.3064   22.3676 N   0  0  0  0  0  0
  -26.4346  -37.3780   23.9410 N   0  0  0  0  0  0
  -24.6736  -31.0693   22.1010 N   0  0  0  0  0  0
  -23.4182  -28.8264   23.3047 O   0  0  0  0  0  0
  -28.4377  -26.6925   20.1736 O   0  0  0  0  0  0
  -26.5717  -34.8930   22.4658 O   0  0  0  0  0  0
  -23.5412  -32.1489   23.7476 O   0  0  0  0  0  0
  -29.9209  -19.1730   20.7757 C   0  0  0  0  0  0
  -29.6434  -18.8556   22.0963 C   0  0  0  0  0  0
  -30.0927  -16.7406   21.3475 C   0  0  0  0  0  0
  -29.8701  -20.4484   20.0382 C   0  0  0  0  0  0
  -28.0737  -23.9637   21.7851 C   0  0  0  0  0  0
  -30.3802  -24.9187   21.4324 C   0  0  0  0  0  0
  -29.5443  -22.9734   19.9129 C   0  0  0  0  0  0
  -28.6072  -25.3392   19.6856 C   0  0  0  0  0  0
  -29.1571  -24.2818   20.7250 C   0  0  0  0  0  0
  -29.7385  -17.4891   22.3956 N   0  0  0  0  0  0
  -29.3091  -19.7113   23.1494 N   0  0  0  0  0  0
  -29.9143  -20.3627   18.6938 N   0  0  0  0  0  0
  -30.1635  -15.3230   21.4844 N   0  0  0  0  0  0
  -29.7778  -21.6799   20.6341 N   0  3  0  0  0  0
  -30.3410  -17.6942   19.8894 S   0  0  0  0  0  0
  -31.4936  -12.3766   19.1759 H   0  0  0  0  0  0
  -30.3137  -11.2733   19.8182 H   0  0  0  0  0  0
  -29.7864  -11.8374   17.4219 H   0  0  0  0  0  0
  -29.7116  -13.5276   17.8284 H   0  0  0  0  0  0
  -27.8591  -11.3182   18.8110 H   0  0  0  0  0  0
  -27.4130  -12.6417   17.7697 H   0  0  0  0  0  0
  -27.7258  -14.2509   19.5865 H   0  0  0  0  0  0
  -28.6747  -11.9067   21.3001 H   0  0  0  0  0  0
  -28.4429  -13.5087   21.9012 H   0  0  0  0  0  0
  -25.2619   -9.5791   22.4777 H   0  0  0  0  0  0
  -23.9904   -7.4715   22.7551 H   0  0  0  0  0  0
  -21.0696   -8.8711   19.9047 H   0  0  0  0  0  0
  -22.3449  -10.9646   19.6204 H   0  0  0  0  0  0
  -21.2031   -7.6138   23.9745 H   0  0  0  0  0  0
  -21.1475   -6.0504   25.9099 H   0  0  0  0  0  0
  -22.0574   -2.7590   23.2877 H   0  0  0  0  0  0
  -22.3777  -12.0061   22.4861 H   0  0  0  0  0  0
  -21.1082  -13.1732   22.2494 H   0  0  0  0  0  0
  -24.6516  -15.8301   20.5368 H   0  0  0  0  0  0
  -26.2834  -15.6450   20.1341 H   0  0  0  0  0  0
  -26.7178  -32.5439   23.0949 H   0  0  0  0  0  0
  -25.0253  -33.9684   25.0455 H   0  0  0  0  0  0
  -22.6958  -31.3114   21.4187 H   0  0  0  0  0  0
  -23.3830  -35.9521   23.3333 H   0  0  0  0  0  0
  -24.3601  -36.8811   22.2022 H   0  0  0  0  0  0
  -23.7249  -37.6417   23.6641 H   0  0  0  0  0  0
  -26.0827  -31.5664   20.5981 H   0  0  0  0  0  0
  -26.8189  -30.8389   22.0013 H   0  0  0  0  0  0
  -28.0922  -29.0723   21.1724 H   0  0  0  0  0  0
  -26.0068  -25.9755   18.9631 H   0  0  0  0  0  0
  -23.9907  -27.3272   18.9576 H   0  0  0  0  0  0
  -23.7165  -30.6191   19.4207 H   0  0  0  0  0  0
  -22.7275  -29.2723   19.8618 H   0  0  0  0  0  0
  -25.1338  -36.1943   25.0797 H   0  0  0  0  0  0
  -20.9882  -28.3684   24.1535 H   0  0  0  0  0  0
  -20.5517  -26.2497   23.3946 H   0  0  0  0  0  0
  -21.6785  -26.7442   22.1781 H   0  0  0  0  0  0
  -19.6988  -27.3167   20.6750 H   0  0  0  0  0  0
  -19.7277  -25.6278   21.1365 H   0  0  0  0  0  0
  -18.0570  -25.9953   22.8902 H   0  0  0  0  0  0
  -17.4385  -26.6455   21.3927 H   0  0  0  0  0  0
  -19.7833  -30.7315   24.2181 H   0  0  0  0  0  0
  -17.4832  -31.6245   24.4971 H   0  0  0  0  0  0
  -15.5270  -30.2812   23.7544 H   0  0  0  0  0  0
  -15.8636  -28.0698   22.7132 H   0  0  0  0  0  0
  -24.5948  -30.7067   25.7397 H   0  0  0  0  0  0
  -24.8960  -32.2735   26.4701 H   0  0  0  0  0  0
  -25.7936  -30.8609   26.9961 H   0  0  0  0  0  0
  -26.2990  -29.6558   24.1299 H   0  0  0  0  0  0
  -27.4606  -29.7370   25.4348 H   0  0  0  0  0  0
  -27.8656  -30.4301   23.8901 H   0  0  0  0  0  0
  -27.3029  -33.3499   26.1917 H   0  0  0  0  0  0
  -28.3932  -32.6760   24.9944 H   0  0  0  0  0  0
  -28.1103  -31.8264   26.4986 H   0  0  0  0  0  0
  -28.2660  -38.0037   24.7557 H   0  0  0  0  0  0
  -28.1090  -36.2590   24.6305 H   0  0  0  0  0  0
  -27.2303  -37.1366   25.8853 H   0  0  0  0  0  0
  -20.9324  -29.8700   21.6797 H   0  0  0  0  0  0
  -26.0252  -38.2846   24.1389 H   0  0  0  0  0  0
  -28.4654  -23.3182   22.5740 H   0  0  0  0  0  0
  -27.2141  -23.4496   21.3588 H   0  0  0  0  0  0
  -27.7090  -24.8703   22.2731 H   0  0  0  0  0  0
  -30.8122  -24.2855   22.2042 H   0  0  0  0  0  0
  -30.0860  -25.8477   21.9292 H   0  0  0  0  0  0
  -31.1792  -25.1818   20.7362 H   0  0  0  0  0  0
  -30.4450  -23.1560   19.3264 H   0  0  0  0  0  0
  -28.7591  -22.7922   19.1824 H   0  0  0  0  0  0
  -27.7283  -24.9319   19.1932 H   0  0  0  0  0  0
  -29.3505  -25.4384   18.8934 H   0  0  0  0  0  0
  -28.9411  -20.6486   23.0412 H   0  0  0  0  0  0
  -29.1961  -19.3200   24.0763 H   0  0  0  0  0  0
  -30.0886  -19.4545   18.2838 H   0  0  0  0  0  0
  -29.8402  -21.1404   18.0575 H   0  0  0  0  0  0
  -29.5790  -14.9345   22.2039 H   0  0  0  0  0  0
  -30.0381  -21.7430   21.6089 H   0  0  0  0  0  0
  1 25  1  0  0  0
  1 30  2  0  0  0
  1 83  1  0  0  0
  2  3  1  0  0  0
  2 25  1  0  0  0
  2 86  1  0  0  0
  2 87  1  0  0  0
  3  4  1  0  0  0
  3 88  1  0  0  0
  3 89  1  0  0  0
  4  5  1  0  0  0
  4 90  1  0  0  0
  4 91  1  0  0  0
  5  6  1  0  0  0
  5 26  1  0  0  0
  5 92  1  0  0  0
  6 25  1  0  0  0
  6 93  1  0  0  0
  6 94  1  0  0  0
  7  8  2  0  0  0
  7 26  1  0  0  0
  7 29  1  0  0  0
  8  9  1  0  0  0
  8 22  1  0  0  0
  9 10  1  0  0  0
  9 27  2  0  0  0
 10 11  2  0  0  0
 10 15  1  0  0  0
 11 12  1  0  0  0
 11 95  1  0  0  0
 12 13  2  0  0  0
 12 96  1  0  0  0
 13 14  1  0  0  0
 13 31  1  0  0  0
 14 15  2  0  0  0
 14 97  1  0  0  0
 15 98  1  0  0  0
 16 17  2  0  0  0
 16 21  1  0  0  0
 16 31  1  0  0  0
 17 18  1  0  0  0
 17 99  1  0  0  0
 18 19  2  0  0  0
 18100  1  0  0  0
 19 20  1  0  0  0
 19 24  1  0  0  0
 20 21  2  0  0  0
 20101  1  0  0  0
 21 23  1  0  0  0
 22 28  1  0  0  0
 22 32  2  0  0  0
 26 27  1  0  0  0
 28102  1  0  0  0
 28103  1  0  0  0
 29104  1  0  0  0
 29105  1  0  0  0
 33 34  1  0  0  0
 33 66  1  0  0  0
 33 70  2  0  0  0
 34 36  1  0  0  0
 34 59  1  0  0  0
 34106  1  0  0  0
 35 44  2  0  0  0
 35 45  1  0  0  0
 35 68  1  0  0  0
 36 56  1  0  0  0
 36107  1  0  0  0
 37 39  1  0  0  0
 37 47  1  0  0  0
 37 66  1  0  0  0
 37108  1  0  0  0
 38 43  2  0  0  0
 38 46  1  0  0  0
 38 47  1  0  0  0
 39 64  1  0  0  0
 39 67  2  0  0  0
 40 52  1  0  0  0
 40 53  2  0  0  0
 40 58  1  0  0  0
 41109  1  0  0  0
 41110  1  0  0  0
 41111  1  0  0  0
 41 48  1  0  0  0
 42 43  1  0  0  0
 42 66  1  0  0  0
 42112  1  0  0  0
 42113  1  0  0  0
 43 44  1  0  0  0
 44114  1  0  0  0
 45 46  2  0  0  0
 45115  1  0  0  0
 46116  1  0  0  0
 47117  1  0  0  0
 47118  1  0  0  0
 48 56  1  0  0  0
 48 65  1  0  0  0
 48119  1  0  0  0
 49 50  1  0  0  0
 49 53  1  0  0  0
 49 64  1  0  0  0
 49120  1  0  0  0
 50 51  1  0  0  0
 50121  1  0  0  0
 50122  1  0  0  0
 51 52  1  0  0  0
 51123  1  0  0  0
 51124  1  0  0  0
 52125  1  0  0  0
 52126  1  0  0  0
 53 54  1  0  0  0
 54 55  2  0  0  0
 54127  1  0  0  0
 55 57  1  0  0  0
 55128  1  0  0  0
 56 69  2  0  0  0
 57 58  2  0  0  0
 57129  1  0  0  0
 58130  1  0  0  0
 59 60  1  0  0  0
 59 61  1  0  0  0
 59 62  1  0  0  0
 60131  1  0  0  0
 60132  1  0  0  0
 60133  1  0  0  0
 61134  1  0  0  0
 61135  1  0  0  0
 61136  1  0  0  0
 62137  1  0  0  0
 62138  1  0  0  0
 62139  1  0  0  0
 63 65  1  0  0  0
 63140  1  0  0  0
 63141  1  0  0  0
 63142  1  0  0  0
 64143  1  0  0  0
 65144  1  0  0  0
 68 78  1  0  0  0
 71 72  2  0  0  0
 71 74  1  0  0  0
 71 85  1  0  0  0
 72 80  1  0  0  0
 72 81  1  0  0  0
 73 80  2  0  0  0
 73 83  1  0  0  0
 73 85  1  0  0  0
 74 82  1  0  0  0
 74 84  2  0  0  0
 75145  1  0  0  0
 75146  1  0  0  0
 75147  1  0  0  0
 75 79  1  0  0  0
 76 79  1  0  0  0
 76148  1  0  0  0
 76149  1  0  0  0
 76150  1  0  0  0
 77 79  1  0  0  0
 77 84  1  0  0  0
 77151  1  0  0  0
 77152  1  0  0  0
 78 79  1  0  0  0
 78153  1  0  0  0
 78154  1  0  0  0
 81155  1  0  0  0
 81156  1  0  0  0
 82157  1  0  0  0
 82158  1  0  0  0
 83159  1  0  0  0
 84160  1  0  0  0
M  CHG  1  84   1
M  ISO  4   1 100  68 101  78 101  83 100
M  END
> <chiral flag>
0

> <version>
0

> <s_m_source_file>
/data/baiqing/PycharmProjects/Reinvent-master-3.2/result/LINK_invent/BTK/process_docking_weight1_custom_product_contain_oxygen_bond_distance_aromatic_linkinvent_7_9_3/rearranged_h_0180.sdf

> <i_m_source_file_index>
74

> <r_mmod_Potential_Energy-OPLS-2005>
-182.818069458008

> <r_mmod_Stretch_Energy-OPLS-2005>
51.6943664550781

> <r_mmod_Bend_Energy-OPLS-2005>
148.67399597168

> <r_mmod_Torsional_Energy-OPLS-2005>
231.046295166016

> <r_mmod_Improper_Torsional_Energy-OPLS-2005>
3.73010563850403

> <r_mmod_Van_der_Waal_Energy-OPLS-2005>
132.066055297852

> <r_mmod_Electrostatic_Energy-OPLS-2005>
-305.048278808594

> <r_mmod_Solvation_Energy-OPLS-2005>
-461.194671630859

> <b_mmod_Minimization_Converged-OPLS-2005>
0

> <r_mmod_RMS_Derivative-OPLS-2005>
8.67464733123779

$$$$
74
                    3D
 Structure written by MMmdl.
159167  0  0  1  0            999 V2000
  -30.6669  -14.5406   20.4396 C   0  0  0  0  0  0
  -30.4205  -12.3158   19.4299 C   0  0  0  0  0  0
  -29.4945  -12.4705   18.2060 C   0  0  0  0  0  0
  -28.0146  -12.3389   18.6260 C   0  0  0  0  0  0
  -27.6486  -13.2124   19.8574 C   0  0  2  0  0  0
  -28.7006  -13.0739   20.9814 C   0  0  0  0  0  0
  -25.2549  -13.8177   20.5707 C   0  0  0  0  0  0
  -24.1810  -13.0443   20.9211 C   0  0  0  0  0  0
  -24.6374  -11.6911   20.8769 C   0  0  0  0  0  0
  -23.9054  -10.4292   21.0426 C   0  0  0  0  0  0
  -24.3608   -9.4194   21.9194 C   0  0  0  0  0  0
  -23.6277   -8.2232   22.0759 C   0  0  0  0  0  0
  -22.4270   -8.0270   21.3546 C   0  0  0  0  0  0
  -21.9893   -9.0246   20.4656 C   0  0  0  0  0  0
  -22.7222  -10.2125   20.3071 C   0  0  0  0  0  0
  -21.6851   -6.0730   22.5287 C   0  0  0  0  0  0
  -21.4005   -6.5646   23.8216 C   0  0  0  0  0  0
  -21.3658   -5.6807   24.9182 C   0  0  0  0  0  0
  -21.6045   -4.3068   24.7245 C   0  0  0  0  0  0
  -21.8825   -3.8156   23.4370 C   0  0  0  0  0  0
  -21.9196   -4.6960   22.3420 C   0  0  0  0  0  0
  -22.7836  -13.5232   21.1891 C   0  0  0  0  0  0
  -22.1669   -4.2145   21.0996 F   0  0  0  0  0  0
  -21.5613   -3.4546   25.7757 F   0  0  0  0  0  0
  -30.0171  -13.3477   20.3931 N   0  0  0  0  0  0
  -26.2972  -12.9350   20.3339 N   0  0  0  0  0  0
  -25.9299  -11.6508   20.5777 N   0  0  0  0  0  0
  -22.0459  -12.8226   22.0436 N   0  0  0  0  0  0
  -25.4297  -15.1893   20.4130 N   0  0  0  0  0  0
  -31.8829  -14.6345   20.2639 O   0  0  0  0  0  0
  -21.6651   -6.8863   21.4238 O   0  0  0  0  0  0
  -22.3529  -14.5555   20.6768 O   0  0  0  0  0  0
  -24.6204  -31.8645   23.2074 C   0  0  0  0  0  0
  -25.9093  -32.4802   23.8366 C   0  0  1  0  0  0
  -27.2251  -27.3920   20.0852 C   0  0  0  0  0  0
  -25.5937  -33.8604   24.2307 N   0  0  0  0  0  0
  -23.4055  -30.4912   21.5489 C   0  0  2  0  0  0
  -24.8464  -28.9483   20.1124 C   0  0  0  0  0  0
  -22.7417  -29.4660   22.4969 C   0  0  0  0  0  0
  -18.0277  -28.1376   22.8477 C   0  0  0  0  0  0
  -24.1479  -36.7282   23.2630 C   0  0  0  0  0  0
  -25.9391  -30.8170   21.3624 C   0  0  0  0  0  0
  -26.0105  -29.4499   20.7037 C   0  0  0  0  0  0
  -27.2000  -28.6799   20.6810 C   0  0  0  0  0  0
  -26.0287  -26.9000   19.5190 C   0  0  0  0  0  0
  -24.8520  -27.6747   19.5170 C   0  0  0  0  0  0
  -23.6121  -29.8246   20.1626 C   0  0  0  0  0  0
  -25.4119  -36.3098   24.0320 C   0  0  1  0  0  0
  -20.5871  -28.3684   23.1288 C   0  0  2  0  0  0
  -20.6782  -26.9419   22.5403 C   0  0  0  0  0  0
  -19.5759  -26.6376   21.5200 C   0  0  0  0  0  0
  -18.1926  -26.7920   22.1604 C   0  0  0  0  0  0
  -19.1524  -28.8844   23.2869 C   0  0  0  0  0  0
  -18.9450  -30.1441   23.8892 C   0  0  0  0  0  0
  -17.6458  -30.6583   24.0570 C   0  0  0  0  0  0
  -25.9053  -34.9466   23.5116 C   0  0  0  0  0  0
  -16.5351  -29.9092   23.6341 C   0  0  0  0  0  0
  -16.7263  -28.6508   23.0360 C   0  0  0  0  0  0
  -26.4500  -31.6596   25.0721 C   0  0  0  0  0  0
  -25.3753  -31.3693   26.1468 C   0  0  0  0  0  0
  -27.0330  -30.3032   24.6127 C   0  0  0  0  0  0
  -27.6063  -32.4340   25.7485 C   0  0  0  0  0  0
  -27.5575  -37.1811   24.8472 C   0  0  0  0  0  0
  -21.4148  -29.3031   22.3676 N   0  0  0  0  0  0
  -26.4298  -37.3793   23.9416 N   0  0  0  0  0  0
  -24.6738  -31.0719   22.0979 N   0  0  0  0  0  0
  -23.4160  -28.8217   23.3043 O   0  0  0  0  0  0
  -28.4145  -26.6766   20.1062 O   0  0  0  0  0  0
  -26.5589  -34.8945   22.4659 O   0  0  0  0  0  0
  -23.5391  -32.1425   23.7451 O   0  0  0  0  0  0
  -28.5125  -18.5648   21.9605 C   0  0  0  0  0  0
  -29.0641  -19.0016   20.7699 C   0  0  0  0  0  0
  -29.5302  -16.7452   20.6417 C   0  0  0  0  0  0
  -28.7254  -22.7660   19.8156 C   0  0  0  0  0  0
  -27.8141  -19.3601   23.0171 C   0  0  0  0  0  0
  -26.8179  -21.0901   19.8599 C   0  0  0  0  0  0
  -28.4490  -25.4996   17.9088 C   0  0  0  0  0  0
  -28.0155  -24.1215   20.1214 C   0  0  0  0  0  0
  -28.1928  -21.4400   20.4614 C   0  0  1  0  0  0
  -28.6299  -25.4002   19.4418 C   0  0  2  0  0  0
  -29.6286  -17.9427   20.0379 N   0  0  0  0  0  0
  -29.1343  -20.3229   20.2525 N   0  0  0  0  0  0
  -29.9228  -15.5583   19.9645 N   0  0  0  0  0  0
  -29.7023  -22.7374   19.0602 O   0  0  0  0  0  0
  -28.7349  -16.8338   22.1984 S   0  0  0  0  0  0
  -31.4663  -12.4147   19.1316 H   0  0  0  0  0  0
  -30.3174  -11.3211   19.8681 H   0  0  0  0  0  0
  -29.7354  -11.7186   17.4525 H   0  0  0  0  0  0
  -29.6622  -13.4413   17.7361 H   0  0  0  0  0  0
  -27.8336  -11.2898   18.8555 H   0  0  0  0  0  0
  -27.3631  -12.5839   17.7868 H   0  0  0  0  0  0
  -27.6594  -14.2460   19.5139 H   0  0  0  0  0  0
  -28.6862  -12.0719   21.4122 H   0  0  0  0  0  0
  -28.4891  -13.7649   21.7989 H   0  0  0  0  0  0
  -25.2740   -9.5675   22.4773 H   0  0  0  0  0  0
  -23.9986   -7.4622   22.7483 H   0  0  0  0  0  0
  -21.0813   -8.8752   19.8970 H   0  0  0  0  0  0
  -22.3660  -10.9659   19.6186 H   0  0  0  0  0  0
  -21.1995   -7.6157   23.9713 H   0  0  0  0  0  0
  -21.1464   -6.0543   25.9082 H   0  0  0  0  0  0
  -22.0611   -2.7617   23.2876 H   0  0  0  0  0  0
  -22.4059  -11.9877   22.4827 H   0  0  0  0  0  0
  -21.1073  -13.1237   22.2632 H   0  0  0  0  0  0
  -24.6721  -15.8514   20.5372 H   0  0  0  0  0  0
  -26.2916  -15.6214   20.1043 H   0  0  0  0  0  0
  -26.7162  -32.5493   23.1120 H   0  0  0  0  0  0
  -25.0240  -33.9759   25.0557 H   0  0  0  0  0  0
  -22.6964  -31.3095   21.4104 H   0  0  0  0  0  0
  -23.3760  -35.9587   23.3318 H   0  0  0  0  0  0
  -24.3558  -36.8889   22.2034 H   0  0  0  0  0  0
  -23.7228  -37.6490   23.6643 H   0  0  0  0  0  0
  -26.0669  -31.5871   20.5996 H   0  0  0  0  0  0
  -26.8213  -30.8583   21.9903 H   0  0  0  0  0  0
  -28.1035  -29.0693   21.1265 H   0  0  0  0  0  0
  -25.9740  -25.9131   19.0935 H   0  0  0  0  0  0
  -23.9518  -27.2788   19.0688 H   0  0  0  0  0  0
  -23.7238  -30.6016   19.4059 H   0  0  0  0  0  0
  -22.7331  -29.2539   19.8635 H   0  0  0  0  0  0
  -25.1303  -36.1927   25.0805 H   0  0  0  0  0  0
  -20.9961  -28.3259   24.1416 H   0  0  0  0  0  0
  -20.5693  -26.2284   23.3587 H   0  0  0  0  0  0
  -21.6652  -26.7476   22.1185 H   0  0  0  0  0  0
  -19.6948  -25.6276   21.1243 H   0  0  0  0  0  0
  -19.6721  -27.3179   20.6723 H   0  0  0  0  0  0
  -17.4211  -26.6654   21.3998 H   0  0  0  0  0  0
  -18.0345  -26.0042   22.8985 H   0  0  0  0  0  0
  -19.7930  -30.7247   24.2256 H   0  0  0  0  0  0
  -17.5037  -31.6273   24.5141 H   0  0  0  0  0  0
  -15.5357  -30.3012   23.7668 H   0  0  0  0  0  0
  -15.8655  -28.0834   22.7107 H   0  0  0  0  0  0
  -24.5945  -30.7021   25.7810 H   0  0  0  0  0  0
  -24.8923  -32.2832   26.4921 H   0  0  0  0  0  0
  -25.8108  -30.8867   27.0225 H   0  0  0  0  0  0
  -26.2862  -29.6797   24.1206 H   0  0  0  0  0  0
  -27.4111  -29.7293   25.4596 H   0  0  0  0  0  0
  -27.8701  -30.4351   23.9276 H   0  0  0  0  0  0
  -27.2673  -33.3651   26.2044 H   0  0  0  0  0  0
  -28.3868  -32.6893   25.0303 H   0  0  0  0  0  0
  -28.0744  -31.8485   26.5419 H   0  0  0  0  0  0
  -28.2619  -38.0083   24.7536 H   0  0  0  0  0  0
  -28.1038  -36.2633   24.6285 H   0  0  0  0  0  0
  -27.2273  -37.1445   25.8864 H   0  0  0  0  0  0
  -20.9315  -29.8746   21.6893 H   0  0  0  0  0  0
  -26.0164  -38.2852   24.1451 H   0  0  0  0  0  0
  -26.8696  -19.7578   22.6462 H   0  0  0  0  0  0
  -28.4291  -20.1940   23.3534 H   0  0  0  0  0  0
  -27.5897  -18.7451   23.8886 H   0  0  0  0  0  0
  -26.8775  -20.9604   18.7780 H   0  0  0  0  0  0
  -26.0834  -21.8692   20.0569 H   0  0  0  0  0  0
  -26.4115  -20.1701   20.2801 H   0  0  0  0  0  0
  -28.9373  -24.6684   17.4008 H   0  0  0  0  0  0
  -28.8978  -26.4155   17.5261 H   0  0  0  0  0  0
  -27.4081  -25.4864   17.5912 H   0  0  0  0  0  0
  -28.0569  -24.2456   21.2015 H   0  0  0  0  0  0
  -26.9611  -24.0323   19.8640 H   0  0  0  0  0  0
  -28.0846  -21.6062   21.5315 H   0  0  0  0  0  0
  -29.7067  -25.2961   19.5807 H   0  0  0  0  0  0
  -29.7415  -20.4727   19.4495 H   0  0  0  0  0  0
  -30.2135  -15.7705   19.0234 H   0  0  0  0  0  0
  1 25  1  0  0  0
  1 30  2  0  0  0
  1 83  1  0  0  0
  2  3  1  0  0  0
  2 25  1  0  0  0
  2 86  1  0  0  0
  2 87  1  0  0  0
  3  4  1  0  0  0
  3 88  1  0  0  0
  3 89  1  0  0  0
  4  5  1  0  0  0
  4 90  1  0  0  0
  4 91  1  0  0  0
  5  6  1  0  0  0
  5 26  1  0  0  0
  5 92  1  0  0  0
  6 25  1  0  0  0
  6 93  1  0  0  0
  6 94  1  0  0  0
  7  8  2  0  0  0
  7 26  1  0  0  0
  7 29  1  0  0  0
  8  9  1  0  0  0
  8 22  1  0  0  0
  9 10  1  0  0  0
  9 27  2  0  0  0
 10 11  2  0  0  0
 10 15  1  0  0  0
 11 12  1  0  0  0
 11 95  1  0  0  0
 12 13  2  0  0  0
 12 96  1  0  0  0
 13 14  1  0  0  0
 13 31  1  0  0  0
 14 15  2  0  0  0
 14 97  1  0  0  0
 15 98  1  0  0  0
 16 17  2  0  0  0
 16 21  1  0  0  0
 16 31  1  0  0  0
 17 18  1  0  0  0
 17 99  1  0  0  0
 18 19  2  0  0  0
 18100  1  0  0  0
 19 20  1  0  0  0
 19 24  1  0  0  0
 20 21  2  0  0  0
 20101  1  0  0  0
 21 23  1  0  0  0
 22 28  1  0  0  0
 22 32  2  0  0  0
 26 27  1  0  0  0
 28102  1  0  0  0
 28103  1  0  0  0
 29104  1  0  0  0
 29105  1  0  0  0
 33 34  1  0  0  0
 33 66  1  0  0  0
 33 70  2  0  0  0
 34 36  1  0  0  0
 34 59  1  0  0  0
 34106  1  0  0  0
 35 44  2  0  0  0
 35 45  1  0  0  0
 35 68  1  0  0  0
 36 56  1  0  0  0
 36107  1  0  0  0
 37 39  1  0  0  0
 37 47  1  0  0  0
 37 66  1  0  0  0
 37108  1  0  0  0
 38 43  2  0  0  0
 38 46  1  0  0  0
 38 47  1  0  0  0
 39 64  1  0  0  0
 39 67  2  0  0  0
 40 52  1  0  0  0
 40 53  2  0  0  0
 40 58  1  0  0  0
 41109  1  0  0  0
 41110  1  0  0  0
 41111  1  0  0  0
 41 48  1  0  0  0
 42 43  1  0  0  0
 42 66  1  0  0  0
 42112  1  0  0  0
 42113  1  0  0  0
 43 44  1  0  0  0
 44114  1  0  0  0
 45 46  2  0  0  0
 45115  1  0  0  0
 46116  1  0  0  0
 47117  1  0  0  0
 47118  1  0  0  0
 48 56  1  0  0  0
 48 65  1  0  0  0
 48119  1  0  0  0
 49 50  1  0  0  0
 49 53  1  0  0  0
 49 64  1  0  0  0
 49120  1  0  0  0
 50 51  1  0  0  0
 50121  1  0  0  0
 50122  1  0  0  0
 51 52  1  0  0  0
 51123  1  0  0  0
 51124  1  0  0  0
 52125  1  0  0  0
 52126  1  0  0  0
 53 54  1  0  0  0
 54 55  2  0  0  0
 54127  1  0  0  0
 55 57  1  0  0  0
 55128  1  0  0  0
 56 69  2  0  0  0
 57 58  2  0  0  0
 57129  1  0  0  0
 58130  1  0  0  0
 59 60  1  0  0  0
 59 61  1  0  0  0
 59 62  1  0  0  0
 60131  1  0  0  0
 60132  1  0  0  0
 60133  1  0  0  0
 61134  1  0  0  0
 61135  1  0  0  0
 61136  1  0  0  0
 62137  1  0  0  0
 62138  1  0  0  0
 62139  1  0  0  0
 63 65  1  0  0  0
 63140  1  0  0  0
 63141  1  0  0  0
 63142  1  0  0  0
 64143  1  0  0  0
 65144  1  0  0  0
 68 80  1  0  0  0
 71 72  2  0  0  0
 71 75  1  0  0  0
 71 85  1  0  0  0
 72 81  1  0  0  0
 72 82  1  0  0  0
 73 81  2  0  0  0
 73 83  1  0  0  0
 73 85  1  0  0  0
 74 78  1  0  0  0
 74 79  1  0  0  0
 74 84  2  0  0  0
 75145  1  0  0  0
 75146  1  0  0  0
 75147  1  0  0  0
 76148  1  0  0  0
 76149  1  0  0  0
 76150  1  0  0  0
 76 79  1  0  0  0
 77151  1  0  0  0
 77152  1  0  0  0
 77153  1  0  0  0
 77 80  1  0  0  0
 78 80  1  0  0  0
 78154  1  0  0  0
 78155  1  0  0  0
 79 82  1  0  0  0
 79156  1  0  0  0
 80157  1  0  0  0
 82158  1  0  0  0
 83159  1  0  0  0
M  ISO  4   1 100  68 101  80 101  83 100
M  END
> <chiral flag>
0

> <version>
0

> <s_m_source_file>
/data/baiqing/PycharmProjects/Reinvent-master-3.2/result/LINK_invent/BTK/process_docking_weight1_custom_product_contain_oxygen_bond_distance_aromatic_linkinvent_7_9_3/rearranged_h_0180.sdf

> <i_m_source_file_index>
75

> <r_mmod_Potential_Energy-OPLS-2005>
-97.3887557983398

> <r_mmod_Stretch_Energy-OPLS-2005>
44.770565032959

> <r_mmod_Bend_Energy-OPLS-2005>
148.073532104492

> <r_mmod_Torsional_Energy-OPLS-2005>
252.397201538086

> <r_mmod_Improper_Torsional_Energy-OPLS-2005>
31.6583690643311

> <r_mmod_Van_der_Waal_Energy-OPLS-2005>
113.339065551758

> <r_mmod_Electrostatic_Energy-OPLS-2005>
-504.277252197266

> <r_mmod_Solvation_Energy-OPLS-2005>
-214.846450805664

> <b_mmod_Minimization_Converged-OPLS-2005>
0

> <r_mmod_RMS_Derivative-OPLS-2005>
3.00664329528809

$$$$
75
                    3D
 Structure written by MMmdl.
156164  0  0  1  0            999 V2000
  -30.7034  -14.4804   20.5638 C   0  0  0  0  0  0
  -30.4178  -12.3069   19.4423 C   0  0  0  0  0  0
  -29.5061  -12.5160   18.2156 C   0  0  0  0  0  0
  -28.0203  -12.3829   18.6103 C   0  0  0  0  0  0
  -27.6633  -13.2134   19.8738 C   0  0  2  0  0  0
  -28.6989  -13.0090   21.0023 C   0  0  0  0  0  0
  -25.2617  -13.8189   20.5652 C   0  0  0  0  0  0
  -24.1885  -13.0445   20.9170 C   0  0  0  0  0  0
  -24.6425  -11.6921   20.8695 C   0  0  0  0  0  0
  -23.9082  -10.4306   21.0371 C   0  0  0  0  0  0
  -24.3648   -9.4230   21.9160 C   0  0  0  0  0  0
  -23.6314   -8.2269   22.0747 C   0  0  0  0  0  0
  -22.4290   -8.0303   21.3557 C   0  0  0  0  0  0
  -21.9915   -9.0273   20.4646 C   0  0  0  0  0  0
  -22.7244  -10.2147   20.3034 C   0  0  0  0  0  0
  -21.6863   -6.0754   22.5279 C   0  0  0  0  0  0
  -21.4020   -6.5657   23.8220 C   0  0  0  0  0  0
  -21.3664   -5.6797   24.9178 C   0  0  0  0  0  0
  -21.6031   -4.3057   24.7214 C   0  0  0  0  0  0
  -21.8829   -3.8164   23.4333 C   0  0  0  0  0  0
  -21.9202   -4.6983   22.3403 C   0  0  0  0  0  0
  -22.7908  -13.5252   21.1808 C   0  0  0  0  0  0
  -22.1669   -4.2173   21.0973 F   0  0  0  0  0  0
  -21.5619   -3.4538   25.7733 F   0  0  0  0  0  0
  -30.0334  -13.2985   20.4600 N   0  0  0  0  0  0
  -26.3049  -12.9349   20.3341 N   0  0  0  0  0  0
  -25.9347  -11.6513   20.5745 N   0  0  0  0  0  0
  -22.0532  -12.8293   22.0371 N   0  0  0  0  0  0
  -25.4369  -15.1898   20.4083 N   0  0  0  0  0  0
  -31.8374  -14.6392   20.1041 O   0  0  0  0  0  0
  -21.6648   -6.8898   21.4250 O   0  0  0  0  0  0
  -22.3603  -14.5544   20.6614 O   0  0  0  0  0  0
  -24.6166  -31.8647   23.2114 C   0  0  0  0  0  0
  -25.9053  -32.4793   23.8403 C   0  0  1  0  0  0
  -27.2318  -27.4184   20.0941 C   0  0  0  0  0  0
  -25.5889  -33.8584   24.2313 N   0  0  0  0  0  0
  -23.4099  -30.4942   21.5519 C   0  0  2  0  0  0
  -24.8582  -28.9717   20.1072 C   0  0  0  0  0  0
  -22.7442  -29.4652   22.4953 C   0  0  0  0  0  0
  -18.0283  -28.1393   22.8484 C   0  0  0  0  0  0
  -24.1493  -36.7294   23.2642 C   0  0  0  0  0  0
  -25.9476  -30.8246   21.3793 C   0  0  0  0  0  0
  -26.0244  -29.4700   20.7015 C   0  0  0  0  0  0
  -27.2196  -28.7080   20.6805 C   0  0  0  0  0  0
  -26.0532  -26.9598   19.4622 C   0  0  0  0  0  0
  -24.8711  -27.7177   19.4780 C   0  0  0  0  0  0
  -23.6199  -29.8350   20.1656 C   0  0  0  0  0  0
  -25.4114  -36.3087   24.0340 C   0  0  1  0  0  0
  -20.5885  -28.3676   23.1287 C   0  0  2  0  0  0
  -20.6779  -26.9406   22.5401 C   0  0  0  0  0  0
  -19.5763  -26.6392   21.5202 C   0  0  0  0  0  0
  -18.1937  -26.7943   22.1615 C   0  0  0  0  0  0
  -19.1536  -28.8855   23.2892 C   0  0  0  0  0  0
  -18.9469  -30.1459   23.8905 C   0  0  0  0  0  0
  -17.6468  -30.6596   24.0569 C   0  0  0  0  0  0
  -25.9032  -34.9440   23.5120 C   0  0  0  0  0  0
  -16.5358  -29.9098   23.6326 C   0  0  0  0  0  0
  -16.7271  -28.6522   23.0340 C   0  0  0  0  0  0
  -26.4435  -31.6617   25.0776 C   0  0  0  0  0  0
  -25.3659  -31.3825   26.1519 C   0  0  0  0  0  0
  -27.0280  -30.3019   24.6286 C   0  0  0  0  0  0
  -27.5996  -32.4384   25.7508 C   0  0  0  0  0  0
  -27.5594  -37.1792   24.8450 C   0  0  0  0  0  0
  -21.4167  -29.3037   22.3684 N   0  0  0  0  0  0
  -26.4294  -37.3781   23.9411 N   0  0  0  0  0  0
  -24.6758  -31.0736   22.1032 N   0  0  0  0  0  0
  -23.4202  -28.8155   23.2989 O   0  0  0  0  0  0
  -28.3506  -26.5986   20.1699 O   0  0  0  0  0  0
  -26.5597  -34.8895   22.4683 O   0  0  0  0  0  0
  -23.5344  -32.1398   23.7476 O   0  0  0  0  0  0
  -29.7576  -18.7127   18.8882 C   0  0  0  0  0  0
  -29.4967  -19.0333   20.2047 C   0  0  0  0  0  0
  -29.9490  -16.7991   20.4438 C   0  0  0  0  0  0
  -29.5603  -21.5456   20.3420 C   0  0  0  0  0  0
  -29.6471  -19.5514   17.6559 C   0  0  0  0  0  0
  -27.7586  -25.3438   22.1819 C   0  0  0  0  0  0
  -28.7582  -22.7632   20.8547 C   0  0  0  0  0  0
  -29.1898  -24.1966   20.3867 C   0  0  0  0  0  0
  -28.0857  -25.2587   20.6774 C   0  0  2  0  0  0
  -29.5447  -17.9204   21.0749 N   0  0  0  0  0  0
  -29.0433  -20.3227   20.6233 N   0  0  0  0  0  0
  -30.0151  -15.5209   21.0773 N   0  0  0  0  0  0
  -30.6174  -21.7190   19.7310 O   0  0  0  0  0  0
  -30.2396  -17.0449   18.7247 S   0  0  0  0  0  0
  -31.4675  -12.3832   19.1515 H   0  0  0  0  0  0
  -30.2963  -11.2971   19.8362 H   0  0  0  0  0  0
  -29.7545  -11.7949   17.4355 H   0  0  0  0  0  0
  -29.6848  -13.5045   17.7895 H   0  0  0  0  0  0
  -27.8055  -11.3276   18.7818 H   0  0  0  0  0  0
  -27.3861  -12.6862   17.7768 H   0  0  0  0  0  0
  -27.7029  -14.2619   19.5773 H   0  0  0  0  0  0
  -28.6719  -11.9772   21.3528 H   0  0  0  0  0  0
  -28.4553  -13.6208   21.8724 H   0  0  0  0  0  0
  -25.2780   -9.5728   22.4749 H   0  0  0  0  0  0
  -24.0027   -7.4663   22.7473 H   0  0  0  0  0  0
  -21.0840   -8.8790   19.8965 H   0  0  0  0  0  0
  -22.3676  -10.9701   19.6158 H   0  0  0  0  0  0
  -21.2016   -7.6163   23.9740 H   0  0  0  0  0  0
  -21.1465   -6.0516   25.9082 H   0  0  0  0  0  0
  -22.0601   -2.7627   23.2827 H   0  0  0  0  0  0
  -22.4092  -11.9951   22.4815 H   0  0  0  0  0  0
  -21.1145  -13.1361   22.2513 H   0  0  0  0  0  0
  -24.6744  -15.8499   20.5203 H   0  0  0  0  0  0
  -26.2975  -15.6271   20.1046 H   0  0  0  0  0  0
  -26.7134  -32.5481   23.1168 H   0  0  0  0  0  0
  -25.0003  -33.9722   25.0441 H   0  0  0  0  0  0
  -22.7027  -31.3149   21.4136 H   0  0  0  0  0  0
  -23.3749  -35.9628   23.3267 H   0  0  0  0  0  0
  -24.3615  -36.8935   22.2069 H   0  0  0  0  0  0
  -23.7244  -37.6489   23.6671 H   0  0  0  0  0  0
  -26.0992  -31.6113   20.6388 H   0  0  0  0  0  0
  -26.8165  -30.8398   22.0270 H   0  0  0  0  0  0
  -28.1181  -29.0908   21.1461 H   0  0  0  0  0  0
  -26.0285  -26.0089   18.9511 H   0  0  0  0  0  0
  -23.9812  -27.3334   18.9997 H   0  0  0  0  0  0
  -23.7235  -30.6117   19.4067 H   0  0  0  0  0  0
  -22.7471  -29.2497   19.8727 H   0  0  0  0  0  0
  -25.1302  -36.1933   25.0839 H   0  0  0  0  0  0
  -20.9997  -28.3235   24.1400 H   0  0  0  0  0  0
  -20.5666  -26.2280   23.3590 H   0  0  0  0  0  0
  -21.6654  -26.7429   22.1208 H   0  0  0  0  0  0
  -19.6908  -25.6295   21.1250 H   0  0  0  0  0  0
  -19.6726  -27.3185   20.6722 H   0  0  0  0  0  0
  -17.4216  -26.6683   21.4014 H   0  0  0  0  0  0
  -18.0345  -26.0082   22.9011 H   0  0  0  0  0  0
  -19.7943  -30.7274   24.2290 H   0  0  0  0  0  0
  -17.5024  -31.6286   24.5157 H   0  0  0  0  0  0
  -15.5360  -30.3008   23.7662 H   0  0  0  0  0  0
  -15.8673  -28.0853   22.7042 H   0  0  0  0  0  0
  -24.5749  -30.7279   25.7855 H   0  0  0  0  0  0
  -24.8947  -32.3038   26.4945 H   0  0  0  0  0  0
  -25.7928  -30.8967   27.0300 H   0  0  0  0  0  0
  -26.2904  -29.6795   24.1209 H   0  0  0  0  0  0
  -27.3833  -29.7267   25.4845 H   0  0  0  0  0  0
  -27.8824  -30.4276   23.9637 H   0  0  0  0  0  0
  -27.2578  -33.3658   26.2116 H   0  0  0  0  0  0
  -28.3744  -32.7009   25.0296 H   0  0  0  0  0  0
  -28.0735  -31.8524   26.5391 H   0  0  0  0  0  0
  -28.2572  -38.0126   24.7529 H   0  0  0  0  0  0
  -28.1136  -36.2649   24.6231 H   0  0  0  0  0  0
  -27.2317  -37.1399   25.8856 H   0  0  0  0  0  0
  -20.9311  -29.8748   21.6900 H   0  0  0  0  0  0
  -26.0164  -38.2846   24.1433 H   0  0  0  0  0  0
  -30.5982  -20.0324   17.4310 H   0  0  0  0  0  0
  -28.8860  -20.3239   17.7666 H   0  0  0  0  0  0
  -29.3666  -18.9395   16.7972 H   0  0  0  0  0  0
  -27.3463  -24.4047   22.5519 H   0  0  0  0  0  0
  -27.0074  -26.1051   22.3859 H   0  0  0  0  0  0
  -28.6392  -25.5781   22.7783 H   0  0  0  0  0  0
  -28.7597  -22.7259   21.9442 H   0  0  0  0  0  0
  -27.7259  -22.6006   20.5439 H   0  0  0  0  0  0
  -29.3897  -24.1860   19.3159 H   0  0  0  0  0  0
  -30.1306  -24.4792   20.8640 H   0  0  0  0  0  0
  -27.2031  -24.8528   20.1935 H   0  0  0  0  0  0
  -28.2249  -20.3203   21.2126 H   0  0  0  0  0  0
  -29.2473  -15.2963   21.6880 H   0  0  0  0  0  0
  1 25  1  0  0  0
  1 30  2  0  0  0
  1 82  1  0  0  0
  2  3  1  0  0  0
  2 25  1  0  0  0
  2 85  1  0  0  0
  2 86  1  0  0  0
  3  4  1  0  0  0
  3 87  1  0  0  0
  3 88  1  0  0  0
  4  5  1  0  0  0
  4 89  1  0  0  0
  4 90  1  0  0  0
  5  6  1  0  0  0
  5 26  1  0  0  0
  5 91  1  0  0  0
  6 25  1  0  0  0
  6 92  1  0  0  0
  6 93  1  0  0  0
  7  8  2  0  0  0
  7 26  1  0  0  0
  7 29  1  0  0  0
  8  9  1  0  0  0
  8 22  1  0  0  0
  9 10  1  0  0  0
  9 27  2  0  0  0
 10 11  2  0  0  0
 10 15  1  0  0  0
 11 12  1  0  0  0
 11 94  1  0  0  0
 12 13  2  0  0  0
 12 95  1  0  0  0
 13 14  1  0  0  0
 13 31  1  0  0  0
 14 15  2  0  0  0
 14 96  1  0  0  0
 15 97  1  0  0  0
 16 17  2  0  0  0
 16 21  1  0  0  0
 16 31  1  0  0  0
 17 18  1  0  0  0
 17 98  1  0  0  0
 18 19  2  0  0  0
 18 99  1  0  0  0
 19 20  1  0  0  0
 19 24  1  0  0  0
 20 21  2  0  0  0
 20100  1  0  0  0
 21 23  1  0  0  0
 22 28  1  0  0  0
 22 32  2  0  0  0
 26 27  1  0  0  0
 28101  1  0  0  0
 28102  1  0  0  0
 29103  1  0  0  0
 29104  1  0  0  0
 33 34  1  0  0  0
 33 66  1  0  0  0
 33 70  2  0  0  0
 34 36  1  0  0  0
 34 59  1  0  0  0
 34105  1  0  0  0
 35 44  2  0  0  0
 35 45  1  0  0  0
 35 68  1  0  0  0
 36 56  1  0  0  0
 36106  1  0  0  0
 37 39  1  0  0  0
 37 47  1  0  0  0
 37 66  1  0  0  0
 37107  1  0  0  0
 38 43  2  0  0  0
 38 46  1  0  0  0
 38 47  1  0  0  0
 39 64  1  0  0  0
 39 67  2  0  0  0
 40 52  1  0  0  0
 40 53  2  0  0  0
 40 58  1  0  0  0
 41108  1  0  0  0
 41109  1  0  0  0
 41110  1  0  0  0
 41 48  1  0  0  0
 42 43  1  0  0  0
 42 66  1  0  0  0
 42111  1  0  0  0
 42112  1  0  0  0
 43 44  1  0  0  0
 44113  1  0  0  0
 45 46  2  0  0  0
 45114  1  0  0  0
 46115  1  0  0  0
 47116  1  0  0  0
 47117  1  0  0  0
 48 56  1  0  0  0
 48 65  1  0  0  0
 48118  1  0  0  0
 49 50  1  0  0  0
 49 53  1  0  0  0
 49 64  1  0  0  0
 49119  1  0  0  0
 50 51  1  0  0  0
 50120  1  0  0  0
 50121  1  0  0  0
 51 52  1  0  0  0
 51122  1  0  0  0
 51123  1  0  0  0
 52124  1  0  0  0
 52125  1  0  0  0
 53 54  1  0  0  0
 54 55  2  0  0  0
 54126  1  0  0  0
 55 57  1  0  0  0
 55127  1  0  0  0
 56 69  2  0  0  0
 57 58  2  0  0  0
 57128  1  0  0  0
 58129  1  0  0  0
 59 60  1  0  0  0
 59 61  1  0  0  0
 59 62  1  0  0  0
 60130  1  0  0  0
 60131  1  0  0  0
 60132  1  0  0  0
 61133  1  0  0  0
 61134  1  0  0  0
 61135  1  0  0  0
 62136  1  0  0  0
 62137  1  0  0  0
 62138  1  0  0  0
 63 65  1  0  0  0
 63139  1  0  0  0
 63140  1  0  0  0
 63141  1  0  0  0
 64142  1  0  0  0
 65143  1  0  0  0
 68 79  1  0  0  0
 71 72  2  0  0  0
 71 75  1  0  0  0
 71 84  1  0  0  0
 72 80  1  0  0  0
 72 81  1  0  0  0
 73 80  2  0  0  0
 73 82  1  0  0  0
 73 84  1  0  0  0
 74 77  1  0  0  0
 74 81  1  0  0  0
 74 83  2  0  0  0
 75144  1  0  0  0
 75145  1  0  0  0
 75146  1  0  0  0
 76147  1  0  0  0
 76148  1  0  0  0
 76149  1  0  0  0
 76 79  1  0  0  0
 77 78  1  0  0  0
 77150  1  0  0  0
 77151  1  0  0  0
 78 79  1  0  0  0
 78152  1  0  0  0
 78153  1  0  0  0
 79154  1  0  0  0
 81155  1  0  0  0
 82156  1  0  0  0
M  ISO  4   1 100  68 101  79 101  82 100
M  END
> <chiral flag>
0

> <version>
0

> <s_m_source_file>
/data/baiqing/PycharmProjects/Reinvent-master-3.2/result/LINK_invent/BTK/process_docking_weight1_custom_product_contain_oxygen_bond_distance_aromatic_linkinvent_7_9_3/rearranged_h_0180.sdf

> <i_m_source_file_index>
76

> <r_mmod_Potential_Energy-OPLS-2005>
-162.110214233398

> <r_mmod_Stretch_Energy-OPLS-2005>
42.0836372375488

> <r_mmod_Bend_Energy-OPLS-2005>
103.897354125977

> <r_mmod_Torsional_Energy-OPLS-2005>
260.275390625

> <r_mmod_Improper_Torsional_Energy-OPLS-2005>
5.86137104034424

> <r_mmod_Van_der_Waal_Energy-OPLS-2005>
135.485397338867

> <r_mmod_Electrostatic_Energy-OPLS-2005>
-495.63671875

> <r_mmod_Solvation_Energy-OPLS-2005>
-233.04280090332

> <b_mmod_Minimization_Converged-OPLS-2005>
0

> <r_mmod_RMS_Derivative-OPLS-2005>
4.20528841018677

$$$$
76
                    3D
 Structure written by MMmdl.
152160  0  0  1  0            999 V2000
  -30.6838  -14.5112   20.4652 C   0  0  0  0  0  0
  -30.4095  -12.3071   19.4299 C   0  0  0  0  0  0
  -29.4863  -12.4902   18.2070 C   0  0  0  0  0  0
  -28.0093  -12.3423   18.6214 C   0  0  0  0  0  0
  -27.6481  -13.2078   19.8590 C   0  0  2  0  0  0
  -28.6925  -13.0381   20.9856 C   0  0  0  0  0  0
  -25.2533  -13.8156   20.5684 C   0  0  0  0  0  0
  -24.1795  -13.0437   20.9182 C   0  0  0  0  0  0
  -24.6347  -11.6896   20.8732 C   0  0  0  0  0  0
  -23.9024  -10.4291   21.0401 C   0  0  0  0  0  0
  -24.3585   -9.4215   21.9190 C   0  0  0  0  0  0
  -23.6278   -8.2239   22.0753 C   0  0  0  0  0  0
  -22.4267   -8.0261   21.3540 C   0  0  0  0  0  0
  -21.9900   -9.0220   20.4629 C   0  0  0  0  0  0
  -22.7207  -10.2105   20.3043 C   0  0  0  0  0  0
  -21.6851   -6.0727   22.5287 C   0  0  0  0  0  0
  -21.4011   -6.5632   23.8213 C   0  0  0  0  0  0
  -21.3654   -5.6791   24.9177 C   0  0  0  0  0  0
  -21.6048   -4.3060   24.7248 C   0  0  0  0  0  0
  -21.8810   -3.8139   23.4366 C   0  0  0  0  0  0
  -21.9188   -4.6950   22.3416 C   0  0  0  0  0  0
  -22.7820  -13.5213   21.1888 C   0  0  0  0  0  0
  -22.1662   -4.2132   21.0997 F   0  0  0  0  0  0
  -21.5625   -3.4557   25.7762 F   0  0  0  0  0  0
  -30.0189  -13.3239   20.4175 N   0  0  0  0  0  0
  -26.2937  -12.9320   20.3283 N   0  0  0  0  0  0
  -25.9266  -11.6486   20.5723 N   0  0  0  0  0  0
  -22.0486  -12.8143   22.0410 N   0  0  0  0  0  0
  -25.4319  -15.1871   20.4108 N   0  0  0  0  0  0
  -31.8753  -14.5951   20.1541 O   0  0  0  0  0  0
  -21.6630   -6.8858   21.4235 O   0  0  0  0  0  0
  -22.3506  -14.5564   20.6791 O   0  0  0  0  0  0
  -24.6212  -31.8645   23.2055 C   0  0  0  0  0  0
  -25.9098  -32.4804   23.8362 C   0  0  1  0  0  0
  -27.2395  -27.4232   20.0852 C   0  0  0  0  0  0
  -25.5972  -33.8599   24.2323 N   0  0  0  0  0  0
  -23.4076  -30.4899   21.5445 C   0  0  2  0  0  0
  -24.8518  -28.9530   20.1142 C   0  0  0  0  0  0
  -22.7450  -29.4635   22.4945 C   0  0  0  0  0  0
  -18.0284  -28.1366   22.8465 C   0  0  0  0  0  0
  -24.1498  -36.7278   23.2622 C   0  0  0  0  0  0
  -25.9358  -30.8356   21.3498 C   0  0  0  0  0  0
  -26.0130  -29.4673   20.6990 C   0  0  0  0  0  0
  -27.2065  -28.7114   20.6724 C   0  0  0  0  0  0
  -26.0409  -26.9023   19.5421 C   0  0  0  0  0  0
  -24.8605  -27.6717   19.5390 C   0  0  0  0  0  0
  -23.6164  -29.8233   20.1592 C   0  0  0  0  0  0
  -25.4105  -36.3072   24.0335 C   0  0  1  0  0  0
  -20.5891  -28.3639   23.1307 C   0  0  2  0  0  0
  -20.6778  -26.9367   22.5392 C   0  0  0  0  0  0
  -19.5754  -26.6370   21.5186 C   0  0  0  0  0  0
  -18.1929  -26.7916   22.1575 C   0  0  0  0  0  0
  -19.1539  -28.8818   23.2879 C   0  0  0  0  0  0
  -18.9473  -30.1432   23.8879 C   0  0  0  0  0  0
  -17.6480  -30.6558   24.0563 C   0  0  0  0  0  0
  -25.9045  -34.9455   23.5105 C   0  0  0  0  0  0
  -16.5370  -29.9051   23.6333 C   0  0  0  0  0  0
  -16.7279  -28.6488   23.0301 C   0  0  0  0  0  0
  -26.4521  -31.6575   25.0684 C   0  0  0  0  0  0
  -25.3785  -31.3650   26.1419 C   0  0  0  0  0  0
  -27.0376  -30.3053   24.5985 C   0  0  0  0  0  0
  -27.6068  -32.4293   25.7521 C   0  0  0  0  0  0
  -27.5593  -37.1778   24.8436 C   0  0  0  0  0  0
  -21.4166  -29.3048   22.3762 N   0  0  0  0  0  0
  -26.4259  -37.3779   23.9447 N   0  0  0  0  0  0
  -24.6733  -31.0768   22.0938 N   0  0  0  0  0  0
  -23.4242  -28.8145   23.2939 O   0  0  0  0  0  0
  -28.4474  -26.7502   20.0926 O   0  0  0  0  0  0
  -26.5560  -34.8920   22.4650 O   0  0  0  0  0  0
  -23.5405  -32.1383   23.7459 O   0  0  0  0  0  0
  -31.3531  -18.7443   19.4388 C   0  0  0  0  0  0
  -30.2545  -19.4415   19.8924 C   0  0  0  0  0  0
  -30.1929  -16.9719   20.3121 C   0  0  0  0  0  0
  -29.5824  -23.1204   19.7900 C   0  0  0  0  0  0
  -29.2367  -21.6737   20.2723 C   0  0  0  0  0  0
  -32.5665  -19.3245   18.7685 C   0  0  0  0  0  0
  -28.8376  -24.3209   20.4082 C   0  0  0  0  0  0
  -28.6422  -25.5007   19.4063 C   0  0  0  0  0  0
  -31.3027  -17.3659   19.6761 N   0  0  0  0  0  0
  -30.1175  -20.7940   19.7590 N   0  0  0  0  0  0
  -29.9101  -15.6066   20.6591 N   0  0  0  0  0  0
  -30.4736  -23.3057   18.9494 O   0  0  0  0  0  0
  -28.2919  -21.4001   21.0218 O   0  0  0  0  0  0
  -29.0975  -18.3261   20.6272 S   0  0  0  0  0  0
  -31.4557  -12.3910   19.1296 H   0  0  0  0  0  0
  -30.3001  -11.3081   19.8527 H   0  0  0  0  0  0
  -29.7359  -11.7637   17.4331 H   0  0  0  0  0  0
  -29.6420  -13.4749   17.7629 H   0  0  0  0  0  0
  -27.8335  -11.2882   18.8437 H   0  0  0  0  0  0
  -27.3532  -12.5894   17.7847 H   0  0  0  0  0  0
  -27.6748  -14.2451   19.5282 H   0  0  0  0  0  0
  -28.6679  -12.0169   21.3700 H   0  0  0  0  0  0
  -28.4635  -13.6823   21.8353 H   0  0  0  0  0  0
  -25.2717   -9.5701   22.4753 H   0  0  0  0  0  0
  -23.9999   -7.4643   22.7465 H   0  0  0  0  0  0
  -21.0841   -8.8698   19.8924 H   0  0  0  0  0  0
  -22.3661  -10.9623   19.6132 H   0  0  0  0  0  0
  -21.1999   -7.6143   23.9710 H   0  0  0  0  0  0
  -21.1483   -6.0529   25.9064 H   0  0  0  0  0  0
  -22.0590   -2.7606   23.2885 H   0  0  0  0  0  0
  -22.4107  -11.9733   22.4644 H   0  0  0  0  0  0
  -21.1095  -13.1097   22.2669 H   0  0  0  0  0  0
  -24.6731  -15.8494   20.5197 H   0  0  0  0  0  0
  -26.2818  -15.6160   20.0690 H   0  0  0  0  0  0
  -26.7183  -32.5521   23.1140 H   0  0  0  0  0  0
  -25.0310  -33.9775   25.0594 H   0  0  0  0  0  0
  -22.6959  -31.3057   21.4000 H   0  0  0  0  0  0
  -23.3794  -35.9563   23.3163 H   0  0  0  0  0  0
  -24.3648  -36.8997   22.2066 H   0  0  0  0  0  0
  -23.7189  -37.6424   23.6702 H   0  0  0  0  0  0
  -26.0367  -31.6014   20.5787 H   0  0  0  0  0  0
  -26.8316  -30.9042   21.9552 H   0  0  0  0  0  0
  -28.1149  -29.1132   21.1009 H   0  0  0  0  0  0
  -25.9779  -25.9005   19.1432 H   0  0  0  0  0  0
  -23.9533  -27.2644   19.1126 H   0  0  0  0  0  0
  -23.7249  -30.5943   19.3961 H   0  0  0  0  0  0
  -22.7424  -29.2427   19.8605 H   0  0  0  0  0  0
  -25.1261  -36.1908   25.0816 H   0  0  0  0  0  0
  -20.9979  -28.3159   24.1414 H   0  0  0  0  0  0
  -20.5675  -26.2211   23.3557 H   0  0  0  0  0  0
  -21.6645  -26.7385   22.1181 H   0  0  0  0  0  0
  -19.6917  -25.6277   21.1185 H   0  0  0  0  0  0
  -19.6721  -27.3196   20.6741 H   0  0  0  0  0  0
  -17.4211  -26.6705   21.3952 H   0  0  0  0  0  0
  -18.0279  -26.0015   22.8932 H   0  0  0  0  0  0
  -19.7955  -30.7273   24.2195 H   0  0  0  0  0  0
  -17.5025  -31.6227   24.5161 H   0  0  0  0  0  0
  -15.5366  -30.2953   23.7674 H   0  0  0  0  0  0
  -15.8672  -28.0854   22.6958 H   0  0  0  0  0  0
  -24.6073  -30.6843   25.7793 H   0  0  0  0  0  0
  -24.8845  -32.2776   26.4758 H   0  0  0  0  0  0
  -25.8171  -30.8965   27.0240 H   0  0  0  0  0  0
  -26.2906  -29.6803   24.1072 H   0  0  0  0  0  0
  -27.4290  -29.7269   25.4368 H   0  0  0  0  0  0
  -27.8645  -30.4454   23.9017 H   0  0  0  0  0  0
  -27.2697  -33.3661   26.1978 H   0  0  0  0  0  0
  -28.4003  -32.6728   25.0441 H   0  0  0  0  0  0
  -28.0561  -31.8451   26.5563 H   0  0  0  0  0  0
  -28.2441  -38.0235   24.7690 H   0  0  0  0  0  0
  -28.1257  -36.2785   24.5984 H   0  0  0  0  0  0
  -27.2351  -37.1075   25.8830 H   0  0  0  0  0  0
  -20.9312  -29.8906   21.7112 H   0  0  0  0  0  0
  -26.0117  -38.2810   24.1560 H   0  0  0  0  0  0
  -33.2501  -19.7538   19.5017 H   0  0  0  0  0  0
  -32.3045  -20.1182   18.0662 H   0  0  0  0  0  0
  -33.1232  -18.5703   18.2138 H   0  0  0  0  0  0
  -29.4523  -24.6501   21.2490 H   0  0  0  0  0  0
  -27.8851  -24.0021   20.8316 H   0  0  0  0  0  0
  -27.8863  -25.2635   18.6563 H   0  0  0  0  0  0
  -29.5478  -25.6520   18.8148 H   0  0  0  0  0  0
  -30.8114  -21.2652   19.1902 H   0  0  0  0  0  0
  -28.9635  -15.4262   20.9550 H   0  0  0  0  0  0
  1 25  1  0  0  0
  1 30  2  0  0  0
  1 81  1  0  0  0
  2  3  1  0  0  0
  2 25  1  0  0  0
  2 85  1  0  0  0
  2 86  1  0  0  0
  3  4  1  0  0  0
  3 87  1  0  0  0
  3 88  1  0  0  0
  4  5  1  0  0  0
  4 89  1  0  0  0
  4 90  1  0  0  0
  5  6  1  0  0  0
  5 26  1  0  0  0
  5 91  1  0  0  0
  6 25  1  0  0  0
  6 92  1  0  0  0
  6 93  1  0  0  0
  7  8  2  0  0  0
  7 26  1  0  0  0
  7 29  1  0  0  0
  8  9  1  0  0  0
  8 22  1  0  0  0
  9 10  1  0  0  0
  9 27  2  0  0  0
 10 11  2  0  0  0
 10 15  1  0  0  0
 11 12  1  0  0  0
 11 94  1  0  0  0
 12 13  2  0  0  0
 12 95  1  0  0  0
 13 14  1  0  0  0
 13 31  1  0  0  0
 14 15  2  0  0  0
 14 96  1  0  0  0
 15 97  1  0  0  0
 16 17  2  0  0  0
 16 21  1  0  0  0
 16 31  1  0  0  0
 17 18  1  0  0  0
 17 98  1  0  0  0
 18 19  2  0  0  0
 18 99  1  0  0  0
 19 20  1  0  0  0
 19 24  1  0  0  0
 20 21  2  0  0  0
 20100  1  0  0  0
 21 23  1  0  0  0
 22 28  1  0  0  0
 22 32  2  0  0  0
 26 27  1  0  0  0
 28101  1  0  0  0
 28102  1  0  0  0
 29103  1  0  0  0
 29104  1  0  0  0
 33 34  1  0  0  0
 33 66  1  0  0  0
 33 70  2  0  0  0
 34 36  1  0  0  0
 34 59  1  0  0  0
 34105  1  0  0  0
 35 44  2  0  0  0
 35 45  1  0  0  0
 35 68  1  0  0  0
 36 56  1  0  0  0
 36106  1  0  0  0
 37 39  1  0  0  0
 37 47  1  0  0  0
 37 66  1  0  0  0
 37107  1  0  0  0
 38 43  2  0  0  0
 38 46  1  0  0  0
 38 47  1  0  0  0
 39 64  1  0  0  0
 39 67  2  0  0  0
 40 52  1  0  0  0
 40 53  2  0  0  0
 40 58  1  0  0  0
 41108  1  0  0  0
 41109  1  0  0  0
 41110  1  0  0  0
 41 48  1  0  0  0
 42 43  1  0  0  0
 42 66  1  0  0  0
 42111  1  0  0  0
 42112  1  0  0  0
 43 44  1  0  0  0
 44113  1  0  0  0
 45 46  2  0  0  0
 45114  1  0  0  0
 46115  1  0  0  0
 47116  1  0  0  0
 47117  1  0  0  0
 48 56  1  0  0  0
 48 65  1  0  0  0
 48118  1  0  0  0
 49 50  1  0  0  0
 49 53  1  0  0  0
 49 64  1  0  0  0
 49119  1  0  0  0
 50 51  1  0  0  0
 50120  1  0  0  0
 50121  1  0  0  0
 51 52  1  0  0  0
 51122  1  0  0  0
 51123  1  0  0  0
 52124  1  0  0  0
 52125  1  0  0  0
 53 54  1  0  0  0
 54 55  2  0  0  0
 54126  1  0  0  0
 55 57  1  0  0  0
 55127  1  0  0  0
 56 69  2  0  0  0
 57 58  2  0  0  0
 57128  1  0  0  0
 58129  1  0  0  0
 59 60  1  0  0  0
 59 61  1  0  0  0
 59 62  1  0  0  0
 60130  1  0  0  0
 60131  1  0  0  0
 60132  1  0  0  0
 61133  1  0  0  0
 61134  1  0  0  0
 61135  1  0  0  0
 62136  1  0  0  0
 62137  1  0  0  0
 62138  1  0  0  0
 63 65  1  0  0  0
 63139  1  0  0  0
 63140  1  0  0  0
 63141  1  0  0  0
 64142  1  0  0  0
 65143  1  0  0  0
 68 78  1  0  0  0
 71 72  2  0  0  0
 71 76  1  0  0  0
 71 79  1  0  0  0
 72 80  1  0  0  0
 72 84  1  0  0  0
 73 79  2  0  0  0
 73 81  1  0  0  0
 73 84  1  0  0  0
 74 75  1  0  0  0
 74 77  1  0  0  0
 74 82  2  0  0  0
 75 80  1  0  0  0
 75 83  2  0  0  0
 76144  1  0  0  0
 76145  1  0  0  0
 76146  1  0  0  0
 77 78  1  0  0  0
 77147  1  0  0  0
 77148  1  0  0  0
 78149  1  0  0  0
 78150  1  0  0  0
 80151  1  0  0  0
 81152  1  0  0  0
M  ISO  4   1 100  68 101  78 101  81 100
M  END
> <chiral flag>
0

> <version>
0

> <s_m_source_file>
/data/baiqing/PycharmProjects/Reinvent-master-3.2/result/LINK_invent/BTK/process_docking_weight1_custom_product_contain_oxygen_bond_distance_aromatic_linkinvent_7_9_3/rearranged_h_0180.sdf

> <i_m_source_file_index>
77

> <r_mmod_Potential_Energy-OPLS-2005>
-116.76343536377

> <r_mmod_Stretch_Energy-OPLS-2005>
39.5165672302246

> <r_mmod_Bend_Energy-OPLS-2005>
129.074554443359

> <r_mmod_Torsional_Energy-OPLS-2005>
204.365692138672

> <r_mmod_Improper_Torsional_Energy-OPLS-2005>
5.3976263999939

> <r_mmod_Van_der_Waal_Energy-OPLS-2005>
138.119812011719

> <r_mmod_Electrostatic_Energy-OPLS-2005>
-406.936767578125

> <r_mmod_Solvation_Energy-OPLS-2005>
-248.408920288086

> <b_mmod_Minimization_Converged-OPLS-2005>
0

> <r_mmod_RMS_Derivative-OPLS-2005>
4.1563196182251

$$$$
77
                    3D
 Structure written by MMmdl.
158166  0  0  1  0            999 V2000
  -30.5805  -14.8046   20.4406 C   0  0  0  0  0  0
  -30.4247  -12.4930   19.5028 C   0  0  0  0  0  0
  -29.5140  -12.5061   18.2539 C   0  0  0  0  0  0
  -28.0407  -12.3214   18.6628 C   0  0  0  0  0  0
  -27.6310  -13.2390   19.8465 C   0  0  2  0  0  0
  -28.6641  -13.2083   20.9913 C   0  0  0  0  0  0
  -25.2472  -13.8204   20.5712 C   0  0  0  0  0  0
  -24.1769  -13.0443   20.9215 C   0  0  0  0  0  0
  -24.6366  -11.6926   20.8733 C   0  0  0  0  0  0
  -23.9050  -10.4287   21.0391 C   0  0  0  0  0  0
  -24.3607   -9.4214   21.9176 C   0  0  0  0  0  0
  -23.6288   -8.2244   22.0747 C   0  0  0  0  0  0
  -22.4274   -8.0270   21.3536 C   0  0  0  0  0  0
  -21.9904   -9.0242   20.4642 C   0  0  0  0  0  0
  -22.7223  -10.2129   20.3051 C   0  0  0  0  0  0
  -21.6851   -6.0725   22.5275 C   0  0  0  0  0  0
  -21.4015   -6.5635   23.8201 C   0  0  0  0  0  0
  -21.3659   -5.6794   24.9167 C   0  0  0  0  0  0
  -21.6044   -4.3050   24.7222 C   0  0  0  0  0  0
  -21.8823   -3.8143   23.4342 C   0  0  0  0  0  0
  -21.9199   -4.6957   22.3402 C   0  0  0  0  0  0
  -22.7805  -13.5219   21.1877 C   0  0  0  0  0  0
  -22.1669   -4.2144   21.0977 F   0  0  0  0  0  0
  -21.5633   -3.4544   25.7733 F   0  0  0  0  0  0
  -29.9583  -13.5729   20.4114 N   0  0  0  0  0  0
  -26.2868  -12.9415   20.3242 N   0  0  0  0  0  0
  -25.9289  -11.6547   20.5723 N   0  0  0  0  0  0
  -22.0462  -12.8199   22.0429 N   0  0  0  0  0  0
  -25.4223  -15.1921   20.4168 N   0  0  0  0  0  0
  -31.7919  -14.8473   20.1968 O   0  0  0  0  0  0
  -21.6646   -6.8874   21.4232 O   0  0  0  0  0  0
  -22.3498  -14.5530   20.6728 O   0  0  0  0  0  0
  -24.6313  -31.8488   23.1930 C   0  0  0  0  0  0
  -25.9128  -32.4720   23.8266 C   0  0  1  0  0  0
  -27.2115  -27.2206   20.1486 C   0  0  0  0  0  0
  -25.5911  -33.8531   24.2170 N   0  0  0  0  0  0
  -23.4285  -30.4679   21.5380 C   0  0  2  0  0  0
  -24.8758  -28.9051   20.1057 C   0  0  0  0  0  0
  -22.7488  -29.4552   22.4914 C   0  0  0  0  0  0
  -18.0259  -28.1408   22.8427 C   0  0  0  0  0  0
  -24.1495  -36.7281   23.2642 C   0  0  0  0  0  0
  -25.9755  -30.7509   21.3776 C   0  0  0  0  0  0
  -26.0437  -29.3693   20.7210 C   0  0  0  0  0  0
  -27.2078  -28.5371   20.7326 C   0  0  0  0  0  0
  -26.0304  -26.8294   19.4854 C   0  0  0  0  0  0
  -24.8778  -27.6461   19.4742 C   0  0  0  0  0  0
  -23.6440  -29.7932   20.1557 C   0  0  0  0  0  0
  -25.4135  -36.3050   24.0308 C   0  0  1  0  0  0
  -20.5859  -28.3713   23.1279 C   0  0  2  0  0  0
  -20.6771  -26.9426   22.5437 C   0  0  0  0  0  0
  -19.5765  -26.6401   21.5211 C   0  0  0  0  0  0
  -18.1918  -26.7930   22.1591 C   0  0  0  0  0  0
  -19.1513  -28.8862   23.2825 C   0  0  0  0  0  0
  -18.9448  -30.1457   23.8853 C   0  0  0  0  0  0
  -17.6466  -30.6596   24.0554 C   0  0  0  0  0  0
  -25.9093  -34.9433   23.5054 C   0  0  0  0  0  0
  -16.5331  -29.9102   23.6351 C   0  0  0  0  0  0
  -16.7243  -28.6540   23.0332 C   0  0  0  0  0  0
  -26.4486  -31.6559   25.0683 C   0  0  0  0  0  0
  -25.3693  -31.3751   26.1409 C   0  0  0  0  0  0
  -27.0363  -30.2952   24.6249 C   0  0  0  0  0  0
  -27.6007  -32.4347   25.7467 C   0  0  0  0  0  0
  -27.5577  -37.1788   24.8455 C   0  0  0  0  0  0
  -21.4195  -29.3033   22.3665 N   0  0  0  0  0  0
  -26.4301  -37.3759   23.9397 N   0  0  0  0  0  0
  -24.6976  -31.0425   22.0909 N   0  0  0  0  0  0
  -23.4167  -28.8094   23.3036 O   0  0  0  0  0  0
  -28.3104  -26.3378   20.2813 O   0  0  0  0  0  0
  -26.5703  -34.8896   22.4655 O   0  0  0  0  0  0
  -23.5469  -32.1331   23.7221 O   0  0  0  0  0  0
  -30.0926  -19.0994   18.2898 C   0  0  0  0  0  0
  -29.6645  -18.5318   19.5456 C   0  0  0  0  0  0
  -29.9479  -17.1014   19.6191 C   0  0  0  0  0  0
  -30.5495  -18.1881   17.4056 C   0  0  0  0  0  0
  -28.5348  -20.8091   20.1343 C   0  0  0  0  0  0
  -28.3658  -20.7313   23.2804 C   0  0  0  0  0  0
  -27.9211  -21.9359   22.4270 C   0  0  0  0  0  0
  -27.7769  -23.5570   20.4688 C   0  0  0  0  0  0
  -28.4008  -24.9051   19.7810 C   0  0  0  0  0  0
  -28.5507  -22.1819   21.0192 C   0  0  2  0  0  0
  -29.1454  -19.5823   20.4826 N   0  0  0  0  0  0
  -29.8339  -16.0025   20.5082 N   0  0  0  0  0  0
  -27.9046  -20.8743   19.0772 O   0  0  0  0  0  0
  -29.9002  -22.5318   21.2689 O   0  0  0  0  0  0
  -30.9820  -18.4864   16.1573 F   0  0  0  0  0  0
  -30.5198  -16.5930   18.0097 S   0  0  0  0  0  0
  -31.4658  -12.6250   19.2036 H   0  0  0  0  0  0
  -30.3793  -11.5238   20.0025 H   0  0  0  0  0  0
  -29.8086  -11.7145   17.5635 H   0  0  0  0  0  0
  -29.6346  -13.4458   17.7129 H   0  0  0  0  0  0
  -27.9095  -11.2763   18.9468 H   0  0  0  0  0  0
  -27.3848  -12.4862   17.8080 H   0  0  0  0  0  0
  -27.6187  -14.2529   19.4478 H   0  0  0  0  0  0
  -28.7095  -12.2182   21.4498 H   0  0  0  0  0  0
  -28.3841  -13.9052   21.7837 H   0  0  0  0  0  0
  -25.2745   -9.5697   22.4752 H   0  0  0  0  0  0
  -24.0000   -7.4638   22.7462 H   0  0  0  0  0  0
  -21.0841   -8.8752   19.8941 H   0  0  0  0  0  0
  -22.3667  -10.9667   19.6163 H   0  0  0  0  0  0
  -21.2004   -7.6140   23.9700 H   0  0  0  0  0  0
  -21.1481   -6.0525   25.9069 H   0  0  0  0  0  0
  -22.0606   -2.7604   23.2845 H   0  0  0  0  0  0
  -22.4113  -11.9867   22.4792 H   0  0  0  0  0  0
  -21.1076  -13.1201   22.2625 H   0  0  0  0  0  0
  -24.6630  -15.8533   20.5404 H   0  0  0  0  0  0
  -26.2730  -15.6249   20.0828 H   0  0  0  0  0  0
  -26.7176  -32.5341   23.0983 H   0  0  0  0  0  0
  -24.9986  -33.9640   25.0267 H   0  0  0  0  0  0
  -22.7286  -31.2933   21.3897 H   0  0  0  0  0  0
  -23.3733  -35.9638   23.3311 H   0  0  0  0  0  0
  -24.3548  -36.8955   22.2049 H   0  0  0  0  0  0
  -23.7258  -37.6489   23.6689 H   0  0  0  0  0  0
  -26.1191  -31.5111   20.6080 H   0  0  0  0  0  0
  -26.8481  -30.7966   22.0166 H   0  0  0  0  0  0
  -28.0970  -28.8762   21.2449 H   0  0  0  0  0  0
  -25.9688  -25.8592   19.0126 H   0  0  0  0  0  0
  -23.9817  -27.2841   18.9877 H   0  0  0  0  0  0
  -23.7602  -30.5673   19.3967 H   0  0  0  0  0  0
  -22.7609  -29.2272   19.8556 H   0  0  0  0  0  0
  -25.1291  -36.1893   25.0797 H   0  0  0  0  0  0
  -20.9890  -28.3305   24.1425 H   0  0  0  0  0  0
  -20.5709  -26.2288   23.3626 H   0  0  0  0  0  0
  -21.6645  -26.7533   22.1206 H   0  0  0  0  0  0
  -19.6998  -25.6309   21.1264 H   0  0  0  0  0  0
  -19.6749  -27.3200   20.6723 H   0  0  0  0  0  0
  -17.4213  -26.6621   21.3973 H   0  0  0  0  0  0
  -18.0315  -26.0102   22.9010 H   0  0  0  0  0  0
  -19.7944  -30.7259   24.2217 H   0  0  0  0  0  0
  -17.5040  -31.6277   24.5165 H   0  0  0  0  0  0
  -15.5336  -30.3003   23.7766 H   0  0  0  0  0  0
  -15.8616  -28.0899   22.7058 H   0  0  0  0  0  0
  -24.5840  -30.7132   25.7729 H   0  0  0  0  0  0
  -24.8910  -32.2935   26.4809 H   0  0  0  0  0  0
  -25.7978  -30.8923   27.0186 H   0  0  0  0  0  0
  -26.2972  -29.6649   24.1290 H   0  0  0  0  0  0
  -27.3978  -29.7270   25.4822 H   0  0  0  0  0  0
  -27.8858  -30.4166   23.9529 H   0  0  0  0  0  0
  -27.2575  -33.3650   26.1988 H   0  0  0  0  0  0
  -28.3823  -32.6929   25.0317 H   0  0  0  0  0  0
  -28.0641  -31.8530   26.5448 H   0  0  0  0  0  0
  -28.2570  -38.0092   24.7505 H   0  0  0  0  0  0
  -28.1088  -36.2627   24.6278 H   0  0  0  0  0  0
  -27.2295  -37.1447   25.8855 H   0  0  0  0  0  0
  -20.9411  -29.8720   21.6816 H   0  0  0  0  0  0
  -26.0169  -38.2830   24.1407 H   0  0  0  0  0  0
  -30.0567  -20.1495   18.0477 H   0  0  0  0  0  0
  -27.9363  -20.8136   24.2809 H   0  0  0  0  0  0
  -29.4471  -20.6700   23.4024 H   0  0  0  0  0  0
  -27.9982  -19.7836   22.8865 H   0  0  0  0  0  0
  -28.1025  -22.8245   23.0319 H   0  0  0  0  0  0
  -26.8349  -21.8834   22.3188 H   0  0  0  0  0  0
  -27.0490  -23.2042   19.7399 H   0  0  0  0  0  0
  -27.1216  -23.9318   21.2581 H   0  0  0  0  0  0
  -28.0445  -24.9223   18.7521 H   0  0  0  0  0  0
  -29.4695  -24.7214   19.6711 H   0  0  0  0  0  0
  -29.3944  -19.4671   21.4546 H   0  0  0  0  0  0
  -28.9573  -15.9446   21.0030 H   0  0  0  0  0  0
  -30.2733  -21.8557   21.8215 H   0  0  0  0  0  0
  1 25  1  0  0  0
  1 30  2  0  0  0
  1 82  1  0  0  0
  2  3  1  0  0  0
  2 25  1  0  0  0
  2 87  1  0  0  0
  2 88  1  0  0  0
  3  4  1  0  0  0
  3 89  1  0  0  0
  3 90  1  0  0  0
  4  5  1  0  0  0
  4 91  1  0  0  0
  4 92  1  0  0  0
  5  6  1  0  0  0
  5 26  1  0  0  0
  5 93  1  0  0  0
  6 25  1  0  0  0
  6 94  1  0  0  0
  6 95  1  0  0  0
  7  8  2  0  0  0
  7 26  1  0  0  0
  7 29  1  0  0  0
  8  9  1  0  0  0
  8 22  1  0  0  0
  9 10  1  0  0  0
  9 27  2  0  0  0
 10 11  2  0  0  0
 10 15  1  0  0  0
 11 12  1  0  0  0
 11 96  1  0  0  0
 12 13  2  0  0  0
 12 97  1  0  0  0
 13 14  1  0  0  0
 13 31  1  0  0  0
 14 15  2  0  0  0
 14 98  1  0  0  0
 15 99  1  0  0  0
 16 17  2  0  0  0
 16 21  1  0  0  0
 16 31  1  0  0  0
 17 18  1  0  0  0
 17100  1  0  0  0
 18 19  2  0  0  0
 18101  1  0  0  0
 19 20  1  0  0  0
 19 24  1  0  0  0
 20 21  2  0  0  0
 20102  1  0  0  0
 21 23  1  0  0  0
 22 28  1  0  0  0
 22 32  2  0  0  0
 26 27  1  0  0  0
 28103  1  0  0  0
 28104  1  0  0  0
 29105  1  0  0  0
 29106  1  0  0  0
 33 34  1  0  0  0
 33 66  1  0  0  0
 33 70  2  0  0  0
 34 36  1  0  0  0
 34 59  1  0  0  0
 34107  1  0  0  0
 35 44  2  0  0  0
 35 45  1  0  0  0
 35 68  1  0  0  0
 36 56  1  0  0  0
 36108  1  0  0  0
 37 39  1  0  0  0
 37 47  1  0  0  0
 37 66  1  0  0  0
 37109  1  0  0  0
 38 43  2  0  0  0
 38 46  1  0  0  0
 38 47  1  0  0  0
 39 64  1  0  0  0
 39 67  2  0  0  0
 40 52  1  0  0  0
 40 53  2  0  0  0
 40 58  1  0  0  0
 41110  1  0  0  0
 41111  1  0  0  0
 41112  1  0  0  0
 41 48  1  0  0  0
 42 43  1  0  0  0
 42 66  1  0  0  0
 42113  1  0  0  0
 42114  1  0  0  0
 43 44  1  0  0  0
 44115  1  0  0  0
 45 46  2  0  0  0
 45116  1  0  0  0
 46117  1  0  0  0
 47118  1  0  0  0
 47119  1  0  0  0
 48 56  1  0  0  0
 48 65  1  0  0  0
 48120  1  0  0  0
 49 50  1  0  0  0
 49 53  1  0  0  0
 49 64  1  0  0  0
 49121  1  0  0  0
 50 51  1  0  0  0
 50122  1  0  0  0
 50123  1  0  0  0
 51 52  1  0  0  0
 51124  1  0  0  0
 51125  1  0  0  0
 52126  1  0  0  0
 52127  1  0  0  0
 53 54  1  0  0  0
 54 55  2  0  0  0
 54128  1  0  0  0
 55 57  1  0  0  0
 55129  1  0  0  0
 56 69  2  0  0  0
 57 58  2  0  0  0
 57130  1  0  0  0
 58131  1  0  0  0
 59 60  1  0  0  0
 59 61  1  0  0  0
 59 62  1  0  0  0
 60132  1  0  0  0
 60133  1  0  0  0
 60134  1  0  0  0
 61135  1  0  0  0
 61136  1  0  0  0
 61137  1  0  0  0
 62138  1  0  0  0
 62139  1  0  0  0
 62140  1  0  0  0
 63 65  1  0  0  0
 63141  1  0  0  0
 63142  1  0  0  0
 63143  1  0  0  0
 64144  1  0  0  0
 65145  1  0  0  0
 68 79  1  0  0  0
 71 72  1  0  0  0
 71 74  2  0  0  0
 71146  1  0  0  0
 72 73  2  0  0  0
 72 81  1  0  0  0
 73 82  1  0  0  0
 73 86  1  0  0  0
 74 85  1  0  0  0
 74 86  1  0  0  0
 75 81  1  0  0  0
 75 83  2  0  0  0
 75 80  1  0  0  0
 76 77  1  0  0  0
 76147  1  0  0  0
 76148  1  0  0  0
 76149  1  0  0  0
 77 80  1  0  0  0
 77150  1  0  0  0
 77151  1  0  0  0
 78 79  1  0  0  0
 78 80  1  0  0  0
 78152  1  0  0  0
 78153  1  0  0  0
 79154  1  0  0  0
 79155  1  0  0  0
 80 84  1  0  0  0
 81156  1  0  0  0
 82157  1  0  0  0
 84158  1  0  0  0
M  ISO  4   1 100  68 101  79 101  82 100
M  END
> <chiral flag>
0

> <version>
0

> <s_m_source_file>
/data/baiqing/PycharmProjects/Reinvent-master-3.2/result/LINK_invent/BTK/process_docking_weight1_custom_product_contain_oxygen_bond_distance_aromatic_linkinvent_7_9_3/rearranged_h_0180.sdf

> <i_m_source_file_index>
78

> <r_mmod_Potential_Energy-OPLS-2005>
328.95556640625

> <r_mmod_Stretch_Energy-OPLS-2005>
187.04914855957

> <r_mmod_Bend_Energy-OPLS-2005>
280.496032714844

> <r_mmod_Torsional_Energy-OPLS-2005>
290.605926513672

> <r_mmod_Improper_Torsional_Energy-OPLS-2005>
7.27405548095703

> <r_mmod_Van_der_Waal_Energy-OPLS-2005>
135.727325439453

> <r_mmod_Electrostatic_Energy-OPLS-2005>
-439.538726806641

> <r_mmod_Solvation_Energy-OPLS-2005>
-248.178131103516

> <b_mmod_Minimization_Converged-OPLS-2005>
0

> <r_mmod_RMS_Derivative-OPLS-2005>
3.72961401939392

$$$$
78
                    3D
 Structure written by MMmdl.
155163  0  0  1  0            999 V2000
  -30.7526  -14.4304   20.6707 C   0  0  0  0  0  0
  -30.4236  -12.3194   19.4112 C   0  0  0  0  0  0
  -29.4821  -12.5462   18.2119 C   0  0  0  0  0  0
  -28.0114  -12.3870   18.6359 C   0  0  0  0  0  0
  -27.6724  -13.2102   19.9032 C   0  0  2  0  0  0
  -28.7184  -12.9645   21.0180 C   0  0  0  0  0  0
  -25.2627  -13.8203   20.5819 C   0  0  0  0  0  0
  -24.1819  -13.0451   20.9143 C   0  0  0  0  0  0
  -24.6396  -11.6943   20.8732 C   0  0  0  0  0  0
  -23.9094  -10.4298   21.0373 C   0  0  0  0  0  0
  -24.3642   -9.4205   21.9149 C   0  0  0  0  0  0
  -23.6313   -8.2238   22.0738 C   0  0  0  0  0  0
  -22.4291   -8.0284   21.3528 C   0  0  0  0  0  0
  -21.9939   -9.0264   20.4632 C   0  0  0  0  0  0
  -22.7271  -10.2138   20.3023 C   0  0  0  0  0  0
  -21.6850   -6.0750   22.5288 C   0  0  0  0  0  0
  -21.4001   -6.5655   23.8224 C   0  0  0  0  0  0
  -21.3633   -5.6808   24.9189 C   0  0  0  0  0  0
  -21.6019   -4.3070   24.7238 C   0  0  0  0  0  0
  -21.8820   -3.8164   23.4360 C   0  0  0  0  0  0
  -21.9195   -4.6975   22.3406 C   0  0  0  0  0  0
  -22.7829  -13.5234   21.1835 C   0  0  0  0  0  0
  -22.1657   -4.2156   21.0983 F   0  0  0  0  0  0
  -21.5617   -3.4557   25.7755 F   0  0  0  0  0  0
  -30.0649  -13.2649   20.4847 N   0  0  0  0  0  0
  -26.3108  -12.9379   20.3615 N   0  0  0  0  0  0
  -25.9359  -11.6524   20.5896 N   0  0  0  0  0  0
  -22.0476  -12.8197   22.0405 N   0  0  0  0  0  0
  -25.4463  -15.1910   20.4395 N   0  0  0  0  0  0
  -31.7374  -14.7322   19.9927 O   0  0  0  0  0  0
  -21.6634   -6.8895   21.4246 O   0  0  0  0  0  0
  -22.3512  -14.5540   20.6727 O   0  0  0  0  0  0
  -24.6107  -31.8689   23.2144 C   0  0  0  0  0  0
  -25.9030  -32.4819   23.8409 C   0  0  1  0  0  0
  -27.2374  -27.4722   20.0982 C   0  0  0  0  0  0
  -25.5935  -33.8619   24.2363 N   0  0  0  0  0  0
  -23.3954  -30.4915   21.5511 C   0  0  2  0  0  0
  -24.8465  -28.9614   20.1160 C   0  0  0  0  0  0
  -22.7371  -29.4657   22.5004 C   0  0  0  0  0  0
  -18.0259  -28.1384   22.8473 C   0  0  0  0  0  0
  -24.1484  -36.7293   23.2630 C   0  0  0  0  0  0
  -25.9181  -30.8478   21.3603 C   0  0  0  0  0  0
  -26.0009  -29.4805   20.7178 C   0  0  0  0  0  0
  -27.2006  -28.7393   20.7169 C   0  0  0  0  0  0
  -26.0797  -26.9634   19.4794 C   0  0  0  0  0  0
  -24.8783  -27.6976   19.4961 C   0  0  0  0  0  0
  -23.6039  -29.8203   20.1658 C   0  0  0  0  0  0
  -25.4095  -36.3098   24.0350 C   0  0  1  0  0  0
  -20.5839  -28.3647   23.1338 C   0  0  2  0  0  0
  -20.6729  -26.9372   22.5472 C   0  0  0  0  0  0
  -19.5758  -26.6379   21.5206 C   0  0  0  0  0  0
  -18.1900  -26.7966   22.1527 C   0  0  0  0  0  0
  -19.1508  -28.8822   23.2911 C   0  0  0  0  0  0
  -18.9445  -30.1431   23.8913 C   0  0  0  0  0  0
  -17.6453  -30.6577   24.0578 C   0  0  0  0  0  0
  -25.9031  -34.9471   23.5140 C   0  0  0  0  0  0
  -16.5339  -29.9083   23.6353 C   0  0  0  0  0  0
  -16.7253  -28.6514   23.0341 C   0  0  0  0  0  0
  -26.4497  -31.6579   25.0711 C   0  0  0  0  0  0
  -25.3788  -31.3679   26.1477 C   0  0  0  0  0  0
  -27.0270  -30.3007   24.6058 C   0  0  0  0  0  0
  -27.6134  -32.4261   25.7420 C   0  0  0  0  0  0
  -27.5623  -37.1738   24.8433 C   0  0  0  0  0  0
  -21.4104  -29.2998   22.3734 N   0  0  0  0  0  0
  -26.4274  -37.3798   23.9465 N   0  0  0  0  0  0
  -24.6584  -31.0838   22.1006 N   0  0  0  0  0  0
  -23.4153  -28.8208   23.3055 O   0  0  0  0  0  0
  -28.3764  -26.7129   20.0730 O   0  0  0  0  0  0
  -26.5562  -34.8926   22.4679 O   0  0  0  0  0  0
  -23.5320  -32.1416   23.7575 O   0  0  0  0  0  0
  -31.2980  -19.6831   21.4689 C   0  0  0  0  0  0
  -31.3637  -18.2518   21.3851 C   0  0  0  0  0  0
  -30.1332  -17.6546   21.5888 C   0  0  0  0  0  0
  -30.0471  -20.1958   21.7271 C   0  0  0  0  0  0
  -29.4067  -23.8012   21.7484 C   0  0  0  0  0  0
  -29.5764  -16.2606   21.5628 C   0  0  0  0  0  0
  -29.6691  -25.0162   21.2073 C   0  0  0  0  0  0
  -30.2538  -22.6279   21.5500 C   0  0  0  0  0  0
  -32.6546  -17.5505   21.0869 C   0  0  0  0  0  0
  -28.7974  -26.2561   21.3563 C   0  0  0  0  0  0
  -29.6123  -21.4830   21.8505 N   0  0  0  0  0  0
  -30.3640  -15.1809   21.7145 N   0  0  0  0  0  0
  -28.3505  -16.1051   21.5310 O   0  0  0  0  0  0
  -31.4155  -22.6721   21.1342 O   0  0  0  0  0  0
  -30.7344  -25.3025   20.4386 O   0  0  0  0  0  0
  -28.9168  -18.8830   21.8969 S   0  0  0  0  0  0
  -31.4621  -12.4287   19.0973 H   0  0  0  0  0  0
  -30.3338  -11.2966   19.7771 H   0  0  0  0  0  0
  -29.7104  -11.8494   17.4033 H   0  0  0  0  0  0
  -29.6429  -13.5435   17.8038 H   0  0  0  0  0  0
  -27.8305  -11.3281   18.8258 H   0  0  0  0  0  0
  -27.3498  -12.6698   17.8152 H   0  0  0  0  0  0
  -27.7233  -14.2611   19.6198 H   0  0  0  0  0  0
  -28.6900  -11.9271   21.3498 H   0  0  0  0  0  0
  -28.4627  -13.5459   21.9037 H   0  0  0  0  0  0
  -25.2786   -9.5704   22.4736 H   0  0  0  0  0  0
  -24.0006   -7.4655   22.7484 H   0  0  0  0  0  0
  -21.0855   -8.8821   19.8953 H   0  0  0  0  0  0
  -22.3736  -10.9690   19.6144 H   0  0  0  0  0  0
  -21.1983   -7.6169   23.9735 H   0  0  0  0  0  0
  -21.1445   -6.0535   25.9093 H   0  0  0  0  0  0
  -22.0621   -2.7630   23.2878 H   0  0  0  0  0  0
  -22.4105  -11.9854   22.4749 H   0  0  0  0  0  0
  -21.1084  -13.1180   22.2653 H   0  0  0  0  0  0
  -24.7059  -15.8649   20.6099 H   0  0  0  0  0  0
  -26.3741  -15.6008   20.5044 H   0  0  0  0  0  0
  -26.7100  -32.5560   23.1175 H   0  0  0  0  0  0
  -25.0237  -33.9793   25.0613 H   0  0  0  0  0  0
  -22.6823  -31.3054   21.4094 H   0  0  0  0  0  0
  -23.3793  -35.9573   23.3185 H   0  0  0  0  0  0
  -24.3626  -36.9005   22.2073 H   0  0  0  0  0  0
  -23.7156  -37.6434   23.6695 H   0  0  0  0  0  0
  -26.0208  -31.6110   20.5868 H   0  0  0  0  0  0
  -26.8089  -30.9082   21.9730 H   0  0  0  0  0  0
  -28.0925  -29.1415   21.1763 H   0  0  0  0  0  0
  -26.1097  -25.9981   18.9934 H   0  0  0  0  0  0
  -23.9921  -27.2913   19.0288 H   0  0  0  0  0  0
  -23.7068  -30.5897   19.4008 H   0  0  0  0  0  0
  -22.7324  -29.2327   19.8743 H   0  0  0  0  0  0
  -25.1257  -36.1946   25.0838 H   0  0  0  0  0  0
  -20.9941  -28.3246   24.1452 H   0  0  0  0  0  0
  -20.5531  -26.2287   23.3676 H   0  0  0  0  0  0
  -21.6633  -26.7333   22.1358 H   0  0  0  0  0  0
  -19.6910  -25.6281   21.1253 H   0  0  0  0  0  0
  -19.6786  -27.3185   20.6743 H   0  0  0  0  0  0
  -17.4239  -26.6837   21.3831 H   0  0  0  0  0  0
  -18.0160  -26.0038   22.8818 H   0  0  0  0  0  0
  -19.7915  -30.7254   24.2296 H   0  0  0  0  0  0
  -17.4989  -31.6240   24.5190 H   0  0  0  0  0  0
  -15.5338  -30.2973   23.7654 H   0  0  0  0  0  0
  -15.8658  -28.0834   22.7029 H   0  0  0  0  0  0
  -24.6385  -30.6446   25.8043 H   0  0  0  0  0  0
  -24.8437  -32.2710   26.4410 H   0  0  0  0  0  0
  -25.8260  -30.9525   27.0513 H   0  0  0  0  0  0
  -26.2741  -29.6758   24.1245 H   0  0  0  0  0  0
  -27.4155  -29.7271   25.4479 H   0  0  0  0  0  0
  -27.8534  -30.4281   23.9069 H   0  0  0  0  0  0
  -27.2859  -33.3601   26.1987 H   0  0  0  0  0  0
  -28.3934  -32.6731   25.0208 H   0  0  0  0  0  0
  -28.0805  -31.8368   26.5317 H   0  0  0  0  0  0
  -28.2566  -38.0117   24.7625 H   0  0  0  0  0  0
  -28.1194  -36.2669   24.6020 H   0  0  0  0  0  0
  -27.2404  -37.1114   25.8847 H   0  0  0  0  0  0
  -20.9272  -29.8766   21.6991 H   0  0  0  0  0  0
  -26.0166  -38.2845   24.1616 H   0  0  0  0  0  0
  -32.1805  -20.2883   21.3193 H   0  0  0  0  0  0
  -28.5205  -23.7044   22.3603 H   0  0  0  0  0  0
  -33.5013  -18.2394   21.1104 H   0  0  0  0  0  0
  -32.6382  -17.1099   20.0915 H   0  0  0  0  0  0
  -32.8595  -16.7620   21.8106 H   0  0  0  0  0  0
  -29.3598  -27.0428   21.8632 H   0  0  0  0  0  0
  -27.9365  -26.0214   21.9871 H   0  0  0  0  0  0
  -28.6490  -21.5933   22.1357 H   0  0  0  0  0  0
  -29.8695  -14.5396   22.3096 H   0  0  0  0  0  0
  -31.2623  -24.5123   20.3761 H   0  0  0  0  0  0
  1 25  1  0  0  0
  1 30  2  0  0  0
  1 82  1  0  0  0
  2  3  1  0  0  0
  2 25  1  0  0  0
  2 87  1  0  0  0
  2 88  1  0  0  0
  3  4  1  0  0  0
  3 89  1  0  0  0
  3 90  1  0  0  0
  4  5  1  0  0  0
  4 91  1  0  0  0
  4 92  1  0  0  0
  5  6  1  0  0  0
  5 26  1  0  0  0
  5 93  1  0  0  0
  6 25  1  0  0  0
  6 94  1  0  0  0
  6 95  1  0  0  0
  7  8  2  0  0  0
  7 26  1  0  0  0
  7 29  1  0  0  0
  8  9  1  0  0  0
  8 22  1  0  0  0
  9 10  1  0  0  0
  9 27  2  0  0  0
 10 11  2  0  0  0
 10 15  1  0  0  0
 11 12  1  0  0  0
 11 96  1  0  0  0
 12 13  2  0  0  0
 12 97  1  0  0  0
 13 14  1  0  0  0
 13 31  1  0  0  0
 14 15  2  0  0  0
 14 98  1  0  0  0
 15 99  1  0  0  0
 16 17  2  0  0  0
 16 21  1  0  0  0
 16 31  1  0  0  0
 17 18  1  0  0  0
 17100  1  0  0  0
 18 19  2  0  0  0
 18101  1  0  0  0
 19 20  1  0  0  0
 19 24  1  0  0  0
 20 21  2  0  0  0
 20102  1  0  0  0
 21 23  1  0  0  0
 22 28  1  0  0  0
 22 32  2  0  0  0
 26 27  1  0  0  0
 28103  1  0  0  0
 28104  1  0  0  0
 29105  1  0  0  0
 29106  1  0  0  0
 33 34  1  0  0  0
 33 66  1  0  0  0
 33 70  2  0  0  0
 34 36  1  0  0  0
 34 59  1  0  0  0
 34107  1  0  0  0
 35 44  2  0  0  0
 35 45  1  0  0  0
 35 68  1  0  0  0
 36 56  1  0  0  0
 36108  1  0  0  0
 37 39  1  0  0  0
 37 47  1  0  0  0
 37 66  1  0  0  0
 37109  1  0  0  0
 38 43  2  0  0  0
 38 46  1  0  0  0
 38 47  1  0  0  0
 39 64  1  0  0  0
 39 67  2  0  0  0
 40 52  1  0  0  0
 40 53  2  0  0  0
 40 58  1  0  0  0
 41110  1  0  0  0
 41111  1  0  0  0
 41112  1  0  0  0
 41 48  1  0  0  0
 42 43  1  0  0  0
 42 66  1  0  0  0
 42113  1  0  0  0
 42114  1  0  0  0
 43 44  1  0  0  0
 44115  1  0  0  0
 45 46  2  0  0  0
 45116  1  0  0  0
 46117  1  0  0  0
 47118  1  0  0  0
 47119  1  0  0  0
 48 56  1  0  0  0
 48 65  1  0  0  0
 48120  1  0  0  0
 49 50  1  0  0  0
 49 53  1  0  0  0
 49 64  1  0  0  0
 49121  1  0  0  0
 50 51  1  0  0  0
 50122  1  0  0  0
 50123  1  0  0  0
 51 52  1  0  0  0
 51124  1  0  0  0
 51125  1  0  0  0
 52126  1  0  0  0
 52127  1  0  0  0
 53 54  1  0  0  0
 54 55  2  0  0  0
 54128  1  0  0  0
 55 57  1  0  0  0
 55129  1  0  0  0
 56 69  2  0  0  0
 57 58  2  0  0  0
 57130  1  0  0  0
 58131  1  0  0  0
 59 60  1  0  0  0
 59 61  1  0  0  0
 59 62  1  0  0  0
 60132  1  0  0  0
 60133  1  0  0  0
 60134  1  0  0  0
 61135  1  0  0  0
 61136  1  0  0  0
 61137  1  0  0  0
 62138  1  0  0  0
 62139  1  0  0  0
 62140  1  0  0  0
 63 65  1  0  0  0
 63141  1  0  0  0
 63142  1  0  0  0
 63143  1  0  0  0
 64144  1  0  0  0
 65145  1  0  0  0
 68 80  1  0  0  0
 71 72  1  0  0  0
 71 74  2  0  0  0
 71146  1  0  0  0
 72 73  2  0  0  0
 72 79  1  0  0  0
 73 76  1  0  0  0
 73 86  1  0  0  0
 74 81  1  0  0  0
 74 86  1  0  0  0
 75 77  2  0  0  0
 75 78  1  0  0  0
 75147  1  0  0  0
 76 82  1  0  0  0
 76 83  2  0  0  0
 77 80  1  0  0  0
 77 85  1  0  0  0
 78 81  1  0  0  0
 78 84  2  0  0  0
 79148  1  0  0  0
 79149  1  0  0  0
 79150  1  0  0  0
 80151  1  0  0  0
 80152  1  0  0  0
 81153  1  0  0  0
 82154  1  0  0  0
 85155  1  0  0  0
M  ISO  4   1 100  68 101  80 101  82 100
M  END
> <chiral flag>
0

> <version>
0

> <s_m_source_file>
/data/baiqing/PycharmProjects/Reinvent-master-3.2/result/LINK_invent/BTK/process_docking_weight1_custom_product_contain_oxygen_bond_distance_aromatic_linkinvent_7_9_3/rearranged_h_0180.sdf

> <i_m_source_file_index>
79

> <r_mmod_Potential_Energy-OPLS-2005>
-72.859001159668

> <r_mmod_Stretch_Energy-OPLS-2005>
35.8044662475586

> <r_mmod_Bend_Energy-OPLS-2005>
123.519477844238

> <r_mmod_Torsional_Energy-OPLS-2005>
326.650939941406

> <r_mmod_Improper_Torsional_Energy-OPLS-2005>
11.5564603805542

> <r_mmod_Van_der_Waal_Energy-OPLS-2005>
135.398986816406

> <r_mmod_Electrostatic_Energy-OPLS-2005>
-498.547485351562

> <r_mmod_Solvation_Energy-OPLS-2005>
-216.625274658203

> <b_mmod_Minimization_Converged-OPLS-2005>
0

> <r_mmod_RMS_Derivative-OPLS-2005>
3.86310124397278

$$$$
79
                    3D
 Structure written by MMmdl.
156164  0  0  1  0            999 V2000
  -30.6016  -14.7998   20.4938 C   0  0  0  0  0  0
  -30.4381  -12.5187   19.4357 C   0  0  0  0  0  0
  -29.5074  -12.5216   18.2066 C   0  0  0  0  0  0
  -28.0335  -12.3361   18.6275 C   0  0  0  0  0  0
  -27.6313  -13.2360   19.8288 C   0  0  2  0  0  0
  -28.6857  -13.2020   20.9509 C   0  0  0  0  0  0
  -25.2503  -13.8179   20.5678 C   0  0  0  0  0  0
  -24.1814  -13.0423   20.9189 C   0  0  0  0  0  0
  -24.6397  -11.6898   20.8706 C   0  0  0  0  0  0
  -23.9062  -10.4290   21.0385 C   0  0  0  0  0  0
  -24.3615   -9.4219   21.9173 C   0  0  0  0  0  0
  -23.6303   -8.2249   22.0735 C   0  0  0  0  0  0
  -22.4284   -8.0265   21.3527 C   0  0  0  0  0  0
  -21.9909   -9.0237   20.4620 C   0  0  0  0  0  0
  -22.7226  -10.2132   20.3041 C   0  0  0  0  0  0
  -21.6856   -6.0725   22.5280 C   0  0  0  0  0  0
  -21.4009   -6.5630   23.8209 C   0  0  0  0  0  0
  -21.3665   -5.6787   24.9172 C   0  0  0  0  0  0
  -21.6049   -4.3051   24.7229 C   0  0  0  0  0  0
  -21.8839   -3.8134   23.4360 C   0  0  0  0  0  0
  -21.9204   -4.6951   22.3413 C   0  0  0  0  0  0
  -22.7844  -13.5192   21.1856 C   0  0  0  0  0  0
  -22.1683   -4.2125   21.0998 F   0  0  0  0  0  0
  -21.5626   -3.4538   25.7758 F   0  0  0  0  0  0
  -29.9582  -13.5900   20.3367 N   0  0  0  0  0  0
  -26.2910  -12.9389   20.3199 N   0  0  0  0  0  0
  -25.9322  -11.6531   20.5674 N   0  0  0  0  0  0
  -22.0511  -12.8157   22.0395 N   0  0  0  0  0  0
  -25.4201  -15.1922   20.4132 N   0  0  0  0  0  0
  -31.8249  -14.8414   20.3440 O   0  0  0  0  0  0
  -21.6647   -6.8863   21.4237 O   0  0  0  0  0  0
  -22.3525  -14.5506   20.6708 O   0  0  0  0  0  0
  -24.6377  -31.8517   23.1970 C   0  0  0  0  0  0
  -25.9149  -32.4746   23.8349 C   0  0  1  0  0  0
  -27.2201  -27.2007   20.1277 C   0  0  0  0  0  0
  -25.5882  -33.8549   24.2217 N   0  0  0  0  0  0
  -23.4380  -30.4753   21.5415 C   0  0  2  0  0  0
  -24.8871  -28.9177   20.1167 C   0  0  0  0  0  0
  -22.7542  -29.4595   22.4914 C   0  0  0  0  0  0
  -18.0292  -28.1391   22.8491 C   0  0  0  0  0  0
  -24.1473  -36.7336   23.2644 C   0  0  0  0  0  0
  -25.9927  -30.7471   21.3873 C   0  0  0  0  0  0
  -26.0665  -29.3644   20.7262 C   0  0  0  0  0  0
  -27.2337  -28.5203   20.7182 C   0  0  0  0  0  0
  -26.0038  -26.8438   19.4957 C   0  0  0  0  0  0
  -24.8635  -27.6655   19.4932 C   0  0  0  0  0  0
  -23.6620  -29.8124   20.1594 C   0  0  0  0  0  0
  -25.4090  -36.3059   24.0301 C   0  0  1  0  0  0
  -20.5897  -28.3724   23.1257 C   0  0  2  0  0  0
  -20.6768  -26.9435   22.5405 C   0  0  0  0  0  0
  -19.5740  -26.6373   21.5213 C   0  0  0  0  0  0
  -18.1923  -26.7935   22.1627 C   0  0  0  0  0  0
  -19.1546  -28.8878   23.2857 C   0  0  0  0  0  0
  -18.9453  -30.1467   23.8889 C   0  0  0  0  0  0
  -17.6448  -30.6585   24.0570 C   0  0  0  0  0  0
  -25.9036  -34.9431   23.5064 C   0  0  0  0  0  0
  -16.5341  -29.9076   23.6352 C   0  0  0  0  0  0
  -16.7273  -28.6491   23.0385 C   0  0  0  0  0  0
  -26.4459  -31.6606   25.0783 C   0  0  0  0  0  0
  -25.3654  -31.3790   26.1499 C   0  0  0  0  0  0
  -27.0335  -30.3001   24.6362 C   0  0  0  0  0  0
  -27.5979  -32.4396   25.7565 C   0  0  0  0  0  0
  -27.5560  -37.1804   24.8443 C   0  0  0  0  0  0
  -21.4250  -29.3060   22.3657 N   0  0  0  0  0  0
  -26.4274  -37.3759   23.9389 N   0  0  0  0  0  0
  -24.7090  -31.0427   22.0982 N   0  0  0  0  0  0
  -23.4218  -28.8119   23.3020 O   0  0  0  0  0  0
  -28.2961  -26.2538   20.1876 O   0  0  0  0  0  0
  -26.5652  -34.8910   22.4661 O   0  0  0  0  0  0
  -23.5503  -32.1365   23.7195 O   0  0  0  0  0  0
  -29.9846  -18.6260   20.4176 C   0  0  0  0  0  0
  -31.0370  -19.0835   19.6374 C   0  0  0  0  0  0
  -29.4655  -20.9940   20.2229 C   0  0  0  0  0  0
  -30.0651  -17.1857   21.0986 C   0  0  0  0  0  0
  -33.3022  -18.3643   19.8306 C   0  0  0  0  0  0
  -29.0953  -23.6123   20.2215 C   0  0  0  0  0  0
  -34.3186  -17.3150   19.3968 C   0  0  0  0  0  0
  -28.2367  -24.8261   18.1983 C   0  0  0  0  0  0
  -28.0955  -24.8009   19.7360 C   0  0  2  0  0  0
  -29.1018  -19.7544   20.7203 N   0  0  0  0  0  0
  -32.1060  -18.3544   19.2226 N   0  0  0  0  0  0
  -28.6891  -22.2729   20.2968 N   0  0  0  0  0  0
  -29.8598  -15.9822   20.4280 N   0  0  0  0  0  0
  -30.3883  -17.1481   22.2919 O   0  0  0  0  0  0
  -33.5987  -19.1654   20.7188 O   0  0  0  0  0  0
  -30.2570  -23.9218   20.5020 O   0  0  0  0  0  0
  -30.9565  -20.8253   19.3010 S   0  0  0  0  0  0
  -31.4713  -12.6796   19.1209 H   0  0  0  0  0  0
  -30.4145  -11.5512   19.9399 H   0  0  0  0  0  0
  -29.7998  -11.7355   17.5086 H   0  0  0  0  0  0
  -29.6161  -13.4624   17.6647 H   0  0  0  0  0  0
  -27.8881  -11.2858   18.8838 H   0  0  0  0  0  0
  -27.3779  -12.5300   17.7772 H   0  0  0  0  0  0
  -27.6037  -14.2529   19.4350 H   0  0  0  0  0  0
  -28.7571  -12.2073   21.3968 H   0  0  0  0  0  0
  -28.4115  -13.8901   21.7532 H   0  0  0  0  0  0
  -25.2777   -9.5696   22.4711 H   0  0  0  0  0  0
  -24.0029   -7.4635   22.7446 H   0  0  0  0  0  0
  -21.0837   -8.8738   19.8908 H   0  0  0  0  0  0
  -22.3685  -10.9654   19.6121 H   0  0  0  0  0  0
  -21.1997   -7.6132   23.9691 H   0  0  0  0  0  0
  -21.1461   -6.0519   25.9064 H   0  0  0  0  0  0
  -22.0612   -2.7582   23.2874 H   0  0  0  0  0  0
  -22.4170  -11.9874   22.4855 H   0  0  0  0  0  0
  -21.1102  -13.1105   22.2537 H   0  0  0  0  0  0
  -24.6527  -15.8479   20.5128 H   0  0  0  0  0  0
  -26.2748  -15.6290   20.0914 H   0  0  0  0  0  0
  -26.7236  -32.5374   23.1118 H   0  0  0  0  0  0
  -24.9929  -33.9693   25.0288 H   0  0  0  0  0  0
  -22.7397  -31.3007   21.3913 H   0  0  0  0  0  0
  -23.3696  -35.9716   23.3292 H   0  0  0  0  0  0
  -24.3572  -36.9016   22.2075 H   0  0  0  0  0  0
  -23.7287  -37.6534   23.6729 H   0  0  0  0  0  0
  -26.1370  -31.5051   20.6170 H   0  0  0  0  0  0
  -26.8684  -30.7989   22.0225 H   0  0  0  0  0  0
  -28.1362  -28.8544   21.2120 H   0  0  0  0  0  0
  -25.8754  -25.8924   19.0073 H   0  0  0  0  0  0
  -23.9600  -27.3146   19.0142 H   0  0  0  0  0  0
  -23.7974  -30.5897   19.4082 H   0  0  0  0  0  0
  -22.7779  -29.2552   19.8473 H   0  0  0  0  0  0
  -25.1269  -36.1898   25.0794 H   0  0  0  0  0  0
  -20.9969  -28.3296   24.1381 H   0  0  0  0  0  0
  -20.5652  -26.2345   23.3625 H   0  0  0  0  0  0
  -21.6646  -26.7438   22.1209 H   0  0  0  0  0  0
  -19.6905  -25.6264   21.1289 H   0  0  0  0  0  0
  -19.6671  -27.3163   20.6725 H   0  0  0  0  0  0
  -17.4187  -26.6694   21.4026 H   0  0  0  0  0  0
  -18.0313  -26.0063   22.9008 H   0  0  0  0  0  0
  -19.7921  -30.7284   24.2266 H   0  0  0  0  0  0
  -17.4999  -31.6275   24.5159 H   0  0  0  0  0  0
  -15.5345  -30.2973   23.7665 H   0  0  0  0  0  0
  -15.8673  -28.0789   22.7133 H   0  0  0  0  0  0
  -24.5802  -30.7163   25.7847 H   0  0  0  0  0  0
  -24.8868  -32.2977   26.4910 H   0  0  0  0  0  0
  -25.7926  -30.8981   27.0311 H   0  0  0  0  0  0
  -26.2970  -29.6743   24.1313 H   0  0  0  0  0  0
  -27.3884  -29.7272   25.4945 H   0  0  0  0  0  0
  -27.8904  -30.4246   23.9737 H   0  0  0  0  0  0
  -27.2526  -33.3696   26.2102 H   0  0  0  0  0  0
  -28.3793  -32.6972   25.0406 H   0  0  0  0  0  0
  -28.0655  -31.8584   26.5526 H   0  0  0  0  0  0
  -28.2516  -38.0141   24.7470 H   0  0  0  0  0  0
  -28.1077  -36.2657   24.6241 H   0  0  0  0  0  0
  -27.2300  -37.1462   25.8848 H   0  0  0  0  0  0
  -20.9445  -29.8824   21.6888 H   0  0  0  0  0  0
  -26.0126  -38.2820   24.1383 H   0  0  0  0  0  0
  -34.3603  -16.5092   20.1310 H   0  0  0  0  0  0
  -35.3140  -17.7509   19.3139 H   0  0  0  0  0  0
  -34.0623  -16.8802   18.4317 H   0  0  0  0  0  0
  -28.0539  -23.8408   17.7651 H   0  0  0  0  0  0
  -29.2463  -25.1246   17.9163 H   0  0  0  0  0  0
  -27.5640  -25.5255   17.7093 H   0  0  0  0  0  0
  -27.0991  -24.4652   20.0254 H   0  0  0  0  0  0
  -31.9474  -17.6453   18.5180 H   0  0  0  0  0  0
  -27.6870  -22.1492   20.2627 H   0  0  0  0  0  0
  -29.1395  -15.9962   19.7254 H   0  0  0  0  0  0
  1 25  1  0  0  0
  1 30  2  0  0  0
  1 83  1  0  0  0
  2  3  1  0  0  0
  2 25  1  0  0  0
  2 88  1  0  0  0
  2 89  1  0  0  0
  3  4  1  0  0  0
  3 90  1  0  0  0
  3 91  1  0  0  0
  4  5  1  0  0  0
  4 92  1  0  0  0
  4 93  1  0  0  0
  5  6  1  0  0  0
  5 26  1  0  0  0
  5 94  1  0  0  0
  6 25  1  0  0  0
  6 95  1  0  0  0
  6 96  1  0  0  0
  7  8  2  0  0  0
  7 26  1  0  0  0
  7 29  1  0  0  0
  8  9  1  0  0  0
  8 22  1  0  0  0
  9 10  1  0  0  0
  9 27  2  0  0  0
 10 11  2  0  0  0
 10 15  1  0  0  0
 11 12  1  0  0  0
 11 97  1  0  0  0
 12 13  2  0  0  0
 12 98  1  0  0  0
 13 14  1  0  0  0
 13 31  1  0  0  0
 14 15  2  0  0  0
 14 99  1  0  0  0
 15100  1  0  0  0
 16 17  2  0  0  0
 16 21  1  0  0  0
 16 31  1  0  0  0
 17 18  1  0  0  0
 17101  1  0  0  0
 18 19  2  0  0  0
 18102  1  0  0  0
 19 20  1  0  0  0
 19 24  1  0  0  0
 20 21  2  0  0  0
 20103  1  0  0  0
 21 23  1  0  0  0
 22 28  1  0  0  0
 22 32  2  0  0  0
 26 27  1  0  0  0
 28104  1  0  0  0
 28105  1  0  0  0
 29106  1  0  0  0
 29107  1  0  0  0
 33 34  1  0  0  0
 33 66  1  0  0  0
 33 70  2  0  0  0
 34 36  1  0  0  0
 34 59  1  0  0  0
 34108  1  0  0  0
 35 44  2  0  0  0
 35 45  1  0  0  0
 35 68  1  0  0  0
 36 56  1  0  0  0
 36109  1  0  0  0
 37 39  1  0  0  0
 37 47  1  0  0  0
 37 66  1  0  0  0
 37110  1  0  0  0
 38 43  2  0  0  0
 38 46  1  0  0  0
 38 47  1  0  0  0
 39 64  1  0  0  0
 39 67  2  0  0  0
 40 52  1  0  0  0
 40 53  2  0  0  0
 40 58  1  0  0  0
 41111  1  0  0  0
 41112  1  0  0  0
 41113  1  0  0  0
 41 48  1  0  0  0
 42 43  1  0  0  0
 42 66  1  0  0  0
 42114  1  0  0  0
 42115  1  0  0  0
 43 44  1  0  0  0
 44116  1  0  0  0
 45 46  2  0  0  0
 45117  1  0  0  0
 46118  1  0  0  0
 47119  1  0  0  0
 47120  1  0  0  0
 48 56  1  0  0  0
 48 65  1  0  0  0
 48121  1  0  0  0
 49 50  1  0  0  0
 49 53  1  0  0  0
 49 64  1  0  0  0
 49122  1  0  0  0
 50 51  1  0  0  0
 50123  1  0  0  0
 50124  1  0  0  0
 51 52  1  0  0  0
 51125  1  0  0  0
 51126  1  0  0  0
 52127  1  0  0  0
 52128  1  0  0  0
 53 54  1  0  0  0
 54 55  2  0  0  0
 54129  1  0  0  0
 55 57  1  0  0  0
 55130  1  0  0  0
 56 69  2  0  0  0
 57 58  2  0  0  0
 57131  1  0  0  0
 58132  1  0  0  0
 59 60  1  0  0  0
 59 61  1  0  0  0
 59 62  1  0  0  0
 60133  1  0  0  0
 60134  1  0  0  0
 60135  1  0  0  0
 61136  1  0  0  0
 61137  1  0  0  0
 61138  1  0  0  0
 62139  1  0  0  0
 62140  1  0  0  0
 62141  1  0  0  0
 63 65  1  0  0  0
 63142  1  0  0  0
 63143  1  0  0  0
 63144  1  0  0  0
 64145  1  0  0  0
 65146  1  0  0  0
 68 79  1  0  0  0
 71 72  2  0  0  0
 71 74  1  0  0  0
 71 80  1  0  0  0
 72 81  1  0  0  0
 72 87  1  0  0  0
 73 80  2  0  0  0
 73 82  1  0  0  0
 73 87  1  0  0  0
 74 83  1  0  0  0
 74 84  2  0  0  0
 75 77  1  0  0  0
 75 81  1  0  0  0
 75 85  2  0  0  0
 76 79  1  0  0  0
 76 82  1  0  0  0
 76 86  2  0  0  0
 77147  1  0  0  0
 77148  1  0  0  0
 77149  1  0  0  0
 78150  1  0  0  0
 78151  1  0  0  0
 78152  1  0  0  0
 78 79  1  0  0  0
 79153  1  0  0  0
 81154  1  0  0  0
 82155  1  0  0  0
 83156  1  0  0  0
M  ISO  4   1 100  68 101  79 101  83 100
M  END
> <chiral flag>
0

> <version>
0

> <s_m_source_file>
/data/baiqing/PycharmProjects/Reinvent-master-3.2/result/LINK_invent/BTK/process_docking_weight1_custom_product_contain_oxygen_bond_distance_aromatic_linkinvent_7_9_3/rearranged_h_0180.sdf

> <i_m_source_file_index>
80

> <r_mmod_Potential_Energy-OPLS-2005>
174.344680786133

> <r_mmod_Stretch_Energy-OPLS-2005>
158.113296508789

> <r_mmod_Bend_Energy-OPLS-2005>
194.358047485352

> <r_mmod_Torsional_Energy-OPLS-2005>
360.207794189453

> <r_mmod_Improper_Torsional_Energy-OPLS-2005>
14.343846321106

> <r_mmod_Van_der_Waal_Energy-OPLS-2005>
113.879737854004

> <r_mmod_Electrostatic_Energy-OPLS-2005>
-499.182769775391

> <r_mmod_Solvation_Energy-OPLS-2005>
-294.283111572266

> <b_mmod_Minimization_Converged-OPLS-2005>
0

> <r_mmod_RMS_Derivative-OPLS-2005>
3.1496889591217

$$$$
80
                    3D
 Structure written by MMmdl.
160168  0  0  1  0            999 V2000
  -30.5242  -14.8020   20.5593 C   0  0  0  0  0  0
  -30.4525  -12.5181   19.4814 C   0  0  0  0  0  0
  -29.5203  -12.5450   18.2438 C   0  0  0  0  0  0
  -28.0479  -12.3530   18.6555 C   0  0  0  0  0  0
  -27.6470  -13.2225   19.8759 C   0  0  2  0  0  0
  -28.6856  -13.0940   21.0101 C   0  0  0  0  0  0
  -25.2453  -13.8079   20.5591 C   0  0  0  0  0  0
  -24.1783  -13.0314   20.9179 C   0  0  0  0  0  0
  -24.6383  -11.6813   20.8733 C   0  0  0  0  0  0
  -23.9045  -10.4218   21.0405 C   0  0  0  0  0  0
  -24.3604   -9.4149   21.9178 C   0  0  0  0  0  0
  -23.6286   -8.2183   22.0739 C   0  0  0  0  0  0
  -22.4281   -8.0231   21.3556 C   0  0  0  0  0  0
  -21.9916   -9.0178   20.4658 C   0  0  0  0  0  0
  -22.7207  -10.2050   20.3063 C   0  0  0  0  0  0
  -21.6845   -6.0700   22.5295 C   0  0  0  0  0  0
  -21.4004   -6.5625   23.8210 C   0  0  0  0  0  0
  -21.3662   -5.6798   24.9198 C   0  0  0  0  0  0
  -21.6043   -4.3062   24.7272 C   0  0  0  0  0  0
  -21.8827   -3.8123   23.4396 C   0  0  0  0  0  0
  -21.9195   -4.6914   22.3437 C   0  0  0  0  0  0
  -22.7814  -13.5117   21.1866 C   0  0  0  0  0  0
  -22.1663   -4.2103   21.1009 F   0  0  0  0  0  0
  -21.5645   -3.4545   25.7793 F   0  0  0  0  0  0
  -29.9797  -13.5287   20.4686 N   0  0  0  0  0  0
  -26.2941  -12.9305   20.3372 N   0  0  0  0  0  0
  -25.9354  -11.6447   20.5811 N   0  0  0  0  0  0
  -22.0526  -12.8130   22.0466 N   0  0  0  0  0  0
  -25.3945  -15.1734   20.3741 N   0  0  0  0  0  0
  -31.6423  -15.0045   20.0707 O   0  0  0  0  0  0
  -21.6652   -6.8834   21.4246 O   0  0  0  0  0  0
  -22.3481  -14.5409   20.6682 O   0  0  0  0  0  0
  -24.6297  -31.8480   23.1936 C   0  0  0  0  0  0
  -25.9107  -32.4698   23.8328 C   0  0  1  0  0  0
  -27.2567  -27.2375   20.1633 C   0  0  0  0  0  0
  -25.5921  -33.8523   24.2244 N   0  0  0  0  0  0
  -23.4332  -30.4603   21.5341 C   0  0  2  0  0  0
  -24.8955  -28.8860   20.1349 C   0  0  0  0  0  0
  -22.7464  -29.4543   22.4877 C   0  0  0  0  0  0
  -18.0270  -28.1362   22.8417 C   0  0  0  0  0  0
  -24.1485  -36.7284   23.2646 C   0  0  0  0  0  0
  -25.9760  -30.7505   21.3838 C   0  0  0  0  0  0
  -26.0609  -29.3640   20.7425 C   0  0  0  0  0  0
  -27.2417  -28.5533   20.7434 C   0  0  0  0  0  0
  -26.0631  -26.8091   19.5480 C   0  0  0  0  0  0
  -24.9005  -27.6159   19.5303 C   0  0  0  0  0  0
  -23.6654  -29.7787   20.1571 C   0  0  0  0  0  0
  -25.4123  -36.3060   24.0337 C   0  0  1  0  0  0
  -20.5855  -28.3690   23.1235 C   0  0  2  0  0  0
  -20.6786  -26.9396   22.5404 C   0  0  0  0  0  0
  -19.5792  -26.6336   21.5182 C   0  0  0  0  0  0
  -18.1938  -26.7888   22.1570 C   0  0  0  0  0  0
  -19.1509  -28.8830   23.2799 C   0  0  0  0  0  0
  -18.9474  -30.1405   23.8851 C   0  0  0  0  0  0
  -17.6484  -30.6578   24.0522 C   0  0  0  0  0  0
  -25.9054  -34.9411   23.5095 C   0  0  0  0  0  0
  -16.5379  -29.9091   23.6315 C   0  0  0  0  0  0
  -16.7269  -28.6509   23.0331 C   0  0  0  0  0  0
  -26.4510  -31.6546   25.0728 C   0  0  0  0  0  0
  -25.3770  -31.3721   26.1475 C   0  0  0  0  0  0
  -27.0377  -30.2972   24.6234 C   0  0  0  0  0  0
  -27.6040  -32.4324   25.7524 C   0  0  0  0  0  0
  -27.5588  -37.1771   24.8461 C   0  0  0  0  0  0
  -21.4185  -29.3023   22.3617 N   0  0  0  0  0  0
  -26.4289  -37.3780   23.9429 N   0  0  0  0  0  0
  -24.6965  -31.0388   22.0938 N   0  0  0  0  0  0
  -23.4117  -28.8059   23.2988 O   0  0  0  0  0  0
  -28.4222  -26.4447   20.0280 O   0  0  0  0  0  0
  -26.5616  -34.8880   22.4646 O   0  0  0  0  0  0
  -23.5432  -32.1327   23.7171 O   0  0  0  0  0  0
  -29.1698  -19.6322   20.8926 C   0  0  0  0  0  0
  -27.8359  -19.2511   20.8726 C   0  0  0  0  0  0
  -29.3441  -17.1956   20.8979 C   0  0  0  0  0  0
  -28.7281  -25.4489   22.2424 C   0  0  0  0  0  0
  -29.4483  -21.6160   22.5226 C   0  0  0  0  0  0
  -31.2231  -21.1568   20.8766 C   0  0  0  0  0  0
  -28.1923  -23.6717   20.4028 C   0  0  0  0  0  0
  -29.0837  -22.3277   20.0546 C   0  0  0  0  0  0
  -28.7657  -25.1573   20.7376 C   0  0  1  0  0  0
  -29.6761  -21.1566   21.0639 C   0  0  0  0  0  0
  -30.0006  -18.4177   20.9649 N   0  0  0  0  0  0
  -26.6959  -20.0529   20.9645 N   0  0  0  0  0  0
  -29.7920  -15.7943   21.2164 N   0  0  0  0  0  0
  -27.6069  -17.5075   20.8007 S   0  0  0  0  0  0
  -31.4816  -12.7067   19.1720 H   0  0  0  0  0  0
  -30.4567  -11.5241   19.9296 H   0  0  0  0  0  0
  -29.8082  -11.7751   17.5259 H   0  0  0  0  0  0
  -29.6332  -13.4997   17.7275 H   0  0  0  0  0  0
  -27.9151  -11.2973   18.8941 H   0  0  0  0  0  0
  -27.3880  -12.5558   17.8111 H   0  0  0  0  0  0
  -27.6612  -14.2580   19.5377 H   0  0  0  0  0  0
  -28.7487  -12.0598   21.3560 H   0  0  0  0  0  0
  -28.3873  -13.6714   21.8848 H   0  0  0  0  0  0
  -25.2761   -9.5604   22.4728 H   0  0  0  0  0  0
  -23.9986   -7.4598   22.7470 H   0  0  0  0  0  0
  -21.0850   -8.8673   19.8979 H   0  0  0  0  0  0
  -22.3671  -10.9571   19.6151 H   0  0  0  0  0  0
  -21.1972   -7.6135   23.9665 H   0  0  0  0  0  0
  -21.1487   -6.0578   25.9091 H   0  0  0  0  0  0
  -22.0598   -2.7577   23.2951 H   0  0  0  0  0  0
  -22.4242  -11.9822   22.4828 H   0  0  0  0  0  0
  -21.1089  -13.1033   22.2649 H   0  0  0  0  0  0
  -24.5959  -15.8008   20.4126 H   0  0  0  0  0  0
  -26.2198  -15.6137   19.9898 H   0  0  0  0  0  0
  -26.7182  -32.5372   23.1070 H   0  0  0  0  0  0
  -25.0142  -33.9732   25.0438 H   0  0  0  0  0  0
  -22.7297  -31.2789   21.3727 H   0  0  0  0  0  0
  -23.3778  -35.9577   23.3278 H   0  0  0  0  0  0
  -24.3604  -36.8945   22.2062 H   0  0  0  0  0  0
  -23.7164  -37.6446   23.6706 H   0  0  0  0  0  0
  -26.1092  -31.4971   20.5999 H   0  0  0  0  0  0
  -26.8525  -30.8139   22.0158 H   0  0  0  0  0  0
  -28.1441  -28.9273   21.2058 H   0  0  0  0  0  0
  -26.0282  -25.8376   19.0707 H   0  0  0  0  0  0
  -24.0058  -27.2390   19.0541 H   0  0  0  0  0  0
  -23.8090  -30.5539   19.4028 H   0  0  0  0  0  0
  -22.7838  -29.2188   19.8386 H   0  0  0  0  0  0
  -25.1270  -36.1946   25.0825 H   0  0  0  0  0  0
  -20.9889  -28.3297   24.1390 H   0  0  0  0  0  0
  -20.5699  -26.2286   23.3613 H   0  0  0  0  0  0
  -21.6665  -26.7443   22.1191 H   0  0  0  0  0  0
  -19.7012  -25.6226   21.1267 H   0  0  0  0  0  0
  -19.6789  -27.3091   20.6652 H   0  0  0  0  0  0
  -17.4208  -26.6563   21.3965 H   0  0  0  0  0  0
  -18.0376  -26.0042   22.8982 H   0  0  0  0  0  0
  -19.7992  -30.7129   24.2267 H   0  0  0  0  0  0
  -17.5123  -31.6282   24.5083 H   0  0  0  0  0  0
  -15.5396  -30.2996   23.7692 H   0  0  0  0  0  0
  -15.8664  -28.0820   22.7110 H   0  0  0  0  0  0
  -24.5894  -30.7108   25.7849 H   0  0  0  0  0  0
  -24.9019  -32.2895   26.4961 H   0  0  0  0  0  0
  -25.8083  -30.8870   27.0239 H   0  0  0  0  0  0
  -26.2960  -29.6692   24.1270 H   0  0  0  0  0  0
  -27.4091  -29.7260   25.4757 H   0  0  0  0  0  0
  -27.8833  -30.4279   23.9475 H   0  0  0  0  0  0
  -27.2604  -33.3611   26.2112 H   0  0  0  0  0  0
  -28.3835  -32.6901   25.0343 H   0  0  0  0  0  0
  -28.0733  -31.8458   26.5437 H   0  0  0  0  0  0
  -28.2505  -38.0143   24.7547 H   0  0  0  0  0  0
  -28.1137  -36.2655   24.6207 H   0  0  0  0  0  0
  -27.2309  -37.1325   25.8856 H   0  0  0  0  0  0
  -20.9370  -29.8742   21.6826 H   0  0  0  0  0  0
  -26.0167  -38.2833   24.1532 H   0  0  0  0  0  0
  -29.0991  -24.6017   22.8156 H   0  0  0  0  0  0
  -27.7144  -25.6618   22.5802 H   0  0  0  0  0  0
  -29.3477  -26.3108   22.4937 H   0  0  0  0  0  0
  -29.7767  -20.8665   23.2456 H   0  0  0  0  0  0
  -28.3977  -21.8176   22.7246 H   0  0  0  0  0  0
  -30.0078  -22.5314   22.7313 H   0  0  0  0  0  0
  -31.7164  -20.5385   21.6273 H   0  0  0  0  0  0
  -31.6480  -22.1578   20.9761 H   0  0  0  0  0  0
  -31.5201  -20.7684   19.9013 H   0  0  0  0  0  0
  -27.4512  -23.4092   21.1574 H   0  0  0  0  0  0
  -27.5825  -23.8305   19.5132 H   0  0  0  0  0  0
  -29.8976  -22.6776   19.4216 H   0  0  0  0  0  0
  -28.4741  -21.7796   19.3334 H   0  0  0  0  0  0
  -29.8272  -25.0647   20.4929 H   0  0  0  0  0  0
  -26.7711  -21.0025   21.3198 H   0  0  0  0  0  0
  -25.8058  -19.6415   21.2362 H   0  0  0  0  0  0
  -29.0875  -15.3308   21.7748 H   0  0  0  0  0  0
  1 25  1  0  0  0
  1 30  2  0  0  0
  1 83  1  0  0  0
  2  3  1  0  0  0
  2 25  1  0  0  0
  2 85  1  0  0  0
  2 86  1  0  0  0
  3  4  1  0  0  0
  3 87  1  0  0  0
  3 88  1  0  0  0
  4  5  1  0  0  0
  4 89  1  0  0  0
  4 90  1  0  0  0
  5  6  1  0  0  0
  5 26  1  0  0  0
  5 91  1  0  0  0
  6 25  1  0  0  0
  6 92  1  0  0  0
  6 93  1  0  0  0
  7  8  2  0  0  0
  7 26  1  0  0  0
  7 29  1  0  0  0
  8  9  1  0  0  0
  8 22  1  0  0  0
  9 10  1  0  0  0
  9 27  2  0  0  0
 10 11  2  0  0  0
 10 15  1  0  0  0
 11 12  1  0  0  0
 11 94  1  0  0  0
 12 13  2  0  0  0
 12 95  1  0  0  0
 13 14  1  0  0  0
 13 31  1  0  0  0
 14 15  2  0  0  0
 14 96  1  0  0  0
 15 97  1  0  0  0
 16 17  2  0  0  0
 16 21  1  0  0  0
 16 31  1  0  0  0
 17 18  1  0  0  0
 17 98  1  0  0  0
 18 19  2  0  0  0
 18 99  1  0  0  0
 19 20  1  0  0  0
 19 24  1  0  0  0
 20 21  2  0  0  0
 20100  1  0  0  0
 21 23  1  0  0  0
 22 28  1  0  0  0
 22 32  2  0  0  0
 26 27  1  0  0  0
 28101  1  0  0  0
 28102  1  0  0  0
 29103  1  0  0  0
 29104  1  0  0  0
 33 34  1  0  0  0
 33 66  1  0  0  0
 33 70  2  0  0  0
 34 36  1  0  0  0
 34 59  1  0  0  0
 34105  1  0  0  0
 35 44  2  0  0  0
 35 45  1  0  0  0
 35 68  1  0  0  0
 36 56  1  0  0  0
 36106  1  0  0  0
 37 39  1  0  0  0
 37 47  1  0  0  0
 37 66  1  0  0  0
 37107  1  0  0  0
 38 43  2  0  0  0
 38 46  1  0  0  0
 38 47  1  0  0  0
 39 64  1  0  0  0
 39 67  2  0  0  0
 40 52  1  0  0  0
 40 53  2  0  0  0
 40 58  1  0  0  0
 41108  1  0  0  0
 41109  1  0  0  0
 41110  1  0  0  0
 41 48  1  0  0  0
 42 43  1  0  0  0
 42 66  1  0  0  0
 42111  1  0  0  0
 42112  1  0  0  0
 43 44  1  0  0  0
 44113  1  0  0  0
 45 46  2  0  0  0
 45114  1  0  0  0
 46115  1  0  0  0
 47116  1  0  0  0
 47117  1  0  0  0
 48 56  1  0  0  0
 48 65  1  0  0  0
 48118  1  0  0  0
 49 50  1  0  0  0
 49 53  1  0  0  0
 49 64  1  0  0  0
 49119  1  0  0  0
 50 51  1  0  0  0
 50120  1  0  0  0
 50121  1  0  0  0
 51 52  1  0  0  0
 51122  1  0  0  0
 51123  1  0  0  0
 52124  1  0  0  0
 52125  1  0  0  0
 53 54  1  0  0  0
 54 55  2  0  0  0
 54126  1  0  0  0
 55 57  1  0  0  0
 55127  1  0  0  0
 56 69  2  0  0  0
 57 58  2  0  0  0
 57128  1  0  0  0
 58129  1  0  0  0
 59 60  1  0  0  0
 59 61  1  0  0  0
 59 62  1  0  0  0
 60130  1  0  0  0
 60131  1  0  0  0
 60132  1  0  0  0
 61133  1  0  0  0
 61134  1  0  0  0
 61135  1  0  0  0
 62136  1  0  0  0
 62137  1  0  0  0
 62138  1  0  0  0
 63 65  1  0  0  0
 63139  1  0  0  0
 63140  1  0  0  0
 63141  1  0  0  0
 64142  1  0  0  0
 65143  1  0  0  0
 68 79  1  0  0  0
 71 72  2  0  0  0
 71 80  1  0  0  0
 71 81  1  0  0  0
 72 82  1  0  0  0
 72 84  1  0  0  0
 73 81  2  0  0  0
 73 83  1  0  0  0
 73 84  1  0  0  0
 74144  1  0  0  0
 74145  1  0  0  0
 74146  1  0  0  0
 74 79  1  0  0  0
 75147  1  0  0  0
 75148  1  0  0  0
 75149  1  0  0  0
 75 80  1  0  0  0
 76 80  1  0  0  0
 76150  1  0  0  0
 76151  1  0  0  0
 76152  1  0  0  0
 77 78  1  0  0  0
 77 79  1  0  0  0
 77153  1  0  0  0
 77154  1  0  0  0
 78 80  1  0  0  0
 78155  1  0  0  0
 78156  1  0  0  0
 79157  1  0  0  0
 82158  1  0  0  0
 82159  1  0  0  0
 83160  1  0  0  0
M  ISO  4   1 100  68 101  79 101  83 100
M  END
> <chiral flag>
0

> <version>
0

> <s_m_source_file>
/data/baiqing/PycharmProjects/Reinvent-master-3.2/result/LINK_invent/BTK/process_docking_weight1_custom_product_contain_oxygen_bond_distance_aromatic_linkinvent_7_9_3/rearranged_h_0180.sdf

> <i_m_source_file_index>
81

> <r_mmod_Potential_Energy-OPLS-2005>
358.332183837891

> <r_mmod_Stretch_Energy-OPLS-2005>
166.150085449219

> <r_mmod_Bend_Energy-OPLS-2005>
271.991729736328

> <r_mmod_Torsional_Energy-OPLS-2005>
291.845367431641

> <r_mmod_Improper_Torsional_Energy-OPLS-2005>
11.9031171798706

> <r_mmod_Van_der_Waal_Energy-OPLS-2005>
102.51131439209

> <r_mmod_Electrostatic_Energy-OPLS-2005>
-368.269165039062

> <r_mmod_Solvation_Energy-OPLS-2005>
-216.668228149414

> <b_mmod_Minimization_Converged-OPLS-2005>
0

> <r_mmod_RMS_Derivative-OPLS-2005>
7.10321187973022

$$$$
81
                    3D
 Structure written by MMmdl.
157165  0  0  1  0            999 V2000
  -30.5859  -15.0036   20.3932 C   0  0  0  0  0  0
  -30.4279  -12.6360   19.4858 C   0  0  0  0  0  0
  -29.5106  -12.5179   18.2492 C   0  0  0  0  0  0
  -28.0558  -12.2894   18.6914 C   0  0  0  0  0  0
  -27.6193  -13.2557   19.8221 C   0  0  2  0  0  0
  -28.6671  -13.3617   20.9501 C   0  0  0  0  0  0
  -25.2444  -13.8220   20.5743 C   0  0  0  0  0  0
  -24.1770  -13.0445   20.9253 C   0  0  0  0  0  0
  -24.6394  -11.6928   20.8785 C   0  0  0  0  0  0
  -23.9084  -10.4297   21.0432 C   0  0  0  0  0  0
  -24.3631   -9.4207   21.9202 C   0  0  0  0  0  0
  -23.6302   -8.2239   22.0759 C   0  0  0  0  0  0
  -22.4290   -8.0279   21.3541 C   0  0  0  0  0  0
  -21.9935   -9.0255   20.4641 C   0  0  0  0  0  0
  -22.7266  -10.2136   20.3066 C   0  0  0  0  0  0
  -21.6862   -6.0746   22.5276 C   0  0  0  0  0  0
  -21.4009   -6.5647   23.8216 C   0  0  0  0  0  0
  -21.3660   -5.6804   24.9175 C   0  0  0  0  0  0
  -21.6054   -4.3062   24.7230 C   0  0  0  0  0  0
  -21.8811   -3.8156   23.4345 C   0  0  0  0  0  0
  -21.9183   -4.6971   22.3404 C   0  0  0  0  0  0
  -22.7794  -13.5204   21.1904 C   0  0  0  0  0  0
  -22.1660   -4.2157   21.0983 F   0  0  0  0  0  0
  -21.5631   -3.4543   25.7739 F   0  0  0  0  0  0
  -29.9250  -13.7744   20.3148 N   0  0  0  0  0  0
  -26.2861  -12.9473   20.3244 N   0  0  0  0  0  0
  -25.9329  -11.6597   20.5767 N   0  0  0  0  0  0
  -22.0435  -12.8188   22.0447 N   0  0  0  0  0  0
  -25.4101  -15.1952   20.4165 N   0  0  0  0  0  0
  -31.8078  -14.9565   20.2073 O   0  0  0  0  0  0
  -21.6644   -6.8882   21.4240 O   0  0  0  0  0  0
  -22.3487  -14.5512   20.6741 O   0  0  0  0  0  0
  -24.6451  -31.8391   23.1872 C   0  0  0  0  0  0
  -25.9217  -32.4673   23.8246 C   0  0  1  0  0  0
  -27.2124  -27.1256   20.1507 C   0  0  0  0  0  0
  -25.5964  -33.8480   24.2181 N   0  0  0  0  0  0
  -23.4495  -30.4573   21.5318 C   0  0  2  0  0  0
  -24.8962  -28.8788   20.1129 C   0  0  0  0  0  0
  -22.7592  -29.4483   22.4848 C   0  0  0  0  0  0
  -18.0285  -28.1377   22.8442 C   0  0  0  0  0  0
  -24.1476  -36.7247   23.2644 C   0  0  0  0  0  0
  -26.0047  -30.7122   21.3841 C   0  0  0  0  0  0
  -26.0756  -29.3200   20.7296 C   0  0  0  0  0  0
  -27.2384  -28.4590   20.7258 C   0  0  0  0  0  0
  -26.0060  -26.7750   19.5140 C   0  0  0  0  0  0
  -24.8734  -27.6217   19.4891 C   0  0  0  0  0  0
  -23.6767  -29.7874   20.1515 C   0  0  0  0  0  0
  -25.4104  -36.3007   24.0309 C   0  0  1  0  0  0
  -20.5900  -28.3686   23.1219 C   0  0  2  0  0  0
  -20.6756  -26.9384   22.5385 C   0  0  0  0  0  0
  -19.5752  -26.6352   21.5178 C   0  0  0  0  0  0
  -18.1929  -26.7908   22.1580 C   0  0  0  0  0  0
  -19.1549  -28.8851   23.2816 C   0  0  0  0  0  0
  -18.9471  -30.1441   23.8845 C   0  0  0  0  0  0
  -17.6484  -30.6571   24.0535 C   0  0  0  0  0  0
  -25.9064  -34.9387   23.5056 C   0  0  0  0  0  0
  -16.5359  -29.9056   23.6345 C   0  0  0  0  0  0
  -16.7268  -28.6488   23.0348 C   0  0  0  0  0  0
  -26.4540  -31.6569   25.0716 C   0  0  0  0  0  0
  -25.3711  -31.3736   26.1420 C   0  0  0  0  0  0
  -27.0444  -30.2963   24.6286 C   0  0  0  0  0  0
  -27.6070  -32.4348   25.7487 C   0  0  0  0  0  0
  -27.5563  -37.1747   24.8471 C   0  0  0  0  0  0
  -21.4275  -29.3017   22.3614 N   0  0  0  0  0  0
  -26.4256  -37.3727   23.9422 N   0  0  0  0  0  0
  -24.7186  -31.0261   22.0898 N   0  0  0  0  0  0
  -23.4235  -28.8002   23.2982 O   0  0  0  0  0  0
  -28.2786  -26.1581   20.1378 O   0  0  0  0  0  0
  -26.5648  -34.8891   22.4622 O   0  0  0  0  0  0
  -23.5574  -32.1266   23.7085 O   0  0  0  0  0  0
  -32.3656  -18.6356   21.7052 C   0  0  0  0  0  0
  -31.4221  -19.5930   21.5065 C   0  0  0  0  0  0
  -30.5835  -17.6617   20.7601 C   0  0  0  0  0  0
  -29.7560  -23.6083   18.8848 C   0  0  0  0  0  0
  -29.0181  -21.8233   20.6826 C   0  0  0  0  0  0
  -29.2636  -20.1776   20.1791 C   0  0  0  0  0  0
  -28.0852  -24.6718   20.5669 C   0  0  0  0  0  0
  -28.6007  -23.2302   19.8243 C   0  0  1  0  0  0
  -30.3191  -19.0993   20.8023 N   0  0  0  0  0  0
  -31.8378  -17.5018   21.2044 N   0  3  0  0  0  0
  -31.6247  -20.8947   21.9637 N   0  0  0  0  0  0
  -29.9419  -16.2945   20.4372 N   0  0  0  0  0  0
  -27.5146  -22.8288   19.0099 O   0  0  0  0  0  0
  -31.4592  -12.7856   19.1606 H   0  0  0  0  0  0
  -30.4271  -11.7083   20.0612 H   0  0  0  0  0  0
  -29.8417  -11.6999   17.6060 H   0  0  0  0  0  0
  -29.5746  -13.4281   17.6525 H   0  0  0  0  0  0
  -27.9893  -11.2610   19.0491 H   0  0  0  0  0  0
  -27.3782  -12.3624   17.8400 H   0  0  0  0  0  0
  -27.5583  -14.2365   19.3503 H   0  0  0  0  0  0
  -28.7804  -12.4169   21.4848 H   0  0  0  0  0  0
  -28.3608  -14.1068   21.6861 H   0  0  0  0  0  0
  -25.2766   -9.5688   22.4796 H   0  0  0  0  0  0
  -24.0004   -7.4633   22.7487 H   0  0  0  0  0  0
  -21.0867   -8.8782   19.8941 H   0  0  0  0  0  0
  -22.3726  -10.9680   19.6182 H   0  0  0  0  0  0
  -21.2002   -7.6157   23.9721 H   0  0  0  0  0  0
  -21.1496   -6.0536   25.9084 H   0  0  0  0  0  0
  -22.0586   -2.7613   23.2851 H   0  0  0  0  0  0
  -22.4057  -11.9843   22.4819 H   0  0  0  0  0  0
  -21.1045  -13.1197   22.2635 H   0  0  0  0  0  0
  -24.6343  -15.8418   20.5155 H   0  0  0  0  0  0
  -26.2554  -15.6390   20.0843 H   0  0  0  0  0  0
  -26.7287  -32.5250   23.0980 H   0  0  0  0  0  0
  -25.0136  -33.9585   25.0350 H   0  0  0  0  0  0
  -22.7531  -31.2826   21.3801 H   0  0  0  0  0  0
  -23.3736  -35.9591   23.3286 H   0  0  0  0  0  0
  -24.3570  -36.8922   22.2079 H   0  0  0  0  0  0
  -23.7255  -37.6423   23.6718 H   0  0  0  0  0  0
  -26.1583  -31.4646   20.6095 H   0  0  0  0  0  0
  -26.8761  -30.7673   22.0242 H   0  0  0  0  0  0
  -28.1433  -28.7924   21.2138 H   0  0  0  0  0  0
  -25.9192  -25.8102   19.0352 H   0  0  0  0  0  0
  -23.9721  -27.2799   18.9967 H   0  0  0  0  0  0
  -23.8215  -30.5647   19.4008 H   0  0  0  0  0  0
  -22.7904  -29.2376   19.8270 H   0  0  0  0  0  0
  -25.1287  -36.1827   25.0795 H   0  0  0  0  0  0
  -20.9958  -28.3260   24.1346 H   0  0  0  0  0  0
  -20.5642  -26.2282   23.3592 H   0  0  0  0  0  0
  -21.6627  -26.7371   22.1199 H   0  0  0  0  0  0
  -19.6926  -25.6262   21.1207 H   0  0  0  0  0  0
  -19.6710  -27.3155   20.6707 H   0  0  0  0  0  0
  -17.4192  -26.6626   21.3968 H   0  0  0  0  0  0
  -18.0321  -26.0058   22.8991 H   0  0  0  0  0  0
  -19.7968  -30.7226   24.2196 H   0  0  0  0  0  0
  -17.5054  -31.6255   24.5126 H   0  0  0  0  0  0
  -15.5365  -30.2952   23.7711 H   0  0  0  0  0  0
  -15.8658  -28.0798   22.7098 H   0  0  0  0  0  0
  -24.5922  -30.7050   25.7733 H   0  0  0  0  0  0
  -24.8851  -32.2909   26.4741 H   0  0  0  0  0  0
  -25.7990  -30.8990   27.0262 H   0  0  0  0  0  0
  -26.3066  -29.6629   24.1335 H   0  0  0  0  0  0
  -27.4139  -29.7313   25.4856 H   0  0  0  0  0  0
  -27.8935  -30.4231   23.9562 H   0  0  0  0  0  0
  -27.2696  -33.3730   26.1887 H   0  0  0  0  0  0
  -28.3943  -32.6757   25.0339 H   0  0  0  0  0  0
  -28.0644  -31.8577   26.5527 H   0  0  0  0  0  0
  -28.2534  -38.0089   24.7535 H   0  0  0  0  0  0
  -28.1091  -36.2604   24.6254 H   0  0  0  0  0  0
  -27.2279  -37.1347   25.8874 H   0  0  0  0  0  0
  -20.9495  -29.8825   21.6867 H   0  0  0  0  0  0
  -26.0117  -38.2761   24.1506 H   0  0  0  0  0  0
  -33.3478  -18.6694   22.1520 H   0  0  0  0  0  0
  -30.6353  -23.9065   19.4571 H   0  0  0  0  0  0
  -29.4967  -24.4571   18.2496 H   0  0  0  0  0  0
  -30.0435  -22.7848   18.2320 H   0  0  0  0  0  0
  -29.9031  -22.2082   21.1607 H   0  0  0  0  0  0
  -28.3041  -21.7560   21.5031 H   0  0  0  0  0  0
  -29.5291  -20.2207   19.1226 H   0  0  0  0  0  0
  -28.2937  -19.6825   20.1962 H   0  0  0  0  0  0
  -28.5920  -24.6615   21.5319 H   0  0  0  0  0  0
  -27.0370  -24.5403   20.8399 H   0  0  0  0  0  0
  -32.3361  -16.6194   21.1444 H   0  0  0  0  0  0
  -32.2761  -21.0413   22.7278 H   0  0  0  0  0  0
  -30.8184  -21.5040   22.0193 H   0  0  0  0  0  0
  -28.9353  -16.2978   20.3796 H   0  0  0  0  0  0
  -27.2522  -23.5780   18.4847 H   0  0  0  0  0  0
  1 25  1  0  0  0
  1 30  2  0  0  0
  1 82  1  0  0  0
  2  3  1  0  0  0
  2 25  1  0  0  0
  2 84  1  0  0  0
  2 85  1  0  0  0
  3  4  1  0  0  0
  3 86  1  0  0  0
  3 87  1  0  0  0
  4  5  1  0  0  0
  4 88  1  0  0  0
  4 89  1  0  0  0
  5  6  1  0  0  0
  5 26  1  0  0  0
  5 90  1  0  0  0
  6 25  1  0  0  0
  6 91  1  0  0  0
  6 92  1  0  0  0
  7  8  2  0  0  0
  7 26  1  0  0  0
  7 29  1  0  0  0
  8  9  1  0  0  0
  8 22  1  0  0  0
  9 10  1  0  0  0
  9 27  2  0  0  0
 10 11  2  0  0  0
 10 15  1  0  0  0
 11 12  1  0  0  0
 11 93  1  0  0  0
 12 13  2  0  0  0
 12 94  1  0  0  0
 13 14  1  0  0  0
 13 31  1  0  0  0
 14 15  2  0  0  0
 14 95  1  0  0  0
 15 96  1  0  0  0
 16 17  2  0  0  0
 16 21  1  0  0  0
 16 31  1  0  0  0
 17 18  1  0  0  0
 17 97  1  0  0  0
 18 19  2  0  0  0
 18 98  1  0  0  0
 19 20  1  0  0  0
 19 24  1  0  0  0
 20 21  2  0  0  0
 20 99  1  0  0  0
 21 23  1  0  0  0
 22 28  1  0  0  0
 22 32  2  0  0  0
 26 27  1  0  0  0
 28100  1  0  0  0
 28101  1  0  0  0
 29102  1  0  0  0
 29103  1  0  0  0
 33 34  1  0  0  0
 33 66  1  0  0  0
 33 70  2  0  0  0
 34 36  1  0  0  0
 34 59  1  0  0  0
 34104  1  0  0  0
 35 44  2  0  0  0
 35 45  1  0  0  0
 35 68  1  0  0  0
 36 56  1  0  0  0
 36105  1  0  0  0
 37 39  1  0  0  0
 37 47  1  0  0  0
 37 66  1  0  0  0
 37106  1  0  0  0
 38 43  2  0  0  0
 38 46  1  0  0  0
 38 47  1  0  0  0
 39 64  1  0  0  0
 39 67  2  0  0  0
 40 52  1  0  0  0
 40 53  2  0  0  0
 40 58  1  0  0  0
 41107  1  0  0  0
 41108  1  0  0  0
 41109  1  0  0  0
 41 48  1  0  0  0
 42 43  1  0  0  0
 42 66  1  0  0  0
 42110  1  0  0  0
 42111  1  0  0  0
 43 44  1  0  0  0
 44112  1  0  0  0
 45 46  2  0  0  0
 45113  1  0  0  0
 46114  1  0  0  0
 47115  1  0  0  0
 47116  1  0  0  0
 48 56  1  0  0  0
 48 65  1  0  0  0
 48117  1  0  0  0
 49 50  1  0  0  0
 49 53  1  0  0  0
 49 64  1  0  0  0
 49118  1  0  0  0
 50 51  1  0  0  0
 50119  1  0  0  0
 50120  1  0  0  0
 51 52  1  0  0  0
 51121  1  0  0  0
 51122  1  0  0  0
 52123  1  0  0  0
 52124  1  0  0  0
 53 54  1  0  0  0
 54 55  2  0  0  0
 54125  1  0  0  0
 55 57  1  0  0  0
 55126  1  0  0  0
 56 69  2  0  0  0
 57 58  2  0  0  0
 57127  1  0  0  0
 58128  1  0  0  0
 59 60  1  0  0  0
 59 61  1  0  0  0
 59 62  1  0  0  0
 60129  1  0  0  0
 60130  1  0  0  0
 60131  1  0  0  0
 61132  1  0  0  0
 61133  1  0  0  0
 61134  1  0  0  0
 62135  1  0  0  0
 62136  1  0  0  0
 62137  1  0  0  0
 63 65  1  0  0  0
 63138  1  0  0  0
 63139  1  0  0  0
 63140  1  0  0  0
 64141  1  0  0  0
 65142  1  0  0  0
 68 77  1  0  0  0
 71 72  2  0  0  0
 71 80  1  0  0  0
 71143  1  0  0  0
 72 79  1  0  0  0
 72 81  1  0  0  0
 73 79  1  0  0  0
 73 80  2  0  0  0
 73 82  1  0  0  0
 74144  1  0  0  0
 74145  1  0  0  0
 74146  1  0  0  0
 74 78  1  0  0  0
 75 76  1  0  0  0
 75 78  1  0  0  0
 75147  1  0  0  0
 75148  1  0  0  0
 76 79  1  0  0  0
 76149  1  0  0  0
 76150  1  0  0  0
 77 78  1  0  0  0
 77151  1  0  0  0
 77152  1  0  0  0
 78 83  1  0  0  0
 80153  1  0  0  0
 81154  1  0  0  0
 81155  1  0  0  0
 82156  1  0  0  0
 83157  1  0  0  0
M  CHG  1  80   1
M  ISO  4   1 100  68 101  77 101  82 100
M  END
> <chiral flag>
0

> <version>
0

> <s_m_source_file>
/data/baiqing/PycharmProjects/Reinvent-master-3.2/result/LINK_invent/BTK/process_docking_weight1_custom_product_contain_oxygen_bond_distance_aromatic_linkinvent_7_9_3/rearranged_h_0180.sdf

> <i_m_source_file_index>
82

> <r_mmod_Potential_Energy-OPLS-2005>
624.45654296875

> <r_mmod_Stretch_Energy-OPLS-2005>
337.554656982422

> <r_mmod_Bend_Energy-OPLS-2005>
380.501953125

> <r_mmod_Torsional_Energy-OPLS-2005>
275.5478515625

> <r_mmod_Improper_Torsional_Energy-OPLS-2005>
9.23761367797852

> <r_mmod_Van_der_Waal_Energy-OPLS-2005>
133.615173339844

> <r_mmod_Electrostatic_Energy-OPLS-2005>
-308.015563964844

> <r_mmod_Solvation_Energy-OPLS-2005>
-422.356414794922

> <b_mmod_Minimization_Converged-OPLS-2005>
0

> <r_mmod_RMS_Derivative-OPLS-2005>
3.6137478351593

$$$$
82
                    3D
 Structure written by MMmdl.
172180  0  0  1  0            999 V2000
  -30.6952  -14.4764   20.5338 C   0  0  0  0  0  0
  -30.4426  -12.3026   19.4002 C   0  0  0  0  0  0
  -29.5018  -12.5117   18.1936 C   0  0  0  0  0  0
  -28.0221  -12.3813   18.6095 C   0  0  0  0  0  0
  -27.6754  -13.2019   19.8812 C   0  0  2  0  0  0
  -28.7293  -12.9538   20.9849 C   0  0  0  0  0  0
  -25.2639  -13.8130   20.5615 C   0  0  0  0  0  0
  -24.1879  -13.0429   20.9129 C   0  0  0  0  0  0
  -24.6443  -11.6893   20.8722 C   0  0  0  0  0  0
  -23.9078  -10.4282   21.0391 C   0  0  0  0  0  0
  -24.3617   -9.4191   21.9173 C   0  0  0  0  0  0
  -23.6274   -8.2255   22.0765 C   0  0  0  0  0  0
  -22.4261   -8.0294   21.3547 C   0  0  0  0  0  0
  -21.9872   -9.0279   20.4665 C   0  0  0  0  0  0
  -22.7246  -10.2149   20.3047 C   0  0  0  0  0  0
  -21.6851   -6.0710   22.5256 C   0  0  0  0  0  0
  -21.4028   -6.5617   23.8200 C   0  0  0  0  0  0
  -21.3661   -5.6771   24.9163 C   0  0  0  0  0  0
  -21.6042   -4.3035   24.7208 C   0  0  0  0  0  0
  -21.8828   -3.8124   23.4345 C   0  0  0  0  0  0
  -21.9206   -4.6937   22.3389 C   0  0  0  0  0  0
  -22.7893  -13.5257   21.1818 C   0  0  0  0  0  0
  -22.1673   -4.2112   21.0966 F   0  0  0  0  0  0
  -21.5626   -3.4529   25.7739 F   0  0  0  0  0  0
  -30.0596  -13.2744   20.4319 N   0  0  0  0  0  0
  -26.3123  -12.9303   20.3422 N   0  0  0  0  0  0
  -25.9393  -11.6474   20.5795 N   0  0  0  0  0  0
  -22.0504  -12.8328   22.0403 N   0  0  0  0  0  0
  -25.4382  -15.1810   20.3918 N   0  0  0  0  0  0
  -31.8067  -14.6968   20.0462 O   0  0  0  0  0  0
  -21.6645   -6.8885   21.4235 O   0  0  0  0  0  0
  -22.3593  -14.5539   20.6641 O   0  0  0  0  0  0
  -24.6169  -31.8644   23.2097 C   0  0  0  0  0  0
  -25.9064  -32.4791   23.8382 C   0  0  1  0  0  0
  -27.2314  -27.4061   20.0803 C   0  0  0  0  0  0
  -25.5910  -33.8586   24.2313 N   0  0  0  0  0  0
  -23.4040  -30.4870   21.5533 C   0  0  2  0  0  0
  -24.8485  -28.9524   20.1134 C   0  0  0  0  0  0
  -22.7409  -29.4621   22.4996 C   0  0  0  0  0  0
  -18.0278  -28.1388   22.8489 C   0  0  0  0  0  0
  -24.1480  -36.7289   23.2642 C   0  0  0  0  0  0
  -25.9372  -30.8194   21.3683 C   0  0  0  0  0  0
  -26.0121  -29.4526   20.7111 C   0  0  0  0  0  0
  -27.2030  -28.6856   20.6946 C   0  0  0  0  0  0
  -26.0405  -26.9269   19.4846 C   0  0  0  0  0  0
  -24.8593  -27.6886   19.5011 C   0  0  0  0  0  0
  -23.6120  -29.8212   20.1674 C   0  0  0  0  0  0
  -25.4093  -36.3073   24.0332 C   0  0  1  0  0  0
  -20.5868  -28.3654   23.1340 C   0  0  2  0  0  0
  -20.6780  -26.9389   22.5439 C   0  0  0  0  0  0
  -19.5763  -26.6380   21.5230 C   0  0  0  0  0  0
  -18.1931  -26.7937   22.1623 C   0  0  0  0  0  0
  -19.1523  -28.8840   23.2908 C   0  0  0  0  0  0
  -18.9455  -30.1447   23.8917 C   0  0  0  0  0  0
  -17.6453  -30.6583   24.0583 C   0  0  0  0  0  0
  -25.9024  -34.9448   23.5104 C   0  0  0  0  0  0
  -16.5341  -29.9083   23.6324 C   0  0  0  0  0  0
  -16.7268  -28.6502   23.0339 C   0  0  0  0  0  0
  -26.4495  -31.6581   25.0712 C   0  0  0  0  0  0
  -25.3784  -31.3703   26.1485 C   0  0  0  0  0  0
  -27.0311  -30.3014   24.6101 C   0  0  0  0  0  0
  -27.6074  -32.4309   25.7460 C   0  0  0  0  0  0
  -27.5550  -37.1807   24.8458 C   0  0  0  0  0  0
  -21.4141  -29.2983   22.3714 N   0  0  0  0  0  0
  -26.4275  -37.3761   23.9391 N   0  0  0  0  0  0
  -24.6708  -31.0715   22.1006 N   0  0  0  0  0  0
  -23.4161  -28.8179   23.3070 O   0  0  0  0  0  0
  -28.4092  -26.6746   20.0660 O   0  0  0  0  0  0
  -26.5580  -34.8905   22.4668 O   0  0  0  0  0  0
  -23.5370  -32.1418   23.7476 O   0  0  0  0  0  0
  -30.5665  -19.0268   20.0768 C   0  0  0  0  0  0
  -30.6873  -17.6152   20.0938 C   0  0  0  0  0  0
  -29.0144  -18.9145   21.9467 C   0  0  0  0  0  0
  -29.7329  -19.6920   21.0124 C   0  0  0  0  0  0
  -29.9632  -16.8487   21.0390 C   0  0  0  0  0  0
  -29.1061  -17.5013   21.9489 C   0  0  0  0  0  0
  -29.7579  -24.6527   19.7132 C   0  0  0  0  0  0
  -29.7425  -22.0709   20.1723 C   0  0  0  0  0  0
  -31.6060  -23.5046   21.1094 C   0  0  0  0  0  0
  -26.5199  -16.5066   25.9914 C   0  0  0  0  0  0
  -26.9841  -14.7583   24.2530 C   0  0  0  0  0  0
  -25.5427  -16.7342   23.6938 C   0  0  0  0  0  0
  -28.3449  -25.2652   19.7404 C   0  0  0  0  0  0
  -28.0116  -17.0757   24.0664 C   0  0  0  0  0  0
  -30.1064  -23.4905   20.6906 C   0  0  1  0  0  0
  -26.7697  -16.2657   24.4960 C   0  0  0  0  0  0
  -29.6605  -21.1167   21.1250 N   0  0  0  0  0  0
  -29.9700  -15.4224   21.1456 N   0  0  0  0  0  0
  -30.6090  -25.1283   18.9484 O   0  0  0  0  0  0
  -29.5380  -21.8416   18.9772 O   0  0  0  0  0  0
  -28.3423  -16.6765   22.7452 O   0  0  0  0  0  0
  -31.4854  -12.4125   19.0922 H   0  0  0  0  0  0
  -30.3547  -11.2864   19.7887 H   0  0  0  0  0  0
  -29.7328  -11.7943   17.4065 H   0  0  0  0  0  0
  -29.6794  -13.5000   17.7625 H   0  0  0  0  0  0
  -27.8193  -11.3234   18.7827 H   0  0  0  0  0  0
  -27.3769  -12.6805   17.7834 H   0  0  0  0  0  0
  -27.7285  -14.2549   19.6078 H   0  0  0  0  0  0
  -28.7083  -11.9082   21.2942 H   0  0  0  0  0  0
  -28.5008  -13.5191   21.8859 H   0  0  0  0  0  0
  -25.2772   -9.5619   22.4760 H   0  0  0  0  0  0
  -23.9933   -7.4626   22.7482 H   0  0  0  0  0  0
  -21.0792   -8.8847   19.8990 H   0  0  0  0  0  0
  -22.3722  -10.9693   19.6152 H   0  0  0  0  0  0
  -21.2035   -7.6128   23.9693 H   0  0  0  0  0  0
  -21.1461   -6.0501   25.9061 H   0  0  0  0  0  0
  -22.0602   -2.7578   23.2870 H   0  0  0  0  0  0
  -22.4058  -12.0020   22.4883 H   0  0  0  0  0  0
  -21.1133  -13.1447   22.2551 H   0  0  0  0  0  0
  -24.6802  -15.8459   20.5028 H   0  0  0  0  0  0
  -26.3240  -15.6187   20.1771 H   0  0  0  0  0  0
  -26.7121  -32.5502   23.1132 H   0  0  0  0  0  0
  -25.0073  -33.9744   25.0468 H   0  0  0  0  0  0
  -22.6904  -31.3021   21.4157 H   0  0  0  0  0  0
  -23.3706  -35.9662   23.3349 H   0  0  0  0  0  0
  -24.3577  -36.8858   22.2048 H   0  0  0  0  0  0
  -23.7292  -37.6525   23.6644 H   0  0  0  0  0  0
  -26.0585  -31.5865   20.6022 H   0  0  0  0  0  0
  -26.8217  -30.8682   21.9919 H   0  0  0  0  0  0
  -28.1016  -29.0660   21.1600 H   0  0  0  0  0  0
  -25.9967  -25.9710   18.9838 H   0  0  0  0  0  0
  -23.9631  -27.2982   19.0364 H   0  0  0  0  0  0
  -23.7176  -30.5986   19.4106 H   0  0  0  0  0  0
  -22.7348  -29.2439   19.8699 H   0  0  0  0  0  0
  -25.1293  -36.1917   25.0829 H   0  0  0  0  0  0
  -20.9954  -28.3246   24.1472 H   0  0  0  0  0  0
  -20.5723  -26.2240   23.3612 H   0  0  0  0  0  0
  -21.6653  -26.7458   22.1217 H   0  0  0  0  0  0
  -19.6921  -25.6303   21.1225 H   0  0  0  0  0  0
  -19.6717  -27.3213   20.6785 H   0  0  0  0  0  0
  -17.4212  -26.6698   21.4017 H   0  0  0  0  0  0
  -18.0297  -26.0080   22.9008 H   0  0  0  0  0  0
  -19.7925  -30.7272   24.2286 H   0  0  0  0  0  0
  -17.4999  -31.6265   24.5182 H   0  0  0  0  0  0
  -15.5346  -30.2989   23.7644 H   0  0  0  0  0  0
  -15.8668  -28.0829   22.7049 H   0  0  0  0  0  0
  -24.5892  -30.7123   25.7831 H   0  0  0  0  0  0
  -24.9080  -32.2880   26.5030 H   0  0  0  0  0  0
  -25.8160  -30.8782   27.0180 H   0  0  0  0  0  0
  -26.2835  -29.6763   24.1204 H   0  0  0  0  0  0
  -27.4109  -29.7268   25.4556 H   0  0  0  0  0  0
  -27.8667  -30.4300   23.9219 H   0  0  0  0  0  0
  -27.2688  -33.3581   26.2098 H   0  0  0  0  0  0
  -28.3850  -32.6920   25.0267 H   0  0  0  0  0  0
  -28.0785  -31.8414   26.5336 H   0  0  0  0  0  0
  -28.2614  -38.0058   24.7433 H   0  0  0  0  0  0
  -28.1007  -36.2593   24.6364 H   0  0  0  0  0  0
  -27.2277  -37.1550   25.8870 H   0  0  0  0  0  0
  -20.9296  -29.8652   21.6894 H   0  0  0  0  0  0
  -26.0141  -38.2828   24.1408 H   0  0  0  0  0  0
  -31.1347  -19.5938   19.3540 H   0  0  0  0  0  0
  -31.3263  -17.1361   19.3653 H   0  0  0  0  0  0
  -28.3586  -19.4282   22.6319 H   0  0  0  0  0  0
  -31.7363  -24.0149   22.0628 H   0  0  0  0  0  0
  -32.2578  -23.9991   20.3892 H   0  0  0  0  0  0
  -32.0166  -22.5011   21.2388 H   0  0  0  0  0  0
  -25.6452  -15.9614   26.3450 H   0  0  0  0  0  0
  -26.3562  -17.5651   26.1978 H   0  0  0  0  0  0
  -27.3745  -16.1840   26.5881 H   0  0  0  0  0  0
  -26.1754  -14.1669   24.6814 H   0  0  0  0  0  0
  -27.9203  -14.4081   24.6877 H   0  0  0  0  0  0
  -27.0070  -14.5266   23.1887 H   0  0  0  0  0  0
  -24.6655  -16.1234   23.9091 H   0  0  0  0  0  0
  -25.7267  -16.6745   22.6222 H   0  0  0  0  0  0
  -25.2933  -17.7716   23.9147 H   0  0  0  0  0  0
  -27.7077  -24.7218   20.4392 H   0  0  0  0  0  0
  -27.9297  -25.1330   18.7403 H   0  0  0  0  0  0
  -28.8655  -16.8488   24.7085 H   0  0  0  0  0  0
  -27.8009  -18.1379   24.1710 H   0  0  0  0  0  0
  -29.5120  -23.6621   21.5897 H   0  0  0  0  0  0
  -29.6261  -21.4718   22.0724 H   0  0  0  0  0  0
  -29.1937  -15.0575   21.6765 H   0  0  0  0  0  0
  1 25  1  0  0  0
  1 30  2  0  0  0
  1 88  1  0  0  0
  2  3  1  0  0  0
  2 25  1  0  0  0
  2 92  1  0  0  0
  2 93  1  0  0  0
  3  4  1  0  0  0
  3 94  1  0  0  0
  3 95  1  0  0  0
  4  5  1  0  0  0
  4 96  1  0  0  0
  4 97  1  0  0  0
  5  6  1  0  0  0
  5 26  1  0  0  0
  5 98  1  0  0  0
  6 25  1  0  0  0
  6 99  1  0  0  0
  6100  1  0  0  0
  7  8  2  0  0  0
  7 26  1  0  0  0
  7 29  1  0  0  0
  8  9  1  0  0  0
  8 22  1  0  0  0
  9 10  1  0  0  0
  9 27  2  0  0  0
 10 11  2  0  0  0
 10 15  1  0  0  0
 11 12  1  0  0  0
 11101  1  0  0  0
 12 13  2  0  0  0
 12102  1  0  0  0
 13 14  1  0  0  0
 13 31  1  0  0  0
 14 15  2  0  0  0
 14103  1  0  0  0
 15104  1  0  0  0
 16 17  2  0  0  0
 16 21  1  0  0  0
 16 31  1  0  0  0
 17 18  1  0  0  0
 17105  1  0  0  0
 18 19  2  0  0  0
 18106  1  0  0  0
 19 20  1  0  0  0
 19 24  1  0  0  0
 20 21  2  0  0  0
 20107  1  0  0  0
 21 23  1  0  0  0
 22 28  1  0  0  0
 22 32  2  0  0  0
 26 27  1  0  0  0
 28108  1  0  0  0
 28109  1  0  0  0
 29110  1  0  0  0
 29111  1  0  0  0
 33 34  1  0  0  0
 33 66  1  0  0  0
 33 70  2  0  0  0
 34 36  1  0  0  0
 34 59  1  0  0  0
 34112  1  0  0  0
 35 44  2  0  0  0
 35 45  1  0  0  0
 35 68  1  0  0  0
 36 56  1  0  0  0
 36113  1  0  0  0
 37 39  1  0  0  0
 37 47  1  0  0  0
 37 66  1  0  0  0
 37114  1  0  0  0
 38 43  2  0  0  0
 38 46  1  0  0  0
 38 47  1  0  0  0
 39 64  1  0  0  0
 39 67  2  0  0  0
 40 52  1  0  0  0
 40 53  2  0  0  0
 40 58  1  0  0  0
 41115  1  0  0  0
 41116  1  0  0  0
 41117  1  0  0  0
 41 48  1  0  0  0
 42 43  1  0  0  0
 42 66  1  0  0  0
 42118  1  0  0  0
 42119  1  0  0  0
 43 44  1  0  0  0
 44120  1  0  0  0
 45 46  2  0  0  0
 45121  1  0  0  0
 46122  1  0  0  0
 47123  1  0  0  0
 47124  1  0  0  0
 48 56  1  0  0  0
 48 65  1  0  0  0
 48125  1  0  0  0
 49 50  1  0  0  0
 49 53  1  0  0  0
 49 64  1  0  0  0
 49126  1  0  0  0
 50 51  1  0  0  0
 50127  1  0  0  0
 50128  1  0  0  0
 51 52  1  0  0  0
 51129  1  0  0  0
 51130  1  0  0  0
 52131  1  0  0  0
 52132  1  0  0  0
 53 54  1  0  0  0
 54 55  2  0  0  0
 54133  1  0  0  0
 55 57  1  0  0  0
 55134  1  0  0  0
 56 69  2  0  0  0
 57 58  2  0  0  0
 57135  1  0  0  0
 58136  1  0  0  0
 59 60  1  0  0  0
 59 61  1  0  0  0
 59 62  1  0  0  0
 60137  1  0  0  0
 60138  1  0  0  0
 60139  1  0  0  0
 61140  1  0  0  0
 61141  1  0  0  0
 61142  1  0  0  0
 62143  1  0  0  0
 62144  1  0  0  0
 62145  1  0  0  0
 63 65  1  0  0  0
 63146  1  0  0  0
 63147  1  0  0  0
 63148  1  0  0  0
 64149  1  0  0  0
 65150  1  0  0  0
 68 83  1  0  0  0
 71 72  2  0  0  0
 71 74  1  0  0  0
 71151  1  0  0  0
 72 75  1  0  0  0
 72152  1  0  0  0
 73 74  2  0  0  0
 73 76  1  0  0  0
 73153  1  0  0  0
 74 87  1  0  0  0
 75 76  2  0  0  0
 75 88  1  0  0  0
 76 91  1  0  0  0
 77 83  1  0  0  0
 77 85  1  0  0  0
 77 89  2  0  0  0
 78 85  1  0  0  0
 78 87  1  0  0  0
 78 90  2  0  0  0
 79154  1  0  0  0
 79155  1  0  0  0
 79156  1  0  0  0
 79 85  1  0  0  0
 80157  1  0  0  0
 80158  1  0  0  0
 80159  1  0  0  0
 80 86  1  0  0  0
 81 86  1  0  0  0
 81160  1  0  0  0
 81161  1  0  0  0
 81162  1  0  0  0
 82 86  1  0  0  0
 82163  1  0  0  0
 82164  1  0  0  0
 82165  1  0  0  0
 83166  1  0  0  0
 83167  1  0  0  0
 84 86  1  0  0  0
 84 91  1  0  0  0
 84168  1  0  0  0
 84169  1  0  0  0
 85170  1  0  0  0
 87171  1  0  0  0
 88172  1  0  0  0
M  ISO  4   1 100  68 101  83 101  88 100
M  END
> <chiral flag>
0

> <version>
0

> <s_m_source_file>
/data/baiqing/PycharmProjects/Reinvent-master-3.2/result/LINK_invent/BTK/process_docking_weight1_custom_product_contain_oxygen_bond_distance_aromatic_linkinvent_7_9_3/rearranged_h_0180.sdf

> <i_m_source_file_index>
83

> <r_mmod_Potential_Energy-OPLS-2005>
-52.7429084777832

> <r_mmod_Stretch_Energy-OPLS-2005>
44.796142578125

> <r_mmod_Bend_Energy-OPLS-2005>
137.232971191406

> <r_mmod_Torsional_Energy-OPLS-2005>
272.665588378906

> <r_mmod_Improper_Torsional_Energy-OPLS-2005>
3.41559267044067

> <r_mmod_Van_der_Waal_Energy-OPLS-2005>
154.322799682617

> <r_mmod_Electrostatic_Energy-OPLS-2005>
-438.610137939453

> <r_mmod_Solvation_Energy-OPLS-2005>
-241.236541748047

> <b_mmod_Minimization_Converged-OPLS-2005>
0

> <r_mmod_RMS_Derivative-OPLS-2005>
4.5909276008606

$$$$
83
                    3D
 Structure written by MMmdl.
158166  0  0  1  0            999 V2000
  -30.6672  -14.5729   20.5182 C   0  0  0  0  0  0
  -30.4205  -12.3507   19.4511 C   0  0  0  0  0  0
  -29.5016  -12.4987   18.2207 C   0  0  0  0  0  0
  -28.0227  -12.3489   18.6300 C   0  0  0  0  0  0
  -27.6517  -13.2157   19.8633 C   0  0  2  0  0  0
  -28.6937  -13.0647   20.9946 C   0  0  0  0  0  0
  -25.2538  -13.8171   20.5658 C   0  0  0  0  0  0
  -24.1810  -13.0438   20.9175 C   0  0  0  0  0  0
  -24.6381  -11.6910   20.8731 C   0  0  0  0  0  0
  -23.9051  -10.4291   21.0394 C   0  0  0  0  0  0
  -24.3607   -9.4209   21.9173 C   0  0  0  0  0  0
  -23.6284   -8.2244   22.0755 C   0  0  0  0  0  0
  -22.4267   -8.0275   21.3542 C   0  0  0  0  0  0
  -21.9893   -9.0248   20.4645 C   0  0  0  0  0  0
  -22.7219  -10.2128   20.3049 C   0  0  0  0  0  0
  -21.6853   -6.0726   22.5276 C   0  0  0  0  0  0
  -21.4013   -6.5634   23.8207 C   0  0  0  0  0  0
  -21.3667   -5.6790   24.9173 C   0  0  0  0  0  0
  -21.6043   -4.3050   24.7226 C   0  0  0  0  0  0
  -21.8821   -3.8139   23.4347 C   0  0  0  0  0  0
  -21.9190   -4.6953   22.3399 C   0  0  0  0  0  0
  -22.7833  -13.5235   21.1842 C   0  0  0  0  0  0
  -22.1658   -4.2137   21.0976 F   0  0  0  0  0  0
  -21.5636   -3.4539   25.7742 F   0  0  0  0  0  0
  -30.0136  -13.3772   20.4287 N   0  0  0  0  0  0
  -26.2973  -12.9353   20.3311 N   0  0  0  0  0  0
  -25.9306  -11.6512   20.5747 N   0  0  0  0  0  0
  -22.0482  -12.8234   22.0412 N   0  0  0  0  0  0
  -25.4233  -15.1892   20.4059 N   0  0  0  0  0  0
  -31.8276  -14.6909   20.1139 O   0  0  0  0  0  0
  -21.6638   -6.8868   21.4236 O   0  0  0  0  0  0
  -22.3513  -14.5538   20.6686 O   0  0  0  0  0  0
  -24.6206  -31.8631   23.2020 C   0  0  0  0  0  0
  -25.9080  -32.4795   23.8339 C   0  0  1  0  0  0
  -27.2330  -27.3724   20.1048 C   0  0  0  0  0  0
  -25.5916  -33.8589   24.2287 N   0  0  0  0  0  0
  -23.4089  -30.4854   21.5426 C   0  0  2  0  0  0
  -24.8538  -28.9377   20.1106 C   0  0  0  0  0  0
  -22.7432  -29.4653   22.4946 C   0  0  0  0  0  0
  -18.0275  -28.1406   22.8499 C   0  0  0  0  0  0
  -24.1486  -36.7297   23.2630 C   0  0  0  0  0  0
  -25.9416  -30.8110   21.3582 C   0  0  0  0  0  0
  -26.0158  -29.4388   20.7083 C   0  0  0  0  0  0
  -27.2026  -28.6629   20.7008 C   0  0  0  0  0  0
  -26.0468  -26.8949   19.5057 C   0  0  0  0  0  0
  -24.8680  -27.6686   19.5060 C   0  0  0  0  0  0
  -23.6185  -29.8112   20.1583 C   0  0  0  0  0  0
  -25.4112  -36.3097   24.0330 C   0  0  1  0  0  0
  -20.5876  -28.3690   23.1302 C   0  0  2  0  0  0
  -20.6760  -26.9418   22.5425 C   0  0  0  0  0  0
  -19.5741  -26.6406   21.5223 C   0  0  0  0  0  0
  -18.1922  -26.7957   22.1627 C   0  0  0  0  0  0
  -19.1530  -28.8865   23.2901 C   0  0  0  0  0  0
  -18.9459  -30.1469   23.8920 C   0  0  0  0  0  0
  -17.6461  -30.6611   24.0572 C   0  0  0  0  0  0
  -25.9048  -34.9466   23.5117 C   0  0  0  0  0  0
  -16.5355  -29.9115   23.6321 C   0  0  0  0  0  0
  -16.7261  -28.6526   23.0353 C   0  0  0  0  0  0
  -26.4491  -31.6584   25.0683 C   0  0  0  0  0  0
  -25.3753  -31.3699   26.1429 C   0  0  0  0  0  0
  -27.0300  -30.3011   24.6077 C   0  0  0  0  0  0
  -27.6056  -32.4293   25.7461 C   0  0  0  0  0  0
  -27.5584  -37.1807   24.8471 C   0  0  0  0  0  0
  -21.4150  -29.3046   22.3689 N   0  0  0  0  0  0
  -26.4291  -37.3795   23.9418 N   0  0  0  0  0  0
  -24.6760  -31.0695   22.0929 N   0  0  0  0  0  0
  -23.4181  -28.8211   23.3018 O   0  0  0  0  0  0
  -28.4078  -26.6296   20.1718 O   0  0  0  0  0  0
  -26.5611  -34.8939   22.4677 O   0  0  0  0  0  0
  -23.5395  -32.1400   23.7401 O   0  0  0  0  0  0
  -31.6460  -17.3975   21.2376 C   0  0  0  0  0  0
  -30.2902  -17.0566   20.9656 C   0  0  0  0  0  0
  -29.7864  -19.3734   21.0765 C   0  0  0  0  0  0
  -31.1503  -19.6454   21.3599 C   0  0  0  0  0  0
  -28.6263  -22.9132   20.7117 C   0  0  0  0  0  0
  -29.6485  -21.3848   18.9446 C   0  0  0  0  0  0
  -28.6498  -25.4699   18.0085 C   0  0  0  0  0  0
  -27.8182  -24.0645   20.0324 C   0  0  0  0  0  0
  -28.6349  -21.4581   20.1036 C   0  0  1  0  0  0
  -28.6183  -25.3309   19.5393 C   0  0  2  0  0  0
  -32.0764  -18.6658   21.4251 N   0  0  0  0  0  0
  -29.3653  -18.0785   20.8800 N   0  0  0  0  0  0
  -29.9139  -15.6577   20.8673 N   0  0  0  0  0  0
  -28.8315  -20.4212   21.1552 N   0  0  0  0  0  0
  -29.2281  -23.1434   21.7633 O   0  0  0  0  0  0
  -31.5448  -20.9152   21.6171 F   0  0  0  0  0  0
  -31.4682  -12.4388   19.1589 H   0  0  0  0  0  0
  -30.3194  -11.3555   19.8869 H   0  0  0  0  0  0
  -29.7578  -11.7548   17.4654 H   0  0  0  0  0  0
  -29.6598  -13.4732   17.7552 H   0  0  0  0  0  0
  -27.8487  -11.2955   18.8530 H   0  0  0  0  0  0
  -27.3728  -12.5916   17.7888 H   0  0  0  0  0  0
  -27.6725  -14.2525   19.5267 H   0  0  0  0  0  0
  -28.6883  -12.0471   21.3877 H   0  0  0  0  0  0
  -28.4514  -13.7106   21.8394 H   0  0  0  0  0  0
  -25.2759   -9.5693   22.4737 H   0  0  0  0  0  0
  -23.9998   -7.4641   22.7479 H   0  0  0  0  0  0
  -21.0824   -8.8758   19.8953 H   0  0  0  0  0  0
  -22.3669  -10.9661   19.6157 H   0  0  0  0  0  0
  -21.2002   -7.6143   23.9705 H   0  0  0  0  0  0
  -21.1492   -6.0522   25.9074 H   0  0  0  0  0  0
  -22.0589   -2.7600   23.2851 H   0  0  0  0  0  0
  -22.4109  -11.9908   22.4813 H   0  0  0  0  0  0
  -21.1096  -13.1249   22.2620 H   0  0  0  0  0  0
  -24.6513  -15.8388   20.5074 H   0  0  0  0  0  0
  -26.2676  -15.6330   20.0678 H   0  0  0  0  0  0
  -26.7139  -32.5479   23.1088 H   0  0  0  0  0  0
  -25.0065  -33.9722   25.0434 H   0  0  0  0  0  0
  -22.7008  -31.3044   21.4019 H   0  0  0  0  0  0
  -23.3745  -35.9631   23.3294 H   0  0  0  0  0  0
  -24.3567  -36.8902   22.2042 H   0  0  0  0  0  0
  -23.7246  -37.6509   23.6634 H   0  0  0  0  0  0
  -26.0593  -31.5705   20.5838 H   0  0  0  0  0  0
  -26.8279  -30.8687   21.9774 H   0  0  0  0  0  0
  -28.0970  -29.0465   21.1710 H   0  0  0  0  0  0
  -26.0073  -25.9165   19.0524 H   0  0  0  0  0  0
  -23.9722  -27.2748   19.0447 H   0  0  0  0  0  0
  -23.7296  -30.5805   19.3936 H   0  0  0  0  0  0
  -22.7407  -29.2332   19.8618 H   0  0  0  0  0  0
  -25.1292  -36.1945   25.0823 H   0  0  0  0  0  0
  -20.9983  -28.3276   24.1415 H   0  0  0  0  0  0
  -20.5657  -26.2308   23.3623 H   0  0  0  0  0  0
  -21.6637  -26.7456   22.1233 H   0  0  0  0  0  0
  -19.6895  -25.6324   21.1242 H   0  0  0  0  0  0
  -19.6683  -27.3210   20.6751 H   0  0  0  0  0  0
  -17.4195  -26.6699   21.4022 H   0  0  0  0  0  0
  -18.0323  -26.0099   22.9020 H   0  0  0  0  0  0
  -19.7934  -30.7281   24.2299 H   0  0  0  0  0  0
  -17.5017  -31.6288   24.5189 H   0  0  0  0  0  0
  -15.5364  -30.3031   23.7649 H   0  0  0  0  0  0
  -15.8650  -28.0856   22.7075 H   0  0  0  0  0  0
  -24.5970  -30.6984   25.7796 H   0  0  0  0  0  0
  -24.8898  -32.2855   26.4822 H   0  0  0  0  0  0
  -25.8128  -30.8943   27.0217 H   0  0  0  0  0  0
  -26.2838  -29.6781   24.1138 H   0  0  0  0  0  0
  -27.4058  -29.7247   25.4543 H   0  0  0  0  0  0
  -27.8689  -30.4311   23.9227 H   0  0  0  0  0  0
  -27.2686  -33.3604   26.2036 H   0  0  0  0  0  0
  -28.3893  -32.6825   25.0306 H   0  0  0  0  0  0
  -28.0689  -31.8406   26.5390 H   0  0  0  0  0  0
  -28.2630  -38.0083   24.7521 H   0  0  0  0  0  0
  -28.1057  -36.2620   24.6299 H   0  0  0  0  0  0
  -27.2302  -37.1476   25.8874 H   0  0  0  0  0  0
  -20.9318  -29.8765   21.6911 H   0  0  0  0  0  0
  -26.0166  -38.2870   24.1401 H   0  0  0  0  0  0
  -32.4161  -16.6526   21.3605 H   0  0  0  0  0  0
  -29.4068  -22.1171   18.1718 H   0  0  0  0  0  0
  -29.6394  -20.4073   18.4621 H   0  0  0  0  0  0
  -30.6680  -21.5923   19.2708 H   0  0  0  0  0  0
  -28.9867  -24.5433   17.5443 H   0  0  0  0  0  0
  -29.3419  -26.2554   17.7042 H   0  0  0  0  0  0
  -27.6748  -25.7096   17.5878 H   0  0  0  0  0  0
  -27.0409  -24.3776   20.7278 H   0  0  0  0  0  0
  -27.2895  -23.6275   19.1850 H   0  0  0  0  0  0
  -27.6443  -21.2750   19.6835 H   0  0  0  0  0  0
  -29.6571  -25.1291   19.8038 H   0  0  0  0  0  0
  -28.9409  -15.4595   21.0329 H   0  0  0  0  0  0
  -29.0773  -20.9840   21.9692 H   0  0  0  0  0  0
  1 25  1  0  0  0
  1 30  2  0  0  0
  1 83  1  0  0  0
  2  3  1  0  0  0
  2 25  1  0  0  0
  2 87  1  0  0  0
  2 88  1  0  0  0
  3  4  1  0  0  0
  3 89  1  0  0  0
  3 90  1  0  0  0
  4  5  1  0  0  0
  4 91  1  0  0  0
  4 92  1  0  0  0
  5  6  1  0  0  0
  5 26  1  0  0  0
  5 93  1  0  0  0
  6 25  1  0  0  0
  6 94  1  0  0  0
  6 95  1  0  0  0
  7  8  2  0  0  0
  7 26  1  0  0  0
  7 29  1  0  0  0
  8  9  1  0  0  0
  8 22  1  0  0  0
  9 10  1  0  0  0
  9 27  2  0  0  0
 10 11  2  0  0  0
 10 15  1  0  0  0
 11 12  1  0  0  0
 11 96  1  0  0  0
 12 13  2  0  0  0
 12 97  1  0  0  0
 13 14  1  0  0  0
 13 31  1  0  0  0
 14 15  2  0  0  0
 14 98  1  0  0  0
 15 99  1  0  0  0
 16 17  2  0  0  0
 16 21  1  0  0  0
 16 31  1  0  0  0
 17 18  1  0  0  0
 17100  1  0  0  0
 18 19  2  0  0  0
 18101  1  0  0  0
 19 20  1  0  0  0
 19 24  1  0  0  0
 20 21  2  0  0  0
 20102  1  0  0  0
 21 23  1  0  0  0
 22 28  1  0  0  0
 22 32  2  0  0  0
 26 27  1  0  0  0
 28103  1  0  0  0
 28104  1  0  0  0
 29105  1  0  0  0
 29106  1  0  0  0
 33 34  1  0  0  0
 33 66  1  0  0  0
 33 70  2  0  0  0
 34 36  1  0  0  0
 34 59  1  0  0  0
 34107  1  0  0  0
 35 44  2  0  0  0
 35 45  1  0  0  0
 35 68  1  0  0  0
 36 56  1  0  0  0
 36108  1  0  0  0
 37 39  1  0  0  0
 37 47  1  0  0  0
 37 66  1  0  0  0
 37109  1  0  0  0
 38 43  2  0  0  0
 38 46  1  0  0  0
 38 47  1  0  0  0
 39 64  1  0  0  0
 39 67  2  0  0  0
 40 52  1  0  0  0
 40 53  2  0  0  0
 40 58  1  0  0  0
 41110  1  0  0  0
 41111  1  0  0  0
 41112  1  0  0  0
 41 48  1  0  0  0
 42 43  1  0  0  0
 42 66  1  0  0  0
 42113  1  0  0  0
 42114  1  0  0  0
 43 44  1  0  0  0
 44115  1  0  0  0
 45 46  2  0  0  0
 45116  1  0  0  0
 46117  1  0  0  0
 47118  1  0  0  0
 47119  1  0  0  0
 48 56  1  0  0  0
 48 65  1  0  0  0
 48120  1  0  0  0
 49 50  1  0  0  0
 49 53  1  0  0  0
 49 64  1  0  0  0
 49121  1  0  0  0
 50 51  1  0  0  0
 50122  1  0  0  0
 50123  1  0  0  0
 51 52  1  0  0  0
 51124  1  0  0  0
 51125  1  0  0  0
 52126  1  0  0  0
 52127  1  0  0  0
 53 54  1  0  0  0
 54 55  2  0  0  0
 54128  1  0  0  0
 55 57  1  0  0  0
 55129  1  0  0  0
 56 69  2  0  0  0
 57 58  2  0  0  0
 57130  1  0  0  0
 58131  1  0  0  0
 59 60  1  0  0  0
 59 61  1  0  0  0
 59 62  1  0  0  0
 60132  1  0  0  0
 60133  1  0  0  0
 60134  1  0  0  0
 61135  1  0  0  0
 61136  1  0  0  0
 61137  1  0  0  0
 62138  1  0  0  0
 62139  1  0  0  0
 62140  1  0  0  0
 63 65  1  0  0  0
 63141  1  0  0  0
 63142  1  0  0  0
 63143  1  0  0  0
 64144  1  0  0  0
 65145  1  0  0  0
 68 80  1  0  0  0
 71 72  2  0  0  0
 71 81  1  0  0  0
 71146  1  0  0  0
 72 82  1  0  0  0
 72 83  1  0  0  0
 73 74  1  0  0  0
 73 82  2  0  0  0
 73 84  1  0  0  0
 74 81  2  0  0  0
 74 86  1  0  0  0
 75 78  1  0  0  0
 75 79  1  0  0  0
 75 85  2  0  0  0
 76147  1  0  0  0
 76148  1  0  0  0
 76149  1  0  0  0
 76 79  1  0  0  0
 77150  1  0  0  0
 77151  1  0  0  0
 77152  1  0  0  0
 77 80  1  0  0  0
 78 80  1  0  0  0
 78153  1  0  0  0
 78154  1  0  0  0
 79 84  1  0  0  0
 79155  1  0  0  0
 80156  1  0  0  0
 83157  1  0  0  0
 84158  1  0  0  0
M  ISO  4   1 100  68 101  80 101  83 100
M  END
> <chiral flag>
0

> <version>
0

> <s_m_source_file>
/data/baiqing/PycharmProjects/Reinvent-master-3.2/result/LINK_invent/BTK/process_docking_weight1_custom_product_contain_oxygen_bond_distance_aromatic_linkinvent_7_9_3/rearranged_h_0180.sdf

> <i_m_source_file_index>
84

> <r_mmod_Potential_Energy-OPLS-2005>
42.9253273010254

> <r_mmod_Stretch_Energy-OPLS-2005>
63.264102935791

> <r_mmod_Bend_Energy-OPLS-2005>
156.143676757812

> <r_mmod_Torsional_Energy-OPLS-2005>
233.036605834961

> <r_mmod_Improper_Torsional_Energy-OPLS-2005>
12.218222618103

> <r_mmod_Van_der_Waal_Energy-OPLS-2005>
152.01774597168

> <r_mmod_Electrostatic_Energy-OPLS-2005>
-375.489776611328

> <r_mmod_Solvation_Energy-OPLS-2005>
-227.175308227539

> <b_mmod_Minimization_Converged-OPLS-2005>
0

> <r_mmod_RMS_Derivative-OPLS-2005>
1.91486573219299

$$$$
84
                    3D
 Structure written by MMmdl.
156164  0  0  1  0            999 V2000
  -30.6239  -14.6460   20.5163 C   0  0  0  0  0  0
  -30.4183  -12.4183   19.4266 C   0  0  0  0  0  0
  -29.4810  -12.5000   18.2038 C   0  0  0  0  0  0
  -28.0105  -12.3305   18.6247 C   0  0  0  0  0  0
  -27.6306  -13.2164   19.8436 C   0  0  2  0  0  0
  -28.6729  -13.0969   20.9694 C   0  0  0  0  0  0
  -25.2435  -13.8175   20.5676 C   0  0  0  0  0  0
  -24.1736  -13.0451   20.9248 C   0  0  0  0  0  0
  -24.6305  -11.6925   20.8732 C   0  0  0  0  0  0
  -23.9014  -10.4298   21.0396 C   0  0  0  0  0  0
  -24.3598   -9.4208   21.9170 C   0  0  0  0  0  0
  -23.6298   -8.2239   22.0739 C   0  0  0  0  0  0
  -22.4260   -8.0271   21.3547 C   0  0  0  0  0  0
  -21.9887   -9.0224   20.4633 C   0  0  0  0  0  0
  -22.7202  -10.2123   20.3039 C   0  0  0  0  0  0
  -21.6852   -6.0729   22.5275 C   0  0  0  0  0  0
  -21.4007   -6.5633   23.8206 C   0  0  0  0  0  0
  -21.3650   -5.6793   24.9168 C   0  0  0  0  0  0
  -21.6047   -4.3052   24.7205 C   0  0  0  0  0  0
  -21.8830   -3.8149   23.4328 C   0  0  0  0  0  0
  -21.9192   -4.6966   22.3390 C   0  0  0  0  0  0
  -22.7752  -13.5215   21.1931 C   0  0  0  0  0  0
  -22.1658   -4.2150   21.0959 F   0  0  0  0  0  0
  -21.5638   -3.4538   25.7715 F   0  0  0  0  0  0
  -29.9745  -13.4467   20.3850 N   0  0  0  0  0  0
  -26.2842  -12.9369   20.3254 N   0  0  0  0  0  0
  -25.9216  -11.6532   20.5722 N   0  0  0  0  0  0
  -22.0410  -12.8180   22.0468 N   0  0  0  0  0  0
  -25.4100  -15.1915   20.3995 N   0  0  0  0  0  0
  -31.8105  -14.7595   20.1888 O   0  0  0  0  0  0
  -21.6643   -6.8866   21.4237 O   0  0  0  0  0  0
  -22.3432  -14.5525   20.6770 O   0  0  0  0  0  0
  -24.6236  -31.8554   23.1975 C   0  0  0  0  0  0
  -25.9086  -32.4742   23.8316 C   0  0  1  0  0  0
  -27.2402  -27.3166   20.1113 C   0  0  0  0  0  0
  -25.5914  -33.8557   24.2263 N   0  0  0  0  0  0
  -23.4189  -30.4765   21.5378 C   0  0  2  0  0  0
  -24.8727  -28.9211   20.1099 C   0  0  0  0  0  0
  -22.7437  -29.4598   22.4902 C   0  0  0  0  0  0
  -18.0271  -28.1338   22.8470 C   0  0  0  0  0  0
  -24.1501  -36.7285   23.2652 C   0  0  0  0  0  0
  -25.9600  -30.7828   21.3744 C   0  0  0  0  0  0
  -26.0354  -29.4094   20.7182 C   0  0  0  0  0  0
  -27.2192  -28.6148   20.7079 C   0  0  0  0  0  0
  -26.0519  -26.8714   19.4957 C   0  0  0  0  0  0
  -24.8838  -27.6576   19.4947 C   0  0  0  0  0  0
  -23.6382  -29.7995   20.1563 C   0  0  0  0  0  0
  -25.4129  -36.3073   24.0334 C   0  0  1  0  0  0
  -20.5864  -28.3663   23.1271 C   0  0  2  0  0  0
  -20.6790  -26.9393   22.5365 C   0  0  0  0  0  0
  -19.5771  -26.6354   21.5179 C   0  0  0  0  0  0
  -18.1946  -26.7881   22.1588 C   0  0  0  0  0  0
  -19.1513  -28.8806   23.2880 C   0  0  0  0  0  0
  -18.9454  -30.1387   23.8922 C   0  0  0  0  0  0
  -17.6458  -30.6535   24.0582 C   0  0  0  0  0  0
  -25.9046  -34.9436   23.5113 C   0  0  0  0  0  0
  -16.5348  -29.9054   23.6296 C   0  0  0  0  0  0
  -16.7280  -28.6462   23.0347 C   0  0  0  0  0  0
  -26.4489  -31.6566   25.0714 C   0  0  0  0  0  0
  -25.3729  -31.3724   26.1450 C   0  0  0  0  0  0
  -27.0342  -30.2982   24.6202 C   0  0  0  0  0  0
  -27.6021  -32.4330   25.7501 C   0  0  0  0  0  0
  -27.5574  -37.1801   24.8471 C   0  0  0  0  0  0
  -21.4147  -29.3067   22.3680 N   0  0  0  0  0  0
  -26.4297  -37.3772   23.9398 N   0  0  0  0  0  0
  -24.6846  -31.0557   22.0922 N   0  0  0  0  0  0
  -23.4172  -28.8130   23.2979 O   0  0  0  0  0  0
  -28.3925  -26.5202   20.1699 O   0  0  0  0  0  0
  -26.5617  -34.8888   22.4677 O   0  0  0  0  0  0
  -23.5410  -32.1378   23.7306 O   0  0  0  0  0  0
  -30.7465  -18.1137   24.1687 C   0  0  0  0  0  0
  -30.1692  -18.1147   21.7941 C   0  0  0  0  0  0
  -30.6114  -18.7930   22.9599 C   0  0  0  0  0  0
  -30.1100  -16.6644   21.8595 C   0  0  0  0  0  0
  -30.4800  -16.7481   24.1780 C   0  0  0  0  0  0
  -28.9778  -21.3621   20.1387 C   0  0  0  0  0  0
  -28.8287  -19.9615   20.8991 C   0  0  0  0  0  0
  -28.8006  -22.6700   20.9945 C   0  0  0  0  0  0
  -28.4704  -25.1304   19.6653 C   0  0  0  0  0  0
  -27.9155  -23.9317   20.5567 C   0  0  2  0  0  0
  -30.2246  -16.0506   23.0602 N   0  0  0  0  0  0
  -29.7972  -19.0101   20.7127 N   0  0  0  0  0  0
  -29.8622  -15.7593   20.7701 N   0  0  0  0  0  0
  -29.2505  -21.4129   18.9339 O   0  0  0  0  0  0
  -27.8525  -19.7407   21.6288 O   0  0  0  0  0  0
  -26.6643  -23.4803   20.0610 O   0  0  0  0  0  0
  -30.8749  -20.1243   22.9297 F   0  0  0  0  0  0
  -30.4845  -16.0813   25.3537 F   0  0  0  0  0  0
  -31.4480  -12.5732   19.1027 H   0  0  0  0  0  0
  -30.3906  -11.4238   19.8779 H   0  0  0  0  0  0
  -29.7521  -11.7400   17.4701 H   0  0  0  0  0  0
  -29.6009  -13.4650   17.7045 H   0  0  0  0  0  0
  -27.8516  -11.2766   18.8651 H   0  0  0  0  0  0
  -27.3494  -12.5518   17.7862 H   0  0  0  0  0  0
  -27.6389  -14.2457   19.4848 H   0  0  0  0  0  0
  -28.6877  -12.0780   21.3616 H   0  0  0  0  0  0
  -28.4074  -13.7363   21.8140 H   0  0  0  0  0  0
  -25.2737   -9.5691   22.4752 H   0  0  0  0  0  0
  -24.0019   -7.4601   22.7415 H   0  0  0  0  0  0
  -21.0855   -8.8723   19.8900 H   0  0  0  0  0  0
  -22.3657  -10.9662   19.6145 H   0  0  0  0  0  0
  -21.2000   -7.6140   23.9723 H   0  0  0  0  0  0
  -21.1463   -6.0503   25.9080 H   0  0  0  0  0  0
  -22.0620   -2.7609   23.2814 H   0  0  0  0  0  0
  -22.4088  -11.9870   22.4887 H   0  0  0  0  0  0
  -21.0981  -13.1109   22.2660 H   0  0  0  0  0  0
  -24.6296  -15.8328   20.4873 H   0  0  0  0  0  0
  -26.2359  -15.6341   20.0218 H   0  0  0  0  0  0
  -26.7151  -32.5409   23.1053 H   0  0  0  0  0  0
  -25.0049  -33.9715   25.0402 H   0  0  0  0  0  0
  -22.7166  -31.2983   21.3848 H   0  0  0  0  0  0
  -23.3746  -35.9628   23.3330 H   0  0  0  0  0  0
  -24.3591  -36.8887   22.2056 H   0  0  0  0  0  0
  -23.7243  -37.6498   23.6664 H   0  0  0  0  0  0
  -26.1032  -31.5518   20.6152 H   0  0  0  0  0  0
  -26.8364  -30.8324   22.0059 H   0  0  0  0  0  0
  -28.1154  -28.9848   21.1848 H   0  0  0  0  0  0
  -26.0027  -25.9019   19.0234 H   0  0  0  0  0  0
  -23.9936  -27.2761   19.0170 H   0  0  0  0  0  0
  -23.7559  -30.5717   19.3924 H   0  0  0  0  0  0
  -22.7623  -29.2227   19.8551 H   0  0  0  0  0  0
  -25.1306  -36.1947   25.0822 H   0  0  0  0  0  0
  -20.9924  -28.3248   24.1381 H   0  0  0  0  0  0
  -20.5702  -26.2296   23.3556 H   0  0  0  0  0  0
  -21.6678  -26.7412   22.1225 H   0  0  0  0  0  0
  -19.6919  -25.6258   21.1184 H   0  0  0  0  0  0
  -19.6688  -27.3106   20.6692 H   0  0  0  0  0  0
  -17.4229  -26.6614   21.3967 H   0  0  0  0  0  0
  -18.0314  -25.9998   22.8939 H   0  0  0  0  0  0
  -19.7905  -30.7217   24.2310 H   0  0  0  0  0  0
  -17.4998  -31.6210   24.5187 H   0  0  0  0  0  0
  -15.5370  -30.2960   23.7610 H   0  0  0  0  0  0
  -15.8683  -28.0782   22.7064 H   0  0  0  0  0  0
  -24.5904  -30.7072   25.7807 H   0  0  0  0  0  0
  -24.8916  -32.2895   26.4856 H   0  0  0  0  0  0
  -25.8068  -30.8934   27.0226 H   0  0  0  0  0  0
  -26.2940  -29.6714   24.1225 H   0  0  0  0  0  0
  -27.4035  -29.7281   25.4726 H   0  0  0  0  0  0
  -27.8812  -30.4263   23.9457 H   0  0  0  0  0  0
  -27.2599  -33.3636   26.2036 H   0  0  0  0  0  0
  -28.3851  -32.6858   25.0348 H   0  0  0  0  0  0
  -28.0646  -31.8467   26.5443 H   0  0  0  0  0  0
  -28.2613  -38.0077   24.7475 H   0  0  0  0  0  0
  -28.1048  -36.2594   24.6373 H   0  0  0  0  0  0
  -27.2278  -37.1545   25.8875 H   0  0  0  0  0  0
  -20.9349  -29.8900   21.6976 H   0  0  0  0  0  0
  -26.0184  -38.2862   24.1363 H   0  0  0  0  0  0
  -31.0067  -18.6345   25.0757 H   0  0  0  0  0  0
  -29.8044  -23.0025   21.2579 H   0  0  0  0  0  0
  -28.3771  -22.3214   21.9363 H   0  0  0  0  0  0
  -28.0687  -25.0788   18.6529 H   0  0  0  0  0  0
  -29.5381  -24.9514   19.5246 H   0  0  0  0  0  0
  -27.6659  -24.4071   21.5074 H   0  0  0  0  0  0
  -30.5316  -19.2732   20.0681 H   0  0  0  0  0  0
  -28.8791  -15.6044   20.6201 H   0  0  0  0  0  0
  -25.9904  -23.7541   20.6747 H   0  0  0  0  0  0
  1 25  1  0  0  0
  1 30  2  0  0  0
  1 83  1  0  0  0
  2  3  1  0  0  0
  2 25  1  0  0  0
  2 89  1  0  0  0
  2 90  1  0  0  0
  3  4  1  0  0  0
  3 91  1  0  0  0
  3 92  1  0  0  0
  4  5  1  0  0  0
  4 93  1  0  0  0
  4 94  1  0  0  0
  5  6  1  0  0  0
  5 26  1  0  0  0
  5 95  1  0  0  0
  6 25  1  0  0  0
  6 96  1  0  0  0
  6 97  1  0  0  0
  7  8  2  0  0  0
  7 26  1  0  0  0
  7 29  1  0  0  0
  8  9  1  0  0  0
  8 22  1  0  0  0
  9 10  1  0  0  0
  9 27  2  0  0  0
 10 11  2  0  0  0
 10 15  1  0  0  0
 11 12  1  0  0  0
 11 98  1  0  0  0
 12 13  2  0  0  0
 12 99  1  0  0  0
 13 14  1  0  0  0
 13 31  1  0  0  0
 14 15  2  0  0  0
 14100  1  0  0  0
 15101  1  0  0  0
 16 17  2  0  0  0
 16 21  1  0  0  0
 16 31  1  0  0  0
 17 18  1  0  0  0
 17102  1  0  0  0
 18 19  2  0  0  0
 18103  1  0  0  0
 19 20  1  0  0  0
 19 24  1  0  0  0
 20 21  2  0  0  0
 20104  1  0  0  0
 21 23  1  0  0  0
 22 28  1  0  0  0
 22 32  2  0  0  0
 26 27  1  0  0  0
 28105  1  0  0  0
 28106  1  0  0  0
 29107  1  0  0  0
 29108  1  0  0  0
 33 34  1  0  0  0
 33 66  1  0  0  0
 33 70  2  0  0  0
 34 36  1  0  0  0
 34 59  1  0  0  0
 34109  1  0  0  0
 35 44  2  0  0  0
 35 45  1  0  0  0
 35 68  1  0  0  0
 36 56  1  0  0  0
 36110  1  0  0  0
 37 39  1  0  0  0
 37 47  1  0  0  0
 37 66  1  0  0  0
 37111  1  0  0  0
 38 43  2  0  0  0
 38 46  1  0  0  0
 38 47  1  0  0  0
 39 64  1  0  0  0
 39 67  2  0  0  0
 40 52  1  0  0  0
 40 53  2  0  0  0
 40 58  1  0  0  0
 41112  1  0  0  0
 41113  1  0  0  0
 41114  1  0  0  0
 41 48  1  0  0  0
 42 43  1  0  0  0
 42 66  1  0  0  0
 42115  1  0  0  0
 42116  1  0  0  0
 43 44  1  0  0  0
 44117  1  0  0  0
 45 46  2  0  0  0
 45118  1  0  0  0
 46119  1  0  0  0
 47120  1  0  0  0
 47121  1  0  0  0
 48 56  1  0  0  0
 48 65  1  0  0  0
 48122  1  0  0  0
 49 50  1  0  0  0
 49 53  1  0  0  0
 49 64  1  0  0  0
 49123  1  0  0  0
 50 51  1  0  0  0
 50124  1  0  0  0
 50125  1  0  0  0
 51 52  1  0  0  0
 51126  1  0  0  0
 51127  1  0  0  0
 52128  1  0  0  0
 52129  1  0  0  0
 53 54  1  0  0  0
 54 55  2  0  0  0
 54130  1  0  0  0
 55 57  1  0  0  0
 55131  1  0  0  0
 56 69  2  0  0  0
 57 58  2  0  0  0
 57132  1  0  0  0
 58133  1  0  0  0
 59 60  1  0  0  0
 59 61  1  0  0  0
 59 62  1  0  0  0
 60134  1  0  0  0
 60135  1  0  0  0
 60136  1  0  0  0
 61137  1  0  0  0
 61138  1  0  0  0
 61139  1  0  0  0
 62140  1  0  0  0
 62141  1  0  0  0
 62142  1  0  0  0
 63 65  1  0  0  0
 63143  1  0  0  0
 63144  1  0  0  0
 63145  1  0  0  0
 64146  1  0  0  0
 65147  1  0  0  0
 68 79  1  0  0  0
 71 73  2  0  0  0
 71 75  1  0  0  0
 71148  1  0  0  0
 72 73  1  0  0  0
 72 74  2  0  0  0
 72 82  1  0  0  0
 73 87  1  0  0  0
 74 81  1  0  0  0
 74 83  1  0  0  0
 75 81  2  0  0  0
 75 88  1  0  0  0
 76 77  1  0  0  0
 76 78  1  0  0  0
 76 84  2  0  0  0
 77 82  1  0  0  0
 77 85  2  0  0  0
 78 80  1  0  0  0
 78149  1  0  0  0
 78150  1  0  0  0
 79 80  1  0  0  0
 79151  1  0  0  0
 79152  1  0  0  0
 80 86  1  0  0  0
 80153  1  0  0  0
 82154  1  0  0  0
 83155  1  0  0  0
 86156  1  0  0  0
M  ISO  4   1 100  68 101  79 101  83 100
M  END
> <chiral flag>
0

> <version>
0

> <s_m_source_file>
/data/baiqing/PycharmProjects/Reinvent-master-3.2/result/LINK_invent/BTK/process_docking_weight1_custom_product_contain_oxygen_bond_distance_aromatic_linkinvent_7_9_3/rearranged_h_0180.sdf

> <i_m_source_file_index>
85

> <r_mmod_Potential_Energy-OPLS-2005>
-105.888648986816

> <r_mmod_Stretch_Energy-OPLS-2005>
81.8592987060547

> <r_mmod_Bend_Energy-OPLS-2005>
187.948638916016

> <r_mmod_Torsional_Energy-OPLS-2005>
299.957427978516

> <r_mmod_Improper_Torsional_Energy-OPLS-2005>
11.8506317138672

> <r_mmod_Van_der_Waal_Energy-OPLS-2005>
144.249404907227

> <r_mmod_Electrostatic_Energy-OPLS-2005>
-633.249450683594

> <r_mmod_Solvation_Energy-OPLS-2005>
-249.761749267578

> <b_mmod_Minimization_Converged-OPLS-2005>
0

> <r_mmod_RMS_Derivative-OPLS-2005>
6.16617631912231

$$$$
85
                    3D
 Structure written by MMmdl.
152160  0  0  1  0            999 V2000
  -30.5736  -14.7546   20.4634 C   0  0  0  0  0  0
  -30.4434  -12.4589   19.4745 C   0  0  0  0  0  0
  -29.5149  -12.5108   18.2390 C   0  0  0  0  0  0
  -28.0415  -12.3268   18.6530 C   0  0  0  0  0  0
  -27.6463  -13.2234   19.8561 C   0  0  2  0  0  0
  -28.6893  -13.1360   20.9924 C   0  0  0  0  0  0
  -25.2537  -13.8176   20.5683 C   0  0  0  0  0  0
  -24.1814  -13.0436   20.9198 C   0  0  0  0  0  0
  -24.6392  -11.6910   20.8745 C   0  0  0  0  0  0
  -23.9066  -10.4291   21.0406 C   0  0  0  0  0  0
  -24.3617   -9.4208   21.9185 C   0  0  0  0  0  0
  -23.6292   -8.2243   22.0755 C   0  0  0  0  0  0
  -22.4276   -8.0280   21.3543 C   0  0  0  0  0  0
  -21.9911   -9.0253   20.4646 C   0  0  0  0  0  0
  -22.7238  -10.2133   20.3055 C   0  0  0  0  0  0
  -21.6852   -6.0735   22.5278 C   0  0  0  0  0  0
  -21.4014   -6.5640   23.8211 C   0  0  0  0  0  0
  -21.3660   -5.6792   24.9172 C   0  0  0  0  0  0
  -21.6044   -4.3053   24.7223 C   0  0  0  0  0  0
  -21.8820   -3.8147   23.4342 C   0  0  0  0  0  0
  -21.9193   -4.6964   22.3399 C   0  0  0  0  0  0
  -22.7838  -13.5228   21.1860 C   0  0  0  0  0  0
  -22.1661   -4.2152   21.0976 F   0  0  0  0  0  0
  -21.5630   -3.4536   25.7733 F   0  0  0  0  0  0
  -29.9930  -13.5051   20.4218 N   0  0  0  0  0  0
  -26.2956  -12.9365   20.3290 N   0  0  0  0  0  0
  -25.9322  -11.6517   20.5753 N   0  0  0  0  0  0
  -22.0481  -12.8216   22.0412 N   0  0  0  0  0  0
  -25.4256  -15.1897   20.4091 N   0  0  0  0  0  0
  -31.7435  -14.9064   20.0969 O   0  0  0  0  0  0
  -21.6638   -6.8879   21.4240 O   0  0  0  0  0  0
  -22.3528  -14.5540   20.6712 O   0  0  0  0  0  0
  -24.6323  -31.8529   23.1958 C   0  0  0  0  0  0
  -25.9141  -32.4743   23.8310 C   0  0  1  0  0  0
  -27.2276  -27.2513   20.1225 C   0  0  0  0  0  0
  -25.5935  -33.8548   24.2233 N   0  0  0  0  0  0
  -23.4295  -30.4743   21.5394 C   0  0  2  0  0  0
  -24.8764  -28.9161   20.1079 C   0  0  0  0  0  0
  -22.7508  -29.4592   22.4911 C   0  0  0  0  0  0
  -18.0290  -28.1386   22.8490 C   0  0  0  0  0  0
  -24.1490  -36.7277   23.2642 C   0  0  0  0  0  0
  -25.9753  -30.7618   21.3759 C   0  0  0  0  0  0
  -26.0465  -29.3830   20.7179 C   0  0  0  0  0  0
  -27.2194  -28.5617   20.7150 C   0  0  0  0  0  0
  -26.0289  -26.8486   19.4914 C   0  0  0  0  0  0
  -24.8733  -27.6573   19.4862 C   0  0  0  0  0  0
  -23.6475  -29.8047   20.1557 C   0  0  0  0  0  0
  -25.4116  -36.3063   24.0327 C   0  0  1  0  0  0
  -20.5895  -28.3696   23.1271 C   0  0  2  0  0  0
  -20.6777  -26.9414   22.5411 C   0  0  0  0  0  0
  -19.5754  -26.6382   21.5215 C   0  0  0  0  0  0
  -18.1932  -26.7931   22.1620 C   0  0  0  0  0  0
  -19.1545  -28.8858   23.2874 C   0  0  0  0  0  0
  -18.9468  -30.1459   23.8893 C   0  0  0  0  0  0
  -17.6466  -30.6590   24.0563 C   0  0  0  0  0  0
  -25.9060  -34.9436   23.5081 C   0  0  0  0  0  0
  -16.5357  -29.9087   23.6333 C   0  0  0  0  0  0
  -16.7274  -28.6501   23.0357 C   0  0  0  0  0  0
  -26.4502  -31.6580   25.0712 C   0  0  0  0  0  0
  -25.3721  -31.3743   26.1434 C   0  0  0  0  0  0
  -27.0357  -30.2998   24.6210 C   0  0  0  0  0  0
  -27.6047  -32.4333   25.7486 C   0  0  0  0  0  0
  -27.5580  -37.1789   24.8462 C   0  0  0  0  0  0
  -21.4213  -29.3042   22.3659 N   0  0  0  0  0  0
  -26.4285  -37.3768   23.9418 N   0  0  0  0  0  0
  -24.6982  -31.0491   22.0932 N   0  0  0  0  0  0
  -23.4204  -28.8140   23.3021 O   0  0  0  0  0  0
  -28.3477  -26.3875   20.2075 O   0  0  0  0  0  0
  -26.5641  -34.8921   22.4657 O   0  0  0  0  0  0
  -23.5470  -32.1351   23.7251 O   0  0  0  0  0  0
  -30.8450  -18.0406   19.8272 C   0  0  0  0  0  0
  -29.0316  -18.3136   21.0245 C   0  0  0  0  0  0
  -29.8691  -17.2996   20.5613 C   0  0  0  0  0  0
  -28.5111  -23.7290   20.5850 C   0  0  0  0  0  0
  -29.9904  -21.3015   22.2991 C   0  0  0  0  0  0
  -29.0228  -22.2793   20.0769 C   0  0  0  0  0  0
  -28.4183  -25.0011   19.6096 C   0  0  0  0  0  0
  -29.0912  -20.9944   21.0845 C   0  0  1  0  0  0
  -30.6255  -19.3739   19.8673 N   0  0  0  0  0  0
  -29.4959  -19.5895   20.6042 N   0  0  0  0  0  0
  -29.7517  -15.8288   20.7747 N   0  0  0  0  0  0
  -28.1389  -23.8630   21.7547 O   0  0  0  0  0  0
  -31.4822  -12.6005   19.1714 H   0  0  0  0  0  0
  -30.4018  -11.4764   19.9473 H   0  0  0  0  0  0
  -29.7995  -11.7411   17.5202 H   0  0  0  0  0  0
  -29.6352  -13.4670   17.7269 H   0  0  0  0  0  0
  -27.9044  -11.2775   18.9172 H   0  0  0  0  0  0
  -27.3811  -12.5139   17.8053 H   0  0  0  0  0  0
  -27.6466  -14.2475   19.4826 H   0  0  0  0  0  0
  -28.7264  -12.1277   21.4069 H   0  0  0  0  0  0
  -28.4164  -13.7912   21.8213 H   0  0  0  0  0  0
  -25.2763   -9.5680   22.4760 H   0  0  0  0  0  0
  -24.0000   -7.4631   22.7471 H   0  0  0  0  0  0
  -21.0844   -8.8769   19.8946 H   0  0  0  0  0  0
  -22.3699  -10.9671   19.6160 H   0  0  0  0  0  0
  -21.2006   -7.6148   23.9716 H   0  0  0  0  0  0
  -21.1481   -6.0520   25.9076 H   0  0  0  0  0  0
  -22.0600   -2.7610   23.2838 H   0  0  0  0  0  0
  -22.4094  -11.9866   22.4785 H   0  0  0  0  0  0
  -21.1104  -13.1245   22.2630 H   0  0  0  0  0  0
  -24.6557  -15.8424   20.5068 H   0  0  0  0  0  0
  -26.2679  -15.6237   20.0538 H   0  0  0  0  0  0
  -26.7209  -32.5379   23.1048 H   0  0  0  0  0  0
  -25.0092  -33.9682   25.0385 H   0  0  0  0  0  0
  -22.7270  -31.2967   21.3911 H   0  0  0  0  0  0
  -23.3760  -35.9600   23.3288 H   0  0  0  0  0  0
  -24.3583  -36.8912   22.2058 H   0  0  0  0  0  0
  -23.7232  -37.6469   23.6676 H   0  0  0  0  0  0
  -26.1162  -31.5220   20.6063 H   0  0  0  0  0  0
  -26.8527  -30.8102   22.0096 H   0  0  0  0  0  0
  -28.1156  -28.9153   21.2053 H   0  0  0  0  0  0
  -25.9375  -25.8842   19.0199 H   0  0  0  0  0  0
  -23.9746  -27.2913   19.0088 H   0  0  0  0  0  0
  -23.7716  -30.5800   19.3985 H   0  0  0  0  0  0
  -22.7652  -29.2385   19.8517 H   0  0  0  0  0  0
  -25.1298  -36.1897   25.0818 H   0  0  0  0  0  0
  -20.9985  -28.3267   24.1392 H   0  0  0  0  0  0
  -20.5674  -26.2308   23.3615 H   0  0  0  0  0  0
  -21.6645  -26.7433   22.1203 H   0  0  0  0  0  0
  -19.6920  -25.6293   21.1243 H   0  0  0  0  0  0
  -19.6693  -27.3197   20.6749 H   0  0  0  0  0  0
  -17.4207  -26.6687   21.4018 H   0  0  0  0  0  0
  -18.0319  -26.0071   22.9009 H   0  0  0  0  0  0
  -19.7946  -30.7276   24.2255 H   0  0  0  0  0  0
  -17.5024  -31.6270   24.5167 H   0  0  0  0  0  0
  -15.5357  -30.2990   23.7669 H   0  0  0  0  0  0
  -15.8670  -28.0822   22.7076 H   0  0  0  0  0  0
  -24.5909  -30.7070   25.7775 H   0  0  0  0  0  0
  -24.8900  -32.2919   26.4820 H   0  0  0  0  0  0
  -25.8040  -30.8960   27.0232 H   0  0  0  0  0  0
  -26.2945  -29.6741   24.1229 H   0  0  0  0  0  0
  -27.4035  -29.7268   25.4729 H   0  0  0  0  0  0
  -27.8821  -30.4278   23.9459 H   0  0  0  0  0  0
  -27.2649  -33.3648   26.2024 H   0  0  0  0  0  0
  -28.3879  -32.6865   25.0329 H   0  0  0  0  0  0
  -28.0694  -31.8484   26.5434 H   0  0  0  0  0  0
  -28.2577  -38.0105   24.7532 H   0  0  0  0  0  0
  -28.1091  -36.2636   24.6249 H   0  0  0  0  0  0
  -27.2306  -37.1388   25.8866 H   0  0  0  0  0  0
  -20.9398  -29.8764   21.6864 H   0  0  0  0  0  0
  -26.0156  -38.2835   24.1434 H   0  0  0  0  0  0
  -31.7024  -17.6690   19.2831 H   0  0  0  0  0  0
  -28.1607  -18.2456   21.6612 H   0  0  0  0  0  0
  -29.6786  -22.1926   22.8403 H   0  0  0  0  0  0
  -31.0266  -21.4467   21.9922 H   0  0  0  0  0  0
  -29.9745  -20.4805   23.0167 H   0  0  0  0  0  0
  -30.0145  -22.4289   19.6506 H   0  0  0  0  0  0
  -28.3851  -22.0097   19.2354 H   0  0  0  0  0  0
  -27.6193  -24.8200   18.8959 H   0  0  0  0  0  0
  -29.3269  -24.9810   19.0077 H   0  0  0  0  0  0
  -28.0770  -20.8805   21.4707 H   0  0  0  0  0  0
  -28.8609  -15.5312   21.1435 H   0  0  0  0  0  0
  1 25  1  0  0  0
  1 30  2  0  0  0
  1 81  1  0  0  0
  2  3  1  0  0  0
  2 25  1  0  0  0
  2 83  1  0  0  0
  2 84  1  0  0  0
  3  4  1  0  0  0
  3 85  1  0  0  0
  3 86  1  0  0  0
  4  5  1  0  0  0
  4 87  1  0  0  0
  4 88  1  0  0  0
  5  6  1  0  0  0
  5 26  1  0  0  0
  5 89  1  0  0  0
  6 25  1  0  0  0
  6 90  1  0  0  0
  6 91  1  0  0  0
  7  8  2  0  0  0
  7 26  1  0  0  0
  7 29  1  0  0  0
  8  9  1  0  0  0
  8 22  1  0  0  0
  9 10  1  0  0  0
  9 27  2  0  0  0
 10 11  2  0  0  0
 10 15  1  0  0  0
 11 12  1  0  0  0
 11 92  1  0  0  0
 12 13  2  0  0  0
 12 93  1  0  0  0
 13 14  1  0  0  0
 13 31  1  0  0  0
 14 15  2  0  0  0
 14 94  1  0  0  0
 15 95  1  0  0  0
 16 17  2  0  0  0
 16 21  1  0  0  0
 16 31  1  0  0  0
 17 18  1  0  0  0
 17 96  1  0  0  0
 18 19  2  0  0  0
 18 97  1  0  0  0
 19 20  1  0  0  0
 19 24  1  0  0  0
 20 21  2  0  0  0
 20 98  1  0  0  0
 21 23  1  0  0  0
 22 28  1  0  0  0
 22 32  2  0  0  0
 26 27  1  0  0  0
 28 99  1  0  0  0
 28100  1  0  0  0
 29101  1  0  0  0
 29102  1  0  0  0
 33 34  1  0  0  0
 33 66  1  0  0  0
 33 70  2  0  0  0
 34 36  1  0  0  0
 34 59  1  0  0  0
 34103  1  0  0  0
 35 44  2  0  0  0
 35 45  1  0  0  0
 35 68  1  0  0  0
 36 56  1  0  0  0
 36104  1  0  0  0
 37 39  1  0  0  0
 37 47  1  0  0  0
 37 66  1  0  0  0
 37105  1  0  0  0
 38 43  2  0  0  0
 38 46  1  0  0  0
 38 47  1  0  0  0
 39 64  1  0  0  0
 39 67  2  0  0  0
 40 52  1  0  0  0
 40 53  2  0  0  0
 40 58  1  0  0  0
 41106  1  0  0  0
 41107  1  0  0  0
 41108  1  0  0  0
 41 48  1  0  0  0
 42 43  1  0  0  0
 42 66  1  0  0  0
 42109  1  0  0  0
 42110  1  0  0  0
 43 44  1  0  0  0
 44111  1  0  0  0
 45 46  2  0  0  0
 45112  1  0  0  0
 46113  1  0  0  0
 47114  1  0  0  0
 47115  1  0  0  0
 48 56  1  0  0  0
 48 65  1  0  0  0
 48116  1  0  0  0
 49 50  1  0  0  0
 49 53  1  0  0  0
 49 64  1  0  0  0
 49117  1  0  0  0
 50 51  1  0  0  0
 50118  1  0  0  0
 50119  1  0  0  0
 51 52  1  0  0  0
 51120  1  0  0  0
 51121  1  0  0  0
 52122  1  0  0  0
 52123  1  0  0  0
 53 54  1  0  0  0
 54 55  2  0  0  0
 54124  1  0  0  0
 55 57  1  0  0  0
 55125  1  0  0  0
 56 69  2  0  0  0
 57 58  2  0  0  0
 57126  1  0  0  0
 58127  1  0  0  0
 59 60  1  0  0  0
 59 61  1  0  0  0
 59 62  1  0  0  0
 60128  1  0  0  0
 60129  1  0  0  0
 60130  1  0  0  0
 61131  1  0  0  0
 61132  1  0  0  0
 61133  1  0  0  0
 62134  1  0  0  0
 62135  1  0  0  0
 62136  1  0  0  0
 63 65  1  0  0  0
 63137  1  0  0  0
 63138  1  0  0  0
 63139  1  0  0  0
 64140  1  0  0  0
 65141  1  0  0  0
 68 77  1  0  0  0
 71 73  1  0  0  0
 71 79  2  0  0  0
 71142  1  0  0  0
 72 73  2  0  0  0
 72 80  1  0  0  0
 72143  1  0  0  0
 73 81  1  0  0  0
 74 76  1  0  0  0
 74 77  1  0  0  0
 74 82  2  0  0  0
 75144  1  0  0  0
 75145  1  0  0  0
 75146  1  0  0  0
 75 78  1  0  0  0
 76 78  1  0  0  0
 76147  1  0  0  0
 76148  1  0  0  0
 77149  1  0  0  0
 77150  1  0  0  0
 78 80  1  0  0  0
 78151  1  0  0  0
 79 80  1  0  0  0
 81152  1  0  0  0
M  ISO  4   1 100  68 101  77 101  81 100
M  END
> <chiral flag>
0

> <version>
0

> <s_m_source_file>
/data/baiqing/PycharmProjects/Reinvent-master-3.2/result/LINK_invent/BTK/process_docking_weight1_custom_product_contain_oxygen_bond_distance_aromatic_linkinvent_7_9_3/rearranged_h_0180.sdf

> <i_m_source_file_index>
86

> <r_mmod_Potential_Energy-OPLS-2005>
121.863555908203

> <r_mmod_Stretch_Energy-OPLS-2005>
128.861190795898

> <r_mmod_Bend_Energy-OPLS-2005>
189.440444946289

> <r_mmod_Torsional_Energy-OPLS-2005>
219.893524169922

> <r_mmod_Improper_Torsional_Energy-OPLS-2005>
5.42293453216553

> <r_mmod_Van_der_Waal_Energy-OPLS-2005>
114.254379272461

> <r_mmod_Electrostatic_Energy-OPLS-2005>
-378.549285888672

> <r_mmod_Solvation_Energy-OPLS-2005>
-245.753646850586

> <b_mmod_Minimization_Converged-OPLS-2005>
0

> <r_mmod_RMS_Derivative-OPLS-2005>
0.824877440929413

$$$$
86
                    3D
 Structure written by MMmdl.
160168  0  0  1  0            999 V2000
  -30.6761  -14.5570   20.5026 C   0  0  0  0  0  0
  -30.4181  -12.3365   19.4493 C   0  0  0  0  0  0
  -29.4976  -12.4942   18.2207 C   0  0  0  0  0  0
  -28.0185  -12.3552   18.6294 C   0  0  0  0  0  0
  -27.6526  -13.2173   19.8674 C   0  0  2  0  0  0
  -28.6965  -13.0584   20.9963 C   0  0  0  0  0  0
  -25.2547  -13.8183   20.5695 C   0  0  0  0  0  0
  -24.1823  -13.0442   20.9197 C   0  0  0  0  0  0
  -24.6396  -11.6915   20.8749 C   0  0  0  0  0  0
  -23.9076  -10.4295   21.0414 C   0  0  0  0  0  0
  -24.3617   -9.4211   21.9192 C   0  0  0  0  0  0
  -23.6294   -8.2246   22.0766 C   0  0  0  0  0  0
  -22.4279   -8.0286   21.3546 C   0  0  0  0  0  0
  -21.9922   -9.0262   20.4649 C   0  0  0  0  0  0
  -22.7252  -10.2140   20.3062 C   0  0  0  0  0  0
  -21.6850   -6.0744   22.5275 C   0  0  0  0  0  0
  -21.4012   -6.5645   23.8209 C   0  0  0  0  0  0
  -21.3663   -5.6797   24.9173 C   0  0  0  0  0  0
  -21.6045   -4.3060   24.7222 C   0  0  0  0  0  0
  -21.8819   -3.8156   23.4340 C   0  0  0  0  0  0
  -21.9195   -4.6972   22.3396 C   0  0  0  0  0  0
  -22.7842  -13.5231   21.1859 C   0  0  0  0  0  0
  -22.1659   -4.2157   21.0970 F   0  0  0  0  0  0
  -21.5637   -3.4545   25.7737 F   0  0  0  0  0  0
  -30.0193  -13.3608   20.4317 N   0  0  0  0  0  0
  -26.2979  -12.9368   20.3352 N   0  0  0  0  0  0
  -25.9324  -11.6522   20.5783 N   0  0  0  0  0  0
  -22.0491  -12.8212   22.0406 N   0  0  0  0  0  0
  -25.4256  -15.1900   20.4070 N   0  0  0  0  0  0
  -31.8477  -14.6570   20.1275 O   0  0  0  0  0  0
  -21.6636   -6.8887   21.4241 O   0  0  0  0  0  0
  -22.3526  -14.5541   20.6721 O   0  0  0  0  0  0
  -24.6207  -31.8626   23.2078 C   0  0  0  0  0  0
  -25.9089  -32.4782   23.8373 C   0  0  1  0  0  0
  -27.2339  -27.3831   20.0948 C   0  0  0  0  0  0
  -25.5936  -33.8592   24.2308 N   0  0  0  0  0  0
  -23.4088  -30.4867   21.5488 C   0  0  2  0  0  0
  -24.8543  -28.9464   20.1137 C   0  0  0  0  0  0
  -22.7424  -29.4637   22.4969 C   0  0  0  0  0  0
  -18.0270  -28.1363   22.8485 C   0  0  0  0  0  0
  -24.1481  -36.7278   23.2641 C   0  0  0  0  0  0
  -25.9431  -30.8115   21.3700 C   0  0  0  0  0  0
  -26.0175  -29.4444   20.7113 C   0  0  0  0  0  0
  -27.2066  -28.6706   20.6973 C   0  0  0  0  0  0
  -26.0405  -26.9072   19.5031 C   0  0  0  0  0  0
  -24.8635  -27.6795   19.5076 C   0  0  0  0  0  0
  -23.6182  -29.8176   20.1643 C   0  0  0  0  0  0
  -25.4113  -36.3085   24.0327 C   0  0  1  0  0  0
  -20.5860  -28.3666   23.1286 C   0  0  2  0  0  0
  -20.6756  -26.9391   22.5412 C   0  0  0  0  0  0
  -19.5729  -26.6370   21.5210 C   0  0  0  0  0  0
  -18.1904  -26.7909   22.1614 C   0  0  0  0  0  0
  -19.1524  -28.8839   23.2872 C   0  0  0  0  0  0
  -18.9456  -30.1454   23.8864 C   0  0  0  0  0  0
  -17.6459  -30.6568   24.0570 C   0  0  0  0  0  0
  -25.9048  -34.9455   23.5112 C   0  0  0  0  0  0
  -16.5349  -29.9063   23.6347 C   0  0  0  0  0  0
  -16.7269  -28.6491   23.0350 C   0  0  0  0  0  0
  -26.4516  -31.6574   25.0725 C   0  0  0  0  0  0
  -25.3781  -31.3658   26.1470 C   0  0  0  0  0  0
  -27.0386  -30.3014   24.6148 C   0  0  0  0  0  0
  -27.6077  -32.4314   25.7488 C   0  0  0  0  0  0
  -27.5576  -37.1794   24.8476 C   0  0  0  0  0  0
  -21.4149  -29.3028   22.3696 N   0  0  0  0  0  0
  -26.4295  -37.3782   23.9412 N   0  0  0  0  0  0
  -24.6754  -31.0689   22.0998 N   0  0  0  0  0  0
  -23.4176  -28.8194   23.3036 O   0  0  0  0  0  0
  -28.4047  -26.6322   20.1310 O   0  0  0  0  0  0
  -26.5594  -34.8916   22.4665 O   0  0  0  0  0  0
  -23.5393  -32.1415   23.7445 O   0  0  0  0  0  0
  -30.2139  -19.5611   20.2884 C   0  0  0  0  0  0
  -31.3910  -18.9014   19.9735 C   0  0  0  0  0  0
  -30.1841  -17.0491   20.6040 C   0  0  0  0  0  0
  -29.8880  -21.0408   20.2481 C   0  0  0  0  0  0
  -28.4444  -24.0751   20.1627 C   0  0  0  0  0  0
  -25.7645  -22.4507   19.9944 C   0  0  0  0  0  0
  -26.6062  -21.5202   17.7961 C   0  0  0  0  0  0
  -28.5363  -25.4085   19.3507 C   0  0  0  0  0  0
  -28.2617  -22.7520   19.3225 C   0  0  2  0  0  0
  -26.7829  -22.6321   18.8483 C   0  0  0  0  0  0
  -31.3578  -17.5145   20.1571 N   0  0  0  0  0  0
  -32.5765  -19.4598   19.4870 N   0  0  0  0  0  0
  -29.9217  -15.6423   20.8349 N   0  0  0  0  0  0
  -28.6368  -21.4576   19.9696 N   0  0  0  0  0  0
  -30.8026  -21.8631   20.3337 O   0  0  0  0  0  0
  -28.5038  -24.0872   21.3967 O   0  0  0  0  0  0
  -29.0143  -18.3782   20.8421 S   0  0  0  0  0  0
  -31.4654  -12.4212   19.1508 H   0  0  0  0  0  0
  -30.3132  -11.3396   19.8801 H   0  0  0  0  0  0
  -29.7460  -11.7489   17.4639 H   0  0  0  0  0  0
  -29.6625  -13.4675   17.7565 H   0  0  0  0  0  0
  -27.8361  -11.3020   18.8453 H   0  0  0  0  0  0
  -27.3698  -12.6091   17.7899 H   0  0  0  0  0  0
  -27.6772  -14.2557   19.5379 H   0  0  0  0  0  0
  -28.6830  -12.0404   21.3884 H   0  0  0  0  0  0
  -28.4609  -13.7046   21.8438 H   0  0  0  0  0  0
  -25.2765   -9.5675   22.4769 H   0  0  0  0  0  0
  -24.0007   -7.4636   22.7485 H   0  0  0  0  0  0
  -21.0865   -8.8780   19.8940 H   0  0  0  0  0  0
  -22.3728  -10.9678   19.6165 H   0  0  0  0  0  0
  -21.1994   -7.6149   23.9712 H   0  0  0  0  0  0
  -21.1488   -6.0532   25.9078 H   0  0  0  0  0  0
  -22.0596   -2.7623   23.2843 H   0  0  0  0  0  0
  -22.4109  -11.9857   22.4759 H   0  0  0  0  0  0
  -21.1102  -13.1215   22.2614 H   0  0  0  0  0  0
  -24.6545  -15.8422   20.5038 H   0  0  0  0  0  0
  -26.2647  -15.6249   20.0454 H   0  0  0  0  0  0
  -26.7154  -32.5472   23.1121 H   0  0  0  0  0  0
  -25.0165  -33.9742   25.0511 H   0  0  0  0  0  0
  -22.7009  -31.3058   21.4068 H   0  0  0  0  0  0
  -23.3769  -35.9585   23.3310 H   0  0  0  0  0  0
  -24.3562  -36.8904   22.2052 H   0  0  0  0  0  0
  -23.7215  -37.6466   23.6672 H   0  0  0  0  0  0
  -26.0696  -31.5801   20.6070 H   0  0  0  0  0  0
  -26.8243  -30.8558   21.9982 H   0  0  0  0  0  0
  -28.1057  -29.0548   21.1592 H   0  0  0  0  0  0
  -25.9793  -25.9292   19.0520 H   0  0  0  0  0  0
  -23.9655  -27.2857   19.0519 H   0  0  0  0  0  0
  -23.7241  -30.5908   19.4023 H   0  0  0  0  0  0
  -22.7424  -29.2360   19.8704 H   0  0  0  0  0  0
  -25.1294  -36.1941   25.0821 H   0  0  0  0  0  0
  -20.9943  -28.3237   24.1410 H   0  0  0  0  0  0
  -20.5642  -26.2273   23.3606 H   0  0  0  0  0  0
  -21.6625  -26.7407   22.1212 H   0  0  0  0  0  0
  -19.6885  -25.6287   21.1227 H   0  0  0  0  0  0
  -19.6663  -27.3190   20.6744 H   0  0  0  0  0  0
  -17.4176  -26.6686   21.4006 H   0  0  0  0  0  0
  -18.0294  -26.0031   22.8985 H   0  0  0  0  0  0
  -19.7934  -30.7294   24.2183 H   0  0  0  0  0  0
  -17.5012  -31.6234   24.5190 H   0  0  0  0  0  0
  -15.5355  -30.2958   23.7685 H   0  0  0  0  0  0
  -15.8666  -28.0826   22.7050 H   0  0  0  0  0  0
  -24.5982  -30.6975   25.7805 H   0  0  0  0  0  0
  -24.8957  -32.2802   26.4926 H   0  0  0  0  0  0
  -25.8154  -30.8832   27.0222 H   0  0  0  0  0  0
  -26.2952  -29.6708   24.1264 H   0  0  0  0  0  0
  -27.4216  -29.7315   25.4623 H   0  0  0  0  0  0
  -27.8752  -30.4327   23.9284 H   0  0  0  0  0  0
  -27.2703  -33.3635   26.2027 H   0  0  0  0  0  0
  -28.3906  -32.6828   25.0323 H   0  0  0  0  0  0
  -28.0724  -31.8465   26.5434 H   0  0  0  0  0  0
  -28.2602  -38.0080   24.7532 H   0  0  0  0  0  0
  -28.1061  -36.2617   24.6313 H   0  0  0  0  0  0
  -27.2277  -37.1456   25.8872 H   0  0  0  0  0  0
  -20.9319  -29.8764   21.6925 H   0  0  0  0  0  0
  -26.0176  -38.2853   24.1441 H   0  0  0  0  0  0
  -24.7498  -22.3687   19.6033 H   0  0  0  0  0  0
  -25.7676  -23.2980   20.6811 H   0  0  0  0  0  0
  -25.9605  -21.5516   20.5784 H   0  0  0  0  0  0
  -25.5949  -21.5260   17.3881 H   0  0  0  0  0  0
  -26.7808  -20.5280   18.2114 H   0  0  0  0  0  0
  -27.2908  -21.6531   16.9576 H   0  0  0  0  0  0
  -27.8631  -25.3860   18.4971 H   0  0  0  0  0  0
  -29.5326  -25.4277   18.9104 H   0  0  0  0  0  0
  -28.8916  -22.8547   18.4373 H   0  0  0  0  0  0
  -26.5200  -23.5617   18.3397 H   0  0  0  0  0  0
  -32.7034  -20.4669   19.5191 H   0  0  0  0  0  0
  -33.4336  -18.9181   19.4754 H   0  0  0  0  0  0
  -28.9924  -15.4276   21.1591 H   0  0  0  0  0  0
  -27.9212  -20.7468   19.9558 H   0  0  0  0  0  0
  1 25  1  0  0  0
  1 30  2  0  0  0
  1 83  1  0  0  0
  2  3  1  0  0  0
  2 25  1  0  0  0
  2 88  1  0  0  0
  2 89  1  0  0  0
  3  4  1  0  0  0
  3 90  1  0  0  0
  3 91  1  0  0  0
  4  5  1  0  0  0
  4 92  1  0  0  0
  4 93  1  0  0  0
  5  6  1  0  0  0
  5 26  1  0  0  0
  5 94  1  0  0  0
  6 25  1  0  0  0
  6 95  1  0  0  0
  6 96  1  0  0  0
  7  8  2  0  0  0
  7 26  1  0  0  0
  7 29  1  0  0  0
  8  9  1  0  0  0
  8 22  1  0  0  0
  9 10  1  0  0  0
  9 27  2  0  0  0
 10 11  2  0  0  0
 10 15  1  0  0  0
 11 12  1  0  0  0
 11 97  1  0  0  0
 12 13  2  0  0  0
 12 98  1  0  0  0
 13 14  1  0  0  0
 13 31  1  0  0  0
 14 15  2  0  0  0
 14 99  1  0  0  0
 15100  1  0  0  0
 16 17  2  0  0  0
 16 21  1  0  0  0
 16 31  1  0  0  0
 17 18  1  0  0  0
 17101  1  0  0  0
 18 19  2  0  0  0
 18102  1  0  0  0
 19 20  1  0  0  0
 19 24  1  0  0  0
 20 21  2  0  0  0
 20103  1  0  0  0
 21 23  1  0  0  0
 22 28  1  0  0  0
 22 32  2  0  0  0
 26 27  1  0  0  0
 28104  1  0  0  0
 28105  1  0  0  0
 29106  1  0  0  0
 29107  1  0  0  0
 33 34  1  0  0  0
 33 66  1  0  0  0
 33 70  2  0  0  0
 34 36  1  0  0  0
 34 59  1  0  0  0
 34108  1  0  0  0
 35 44  2  0  0  0
 35 45  1  0  0  0
 35 68  1  0  0  0
 36 56  1  0  0  0
 36109  1  0  0  0
 37 39  1  0  0  0
 37 47  1  0  0  0
 37 66  1  0  0  0
 37110  1  0  0  0
 38 43  2  0  0  0
 38 46  1  0  0  0
 38 47  1  0  0  0
 39 64  1  0  0  0
 39 67  2  0  0  0
 40 52  1  0  0  0
 40 53  2  0  0  0
 40 58  1  0  0  0
 41111  1  0  0  0
 41112  1  0  0  0
 41113  1  0  0  0
 41 48  1  0  0  0
 42 43  1  0  0  0
 42 66  1  0  0  0
 42114  1  0  0  0
 42115  1  0  0  0
 43 44  1  0  0  0
 44116  1  0  0  0
 45 46  2  0  0  0
 45117  1  0  0  0
 46118  1  0  0  0
 47119  1  0  0  0
 47120  1  0  0  0
 48 56  1  0  0  0
 48 65  1  0  0  0
 48121  1  0  0  0
 49 50  1  0  0  0
 49 53  1  0  0  0
 49 64  1  0  0  0
 49122  1  0  0  0
 50 51  1  0  0  0
 50123  1  0  0  0
 50124  1  0  0  0
 51 52  1  0  0  0
 51125  1  0  0  0
 51126  1  0  0  0
 52127  1  0  0  0
 52128  1  0  0  0
 53 54  1  0  0  0
 54 55  2  0  0  0
 54129  1  0  0  0
 55 57  1  0  0  0
 55130  1  0  0  0
 56 69  2  0  0  0
 57 58  2  0  0  0
 57131  1  0  0  0
 58132  1  0  0  0
 59 60  1  0  0  0
 59 61  1  0  0  0
 59 62  1  0  0  0
 60133  1  0  0  0
 60134  1  0  0  0
 60135  1  0  0  0
 61136  1  0  0  0
 61137  1  0  0  0
 61138  1  0  0  0
 62139  1  0  0  0
 62140  1  0  0  0
 62141  1  0  0  0
 63 65  1  0  0  0
 63142  1  0  0  0
 63143  1  0  0  0
 63144  1  0  0  0
 64145  1  0  0  0
 65146  1  0  0  0
 68 78  1  0  0  0
 71 72  2  0  0  0
 71 74  1  0  0  0
 71 87  1  0  0  0
 72 81  1  0  0  0
 72 82  1  0  0  0
 73 81  2  0  0  0
 73 83  1  0  0  0
 73 87  1  0  0  0
 74 84  1  0  0  0
 74 85  2  0  0  0
 75 78  1  0  0  0
 75 79  1  0  0  0
 75 86  2  0  0  0
 76147  1  0  0  0
 76148  1  0  0  0
 76149  1  0  0  0
 76 80  1  0  0  0
 77 80  1  0  0  0
 77150  1  0  0  0
 77151  1  0  0  0
 77152  1  0  0  0
 78153  1  0  0  0
 78154  1  0  0  0
 79 80  1  0  0  0
 79 84  1  0  0  0
 79155  1  0  0  0
 80156  1  0  0  0
 82157  1  0  0  0
 82158  1  0  0  0
 83159  1  0  0  0
 84160  1  0  0  0
M  ISO  4   1 100  68 101  78 101  83 100
M  END
> <chiral flag>
0

> <version>
0

> <s_m_source_file>
/data/baiqing/PycharmProjects/Reinvent-master-3.2/result/LINK_invent/BTK/process_docking_weight1_custom_product_contain_oxygen_bond_distance_aromatic_linkinvent_7_9_3/rearranged_h_0180.sdf

> <i_m_source_file_index>
87

> <r_mmod_Potential_Energy-OPLS-2005>
-110.648727416992

> <r_mmod_Stretch_Energy-OPLS-2005>
56.3072280883789

> <r_mmod_Bend_Energy-OPLS-2005>
135.733352661133

> <r_mmod_Torsional_Energy-OPLS-2005>
235.133819580078

> <r_mmod_Improper_Torsional_Energy-OPLS-2005>
8.27573490142822

> <r_mmod_Van_der_Waal_Energy-OPLS-2005>
126.877319335938

> <r_mmod_Electrostatic_Energy-OPLS-2005>
-418.121124267578

> <r_mmod_Solvation_Energy-OPLS-2005>
-280.751159667969

> <b_mmod_Minimization_Converged-OPLS-2005>
0

> <r_mmod_RMS_Derivative-OPLS-2005>
1.57931625843048

$$$$
87
                    3D
 Structure written by MMmdl.
155163  0  0  1  0            999 V2000
  -30.5153  -14.8108   20.4806 C   0  0  0  0  0  0
  -30.4610  -12.5029   19.4777 C   0  0  0  0  0  0
  -29.5179  -12.5174   18.2484 C   0  0  0  0  0  0
  -28.0497  -12.3115   18.6728 C   0  0  0  0  0  0
  -27.6452  -13.2157   19.8626 C   0  0  2  0  0  0
  -28.6903  -13.1203   20.9969 C   0  0  0  0  0  0
  -25.2525  -13.8106   20.5681 C   0  0  0  0  0  0
  -24.1806  -13.0400   20.9250 C   0  0  0  0  0  0
  -24.6386  -11.6868   20.8806 C   0  0  0  0  0  0
  -23.9051  -10.4250   21.0434 C   0  0  0  0  0  0
  -24.3600   -9.4164   21.9204 C   0  0  0  0  0  0
  -23.6274   -8.2195   22.0756 C   0  0  0  0  0  0
  -22.4263   -8.0253   21.3530 C   0  0  0  0  0  0
  -21.9900   -9.0230   20.4649 C   0  0  0  0  0  0
  -22.7230  -10.2106   20.3075 C   0  0  0  0  0  0
  -21.6833   -6.0736   22.5283 C   0  0  0  0  0  0
  -21.3991   -6.5637   23.8221 C   0  0  0  0  0  0
  -21.3655   -5.6791   24.9177 C   0  0  0  0  0  0
  -21.6037   -4.3055   24.7225 C   0  0  0  0  0  0
  -21.8822   -3.8149   23.4348 C   0  0  0  0  0  0
  -21.9178   -4.6964   22.3403 C   0  0  0  0  0  0
  -22.7841  -13.5202   21.1879 C   0  0  0  0  0  0
  -22.1657   -4.2150   21.0990 F   0  0  0  0  0  0
  -21.5616   -3.4550   25.7739 F   0  0  0  0  0  0
  -29.9861  -13.5337   20.4339 N   0  0  0  0  0  0
  -26.2945  -12.9294   20.3300 N   0  0  0  0  0  0
  -25.9306  -11.6465   20.5790 N   0  0  0  0  0  0
  -22.0496  -12.8207   22.0477 N   0  0  0  0  0  0
  -25.4256  -15.1781   20.3938 N   0  0  0  0  0  0
  -31.6796  -15.0067   20.1144 O   0  0  0  0  0  0
  -21.6619   -6.8863   21.4235 O   0  0  0  0  0  0
  -22.3541  -14.5511   20.6733 O   0  0  0  0  0  0
  -24.6353  -31.8528   23.1990 C   0  0  0  0  0  0
  -25.9158  -32.4735   23.8332 C   0  0  1  0  0  0
  -27.2121  -27.2208   20.1371 C   0  0  0  0  0  0
  -25.5931  -33.8543   24.2241 N   0  0  0  0  0  0
  -23.4324  -30.4788   21.5431 C   0  0  2  0  0  0
  -24.8809  -28.9236   20.1114 C   0  0  0  0  0  0
  -22.7501  -29.4612   22.4900 C   0  0  0  0  0  0
  -18.0313  -28.1372   22.8481 C   0  0  0  0  0  0
  -24.1492  -36.7258   23.2644 C   0  0  0  0  0  0
  -25.9836  -30.7512   21.3924 C   0  0  0  0  0  0
  -26.0536  -29.3700   20.7346 C   0  0  0  0  0  0
  -27.2213  -28.5307   20.7417 C   0  0  0  0  0  0
  -26.0341  -26.8868   19.4347 C   0  0  0  0  0  0
  -24.8788  -27.6871   19.4505 C   0  0  0  0  0  0
  -23.6528  -29.8145   20.1591 C   0  0  0  0  0  0
  -25.4121  -36.3058   24.0331 C   0  0  1  0  0  0
  -20.5908  -28.3722   23.1259 C   0  0  2  0  0  0
  -20.6821  -26.9418   22.5436 C   0  0  0  0  0  0
  -19.5803  -26.6376   21.5242 C   0  0  0  0  0  0
  -18.1988  -26.7917   22.1624 C   0  0  0  0  0  0
  -19.1551  -28.8868   23.2868 C   0  0  0  0  0  0
  -18.9449  -30.1477   23.8856 C   0  0  0  0  0  0
  -17.6439  -30.6578   24.0531 C   0  0  0  0  0  0
  -25.9064  -34.9433   23.5083 C   0  0  0  0  0  0
  -16.5341  -29.9052   23.6307 C   0  0  0  0  0  0
  -16.7285  -28.6479   23.0328 C   0  0  0  0  0  0
  -26.4514  -31.6586   25.0742 C   0  0  0  0  0  0
  -25.3727  -31.3750   26.1445 C   0  0  0  0  0  0
  -27.0371  -30.2990   24.6291 C   0  0  0  0  0  0
  -27.6051  -32.4335   25.7515 C   0  0  0  0  0  0
  -27.5578  -37.1794   24.8473 C   0  0  0  0  0  0
  -21.4214  -29.3053   22.3621 N   0  0  0  0  0  0
  -26.4286  -37.3763   23.9417 N   0  0  0  0  0  0
  -24.7021  -31.0467   22.0997 N   0  0  0  0  0  0
  -23.4185  -28.8158   23.3028 O   0  0  0  0  0  0
  -28.2919  -26.2893   20.1495 O   0  0  0  0  0  0
  -26.5641  -34.8913   22.4666 O   0  0  0  0  0  0
  -23.5498  -32.1358   23.7263 O   0  0  0  0  0  0
  -30.1389  -18.5262   20.5182 C   0  0  0  0  0  0
  -28.0562  -17.7025   20.5288 C   0  0  0  0  0  0
  -29.3628  -17.2815   20.5900 C   0  0  0  0  0  0
  -29.2608  -19.6317   20.4112 C   0  0  0  0  0  0
  -28.8909  -22.1288   19.8844 C   0  0  0  0  0  0
  -26.7199  -24.2241   20.5747 C   0  0  0  0  0  0
  -26.6943  -19.8061   20.4752 C   0  0  0  0  0  0
  -29.2596  -23.6744   20.2006 C   0  0  0  0  0  0
  -28.1463  -24.8250   20.5979 C   0  0  1  0  0  0
  -27.9681  -19.0935   20.4467 N   0  0  0  0  0  0
  -29.6270  -15.8234   20.8480 N   0  0  0  0  0  0
  -29.5589  -21.0212   20.4201 N   0  0  0  0  0  0
  -28.0314  -21.9515   19.0198 O   0  0  0  0  0  0
  -31.4862  -12.6928   19.1572 H   0  0  0  0  0  0
  -30.4718  -11.5205   19.9540 H   0  0  0  0  0  0
  -29.8103  -11.7404   17.5418 H   0  0  0  0  0  0
  -29.6203  -13.4666   17.7228 H   0  0  0  0  0  0
  -27.9330  -11.2675   18.9662 H   0  0  0  0  0  0
  -27.3837  -12.4671   17.8244 H   0  0  0  0  0  0
  -27.6480  -14.2357   19.4825 H   0  0  0  0  0  0
  -28.7435  -12.0986   21.3771 H   0  0  0  0  0  0
  -28.4071  -13.7362   21.8518 H   0  0  0  0  0  0
  -25.2733   -9.5627   22.4816 H   0  0  0  0  0  0
  -23.9969   -7.4567   22.7474 H   0  0  0  0  0  0
  -21.0830   -8.8750   19.8961 H   0  0  0  0  0  0
  -22.3679  -10.9655   19.6205 H   0  0  0  0  0  0
  -21.1994   -7.6157   23.9712 H   0  0  0  0  0  0
  -21.1469   -6.0538   25.9077 H   0  0  0  0  0  0
  -22.0616   -2.7623   23.2857 H   0  0  0  0  0  0
  -22.4091  -11.9811   22.4772 H   0  0  0  0  0  0
  -21.1137  -13.1240   22.2733 H   0  0  0  0  0  0
  -24.6368  -15.8152   20.4183 H   0  0  0  0  0  0
  -26.2110  -15.5416   19.8724 H   0  0  0  0  0  0
  -26.7218  -32.5385   23.1066 H   0  0  0  0  0  0
  -25.0047  -33.9673   25.0364 H   0  0  0  0  0  0
  -22.7306  -31.3026   21.3971 H   0  0  0  0  0  0
  -23.3758  -35.9587   23.3312 H   0  0  0  0  0  0
  -24.3573  -36.8879   22.2056 H   0  0  0  0  0  0
  -23.7244  -37.6465   23.6659 H   0  0  0  0  0  0
  -26.1351  -31.5094   20.6222 H   0  0  0  0  0  0
  -26.8571  -30.7944   22.0328 H   0  0  0  0  0  0
  -28.1151  -28.8632   21.2518 H   0  0  0  0  0  0
  -25.9847  -25.9714   18.8661 H   0  0  0  0  0  0
  -23.9936  -27.3465   18.9321 H   0  0  0  0  0  0
  -23.7761  -30.5904   19.4015 H   0  0  0  0  0  0
  -22.7701  -29.2480   19.8551 H   0  0  0  0  0  0
  -25.1318  -36.1895   25.0822 H   0  0  0  0  0  0
  -21.0004  -28.3350   24.1381 H   0  0  0  0  0  0
  -20.5734  -26.2343   23.3651 H   0  0  0  0  0  0
  -21.6708  -26.7455   22.1243 H   0  0  0  0  0  0
  -19.6981  -25.6274   21.1316 H   0  0  0  0  0  0
  -19.6745  -27.3168   20.6759 H   0  0  0  0  0  0
  -17.4276  -26.6641   21.4026 H   0  0  0  0  0  0
  -18.0430  -26.0073   22.9033 H   0  0  0  0  0  0
  -19.7920  -30.7303   24.2188 H   0  0  0  0  0  0
  -17.4967  -31.6265   24.5100 H   0  0  0  0  0  0
  -15.5329  -30.2927   23.7623 H   0  0  0  0  0  0
  -15.8692  -28.0773   22.7054 H   0  0  0  0  0  0
  -24.5905  -30.7086   25.7770 H   0  0  0  0  0  0
  -24.8898  -32.2917   26.4839 H   0  0  0  0  0  0
  -25.8024  -30.8949   27.0244 H   0  0  0  0  0  0
  -26.2980  -29.6710   24.1282 H   0  0  0  0  0  0
  -27.3979  -29.7287   25.4864 H   0  0  0  0  0  0
  -27.8896  -30.4229   23.9605 H   0  0  0  0  0  0
  -27.2655  -33.3647   26.2061 H   0  0  0  0  0  0
  -28.3877  -32.6874   25.0349 H   0  0  0  0  0  0
  -28.0694  -31.8473   26.5461 H   0  0  0  0  0  0
  -28.2617  -38.0072   24.7506 H   0  0  0  0  0  0
  -28.1056  -36.2604   24.6318 H   0  0  0  0  0  0
  -27.2289  -37.1472   25.8876 H   0  0  0  0  0  0
  -20.9432  -29.8683   21.6714 H   0  0  0  0  0  0
  -26.0162  -38.2839   24.1402 H   0  0  0  0  0  0
  -31.2157  -18.6029   20.5876 H   0  0  0  0  0  0
  -27.1399  -17.1352   20.5943 H   0  0  0  0  0  0
  -26.6781  -23.2946   21.1437 H   0  0  0  0  0  0
  -26.3959  -23.9787   19.5641 H   0  0  0  0  0  0
  -25.9790  -24.8705   21.0391 H   0  0  0  0  0  0
  -25.9224  -19.1849   20.9298 H   0  0  0  0  0  0
  -26.3774  -20.0788   19.4672 H   0  0  0  0  0  0
  -26.7771  -20.7133   21.0711 H   0  0  0  0  0  0
  -29.7776  -24.0329   19.3098 H   0  0  0  0  0  0
  -30.0307  -23.6605   20.9710 H   0  0  0  0  0  0
  -28.3180  -24.9413   21.6688 H   0  0  0  0  0  0
  -28.7889  -15.3642   21.1733 H   0  0  0  0  0  0
  -30.4052  -21.2671   20.9167 H   0  0  0  0  0  0
  1 25  1  0  0  0
  1 30  2  0  0  0
  1 81  1  0  0  0
  2  3  1  0  0  0
  2 25  1  0  0  0
  2 84  1  0  0  0
  2 85  1  0  0  0
  3  4  1  0  0  0
  3 86  1  0  0  0
  3 87  1  0  0  0
  4  5  1  0  0  0
  4 88  1  0  0  0
  4 89  1  0  0  0
  5  6  1  0  0  0
  5 26  1  0  0  0
  5 90  1  0  0  0
  6 25  1  0  0  0
  6 91  1  0  0  0
  6 92  1  0  0  0
  7  8  2  0  0  0
  7 26  1  0  0  0
  7 29  1  0  0  0
  8  9  1  0  0  0
  8 22  1  0  0  0
  9 10  1  0  0  0
  9 27  2  0  0  0
 10 11  2  0  0  0
 10 15  1  0  0  0
 11 12  1  0  0  0
 11 93  1  0  0  0
 12 13  2  0  0  0
 12 94  1  0  0  0
 13 14  1  0  0  0
 13 31  1  0  0  0
 14 15  2  0  0  0
 14 95  1  0  0  0
 15 96  1  0  0  0
 16 17  2  0  0  0
 16 21  1  0  0  0
 16 31  1  0  0  0
 17 18  1  0  0  0
 17 97  1  0  0  0
 18 19  2  0  0  0
 18 98  1  0  0  0
 19 20  1  0  0  0
 19 24  1  0  0  0
 20 21  2  0  0  0
 20 99  1  0  0  0
 21 23  1  0  0  0
 22 28  1  0  0  0
 22 32  2  0  0  0
 26 27  1  0  0  0
 28100  1  0  0  0
 28101  1  0  0  0
 29102  1  0  0  0
 29103  1  0  0  0
 33 34  1  0  0  0
 33 66  1  0  0  0
 33 70  2  0  0  0
 34 36  1  0  0  0
 34 59  1  0  0  0
 34104  1  0  0  0
 35 44  2  0  0  0
 35 45  1  0  0  0
 35 68  1  0  0  0
 36 56  1  0  0  0
 36105  1  0  0  0
 37 39  1  0  0  0
 37 47  1  0  0  0
 37 66  1  0  0  0
 37106  1  0  0  0
 38 43  2  0  0  0
 38 46  1  0  0  0
 38 47  1  0  0  0
 39 64  1  0  0  0
 39 67  2  0  0  0
 40 52  1  0  0  0
 40 53  2  0  0  0
 40 58  1  0  0  0
 41107  1  0  0  0
 41108  1  0  0  0
 41109  1  0  0  0
 41 48  1  0  0  0
 42 43  1  0  0  0
 42 66  1  0  0  0
 42110  1  0  0  0
 42111  1  0  0  0
 43 44  1  0  0  0
 44112  1  0  0  0
 45 46  2  0  0  0
 45113  1  0  0  0
 46114  1  0  0  0
 47115  1  0  0  0
 47116  1  0  0  0
 48 56  1  0  0  0
 48 65  1  0  0  0
 48117  1  0  0  0
 49 50  1  0  0  0
 49 53  1  0  0  0
 49 64  1  0  0  0
 49118  1  0  0  0
 50 51  1  0  0  0
 50119  1  0  0  0
 50120  1  0  0  0
 51 52  1  0  0  0
 51121  1  0  0  0
 51122  1  0  0  0
 52123  1  0  0  0
 52124  1  0  0  0
 53 54  1  0  0  0
 54 55  2  0  0  0
 54125  1  0  0  0
 55 57  1  0  0  0
 55126  1  0  0  0
 56 69  2  0  0  0
 57 58  2  0  0  0
 57127  1  0  0  0
 58128  1  0  0  0
 59 60  1  0  0  0
 59 61  1  0  0  0
 59 62  1  0  0  0
 60129  1  0  0  0
 60130  1  0  0  0
 60131  1  0  0  0
 61132  1  0  0  0
 61133  1  0  0  0
 61134  1  0  0  0
 62135  1  0  0  0
 62136  1  0  0  0
 62137  1  0  0  0
 63 65  1  0  0  0
 63138  1  0  0  0
 63139  1  0  0  0
 63140  1  0  0  0
 64141  1  0  0  0
 65142  1  0  0  0
 68 79  1  0  0  0
 71 73  1  0  0  0
 71 74  2  0  0  0
 71143  1  0  0  0
 72 73  2  0  0  0
 72 80  1  0  0  0
 72144  1  0  0  0
 73 81  1  0  0  0
 74 80  1  0  0  0
 74 82  1  0  0  0
 75 78  1  0  0  0
 75 82  1  0  0  0
 75 83  2  0  0  0
 76145  1  0  0  0
 76146  1  0  0  0
 76147  1  0  0  0
 76 79  1  0  0  0
 77 80  1  0  0  0
 77148  1  0  0  0
 77149  1  0  0  0
 77150  1  0  0  0
 78 79  1  0  0  0
 78151  1  0  0  0
 78152  1  0  0  0
 79153  1  0  0  0
 81154  1  0  0  0
 82155  1  0  0  0
M  ISO  4   1 100  68 101  79 101  81 100
M  END
> <chiral flag>
0

> <version>
0

> <s_m_source_file>
/data/baiqing/PycharmProjects/Reinvent-master-3.2/result/LINK_invent/BTK/process_docking_weight1_custom_product_contain_oxygen_bond_distance_aromatic_linkinvent_7_9_3/rearranged_h_0180.sdf

> <i_m_source_file_index>
88

> <r_mmod_Potential_Energy-OPLS-2005>
298.898315429688

> <r_mmod_Stretch_Energy-OPLS-2005>
153.61408996582

> <r_mmod_Bend_Energy-OPLS-2005>
252.933319091797

> <r_mmod_Torsional_Energy-OPLS-2005>
252.377380371094

> <r_mmod_Improper_Torsional_Energy-OPLS-2005>
8.54763412475586

> <r_mmod_Van_der_Waal_Energy-OPLS-2005>
131.09326171875

> <r_mmod_Electrostatic_Energy-OPLS-2005>
-384.124542236328

> <r_mmod_Solvation_Energy-OPLS-2005>
-232.344680786133

> <b_mmod_Minimization_Converged-OPLS-2005>
0

> <r_mmod_RMS_Derivative-OPLS-2005>
4.21440172195435

$$$$
88
                    3D
 Structure written by MMmdl.
152160  0  0  1  0            999 V2000
  -30.6077  -14.7615   20.4198 C   0  0  0  0  0  0
  -30.4367  -12.4522   19.4853 C   0  0  0  0  0  0
  -29.5183  -12.5094   18.2431 C   0  0  0  0  0  0
  -28.0419  -12.3317   18.6487 C   0  0  0  0  0  0
  -27.6406  -13.2365   19.8435 C   0  0  2  0  0  0
  -28.6849  -13.1869   20.9774 C   0  0  0  0  0  0
  -25.2482  -13.8153   20.5754 C   0  0  0  0  0  0
  -24.1782  -13.0389   20.9223 C   0  0  0  0  0  0
  -24.6399  -11.6886   20.8734 C   0  0  0  0  0  0
  -23.9079  -10.4268   21.0395 C   0  0  0  0  0  0
  -24.3624   -9.4189   21.9180 C   0  0  0  0  0  0
  -23.6292   -8.2231   22.0754 C   0  0  0  0  0  0
  -22.4274   -8.0273   21.3544 C   0  0  0  0  0  0
  -21.9912   -9.0246   20.4644 C   0  0  0  0  0  0
  -22.7248  -10.2118   20.3048 C   0  0  0  0  0  0
  -21.6850   -6.0733   22.5280 C   0  0  0  0  0  0
  -21.4012   -6.5638   23.8214 C   0  0  0  0  0  0
  -21.3659   -5.6791   24.9176 C   0  0  0  0  0  0
  -21.6044   -4.3054   24.7227 C   0  0  0  0  0  0
  -21.8819   -3.8145   23.4348 C   0  0  0  0  0  0
  -21.9192   -4.6961   22.3404 C   0  0  0  0  0  0
  -22.7805  -13.5177   21.1883 C   0  0  0  0  0  0
  -22.1661   -4.2147   21.0981 F   0  0  0  0  0  0
  -21.5630   -3.4538   25.7740 F   0  0  0  0  0  0
  -29.9984  -13.5230   20.4105 N   0  0  0  0  0  0
  -26.2932  -12.9406   20.3254 N   0  0  0  0  0  0
  -25.9328  -11.6533   20.5707 N   0  0  0  0  0  0
  -22.0456  -12.8171   22.0444 N   0  0  0  0  0  0
  -25.4061  -15.1869   20.4306 N   0  0  0  0  0  0
  -31.8133  -14.8138   20.1680 O   0  0  0  0  0  0
  -21.6634   -6.8875   21.4242 O   0  0  0  0  0  0
  -22.3481  -14.5481   20.6729 O   0  0  0  0  0  0
  -24.6337  -31.8556   23.2009 C   0  0  0  0  0  0
  -25.9159  -32.4756   23.8348 C   0  0  1  0  0  0
  -27.2149  -27.2444   20.1139 C   0  0  0  0  0  0
  -25.5950  -33.8559   24.2263 N   0  0  0  0  0  0
  -23.4303  -30.4823   21.5453 C   0  0  2  0  0  0
  -24.8758  -28.9365   20.1093 C   0  0  0  0  0  0
  -22.7515  -29.4609   22.4907 C   0  0  0  0  0  0
  -18.0296  -28.1389   22.8483 C   0  0  0  0  0  0
  -24.1491  -36.7281   23.2639 C   0  0  0  0  0  0
  -25.9812  -30.7597   21.3889 C   0  0  0  0  0  0
  -26.0503  -29.3832   20.7269 C   0  0  0  0  0  0
  -27.2181  -28.5478   20.7266 C   0  0  0  0  0  0
  -26.0135  -26.8910   19.4490 C   0  0  0  0  0  0
  -24.8640  -27.6976   19.4613 C   0  0  0  0  0  0
  -23.6492  -29.8254   20.1593 C   0  0  0  0  0  0
  -25.4119  -36.3069   24.0324 C   0  0  1  0  0  0
  -20.5902  -28.3705   23.1258 C   0  0  2  0  0  0
  -20.6784  -26.9421   22.5402 C   0  0  0  0  0  0
  -19.5756  -26.6384   21.5210 C   0  0  0  0  0  0
  -18.1938  -26.7930   22.1625 C   0  0  0  0  0  0
  -19.1550  -28.8864   23.2866 C   0  0  0  0  0  0
  -18.9470  -30.1463   23.8887 C   0  0  0  0  0  0
  -17.6468  -30.6589   24.0562 C   0  0  0  0  0  0
  -25.9062  -34.9439   23.5093 C   0  0  0  0  0  0
  -16.5359  -29.9085   23.6332 C   0  0  0  0  0  0
  -16.7282  -28.6503   23.0354 C   0  0  0  0  0  0
  -26.4513  -31.6584   25.0744 C   0  0  0  0  0  0
  -25.3723  -31.3743   26.1454 C   0  0  0  0  0  0
  -27.0366  -30.2993   24.6261 C   0  0  0  0  0  0
  -27.6060  -32.4332   25.7520 C   0  0  0  0  0  0
  -27.5578  -37.1799   24.8466 C   0  0  0  0  0  0
  -21.4221  -29.3052   22.3647 N   0  0  0  0  0  0
  -26.4292  -37.3769   23.9407 N   0  0  0  0  0  0
  -24.7009  -31.0505   22.1004 N   0  0  0  0  0  0
  -23.4208  -28.8136   23.3002 O   0  0  0  0  0  0
  -28.2959  -26.3173   20.1937 O   0  0  0  0  0  0
  -26.5630  -34.8913   22.4660 O   0  0  0  0  0  0
  -23.5481  -32.1393   23.7287 O   0  0  0  0  0  0
  -28.1416  -20.0975   19.1572 C   0  0  0  0  0  0
  -28.5477  -18.7116   19.2671 C   0  0  0  0  0  0
  -29.5519  -18.4834   20.1865 C   0  0  0  0  0  0
  -28.8098  -21.0392   19.9126 C   0  0  0  0  0  0
  -30.2440  -17.1497   20.4939 C   0  0  0  0  0  0
  -28.9128  -23.6471   20.2479 C   0  0  0  0  0  0
  -28.4736  -25.0274   18.1275 C   0  0  0  0  0  0
  -28.1376  -24.9215   19.6281 C   0  0  2  0  0  0
  -27.9455  -17.6358   18.4021 C   0  0  0  0  0  0
  -29.7544  -15.9216   20.4950 N   0  0  0  0  0  0
  -28.4791  -22.4046   19.8149 N   0  0  0  0  0  0
  -29.8327  -23.7907   21.0566 O   0  0  0  0  0  0
  -27.0988  -18.1402   17.5035 F   0  0  0  0  0  0
  -28.8792  -16.9715   17.7200 F   0  0  0  0  0  0
  -27.2617  -16.7596   19.1285 F   0  0  0  0  0  0
  -30.0161  -20.1007   20.8596 S   0  0  0  0  0  0
  -31.4800  -12.5620   19.1848 H   0  0  0  0  0  0
  -30.3678  -11.4778   19.9717 H   0  0  0  0  0  0
  -29.8039  -11.7389   17.5259 H   0  0  0  0  0  0
  -29.6464  -13.4661   17.7339 H   0  0  0  0  0  0
  -27.8997  -11.2839   18.9156 H   0  0  0  0  0  0
  -27.3886  -12.5197   17.7960 H   0  0  0  0  0  0
  -27.6302  -14.2551   19.4585 H   0  0  0  0  0  0
  -28.7111  -12.1990   21.4395 H   0  0  0  0  0  0
  -28.4190  -13.8896   21.7689 H   0  0  0  0  0  0
  -25.2769   -9.5666   22.4755 H   0  0  0  0  0  0
  -23.9997   -7.4623   22.7477 H   0  0  0  0  0  0
  -21.0841   -8.8768   19.8952 H   0  0  0  0  0  0
  -22.3710  -10.9658   19.6157 H   0  0  0  0  0  0
  -21.2004   -7.6146   23.9716 H   0  0  0  0  0  0
  -21.1482   -6.0521   25.9079 H   0  0  0  0  0  0
  -22.0599   -2.7607   23.2849 H   0  0  0  0  0  0
  -22.4082  -11.9837   22.4833 H   0  0  0  0  0  0
  -21.1075  -13.1194   22.2655 H   0  0  0  0  0  0
  -24.6367  -15.8358   20.5451 H   0  0  0  0  0  0
  -26.2566  -15.6331   20.1018 H   0  0  0  0  0  0
  -26.7223  -32.5395   23.1084 H   0  0  0  0  0  0
  -25.0094  -33.9698   25.0406 H   0  0  0  0  0  0
  -22.7276  -31.3059   21.4028 H   0  0  0  0  0  0
  -23.3755  -35.9612   23.3300 H   0  0  0  0  0  0
  -24.3580  -36.8906   22.2053 H   0  0  0  0  0  0
  -23.7243  -37.6480   23.6666 H   0  0  0  0  0  0
  -26.1286  -31.5211   20.6218 H   0  0  0  0  0  0
  -26.8558  -30.8030   22.0261 H   0  0  0  0  0  0
  -28.1109  -28.8821   21.2363 H   0  0  0  0  0  0
  -25.8990  -25.9682   18.9057 H   0  0  0  0  0  0
  -23.9693  -27.3545   18.9600 H   0  0  0  0  0  0
  -23.7776  -30.6061   19.4087 H   0  0  0  0  0  0
  -22.7662  -29.2636   19.8493 H   0  0  0  0  0  0
  -25.1301  -36.1915   25.0817 H   0  0  0  0  0  0
  -20.9995  -28.3285   24.1379 H   0  0  0  0  0  0
  -20.5687  -26.2316   23.3610 H   0  0  0  0  0  0
  -21.6651  -26.7444   22.1193 H   0  0  0  0  0  0
  -19.6918  -25.6293   21.1246 H   0  0  0  0  0  0
  -19.6690  -27.3189   20.6735 H   0  0  0  0  0  0
  -17.4205  -26.6673   21.4031 H   0  0  0  0  0  0
  -18.0343  -26.0075   22.9025 H   0  0  0  0  0  0
  -19.7945  -30.7282   24.2253 H   0  0  0  0  0  0
  -17.5022  -31.6268   24.5165 H   0  0  0  0  0  0
  -15.5359  -30.2985   23.7662 H   0  0  0  0  0  0
  -15.8682  -28.0819   22.7075 H   0  0  0  0  0  0
  -24.5908  -30.7082   25.7780 H   0  0  0  0  0  0
  -24.8903  -32.2915   26.4849 H   0  0  0  0  0  0
  -25.8028  -30.8942   27.0250 H   0  0  0  0  0  0
  -26.2965  -29.6734   24.1261 H   0  0  0  0  0  0
  -27.4003  -29.7266   25.4802 H   0  0  0  0  0  0
  -27.8865  -30.4252   23.9549 H   0  0  0  0  0  0
  -27.2663  -33.3640   26.2074 H   0  0  0  0  0  0
  -28.3883  -32.6879   25.0357 H   0  0  0  0  0  0
  -28.0714  -31.8474   26.5456 H   0  0  0  0  0  0
  -28.2596  -38.0096   24.7510 H   0  0  0  0  0  0
  -28.1075  -36.2626   24.6298 H   0  0  0  0  0  0
  -27.2295  -37.1454   25.8869 H   0  0  0  0  0  0
  -20.9407  -29.8786   21.6860 H   0  0  0  0  0  0
  -26.0168  -38.2843   24.1405 H   0  0  0  0  0  0
  -27.3535  -20.3629   18.4664 H   0  0  0  0  0  0
  -31.3132  -17.2804   20.6868 H   0  0  0  0  0  0
  -28.3519  -24.0751   17.6109 H   0  0  0  0  0  0
  -29.5062  -25.3475   17.9868 H   0  0  0  0  0  0
  -27.8377  -25.7501   17.6183 H   0  0  0  0  0  0
  -27.1074  -24.5998   19.7605 H   0  0  0  0  0  0
  -27.6992  -22.5447   19.1876 H   0  0  0  0  0  0
  1 25  1  0  0  0
  1 30  2  0  0  0
  1 80  1  0  0  0
  2  3  1  0  0  0
  2 25  1  0  0  0
  2 87  1  0  0  0
  2 88  1  0  0  0
  3  4  1  0  0  0
  3 89  1  0  0  0
  3 90  1  0  0  0
  4  5  1  0  0  0
  4 91  1  0  0  0
  4 92  1  0  0  0
  5  6  1  0  0  0
  5 26  1  0  0  0
  5 93  1  0  0  0
  6 25  1  0  0  0
  6 94  1  0  0  0
  6 95  1  0  0  0
  7  8  2  0  0  0
  7 26  1  0  0  0
  7 29  1  0  0  0
  8  9  1  0  0  0
  8 22  1  0  0  0
  9 10  1  0  0  0
  9 27  2  0  0  0
 10 11  2  0  0  0
 10 15  1  0  0  0
 11 12  1  0  0  0
 11 96  1  0  0  0
 12 13  2  0  0  0
 12 97  1  0  0  0
 13 14  1  0  0  0
 13 31  1  0  0  0
 14 15  2  0  0  0
 14 98  1  0  0  0
 15 99  1  0  0  0
 16 17  2  0  0  0
 16 21  1  0  0  0
 16 31  1  0  0  0
 17 18  1  0  0  0
 17100  1  0  0  0
 18 19  2  0  0  0
 18101  1  0  0  0
 19 20  1  0  0  0
 19 24  1  0  0  0
 20 21  2  0  0  0
 20102  1  0  0  0
 21 23  1  0  0  0
 22 28  1  0  0  0
 22 32  2  0  0  0
 26 27  1  0  0  0
 28103  1  0  0  0
 28104  1  0  0  0
 29105  1  0  0  0
 29106  1  0  0  0
 33 34  1  0  0  0
 33 66  1  0  0  0
 33 70  2  0  0  0
 34 36  1  0  0  0
 34 59  1  0  0  0
 34107  1  0  0  0
 35 44  2  0  0  0
 35 45  1  0  0  0
 35 68  1  0  0  0
 36 56  1  0  0  0
 36108  1  0  0  0
 37 39  1  0  0  0
 37 47  1  0  0  0
 37 66  1  0  0  0
 37109  1  0  0  0
 38 43  2  0  0  0
 38 46  1  0  0  0
 38 47  1  0  0  0
 39 64  1  0  0  0
 39 67  2  0  0  0
 40 52  1  0  0  0
 40 53  2  0  0  0
 40 58  1  0  0  0
 41110  1  0  0  0
 41111  1  0  0  0
 41112  1  0  0  0
 41 48  1  0  0  0
 42 43  1  0  0  0
 42 66  1  0  0  0
 42113  1  0  0  0
 42114  1  0  0  0
 43 44  1  0  0  0
 44115  1  0  0  0
 45 46  2  0  0  0
 45116  1  0  0  0
 46117  1  0  0  0
 47118  1  0  0  0
 47119  1  0  0  0
 48 56  1  0  0  0
 48 65  1  0  0  0
 48120  1  0  0  0
 49 50  1  0  0  0
 49 53  1  0  0  0
 49 64  1  0  0  0
 49121  1  0  0  0
 50 51  1  0  0  0
 50122  1  0  0  0
 50123  1  0  0  0
 51 52  1  0  0  0
 51124  1  0  0  0
 51125  1  0  0  0
 52126  1  0  0  0
 52127  1  0  0  0
 53 54  1  0  0  0
 54 55  2  0  0  0
 54128  1  0  0  0
 55 57  1  0  0  0
 55129  1  0  0  0
 56 69  2  0  0  0
 57 58  2  0  0  0
 57130  1  0  0  0
 58131  1  0  0  0
 59 60  1  0  0  0
 59 61  1  0  0  0
 59 62  1  0  0  0
 60132  1  0  0  0
 60133  1  0  0  0
 60134  1  0  0  0
 61135  1  0  0  0
 61136  1  0  0  0
 61137  1  0  0  0
 62138  1  0  0  0
 62139  1  0  0  0
 62140  1  0  0  0
 63 65  1  0  0  0
 63141  1  0  0  0
 63142  1  0  0  0
 63143  1  0  0  0
 64144  1  0  0  0
 65145  1  0  0  0
 68 78  1  0  0  0
 71 72  1  0  0  0
 71 74  2  0  0  0
 71146  1  0  0  0
 72 73  2  0  0  0
 72 79  1  0  0  0
 73 75  1  0  0  0
 73 86  1  0  0  0
 74 81  1  0  0  0
 74 86  1  0  0  0
 75 80  2  0  0  0
 75147  1  0  0  0
 76 78  1  0  0  0
 76 81  1  0  0  0
 76 82  2  0  0  0
 77148  1  0  0  0
 77149  1  0  0  0
 77150  1  0  0  0
 77 78  1  0  0  0
 78151  1  0  0  0
 79 83  1  0  0  0
 79 84  1  0  0  0
 79 85  1  0  0  0
 81152  1  0  0  0
M  ISO  4   1 100  68 101  78 101  80 100
M  END
> <chiral flag>
0

> <version>
0

> <s_m_source_file>
/data/baiqing/PycharmProjects/Reinvent-master-3.2/result/LINK_invent/BTK/process_docking_weight1_custom_product_contain_oxygen_bond_distance_aromatic_linkinvent_7_9_3/rearranged_h_0180.sdf

> <i_m_source_file_index>
89

> <r_mmod_Potential_Energy-OPLS-2005>
147.343597412109

> <r_mmod_Stretch_Energy-OPLS-2005>
124.409858703613

> <r_mmod_Bend_Energy-OPLS-2005>
218.029632568359

> <r_mmod_Torsional_Energy-OPLS-2005>
189.257171630859

> <r_mmod_Improper_Torsional_Energy-OPLS-2005>
5.92575979232788

> <r_mmod_Van_der_Waal_Energy-OPLS-2005>
131.018737792969

> <r_mmod_Electrostatic_Energy-OPLS-2005>
-402.466979980469

> <r_mmod_Solvation_Energy-OPLS-2005>
-216.161468505859

> <b_mmod_Minimization_Converged-OPLS-2005>
0

> <r_mmod_RMS_Derivative-OPLS-2005>
0.0757297575473785

$$$$
89
                    3D
 Structure written by MMmdl.
152160  0  0  1  0            999 V2000
  -30.6874  -14.5149   20.5151 C   0  0  0  0  0  0
  -30.4205  -12.3158   19.4362 C   0  0  0  0  0  0
  -29.4965  -12.4992   18.2129 C   0  0  0  0  0  0
  -28.0179  -12.3596   18.6233 C   0  0  0  0  0  0
  -27.6589  -13.2104   19.8711 C   0  0  2  0  0  0
  -28.7020  -13.0267   20.9978 C   0  0  0  0  0  0
  -25.2589  -13.8174   20.5693 C   0  0  0  0  0  0
  -24.1845  -13.0450   20.9181 C   0  0  0  0  0  0
  -24.6403  -11.6912   20.8741 C   0  0  0  0  0  0
  -23.9060  -10.4296   21.0411 C   0  0  0  0  0  0
  -24.3611   -9.4207   21.9190 C   0  0  0  0  0  0
  -23.6285   -8.2245   22.0762 C   0  0  0  0  0  0
  -22.4272   -8.0282   21.3545 C   0  0  0  0  0  0
  -21.9907   -9.0260   20.4651 C   0  0  0  0  0  0
  -22.7235  -10.2139   20.3061 C   0  0  0  0  0  0
  -21.6854   -6.0732   22.5280 C   0  0  0  0  0  0
  -21.4019   -6.5639   23.8216 C   0  0  0  0  0  0
  -21.3661   -5.6794   24.9179 C   0  0  0  0  0  0
  -21.6043   -4.3058   24.7228 C   0  0  0  0  0  0
  -21.8821   -3.8145   23.4353 C   0  0  0  0  0  0
  -21.9200   -4.6960   22.3408 C   0  0  0  0  0  0
  -22.7867  -13.5243   21.1839 C   0  0  0  0  0  0
  -22.1666   -4.2143   21.0990 F   0  0  0  0  0  0
  -21.5621   -3.4548   25.7744 F   0  0  0  0  0  0
  -30.0304  -13.3231   20.4385 N   0  0  0  0  0  0
  -26.3019  -12.9343   20.3360 N   0  0  0  0  0  0
  -25.9331  -11.6500   20.5769 N   0  0  0  0  0  0
  -22.0512  -12.8235   22.0388 N   0  0  0  0  0  0
  -25.4337  -15.1896   20.4106 N   0  0  0  0  0  0
  -31.8437  -14.6483   20.1043 O   0  0  0  0  0  0
  -21.6641   -6.8876   21.4241 O   0  0  0  0  0  0
  -22.3552  -14.5549   20.6690 O   0  0  0  0  0  0
  -24.6179  -31.8668   23.2084 C   0  0  0  0  0  0
  -25.9065  -32.4806   23.8389 C   0  0  1  0  0  0
  -27.2306  -27.4017   20.0920 C   0  0  0  0  0  0
  -25.5918  -33.8608   24.2323 N   0  0  0  0  0  0
  -23.4063  -30.4904   21.5516 C   0  0  2  0  0  0
  -24.8500  -28.9553   20.1143 C   0  0  0  0  0  0
  -22.7422  -29.4659   22.4997 C   0  0  0  0  0  0
  -18.0272  -28.1369   22.8500 C   0  0  0  0  0  0
  -24.1496  -36.7307   23.2639 C   0  0  0  0  0  0
  -25.9395  -30.8201   21.3684 C   0  0  0  0  0  0
  -26.0141  -29.4544   20.7109 C   0  0  0  0  0  0
  -27.2041  -28.6853   20.6966 C   0  0  0  0  0  0
  -26.0380  -26.9255   19.4944 C   0  0  0  0  0  0
  -24.8587  -27.6912   19.5046 C   0  0  0  0  0  0
  -23.6137  -29.8247   20.1664 C   0  0  0  0  0  0
  -25.4120  -36.3106   24.0336 C   0  0  1  0  0  0
  -20.5864  -28.3672   23.1311 C   0  0  2  0  0  0
  -20.6770  -26.9408   22.5416 C   0  0  0  0  0  0
  -19.5750  -26.6386   21.5214 C   0  0  0  0  0  0
  -18.1925  -26.7919   22.1621 C   0  0  0  0  0  0
  -19.1521  -28.8838   23.2900 C   0  0  0  0  0  0
  -18.9450  -30.1444   23.8910 C   0  0  0  0  0  0
  -17.6455  -30.6581   24.0563 C   0  0  0  0  0  0
  -25.9052  -34.9468   23.5130 C   0  0  0  0  0  0
  -16.5345  -29.9081   23.6323 C   0  0  0  0  0  0
  -16.7261  -28.6487   23.0362 C   0  0  0  0  0  0
  -26.4478  -31.6582   25.0720 C   0  0  0  0  0  0
  -25.3730  -31.3693   26.1454 C   0  0  0  0  0  0
  -27.0311  -30.3018   24.6122 C   0  0  0  0  0  0
  -27.6059  -32.4295   25.7479 C   0  0  0  0  0  0
  -27.5587  -37.1814   24.8466 C   0  0  0  0  0  0
  -21.4151  -29.3033   22.3715 N   0  0  0  0  0  0
  -26.4309  -37.3788   23.9398 N   0  0  0  0  0  0
  -24.6730  -31.0744   22.1000 N   0  0  0  0  0  0
  -23.4178  -28.8210   23.3058 O   0  0  0  0  0  0
  -28.3984  -26.6498   20.1202 O   0  0  0  0  0  0
  -26.5615  -34.8917   22.4692 O   0  0  0  0  0  0
  -23.5365  -32.1443   23.7460 O   0  0  0  0  0  0
  -29.5775  -19.1947   20.4480 C   0  0  0  0  0  0
  -30.4768  -19.1239   19.3951 C   0  0  0  0  0  0
  -30.0984  -16.9336   20.5040 C   0  0  0  0  0  0
  -28.3724  -25.3100   19.7621 C   0  0  0  0  0  0
  -28.8208  -20.3968   20.8868 C   0  0  0  0  0  0
  -28.8829  -24.3057   20.5157 C   0  0  0  0  0  0
  -28.8079  -22.8709   20.0788 C   0  0  0  0  0  0
  -30.9176  -20.1837   18.4307 C   0  0  0  0  0  0
  -29.5322  -21.7739   20.9068 C   0  0  0  0  0  0
  -29.3571  -17.9194   21.0353 N   0  0  0  0  0  0
  -29.9544  -15.5735   20.9313 N   0  0  0  0  0  0
  -27.6825  -20.3293   21.3668 O   0  0  0  0  0  0
  -28.2167  -22.5500   19.0421 O   0  0  0  0  0  0
  -29.4710  -24.5712   21.6902 O   0  0  0  0  0  0
  -31.1257  -17.5083   19.1949 S   0  0  0  0  0  0
  -31.4660  -12.4031   19.1334 H   0  0  0  0  0  0
  -30.3141  -11.3114   19.8514 H   0  0  0  0  0  0
  -29.7384  -11.7660   17.4414 H   0  0  0  0  0  0
  -29.6619  -13.4809   17.7664 H   0  0  0  0  0  0
  -27.8305  -11.3049   18.8278 H   0  0  0  0  0  0
  -27.3694  -12.6250   17.7881 H   0  0  0  0  0  0
  -27.6930  -14.2531   19.5542 H   0  0  0  0  0  0
  -28.6825  -12.0034   21.3758 H   0  0  0  0  0  0
  -28.4653  -13.6601   21.8538 H   0  0  0  0  0  0
  -25.2767   -9.5683   22.4751 H   0  0  0  0  0  0
  -23.9999   -7.4643   22.7486 H   0  0  0  0  0  0
  -21.0842   -8.8792   19.8950 H   0  0  0  0  0  0
  -22.3715  -10.9681   19.6164 H   0  0  0  0  0  0
  -21.2012   -7.6151   23.9713 H   0  0  0  0  0  0
  -21.1476   -6.0531   25.9080 H   0  0  0  0  0  0
  -22.0596   -2.7607   23.2867 H   0  0  0  0  0  0
  -22.4134  -11.9887   22.4749 H   0  0  0  0  0  0
  -21.1140  -13.1266   22.2609 H   0  0  0  0  0  0
  -24.6709  -15.8484   20.5198 H   0  0  0  0  0  0
  -26.2908  -15.6277   20.0971 H   0  0  0  0  0  0
  -26.7130  -32.5506   23.1144 H   0  0  0  0  0  0
  -25.0055  -33.9765   25.0460 H   0  0  0  0  0  0
  -22.6972  -31.3087   21.4131 H   0  0  0  0  0  0
  -23.3752  -35.9645   23.3322 H   0  0  0  0  0  0
  -24.3590  -36.8904   22.2051 H   0  0  0  0  0  0
  -23.7250  -37.6521   23.6637 H   0  0  0  0  0  0
  -26.0633  -31.5892   20.6050 H   0  0  0  0  0  0
  -26.8224  -30.8659   21.9939 H   0  0  0  0  0  0
  -28.1023  -29.0679   21.1605 H   0  0  0  0  0  0
  -25.9826  -25.9562   19.0225 H   0  0  0  0  0  0
  -23.9608  -27.2985   19.0467 H   0  0  0  0  0  0
  -23.7205  -30.5993   19.4063 H   0  0  0  0  0  0
  -22.7367  -29.2453   19.8726 H   0  0  0  0  0  0
  -25.1297  -36.1986   25.0827 H   0  0  0  0  0  0
  -20.9952  -28.3239   24.1438 H   0  0  0  0  0  0
  -20.5692  -26.2280   23.3605 H   0  0  0  0  0  0
  -21.6637  -26.7464   22.1203 H   0  0  0  0  0  0
  -19.6922  -25.6303   21.1233 H   0  0  0  0  0  0
  -19.6684  -27.3203   20.6749 H   0  0  0  0  0  0
  -17.4203  -26.6684   21.4013 H   0  0  0  0  0  0
  -18.0320  -26.0046   22.8999 H   0  0  0  0  0  0
  -19.7928  -30.7253   24.2291 H   0  0  0  0  0  0
  -17.5007  -31.6264   24.5161 H   0  0  0  0  0  0
  -15.5346  -30.2987   23.7634 H   0  0  0  0  0  0
  -15.8665  -28.0799   22.7093 H   0  0  0  0  0  0
  -24.5902  -30.7046   25.7772 H   0  0  0  0  0  0
  -24.8911  -32.2847   26.4902 H   0  0  0  0  0  0
  -25.8062  -30.8849   27.0214 H   0  0  0  0  0  0
  -26.2861  -29.6775   24.1169 H   0  0  0  0  0  0
  -27.4063  -29.7259   25.4593 H   0  0  0  0  0  0
  -27.8703  -30.4321   23.9285 H   0  0  0  0  0  0
  -27.2687  -33.3587   26.2082 H   0  0  0  0  0  0
  -28.3845  -32.6870   25.0285 H   0  0  0  0  0  0
  -28.0744  -31.8398   26.5370 H   0  0  0  0  0  0
  -28.2622  -38.0096   24.7501 H   0  0  0  0  0  0
  -28.1073  -36.2631   24.6317 H   0  0  0  0  0  0
  -27.2303  -37.1486   25.8870 H   0  0  0  0  0  0
  -20.9330  -29.8734   21.6906 H   0  0  0  0  0  0
  -26.0209  -38.2875   24.1369 H   0  0  0  0  0  0
  -27.9119  -25.1429   18.7984 H   0  0  0  0  0  0
  -31.7216  -20.7904   18.8469 H   0  0  0  0  0  0
  -30.0959  -20.8421   18.1518 H   0  0  0  0  0  0
  -31.2896  -19.7382   17.5071 H   0  0  0  0  0  0
  -30.5613  -21.6833   20.5690 H   0  0  0  0  0  0
  -29.5834  -22.0897   21.9477 H   0  0  0  0  0  0
  -29.0915  -15.3540   21.4007 H   0  0  0  0  0  0
  -29.4311  -25.5124   21.8062 H   0  0  0  0  0  0
  1 25  1  0  0  0
  1 30  2  0  0  0
  1 81  1  0  0  0
  2  3  1  0  0  0
  2 25  1  0  0  0
  2 86  1  0  0  0
  2 87  1  0  0  0
  3  4  1  0  0  0
  3 88  1  0  0  0
  3 89  1  0  0  0
  4  5  1  0  0  0
  4 90  1  0  0  0
  4 91  1  0  0  0
  5  6  1  0  0  0
  5 26  1  0  0  0
  5 92  1  0  0  0
  6 25  1  0  0  0
  6 93  1  0  0  0
  6 94  1  0  0  0
  7  8  2  0  0  0
  7 26  1  0  0  0
  7 29  1  0  0  0
  8  9  1  0  0  0
  8 22  1  0  0  0
  9 10  1  0  0  0
  9 27  2  0  0  0
 10 11  2  0  0  0
 10 15  1  0  0  0
 11 12  1  0  0  0
 11 95  1  0  0  0
 12 13  2  0  0  0
 12 96  1  0  0  0
 13 14  1  0  0  0
 13 31  1  0  0  0
 14 15  2  0  0  0
 14 97  1  0  0  0
 15 98  1  0  0  0
 16 17  2  0  0  0
 16 21  1  0  0  0
 16 31  1  0  0  0
 17 18  1  0  0  0
 17 99  1  0  0  0
 18 19  2  0  0  0
 18100  1  0  0  0
 19 20  1  0  0  0
 19 24  1  0  0  0
 20 21  2  0  0  0
 20101  1  0  0  0
 21 23  1  0  0  0
 22 28  1  0  0  0
 22 32  2  0  0  0
 26 27  1  0  0  0
 28102  1  0  0  0
 28103  1  0  0  0
 29104  1  0  0  0
 29105  1  0  0  0
 33 34  1  0  0  0
 33 66  1  0  0  0
 33 70  2  0  0  0
 34 36  1  0  0  0
 34 59  1  0  0  0
 34106  1  0  0  0
 35 44  2  0  0  0
 35 45  1  0  0  0
 35 68  1  0  0  0
 36 56  1  0  0  0
 36107  1  0  0  0
 37 39  1  0  0  0
 37 47  1  0  0  0
 37 66  1  0  0  0
 37108  1  0  0  0
 38 43  2  0  0  0
 38 46  1  0  0  0
 38 47  1  0  0  0
 39 64  1  0  0  0
 39 67  2  0  0  0
 40 52  1  0  0  0
 40 53  2  0  0  0
 40 58  1  0  0  0
 41109  1  0  0  0
 41110  1  0  0  0
 41111  1  0  0  0
 41 48  1  0  0  0
 42 43  1  0  0  0
 42 66  1  0  0  0
 42112  1  0  0  0
 42113  1  0  0  0
 43 44  1  0  0  0
 44114  1  0  0  0
 45 46  2  0  0  0
 45115  1  0  0  0
 46116  1  0  0  0
 47117  1  0  0  0
 47118  1  0  0  0
 48 56  1  0  0  0
 48 65  1  0  0  0
 48119  1  0  0  0
 49 50  1  0  0  0
 49 53  1  0  0  0
 49 64  1  0  0  0
 49120  1  0  0  0
 50 51  1  0  0  0
 50121  1  0  0  0
 50122  1  0  0  0
 51 52  1  0  0  0
 51123  1  0  0  0
 51124  1  0  0  0
 52125  1  0  0  0
 52126  1  0  0  0
 53 54  1  0  0  0
 54 55  2  0  0  0
 54127  1  0  0  0
 55 57  1  0  0  0
 55128  1  0  0  0
 56 69  2  0  0  0
 57 58  2  0  0  0
 57129  1  0  0  0
 58130  1  0  0  0
 59 60  1  0  0  0
 59 61  1  0  0  0
 59 62  1  0  0  0
 60131  1  0  0  0
 60132  1  0  0  0
 60133  1  0  0  0
 61134  1  0  0  0
 61135  1  0  0  0
 61136  1  0  0  0
 62137  1  0  0  0
 62138  1  0  0  0
 62139  1  0  0  0
 63 65  1  0  0  0
 63140  1  0  0  0
 63141  1  0  0  0
 63142  1  0  0  0
 64143  1  0  0  0
 65144  1  0  0  0
 68 74  1  0  0  0
 71 72  2  0  0  0
 71 75  1  0  0  0
 71 80  1  0  0  0
 72 78  1  0  0  0
 72 85  1  0  0  0
 73 80  2  0  0  0
 73 81  1  0  0  0
 73 85  1  0  0  0
 74 76  2  0  0  0
 74145  1  0  0  0
 75 79  1  0  0  0
 75 82  2  0  0  0
 76 77  1  0  0  0
 76 84  1  0  0  0
 77 79  1  0  0  0
 77 83  2  0  0  0
 78146  1  0  0  0
 78147  1  0  0  0
 78148  1  0  0  0
 79149  1  0  0  0
 79150  1  0  0  0
 81151  1  0  0  0
 84152  1  0  0  0
M  ISO  4   1 100  68 101  74 101  81 100
M  END
> <chiral flag>
0

> <version>
0

> <s_m_source_file>
/data/baiqing/PycharmProjects/Reinvent-master-3.2/result/LINK_invent/BTK/process_docking_weight1_custom_product_contain_oxygen_bond_distance_aromatic_linkinvent_7_9_3/rearranged_h_0180.sdf

> <i_m_source_file_index>
90

> <r_mmod_Potential_Energy-OPLS-2005>
-112.245178222656

> <r_mmod_Stretch_Energy-OPLS-2005>
44.8404655456543

> <r_mmod_Bend_Energy-OPLS-2005>
103.977867126465

> <r_mmod_Torsional_Energy-OPLS-2005>
233.619506835938

> <r_mmod_Improper_Torsional_Energy-OPLS-2005>
5.89841938018799

> <r_mmod_Van_der_Waal_Energy-OPLS-2005>
136.906112670898

> <r_mmod_Electrostatic_Energy-OPLS-2005>
-429.837371826172

> <r_mmod_Solvation_Energy-OPLS-2005>
-227.194778442383

> <b_mmod_Minimization_Converged-OPLS-2005>
0

> <r_mmod_RMS_Derivative-OPLS-2005>
1.33752453327179

$$$$
90
                    3D
 Structure written by MMmdl.
162170  0  0  1  0            999 V2000
  -30.7337  -14.4205   20.6194 C   0  0  0  0  0  0
  -30.4184  -12.2936   19.4094 C   0  0  0  0  0  0
  -29.4871  -12.5066   18.1996 C   0  0  0  0  0  0
  -28.0100  -12.3691   18.6158 C   0  0  0  0  0  0
  -27.6636  -13.2030   19.8781 C   0  0  2  0  0  0
  -28.7041  -12.9651   20.9955 C   0  0  0  0  0  0
  -25.2597  -13.8158   20.5674 C   0  0  0  0  0  0
  -24.1842  -13.0438   20.9165 C   0  0  0  0  0  0
  -24.6391  -11.6906   20.8733 C   0  0  0  0  0  0
  -23.9060  -10.4292   21.0409 C   0  0  0  0  0  0
  -24.3617   -9.4206   21.9183 C   0  0  0  0  0  0
  -23.6291   -8.2243   22.0757 C   0  0  0  0  0  0
  -22.4273   -8.0281   21.3545 C   0  0  0  0  0  0
  -21.9907   -9.0255   20.4650 C   0  0  0  0  0  0
  -22.7235  -10.2134   20.3057 C   0  0  0  0  0  0
  -21.6850   -6.0737   22.5279 C   0  0  0  0  0  0
  -21.4016   -6.5644   23.8213 C   0  0  0  0  0  0
  -21.3656   -5.6794   24.9172 C   0  0  0  0  0  0
  -21.6043   -4.3058   24.7223 C   0  0  0  0  0  0
  -21.8820   -3.8150   23.4344 C   0  0  0  0  0  0
  -21.9195   -4.6967   22.3401 C   0  0  0  0  0  0
  -22.7867  -13.5245   21.1828 C   0  0  0  0  0  0
  -22.1661   -4.2155   21.0977 F   0  0  0  0  0  0
  -21.5628   -3.4540   25.7734 F   0  0  0  0  0  0
  -30.0390  -13.2644   20.4473 N   0  0  0  0  0  0
  -26.3033  -12.9320   20.3381 N   0  0  0  0  0  0
  -25.9318  -11.6484   20.5778 N   0  0  0  0  0  0
  -22.0512  -12.8238   22.0391 N   0  0  0  0  0  0
  -25.4336  -15.1871   20.4085 N   0  0  0  0  0  0
  -31.8271  -14.6243   20.0827 O   0  0  0  0  0  0
  -21.6638   -6.8879   21.4240 O   0  0  0  0  0  0
  -22.3551  -14.5548   20.6677 O   0  0  0  0  0  0
  -24.6117  -31.8710   23.2126 C   0  0  0  0  0  0
  -25.9027  -32.4842   23.8409 C   0  0  1  0  0  0
  -27.2379  -27.4582   20.1016 C   0  0  0  0  0  0
  -25.5896  -33.8642   24.2335 N   0  0  0  0  0  0
  -23.3988  -30.4931   21.5520 C   0  0  2  0  0  0
  -24.8493  -28.9577   20.1213 C   0  0  0  0  0  0
  -22.7390  -29.4679   22.5015 C   0  0  0  0  0  0
  -18.0266  -28.1378   22.8490 C   0  0  0  0  0  0
  -24.1487  -36.7328   23.2639 C   0  0  0  0  0  0
  -25.9253  -30.8403   21.3666 C   0  0  0  0  0  0
  -26.0041  -29.4727   20.7242 C   0  0  0  0  0  0
  -27.2023  -28.7262   20.7224 C   0  0  0  0  0  0
  -26.0752  -26.9553   19.4862 C   0  0  0  0  0  0
  -24.8771  -27.6948   19.5037 C   0  0  0  0  0  0
  -23.6079  -29.8198   20.1686 C   0  0  0  0  0  0
  -25.4104  -36.3124   24.0339 C   0  0  1  0  0  0
  -20.5853  -28.3653   23.1330 C   0  0  2  0  0  0
  -20.6767  -26.9393   22.5425 C   0  0  0  0  0  0
  -19.5749  -26.6385   21.5223 C   0  0  0  0  0  0
  -18.1918  -26.7926   22.1618 C   0  0  0  0  0  0
  -19.1516  -28.8834   23.2903 C   0  0  0  0  0  0
  -18.9447  -30.1443   23.8907 C   0  0  0  0  0  0
  -17.6452  -30.6586   24.0560 C   0  0  0  0  0  0
  -25.9031  -34.9491   23.5129 C   0  0  0  0  0  0
  -16.5341  -29.9084   23.6338 C   0  0  0  0  0  0
  -16.7257  -28.6505   23.0350 C   0  0  0  0  0  0
  -26.4457  -31.6625   25.0741 C   0  0  0  0  0  0
  -25.3723  -31.3755   26.1495 C   0  0  0  0  0  0
  -27.0297  -30.3064   24.6142 C   0  0  0  0  0  0
  -27.6036  -32.4351   25.7493 C   0  0  0  0  0  0
  -27.5579  -37.1807   24.8458 C   0  0  0  0  0  0
  -21.4127  -29.3023   22.3736 N   0  0  0  0  0  0
  -26.4294  -37.3799   23.9405 N   0  0  0  0  0  0
  -24.6627  -31.0825   22.1019 N   0  0  0  0  0  0
  -23.4170  -28.8237   23.3062 O   0  0  0  0  0  0
  -28.3878  -26.7124   20.0298 O   0  0  0  0  0  0
  -26.5586  -34.8939   22.4686 O   0  0  0  0  0  0
  -23.5320  -32.1454   23.7535 O   0  0  0  0  0  0
  -31.7862  -17.1557   21.6413 C   0  0  0  0  0  0
  -31.8576  -18.5527   21.9413 C   0  0  0  0  0  0
  -30.5135  -16.6407   21.5856 C   0  0  0  0  0  0
  -30.6136  -19.1280   22.0868 C   0  0  0  0  0  0
  -28.3588  -24.8350   21.5787 C   0  0  0  0  0  0
  -29.2974  -21.1897   22.0951 C   0  0  0  0  0  0
  -33.6798  -19.7061   20.6572 C   0  0  0  0  0  0
  -34.2358  -18.5258   22.8258 C   0  0  0  0  0  0
  -29.2976  -23.6447   21.3564 C   0  0  0  0  0  0
  -28.9036  -26.2404   21.2759 C   0  0  0  0  0  0
  -29.3592  -22.6525   22.5442 C   0  0  0  0  0  0
  -33.1644  -19.3061   22.0464 C   0  0  0  0  0  0
  -30.3813  -20.4414   22.3630 N   0  0  0  0  0  0
  -30.1023  -15.3663   21.3398 N   0  0  0  0  0  0
  -27.2035  -24.6671   21.9816 O   0  0  0  0  0  0
  -28.2930  -20.7759   21.5118 O   0  0  0  0  0  0
  -29.3605  -17.9054   21.9214 S   0  0  0  0  0  0
  -31.4618  -12.3893   19.1042 H   0  0  0  0  0  0
  -30.3178  -11.2789   19.7970 H   0  0  0  0  0  0
  -29.7211  -11.7867   17.4139 H   0  0  0  0  0  0
  -29.6579  -13.4950   17.7700 H   0  0  0  0  0  0
  -27.8170  -11.3126   18.8062 H   0  0  0  0  0  0
  -27.3578  -12.6503   17.7882 H   0  0  0  0  0  0
  -27.7148  -14.2536   19.5914 H   0  0  0  0  0  0
  -28.6740  -11.9249   21.3235 H   0  0  0  0  0  0
  -28.4615  -13.5502   21.8833 H   0  0  0  0  0  0
  -25.2768   -9.5680   22.4749 H   0  0  0  0  0  0
  -24.0005   -7.4635   22.7474 H   0  0  0  0  0  0
  -21.0839   -8.8773   19.8954 H   0  0  0  0  0  0
  -22.3697  -10.9672   19.6165 H   0  0  0  0  0  0
  -21.2008   -7.6151   23.9716 H   0  0  0  0  0  0
  -21.1475   -6.0525   25.9074 H   0  0  0  0  0  0
  -22.0603   -2.7614   23.2840 H   0  0  0  0  0  0
  -22.4138  -11.9900   22.4774 H   0  0  0  0  0  0
  -21.1134  -13.1268   22.2611 H   0  0  0  0  0  0
  -24.6706  -15.8463   20.5187 H   0  0  0  0  0  0
  -26.2916  -15.6247   20.0959 H   0  0  0  0  0  0
  -26.7107  -32.5564   23.1186 H   0  0  0  0  0  0
  -25.0053  -33.9807   25.0484 H   0  0  0  0  0  0
  -22.6864  -31.3086   21.4099 H   0  0  0  0  0  0
  -23.3749  -35.9662   23.3324 H   0  0  0  0  0  0
  -24.3584  -36.8931   22.2052 H   0  0  0  0  0  0
  -23.7250  -37.6544   23.6640 H   0  0  0  0  0  0
  -26.0369  -31.6032   20.5946 H   0  0  0  0  0  0
  -26.8135  -30.8962   21.9842 H   0  0  0  0  0  0
  -28.0958  -29.1286   21.1796 H   0  0  0  0  0  0
  -26.0983  -25.9898   19.0003 H   0  0  0  0  0  0
  -23.9893  -27.2954   19.0335 H   0  0  0  0  0  0
  -23.7084  -30.5904   19.4039 H   0  0  0  0  0  0
  -22.7348  -29.2329   19.8776 H   0  0  0  0  0  0
  -25.1279  -36.1987   25.0832 H   0  0  0  0  0  0
  -20.9922  -28.3215   24.1460 H   0  0  0  0  0  0
  -20.5701  -26.2244   23.3601 H   0  0  0  0  0  0
  -21.6629  -26.7462   22.1188 H   0  0  0  0  0  0
  -19.6919  -25.6305   21.1236 H   0  0  0  0  0  0
  -19.6712  -27.3213   20.6772 H   0  0  0  0  0  0
  -17.4195  -26.6693   21.4013 H   0  0  0  0  0  0
  -18.0302  -26.0067   22.9009 H   0  0  0  0  0  0
  -19.7924  -30.7254   24.2279 H   0  0  0  0  0  0
  -17.5011  -31.6269   24.5152 H   0  0  0  0  0  0
  -15.5342  -30.2983   23.7682 H   0  0  0  0  0  0
  -15.8651  -28.0834   22.7059 H   0  0  0  0  0  0
  -24.5849  -30.7156   25.7835 H   0  0  0  0  0  0
  -24.8971  -32.2935   26.4962 H   0  0  0  0  0  0
  -25.8065  -30.8890   27.0240 H   0  0  0  0  0  0
  -26.2863  -29.6825   24.1168 H   0  0  0  0  0  0
  -27.4033  -29.7301   25.4619 H   0  0  0  0  0  0
  -27.8705  -30.4395   23.9331 H   0  0  0  0  0  0
  -27.2645  -33.3625   26.2120 H   0  0  0  0  0  0
  -28.3804  -32.6967   25.0297 H   0  0  0  0  0  0
  -28.0755  -31.8463   26.5371 H   0  0  0  0  0  0
  -28.2593  -38.0101   24.7491 H   0  0  0  0  0  0
  -28.1073  -36.2634   24.6287 H   0  0  0  0  0  0
  -27.2299  -37.1464   25.8861 H   0  0  0  0  0  0
  -20.9297  -29.8701   21.6916 H   0  0  0  0  0  0
  -26.0196  -38.2885   24.1393 H   0  0  0  0  0  0
  -32.6830  -16.5768   21.4780 H   0  0  0  0  0  0
  -32.9585  -20.3379   20.1376 H   0  0  0  0  0  0
  -33.8649  -18.8315   20.0328 H   0  0  0  0  0  0
  -34.6130  -20.2654   20.7304 H   0  0  0  0  0  0
  -33.8794  -18.2541   23.8199 H   0  0  0  0  0  0
  -35.1359  -19.1276   22.9547 H   0  0  0  0  0  0
  -34.5323  -17.6104   22.3136 H   0  0  0  0  0  0
  -30.2978  -24.0145   21.1310 H   0  0  0  0  0  0
  -28.9540  -23.1366   20.4550 H   0  0  0  0  0  0
  -29.9920  -26.2058   21.2198 H   0  0  0  0  0  0
  -28.6502  -26.9113   22.0975 H   0  0  0  0  0  0
  -30.2680  -22.8318   23.1194 H   0  0  0  0  0  0
  -28.5346  -22.8097   23.2417 H   0  0  0  0  0  0
  -33.0045  -20.2289   22.6050 H   0  0  0  0  0  0
  -31.1548  -20.9470   22.7716 H   0  0  0  0  0  0
  -29.1701  -15.1259   21.6413 H   0  0  0  0  0  0
  1 25  1  0  0  0
  1 30  2  0  0  0
  1 84  1  0  0  0
  2  3  1  0  0  0
  2 25  1  0  0  0
  2 88  1  0  0  0
  2 89  1  0  0  0
  3  4  1  0  0  0
  3 90  1  0  0  0
  3 91  1  0  0  0
  4  5  1  0  0  0
  4 92  1  0  0  0
  4 93  1  0  0  0
  5  6  1  0  0  0
  5 26  1  0  0  0
  5 94  1  0  0  0
  6 25  1  0  0  0
  6 95  1  0  0  0
  6 96  1  0  0  0
  7  8  2  0  0  0
  7 26  1  0  0  0
  7 29  1  0  0  0
  8  9  1  0  0  0
  8 22  1  0  0  0
  9 10  1  0  0  0
  9 27  2  0  0  0
 10 11  2  0  0  0
 10 15  1  0  0  0
 11 12  1  0  0  0
 11 97  1  0  0  0
 12 13  2  0  0  0
 12 98  1  0  0  0
 13 14  1  0  0  0
 13 31  1  0  0  0
 14 15  2  0  0  0
 14 99  1  0  0  0
 15100  1  0  0  0
 16 17  2  0  0  0
 16 21  1  0  0  0
 16 31  1  0  0  0
 17 18  1  0  0  0
 17101  1  0  0  0
 18 19  2  0  0  0
 18102  1  0  0  0
 19 20  1  0  0  0
 19 24  1  0  0  0
 20 21  2  0  0  0
 20103  1  0  0  0
 21 23  1  0  0  0
 22 28  1  0  0  0
 22 32  2  0  0  0
 26 27  1  0  0  0
 28104  1  0  0  0
 28105  1  0  0  0
 29106  1  0  0  0
 29107  1  0  0  0
 33 34  1  0  0  0
 33 66  1  0  0  0
 33 70  2  0  0  0
 34 36  1  0  0  0
 34 59  1  0  0  0
 34108  1  0  0  0
 35 44  2  0  0  0
 35 45  1  0  0  0
 35 68  1  0  0  0
 36 56  1  0  0  0
 36109  1  0  0  0
 37 39  1  0  0  0
 37 47  1  0  0  0
 37 66  1  0  0  0
 37110  1  0  0  0
 38 43  2  0  0  0
 38 46  1  0  0  0
 38 47  1  0  0  0
 39 64  1  0  0  0
 39 67  2  0  0  0
 40 52  1  0  0  0
 40 53  2  0  0  0
 40 58  1  0  0  0
 41111  1  0  0  0
 41112  1  0  0  0
 41113  1  0  0  0
 41 48  1  0  0  0
 42 43  1  0  0  0
 42 66  1  0  0  0
 42114  1  0  0  0
 42115  1  0  0  0
 43 44  1  0  0  0
 44116  1  0  0  0
 45 46  2  0  0  0
 45117  1  0  0  0
 46118  1  0  0  0
 47119  1  0  0  0
 47120  1  0  0  0
 48 56  1  0  0  0
 48 65  1  0  0  0
 48121  1  0  0  0
 49 50  1  0  0  0
 49 53  1  0  0  0
 49 64  1  0  0  0
 49122  1  0  0  0
 50 51  1  0  0  0
 50123  1  0  0  0
 50124  1  0  0  0
 51 52  1  0  0  0
 51125  1  0  0  0
 51126  1  0  0  0
 52127  1  0  0  0
 52128  1  0  0  0
 53 54  1  0  0  0
 54 55  2  0  0  0
 54129  1  0  0  0
 55 57  1  0  0  0
 55130  1  0  0  0
 56 69  2  0  0  0
 57 58  2  0  0  0
 57131  1  0  0  0
 58132  1  0  0  0
 59 60  1  0  0  0
 59 61  1  0  0  0
 59 62  1  0  0  0
 60133  1  0  0  0
 60134  1  0  0  0
 60135  1  0  0  0
 61136  1  0  0  0
 61137  1  0  0  0
 61138  1  0  0  0
 62139  1  0  0  0
 62140  1  0  0  0
 62141  1  0  0  0
 63 65  1  0  0  0
 63142  1  0  0  0
 63143  1  0  0  0
 63144  1  0  0  0
 64145  1  0  0  0
 65146  1  0  0  0
 68 80  1  0  0  0
 71 72  1  0  0  0
 71 73  2  0  0  0
 71147  1  0  0  0
 72 74  2  0  0  0
 72 82  1  0  0  0
 73 84  1  0  0  0
 73 87  1  0  0  0
 74 83  1  0  0  0
 74 87  1  0  0  0
 75 79  1  0  0  0
 75 80  1  0  0  0
 75 85  2  0  0  0
 76 81  1  0  0  0
 76 83  1  0  0  0
 76 86  2  0  0  0
 77148  1  0  0  0
 77149  1  0  0  0
 77150  1  0  0  0
 77 82  1  0  0  0
 78 82  1  0  0  0
 78151  1  0  0  0
 78152  1  0  0  0
 78153  1  0  0  0
 79 81  1  0  0  0
 79154  1  0  0  0
 79155  1  0  0  0
 80156  1  0  0  0
 80157  1  0  0  0
 81158  1  0  0  0
 81159  1  0  0  0
 82160  1  0  0  0
 83161  1  0  0  0
 84162  1  0  0  0
M  ISO  4   1 100  68 101  80 101  84 100
M  END
> <chiral flag>
0

> <version>
0

> <s_m_source_file>
/data/baiqing/PycharmProjects/Reinvent-master-3.2/result/LINK_invent/BTK/process_docking_weight1_custom_product_contain_oxygen_bond_distance_aromatic_linkinvent_7_9_3/rearranged_h_0180.sdf

> <i_m_source_file_index>
91

> <r_mmod_Potential_Energy-OPLS-2005>
-155.796401977539

> <r_mmod_Stretch_Energy-OPLS-2005>
32.5165328979492

> <r_mmod_Bend_Energy-OPLS-2005>
104.304626464844

> <r_mmod_Torsional_Energy-OPLS-2005>
244.541732788086

> <r_mmod_Improper_Torsional_Energy-OPLS-2005>
2.61977243423462

> <r_mmod_Van_der_Waal_Energy-OPLS-2005>
134.401947021484

> <r_mmod_Electrostatic_Energy-OPLS-2005>
-434.765167236328

> <r_mmod_Solvation_Energy-OPLS-2005>
-247.436767578125

> <b_mmod_Minimization_Converged-OPLS-2005>
0

> <r_mmod_RMS_Derivative-OPLS-2005>
0.945771038532257

$$$$
91
                    3D
 Structure written by MMmdl.
149157  0  0  1  0            999 V2000
  -30.6350  -14.5620   20.5738 C   0  0  0  0  0  0
  -30.4390  -12.3559   19.4527 C   0  0  0  0  0  0
  -29.5129  -12.5104   18.2246 C   0  0  0  0  0  0
  -28.0329  -12.3437   18.6329 C   0  0  0  0  0  0
  -27.6638  -13.1961   19.8726 C   0  0  2  0  0  0
  -28.6976  -13.0039   21.0054 C   0  0  0  0  0  0
  -25.2628  -13.8121   20.5642 C   0  0  0  0  0  0
  -24.1855  -13.0442   20.9145 C   0  0  0  0  0  0
  -24.6399  -11.6900   20.8697 C   0  0  0  0  0  0
  -23.9068  -10.4304   21.0391 C   0  0  0  0  0  0
  -24.3625   -9.4228   21.9175 C   0  0  0  0  0  0
  -23.6303   -8.2265   22.0755 C   0  0  0  0  0  0
  -22.4283   -8.0299   21.3553 C   0  0  0  0  0  0
  -21.9927   -9.0270   20.4628 C   0  0  0  0  0  0
  -22.7250  -10.2150   20.3024 C   0  0  0  0  0  0
  -21.6864   -6.0746   22.5274 C   0  0  0  0  0  0
  -21.4018   -6.5641   23.8198 C   0  0  0  0  0  0
  -21.3644   -5.6794   24.9162 C   0  0  0  0  0  0
  -21.6039   -4.3063   24.7227 C   0  0  0  0  0  0
  -21.8820   -3.8163   23.4330 C   0  0  0  0  0  0
  -21.9215   -4.6970   22.3383 C   0  0  0  0  0  0
  -22.7887  -13.5260   21.1814 C   0  0  0  0  0  0
  -22.1676   -4.2175   21.0965 F   0  0  0  0  0  0
  -21.5635   -3.4541   25.7748 F   0  0  0  0  0  0
  -30.0269  -13.3446   20.4666 N   0  0  0  0  0  0
  -26.3039  -12.9259   20.3312 N   0  0  0  0  0  0
  -25.9318  -11.6449   20.5714 N   0  0  0  0  0  0
  -22.0504  -12.8263   22.0351 N   0  0  0  0  0  0
  -25.4410  -15.1826   20.4035 N   0  0  0  0  0  0
  -31.7477  -14.7799   20.0707 O   0  0  0  0  0  0
  -21.6630   -6.8884   21.4239 O   0  0  0  0  0  0
  -22.3610  -14.5601   20.6680 O   0  0  0  0  0  0
  -24.6196  -31.8654   23.2078 C   0  0  0  0  0  0
  -25.9109  -32.4792   23.8370 C   0  0  1  0  0  0
  -27.2096  -27.3829   20.1064 C   0  0  0  0  0  0
  -25.5942  -33.8574   24.2308 N   0  0  0  0  0  0
  -23.4063  -30.4905   21.5468 C   0  0  2  0  0  0
  -24.8453  -28.9559   20.1051 C   0  0  0  0  0  0
  -22.7406  -29.4671   22.4972 C   0  0  0  0  0  0
  -18.0270  -28.1398   22.8553 C   0  0  0  0  0  0
  -24.1430  -36.7230   23.2650 C   0  0  0  0  0  0
  -25.9394  -30.8171   21.3631 C   0  0  0  0  0  0
  -26.0071  -29.4493   20.7071 C   0  0  0  0  0  0
  -27.1885  -28.6702   20.7123 C   0  0  0  0  0  0
  -26.0341  -26.9263   19.4719 C   0  0  0  0  0  0
  -24.8588  -27.6999   19.4754 C   0  0  0  0  0  0
  -23.6077  -29.8262   20.1609 C   0  0  0  0  0  0
  -25.4072  -36.3053   24.0347 C   0  0  1  0  0  0
  -20.5875  -28.3666   23.1319 C   0  0  2  0  0  0
  -20.6713  -26.9374   22.5400 C   0  0  0  0  0  0
  -19.5684  -26.6405   21.5215 C   0  0  0  0  0  0
  -18.1873  -26.7982   22.1647 C   0  0  0  0  0  0
  -19.1538  -28.8855   23.2938 C   0  0  0  0  0  0
  -18.9452  -30.1495   23.8920 C   0  0  0  0  0  0
  -17.6448  -30.6603   24.0605 C   0  0  0  0  0  0
  -25.9013  -34.9452   23.5105 C   0  0  0  0  0  0
  -16.5352  -29.9093   23.6361 C   0  0  0  0  0  0
  -16.7270  -28.6510   23.0402 C   0  0  0  0  0  0
  -26.4546  -31.6634   25.0771 C   0  0  0  0  0  0
  -25.3806  -31.3772   26.1521 C   0  0  0  0  0  0
  -27.0363  -30.3034   24.6187 C   0  0  0  0  0  0
  -27.6059  -32.4430   25.7570 C   0  0  0  0  0  0
  -27.5539  -37.1765   24.8476 C   0  0  0  0  0  0
  -21.4131  -29.3037   22.3714 N   0  0  0  0  0  0
  -26.4213  -37.3782   23.9474 N   0  0  0  0  0  0
  -24.6743  -31.0724   22.0994 N   0  0  0  0  0  0
  -23.4194  -28.8152   23.2962 O   0  0  0  0  0  0
  -28.3492  -26.5981   20.1714 O   0  0  0  0  0  0
  -26.5555  -34.8949   22.4665 O   0  0  0  0  0  0
  -23.5394  -32.1415   23.7441 O   0  0  0  0  0  0
  -29.3448  -18.8147   19.7316 C   0  0  0  0  0  0
  -29.6951  -19.4406   20.9127 C   0  0  0  0  0  0
  -29.8539  -16.9276   20.9440 C   0  0  0  0  0  0
  -28.3188  -25.2538   19.8037 C   0  0  0  0  0  0
  -28.4802  -24.2134   20.6707 C   0  0  0  0  0  0
  -28.5993  -22.8172   20.1811 C   0  0  0  0  0  0
  -29.9379  -20.9267   21.1851 C   0  0  0  0  0  0
  -29.4458  -17.4045   19.7569 N   0  0  0  0  0  0
  -29.9298  -15.5206   21.2260 N   0  0  0  0  0  0
  -28.8146  -21.9042   21.1621 N   0  0  0  0  0  0
  -28.6195  -22.4828   18.9927 O   0  0  0  0  0  0
  -28.5864  -24.4525   21.9919 O   0  0  0  0  0  0
  -30.0493  -18.2191   22.1426 S   0  0  0  0  0  0
  -31.4815  -12.4817   19.1584 H   0  0  0  0  0  0
  -30.3662  -11.3481   19.8636 H   0  0  0  0  0  0
  -29.7771  -11.7759   17.4643 H   0  0  0  0  0  0
  -29.6655  -13.4896   17.7690 H   0  0  0  0  0  0
  -27.8759  -11.2868   18.8536 H   0  0  0  0  0  0
  -27.3809  -12.5812   17.7953 H   0  0  0  0  0  0
  -27.7037  -14.2391   19.5562 H   0  0  0  0  0  0
  -28.6935  -11.9679   21.3524 H   0  0  0  0  0  0
  -28.4252  -13.5997   21.8773 H   0  0  0  0  0  0
  -25.2767   -9.5720   22.4758 H   0  0  0  0  0  0
  -24.0028   -7.4652   22.7466 H   0  0  0  0  0  0
  -21.0875   -8.8748   19.8916 H   0  0  0  0  0  0
  -22.3698  -10.9670   19.6124 H   0  0  0  0  0  0
  -21.1980   -7.6157   23.9707 H   0  0  0  0  0  0
  -21.1462   -6.0514   25.9051 H   0  0  0  0  0  0
  -22.0619   -2.7629   23.2815 H   0  0  0  0  0  0
  -22.4081  -11.9894   22.4704 H   0  0  0  0  0  0
  -21.1093  -13.1260   22.2460 H   0  0  0  0  0  0
  -24.6720  -15.8392   20.4676 H   0  0  0  0  0  0
  -26.3017  -15.6149   20.0935 H   0  0  0  0  0  0
  -26.7157  -32.5477   23.1078 H   0  0  0  0  0  0
  -25.0271  -33.9752   25.0567 H   0  0  0  0  0  0
  -22.6983  -31.3130   21.4143 H   0  0  0  0  0  0
  -23.3712  -35.9508   23.3282 H   0  0  0  0  0  0
  -24.3498  -36.8892   22.2050 H   0  0  0  0  0  0
  -23.7111  -37.6427   23.6638 H   0  0  0  0  0  0
  -26.0670  -31.5843   20.5994 H   0  0  0  0  0  0
  -26.8250  -30.8666   21.9855 H   0  0  0  0  0  0
  -28.0744  -29.0462   21.2001 H   0  0  0  0  0  0
  -25.9962  -25.9630   18.9854 H   0  0  0  0  0  0
  -23.9666  -27.3186   18.9948 H   0  0  0  0  0  0
  -23.7236  -30.6013   19.4065 H   0  0  0  0  0  0
  -22.7271  -29.2494   19.8762 H   0  0  0  0  0  0
  -25.1200  -36.1901   25.0821 H   0  0  0  0  0  0
  -21.0074  -28.3231   24.1405 H   0  0  0  0  0  0
  -20.5599  -26.2258   23.3590 H   0  0  0  0  0  0
  -21.6587  -26.7395   22.1199 H   0  0  0  0  0  0
  -19.6772  -25.6308   21.1223 H   0  0  0  0  0  0
  -19.6587  -27.3216   20.6755 H   0  0  0  0  0  0
  -17.4133  -26.6857   21.4034 H   0  0  0  0  0  0
  -18.0196  -26.0123   22.9010 H   0  0  0  0  0  0
  -19.7943  -30.7362   24.2240 H   0  0  0  0  0  0
  -17.4990  -31.6314   24.5168 H   0  0  0  0  0  0
  -15.5328  -30.2979   23.7679 H   0  0  0  0  0  0
  -15.8701  -28.0812   22.7120 H   0  0  0  0  0  0
  -24.5951  -30.7116   25.7905 H   0  0  0  0  0  0
  -24.9074  -32.2962   26.4982 H   0  0  0  0  0  0
  -25.8235  -30.8975   27.0245 H   0  0  0  0  0  0
  -26.2903  -29.6804   24.1210 H   0  0  0  0  0  0
  -27.4067  -29.7307   25.4710 H   0  0  0  0  0  0
  -27.8776  -30.4347   23.9373 H   0  0  0  0  0  0
  -27.2571  -33.3725   26.2061 H   0  0  0  0  0  0
  -28.3901  -32.6999   25.0450 H   0  0  0  0  0  0
  -28.0617  -31.8643   26.5597 H   0  0  0  0  0  0
  -28.2524  -38.0093   24.7608 H   0  0  0  0  0  0
  -28.1082  -36.2663   24.6146 H   0  0  0  0  0  0
  -27.2317  -37.1295   25.8897 H   0  0  0  0  0  0
  -20.9200  -29.8813   21.7053 H   0  0  0  0  0  0
  -26.0092  -38.2818   24.1586 H   0  0  0  0  0  0
  -29.0743  -19.2978   18.8010 H   0  0  0  0  0  0
  -28.1918  -25.1398   18.7296 H   0  0  0  0  0  0
  -30.7362  -21.2799   20.5224 H   0  0  0  0  0  0
  -30.3663  -21.0199   22.1887 H   0  0  0  0  0  0
  -29.1847  -15.1769   21.8109 H   0  0  0  0  0  0
  -28.5602  -22.2513   22.0779 H   0  0  0  0  0  0
  -28.5123  -25.3883   22.1192 H   0  0  0  0  0  0
  1 25  1  0  0  0
  1 30  2  0  0  0
  1 79  1  0  0  0
  2  3  1  0  0  0
  2 25  1  0  0  0
  2 84  1  0  0  0
  2 85  1  0  0  0
  3  4  1  0  0  0
  3 86  1  0  0  0
  3 87  1  0  0  0
  4  5  1  0  0  0
  4 88  1  0  0  0
  4 89  1  0  0  0
  5  6  1  0  0  0
  5 26  1  0  0  0
  5 90  1  0  0  0
  6 25  1  0  0  0
  6 91  1  0  0  0
  6 92  1  0  0  0
  7  8  2  0  0  0
  7 26  1  0  0  0
  7 29  1  0  0  0
  8  9  1  0  0  0
  8 22  1  0  0  0
  9 10  1  0  0  0
  9 27  2  0  0  0
 10 11  2  0  0  0
 10 15  1  0  0  0
 11 12  1  0  0  0
 11 93  1  0  0  0
 12 13  2  0  0  0
 12 94  1  0  0  0
 13 14  1  0  0  0
 13 31  1  0  0  0
 14 15  2  0  0  0
 14 95  1  0  0  0
 15 96  1  0  0  0
 16 17  2  0  0  0
 16 21  1  0  0  0
 16 31  1  0  0  0
 17 18  1  0  0  0
 17 97  1  0  0  0
 18 19  2  0  0  0
 18 98  1  0  0  0
 19 20  1  0  0  0
 19 24  1  0  0  0
 20 21  2  0  0  0
 20 99  1  0  0  0
 21 23  1  0  0  0
 22 28  1  0  0  0
 22 32  2  0  0  0
 26 27  1  0  0  0
 28100  1  0  0  0
 28101  1  0  0  0
 29102  1  0  0  0
 29103  1  0  0  0
 33 34  1  0  0  0
 33 66  1  0  0  0
 33 70  2  0  0  0
 34 36  1  0  0  0
 34 59  1  0  0  0
 34104  1  0  0  0
 35 44  2  0  0  0
 35 45  1  0  0  0
 35 68  1  0  0  0
 36 56  1  0  0  0
 36105  1  0  0  0
 37 39  1  0  0  0
 37 47  1  0  0  0
 37 66  1  0  0  0
 37106  1  0  0  0
 38 43  2  0  0  0
 38 46  1  0  0  0
 38 47  1  0  0  0
 39 64  1  0  0  0
 39 67  2  0  0  0
 40 52  1  0  0  0
 40 53  2  0  0  0
 40 58  1  0  0  0
 41107  1  0  0  0
 41108  1  0  0  0
 41109  1  0  0  0
 41 48  1  0  0  0
 42 43  1  0  0  0
 42 66  1  0  0  0
 42110  1  0  0  0
 42111  1  0  0  0
 43 44  1  0  0  0
 44112  1  0  0  0
 45 46  2  0  0  0
 45113  1  0  0  0
 46114  1  0  0  0
 47115  1  0  0  0
 47116  1  0  0  0
 48 56  1  0  0  0
 48 65  1  0  0  0
 48117  1  0  0  0
 49 50  1  0  0  0
 49 53  1  0  0  0
 49 64  1  0  0  0
 49118  1  0  0  0
 50 51  1  0  0  0
 50119  1  0  0  0
 50120  1  0  0  0
 51 52  1  0  0  0
 51121  1  0  0  0
 51122  1  0  0  0
 52123  1  0  0  0
 52124  1  0  0  0
 53 54  1  0  0  0
 54 55  2  0  0  0
 54125  1  0  0  0
 55 57  1  0  0  0
 55126  1  0  0  0
 56 69  2  0  0  0
 57 58  2  0  0  0
 57127  1  0  0  0
 58128  1  0  0  0
 59 60  1  0  0  0
 59 61  1  0  0  0
 59 62  1  0  0  0
 60129  1  0  0  0
 60130  1  0  0  0
 60131  1  0  0  0
 61132  1  0  0  0
 61133  1  0  0  0
 61134  1  0  0  0
 62135  1  0  0  0
 62136  1  0  0  0
 62137  1  0  0  0
 63 65  1  0  0  0
 63138  1  0  0  0
 63139  1  0  0  0
 63140  1  0  0  0
 64141  1  0  0  0
 65142  1  0  0  0
 68 74  1  0  0  0
 71 72  2  0  0  0
 71 78  1  0  0  0
 71143  1  0  0  0
 72 77  1  0  0  0
 72 83  1  0  0  0
 73 78  2  0  0  0
 73 79  1  0  0  0
 73 83  1  0  0  0
 74 75  2  0  0  0
 74144  1  0  0  0
 75 76  1  0  0  0
 75 82  1  0  0  0
 76 80  1  0  0  0
 76 81  2  0  0  0
 77 80  1  0  0  0
 77145  1  0  0  0
 77146  1  0  0  0
 79147  1  0  0  0
 80148  1  0  0  0
 82149  1  0  0  0
M  ISO  4   1 100  68 101  74 101  79 100
M  END
> <chiral flag>
0

> <version>
0

> <s_m_source_file>
/data/baiqing/PycharmProjects/Reinvent-master-3.2/result/LINK_invent/BTK/process_docking_weight1_custom_product_contain_oxygen_bond_distance_aromatic_linkinvent_7_9_3/rearranged_h_0180.sdf

> <i_m_source_file_index>
92

> <r_mmod_Potential_Energy-OPLS-2005>
-147.926895141602

> <r_mmod_Stretch_Energy-OPLS-2005>
49.5256423950195

> <r_mmod_Bend_Energy-OPLS-2005>
112.466484069824

> <r_mmod_Torsional_Energy-OPLS-2005>
254.433135986328

> <r_mmod_Improper_Torsional_Energy-OPLS-2005>
8.43210792541504

> <r_mmod_Van_der_Waal_Energy-OPLS-2005>
128.042922973633

> <r_mmod_Electrostatic_Energy-OPLS-2005>
-488.266693115234

> <r_mmod_Solvation_Energy-OPLS-2005>
-240.069488525391

> <b_mmod_Minimization_Converged-OPLS-2005>
0

> <r_mmod_RMS_Derivative-OPLS-2005>
7.43595695495605

$$$$
92
                    3D
 Structure written by MMmdl.
152160  0  0  1  0            999 V2000
  -30.5461  -14.9184   20.4023 C   0  0  0  0  0  0
  -30.4402  -12.5579   19.5105 C   0  0  0  0  0  0
  -29.5231  -12.5269   18.2650 C   0  0  0  0  0  0
  -28.0566  -12.3113   18.6808 C   0  0  0  0  0  0
  -27.6345  -13.2347   19.8524 C   0  0  2  0  0  0
  -28.6767  -13.2509   20.9933 C   0  0  0  0  0  0
  -25.2490  -13.8180   20.5726 C   0  0  0  0  0  0
  -24.1783  -13.0429   20.9231 C   0  0  0  0  0  0
  -24.6378  -11.6908   20.8770 C   0  0  0  0  0  0
  -23.9058  -10.4294   21.0424 C   0  0  0  0  0  0
  -24.3613   -9.4205   21.9189 C   0  0  0  0  0  0
  -23.6288   -8.2238   22.0758 C   0  0  0  0  0  0
  -22.4266   -8.0280   21.3554 C   0  0  0  0  0  0
  -21.9905   -9.0255   20.4653 C   0  0  0  0  0  0
  -22.7237  -10.2134   20.3068 C   0  0  0  0  0  0
  -21.6843   -6.0735   22.5282 C   0  0  0  0  0  0
  -21.4011   -6.5640   23.8218 C   0  0  0  0  0  0
  -21.3656   -5.6789   24.9180 C   0  0  0  0  0  0
  -21.6041   -4.3053   24.7228 C   0  0  0  0  0  0
  -21.8813   -3.8149   23.4348 C   0  0  0  0  0  0
  -21.9191   -4.6965   22.3407 C   0  0  0  0  0  0
  -22.7809  -13.5223   21.1868 C   0  0  0  0  0  0
  -22.1660   -4.2156   21.0984 F   0  0  0  0  0  0
  -21.5627   -3.4537   25.7740 F   0  0  0  0  0  0
  -29.9656  -13.6510   20.4087 N   0  0  0  0  0  0
  -26.2903  -12.9379   20.3306 N   0  0  0  0  0  0
  -25.9311  -11.6524   20.5781 N   0  0  0  0  0  0
  -22.0444  -12.8232   22.0428 N   0  0  0  0  0  0
  -25.4202  -15.1900   20.4125 N   0  0  0  0  0  0
  -31.7211  -14.9974   20.0254 O   0  0  0  0  0  0
  -21.6631   -6.8879   21.4245 O   0  0  0  0  0  0
  -22.3505  -14.5530   20.6705 O   0  0  0  0  0  0
  -24.6405  -31.8445   23.1885 C   0  0  0  0  0  0
  -25.9186  -32.4692   23.8274 C   0  0  1  0  0  0
  -27.2255  -27.1664   20.1362 C   0  0  0  0  0  0
  -25.5934  -33.8498   24.2191 N   0  0  0  0  0  0
  -23.4445  -30.4629   21.5317 C   0  0  2  0  0  0
  -24.8985  -28.8958   20.0980 C   0  0  0  0  0  0
  -22.7560  -29.4541   22.4847 C   0  0  0  0  0  0
  -18.0306  -28.1396   22.8478 C   0  0  0  0  0  0
  -24.1490  -36.7263   23.2644 C   0  0  0  0  0  0
  -25.9975  -30.7254   21.3852 C   0  0  0  0  0  0
  -26.0706  -29.3408   20.7222 C   0  0  0  0  0  0
  -27.2317  -28.4859   20.7359 C   0  0  0  0  0  0
  -26.0333  -26.8137   19.4711 C   0  0  0  0  0  0
  -24.8907  -27.6451   19.4576 C   0  0  0  0  0  0
  -23.6711  -29.7928   20.1487 C   0  0  0  0  0  0
  -25.4120  -36.3035   24.0318 C   0  0  1  0  0  0
  -20.5917  -28.3721   23.1237 C   0  0  2  0  0  0
  -20.6792  -26.9423   22.5411 C   0  0  0  0  0  0
  -19.5767  -26.6382   21.5217 C   0  0  0  0  0  0
  -18.1945  -26.7936   22.1623 C   0  0  0  0  0  0
  -19.1562  -28.8877   23.2851 C   0  0  0  0  0  0
  -18.9479  -30.1473   23.8879 C   0  0  0  0  0  0
  -17.6476  -30.6591   24.0561 C   0  0  0  0  0  0
  -25.9065  -34.9407   23.5066 C   0  0  0  0  0  0
  -16.5368  -29.9087   23.6332 C   0  0  0  0  0  0
  -16.7291  -28.6505   23.0353 C   0  0  0  0  0  0
  -26.4519  -31.6562   25.0712 C   0  0  0  0  0  0
  -25.3711  -31.3750   26.1415 C   0  0  0  0  0  0
  -27.0389  -30.2962   24.6283 C   0  0  0  0  0  0
  -27.6050  -32.4331   25.7492 C   0  0  0  0  0  0
  -27.5575  -37.1788   24.8465 C   0  0  0  0  0  0
  -21.4255  -29.3041   22.3602 N   0  0  0  0  0  0
  -26.4285  -37.3745   23.9406 N   0  0  0  0  0  0
  -24.7134  -31.0319   22.0905 N   0  0  0  0  0  0
  -23.4213  -28.8091   23.2994 O   0  0  0  0  0  0
  -28.2313  -26.1531   20.3159 O   0  0  0  0  0  0
  -26.5657  -34.8903   22.4646 O   0  0  0  0  0  0
  -23.5529  -32.1311   23.7116 O   0  0  0  0  0  0
  -28.2451  -18.3286   18.1959 C   0  0  0  0  0  0
  -28.3783  -19.6396   18.6888 C   0  0  0  0  0  0
  -28.8176  -17.2269   18.8578 C   0  0  0  0  0  0
  -29.1160  -19.8944   19.8651 C   0  0  0  0  0  0
  -29.5203  -17.3991   20.0707 C   0  0  0  0  0  0
  -28.8763  -23.7440   19.3548 C   0  0  0  0  0  0
  -28.6351  -25.1592   19.3503 C   0  0  0  0  0  0
  -28.6669  -22.5504   20.3062 C   0  0  0  0  0  0
  -28.9506  -25.9234   18.0603 C   0  0  0  0  0  0
  -29.6570  -18.7487   20.5357 N   0  0  0  0  0  0
  -29.4130  -21.3786   20.0161 N   0  0  0  0  0  0
  -29.8113  -16.0743   20.7660 N   0  0  0  0  0  0
  -27.9164  -22.5893   21.2835 O   0  0  0  0  0  0
  -29.4046  -23.3004   18.2000 O   0  0  0  0  0  0
  -27.8391  -20.6602   17.9765 F   0  0  0  0  0  0
  -28.6448  -15.9923   18.3282 F   0  0  0  0  0  0
  -31.4788  -12.6955   19.2040 H   0  0  0  0  0  0
  -30.4159  -11.6001   20.0326 H   0  0  0  0  0  0
  -29.8386  -11.7383   17.5801 H   0  0  0  0  0  0
  -29.6156  -13.4641   17.7140 H   0  0  0  0  0  0
  -27.9508  -11.2686   18.9821 H   0  0  0  0  0  0
  -27.3941  -12.4515   17.8264 H   0  0  0  0  0  0
  -27.5970  -14.2366   19.4349 H   0  0  0  0  0  0
  -28.7527  -12.2715   21.4683 H   0  0  0  0  0  0
  -28.3750  -13.9483   21.7759 H   0  0  0  0  0  0
  -25.2760   -9.5670   22.4762 H   0  0  0  0  0  0
  -23.9998   -7.4619   22.7465 H   0  0  0  0  0  0
  -21.0839   -8.8769   19.8954 H   0  0  0  0  0  0
  -22.3696  -10.9670   19.6178 H   0  0  0  0  0  0
  -21.2006   -7.6146   23.9726 H   0  0  0  0  0  0
  -21.1480   -6.0521   25.9082 H   0  0  0  0  0  0
  -22.0598   -2.7610   23.2845 H   0  0  0  0  0  0
  -22.4051  -11.9910   22.4848 H   0  0  0  0  0  0
  -21.1058  -13.1269   22.2617 H   0  0  0  0  0  0
  -24.6454  -15.8387   20.5004 H   0  0  0  0  0  0
  -26.2498  -15.6127   20.0175 H   0  0  0  0  0  0
  -26.7249  -32.5312   23.1004 H   0  0  0  0  0  0
  -25.0055  -33.9609   25.0319 H   0  0  0  0  0  0
  -22.7460  -31.2884   21.3776 H   0  0  0  0  0  0
  -23.3750  -35.9597   23.3299 H   0  0  0  0  0  0
  -24.3578  -36.8902   22.2061 H   0  0  0  0  0  0
  -23.7252  -37.6459   23.6687 H   0  0  0  0  0  0
  -26.1518  -31.4824   20.6154 H   0  0  0  0  0  0
  -26.8682  -30.7740   22.0277 H   0  0  0  0  0  0
  -28.1152  -28.8061   21.2700 H   0  0  0  0  0  0
  -25.9574  -25.8387   19.0112 H   0  0  0  0  0  0
  -23.9930  -27.2970   18.9658 H   0  0  0  0  0  0
  -23.8024  -30.5689   19.3938 H   0  0  0  0  0  0
  -22.7880  -29.2321   19.8384 H   0  0  0  0  0  0
  -25.1308  -36.1865   25.0811 H   0  0  0  0  0  0
  -21.0009  -28.3318   24.1357 H   0  0  0  0  0  0
  -20.5687  -26.2333   23.3630 H   0  0  0  0  0  0
  -21.6658  -26.7435   22.1207 H   0  0  0  0  0  0
  -19.6926  -25.6285   21.1264 H   0  0  0  0  0  0
  -19.6702  -27.3180   20.6733 H   0  0  0  0  0  0
  -17.4216  -26.6682   21.4025 H   0  0  0  0  0  0
  -18.0340  -26.0084   22.9023 H   0  0  0  0  0  0
  -19.7954  -30.7296   24.2242 H   0  0  0  0  0  0
  -17.5027  -31.6268   24.5165 H   0  0  0  0  0  0
  -15.5367  -30.2983   23.7664 H   0  0  0  0  0  0
  -15.8692  -28.0819   22.7078 H   0  0  0  0  0  0
  -24.5878  -30.7107   25.7745 H   0  0  0  0  0  0
  -24.8911  -32.2931   26.4812 H   0  0  0  0  0  0
  -25.7996  -30.8942   27.0217 H   0  0  0  0  0  0
  -26.3006  -29.6680   24.1285 H   0  0  0  0  0  0
  -27.4006  -29.7265   25.4855 H   0  0  0  0  0  0
  -27.8911  -30.4212   23.9599 H   0  0  0  0  0  0
  -27.2638  -33.3642   26.2032 H   0  0  0  0  0  0
  -28.3875  -32.6876   25.0331 H   0  0  0  0  0  0
  -28.0704  -31.8487   26.5440 H   0  0  0  0  0  0
  -28.2592  -38.0085   24.7499 H   0  0  0  0  0  0
  -28.1070  -36.2613   24.6303 H   0  0  0  0  0  0
  -27.2293  -37.1452   25.8869 H   0  0  0  0  0  0
  -20.9463  -29.8742   21.6771 H   0  0  0  0  0  0
  -26.0155  -38.2814   24.1400 H   0  0  0  0  0  0
  -27.6969  -18.1641   17.2812 H   0  0  0  0  0  0
  -29.9503  -25.6939   17.6890 H   0  0  0  0  0  0
  -28.9335  -27.0042   18.1998 H   0  0  0  0  0  0
  -28.2213  -25.6789   17.2870 H   0  0  0  0  0  0
  -30.0570  -21.6647   19.2913 H   0  0  0  0  0  0
  -29.0225  -15.8005   21.3286 H   0  0  0  0  0  0
  -29.4823  -24.0556   17.6311 H   0  0  0  0  0  0
  1 25  1  0  0  0
  1 30  2  0  0  0
  1 82  1  0  0  0
  2  3  1  0  0  0
  2 25  1  0  0  0
  2 87  1  0  0  0
  2 88  1  0  0  0
  3  4  1  0  0  0
  3 89  1  0  0  0
  3 90  1  0  0  0
  4  5  1  0  0  0
  4 91  1  0  0  0
  4 92  1  0  0  0
  5  6  1  0  0  0
  5 26  1  0  0  0
  5 93  1  0  0  0
  6 25  1  0  0  0
  6 94  1  0  0  0
  6 95  1  0  0  0
  7  8  2  0  0  0
  7 26  1  0  0  0
  7 29  1  0  0  0
  8  9  1  0  0  0
  8 22  1  0  0  0
  9 10  1  0  0  0
  9 27  2  0  0  0
 10 11  2  0  0  0
 10 15  1  0  0  0
 11 12  1  0  0  0
 11 96  1  0  0  0
 12 13  2  0  0  0
 12 97  1  0  0  0
 13 14  1  0  0  0
 13 31  1  0  0  0
 14 15  2  0  0  0
 14 98  1  0  0  0
 15 99  1  0  0  0
 16 17  2  0  0  0
 16 21  1  0  0  0
 16 31  1  0  0  0
 17 18  1  0  0  0
 17100  1  0  0  0
 18 19  2  0  0  0
 18101  1  0  0  0
 19 20  1  0  0  0
 19 24  1  0  0  0
 20 21  2  0  0  0
 20102  1  0  0  0
 21 23  1  0  0  0
 22 28  1  0  0  0
 22 32  2  0  0  0
 26 27  1  0  0  0
 28103  1  0  0  0
 28104  1  0  0  0
 29105  1  0  0  0
 29106  1  0  0  0
 33 34  1  0  0  0
 33 66  1  0  0  0
 33 70  2  0  0  0
 34 36  1  0  0  0
 34 59  1  0  0  0
 34107  1  0  0  0
 35 44  2  0  0  0
 35 45  1  0  0  0
 35 68  1  0  0  0
 36 56  1  0  0  0
 36108  1  0  0  0
 37 39  1  0  0  0
 37 47  1  0  0  0
 37 66  1  0  0  0
 37109  1  0  0  0
 38 43  2  0  0  0
 38 46  1  0  0  0
 38 47  1  0  0  0
 39 64  1  0  0  0
 39 67  2  0  0  0
 40 52  1  0  0  0
 40 53  2  0  0  0
 40 58  1  0  0  0
 41110  1  0  0  0
 41111  1  0  0  0
 41112  1  0  0  0
 41 48  1  0  0  0
 42 43  1  0  0  0
 42 66  1  0  0  0
 42113  1  0  0  0
 42114  1  0  0  0
 43 44  1  0  0  0
 44115  1  0  0  0
 45 46  2  0  0  0
 45116  1  0  0  0
 46117  1  0  0  0
 47118  1  0  0  0
 47119  1  0  0  0
 48 56  1  0  0  0
 48 65  1  0  0  0
 48120  1  0  0  0
 49 50  1  0  0  0
 49 53  1  0  0  0
 49 64  1  0  0  0
 49121  1  0  0  0
 50 51  1  0  0  0
 50122  1  0  0  0
 50123  1  0  0  0
 51 52  1  0  0  0
 51124  1  0  0  0
 51125  1  0  0  0
 52126  1  0  0  0
 52127  1  0  0  0
 53 54  1  0  0  0
 54 55  2  0  0  0
 54128  1  0  0  0
 55 57  1  0  0  0
 55129  1  0  0  0
 56 69  2  0  0  0
 57 58  2  0  0  0
 57130  1  0  0  0
 58131  1  0  0  0
 59 60  1  0  0  0
 59 61  1  0  0  0
 59 62  1  0  0  0
 60132  1  0  0  0
 60133  1  0  0  0
 60134  1  0  0  0
 61135  1  0  0  0
 61136  1  0  0  0
 61137  1  0  0  0
 62138  1  0  0  0
 62139  1  0  0  0
 62140  1  0  0  0
 63 65  1  0  0  0
 63141  1  0  0  0
 63142  1  0  0  0
 63143  1  0  0  0
 64144  1  0  0  0
 65145  1  0  0  0
 68 77  1  0  0  0
 71 72  2  0  0  0
 71 73  1  0  0  0
 71146  1  0  0  0
 72 74  1  0  0  0
 72 85  1  0  0  0
 73 75  2  0  0  0
 73 86  1  0  0  0
 74 80  2  0  0  0
 74 81  1  0  0  0
 75 80  1  0  0  0
 75 82  1  0  0  0
 76 77  2  0  0  0
 76 78  1  0  0  0
 76 84  1  0  0  0
 77 79  1  0  0  0
 78 81  1  0  0  0
 78 83  2  0  0  0
 79147  1  0  0  0
 79148  1  0  0  0
 79149  1  0  0  0
 81150  1  0  0  0
 82151  1  0  0  0
 84152  1  0  0  0
M  ISO  4   1 100  68 101  77 101  82 100
M  END
> <chiral flag>
0

> <version>
0

> <s_m_source_file>
/data/baiqing/PycharmProjects/Reinvent-master-3.2/result/LINK_invent/BTK/process_docking_weight1_custom_product_contain_oxygen_bond_distance_aromatic_linkinvent_7_9_3/rearranged_h_0180.sdf

> <i_m_source_file_index>
93

> <r_mmod_Potential_Energy-OPLS-2005>
376.434143066406

> <r_mmod_Stretch_Energy-OPLS-2005>
217.222793579102

> <r_mmod_Bend_Energy-OPLS-2005>
300.243377685547

> <r_mmod_Torsional_Energy-OPLS-2005>
316.568695068359

> <r_mmod_Improper_Torsional_Energy-OPLS-2005>
13.2291650772095

> <r_mmod_Van_der_Waal_Energy-OPLS-2005>
145.608352661133

> <r_mmod_Electrostatic_Energy-OPLS-2005>
-554.872741699219

> <r_mmod_Solvation_Energy-OPLS-2005>
-243.449859619141

> <b_mmod_Minimization_Converged-OPLS-2005>
0

> <r_mmod_RMS_Derivative-OPLS-2005>
1.27852976322174

$$$$
