0
                    3D
 Structure written by MMmdl.
156164  0  0  1  0            999 V2000
  -30.6655  -14.6288   20.5836 C   0  0  0  0  0  0
  -30.4326  -12.4125   19.4518 C   0  0  0  0  0  0
  -29.5053  -12.5372   18.2226 C   0  0  0  0  0  0
  -28.0272  -12.3678   18.6246 C   0  0  0  0  0  0
  -27.6537  -13.2203   19.8643 C   0  0  2  0  0  0
  -28.6915  -13.0463   20.9925 C   0  0  0  0  0  0
  -25.2548  -13.8169   20.5669 C   0  0  0  0  0  0
  -24.1816  -13.0435   20.9166 C   0  0  0  0  0  0
  -24.6386  -11.6906   20.8709 C   0  0  0  0  0  0
  -23.9055  -10.4288   21.0380 C   0  0  0  0  0  0
  -24.3609   -9.4208   21.9162 C   0  0  0  0  0  0
  -23.6288   -8.2246   22.0744 C   0  0  0  0  0  0
  -22.4269   -8.0278   21.3539 C   0  0  0  0  0  0
  -21.9897   -9.0247   20.4637 C   0  0  0  0  0  0
  -22.7223  -10.2125   20.3038 C   0  0  0  0  0  0
  -21.6862   -6.0726   22.5278 C   0  0  0  0  0  0
  -21.4019   -6.5630   23.8208 C   0  0  0  0  0  0
  -21.3657   -5.6789   24.9171 C   0  0  0  0  0  0
  -21.6049   -4.3050   24.7228 C   0  0  0  0  0  0
  -21.8818   -3.8137   23.4351 C   0  0  0  0  0  0
  -21.9190   -4.6955   22.3401 C   0  0  0  0  0  0
  -22.7838  -13.5227   21.1849 C   0  0  0  0  0  0
  -22.1662   -4.2136   21.0984 F   0  0  0  0  0  0
  -21.5628   -3.4533   25.7740 F   0  0  0  0  0  0
  -30.0154  -13.4174   20.4574 N   0  0  0  0  0  0
  -26.2980  -12.9365   20.3289 N   0  0  0  0  0  0
  -25.9315  -11.6513   20.5719 N   0  0  0  0  0  0
  -22.0487  -12.8229   22.0416 N   0  0  0  0  0  0
  -25.4268  -15.1894   20.4113 N   0  0  0  0  0  0
  -31.7329  -14.8382   19.9951 O   0  0  0  0  0  0
  -21.6638   -6.8874   21.4237 O   0  0  0  0  0  0
  -22.3514  -14.5521   20.6686 O   0  0  0  0  0  0
  -24.6269  -31.8595   23.1995 C   0  0  0  0  0  0
  -25.9119  -32.4769   23.8337 C   0  0  1  0  0  0
  -27.2240  -27.3171   20.1141 C   0  0  0  0  0  0
  -25.5937  -33.8570   24.2269 N   0  0  0  0  0  0
  -23.4186  -30.4820   21.5429 C   0  0  2  0  0  0
  -24.8629  -28.9325   20.1092 C   0  0  0  0  0  0
  -22.7465  -29.4615   22.4928 C   0  0  0  0  0  0
  -18.0297  -28.1386   22.8484 C   0  0  0  0  0  0
  -24.1479  -36.7293   23.2636 C   0  0  0  0  0  0
  -25.9580  -30.7904   21.3654 C   0  0  0  0  0  0
  -26.0297  -29.4148   20.7134 C   0  0  0  0  0  0
  -27.2104  -28.6169   20.7075 C   0  0  0  0  0  0
  -26.0315  -26.8795   19.4947 C   0  0  0  0  0  0
  -24.8655  -27.6714   19.4915 C   0  0  0  0  0  0
  -23.6297  -29.8120   20.1594 C   0  0  0  0  0  0
  -25.4104  -36.3077   24.0320 C   0  0  1  0  0  0
  -20.5884  -28.3680   23.1282 C   0  0  2  0  0  0
  -20.6766  -26.9401   22.5406 C   0  0  0  0  0  0
  -19.5750  -26.6382   21.5201 C   0  0  0  0  0  0
  -18.1934  -26.7933   22.1617 C   0  0  0  0  0  0
  -19.1542  -28.8854   23.2879 C   0  0  0  0  0  0
  -18.9457  -30.1458   23.8897 C   0  0  0  0  0  0
  -17.6456  -30.6577   24.0566 C   0  0  0  0  0  0
  -25.9049  -34.9444   23.5096 C   0  0  0  0  0  0
  -16.5352  -29.9074   23.6323 C   0  0  0  0  0  0
  -16.7281  -28.6495   23.0344 C   0  0  0  0  0  0
  -26.4496  -31.6580   25.0715 C   0  0  0  0  0  0
  -25.3715  -31.3717   26.1428 C   0  0  0  0  0  0
  -27.0327  -30.3005   24.6152 C   0  0  0  0  0  0
  -27.6066  -32.4306   25.7489 C   0  0  0  0  0  0
  -27.5568  -37.1800   24.8468 C   0  0  0  0  0  0
  -21.4177  -29.3044   22.3686 N   0  0  0  0  0  0
  -26.4281  -37.3773   23.9404 N   0  0  0  0  0  0
  -24.6871  -31.0612   22.0932 N   0  0  0  0  0  0
  -23.4192  -28.8150   23.2991 O   0  0  0  0  0  0
  -28.3737  -26.5162   20.1712 O   0  0  0  0  0  0
  -26.5614  -34.8919   22.4657 O   0  0  0  0  0  0
  -23.5439  -32.1386   23.7336 O   0  0  0  0  0  0
  -28.9588  -17.8692   22.1889 C   0  0  0  0  0  0
  -29.8358  -19.4259   20.0673 C   0  0  0  0  0  0
  -29.7728  -17.1853   21.2406 C   0  0  0  0  0  0
  -29.0622  -20.0850   21.0725 C   0  0  0  0  0  0
  -30.1868  -18.0230   20.1407 C   0  0  0  0  0  0
  -28.6271  -19.2418   22.1196 C   0  0  0  0  0  0
  -28.7122  -22.4625   20.3483 C   0  0  0  0  0  0
  -30.1189  -15.6982   21.5988 C   0  0  0  0  0  0
  -26.7510  -23.8781   21.1991 C   0  0  0  0  0  0
  -28.4340  -25.1104   19.7011 C   0  0  0  0  0  0
  -28.2250  -23.9238   20.7470 C   0  0  1  0  0  0
  -30.0047  -15.3236   22.8102 N   0  0  0  0  0  0
  -28.7053  -21.4797   21.1969 N   0  0  0  0  0  0
  -30.9666  -17.5155   19.0981 N   0  0  0  0  0  0
  -27.8754  -19.7678   23.1186 F   0  0  0  0  0  0
  -31.4728  -12.5345   19.1461 H   0  0  0  0  0  0
  -30.3718  -11.4101   19.8787 H   0  0  0  0  0  0
  -29.7783  -11.7969   17.4693 H   0  0  0  0  0  0
  -29.6456  -13.5143   17.7573 H   0  0  0  0  0  0
  -27.8587  -11.3121   18.8393 H   0  0  0  0  0  0
  -27.3763  -12.6135   17.7846 H   0  0  0  0  0  0
  -27.6828  -14.2633   19.5474 H   0  0  0  0  0  0
  -28.7069  -12.0103   21.3346 H   0  0  0  0  0  0
  -28.3896  -13.6291   21.8596 H   0  0  0  0  0  0
  -25.2760   -9.5690   22.4725 H   0  0  0  0  0  0
  -23.9995   -7.4645   22.7473 H   0  0  0  0  0  0
  -21.0824   -8.8759   19.8961 H   0  0  0  0  0  0
  -22.3674  -10.9652   19.6140 H   0  0  0  0  0  0
  -21.2015   -7.6138   23.9709 H   0  0  0  0  0  0
  -21.1485   -6.0517   25.9074 H   0  0  0  0  0  0
  -22.0600   -2.7600   23.2854 H   0  0  0  0  0  0
  -22.4112  -11.9908   22.4827 H   0  0  0  0  0  0
  -21.1098  -13.1247   22.2611 H   0  0  0  0  0  0
  -24.6621  -15.8465   20.5232 H   0  0  0  0  0  0
  -26.2853  -15.6277   20.1034 H   0  0  0  0  0  0
  -26.7204  -32.5427   23.1101 H   0  0  0  0  0  0
  -25.0114  -33.9717   25.0443 H   0  0  0  0  0  0
  -22.7119  -31.3017   21.3982 H   0  0  0  0  0  0
  -23.3735  -35.9632   23.3302 H   0  0  0  0  0  0
  -24.3590  -36.8915   22.2053 H   0  0  0  0  0  0
  -23.7234  -37.6497   23.6661 H   0  0  0  0  0  0
  -26.0869  -31.5467   20.5894 H   0  0  0  0  0  0
  -26.8406  -30.8462   21.9915 H   0  0  0  0  0  0
  -28.1060  -28.9864   21.1869 H   0  0  0  0  0  0
  -25.9620  -25.9122   19.0225 H   0  0  0  0  0  0
  -23.9695  -27.2953   19.0170 H   0  0  0  0  0  0
  -23.7425  -30.5845   19.3977 H   0  0  0  0  0  0
  -22.7506  -29.2360   19.8638 H   0  0  0  0  0  0
  -25.1283  -36.1927   25.0811 H   0  0  0  0  0  0
  -20.9992  -28.3260   24.1395 H   0  0  0  0  0  0
  -20.5642  -26.2289   23.3604 H   0  0  0  0  0  0
  -21.6631  -26.7419   22.1209 H   0  0  0  0  0  0
  -19.6893  -25.6289   21.1237 H   0  0  0  0  0  0
  -19.6686  -27.3183   20.6725 H   0  0  0  0  0  0
  -17.4189  -26.6690   21.4031 H   0  0  0  0  0  0
  -18.0343  -26.0080   22.9021 H   0  0  0  0  0  0
  -19.7936  -30.7282   24.2255 H   0  0  0  0  0  0
  -17.5006  -31.6257   24.5173 H   0  0  0  0  0  0
  -15.5347  -30.2968   23.7641 H   0  0  0  0  0  0
  -15.8695  -28.0811   22.7044 H   0  0  0  0  0  0
  -24.5910  -30.7054   25.7745 H   0  0  0  0  0  0
  -24.8880  -32.2881   26.4824 H   0  0  0  0  0  0
  -25.8014  -30.8916   27.0226 H   0  0  0  0  0  0
  -26.2899  -29.6781   24.1147 H   0  0  0  0  0  0
  -27.4011  -29.7230   25.4643 H   0  0  0  0  0  0
  -27.8772  -30.4301   23.9377 H   0  0  0  0  0  0
  -27.2695  -33.3617   26.2049 H   0  0  0  0  0  0
  -28.3874  -32.6844   25.0308 H   0  0  0  0  0  0
  -28.0729  -31.8441   26.5410 H   0  0  0  0  0  0
  -28.2590  -38.0095   24.7504 H   0  0  0  0  0  0
  -28.1052  -36.2626   24.6289 H   0  0  0  0  0  0
  -27.2297  -37.1445   25.8877 H   0  0  0  0  0  0
  -20.9347  -29.8787   21.6926 H   0  0  0  0  0  0
  -26.0157  -38.2846   24.1410 H   0  0  0  0  0  0
  -28.5677  -17.3458   23.0474 H   0  0  0  0  0  0
  -30.1916  -20.0167   19.2359 H   0  0  0  0  0  0
  -29.0293  -22.3424   19.3095 H   0  0  0  0  0  0
  -26.0901  -23.6136   20.3725 H   0  0  0  0  0  0
  -26.4268  -24.8435   21.5867 H   0  0  0  0  0  0
  -26.5956  -23.1449   21.9916 H   0  0  0  0  0  0
  -27.8130  -24.9479   18.8218 H   0  0  0  0  0  0
  -29.4501  -25.0097   19.3178 H   0  0  0  0  0  0
  -28.8144  -24.1963   21.6227 H   0  0  0  0  0  0
  -29.6919  -16.0802   23.4053 H   0  0  0  0  0  0
  -31.4594  -18.1408   18.4676 H   0  0  0  0  0  0
  -31.4035  -16.5964   19.1841 H   0  0  0  0  0  0
  1 25  1  0  0  0
  1 30  2  0  0  0
  1 78  1  0  0  0
  2  3  1  0  0  0
  2 25  1  0  0  0
  2 86  1  0  0  0
  2 87  1  0  0  0
  3  4  1  0  0  0
  3 88  1  0  0  0
  3 89  1  0  0  0
  4  5  1  0  0  0
  4 90  1  0  0  0
  4 91  1  0  0  0
  5  6  1  0  0  0
  5 26  1  0  0  0
  5 92  1  0  0  0
  6 25  1  0  0  0
  6 93  1  0  0  0
  6 94  1  0  0  0
  7  8  2  0  0  0
  7 26  1  0  0  0
  7 29  1  0  0  0
  8  9  1  0  0  0
  8 22  1  0  0  0
  9 10  1  0  0  0
  9 27  2  0  0  0
 10 11  2  0  0  0
 10 15  1  0  0  0
 11 12  1  0  0  0
 11 95  1  0  0  0
 12 13  2  0  0  0
 12 96  1  0  0  0
 13 14  1  0  0  0
 13 31  1  0  0  0
 14 15  2  0  0  0
 14 97  1  0  0  0
 15 98  1  0  0  0
 16 17  2  0  0  0
 16 21  1  0  0  0
 16 31  1  0  0  0
 17 18  1  0  0  0
 17 99  1  0  0  0
 18 19  2  0  0  0
 18100  1  0  0  0
 19 20  1  0  0  0
 19 24  1  0  0  0
 20 21  2  0  0  0
 20101  1  0  0  0
 21 23  1  0  0  0
 22 28  1  0  0  0
 22 32  2  0  0  0
 26 27  1  0  0  0
 28102  1  0  0  0
 28103  1  0  0  0
 29104  1  0  0  0
 29105  1  0  0  0
 33 34  1  0  0  0
 33 66  1  0  0  0
 33 70  2  0  0  0
 34 36  1  0  0  0
 34 59  1  0  0  0
 34106  1  0  0  0
 35 44  2  0  0  0
 35 45  1  0  0  0
 35 68  1  0  0  0
 36 56  1  0  0  0
 36107  1  0  0  0
 37 39  1  0  0  0
 37 47  1  0  0  0
 37 66  1  0  0  0
 37108  1  0  0  0
 38 43  2  0  0  0
 38 46  1  0  0  0
 38 47  1  0  0  0
 39 64  1  0  0  0
 39 67  2  0  0  0
 40 52  1  0  0  0
 40 53  2  0  0  0
 40 58  1  0  0  0
 41109  1  0  0  0
 41110  1  0  0  0
 41111  1  0  0  0
 41 48  1  0  0  0
 42 43  1  0  0  0
 42 66  1  0  0  0
 42112  1  0  0  0
 42113  1  0  0  0
 43 44  1  0  0  0
 44114  1  0  0  0
 45 46  2  0  0  0
 45115  1  0  0  0
 46116  1  0  0  0
 47117  1  0  0  0
 47118  1  0  0  0
 48 56  1  0  0  0
 48 65  1  0  0  0
 48119  1  0  0  0
 49 50  1  0  0  0
 49 53  1  0  0  0
 49 64  1  0  0  0
 49120  1  0  0  0
 50 51  1  0  0  0
 50121  1  0  0  0
 50122  1  0  0  0
 51 52  1  0  0  0
 51123  1  0  0  0
 51124  1  0  0  0
 52125  1  0  0  0
 52126  1  0  0  0
 53 54  1  0  0  0
 54 55  2  0  0  0
 54127  1  0  0  0
 55 57  1  0  0  0
 55128  1  0  0  0
 56 69  2  0  0  0
 57 58  2  0  0  0
 57129  1  0  0  0
 58130  1  0  0  0
 59 60  1  0  0  0
 59 61  1  0  0  0
 59 62  1  0  0  0
 60131  1  0  0  0
 60132  1  0  0  0
 60133  1  0  0  0
 61134  1  0  0  0
 61135  1  0  0  0
 61136  1  0  0  0
 62137  1  0  0  0
 62138  1  0  0  0
 62139  1  0  0  0
 63 65  1  0  0  0
 63140  1  0  0  0
 63141  1  0  0  0
 63142  1  0  0  0
 64143  1  0  0  0
 65144  1  0  0  0
 68 80  1  0  0  0
 71 73  2  0  0  0
 71 76  1  0  0  0
 71145  1  0  0  0
 72 74  1  0  0  0
 72 75  2  0  0  0
 72146  1  0  0  0
 73 75  1  0  0  0
 73 78  1  0  0  0
 74 76  2  0  0  0
 74 83  1  0  0  0
 75 84  1  0  0  0
 76 85  1  0  0  0
 77 81  1  0  0  0
 77 83  2  0  0  0
 77147  1  0  0  0
 78 82  2  0  0  0
 79148  1  0  0  0
 79149  1  0  0  0
 79150  1  0  0  0
 79 81  1  0  0  0
 80 81  1  0  0  0
 80151  1  0  0  0
 80152  1  0  0  0
 81153  1  0  0  0
 82154  1  0  0  0
 84155  1  0  0  0
 84156  1  0  0  0
M  ISO  4   1 100  68 101  78 100  80 101
M  END
> <chiral flag>
0

> <version>
0

> <s_m_source_file>
/data/baiqing/PycharmProjects/Reinvent-master-3.2/result/LINK_invent/BTK/process_docking_weight1_custom_product_contain_oxygen_bond_distance_aromatic_linkinvent_7_9_3/rearranged_h_0115.sdf

> <i_m_source_file_index>
1

> <r_mmod_Potential_Energy-OPLS-2005>
289.028778076172

> <r_mmod_Stretch_Energy-OPLS-2005>
102.871070861816

> <r_mmod_Bend_Energy-OPLS-2005>
210.30534362793

> <r_mmod_Torsional_Energy-OPLS-2005>
196.026428222656

> <r_mmod_Improper_Torsional_Energy-OPLS-2005>
5.13138961791992

> <r_mmod_Van_der_Waal_Energy-OPLS-2005>
152.009231567383

> <r_mmod_Electrostatic_Energy-OPLS-2005>
-219.180480957031

> <r_mmod_Solvation_Energy-OPLS-2005>
-202.30793762207

> <b_mmod_Minimization_Converged-OPLS-2005>
0

> <r_mmod_RMS_Derivative-OPLS-2005>
2.12598443031311

$$$$
1
                    3D
 Structure written by MMmdl.
162170  0  0  1  0            999 V2000
  -30.6803  -14.4345   20.6804 C   0  0  0  0  0  0
  -30.4377  -12.3210   19.4096 C   0  0  0  0  0  0
  -29.5000  -12.5360   18.2034 C   0  0  0  0  0  0
  -28.0219  -12.3779   18.6096 C   0  0  0  0  0  0
  -27.6683  -13.1967   19.8789 C   0  0  2  0  0  0
  -28.6990  -12.9164   20.9933 C   0  0  0  0  0  0
  -25.2609  -13.8146   20.5584 C   0  0  0  0  0  0
  -24.1854  -13.0452   20.9151 C   0  0  0  0  0  0
  -24.6386  -11.6908   20.8721 C   0  0  0  0  0  0
  -23.9033  -10.4298   21.0396 C   0  0  0  0  0  0
  -24.3598   -9.4221   21.9172 C   0  0  0  0  0  0
  -23.6287   -8.2246   22.0747 C   0  0  0  0  0  0
  -22.4265   -8.0282   21.3554 C   0  0  0  0  0  0
  -21.9894   -9.0241   20.4648 C   0  0  0  0  0  0
  -22.7209  -10.2126   20.3048 C   0  0  0  0  0  0
  -21.6851   -6.0734   22.5280 C   0  0  0  0  0  0
  -21.4008   -6.5635   23.8219 C   0  0  0  0  0  0
  -21.3662   -5.6787   24.9175 C   0  0  0  0  0  0
  -21.6045   -4.3050   24.7225 C   0  0  0  0  0  0
  -21.8821   -3.8148   23.4344 C   0  0  0  0  0  0
  -21.9193   -4.6962   22.3404 C   0  0  0  0  0  0
  -22.7882  -13.5271   21.1843 C   0  0  0  0  0  0
  -22.1665   -4.2154   21.0981 F   0  0  0  0  0  0
  -21.5628   -3.4534   25.7733 F   0  0  0  0  0  0
  -30.0441  -13.2478   20.4813 N   0  0  0  0  0  0
  -26.3044  -12.9292   20.3338 N   0  0  0  0  0  0
  -25.9312  -11.6462   20.5737 N   0  0  0  0  0  0
  -22.0510  -12.8262   22.0405 N   0  0  0  0  0  0
  -25.4341  -15.1826   20.3845 N   0  0  0  0  0  0
  -31.6879  -14.7838   20.0539 O   0  0  0  0  0  0
  -21.6642   -6.8870   21.4241 O   0  0  0  0  0  0
  -22.3546  -14.5567   20.6687 O   0  0  0  0  0  0
  -24.6160  -31.8690   23.2089 C   0  0  0  0  0  0
  -25.9058  -32.4833   23.8375 C   0  0  1  0  0  0
  -27.2319  -27.4298   20.0828 C   0  0  0  0  0  0
  -25.5915  -33.8624   24.2319 N   0  0  0  0  0  0
  -23.4024  -30.4973   21.5485 C   0  0  2  0  0  0
  -24.8460  -28.9634   20.1106 C   0  0  0  0  0  0
  -22.7412  -29.4685   22.4942 C   0  0  0  0  0  0
  -18.0276  -28.1382   22.8494 C   0  0  0  0  0  0
  -24.1487  -36.7304   23.2631 C   0  0  0  0  0  0
  -25.9316  -30.8314   21.3643 C   0  0  0  0  0  0
  -26.0057  -29.4663   20.7104 C   0  0  0  0  0  0
  -27.1979  -28.7052   20.6959 C   0  0  0  0  0  0
  -26.0450  -26.9426   19.4846 C   0  0  0  0  0  0
  -24.8608  -27.7008   19.4965 C   0  0  0  0  0  0
  -23.6114  -29.8343   20.1611 C   0  0  0  0  0  0
  -25.4112  -36.3115   24.0331 C   0  0  1  0  0  0
  -20.5870  -28.3682   23.1296 C   0  0  2  0  0  0
  -20.6771  -26.9417   22.5400 C   0  0  0  0  0  0
  -19.5745  -26.6386   21.5207 C   0  0  0  0  0  0
  -18.1925  -26.7927   22.1625 C   0  0  0  0  0  0
  -19.1526  -28.8842   23.2904 C   0  0  0  0  0  0
  -18.9457  -30.1437   23.8934 C   0  0  0  0  0  0
  -17.6472  -30.6598   24.0570 C   0  0  0  0  0  0
  -25.9036  -34.9483   23.5123 C   0  0  0  0  0  0
  -16.5359  -29.9107   23.6330 C   0  0  0  0  0  0
  -16.7264  -28.6513   23.0360 C   0  0  0  0  0  0
  -26.4484  -31.6620   25.0708 C   0  0  0  0  0  0
  -25.3735  -31.3762   26.1445 C   0  0  0  0  0  0
  -27.0303  -30.3057   24.6088 C   0  0  0  0  0  0
  -27.6047  -32.4342   25.7487 C   0  0  0  0  0  0
  -27.5586  -37.1809   24.8465 C   0  0  0  0  0  0
  -21.4137  -29.3060   22.3686 N   0  0  0  0  0  0
  -26.4293  -37.3805   23.9421 N   0  0  0  0  0  0
  -24.6686  -31.0803   22.0992 N   0  0  0  0  0  0
  -23.4189  -28.8212   23.2961 O   0  0  0  0  0  0
  -28.4213  -26.7184   20.0962 O   0  0  0  0  0  0
  -26.5575  -34.8947   22.4676 O   0  0  0  0  0  0
  -23.5359  -32.1408   23.7518 O   0  0  0  0  0  0
  -28.2993  -16.4748   22.4178 C   0  0  0  0  0  0
  -29.8049  -17.4908   20.8010 C   0  0  0  0  0  0
  -27.4574  -17.6045   22.3822 C   0  0  0  0  0  0
  -27.7628  -18.6702   21.4898 C   0  0  0  0  0  0
  -29.4468  -16.3804   21.6059 C   0  0  0  0  0  0
  -28.9872  -18.6531   20.7690 C   0  0  0  0  0  0
  -28.1259  -23.0396   20.6321 C   0  0  0  0  0  0
  -27.8311  -24.3519   20.4926 C   0  0  0  0  0  0
  -26.2489  -17.6099   23.2819 C   0  0  0  0  0  0
  -26.7579  -19.7905   21.2342 C   0  0  0  0  0  0
  -29.1819  -22.2125   19.8987 C   0  0  0  0  0  0
  -28.4748  -25.3811   19.5659 C   0  0  0  0  0  0
  -29.6632  -20.9532   20.6784 C   0  0  0  0  0  0
  -26.0342  -18.7232   23.9714 N   0  0  0  0  0  0
  -30.1776  -15.1565   21.6971 N   0  0  0  0  0  0
  -25.5466  -16.6126   23.4316 O   0  0  0  0  0  0
  -29.3645  -19.7277   19.9848 O   0  0  0  0  0  0
  -31.4788  -12.4631   19.1138 H   0  0  0  0  0  0
  -30.3678  -11.2927   19.7690 H   0  0  0  0  0  0
  -29.7482  -11.8380   17.4038 H   0  0  0  0  0  0
  -29.6584  -13.5345   17.7940 H   0  0  0  0  0  0
  -27.8396  -11.3170   18.7897 H   0  0  0  0  0  0
  -27.3706  -12.6625   17.7829 H   0  0  0  0  0  0
  -27.7309  -14.2534   19.6160 H   0  0  0  0  0  0
  -28.6754  -11.8597   21.2649 H   0  0  0  0  0  0
  -28.4227  -13.4450   21.9047 H   0  0  0  0  0  0
  -25.2736   -9.5710   22.4751 H   0  0  0  0  0  0
  -24.0002   -7.4638   22.7457 H   0  0  0  0  0  0
  -21.0823   -8.8740   19.8956 H   0  0  0  0  0  0
  -22.3652  -10.9648   19.6159 H   0  0  0  0  0  0
  -21.1999   -7.6142   23.9723 H   0  0  0  0  0  0
  -21.1483   -6.0515   25.9082 H   0  0  0  0  0  0
  -22.0601   -2.7607   23.2841 H   0  0  0  0  0  0
  -22.4100  -11.9922   22.4812 H   0  0  0  0  0  0
  -21.1126  -13.1299   22.2607 H   0  0  0  0  0  0
  -24.6891  -15.8486   20.5538 H   0  0  0  0  0  0
  -26.3132  -15.6221   20.1429 H   0  0  0  0  0  0
  -26.7134  -32.5556   23.1145 H   0  0  0  0  0  0
  -25.0140  -33.9777   25.0518 H   0  0  0  0  0  0
  -22.6918  -31.3146   21.4114 H   0  0  0  0  0  0
  -23.3760  -35.9633   23.3311 H   0  0  0  0  0  0
  -24.3561  -36.8886   22.2039 H   0  0  0  0  0  0
  -23.7229  -37.6509   23.6629 H   0  0  0  0  0  0
  -26.0475  -31.5996   20.5980 H   0  0  0  0  0  0
  -26.8202  -30.8812   21.9829 H   0  0  0  0  0  0
  -28.0950  -29.0917   21.1596 H   0  0  0  0  0  0
  -26.0069  -25.9765   19.0050 H   0  0  0  0  0  0
  -23.9683  -27.3114   19.0262 H   0  0  0  0  0  0
  -23.7262  -30.6099   19.4012 H   0  0  0  0  0  0
  -22.7348  -29.2569   19.8623 H   0  0  0  0  0  0
  -25.1305  -36.1971   25.0821 H   0  0  0  0  0  0
  -20.9978  -28.3252   24.1412 H   0  0  0  0  0  0
  -20.5670  -26.2301   23.3587 H   0  0  0  0  0  0
  -21.6641  -26.7459   22.1200 H   0  0  0  0  0  0
  -19.6914  -25.6296   21.1230 H   0  0  0  0  0  0
  -19.6689  -27.3201   20.6736 H   0  0  0  0  0  0
  -17.4196  -26.6661   21.4026 H   0  0  0  0  0  0
  -18.0343  -26.0065   22.9019 H   0  0  0  0  0  0
  -19.7932  -30.7222   24.2332 H   0  0  0  0  0  0
  -17.5039  -31.6284   24.5153 H   0  0  0  0  0  0
  -15.5361  -30.3045   23.7617 H   0  0  0  0  0  0
  -15.8650  -28.0839   22.7089 H   0  0  0  0  0  0
  -24.5894  -30.7127   25.7791 H   0  0  0  0  0  0
  -24.8949  -32.2939   26.4875 H   0  0  0  0  0  0
  -25.8049  -30.8936   27.0217 H   0  0  0  0  0  0
  -26.2843  -29.6841   24.1111 H   0  0  0  0  0  0
  -27.4037  -29.7283   25.4558 H   0  0  0  0  0  0
  -27.8715  -30.4388   23.9274 H   0  0  0  0  0  0
  -27.2643  -33.3629   26.2097 H   0  0  0  0  0  0
  -28.3850  -32.6914   25.0306 H   0  0  0  0  0  0
  -28.0733  -31.8438   26.5376 H   0  0  0  0  0  0
  -28.2613  -38.0102   24.7525 H   0  0  0  0  0  0
  -28.1060  -36.2624   24.6284 H   0  0  0  0  0  0
  -27.2283  -37.1465   25.8859 H   0  0  0  0  0  0
  -20.9264  -29.8820   21.6960 H   0  0  0  0  0  0
  -26.0177  -38.2883   24.1421 H   0  0  0  0  0  0
  -28.0334  -15.6559   23.0744 H   0  0  0  0  0  0
  -30.7073  -17.4580   20.2071 H   0  0  0  0  0  0
  -27.5263  -22.4899   21.3396 H   0  0  0  0  0  0
  -27.0211  -24.7380   21.0964 H   0  0  0  0  0  0
  -25.7405  -19.4010   21.1936 H   0  0  0  0  0  0
  -26.9292  -20.2771   20.2749 H   0  0  0  0  0  0
  -26.8071  -20.5414   22.0200 H   0  0  0  0  0  0
  -30.0354  -22.8521   19.6768 H   0  0  0  0  0  0
  -28.7735  -21.9129   18.9329 H   0  0  0  0  0  0
  -28.0254  -25.3338   18.5735 H   0  0  0  0  0  0
  -29.5220  -25.1197   19.4169 H   0  0  0  0  0  0
  -29.2829  -20.9529   21.7009 H   0  0  0  0  0  0
  -30.7477  -21.0001   20.7819 H   0  0  0  0  0  0
  -26.6608  -19.5049   23.8669 H   0  0  0  0  0  0
  -25.2531  -18.7918   24.6068 H   0  0  0  0  0  0
  -29.7542  -14.5296   22.3639 H   0  0  0  0  0  0
  1 25  1  0  0  0
  1 30  2  0  0  0
  1 85  1  0  0  0
  2  3  1  0  0  0
  2 25  1  0  0  0
  2 88  1  0  0  0
  2 89  1  0  0  0
  3  4  1  0  0  0
  3 90  1  0  0  0
  3 91  1  0  0  0
  4  5  1  0  0  0
  4 92  1  0  0  0
  4 93  1  0  0  0
  5  6  1  0  0  0
  5 26  1  0  0  0
  5 94  1  0  0  0
  6 25  1  0  0  0
  6 95  1  0  0  0
  6 96  1  0  0  0
  7  8  2  0  0  0
  7 26  1  0  0  0
  7 29  1  0  0  0
  8  9  1  0  0  0
  8 22  1  0  0  0
  9 10  1  0  0  0
  9 27  2  0  0  0
 10 11  2  0  0  0
 10 15  1  0  0  0
 11 12  1  0  0  0
 11 97  1  0  0  0
 12 13  2  0  0  0
 12 98  1  0  0  0
 13 14  1  0  0  0
 13 31  1  0  0  0
 14 15  2  0  0  0
 14 99  1  0  0  0
 15100  1  0  0  0
 16 17  2  0  0  0
 16 21  1  0  0  0
 16 31  1  0  0  0
 17 18  1  0  0  0
 17101  1  0  0  0
 18 19  2  0  0  0
 18102  1  0  0  0
 19 20  1  0  0  0
 19 24  1  0  0  0
 20 21  2  0  0  0
 20103  1  0  0  0
 21 23  1  0  0  0
 22 28  1  0  0  0
 22 32  2  0  0  0
 26 27  1  0  0  0
 28104  1  0  0  0
 28105  1  0  0  0
 29106  1  0  0  0
 29107  1  0  0  0
 33 34  1  0  0  0
 33 66  1  0  0  0
 33 70  2  0  0  0
 34 36  1  0  0  0
 34 59  1  0  0  0
 34108  1  0  0  0
 35 44  2  0  0  0
 35 45  1  0  0  0
 35 68  1  0  0  0
 36 56  1  0  0  0
 36109  1  0  0  0
 37 39  1  0  0  0
 37 47  1  0  0  0
 37 66  1  0  0  0
 37110  1  0  0  0
 38 43  2  0  0  0
 38 46  1  0  0  0
 38 47  1  0  0  0
 39 64  1  0  0  0
 39 67  2  0  0  0
 40 52  1  0  0  0
 40 53  2  0  0  0
 40 58  1  0  0  0
 41111  1  0  0  0
 41112  1  0  0  0
 41113  1  0  0  0
 41 48  1  0  0  0
 42 43  1  0  0  0
 42 66  1  0  0  0
 42114  1  0  0  0
 42115  1  0  0  0
 43 44  1  0  0  0
 44116  1  0  0  0
 45 46  2  0  0  0
 45117  1  0  0  0
 46118  1  0  0  0
 47119  1  0  0  0
 47120  1  0  0  0
 48 56  1  0  0  0
 48 65  1  0  0  0
 48121  1  0  0  0
 49 50  1  0  0  0
 49 53  1  0  0  0
 49 64  1  0  0  0
 49122  1  0  0  0
 50 51  1  0  0  0
 50123  1  0  0  0
 50124  1  0  0  0
 51 52  1  0  0  0
 51125  1  0  0  0
 51126  1  0  0  0
 52127  1  0  0  0
 52128  1  0  0  0
 53 54  1  0  0  0
 54 55  2  0  0  0
 54129  1  0  0  0
 55 57  1  0  0  0
 55130  1  0  0  0
 56 69  2  0  0  0
 57 58  2  0  0  0
 57131  1  0  0  0
 58132  1  0  0  0
 59 60  1  0  0  0
 59 61  1  0  0  0
 59 62  1  0  0  0
 60133  1  0  0  0
 60134  1  0  0  0
 60135  1  0  0  0
 61136  1  0  0  0
 61137  1  0  0  0
 61138  1  0  0  0
 62139  1  0  0  0
 62140  1  0  0  0
 62141  1  0  0  0
 63 65  1  0  0  0
 63142  1  0  0  0
 63143  1  0  0  0
 63144  1  0  0  0
 64145  1  0  0  0
 65146  1  0  0  0
 68 82  1  0  0  0
 71 73  2  0  0  0
 71 75  1  0  0  0
 71147  1  0  0  0
 72 75  2  0  0  0
 72 76  1  0  0  0
 72148  1  0  0  0
 73 74  1  0  0  0
 73 79  1  0  0  0
 74 76  2  0  0  0
 74 80  1  0  0  0
 75 85  1  0  0  0
 76 87  1  0  0  0
 77 78  2  0  0  0
 77 81  1  0  0  0
 77149  1  0  0  0
 78 82  1  0  0  0
 78150  1  0  0  0
 79 84  1  0  0  0
 79 86  2  0  0  0
 80151  1  0  0  0
 80152  1  0  0  0
 80153  1  0  0  0
 81 83  1  0  0  0
 81154  1  0  0  0
 81155  1  0  0  0
 82156  1  0  0  0
 82157  1  0  0  0
 83 87  1  0  0  0
 83158  1  0  0  0
 83159  1  0  0  0
 84160  1  0  0  0
 84161  1  0  0  0
 85162  1  0  0  0
M  ISO  4   1 100  68 101  82 101  85 100
M  END
> <chiral flag>
0

> <version>
0

> <s_m_source_file>
/data/baiqing/PycharmProjects/Reinvent-master-3.2/result/LINK_invent/BTK/process_docking_weight1_custom_product_contain_oxygen_bond_distance_aromatic_linkinvent_7_9_3/rearranged_h_0115.sdf

> <i_m_source_file_index>
2

> <r_mmod_Potential_Energy-OPLS-2005>
-135.674987792969

> <r_mmod_Stretch_Energy-OPLS-2005>
41.2204513549805

> <r_mmod_Bend_Energy-OPLS-2005>
114.826873779297

> <r_mmod_Torsional_Energy-OPLS-2005>
284.234680175781

> <r_mmod_Improper_Torsional_Energy-OPLS-2005>
7.31816434860229

> <r_mmod_Van_der_Waal_Energy-OPLS-2005>
150.798583984375

> <r_mmod_Electrostatic_Energy-OPLS-2005>
-509.490264892578

> <r_mmod_Solvation_Energy-OPLS-2005>
-237.774597167969

> <b_mmod_Minimization_Converged-OPLS-2005>
0

> <r_mmod_RMS_Derivative-OPLS-2005>
2.33935737609863

$$$$
2
                    3D
 Structure written by MMmdl.
165173  0  0  1  0            999 V2000
  -30.5754  -14.7331   20.4909 C   0  0  0  0  0  0
  -30.4487  -12.4547   19.4642 C   0  0  0  0  0  0
  -29.5112  -12.5261   18.2324 C   0  0  0  0  0  0
  -28.0346  -12.3371   18.6390 C   0  0  0  0  0  0
  -27.6488  -13.2035   19.8663 C   0  0  2  0  0  0
  -28.6960  -13.0318   20.9862 C   0  0  0  0  0  0
  -25.2542  -13.8094   20.5654 C   0  0  0  0  0  0
  -24.1797  -13.0389   20.9148 C   0  0  0  0  0  0
  -24.6346  -11.6858   20.8720 C   0  0  0  0  0  0
  -23.9013  -10.4270   21.0416 C   0  0  0  0  0  0
  -24.3580   -9.4196   21.9200 C   0  0  0  0  0  0
  -23.6277   -8.2220   22.0763 C   0  0  0  0  0  0
  -22.4265   -8.0243   21.3546 C   0  0  0  0  0  0
  -21.9881   -9.0216   20.4656 C   0  0  0  0  0  0
  -22.7185  -10.2104   20.3069 C   0  0  0  0  0  0
  -21.6855   -6.0699   22.5279 C   0  0  0  0  0  0
  -21.4009   -6.5622   23.8199 C   0  0  0  0  0  0
  -21.3661   -5.6786   24.9176 C   0  0  0  0  0  0
  -21.6053   -4.3049   24.7239 C   0  0  0  0  0  0
  -21.8824   -3.8126   23.4366 C   0  0  0  0  0  0
  -21.9199   -4.6932   22.3409 C   0  0  0  0  0  0
  -22.7834  -13.5206   21.1856 C   0  0  0  0  0  0
  -22.1668   -4.2107   21.0990 F   0  0  0  0  0  0
  -21.5643   -3.4542   25.7763 F   0  0  0  0  0  0
  -29.9906  -13.4749   20.4410 N   0  0  0  0  0  0
  -26.2960  -12.9248   20.3329 N   0  0  0  0  0  0
  -25.9273  -11.6412   20.5730 N   0  0  0  0  0  0
  -22.0485  -12.8221   22.0427 N   0  0  0  0  0  0
  -25.4295  -15.1798   20.4089 N   0  0  0  0  0  0
  -31.7640  -14.8481   20.1699 O   0  0  0  0  0  0
  -21.6644   -6.8835   21.4232 O   0  0  0  0  0  0
  -22.3524  -14.5525   20.6722 O   0  0  0  0  0  0
  -24.6293  -31.8559   23.2010 C   0  0  0  0  0  0
  -25.9113  -32.4767   23.8357 C   0  0  1  0  0  0
  -27.2256  -27.2714   20.1289 C   0  0  0  0  0  0
  -25.5898  -33.8571   24.2259 N   0  0  0  0  0  0
  -23.4288  -30.4768   21.5449 C   0  0  2  0  0  0
  -24.8793  -28.9255   20.1132 C   0  0  0  0  0  0
  -22.7511  -29.4593   22.4946 C   0  0  0  0  0  0
  -18.0283  -28.1392   22.8483 C   0  0  0  0  0  0
  -24.1476  -36.7281   23.2646 C   0  0  0  0  0  0
  -25.9744  -30.7717   21.3833 C   0  0  0  0  0  0
  -26.0507  -29.3942   20.7227 C   0  0  0  0  0  0
  -27.2305  -28.5810   20.7159 C   0  0  0  0  0  0
  -26.0344  -26.8705   19.4867 C   0  0  0  0  0  0
  -24.8750  -27.6702   19.4830 C   0  0  0  0  0  0
  -23.6492  -29.8121   20.1600 C   0  0  0  0  0  0
  -25.4107  -36.3075   24.0326 C   0  0  1  0  0  0
  -20.5889  -28.3702   23.1275 C   0  0  2  0  0  0
  -20.6775  -26.9421   22.5421 C   0  0  0  0  0  0
  -19.5752  -26.6382   21.5220 C   0  0  0  0  0  0
  -18.1924  -26.7935   22.1619 C   0  0  0  0  0  0
  -19.1537  -28.8865   23.2862 C   0  0  0  0  0  0
  -18.9466  -30.1462   23.8891 C   0  0  0  0  0  0
  -17.6470  -30.6600   24.0562 C   0  0  0  0  0  0
  -25.9044  -34.9451   23.5094 C   0  0  0  0  0  0
  -16.5354  -29.9099   23.6341 C   0  0  0  0  0  0
  -16.7271  -28.6509   23.0366 C   0  0  0  0  0  0
  -26.4503  -31.6608   25.0748 C   0  0  0  0  0  0
  -25.3721  -31.3742   26.1461 C   0  0  0  0  0  0
  -27.0384  -30.3034   24.6247 C   0  0  0  0  0  0
  -27.6051  -32.4384   25.7513 C   0  0  0  0  0  0
  -27.5578  -37.1789   24.8463 C   0  0  0  0  0  0
  -21.4223  -29.3041   22.3677 N   0  0  0  0  0  0
  -26.4284  -37.3778   23.9406 N   0  0  0  0  0  0
  -24.6962  -31.0523   22.0996 N   0  0  0  0  0  0
  -23.4197  -28.8144   23.3067 O   0  0  0  0  0  0
  -28.3148  -26.3715   20.1427 O   0  0  0  0  0  0
  -26.5650  -34.8928   22.4685 O   0  0  0  0  0  0
  -23.5444  -32.1377   23.7297 O   0  0  0  0  0  0
  -29.3848  -18.6591   20.9362 C   0  0  0  0  0  0
  -29.9877  -20.2454   19.2158 C   0  0  0  0  0  0
  -29.9180  -17.5016   20.2334 C   0  0  0  0  0  0
  -30.5067  -17.8240   18.9658 C   0  0  0  0  0  0
  -29.3745  -20.0234   20.4564 C   0  0  0  0  0  0
  -30.5714  -19.1713   18.4903 C   0  0  0  0  0  0
  -34.3086  -21.6124   15.1963 C   0  0  0  0  0  0
  -33.4699  -20.7020   15.7158 C   0  0  0  0  0  0
  -28.5098  -22.3607   21.1520 C   0  0  0  0  0  0
  -29.6700  -16.0474   20.8032 C   0  0  0  0  0  0
  -31.0521  -16.7461   18.0327 C   0  0  0  0  0  0
  -31.9925  -20.6185   15.3897 C   0  0  0  0  0  0
  -28.8127  -23.6166   20.2215 C   0  0  0  0  0  0
  -31.1264  -20.6444   16.6516 C   0  0  0  0  0  0
  -28.0813  -24.9939   20.7007 C   0  0  0  0  0  0
  -28.6569  -15.9508   21.5589 N   0  0  0  0  0  0
  -28.7335  -21.0592   21.2290 N   0  0  0  0  0  0
  -31.2249  -19.3775   17.2907 O   0  0  0  0  0  0
  -31.4830  -12.6091   19.1538 H   0  0  0  0  0  0
  -30.4251  -11.4568   19.9070 H   0  0  0  0  0  0
  -29.7954  -11.7722   17.4975 H   0  0  0  0  0  0
  -29.6278  -13.4917   17.7395 H   0  0  0  0  0  0
  -27.8915  -11.2816   18.8784 H   0  0  0  0  0  0
  -27.3761  -12.5510   17.7964 H   0  0  0  0  0  0
  -27.6686  -14.2409   19.5339 H   0  0  0  0  0  0
  -28.7465  -11.9822   21.2814 H   0  0  0  0  0  0
  -28.4184  -13.5409   21.9063 H   0  0  0  0  0  0
  -25.2728   -9.5678   22.4775 H   0  0  0  0  0  0
  -23.9996   -7.4614   22.7472 H   0  0  0  0  0  0
  -21.0818   -8.8709   19.8967 H   0  0  0  0  0  0
  -22.3628  -10.9641   19.6174 H   0  0  0  0  0  0
  -21.1984   -7.6133   23.9679 H   0  0  0  0  0  0
  -21.1485   -6.0535   25.9068 H   0  0  0  0  0  0
  -22.0603   -2.7589   23.2888 H   0  0  0  0  0  0
  -22.4125  -11.9886   22.4803 H   0  0  0  0  0  0
  -21.1096  -13.1233   22.2632 H   0  0  0  0  0  0
  -24.6781  -15.8456   20.5508 H   0  0  0  0  0  0
  -26.3321  -15.6131   20.2509 H   0  0  0  0  0  0
  -26.7171  -32.5435   23.1104 H   0  0  0  0  0  0
  -25.0035  -33.9712   25.0398 H   0  0  0  0  0  0
  -22.7235  -31.2976   21.3972 H   0  0  0  0  0  0
  -23.3756  -35.9598   23.3320 H   0  0  0  0  0  0
  -24.3550  -36.8908   22.2056 H   0  0  0  0  0  0
  -23.7220  -37.6471   23.6688 H   0  0  0  0  0  0
  -26.1088  -31.5377   20.6187 H   0  0  0  0  0  0
  -26.8502  -30.8200   22.0187 H   0  0  0  0  0  0
  -28.1321  -28.9332   21.1991 H   0  0  0  0  0  0
  -25.9964  -25.9131   18.9872 H   0  0  0  0  0  0
  -23.9811  -27.3108   18.9929 H   0  0  0  0  0  0
  -23.7783  -30.5903   19.4073 H   0  0  0  0  0  0
  -22.7685  -29.2462   19.8521 H   0  0  0  0  0  0
  -25.1288  -36.1943   25.0822 H   0  0  0  0  0  0
  -20.9934  -28.3298   24.1412 H   0  0  0  0  0  0
  -20.5678  -26.2324   23.3640 H   0  0  0  0  0  0
  -21.6650  -26.7476   22.1210 H   0  0  0  0  0  0
  -19.6925  -25.6281   21.1279 H   0  0  0  0  0  0
  -19.6690  -27.3183   20.6743 H   0  0  0  0  0  0
  -17.4200  -26.6694   21.4013 H   0  0  0  0  0  0
  -18.0297  -26.0078   22.9013 H   0  0  0  0  0  0
  -19.7952  -30.7252   24.2286 H   0  0  0  0  0  0
  -17.5041  -31.6287   24.5153 H   0  0  0  0  0  0
  -15.5354  -30.2997   23.7682 H   0  0  0  0  0  0
  -15.8665  -28.0817   22.7107 H   0  0  0  0  0  0
  -24.5906  -30.7085   25.7777 H   0  0  0  0  0  0
  -24.8886  -32.2891   26.4893 H   0  0  0  0  0  0
  -25.8023  -30.8918   27.0243 H   0  0  0  0  0  0
  -26.2991  -29.6745   24.1270 H   0  0  0  0  0  0
  -27.4072  -29.7332   25.4783 H   0  0  0  0  0  0
  -27.8859  -30.4317   23.9506 H   0  0  0  0  0  0
  -27.2648  -33.3690   26.2076 H   0  0  0  0  0  0
  -28.3855  -32.6949   25.0333 H   0  0  0  0  0  0
  -28.0736  -31.8536   26.5436 H   0  0  0  0  0  0
  -28.2593  -38.0089   24.7520 H   0  0  0  0  0  0
  -28.1075  -36.2622   24.6289 H   0  0  0  0  0  0
  -27.2287  -37.1430   25.8862 H   0  0  0  0  0  0
  -20.9441  -29.8745   21.6849 H   0  0  0  0  0  0
  -26.0175  -38.2853   24.1441 H   0  0  0  0  0  0
  -28.9244  -18.4978   21.9007 H   0  0  0  0  0  0
  -29.9929  -21.2533   18.8338 H   0  0  0  0  0  0
  -35.3558  -21.6231   15.4631 H   0  0  0  0  0  0
  -33.9663  -22.3626   14.4965 H   0  0  0  0  0  0
  -33.8453  -19.9671   16.4158 H   0  0  0  0  0  0
  -27.9259  -22.7386   21.9949 H   0  0  0  0  0  0
  -30.4407  -15.8468   18.0511 H   0  0  0  0  0  0
  -32.0795  -16.5038   18.3067 H   0  0  0  0  0  0
  -31.0574  -17.0521   16.9875 H   0  0  0  0  0  0
  -31.7992  -19.7066   14.8229 H   0  0  0  0  0  0
  -31.7180  -21.4549   14.7456 H   0  0  0  0  0  0
  -28.5109  -23.3723   19.2039 H   0  0  0  0  0  0
  -29.8929  -23.7600   20.1968 H   0  0  0  0  0  0
  -30.0849  -20.8313   16.3858 H   0  0  0  0  0  0
  -31.4682  -21.4562   17.2949 H   0  0  0  0  0  0
  -28.3274  -25.1110   21.7571 H   0  0  0  0  0  0
  -27.0115  -24.7831   20.7063 H   0  0  0  0  0  0
  -28.1802  -16.8392   21.6460 H   0  0  0  0  0  0
  1 25  1  0  0  0
  1 30  2  0  0  0
  1 80  1  0  0  0
  2  3  1  0  0  0
  2 25  1  0  0  0
  2 89  1  0  0  0
  2 90  1  0  0  0
  3  4  1  0  0  0
  3 91  1  0  0  0
  3 92  1  0  0  0
  4  5  1  0  0  0
  4 93  1  0  0  0
  4 94  1  0  0  0
  5  6  1  0  0  0
  5 26  1  0  0  0
  5 95  1  0  0  0
  6 25  1  0  0  0
  6 96  1  0  0  0
  6 97  1  0  0  0
  7  8  2  0  0  0
  7 26  1  0  0  0
  7 29  1  0  0  0
  8  9  1  0  0  0
  8 22  1  0  0  0
  9 10  1  0  0  0
  9 27  2  0  0  0
 10 11  2  0  0  0
 10 15  1  0  0  0
 11 12  1  0  0  0
 11 98  1  0  0  0
 12 13  2  0  0  0
 12 99  1  0  0  0
 13 14  1  0  0  0
 13 31  1  0  0  0
 14 15  2  0  0  0
 14100  1  0  0  0
 15101  1  0  0  0
 16 17  2  0  0  0
 16 21  1  0  0  0
 16 31  1  0  0  0
 17 18  1  0  0  0
 17102  1  0  0  0
 18 19  2  0  0  0
 18103  1  0  0  0
 19 20  1  0  0  0
 19 24  1  0  0  0
 20 21  2  0  0  0
 20104  1  0  0  0
 21 23  1  0  0  0
 22 28  1  0  0  0
 22 32  2  0  0  0
 26 27  1  0  0  0
 28105  1  0  0  0
 28106  1  0  0  0
 29107  1  0  0  0
 29108  1  0  0  0
 33 34  1  0  0  0
 33 66  1  0  0  0
 33 70  2  0  0  0
 34 36  1  0  0  0
 34 59  1  0  0  0
 34109  1  0  0  0
 35 44  2  0  0  0
 35 45  1  0  0  0
 35 68  1  0  0  0
 36 56  1  0  0  0
 36110  1  0  0  0
 37 39  1  0  0  0
 37 47  1  0  0  0
 37 66  1  0  0  0
 37111  1  0  0  0
 38 43  2  0  0  0
 38 46  1  0  0  0
 38 47  1  0  0  0
 39 64  1  0  0  0
 39 67  2  0  0  0
 40 52  1  0  0  0
 40 53  2  0  0  0
 40 58  1  0  0  0
 41112  1  0  0  0
 41113  1  0  0  0
 41114  1  0  0  0
 41 48  1  0  0  0
 42 43  1  0  0  0
 42 66  1  0  0  0
 42115  1  0  0  0
 42116  1  0  0  0
 43 44  1  0  0  0
 44117  1  0  0  0
 45 46  2  0  0  0
 45118  1  0  0  0
 46119  1  0  0  0
 47120  1  0  0  0
 47121  1  0  0  0
 48 56  1  0  0  0
 48 65  1  0  0  0
 48122  1  0  0  0
 49 50  1  0  0  0
 49 53  1  0  0  0
 49 64  1  0  0  0
 49123  1  0  0  0
 50 51  1  0  0  0
 50124  1  0  0  0
 50125  1  0  0  0
 51 52  1  0  0  0
 51126  1  0  0  0
 51127  1  0  0  0
 52128  1  0  0  0
 52129  1  0  0  0
 53 54  1  0  0  0
 54 55  2  0  0  0
 54130  1  0  0  0
 55 57  1  0  0  0
 55131  1  0  0  0
 56 69  2  0  0  0
 57 58  2  0  0  0
 57132  1  0  0  0
 58133  1  0  0  0
 59 60  1  0  0  0
 59 61  1  0  0  0
 59 62  1  0  0  0
 60134  1  0  0  0
 60135  1  0  0  0
 60136  1  0  0  0
 61137  1  0  0  0
 61138  1  0  0  0
 61139  1  0  0  0
 62140  1  0  0  0
 62141  1  0  0  0
 62142  1  0  0  0
 63 65  1  0  0  0
 63143  1  0  0  0
 63144  1  0  0  0
 63145  1  0  0  0
 64146  1  0  0  0
 65147  1  0  0  0
 68 85  1  0  0  0
 71 73  2  0  0  0
 71 75  1  0  0  0
 71148  1  0  0  0
 72 75  2  0  0  0
 72 76  1  0  0  0
 72149  1  0  0  0
 73 74  1  0  0  0
 73 80  1  0  0  0
 74 76  2  0  0  0
 74 81  1  0  0  0
 75 87  1  0  0  0
 76 88  1  0  0  0
 77 78  2  0  0  0
 77150  1  0  0  0
 77151  1  0  0  0
 78 82  1  0  0  0
 78152  1  0  0  0
 79 83  1  0  0  0
 79 87  2  0  0  0
 79153  1  0  0  0
 80 86  2  0  0  0
 81154  1  0  0  0
 81155  1  0  0  0
 81156  1  0  0  0
 82 84  1  0  0  0
 82157  1  0  0  0
 82158  1  0  0  0
 83 85  1  0  0  0
 83159  1  0  0  0
 83160  1  0  0  0
 84 88  1  0  0  0
 84161  1  0  0  0
 84162  1  0  0  0
 85163  1  0  0  0
 85164  1  0  0  0
 86165  1  0  0  0
M  ISO  4   1 100  68 101  80 100  85 101
M  END
> <chiral flag>
0

> <version>
0

> <s_m_source_file>
/data/baiqing/PycharmProjects/Reinvent-master-3.2/result/LINK_invent/BTK/process_docking_weight1_custom_product_contain_oxygen_bond_distance_aromatic_linkinvent_7_9_3/rearranged_h_0115.sdf

> <i_m_source_file_index>
3

> <r_mmod_Potential_Energy-OPLS-2005>
407.652557373047

> <r_mmod_Stretch_Energy-OPLS-2005>
146.004943847656

> <r_mmod_Bend_Energy-OPLS-2005>
264.752349853516

> <r_mmod_Torsional_Energy-OPLS-2005>
212.541320800781

> <r_mmod_Improper_Torsional_Energy-OPLS-2005>
3.92320370674133

> <r_mmod_Van_der_Waal_Energy-OPLS-2005>
165.421020507812

> <r_mmod_Electrostatic_Energy-OPLS-2005>
-258.228057861328

> <r_mmod_Solvation_Energy-OPLS-2005>
-202.402130126953

> <b_mmod_Minimization_Converged-OPLS-2005>
0

> <r_mmod_RMS_Derivative-OPLS-2005>
2.59752607345581

$$$$
3
                    3D
 Structure written by MMmdl.
153161  0  0  1  0            999 V2000
  -30.4537  -14.6891   20.5872 C   0  0  0  0  0  0
  -30.4572  -12.4644   19.4177 C   0  0  0  0  0  0
  -29.5000  -12.5789   18.2002 C   0  0  0  0  0  0
  -28.0222  -12.3874   18.6134 C   0  0  0  0  0  0
  -27.6495  -13.2016   19.8834 C   0  0  2  0  0  0
  -28.6929  -12.9428   20.9916 C   0  0  0  0  0  0
  -25.2535  -13.8120   20.5759 C   0  0  0  0  0  0
  -24.1777  -13.0409   20.9206 C   0  0  0  0  0  0
  -24.6337  -11.6873   20.8745 C   0  0  0  0  0  0
  -23.9042  -10.4274   21.0422 C   0  0  0  0  0  0
  -24.3606   -9.4202   21.9177 C   0  0  0  0  0  0
  -23.6285   -8.2232   22.0732 C   0  0  0  0  0  0
  -22.4245   -8.0282   21.3557 C   0  0  0  0  0  0
  -21.9913   -9.0246   20.4634 C   0  0  0  0  0  0
  -22.7242  -10.2128   20.3063 C   0  0  0  0  0  0
  -21.6850   -6.0700   22.5282 C   0  0  0  0  0  0
  -21.3995   -6.5618   23.8206 C   0  0  0  0  0  0
  -21.3672   -5.6787   24.9181 C   0  0  0  0  0  0
  -21.6044   -4.3050   24.7242 C   0  0  0  0  0  0
  -21.8825   -3.8131   23.4373 C   0  0  0  0  0  0
  -21.9180   -4.6927   22.3415 C   0  0  0  0  0  0
  -22.7820  -13.5223   21.1888 C   0  0  0  0  0  0
  -22.1649   -4.2138   21.0987 F   0  0  0  0  0  0
  -21.5654   -3.4524   25.7746 F   0  0  0  0  0  0
  -29.9848  -13.4013   20.4598 N   0  0  0  0  0  0
  -26.2927  -12.9285   20.3356 N   0  0  0  0  0  0
  -25.9258  -11.6457   20.5685 N   0  0  0  0  0  0
  -22.0478  -12.8198   22.0446 N   0  0  0  0  0  0
  -25.4379  -15.1865   20.4311 N   0  0  0  0  0  0
  -31.5636  -15.0052   20.1450 O   0  0  0  0  0  0
  -21.6630   -6.8864   21.4254 O   0  0  0  0  0  0
  -22.3508  -14.5559   20.6779 O   0  0  0  0  0  0
  -24.6314  -31.8588   23.2012 C   0  0  0  0  0  0
  -25.9139  -32.4885   23.8420 C   0  0  1  0  0  0
  -27.2430  -27.3083   20.1206 C   0  0  0  0  0  0
  -25.5835  -33.8628   24.2307 N   0  0  0  0  0  0
  -23.4289  -30.4768   21.5378 C   0  0  2  0  0  0
  -24.8806  -28.9214   20.1244 C   0  0  0  0  0  0
  -22.7546  -29.4595   22.4910 C   0  0  0  0  0  0
  -18.0322  -28.1414   22.8432 C   0  0  0  0  0  0
  -24.1473  -36.7247   23.2634 C   0  0  0  0  0  0
  -25.9708  -30.7878   21.3794 C   0  0  0  0  0  0
  -26.0501  -29.4139   20.7248 C   0  0  0  0  0  0
  -27.2329  -28.6086   20.7199 C   0  0  0  0  0  0
  -26.0536  -26.8702   19.5067 C   0  0  0  0  0  0
  -24.8845  -27.6562   19.5075 C   0  0  0  0  0  0
  -23.6496  -29.8089   20.1524 C   0  0  0  0  0  0
  -25.4111  -36.3068   24.0328 C   0  0  1  0  0  0
  -20.5929  -28.3712   23.1252 C   0  0  2  0  0  0
  -20.6788  -26.9468   22.5419 C   0  0  0  0  0  0
  -19.5739  -26.6420   21.5213 C   0  0  0  0  0  0
  -18.1923  -26.7972   22.1587 C   0  0  0  0  0  0
  -19.1592  -28.8895   23.2827 C   0  0  0  0  0  0
  -18.9463  -30.1504   23.8898 C   0  0  0  0  0  0
  -17.6436  -30.6607   24.0588 C   0  0  0  0  0  0
  -25.9080  -34.9450   23.5191 C   0  0  0  0  0  0
  -16.5360  -29.9126   23.6287 C   0  0  0  0  0  0
  -16.7294  -28.6543   23.0312 C   0  0  0  0  0  0
  -26.4500  -31.6647   25.0775 C   0  0  0  0  0  0
  -25.3706  -31.3808   26.1512 C   0  0  0  0  0  0
  -27.0355  -30.3039   24.6267 C   0  0  0  0  0  0
  -27.6039  -32.4433   25.7532 C   0  0  0  0  0  0
  -27.5582  -37.1793   24.8455 C   0  0  0  0  0  0
  -21.4235  -29.3100   22.3668 N   0  0  0  0  0  0
  -26.4275  -37.3765   23.9415 N   0  0  0  0  0  0
  -24.6962  -31.0549   22.0959 N   0  0  0  0  0  0
  -23.4174  -28.8164   23.3096 O   0  0  0  0  0  0
  -28.3827  -26.4944   20.0638 O   0  0  0  0  0  0
  -26.5647  -34.8923   22.4769 O   0  0  0  0  0  0
  -23.5429  -32.1370   23.7311 O   0  0  0  0  0  0
  -29.5924  -19.6376   18.9194 C   0  0  0  0  0  0
  -29.2673  -20.3574   20.0445 C   0  0  0  0  0  0
  -29.4486  -18.1507   20.5933 C   0  0  0  0  0  0
  -28.3676  -25.1198   20.4006 C   0  0  0  0  0  0
  -29.2199  -16.8547   21.4282 C   0  0  0  0  0  0
  -29.3714  -24.2494   20.0455 C   0  0  0  0  0  0
  -29.6114  -22.8477   20.5441 C   0  0  0  0  0  0
  -29.6793  -17.2082   18.2967 C   0  0  0  0  0  0
  -29.6204  -18.2935   19.2624 N   0  0  0  0  0  0
  -29.1358  -19.4042   21.0618 N   0  3  0  0  0  0
  -28.9382  -21.7952   19.9918 N   0  0  0  0  0  0
  -29.5193  -15.5277   21.1736 N   0  0  0  0  0  0
  -28.5761  -17.0351   22.4702 O   0  0  0  0  0  0
  -30.5266  -22.6176   21.3363 O   0  0  0  0  0  0
  -30.3640  -24.7369   19.2818 O   0  0  0  0  0  0
  -31.4714  -12.6890   19.0856 H   0  0  0  0  0  0
  -30.4693  -11.4388   19.7874 H   0  0  0  0  0  0
  -29.7708  -11.8443   17.4452 H   0  0  0  0  0  0
  -29.6356  -13.5561   17.7400 H   0  0  0  0  0  0
  -27.8592  -11.3341   18.7899 H   0  0  0  0  0  0
  -27.3643  -12.6697   17.7838 H   0  0  0  0  0  0
  -27.6862  -14.2559   19.6202 H   0  0  0  0  0  0
  -28.7264  -11.8741   21.2251 H   0  0  0  0  0  0
  -28.4032  -13.4204   21.9299 H   0  0  0  0  0  0
  -25.2761   -9.5644   22.4726 H   0  0  0  0  0  0
  -23.9998   -7.4598   22.7477 H   0  0  0  0  0  0
  -21.0822   -8.8776   19.8928 H   0  0  0  0  0  0
  -22.3719  -10.9663   19.6143 H   0  0  0  0  0  0
  -21.1965   -7.6126   23.9723 H   0  0  0  0  0  0
  -21.1499   -6.0498   25.9090 H   0  0  0  0  0  0
  -22.0590   -2.7593   23.2869 H   0  0  0  0  0  0
  -22.4049  -11.9789   22.4761 H   0  0  0  0  0  0
  -21.1094  -13.1218   22.2695 H   0  0  0  0  0  0
  -24.6910  -15.8606   20.5788 H   0  0  0  0  0  0
  -26.3038  -15.6260   20.1460 H   0  0  0  0  0  0
  -26.7188  -32.5562   23.1184 H   0  0  0  0  0  0
  -24.9985  -33.9816   25.0400 H   0  0  0  0  0  0
  -22.7153  -31.2926   21.4071 H   0  0  0  0  0  0
  -23.3747  -35.9572   23.3342 H   0  0  0  0  0  0
  -24.3506  -36.8849   22.2047 H   0  0  0  0  0  0
  -23.7232  -37.6468   23.6679 H   0  0  0  0  0  0
  -26.1043  -31.5329   20.6004 H   0  0  0  0  0  0
  -26.8496  -30.8470   22.0071 H   0  0  0  0  0  0
  -28.1400  -28.9849   21.1703 H   0  0  0  0  0  0
  -26.0399  -25.9072   19.0246 H   0  0  0  0  0  0
  -23.9885  -27.2814   19.0282 H   0  0  0  0  0  0
  -23.7748  -30.5774   19.3899 H   0  0  0  0  0  0
  -22.7631  -29.2493   19.8526 H   0  0  0  0  0  0
  -25.1311  -36.1940   25.0819 H   0  0  0  0  0  0
  -21.0028  -28.3382   24.1352 H   0  0  0  0  0  0
  -20.5654  -26.2396   23.3662 H   0  0  0  0  0  0
  -21.6669  -26.7475   22.1270 H   0  0  0  0  0  0
  -19.6920  -25.6296   21.1282 H   0  0  0  0  0  0
  -19.6705  -27.3182   20.6735 H   0  0  0  0  0  0
  -17.4241  -26.6728   21.4011 H   0  0  0  0  0  0
  -18.0302  -26.0195   22.9048 H   0  0  0  0  0  0
  -19.7957  -30.7311   24.2270 H   0  0  0  0  0  0
  -17.5003  -31.6264   24.5237 H   0  0  0  0  0  0
  -15.5347  -30.3005   23.7608 H   0  0  0  0  0  0
  -15.8685  -28.0848   22.6985 H   0  0  0  0  0  0
  -24.5844  -30.7236   25.7837 H   0  0  0  0  0  0
  -24.8961  -32.3019   26.4921 H   0  0  0  0  0  0
  -25.7983  -30.8974   27.0301 H   0  0  0  0  0  0
  -26.2908  -29.6792   24.1411 H   0  0  0  0  0  0
  -27.4164  -29.7366   25.4768 H   0  0  0  0  0  0
  -27.8760  -30.4339   23.9440 H   0  0  0  0  0  0
  -27.2619  -33.3705   26.2150 H   0  0  0  0  0  0
  -28.3832  -32.7079   25.0371 H   0  0  0  0  0  0
  -28.0798  -31.8582   26.5456 H   0  0  0  0  0  0
  -28.2597  -38.0077   24.7521 H   0  0  0  0  0  0
  -28.1084  -36.2637   24.6273 H   0  0  0  0  0  0
  -27.2295  -37.1407   25.8834 H   0  0  0  0  0  0
  -20.9391  -29.8853   21.6870 H   0  0  0  0  0  0
  -26.0164  -38.2852   24.1381 H   0  0  0  0  0  0
  -29.7383  -19.9682   17.9043 H   0  0  0  0  0  0
  -27.5191  -24.8412   21.0055 H   0  0  0  0  0  0
  -30.4577  -16.5083   18.5731 H   0  0  0  0  0  0
  -29.9139  -17.6177   17.3124 H   0  0  0  0  0  0
  -28.6978  -16.7235   18.2580 H   0  0  0  0  0  0
  -28.7226  -19.5742   21.9773 H   0  0  0  0  0  0
  -28.3106  -22.0552   19.2430 H   0  0  0  0  0  0
  -28.8663  -14.9409   21.6668 H   0  0  0  0  0  0
  -31.0912  -24.1308   19.3603 H   0  0  0  0  0  0
  1 25  1  0  0  0
  1 30  2  0  0  0
  1 82  1  0  0  0
  2  3  1  0  0  0
  2 25  1  0  0  0
  2 86  1  0  0  0
  2 87  1  0  0  0
  3  4  1  0  0  0
  3 88  1  0  0  0
  3 89  1  0  0  0
  4  5  1  0  0  0
  4 90  1  0  0  0
  4 91  1  0  0  0
  5  6  1  0  0  0
  5 26  1  0  0  0
  5 92  1  0  0  0
  6 25  1  0  0  0
  6 93  1  0  0  0
  6 94  1  0  0  0
  7  8  2  0  0  0
  7 26  1  0  0  0
  7 29  1  0  0  0
  8  9  1  0  0  0
  8 22  1  0  0  0
  9 10  1  0  0  0
  9 27  2  0  0  0
 10 11  2  0  0  0
 10 15  1  0  0  0
 11 12  1  0  0  0
 11 95  1  0  0  0
 12 13  2  0  0  0
 12 96  1  0  0  0
 13 14  1  0  0  0
 13 31  1  0  0  0
 14 15  2  0  0  0
 14 97  1  0  0  0
 15 98  1  0  0  0
 16 17  2  0  0  0
 16 21  1  0  0  0
 16 31  1  0  0  0
 17 18  1  0  0  0
 17 99  1  0  0  0
 18 19  2  0  0  0
 18100  1  0  0  0
 19 20  1  0  0  0
 19 24  1  0  0  0
 20 21  2  0  0  0
 20101  1  0  0  0
 21 23  1  0  0  0
 22 28  1  0  0  0
 22 32  2  0  0  0
 26 27  1  0  0  0
 28102  1  0  0  0
 28103  1  0  0  0
 29104  1  0  0  0
 29105  1  0  0  0
 33 34  1  0  0  0
 33 66  1  0  0  0
 33 70  2  0  0  0
 34 36  1  0  0  0
 34 59  1  0  0  0
 34106  1  0  0  0
 35 44  2  0  0  0
 35 45  1  0  0  0
 35 68  1  0  0  0
 36 56  1  0  0  0
 36107  1  0  0  0
 37 39  1  0  0  0
 37 47  1  0  0  0
 37 66  1  0  0  0
 37108  1  0  0  0
 38 43  2  0  0  0
 38 46  1  0  0  0
 38 47  1  0  0  0
 39 64  1  0  0  0
 39 67  2  0  0  0
 40 52  1  0  0  0
 40 53  2  0  0  0
 40 58  1  0  0  0
 41109  1  0  0  0
 41110  1  0  0  0
 41111  1  0  0  0
 41 48  1  0  0  0
 42 43  1  0  0  0
 42 66  1  0  0  0
 42112  1  0  0  0
 42113  1  0  0  0
 43 44  1  0  0  0
 44114  1  0  0  0
 45 46  2  0  0  0
 45115  1  0  0  0
 46116  1  0  0  0
 47117  1  0  0  0
 47118  1  0  0  0
 48 56  1  0  0  0
 48 65  1  0  0  0
 48119  1  0  0  0
 49 50  1  0  0  0
 49 53  1  0  0  0
 49 64  1  0  0  0
 49120  1  0  0  0
 50 51  1  0  0  0
 50121  1  0  0  0
 50122  1  0  0  0
 51 52  1  0  0  0
 51123  1  0  0  0
 51124  1  0  0  0
 52125  1  0  0  0
 52126  1  0  0  0
 53 54  1  0  0  0
 54 55  2  0  0  0
 54127  1  0  0  0
 55 57  1  0  0  0
 55128  1  0  0  0
 56 69  2  0  0  0
 57 58  2  0  0  0
 57129  1  0  0  0
 58130  1  0  0  0
 59 60  1  0  0  0
 59 61  1  0  0  0
 59 62  1  0  0  0
 60131  1  0  0  0
 60132  1  0  0  0
 60133  1  0  0  0
 61134  1  0  0  0
 61135  1  0  0  0
 61136  1  0  0  0
 62137  1  0  0  0
 62138  1  0  0  0
 62139  1  0  0  0
 63 65  1  0  0  0
 63140  1  0  0  0
 63141  1  0  0  0
 63142  1  0  0  0
 64143  1  0  0  0
 65144  1  0  0  0
 68 74  1  0  0  0
 71 72  2  0  0  0
 71 79  1  0  0  0
 71145  1  0  0  0
 72 80  1  0  0  0
 72 81  1  0  0  0
 73 75  1  0  0  0
 73 79  1  0  0  0
 73 80  2  0  0  0
 74 76  2  0  0  0
 74146  1  0  0  0
 75 82  1  0  0  0
 75 83  2  0  0  0
 76 77  1  0  0  0
 76 85  1  0  0  0
 77 81  1  0  0  0
 77 84  2  0  0  0
 78 79  1  0  0  0
 78147  1  0  0  0
 78148  1  0  0  0
 78149  1  0  0  0
 80150  1  0  0  0
 81151  1  0  0  0
 82152  1  0  0  0
 85153  1  0  0  0
M  CHG  1  80   1
M  ISO  4   1 100  68 101  74 101  82 100
M  END
> <chiral flag>
0

> <version>
0

> <s_m_source_file>
/data/baiqing/PycharmProjects/Reinvent-master-3.2/result/LINK_invent/BTK/process_docking_weight1_custom_product_contain_oxygen_bond_distance_aromatic_linkinvent_7_9_3/rearranged_h_0115.sdf

> <i_m_source_file_index>
4

> <r_mmod_Potential_Energy-OPLS-2005>
-70.3668746948242

> <r_mmod_Stretch_Energy-OPLS-2005>
90.4410018920898

> <r_mmod_Bend_Energy-OPLS-2005>
262.287384033203

> <r_mmod_Torsional_Energy-OPLS-2005>
314.294952392578

> <r_mmod_Improper_Torsional_Energy-OPLS-2005>
13.4613151550293

> <r_mmod_Van_der_Waal_Energy-OPLS-2005>
118.229393005371

> <r_mmod_Electrostatic_Energy-OPLS-2005>
-458.924743652344

> <r_mmod_Solvation_Energy-OPLS-2005>
-481.000152587891

> <b_mmod_Minimization_Converged-OPLS-2005>
0

> <r_mmod_RMS_Derivative-OPLS-2005>
14.0593872070312

$$$$
4
                    3D
 Structure written by MMmdl.
156164  0  0  1  0            999 V2000
  -30.6559  -14.6779   20.5272 C   0  0  0  0  0  0
  -30.4346  -12.4246   19.4678 C   0  0  0  0  0  0
  -29.5079  -12.5253   18.2348 C   0  0  0  0  0  0
  -28.0335  -12.3489   18.6437 C   0  0  0  0  0  0
  -27.6493  -13.2255   19.8648 C   0  0  2  0  0  0
  -28.6986  -13.1166   20.9991 C   0  0  0  0  0  0
  -25.2404  -13.8078   20.5562 C   0  0  0  0  0  0
  -24.1741  -13.0336   20.9188 C   0  0  0  0  0  0
  -24.6395  -11.6849   20.8763 C   0  0  0  0  0  0
  -23.9069  -10.4234   21.0407 C   0  0  0  0  0  0
  -24.3625   -9.4163   21.9194 C   0  0  0  0  0  0
  -23.6294   -8.2197   22.0760 C   0  0  0  0  0  0
  -22.4268   -8.0257   21.3553 C   0  0  0  0  0  0
  -21.9900   -9.0222   20.4654 C   0  0  0  0  0  0
  -22.7231  -10.2090   20.3058 C   0  0  0  0  0  0
  -21.6838   -6.0749   22.5299 C   0  0  0  0  0  0
  -21.4001   -6.5654   23.8234 C   0  0  0  0  0  0
  -21.3655   -5.6806   24.9190 C   0  0  0  0  0  0
  -21.6044   -4.3069   24.7234 C   0  0  0  0  0  0
  -21.8819   -3.8161   23.4350 C   0  0  0  0  0  0
  -21.9178   -4.6979   22.3410 C   0  0  0  0  0  0
  -22.7770  -13.5144   21.1856 C   0  0  0  0  0  0
  -22.1631   -4.2168   21.0987 F   0  0  0  0  0  0
  -21.5644   -3.4555   25.7749 F   0  0  0  0  0  0
  -30.0148  -13.4622   20.4364 N   0  0  0  0  0  0
  -26.2949  -12.9360   20.3323 N   0  0  0  0  0  0
  -25.9337  -11.6497   20.5798 N   0  0  0  0  0  0
  -22.0430  -12.8160   22.0449 N   0  0  0  0  0  0
  -25.3791  -15.1752   20.3732 N   0  0  0  0  0  0
  -31.8065  -14.8057   20.1023 O   0  0  0  0  0  0
  -21.6628   -6.8863   21.4253 O   0  0  0  0  0  0
  -22.3441  -14.5446   20.6716 O   0  0  0  0  0  0
  -24.6261  -31.8581   23.2011 C   0  0  0  0  0  0
  -25.9099  -32.4784   23.8349 C   0  0  1  0  0  0
  -27.2436  -27.3242   20.1324 C   0  0  0  0  0  0
  -25.5906  -33.8584   24.2280 N   0  0  0  0  0  0
  -23.4206  -30.4802   21.5430 C   0  0  2  0  0  0
  -24.8737  -28.9332   20.1137 C   0  0  0  0  0  0
  -22.7481  -29.4622   22.4936 C   0  0  0  0  0  0
  -18.0286  -28.1380   22.8501 C   0  0  0  0  0  0
  -24.1483  -36.7302   23.2638 C   0  0  0  0  0  0
  -25.9607  -30.7975   21.3673 C   0  0  0  0  0  0
  -26.0415  -29.4235   20.7124 C   0  0  0  0  0  0
  -27.2286  -28.6326   20.7072 C   0  0  0  0  0  0
  -26.0522  -26.8843   19.5087 C   0  0  0  0  0  0
  -24.8821  -27.6696   19.5010 C   0  0  0  0  0  0
  -23.6381  -29.8098   20.1601 C   0  0  0  0  0  0
  -25.4105  -36.3089   24.0334 C   0  0  1  0  0  0
  -20.5889  -28.3695   23.1295 C   0  0  2  0  0  0
  -20.6790  -26.9414   22.5436 C   0  0  0  0  0  0
  -19.5761  -26.6371   21.5244 C   0  0  0  0  0  0
  -18.1941  -26.7921   22.1651 C   0  0  0  0  0  0
  -19.1535  -28.8860   23.2881 C   0  0  0  0  0  0
  -18.9452  -30.1464   23.8898 C   0  0  0  0  0  0
  -17.6449  -30.6590   24.0568 C   0  0  0  0  0  0
  -25.9037  -34.9455   23.5105 C   0  0  0  0  0  0
  -16.5347  -29.9086   23.6318 C   0  0  0  0  0  0
  -16.7271  -28.6499   23.0348 C   0  0  0  0  0  0
  -26.4487  -31.6591   25.0713 C   0  0  0  0  0  0
  -25.3735  -31.3705   26.1453 C   0  0  0  0  0  0
  -27.0316  -30.3015   24.6133 C   0  0  0  0  0  0
  -27.6055  -32.4315   25.7480 C   0  0  0  0  0  0
  -27.5574  -37.1806   24.8463 C   0  0  0  0  0  0
  -21.4195  -29.3037   22.3683 N   0  0  0  0  0  0
  -26.4287  -37.3779   23.9407 N   0  0  0  0  0  0
  -24.6878  -31.0605   22.0948 N   0  0  0  0  0  0
  -23.4202  -28.8164   23.3019 O   0  0  0  0  0  0
  -28.3753  -26.4926   20.1969 O   0  0  0  0  0  0
  -26.5616  -34.8928   22.4676 O   0  0  0  0  0  0
  -23.5422  -32.1380   23.7332 O   0  0  0  0  0  0
  -31.2126  -19.4251   21.1136 C   0  0  0  0  0  0
  -28.9112  -19.4375   20.4876 C   0  0  0  0  0  0
  -31.2187  -17.9922   21.1837 C   0  0  0  0  0  0
  -28.9023  -18.0090   20.5449 C   0  0  0  0  0  0
  -30.0693  -20.2000   20.7701 C   0  0  0  0  0  0
  -30.0538  -17.2233   20.8644 C   0  0  0  0  0  0
  -29.2068  -22.5132   20.6036 C   0  0  0  0  0  0
  -32.4938  -17.3312   21.6784 C   0  0  0  0  0  0
  -27.5857  -17.3229   20.2768 C   0  0  0  0  0  0
  -29.4050  -24.0856   20.5936 C   0  0  0  0  0  0
  -28.1873  -25.0211   20.1635 C   0  0  0  0  0  0
  -30.1687  -21.6412   20.7343 N   0  0  0  0  0  0
  -29.9114  -15.7497   20.9711 N   0  0  0  0  0  0
  -31.4771  -12.5409   19.1672 H   0  0  0  0  0  0
  -30.3665  -11.4342   19.9205 H   0  0  0  0  0  0
  -29.7802  -11.7750   17.4921 H   0  0  0  0  0  0
  -29.6414  -13.4941   17.7508 H   0  0  0  0  0  0
  -27.8828  -11.2951   18.8810 H   0  0  0  0  0  0
  -27.3739  -12.5666   17.8020 H   0  0  0  0  0  0
  -27.6545  -14.2544   19.5083 H   0  0  0  0  0  0
  -28.7229  -12.1059   21.4090 H   0  0  0  0  0  0
  -28.4311  -13.7680   21.8313 H   0  0  0  0  0  0
  -25.2757   -9.5637   22.4798 H   0  0  0  0  0  0
  -24.0015   -7.4582   22.7467 H   0  0  0  0  0  0
  -21.0831   -8.8727   19.8974 H   0  0  0  0  0  0
  -22.3667  -10.9649   19.6193 H   0  0  0  0  0  0
  -21.1987   -7.6160   23.9739 H   0  0  0  0  0  0
  -21.1466   -6.0531   25.9099 H   0  0  0  0  0  0
  -22.0587   -2.7625   23.2841 H   0  0  0  0  0  0
  -22.4069  -11.9859   22.4885 H   0  0  0  0  0  0
  -21.1059  -13.1202   22.2670 H   0  0  0  0  0  0
  -26.1974  -15.6093   19.9721 H   0  0  0  0  0  0
  -24.5756  -15.7946   20.4039 H   0  0  0  0  0  0
  -26.7168  -32.5458   23.1106 H   0  0  0  0  0  0
  -25.0044  -33.9737   25.0415 H   0  0  0  0  0  0
  -22.7140  -31.2998   21.3960 H   0  0  0  0  0  0
  -23.3752  -35.9628   23.3303 H   0  0  0  0  0  0
  -24.3566  -36.8919   22.2048 H   0  0  0  0  0  0
  -23.7242  -37.6505   23.6662 H   0  0  0  0  0  0
  -26.0800  -31.5605   20.5973 H   0  0  0  0  0  0
  -26.8444  -30.8533   21.9924 H   0  0  0  0  0  0
  -28.1259  -29.0117   21.1764 H   0  0  0  0  0  0
  -26.0017  -25.9175   19.0294 H   0  0  0  0  0  0
  -23.9894  -27.2863   19.0267 H   0  0  0  0  0  0
  -23.7561  -30.5835   19.4018 H   0  0  0  0  0  0
  -22.7605  -29.2352   19.8563 H   0  0  0  0  0  0
  -25.1288  -36.1937   25.0830 H   0  0  0  0  0  0
  -20.9970  -28.3269   24.1420 H   0  0  0  0  0  0
  -20.5691  -26.2306   23.3643 H   0  0  0  0  0  0
  -21.6650  -26.7443   22.1209 H   0  0  0  0  0  0
  -19.6909  -25.6269   21.1296 H   0  0  0  0  0  0
  -19.6684  -27.3166   20.6756 H   0  0  0  0  0  0
  -17.4203  -26.6669   21.4062 H   0  0  0  0  0  0
  -18.0327  -26.0079   22.9057 H   0  0  0  0  0  0
  -19.7923  -30.7292   24.2259 H   0  0  0  0  0  0
  -17.4994  -31.6283   24.5143 H   0  0  0  0  0  0
  -15.5344  -30.2979   23.7636 H   0  0  0  0  0  0
  -15.8680  -28.0809   22.7053 H   0  0  0  0  0  0
  -24.5910  -30.7056   25.7775 H   0  0  0  0  0  0
  -24.8942  -32.2863   26.4914 H   0  0  0  0  0  0
  -25.8085  -30.8853   27.0202 H   0  0  0  0  0  0
  -26.2865  -29.6785   24.1172 H   0  0  0  0  0  0
  -27.4032  -29.7246   25.4613 H   0  0  0  0  0  0
  -27.8730  -30.4305   23.9326 H   0  0  0  0  0  0
  -27.2670  -33.3610   26.2069 H   0  0  0  0  0  0
  -28.3861  -32.6883   25.0306 H   0  0  0  0  0  0
  -28.0734  -31.8436   26.5386 H   0  0  0  0  0  0
  -28.2597  -38.0099   24.7509 H   0  0  0  0  0  0
  -28.1072  -36.2634   24.6293 H   0  0  0  0  0  0
  -27.2297  -37.1455   25.8868 H   0  0  0  0  0  0
  -20.9376  -29.8749   21.6886 H   0  0  0  0  0  0
  -26.0175  -38.2853   24.1417 H   0  0  0  0  0  0
  -32.1241  -19.9533   21.3617 H   0  0  0  0  0  0
  -27.9958  -19.9484   20.2300 H   0  0  0  0  0  0
  -28.1612  -22.2053   20.5196 H   0  0  0  0  0  0
  -33.1002  -18.0248   22.2631 H   0  0  0  0  0  0
  -33.0986  -16.9889   20.8406 H   0  0  0  0  0  0
  -32.2696  -16.4782   22.3194 H   0  0  0  0  0  0
  -26.7930  -18.0368   20.0479 H   0  0  0  0  0  0
  -27.2899  -16.7738   21.1702 H   0  0  0  0  0  0
  -27.6790  -16.6357   19.4352 H   0  0  0  0  0  0
  -30.2572  -24.3070   19.9512 H   0  0  0  0  0  0
  -29.7145  -24.3797   21.5971 H   0  0  0  0  0  0
  -27.3445  -24.7773   20.8116 H   0  0  0  0  0  0
  -27.8920  -24.7375   19.1521 H   0  0  0  0  0  0
  -28.9858  -15.4514   21.2320 H   0  0  0  0  0  0
  1 25  1  0  0  0
  1 30  2  0  0  0
  1 83  1  0  0  0
  2  3  1  0  0  0
  2 25  1  0  0  0
  2 84  1  0  0  0
  2 85  1  0  0  0
  3  4  1  0  0  0
  3 86  1  0  0  0
  3 87  1  0  0  0
  4  5  1  0  0  0
  4 88  1  0  0  0
  4 89  1  0  0  0
  5  6  1  0  0  0
  5 26  1  0  0  0
  5 90  1  0  0  0
  6 25  1  0  0  0
  6 91  1  0  0  0
  6 92  1  0  0  0
  7  8  2  0  0  0
  7 26  1  0  0  0
  7 29  1  0  0  0
  8  9  1  0  0  0
  8 22  1  0  0  0
  9 10  1  0  0  0
  9 27  2  0  0  0
 10 11  2  0  0  0
 10 15  1  0  0  0
 11 12  1  0  0  0
 11 93  1  0  0  0
 12 13  2  0  0  0
 12 94  1  0  0  0
 13 14  1  0  0  0
 13 31  1  0  0  0
 14 15  2  0  0  0
 14 95  1  0  0  0
 15 96  1  0  0  0
 16 17  2  0  0  0
 16 21  1  0  0  0
 16 31  1  0  0  0
 17 18  1  0  0  0
 17 97  1  0  0  0
 18 19  2  0  0  0
 18 98  1  0  0  0
 19 20  1  0  0  0
 19 24  1  0  0  0
 20 21  2  0  0  0
 20 99  1  0  0  0
 21 23  1  0  0  0
 22 28  1  0  0  0
 22 32  2  0  0  0
 26 27  1  0  0  0
 28100  1  0  0  0
 28101  1  0  0  0
 29102  1  0  0  0
 29103  1  0  0  0
 33 34  1  0  0  0
 33 66  1  0  0  0
 33 70  2  0  0  0
 34 36  1  0  0  0
 34 59  1  0  0  0
 34104  1  0  0  0
 35 44  2  0  0  0
 35 45  1  0  0  0
 35 68  1  0  0  0
 36 56  1  0  0  0
 36105  1  0  0  0
 37 39  1  0  0  0
 37 47  1  0  0  0
 37 66  1  0  0  0
 37106  1  0  0  0
 38 43  2  0  0  0
 38 46  1  0  0  0
 38 47  1  0  0  0
 39 64  1  0  0  0
 39 67  2  0  0  0
 40 52  1  0  0  0
 40 53  2  0  0  0
 40 58  1  0  0  0
 41107  1  0  0  0
 41108  1  0  0  0
 41109  1  0  0  0
 41 48  1  0  0  0
 42 43  1  0  0  0
 42 66  1  0  0  0
 42110  1  0  0  0
 42111  1  0  0  0
 43 44  1  0  0  0
 44112  1  0  0  0
 45 46  2  0  0  0
 45113  1  0  0  0
 46114  1  0  0  0
 47115  1  0  0  0
 47116  1  0  0  0
 48 56  1  0  0  0
 48 65  1  0  0  0
 48117  1  0  0  0
 49 50  1  0  0  0
 49 53  1  0  0  0
 49 64  1  0  0  0
 49118  1  0  0  0
 50 51  1  0  0  0
 50119  1  0  0  0
 50120  1  0  0  0
 51 52  1  0  0  0
 51121  1  0  0  0
 51122  1  0  0  0
 52123  1  0  0  0
 52124  1  0  0  0
 53 54  1  0  0  0
 54 55  2  0  0  0
 54125  1  0  0  0
 55 57  1  0  0  0
 55126  1  0  0  0
 56 69  2  0  0  0
 57 58  2  0  0  0
 57127  1  0  0  0
 58128  1  0  0  0
 59 60  1  0  0  0
 59 61  1  0  0  0
 59 62  1  0  0  0
 60129  1  0  0  0
 60130  1  0  0  0
 60131  1  0  0  0
 61132  1  0  0  0
 61133  1  0  0  0
 61134  1  0  0  0
 62135  1  0  0  0
 62136  1  0  0  0
 62137  1  0  0  0
 63 65  1  0  0  0
 63138  1  0  0  0
 63139  1  0  0  0
 63140  1  0  0  0
 64141  1  0  0  0
 65142  1  0  0  0
 68 81  1  0  0  0
 71 73  2  0  0  0
 71 75  1  0  0  0
 71143  1  0  0  0
 72 74  1  0  0  0
 72 75  2  0  0  0
 72144  1  0  0  0
 73 76  1  0  0  0
 73 78  1  0  0  0
 74 76  2  0  0  0
 74 79  1  0  0  0
 75 82  1  0  0  0
 76 83  1  0  0  0
 77 80  1  0  0  0
 77 82  2  0  0  0
 77145  1  0  0  0
 78146  1  0  0  0
 78147  1  0  0  0
 78148  1  0  0  0
 79149  1  0  0  0
 79150  1  0  0  0
 79151  1  0  0  0
 80 81  1  0  0  0
 80152  1  0  0  0
 80153  1  0  0  0
 81154  1  0  0  0
 81155  1  0  0  0
 83156  1  0  0  0
M  ISO  4   1 100  68 101  81 101  83 100
M  END
> <chiral flag>
0

> <version>
0

> <s_m_source_file>
/data/baiqing/PycharmProjects/Reinvent-master-3.2/result/LINK_invent/BTK/process_docking_weight1_custom_product_contain_oxygen_bond_distance_aromatic_linkinvent_7_9_3/rearranged_h_0115.sdf

> <i_m_source_file_index>
5

> <r_mmod_Potential_Energy-OPLS-2005>
30.2666816711426

> <r_mmod_Stretch_Energy-OPLS-2005>
91.396484375

> <r_mmod_Bend_Energy-OPLS-2005>
155.438110351562

> <r_mmod_Torsional_Energy-OPLS-2005>
218.339508056641

> <r_mmod_Improper_Torsional_Energy-OPLS-2005>
5.10825490951538

> <r_mmod_Van_der_Waal_Energy-OPLS-2005>
146.394683837891

> <r_mmod_Electrostatic_Energy-OPLS-2005>
-425.343231201172

> <r_mmod_Solvation_Energy-OPLS-2005>
-214.365020751953

> <b_mmod_Minimization_Converged-OPLS-2005>
0

> <r_mmod_RMS_Derivative-OPLS-2005>
2.559983253479

$$$$
5
                    3D
 Structure written by MMmdl.
155163  0  0  1  0            999 V2000
  -30.6132  -14.8122   20.4239 C   0  0  0  0  0  0
  -30.4249  -12.5062   19.4591 C   0  0  0  0  0  0
  -29.4968  -12.5000   18.2252 C   0  0  0  0  0  0
  -28.0280  -12.3215   18.6510 C   0  0  0  0  0  0
  -27.6306  -13.2417   19.8347 C   0  0  2  0  0  0
  -28.6831  -13.2319   20.9636 C   0  0  0  0  0  0
  -25.2480  -13.8214   20.5729 C   0  0  0  0  0  0
  -24.1805  -13.0445   20.9242 C   0  0  0  0  0  0
  -24.6403  -11.6926   20.8782 C   0  0  0  0  0  0
  -23.9098  -10.4291   21.0424 C   0  0  0  0  0  0
  -24.3647   -9.4199   21.9194 C   0  0  0  0  0  0
  -23.6317   -8.2229   22.0758 C   0  0  0  0  0  0
  -22.4297   -8.0275   21.3542 C   0  0  0  0  0  0
  -21.9937   -9.0254   20.4649 C   0  0  0  0  0  0
  -22.7271  -10.2133   20.3063 C   0  0  0  0  0  0
  -21.6855   -6.0746   22.5284 C   0  0  0  0  0  0
  -21.4005   -6.5652   23.8214 C   0  0  0  0  0  0
  -21.3655   -5.6803   24.9174 C   0  0  0  0  0  0
  -21.6046   -4.3063   24.7223 C   0  0  0  0  0  0
  -21.8823   -3.8158   23.4342 C   0  0  0  0  0  0
  -21.9192   -4.6975   22.3404 C   0  0  0  0  0  0
  -22.7821  -13.5210   21.1880 C   0  0  0  0  0  0
  -22.1666   -4.2166   21.0979 F   0  0  0  0  0  0
  -21.5630   -3.4546   25.7731 F   0  0  0  0  0  0
  -29.9653  -13.5963   20.3547 N   0  0  0  0  0  0
  -26.2908  -12.9440   20.3267 N   0  0  0  0  0  0
  -25.9328  -11.6577   20.5766 N   0  0  0  0  0  0
  -22.0477  -12.8198   22.0429 N   0  0  0  0  0  0
  -25.4157  -15.1945   20.4155 N   0  0  0  0  0  0
  -31.8273  -14.8200   20.2022 O   0  0  0  0  0  0
  -21.6643   -6.8886   21.4241 O   0  0  0  0  0  0
  -22.3509  -14.5510   20.6707 O   0  0  0  0  0  0
  -24.6358  -31.8524   23.1967 C   0  0  0  0  0  0
  -25.9186  -32.4726   23.8325 C   0  0  1  0  0  0
  -27.2304  -27.2520   20.1492 C   0  0  0  0  0  0
  -25.6002  -33.8527   24.2271 N   0  0  0  0  0  0
  -23.4335  -30.4716   21.5351 C   0  0  2  0  0  0
  -24.8842  -28.9096   20.1131 C   0  0  0  0  0  0
  -22.7515  -29.4582   22.4865 C   0  0  0  0  0  0
  -18.0305  -28.1392   22.8491 C   0  0  0  0  0  0
  -24.1484  -36.7224   23.2631 C   0  0  0  0  0  0
  -25.9771  -30.7603   21.3792 C   0  0  0  0  0  0
  -26.0507  -29.3765   20.7340 C   0  0  0  0  0  0
  -27.2252  -28.5566   20.7492 C   0  0  0  0  0  0
  -26.0440  -26.8455   19.5059 C   0  0  0  0  0  0
  -24.8862  -27.6499   19.4884 C   0  0  0  0  0  0
  -23.6562  -29.8000   20.1517 C   0  0  0  0  0  0
  -25.4103  -36.3022   24.0339 C   0  0  1  0  0  0
  -20.5911  -28.3702   23.1257 C   0  0  2  0  0  0
  -20.6786  -26.9408   22.5404 C   0  0  0  0  0  0
  -19.5759  -26.6392   21.5212 C   0  0  0  0  0  0
  -18.1943  -26.7940   22.1628 C   0  0  0  0  0  0
  -19.1563  -28.8862   23.2877 C   0  0  0  0  0  0
  -18.9473  -30.1460   23.8883 C   0  0  0  0  0  0
  -17.6469  -30.6577   24.0572 C   0  0  0  0  0  0
  -25.9072  -34.9413   23.5098 C   0  0  0  0  0  0
  -16.5360  -29.9073   23.6337 C   0  0  0  0  0  0
  -16.7293  -28.6508   23.0339 C   0  0  0  0  0  0
  -26.4571  -31.6532   25.0699 C   0  0  0  0  0  0
  -25.3844  -31.3635   26.1448 C   0  0  0  0  0  0
  -27.0401  -30.2956   24.6158 C   0  0  0  0  0  0
  -27.6147  -32.4246   25.7464 C   0  0  0  0  0  0
  -27.5568  -37.1747   24.8462 C   0  0  0  0  0  0
  -21.4212  -29.3056   22.3632 N   0  0  0  0  0  0
  -26.4245  -37.3751   23.9454 N   0  0  0  0  0  0
  -24.7000  -31.0480   22.0937 N   0  0  0  0  0  0
  -23.4217  -28.8117   23.2970 O   0  0  0  0  0  0
  -28.3348  -26.3705   20.1195 O   0  0  0  0  0  0
  -26.5595  -34.8916   22.4638 O   0  0  0  0  0  0
  -23.5503  -32.1346   23.7257 O   0  0  0  0  0  0
  -28.4339  -18.4081   19.1600 C   0  0  0  0  0  0
  -27.8969  -20.8088   19.0965 C   0  0  0  0  0  0
  -29.4269  -18.5811   20.1484 C   0  0  0  0  0  0
  -29.6010  -19.9737   20.6256 C   0  0  0  0  0  0
  -28.8266  -21.1195   20.1144 C   0  0  0  0  0  0
  -27.6924  -19.4897   18.6458 C   0  0  0  0  0  0
  -28.4533  -23.6228   20.0984 C   0  0  0  0  0  0
  -30.3226  -17.3253   20.4996 C   0  0  0  0  0  0
  -30.1955  -19.7080   23.0784 C   0  0  0  0  0  0
  -30.6216  -20.2778   21.7216 C   0  0  0  0  0  0
  -28.2559  -25.0474   20.8347 C   0  0  0  0  0  0
  -28.8838  -22.4908   20.6490 N   0  0  0  0  0  0
  -29.8635  -16.0010   20.4738 N   0  0  0  0  0  0
  -31.5005  -17.5596   20.7799 O   0  0  0  0  0  0
  -26.7560  -19.2563   17.6953 F   0  0  0  0  0  0
  -31.4620  -12.6322   19.1436 H   0  0  0  0  0  0
  -30.3874  -11.5486   19.9793 H   0  0  0  0  0  0
  -29.7801  -11.6986   17.5422 H   0  0  0  0  0  0
  -29.6092  -13.4305   17.6652 H   0  0  0  0  0  0
  -27.8893  -11.2782   18.9340 H   0  0  0  0  0  0
  -27.3630  -12.4883   17.8046 H   0  0  0  0  0  0
  -27.5992  -14.2502   19.4212 H   0  0  0  0  0  0
  -28.7473  -12.2491   21.4324 H   0  0  0  0  0  0
  -28.4159  -13.9387   21.7518 H   0  0  0  0  0  0
  -25.2785   -9.5668   22.4785 H   0  0  0  0  0  0
  -24.0028   -7.4614   22.7479 H   0  0  0  0  0  0
  -21.0862   -8.8770   19.8957 H   0  0  0  0  0  0
  -22.3722  -10.9680   19.6182 H   0  0  0  0  0  0
  -21.1985   -7.6157   23.9721 H   0  0  0  0  0  0
  -21.1477   -6.0529   25.9084 H   0  0  0  0  0  0
  -22.0602   -2.7619   23.2829 H   0  0  0  0  0  0
  -22.4107  -11.9849   22.4787 H   0  0  0  0  0  0
  -21.1092  -13.1204   22.2654 H   0  0  0  0  0  0
  -24.6395  -15.8404   20.5111 H   0  0  0  0  0  0
  -26.2538  -15.6336   20.0608 H   0  0  0  0  0  0
  -26.7247  -32.5387   23.1060 H   0  0  0  0  0  0
  -25.0323  -33.9671   25.0534 H   0  0  0  0  0  0
  -22.7335  -31.2950   21.3849 H   0  0  0  0  0  0
  -23.3772  -35.9524   23.3250 H   0  0  0  0  0  0
  -24.3602  -36.8873   22.2053 H   0  0  0  0  0  0
  -23.7219  -37.6404   23.6684 H   0  0  0  0  0  0
  -26.1207  -31.5104   20.6000 H   0  0  0  0  0  0
  -26.8545  -30.8138   22.0129 H   0  0  0  0  0  0
  -28.1143  -28.9040   21.2588 H   0  0  0  0  0  0
  -26.0139  -25.8831   19.0133 H   0  0  0  0  0  0
  -24.0000  -27.2875   18.9867 H   0  0  0  0  0  0
  -23.7858  -30.5758   19.3957 H   0  0  0  0  0  0
  -22.7749  -29.2336   19.8430 H   0  0  0  0  0  0
  -25.1280  -36.1825   25.0825 H   0  0  0  0  0  0
  -21.0041  -28.3279   24.1366 H   0  0  0  0  0  0
  -20.5694  -26.2295   23.3612 H   0  0  0  0  0  0
  -21.6647  -26.7415   22.1197 H   0  0  0  0  0  0
  -19.6914  -25.6312   21.1220 H   0  0  0  0  0  0
  -19.6705  -27.3222   20.6765 H   0  0  0  0  0  0
  -17.4219  -26.6706   21.4022 H   0  0  0  0  0  0
  -18.0316  -26.0077   22.9017 H   0  0  0  0  0  0
  -19.7944  -30.7289   24.2231 H   0  0  0  0  0  0
  -17.5017  -31.6250   24.5176 H   0  0  0  0  0  0
  -15.5356  -30.2962   23.7660 H   0  0  0  0  0  0
  -15.8709  -28.0824   22.7025 H   0  0  0  0  0  0
  -24.6130  -30.6827   25.7847 H   0  0  0  0  0  0
  -24.8918  -32.2750   26.4827 H   0  0  0  0  0  0
  -25.8265  -30.8941   27.0248 H   0  0  0  0  0  0
  -26.2941  -29.6681   24.1266 H   0  0  0  0  0  0
  -27.4176  -29.7251   25.4655 H   0  0  0  0  0  0
  -27.8812  -30.4225   23.9338 H   0  0  0  0  0  0
  -27.2803  -33.3591   26.1978 H   0  0  0  0  0  0
  -28.4002  -32.6681   25.0300 H   0  0  0  0  0  0
  -28.0771  -31.8390   26.5416 H   0  0  0  0  0  0
  -28.2521  -38.0099   24.7575 H   0  0  0  0  0  0
  -28.1106  -36.2635   24.6167 H   0  0  0  0  0  0
  -27.2318  -37.1259   25.8867 H   0  0  0  0  0  0
  -20.9376  -29.8788   21.6850 H   0  0  0  0  0  0
  -26.0089  -38.2794   24.1523 H   0  0  0  0  0  0
  -28.2477  -17.4304   18.7430 H   0  0  0  0  0  0
  -27.2817  -21.5788   18.6567 H   0  0  0  0  0  0
  -28.1318  -23.6526   19.0538 H   0  0  0  0  0  0
  -30.8713  -20.0348   23.8686 H   0  0  0  0  0  0
  -30.1943  -18.6192   23.0762 H   0  0  0  0  0  0
  -29.1898  -20.0447   23.3339 H   0  0  0  0  0  0
  -30.7665  -21.3511   21.8365 H   0  0  0  0  0  0
  -31.6062  -19.9149   21.4287 H   0  0  0  0  0  0
  -29.0048  -25.1032   21.6255 H   0  0  0  0  0  0
  -27.3044  -25.0031   21.3638 H   0  0  0  0  0  0
  -28.8658  -15.8903   20.4160 H   0  0  0  0  0  0
  1 25  1  0  0  0
  1 30  2  0  0  0
  1 83  1  0  0  0
  2  3  1  0  0  0
  2 25  1  0  0  0
  2 86  1  0  0  0
  2 87  1  0  0  0
  3  4  1  0  0  0
  3 88  1  0  0  0
  3 89  1  0  0  0
  4  5  1  0  0  0
  4 90  1  0  0  0
  4 91  1  0  0  0
  5  6  1  0  0  0
  5 26  1  0  0  0
  5 92  1  0  0  0
  6 25  1  0  0  0
  6 93  1  0  0  0
  6 94  1  0  0  0
  7  8  2  0  0  0
  7 26  1  0  0  0
  7 29  1  0  0  0
  8  9  1  0  0  0
  8 22  1  0  0  0
  9 10  1  0  0  0
  9 27  2  0  0  0
 10 11  2  0  0  0
 10 15  1  0  0  0
 11 12  1  0  0  0
 11 95  1  0  0  0
 12 13  2  0  0  0
 12 96  1  0  0  0
 13 14  1  0  0  0
 13 31  1  0  0  0
 14 15  2  0  0  0
 14 97  1  0  0  0
 15 98  1  0  0  0
 16 17  2  0  0  0
 16 21  1  0  0  0
 16 31  1  0  0  0
 17 18  1  0  0  0
 17 99  1  0  0  0
 18 19  2  0  0  0
 18100  1  0  0  0
 19 20  1  0  0  0
 19 24  1  0  0  0
 20 21  2  0  0  0
 20101  1  0  0  0
 21 23  1  0  0  0
 22 28  1  0  0  0
 22 32  2  0  0  0
 26 27  1  0  0  0
 28102  1  0  0  0
 28103  1  0  0  0
 29104  1  0  0  0
 29105  1  0  0  0
 33 34  1  0  0  0
 33 66  1  0  0  0
 33 70  2  0  0  0
 34 36  1  0  0  0
 34 59  1  0  0  0
 34106  1  0  0  0
 35 44  2  0  0  0
 35 45  1  0  0  0
 35 68  1  0  0  0
 36 56  1  0  0  0
 36107  1  0  0  0
 37 39  1  0  0  0
 37 47  1  0  0  0
 37 66  1  0  0  0
 37108  1  0  0  0
 38 43  2  0  0  0
 38 46  1  0  0  0
 38 47  1  0  0  0
 39 64  1  0  0  0
 39 67  2  0  0  0
 40 52  1  0  0  0
 40 53  2  0  0  0
 40 58  1  0  0  0
 41109  1  0  0  0
 41110  1  0  0  0
 41111  1  0  0  0
 41 48  1  0  0  0
 42 43  1  0  0  0
 42 66  1  0  0  0
 42112  1  0  0  0
 42113  1  0  0  0
 43 44  1  0  0  0
 44114  1  0  0  0
 45 46  2  0  0  0
 45115  1  0  0  0
 46116  1  0  0  0
 47117  1  0  0  0
 47118  1  0  0  0
 48 56  1  0  0  0
 48 65  1  0  0  0
 48119  1  0  0  0
 49 50  1  0  0  0
 49 53  1  0  0  0
 49 64  1  0  0  0
 49120  1  0  0  0
 50 51  1  0  0  0
 50121  1  0  0  0
 50122  1  0  0  0
 51 52  1  0  0  0
 51123  1  0  0  0
 51124  1  0  0  0
 52125  1  0  0  0
 52126  1  0  0  0
 53 54  1  0  0  0
 54 55  2  0  0  0
 54127  1  0  0  0
 55 57  1  0  0  0
 55128  1  0  0  0
 56 69  2  0  0  0
 57 58  2  0  0  0
 57129  1  0  0  0
 58130  1  0  0  0
 59 60  1  0  0  0
 59 61  1  0  0  0
 59 62  1  0  0  0
 60131  1  0  0  0
 60132  1  0  0  0
 60133  1  0  0  0
 61134  1  0  0  0
 61135  1  0  0  0
 61136  1  0  0  0
 62137  1  0  0  0
 62138  1  0  0  0
 62139  1  0  0  0
 63 65  1  0  0  0
 63140  1  0  0  0
 63141  1  0  0  0
 63142  1  0  0  0
 64143  1  0  0  0
 65144  1  0  0  0
 68 81  1  0  0  0
 71 73  2  0  0  0
 71 76  1  0  0  0
 71145  1  0  0  0
 72 75  1  0  0  0
 72 76  2  0  0  0
 72146  1  0  0  0
 73 74  1  0  0  0
 73 78  1  0  0  0
 74 75  2  0  0  0
 74 80  1  0  0  0
 75 82  1  0  0  0
 76 85  1  0  0  0
 77 81  1  0  0  0
 77 82  2  0  0  0
 77147  1  0  0  0
 78 83  1  0  0  0
 78 84  2  0  0  0
 79 80  1  0  0  0
 79148  1  0  0  0
 79149  1  0  0  0
 79150  1  0  0  0
 80151  1  0  0  0
 80152  1  0  0  0
 81153  1  0  0  0
 81154  1  0  0  0
 83155  1  0  0  0
M  ISO  4   1 100  68 101  81 101  83 100
M  END
> <chiral flag>
0

> <version>
0

> <s_m_source_file>
/data/baiqing/PycharmProjects/Reinvent-master-3.2/result/LINK_invent/BTK/process_docking_weight1_custom_product_contain_oxygen_bond_distance_aromatic_linkinvent_7_9_3/rearranged_h_0115.sdf

> <i_m_source_file_index>
6

> <r_mmod_Potential_Energy-OPLS-2005>
156.993026733398

> <r_mmod_Stretch_Energy-OPLS-2005>
150.932464599609

> <r_mmod_Bend_Energy-OPLS-2005>
178.716232299805

> <r_mmod_Torsional_Energy-OPLS-2005>
251.92317199707

> <r_mmod_Improper_Torsional_Energy-OPLS-2005>
7.34490394592285

> <r_mmod_Van_der_Waal_Energy-OPLS-2005>
145.0849609375

> <r_mmod_Electrostatic_Energy-OPLS-2005>
-460.319030761719

> <r_mmod_Solvation_Energy-OPLS-2005>
-222.652984619141

> <b_mmod_Minimization_Converged-OPLS-2005>
0

> <r_mmod_RMS_Derivative-OPLS-2005>
3.48123788833618

$$$$
6
                    3D
 Structure written by MMmdl.
151159  0  0  1  0            999 V2000
  -30.5742  -14.8061   20.4387 C   0  0  0  0  0  0
  -30.4390  -12.4887   19.4804 C   0  0  0  0  0  0
  -29.5160  -12.5146   18.2409 C   0  0  0  0  0  0
  -28.0427  -12.3292   18.6541 C   0  0  0  0  0  0
  -27.6403  -13.2338   19.8490 C   0  0  2  0  0  0
  -28.6851  -13.1822   20.9854 C   0  0  0  0  0  0
  -25.2504  -13.8194   20.5694 C   0  0  0  0  0  0
  -24.1800  -13.0441   20.9215 C   0  0  0  0  0  0
  -24.6394  -11.6918   20.8752 C   0  0  0  0  0  0
  -23.9074  -10.4294   21.0409 C   0  0  0  0  0  0
  -24.3622   -9.4210   21.9185 C   0  0  0  0  0  0
  -23.6294   -8.2247   22.0755 C   0  0  0  0  0  0
  -22.4275   -8.0287   21.3548 C   0  0  0  0  0  0
  -21.9915   -9.0262   20.4649 C   0  0  0  0  0  0
  -22.7250  -10.2138   20.3058 C   0  0  0  0  0  0
  -21.6855   -6.0739   22.5280 C   0  0  0  0  0  0
  -21.4017   -6.5637   23.8215 C   0  0  0  0  0  0
  -21.3661   -5.6788   24.9175 C   0  0  0  0  0  0
  -21.6040   -4.3051   24.7224 C   0  0  0  0  0  0
  -21.8820   -3.8148   23.4344 C   0  0  0  0  0  0
  -21.9193   -4.6967   22.3402 C   0  0  0  0  0  0
  -22.7822  -13.5226   21.1874 C   0  0  0  0  0  0
  -22.1660   -4.2155   21.0979 F   0  0  0  0  0  0
  -21.5629   -3.4533   25.7737 F   0  0  0  0  0  0
  -29.9807  -13.5566   20.4037 N   0  0  0  0  0  0
  -26.2929  -12.9404   20.3269 N   0  0  0  0  0  0
  -25.9324  -11.6545   20.5744 N   0  0  0  0  0  0
  -22.0458  -12.8218   22.0427 N   0  0  0  0  0  0
  -25.4173  -15.1924   20.4107 N   0  0  0  0  0  0
  -31.7674  -14.8968   20.1278 O   0  0  0  0  0  0
  -21.6639   -6.8886   21.4244 O   0  0  0  0  0  0
  -22.3511  -14.5534   20.6723 O   0  0  0  0  0  0
  -24.6360  -31.8501   23.1940 C   0  0  0  0  0  0
  -25.9170  -32.4720   23.8300 C   0  0  1  0  0  0
  -27.2202  -27.2181   20.1235 C   0  0  0  0  0  0
  -25.5951  -33.8523   24.2225 N   0  0  0  0  0  0
  -23.4339  -30.4730   21.5383 C   0  0  2  0  0  0
  -24.8798  -28.9121   20.1073 C   0  0  0  0  0  0
  -22.7526  -29.4582   22.4888 C   0  0  0  0  0  0
  -18.0298  -28.1385   22.8484 C   0  0  0  0  0  0
  -24.1492  -36.7268   23.2642 C   0  0  0  0  0  0
  -25.9836  -30.7489   21.3800 C   0  0  0  0  0  0
  -26.0531  -29.3684   20.7192 C   0  0  0  0  0  0
  -27.2208  -28.5336   20.7160 C   0  0  0  0  0  0
  -26.0150  -26.8340   19.4931 C   0  0  0  0  0  0
  -24.8685  -27.6549   19.4846 C   0  0  0  0  0  0
  -23.6540  -29.8063   20.1545 C   0  0  0  0  0  0
  -25.4121  -36.3047   24.0321 C   0  0  1  0  0  0
  -20.5906  -28.3704   23.1255 C   0  0  2  0  0  0
  -20.6785  -26.9415   22.5406 C   0  0  0  0  0  0
  -19.5758  -26.6380   21.5212 C   0  0  0  0  0  0
  -18.1939  -26.7927   22.1624 C   0  0  0  0  0  0
  -19.1553  -28.8862   23.2863 C   0  0  0  0  0  0
  -18.9473  -30.1466   23.8879 C   0  0  0  0  0  0
  -17.6469  -30.6582   24.0564 C   0  0  0  0  0  0
  -25.9068  -34.9417   23.5078 C   0  0  0  0  0  0
  -16.5360  -29.9079   23.6333 C   0  0  0  0  0  0
  -16.7285  -28.6500   23.0349 C   0  0  0  0  0  0
  -26.4519  -31.6562   25.0713 C   0  0  0  0  0  0
  -25.3728  -31.3727   26.1426 C   0  0  0  0  0  0
  -27.0374  -30.2969   24.6241 C   0  0  0  0  0  0
  -27.6060  -32.4316   25.7491 C   0  0  0  0  0  0
  -27.5574  -37.1793   24.8467 C   0  0  0  0  0  0
  -21.4226  -29.3042   22.3634 N   0  0  0  0  0  0
  -26.4288  -37.3755   23.9406 N   0  0  0  0  0  0
  -24.7040  -31.0434   22.0932 N   0  0  0  0  0  0
  -23.4208  -28.8125   23.3002 O   0  0  0  0  0  0
  -28.3220  -26.3197   20.2137 O   0  0  0  0  0  0
  -26.5644  -34.8905   22.4651 O   0  0  0  0  0  0
  -23.5502  -32.1343   23.7220 O   0  0  0  0  0  0
  -30.7330  -19.3192   20.0700 C   0  0  0  0  0  0
  -29.9131  -17.3988   20.4756 C   0  0  0  0  0  0
  -32.9390  -20.1645   19.3189 C   0  0  0  0  0  0
  -31.6841  -20.3807   19.7501 C   0  0  0  0  0  0
  -28.8194  -22.2901   20.0097 C   0  0  0  0  0  0
  -28.3932  -23.5698   20.3959 C   0  0  0  0  0  0
  -28.7133  -20.8923   20.8023 C   0  0  0  0  0  0
  -28.3947  -24.9464   19.5639 C   0  0  0  0  0  0
  -31.0561  -18.0046   20.0262 N   0  0  0  0  0  0
  -28.9304  -18.3068   20.7460 N   0  0  0  0  0  0
  -29.4655  -19.5778   20.4619 N   0  0  0  0  0  0
  -29.7549  -15.9214   20.6510 N   0  0  0  0  0  0
  -31.4787  -12.6235   19.1765 H   0  0  0  0  0  0
  -30.3967  -11.5157   19.9719 H   0  0  0  0  0  0
  -29.8063  -11.7347   17.5355 H   0  0  0  0  0  0
  -29.6344  -13.4626   17.7135 H   0  0  0  0  0  0
  -27.9074  -11.2816   18.9251 H   0  0  0  0  0  0
  -27.3849  -12.5099   17.8032 H   0  0  0  0  0  0
  -27.6281  -14.2518   19.4591 H   0  0  0  0  0  0
  -28.7340  -12.1844   21.4239 H   0  0  0  0  0  0
  -28.4095  -13.8574   21.7972 H   0  0  0  0  0  0
  -25.2766   -9.5684   22.4762 H   0  0  0  0  0  0
  -24.0003   -7.4637   22.7470 H   0  0  0  0  0  0
  -21.0849   -8.8791   19.8949 H   0  0  0  0  0  0
  -22.3716  -10.9681   19.6167 H   0  0  0  0  0  0
  -21.2009   -7.6146   23.9720 H   0  0  0  0  0  0
  -21.1478   -6.0516   25.9078 H   0  0  0  0  0  0
  -22.0596   -2.7611   23.2840 H   0  0  0  0  0  0
  -22.4062  -11.9878   22.4823 H   0  0  0  0  0  0
  -21.1075  -13.1250   22.2624 H   0  0  0  0  0  0
  -24.6448  -15.8402   20.5217 H   0  0  0  0  0  0
  -26.2507  -15.6368   20.0480 H   0  0  0  0  0  0
  -26.7231  -32.5349   23.1028 H   0  0  0  0  0  0
  -25.0092  -33.9641   25.0369 H   0  0  0  0  0  0
  -22.7328  -31.2973   21.3909 H   0  0  0  0  0  0
  -23.3748  -35.9607   23.3310 H   0  0  0  0  0  0
  -24.3581  -36.8888   22.2056 H   0  0  0  0  0  0
  -23.7250  -37.6471   23.6668 H   0  0  0  0  0  0
  -26.1324  -31.5085   20.6113 H   0  0  0  0  0  0
  -26.8574  -30.7947   22.0187 H   0  0  0  0  0  0
  -28.1176  -28.8787   21.2111 H   0  0  0  0  0  0
  -25.9044  -25.8656   19.0330 H   0  0  0  0  0  0
  -23.9662  -27.2960   19.0083 H   0  0  0  0  0  0
  -23.7859  -30.5831   19.4002 H   0  0  0  0  0  0
  -22.7695  -29.2461   19.8461 H   0  0  0  0  0  0
  -25.1305  -36.1888   25.0812 H   0  0  0  0  0  0
  -21.0008  -28.3289   24.1373 H   0  0  0  0  0  0
  -20.5678  -26.2315   23.3616 H   0  0  0  0  0  0
  -21.6651  -26.7424   22.1203 H   0  0  0  0  0  0
  -19.6913  -25.6291   21.1242 H   0  0  0  0  0  0
  -19.6688  -27.3189   20.6741 H   0  0  0  0  0  0
  -17.4207  -26.6682   21.4025 H   0  0  0  0  0  0
  -18.0332  -26.0069   22.9019 H   0  0  0  0  0  0
  -19.7948  -30.7293   24.2231 H   0  0  0  0  0  0
  -17.5020  -31.6259   24.5175 H   0  0  0  0  0  0
  -15.5357  -30.2971   23.7666 H   0  0  0  0  0  0
  -15.8690  -28.0812   22.7063 H   0  0  0  0  0  0
  -24.5912  -30.7065   25.7755 H   0  0  0  0  0  0
  -24.8912  -32.2900   26.4821 H   0  0  0  0  0  0
  -25.8039  -30.8924   27.0219 H   0  0  0  0  0  0
  -26.2970  -29.6698   24.1261 H   0  0  0  0  0  0
  -27.4030  -29.7255   25.4782 H   0  0  0  0  0  0
  -27.8859  -30.4221   23.9511 H   0  0  0  0  0  0
  -27.2655  -33.3623   26.2040 H   0  0  0  0  0  0
  -28.3885  -32.6863   25.0332 H   0  0  0  0  0  0
  -28.0712  -31.8463   26.5432 H   0  0  0  0  0  0
  -28.2597  -38.0085   24.7500 H   0  0  0  0  0  0
  -28.1065  -36.2614   24.6310 H   0  0  0  0  0  0
  -27.2293  -37.1466   25.8872 H   0  0  0  0  0  0
  -20.9422  -29.8759   21.6825 H   0  0  0  0  0  0
  -26.0160  -38.2828   24.1399 H   0  0  0  0  0  0
  -33.6007  -20.9906   19.1023 H   0  0  0  0  0  0
  -33.3246  -19.1649   19.1762 H   0  0  0  0  0  0
  -31.3502  -21.3988   19.8791 H   0  0  0  0  0  0
  -29.2414  -22.1966   19.0193 H   0  0  0  0  0  0
  -27.9543  -23.6630   21.3787 H   0  0  0  0  0  0
  -27.6530  -20.6383   20.7773 H   0  0  0  0  0  0
  -28.9218  -21.1088   21.8501 H   0  0  0  0  0  0
  -27.6634  -24.8441   18.7660 H   0  0  0  0  0  0
  -29.3423  -24.9466   19.0248 H   0  0  0  0  0  0
  -28.8235  -15.6598   20.9255 H   0  0  0  0  0  0
  1 25  1  0  0  0
  1 30  2  0  0  0
  1 82  1  0  0  0
  2  3  1  0  0  0
  2 25  1  0  0  0
  2 83  1  0  0  0
  2 84  1  0  0  0
  3  4  1  0  0  0
  3 85  1  0  0  0
  3 86  1  0  0  0
  4  5  1  0  0  0
  4 87  1  0  0  0
  4 88  1  0  0  0
  5  6  1  0  0  0
  5 26  1  0  0  0
  5 89  1  0  0  0
  6 25  1  0  0  0
  6 90  1  0  0  0
  6 91  1  0  0  0
  7  8  2  0  0  0
  7 26  1  0  0  0
  7 29  1  0  0  0
  8  9  1  0  0  0
  8 22  1  0  0  0
  9 10  1  0  0  0
  9 27  2  0  0  0
 10 11  2  0  0  0
 10 15  1  0  0  0
 11 12  1  0  0  0
 11 92  1  0  0  0
 12 13  2  0  0  0
 12 93  1  0  0  0
 13 14  1  0  0  0
 13 31  1  0  0  0
 14 15  2  0  0  0
 14 94  1  0  0  0
 15 95  1  0  0  0
 16 17  2  0  0  0
 16 21  1  0  0  0
 16 31  1  0  0  0
 17 18  1  0  0  0
 17 96  1  0  0  0
 18 19  2  0  0  0
 18 97  1  0  0  0
 19 20  1  0  0  0
 19 24  1  0  0  0
 20 21  2  0  0  0
 20 98  1  0  0  0
 21 23  1  0  0  0
 22 28  1  0  0  0
 22 32  2  0  0  0
 26 27  1  0  0  0
 28 99  1  0  0  0
 28100  1  0  0  0
 29101  1  0  0  0
 29102  1  0  0  0
 33 34  1  0  0  0
 33 66  1  0  0  0
 33 70  2  0  0  0
 34 36  1  0  0  0
 34 59  1  0  0  0
 34103  1  0  0  0
 35 44  2  0  0  0
 35 45  1  0  0  0
 35 68  1  0  0  0
 36 56  1  0  0  0
 36104  1  0  0  0
 37 39  1  0  0  0
 37 47  1  0  0  0
 37 66  1  0  0  0
 37105  1  0  0  0
 38 43  2  0  0  0
 38 46  1  0  0  0
 38 47  1  0  0  0
 39 64  1  0  0  0
 39 67  2  0  0  0
 40 52  1  0  0  0
 40 53  2  0  0  0
 40 58  1  0  0  0
 41106  1  0  0  0
 41107  1  0  0  0
 41108  1  0  0  0
 41 48  1  0  0  0
 42 43  1  0  0  0
 42 66  1  0  0  0
 42109  1  0  0  0
 42110  1  0  0  0
 43 44  1  0  0  0
 44111  1  0  0  0
 45 46  2  0  0  0
 45112  1  0  0  0
 46113  1  0  0  0
 47114  1  0  0  0
 47115  1  0  0  0
 48 56  1  0  0  0
 48 65  1  0  0  0
 48116  1  0  0  0
 49 50  1  0  0  0
 49 53  1  0  0  0
 49 64  1  0  0  0
 49117  1  0  0  0
 50 51  1  0  0  0
 50118  1  0  0  0
 50119  1  0  0  0
 51 52  1  0  0  0
 51120  1  0  0  0
 51121  1  0  0  0
 52122  1  0  0  0
 52123  1  0  0  0
 53 54  1  0  0  0
 54 55  2  0  0  0
 54124  1  0  0  0
 55 57  1  0  0  0
 55125  1  0  0  0
 56 69  2  0  0  0
 57 58  2  0  0  0
 57126  1  0  0  0
 58127  1  0  0  0
 59 60  1  0  0  0
 59 61  1  0  0  0
 59 62  1  0  0  0
 60128  1  0  0  0
 60129  1  0  0  0
 60130  1  0  0  0
 61131  1  0  0  0
 61132  1  0  0  0
 61133  1  0  0  0
 62134  1  0  0  0
 62135  1  0  0  0
 62136  1  0  0  0
 63 65  1  0  0  0
 63137  1  0  0  0
 63138  1  0  0  0
 63139  1  0  0  0
 64140  1  0  0  0
 65141  1  0  0  0
 68 78  1  0  0  0
 71 74  1  0  0  0
 71 79  2  0  0  0
 71 81  1  0  0  0
 72 79  1  0  0  0
 72 80  2  0  0  0
 72 82  1  0  0  0
 73 74  2  0  0  0
 73142  1  0  0  0
 73143  1  0  0  0
 74144  1  0  0  0
 75 76  2  0  0  0
 75 77  1  0  0  0
 75145  1  0  0  0
 76 78  1  0  0  0
 76146  1  0  0  0
 77 81  1  0  0  0
 77147  1  0  0  0
 77148  1  0  0  0
 78149  1  0  0  0
 78150  1  0  0  0
 80 81  1  0  0  0
 82151  1  0  0  0
M  ISO  4   1 100  68 101  78 101  82 100
M  END
> <chiral flag>
0

> <version>
0

> <s_m_source_file>
/data/baiqing/PycharmProjects/Reinvent-master-3.2/result/LINK_invent/BTK/process_docking_weight1_custom_product_contain_oxygen_bond_distance_aromatic_linkinvent_7_9_3/rearranged_h_0115.sdf

> <i_m_source_file_index>
7

> <r_mmod_Potential_Energy-OPLS-2005>
191.255325317383

> <r_mmod_Stretch_Energy-OPLS-2005>
149.10823059082

> <r_mmod_Bend_Energy-OPLS-2005>
202.928863525391

> <r_mmod_Torsional_Energy-OPLS-2005>
213.133529663086

> <r_mmod_Improper_Torsional_Energy-OPLS-2005>
5.4624605178833

> <r_mmod_Van_der_Waal_Energy-OPLS-2005>
117.993804931641

> <r_mmod_Electrostatic_Energy-OPLS-2005>
-381.491638183594

> <r_mmod_Solvation_Energy-OPLS-2005>
-227.282669067383

> <b_mmod_Minimization_Converged-OPLS-2005>
0

> <r_mmod_RMS_Derivative-OPLS-2005>
0.766846120357513

$$$$
7
                    3D
 Structure written by MMmdl.
164172  0  0  1  0            999 V2000
  -30.7200  -14.5474   20.6425 C   0  0  0  0  0  0
  -30.4270  -12.3879   19.4352 C   0  0  0  0  0  0
  -29.4944  -12.5298   18.2148 C   0  0  0  0  0  0
  -28.0213  -12.3584   18.6287 C   0  0  0  0  0  0
  -27.6588  -13.2120   19.8718 C   0  0  2  0  0  0
  -28.7008  -13.0262   20.9978 C   0  0  0  0  0  0
  -25.2585  -13.8174   20.5686 C   0  0  0  0  0  0
  -24.1837  -13.0445   20.9179 C   0  0  0  0  0  0
  -24.6401  -11.6917   20.8739 C   0  0  0  0  0  0
  -23.9061  -10.4304   21.0409 C   0  0  0  0  0  0
  -24.3609   -9.4223   21.9194 C   0  0  0  0  0  0
  -23.6287   -8.2259   22.0766 C   0  0  0  0  0  0
  -22.4273   -8.0288   21.3548 C   0  0  0  0  0  0
  -21.9904   -9.0266   20.4656 C   0  0  0  0  0  0
  -22.7232  -10.2148   20.3065 C   0  0  0  0  0  0
  -21.6850   -6.0746   22.5271 C   0  0  0  0  0  0
  -21.4007   -6.5646   23.8210 C   0  0  0  0  0  0
  -21.3658   -5.6791   24.9169 C   0  0  0  0  0  0
  -21.6044   -4.3055   24.7215 C   0  0  0  0  0  0
  -21.8814   -3.8157   23.4332 C   0  0  0  0  0  0
  -21.9194   -4.6975   22.3393 C   0  0  0  0  0  0
  -22.7861  -13.5254   21.1842 C   0  0  0  0  0  0
  -22.1661   -4.2161   21.0970 F   0  0  0  0  0  0
  -21.5635   -3.4539   25.7732 F   0  0  0  0  0  0
  -30.0264  -13.3746   20.4622 N   0  0  0  0  0  0
  -26.3021  -12.9348   20.3364 N   0  0  0  0  0  0
  -25.9328  -11.6503   20.5766 N   0  0  0  0  0  0
  -22.0489  -12.8250   22.0391 N   0  0  0  0  0  0
  -25.4310  -15.1887   20.4084 N   0  0  0  0  0  0
  -31.7343  -14.8043   19.9843 O   0  0  0  0  0  0
  -21.6639   -6.8885   21.4235 O   0  0  0  0  0  0
  -22.3550  -14.5568   20.6701 O   0  0  0  0  0  0
  -24.6223  -31.8623   23.1998 C   0  0  0  0  0  0
  -25.9093  -32.4783   23.8324 C   0  0  1  0  0  0
  -27.2274  -27.3360   20.1101 C   0  0  0  0  0  0
  -25.5927  -33.8588   24.2249 N   0  0  0  0  0  0
  -23.4148  -30.4839   21.5430 C   0  0  2  0  0  0
  -24.8629  -28.9459   20.1087 C   0  0  0  0  0  0
  -22.7471  -29.4622   22.4937 C   0  0  0  0  0  0
  -18.0280  -28.1372   22.8467 C   0  0  0  0  0  0
  -24.1487  -36.7276   23.2609 C   0  0  0  0  0  0
  -25.9565  -30.7929   21.3765 C   0  0  0  0  0  0
  -26.0292  -29.4227   20.7200 C   0  0  0  0  0  0
  -27.2095  -28.6247   20.7206 C   0  0  0  0  0  0
  -26.0393  -26.9183   19.4596 C   0  0  0  0  0  0
  -24.8695  -27.6971   19.4719 C   0  0  0  0  0  0
  -23.6287  -29.8195   20.1587 C   0  0  0  0  0  0
  -25.4090  -36.3069   24.0321 C   0  0  1  0  0  0
  -20.5874  -28.3664   23.1284 C   0  0  2  0  0  0
  -20.6776  -26.9395   22.5401 C   0  0  0  0  0  0
  -19.5767  -26.6375   21.5198 C   0  0  0  0  0  0
  -18.1927  -26.7910   22.1602 C   0  0  0  0  0  0
  -19.1534  -28.8831   23.2873 C   0  0  0  0  0  0
  -18.9476  -30.1436   23.8885 C   0  0  0  0  0  0
  -17.6486  -30.6581   24.0557 C   0  0  0  0  0  0
  -25.9068  -34.9467   23.5086 C   0  0  0  0  0  0
  -16.5375  -29.9067   23.6349 C   0  0  0  0  0  0
  -16.7272  -28.6498   23.0338 C   0  0  0  0  0  0
  -26.4464  -31.6605   25.0719 C   0  0  0  0  0  0
  -25.3677  -31.3765   26.1444 C   0  0  0  0  0  0
  -27.0284  -30.3015   24.6181 C   0  0  0  0  0  0
  -27.6035  -32.4329   25.7464 C   0  0  0  0  0  0
  -27.5639  -37.1687   24.8377 C   0  0  0  0  0  0
  -21.4179  -29.3030   22.3698 N   0  0  0  0  0  0
  -26.4209  -37.3833   23.9528 N   0  0  0  0  0  0
  -24.6822  -31.0645   22.0951 N   0  0  0  0  0  0
  -23.4224  -28.8169   23.3002 O   0  0  0  0  0  0
  -28.3539  -26.5007   20.1780 O   0  0  0  0  0  0
  -26.5662  -34.8956   22.4668 O   0  0  0  0  0  0
  -23.5385  -32.1429   23.7329 O   0  0  0  0  0  0
  -27.6350  -18.1283   22.4457 C   0  0  0  0  0  0
  -29.9770  -17.8900   20.9677 C   0  0  0  0  0  0
  -28.3554  -16.9099   22.5105 C   0  0  0  0  0  0
  -29.5413  -16.7420   21.7189 C   0  0  0  0  0  0
  -29.2964  -19.1577   20.9904 C   0  0  0  0  0  0
  -28.0839  -19.2451   21.7096 C   0  0  0  0  0  0
  -26.8785  -15.9936   24.3750 C   0  0  0  0  0  0
  -27.8692  -15.8783   23.4710 C   0  0  0  0  0  0
  -29.2049  -24.0444   20.3064 C   0  0  0  0  0  0
  -28.9425  -22.7048   20.4139 C   0  0  0  0  0  0
  -30.3825  -15.4606   21.8515 C   0  0  0  0  0  0
  -26.2350  -22.2724   22.6686 C   0  0  0  0  0  0
  -28.2001  -25.0971   19.7665 C   0  0  0  0  0  0
  -29.8576  -21.5783   20.9750 C   0  0  0  0  0  0
  -26.5141  -20.7648   22.7317 C   0  0  0  0  0  0
  -30.8555  -15.1380   22.9855 N   0  0  0  0  0  0
  -29.7910  -20.2771   20.3018 O   0  0  0  0  0  0
  -27.3634  -20.4203   21.6433 O   0  0  0  0  0  0
  -31.4679  -12.5053   19.1288 H   0  0  0  0  0  0
  -30.3587  -11.3814   19.8498 H   0  0  0  0  0  0
  -29.7558  -11.7912   17.4552 H   0  0  0  0  0  0
  -29.6354  -13.5083   17.7529 H   0  0  0  0  0  0
  -27.8554  -11.3018   18.8441 H   0  0  0  0  0  0
  -27.3628  -12.6034   17.7937 H   0  0  0  0  0  0
  -27.6930  -14.2553   19.5574 H   0  0  0  0  0  0
  -28.7050  -11.9931   21.3473 H   0  0  0  0  0  0
  -28.4218  -13.6220   21.8573 H   0  0  0  0  0  0
  -25.2748   -9.5703   22.4774 H   0  0  0  0  0  0
  -24.0000   -7.4647   22.7477 H   0  0  0  0  0  0
  -21.0844   -8.8786   19.8950 H   0  0  0  0  0  0
  -22.3697  -10.9697   19.6184 H   0  0  0  0  0  0
  -21.1991   -7.6151   23.9715 H   0  0  0  0  0  0
  -21.1485   -6.0524   25.9071 H   0  0  0  0  0  0
  -22.0594   -2.7615   23.2834 H   0  0  0  0  0  0
  -22.4088  -11.9907   22.4786 H   0  0  0  0  0  0
  -21.1113  -13.1295   22.2592 H   0  0  0  0  0  0
  -24.6701  -15.8451   20.5386 H   0  0  0  0  0  0
  -26.2927  -15.6344   20.1217 H   0  0  0  0  0  0
  -26.7173  -32.5468   23.1076 H   0  0  0  0  0  0
  -25.0063  -33.9740   25.0380 H   0  0  0  0  0  0
  -22.7069  -31.3022   21.3984 H   0  0  0  0  0  0
  -23.3843  -35.9503   23.3036 H   0  0  0  0  0  0
  -24.3669  -36.9142   22.2088 H   0  0  0  0  0  0
  -23.7107  -37.6336   23.6792 H   0  0  0  0  0  0
  -26.0959  -31.5564   20.6092 H   0  0  0  0  0  0
  -26.8341  -30.8351   22.0109 H   0  0  0  0  0  0
  -28.1000  -28.9792   21.2198 H   0  0  0  0  0  0
  -25.9736  -25.9780   18.9337 H   0  0  0  0  0  0
  -23.9788  -27.3266   18.9838 H   0  0  0  0  0  0
  -23.7409  -30.5947   19.4000 H   0  0  0  0  0  0
  -22.7507  -29.2425   19.8589 H   0  0  0  0  0  0
  -25.1216  -36.1848   25.0785 H   0  0  0  0  0  0
  -20.9957  -28.3233   24.1404 H   0  0  0  0  0  0
  -20.5673  -26.2268   23.3580 H   0  0  0  0  0  0
  -21.6654  -26.7414   22.1205 H   0  0  0  0  0  0
  -19.6932  -25.6282   21.1219 H   0  0  0  0  0  0
  -19.6713  -27.3199   20.6732 H   0  0  0  0  0  0
  -17.4201  -26.6657   21.4000 H   0  0  0  0  0  0
  -18.0333  -26.0037   22.8974 H   0  0  0  0  0  0
  -19.7967  -30.7245   24.2251 H   0  0  0  0  0  0
  -17.5047  -31.6268   24.5143 H   0  0  0  0  0  0
  -15.5378  -30.2975   23.7687 H   0  0  0  0  0  0
  -15.8670  -28.0833   22.7038 H   0  0  0  0  0  0
  -24.5853  -30.7112   25.7780 H   0  0  0  0  0  0
  -24.8857  -32.2943   26.4841 H   0  0  0  0  0  0
  -25.7968  -30.8968   27.0254 H   0  0  0  0  0  0
  -26.2860  -29.6798   24.1171 H   0  0  0  0  0  0
  -27.3947  -29.7247   25.4686 H   0  0  0  0  0  0
  -27.8734  -30.4301   23.9413 H   0  0  0  0  0  0
  -27.2678  -33.3664   26.1997 H   0  0  0  0  0  0
  -28.3846  -32.6845   25.0275 H   0  0  0  0  0  0
  -28.0692  -31.8481   26.5412 H   0  0  0  0  0  0
  -28.2286  -38.0325   24.8010 H   0  0  0  0  0  0
  -28.1498  -36.2969   24.5438 H   0  0  0  0  0  0
  -27.2504  -37.0370   25.8746 H   0  0  0  0  0  0
  -20.9366  -29.8764   21.6910 H   0  0  0  0  0  0
  -26.0059  -38.2792   24.1910 H   0  0  0  0  0  0
  -26.7107  -18.2178   22.9890 H   0  0  0  0  0  0
  -30.8999  -17.8180   20.4105 H   0  0  0  0  0  0
  -26.6397  -15.1569   25.0160 H   0  0  0  0  0  0
  -26.2893  -16.8860   24.5163 H   0  0  0  0  0  0
  -28.3590  -14.9203   23.4744 H   0  0  0  0  0  0
  -30.1719  -24.4233   20.6042 H   0  0  0  0  0  0
  -27.9663  -22.3623   20.1014 H   0  0  0  0  0  0
  -25.6405  -22.5983   23.5224 H   0  0  0  0  0  0
  -25.6915  -22.5409   21.7623 H   0  0  0  0  0  0
  -27.1622  -22.8450   22.6822 H   0  0  0  0  0  0
  -27.2247  -24.7119   20.0672 H   0  0  0  0  0  0
  -28.2423  -25.0626   18.6767 H   0  0  0  0  0  0
  -29.6549  -21.4668   22.0416 H   0  0  0  0  0  0
  -30.8912  -21.9225   20.9220 H   0  0  0  0  0  0
  -25.5762  -20.2102   22.6766 H   0  0  0  0  0  0
  -26.9923  -20.5303   23.6843 H   0  0  0  0  0  0
  -30.5777  -15.8026   23.6967 H   0  0  0  0  0  0
  1 25  1  0  0  0
  1 30  2  0  0  0
  1 81  1  0  0  0
  2  3  1  0  0  0
  2 25  1  0  0  0
  2 89  1  0  0  0
  2 90  1  0  0  0
  3  4  1  0  0  0
  3 91  1  0  0  0
  3 92  1  0  0  0
  4  5  1  0  0  0
  4 93  1  0  0  0
  4 94  1  0  0  0
  5  6  1  0  0  0
  5 26  1  0  0  0
  5 95  1  0  0  0
  6 25  1  0  0  0
  6 96  1  0  0  0
  6 97  1  0  0  0
  7  8  2  0  0  0
  7 26  1  0  0  0
  7 29  1  0  0  0
  8  9  1  0  0  0
  8 22  1  0  0  0
  9 10  1  0  0  0
  9 27  2  0  0  0
 10 11  2  0  0  0
 10 15  1  0  0  0
 11 12  1  0  0  0
 11 98  1  0  0  0
 12 13  2  0  0  0
 12 99  1  0  0  0
 13 14  1  0  0  0
 13 31  1  0  0  0
 14 15  2  0  0  0
 14100  1  0  0  0
 15101  1  0  0  0
 16 17  2  0  0  0
 16 21  1  0  0  0
 16 31  1  0  0  0
 17 18  1  0  0  0
 17102  1  0  0  0
 18 19  2  0  0  0
 18103  1  0  0  0
 19 20  1  0  0  0
 19 24  1  0  0  0
 20 21  2  0  0  0
 20104  1  0  0  0
 21 23  1  0  0  0
 22 28  1  0  0  0
 22 32  2  0  0  0
 26 27  1  0  0  0
 28105  1  0  0  0
 28106  1  0  0  0
 29107  1  0  0  0
 29108  1  0  0  0
 33 34  1  0  0  0
 33 66  1  0  0  0
 33 70  2  0  0  0
 34 36  1  0  0  0
 34 59  1  0  0  0
 34109  1  0  0  0
 35 44  2  0  0  0
 35 45  1  0  0  0
 35 68  1  0  0  0
 36 56  1  0  0  0
 36110  1  0  0  0
 37 39  1  0  0  0
 37 47  1  0  0  0
 37 66  1  0  0  0
 37111  1  0  0  0
 38 43  2  0  0  0
 38 46  1  0  0  0
 38 47  1  0  0  0
 39 64  1  0  0  0
 39 67  2  0  0  0
 40 52  1  0  0  0
 40 53  2  0  0  0
 40 58  1  0  0  0
 41112  1  0  0  0
 41113  1  0  0  0
 41114  1  0  0  0
 41 48  1  0  0  0
 42 43  1  0  0  0
 42 66  1  0  0  0
 42115  1  0  0  0
 42116  1  0  0  0
 43 44  1  0  0  0
 44117  1  0  0  0
 45 46  2  0  0  0
 45118  1  0  0  0
 46119  1  0  0  0
 47120  1  0  0  0
 47121  1  0  0  0
 48 56  1  0  0  0
 48 65  1  0  0  0
 48122  1  0  0  0
 49 50  1  0  0  0
 49 53  1  0  0  0
 49 64  1  0  0  0
 49123  1  0  0  0
 50 51  1  0  0  0
 50124  1  0  0  0
 50125  1  0  0  0
 51 52  1  0  0  0
 51126  1  0  0  0
 51127  1  0  0  0
 52128  1  0  0  0
 52129  1  0  0  0
 53 54  1  0  0  0
 54 55  2  0  0  0
 54130  1  0  0  0
 55 57  1  0  0  0
 55131  1  0  0  0
 56 69  2  0  0  0
 57 58  2  0  0  0
 57132  1  0  0  0
 58133  1  0  0  0
 59 60  1  0  0  0
 59 61  1  0  0  0
 59 62  1  0  0  0
 60134  1  0  0  0
 60135  1  0  0  0
 60136  1  0  0  0
 61137  1  0  0  0
 61138  1  0  0  0
 61139  1  0  0  0
 62140  1  0  0  0
 62141  1  0  0  0
 62142  1  0  0  0
 63 65  1  0  0  0
 63143  1  0  0  0
 63144  1  0  0  0
 63145  1  0  0  0
 64146  1  0  0  0
 65147  1  0  0  0
 68 83  1  0  0  0
 71 73  2  0  0  0
 71 76  1  0  0  0
 71148  1  0  0  0
 72 74  2  0  0  0
 72 75  1  0  0  0
 72149  1  0  0  0
 73 74  1  0  0  0
 73 78  1  0  0  0
 74 81  1  0  0  0
 75 76  2  0  0  0
 75 87  1  0  0  0
 76 88  1  0  0  0
 77 78  2  0  0  0
 77150  1  0  0  0
 77151  1  0  0  0
 78152  1  0  0  0
 79 80  2  0  0  0
 79 83  1  0  0  0
 79153  1  0  0  0
 80 84  1  0  0  0
 80154  1  0  0  0
 81 86  2  0  0  0
 82 85  1  0  0  0
 82155  1  0  0  0
 82156  1  0  0  0
 82157  1  0  0  0
 83158  1  0  0  0
 83159  1  0  0  0
 84 87  1  0  0  0
 84160  1  0  0  0
 84161  1  0  0  0
 85 88  1  0  0  0
 85162  1  0  0  0
 85163  1  0  0  0
 86164  1  0  0  0
M  ISO  4   1 100  68 101  81 100  83 101
M  END
> <chiral flag>
0

> <version>
0

> <s_m_source_file>
/data/baiqing/PycharmProjects/Reinvent-master-3.2/result/LINK_invent/BTK/process_docking_weight1_custom_product_contain_oxygen_bond_distance_aromatic_linkinvent_7_9_3/rearranged_h_0115.sdf

> <i_m_source_file_index>
8

> <r_mmod_Potential_Energy-OPLS-2005>
237.052993774414

> <r_mmod_Stretch_Energy-OPLS-2005>
80.5828628540039

> <r_mmod_Bend_Energy-OPLS-2005>
145.173873901367

> <r_mmod_Torsional_Energy-OPLS-2005>
253.061798095703

> <r_mmod_Improper_Torsional_Energy-OPLS-2005>
5.62401390075684

> <r_mmod_Van_der_Waal_Energy-OPLS-2005>
158.003509521484

> <r_mmod_Electrostatic_Energy-OPLS-2005>
-240.495269775391

> <r_mmod_Solvation_Energy-OPLS-2005>
-199.896591186523

> <b_mmod_Minimization_Converged-OPLS-2005>
0

> <r_mmod_RMS_Derivative-OPLS-2005>
2.57584571838379

$$$$
8
                    3D
 Structure written by MMmdl.
160168  0  0  1  0            999 V2000
  -30.6555  -14.5197   20.5350 C   0  0  0  0  0  0
  -30.4376  -12.3178   19.4389 C   0  0  0  0  0  0
  -29.5040  -12.4698   18.2175 C   0  0  0  0  0  0
  -28.0205  -12.3535   18.6249 C   0  0  0  0  0  0
  -27.6628  -13.1976   19.8782 C   0  0  2  0  0  0
  -28.7062  -12.9868   20.9993 C   0  0  0  0  0  0
  -25.2600  -13.8139   20.5659 C   0  0  0  0  0  0
  -24.1845  -13.0432   20.9174 C   0  0  0  0  0  0
  -24.6388  -11.6891   20.8748 C   0  0  0  0  0  0
  -23.9047  -10.4284   21.0415 C   0  0  0  0  0  0
  -24.3602   -9.4198   21.9196 C   0  0  0  0  0  0
  -23.6274   -8.2236   22.0766 C   0  0  0  0  0  0
  -22.4259   -8.0280   21.3552 C   0  0  0  0  0  0
  -21.9892   -9.0255   20.4657 C   0  0  0  0  0  0
  -22.7220  -10.2132   20.3063 C   0  0  0  0  0  0
  -21.6851   -6.0729   22.5275 C   0  0  0  0  0  0
  -21.4020   -6.5637   23.8207 C   0  0  0  0  0  0
  -21.3654   -5.6793   24.9171 C   0  0  0  0  0  0
  -21.6040   -4.3055   24.7224 C   0  0  0  0  0  0
  -21.8820   -3.8137   23.4350 C   0  0  0  0  0  0
  -21.9192   -4.6953   22.3402 C   0  0  0  0  0  0
  -22.7871  -13.5246   21.1815 C   0  0  0  0  0  0
  -22.1665   -4.2138   21.0982 F   0  0  0  0  0  0
  -21.5608   -3.4542   25.7739 F   0  0  0  0  0  0
  -30.0345  -13.3101   20.4481 N   0  0  0  0  0  0
  -26.3029  -12.9284   20.3379 N   0  0  0  0  0  0
  -25.9310  -11.6457   20.5794 N   0  0  0  0  0  0
  -22.0498  -12.8262   22.0378 N   0  0  0  0  0  0
  -25.4320  -15.1855   20.4024 N   0  0  0  0  0  0
  -31.7829  -14.7356   20.0838 O   0  0  0  0  0  0
  -21.6626   -6.8876   21.4243 O   0  0  0  0  0  0
  -22.3565  -14.5549   20.6648 O   0  0  0  0  0  0
  -24.6148  -31.8669   23.2100 C   0  0  0  0  0  0
  -25.9030  -32.4824   23.8405 C   0  0  1  0  0  0
  -27.2384  -27.4311   20.1054 C   0  0  0  0  0  0
  -25.5877  -33.8623   24.2327 N   0  0  0  0  0  0
  -23.4054  -30.4889   21.5486 C   0  0  2  0  0  0
  -24.8568  -28.9551   20.1122 C   0  0  0  0  0  0
  -22.7420  -29.4648   22.4978 C   0  0  0  0  0  0
  -18.0274  -28.1386   22.8497 C   0  0  0  0  0  0
  -24.1483  -36.7320   23.2641 C   0  0  0  0  0  0
  -25.9342  -30.8323   21.3647 C   0  0  0  0  0  0
  -26.0155  -29.4662   20.7125 C   0  0  0  0  0  0
  -27.2120  -28.7098   20.7097 C   0  0  0  0  0  0
  -26.0690  -26.9372   19.4937 C   0  0  0  0  0  0
  -24.8782  -27.6893   19.4995 C   0  0  0  0  0  0
  -23.6163  -29.8206   20.1633 C   0  0  0  0  0  0
  -25.4102  -36.3113   24.0339 C   0  0  1  0  0  0
  -20.5869  -28.3671   23.1319 C   0  0  2  0  0  0
  -20.6764  -26.9406   22.5420 C   0  0  0  0  0  0
  -19.5737  -26.6390   21.5221 C   0  0  0  0  0  0
  -18.1916  -26.7934   22.1632 C   0  0  0  0  0  0
  -19.1527  -28.8844   23.2907 C   0  0  0  0  0  0
  -18.9450  -30.1454   23.8918 C   0  0  0  0  0  0
  -17.6452  -30.6590   24.0571 C   0  0  0  0  0  0
  -25.9027  -34.9477   23.5132 C   0  0  0  0  0  0
  -16.5342  -29.9095   23.6329 C   0  0  0  0  0  0
  -16.7266  -28.6512   23.0349 C   0  0  0  0  0  0
  -26.4464  -31.6602   25.0730 C   0  0  0  0  0  0
  -25.3739  -31.3704   26.1485 C   0  0  0  0  0  0
  -27.0289  -30.3043   24.6104 C   0  0  0  0  0  0
  -27.6044  -32.4326   25.7475 C   0  0  0  0  0  0
  -27.5579  -37.1813   24.8462 C   0  0  0  0  0  0
  -21.4144  -29.3031   22.3720 N   0  0  0  0  0  0
  -26.4290  -37.3792   23.9410 N   0  0  0  0  0  0
  -24.6695  -31.0773   22.0997 N   0  0  0  0  0  0
  -23.4182  -28.8193   23.3030 O   0  0  0  0  0  0
  -28.3616  -26.6329   20.1339 O   0  0  0  0  0  0
  -26.5602  -34.8929   22.4702 O   0  0  0  0  0  0
  -23.5336  -32.1414   23.7489 O   0  0  0  0  0  0
  -29.4416  -17.2976   19.3056 C   0  0  0  0  0  0
  -29.2822  -18.6862   19.0499 C   0  0  0  0  0  0
  -29.8744  -16.8949   20.5957 C   0  0  0  0  0  0
  -29.5353  -19.6132   20.0812 C   0  0  0  0  0  0
  -30.1305  -17.9090   21.5449 C   0  0  0  0  0  0
  -27.9464  -16.2274   17.6047 C   0  0  0  0  0  0
  -29.1048  -16.2914   18.2827 C   0  0  0  0  0  0
  -28.8416  -19.2116   17.6854 C   0  0  0  0  0  0
  -29.3526  -24.5473   21.1942 C   0  0  0  0  0  0
  -28.9181  -23.3118   20.3620 C   0  0  0  0  0  0
  -28.3474  -25.7304   21.2523 C   0  0  0  0  0  0
  -29.5947  -21.9754   20.7889 C   0  0  0  0  0  0
  -29.9722  -19.2331   21.2993 N   0  0  0  0  0  0
  -29.8841  -15.5170   21.0132 N   0  0  0  0  0  0
  -29.2845  -20.9575   19.8310 O   0  0  0  0  0  0
  -30.5128  -17.5511   22.7937 F   0  0  0  0  0  0
  -31.4791  -12.4366   19.1359 H   0  0  0  0  0  0
  -30.3624  -11.3126   19.8574 H   0  0  0  0  0  0
  -29.7420  -11.7090   17.4727 H   0  0  0  0  0  0
  -29.6799  -13.4248   17.7275 H   0  0  0  0  0  0
  -27.8174  -11.3001   18.8220 H   0  0  0  0  0  0
  -27.3796  -12.6322   17.7874 H   0  0  0  0  0  0
  -27.6998  -14.2427   19.5806 H   0  0  0  0  0  0
  -28.6909  -11.9494   21.3383 H   0  0  0  0  0  0
  -28.4621  -13.5827   21.8796 H   0  0  0  0  0  0
  -25.2755   -9.5655   22.4763 H   0  0  0  0  0  0
  -23.9972   -7.4625   22.7491 H   0  0  0  0  0  0
  -21.0817   -8.8778   19.8971 H   0  0  0  0  0  0
  -22.3693  -10.9670   19.6162 H   0  0  0  0  0  0
  -21.2036   -7.6151   23.9706 H   0  0  0  0  0  0
  -21.1471   -6.0530   25.9071 H   0  0  0  0  0  0
  -22.0605   -2.7596   23.2862 H   0  0  0  0  0  0
  -22.4102  -11.9931   22.4787 H   0  0  0  0  0  0
  -21.1116  -13.1303   22.2558 H   0  0  0  0  0  0
  -24.6581  -15.8365   20.4815 H   0  0  0  0  0  0
  -26.2738  -15.6121   20.0366 H   0  0  0  0  0  0
  -26.7112  -32.5543   23.1185 H   0  0  0  0  0  0
  -25.0014  -33.9792   25.0461 H   0  0  0  0  0  0
  -22.6936  -31.3046   21.4080 H   0  0  0  0  0  0
  -23.3736  -35.9662   23.3313 H   0  0  0  0  0  0
  -24.3576  -36.8924   22.2054 H   0  0  0  0  0  0
  -23.7251  -37.6535   23.6648 H   0  0  0  0  0  0
  -26.0468  -31.5978   20.5955 H   0  0  0  0  0  0
  -26.8217  -30.8873   21.9835 H   0  0  0  0  0  0
  -28.1035  -29.0921   21.1876 H   0  0  0  0  0  0
  -26.0778  -25.9598   19.0315 H   0  0  0  0  0  0
  -23.9878  -27.2875   19.0358 H   0  0  0  0  0  0
  -23.7227  -30.5954   19.4031 H   0  0  0  0  0  0
  -22.7413  -29.2385   19.8690 H   0  0  0  0  0  0
  -25.1279  -36.1980   25.0833 H   0  0  0  0  0  0
  -20.9966  -28.3244   24.1437 H   0  0  0  0  0  0
  -20.5666  -26.2282   23.3610 H   0  0  0  0  0  0
  -21.6635  -26.7444   22.1209 H   0  0  0  0  0  0
  -19.6892  -25.6304   21.1242 H   0  0  0  0  0  0
  -19.6680  -27.3214   20.6762 H   0  0  0  0  0  0
  -17.4185  -26.6697   21.4032 H   0  0  0  0  0  0
  -18.0304  -26.0075   22.9024 H   0  0  0  0  0  0
  -19.7922  -30.7269   24.2296 H   0  0  0  0  0  0
  -17.5002  -31.6272   24.5174 H   0  0  0  0  0  0
  -15.5345  -30.3003   23.7638 H   0  0  0  0  0  0
  -15.8665  -28.0842   22.7049 H   0  0  0  0  0  0
  -24.5894  -30.7072   25.7822 H   0  0  0  0  0  0
  -24.8955  -32.2859   26.4975 H   0  0  0  0  0  0
  -25.8097  -30.8838   27.0219 H   0  0  0  0  0  0
  -26.2827  -29.6810   24.1161 H   0  0  0  0  0  0
  -27.4057  -29.7278   25.4565 H   0  0  0  0  0  0
  -27.8665  -30.4362   23.9251 H   0  0  0  0  0  0
  -27.2661  -33.3610   26.2091 H   0  0  0  0  0  0
  -28.3816  -32.6917   25.0271 H   0  0  0  0  0  0
  -28.0751  -31.8433   26.5354 H   0  0  0  0  0  0
  -28.2604  -38.0102   24.7496 H   0  0  0  0  0  0
  -28.1062  -36.2635   24.6287 H   0  0  0  0  0  0
  -27.2297  -37.1463   25.8865 H   0  0  0  0  0  0
  -20.9300  -29.8759   21.6949 H   0  0  0  0  0  0
  -26.0178  -38.2870   24.1407 H   0  0  0  0  0  0
  -27.7805  -15.4677   16.8548 H   0  0  0  0  0  0
  -27.1458  -16.9294   17.7884 H   0  0  0  0  0  0
  -29.8772  -15.5733   18.0575 H   0  0  0  0  0  0
  -29.2178  -18.5919   16.8716 H   0  0  0  0  0  0
  -29.2146  -20.2184   17.4988 H   0  0  0  0  0  0
  -27.7538  -19.2451   17.6256 H   0  0  0  0  0  0
  -30.3337  -24.8995   20.8732 H   0  0  0  0  0  0
  -29.4901  -24.2090   22.2224 H   0  0  0  0  0  0
  -29.1210  -23.5106   19.3093 H   0  0  0  0  0  0
  -27.8375  -23.1836   20.4373 H   0  0  0  0  0  0
  -28.5803  -26.3271   22.1357 H   0  0  0  0  0  0
  -27.3450  -25.3336   21.4259 H   0  0  0  0  0  0
  -29.2459  -21.6959   21.7841 H   0  0  0  0  0  0
  -30.6776  -22.0962   20.8389 H   0  0  0  0  0  0
  -29.0490  -15.2084   21.4869 H   0  0  0  0  0  0
  1 25  1  0  0  0
  1 30  2  0  0  0
  1 84  1  0  0  0
  2  3  1  0  0  0
  2 25  1  0  0  0
  2 87  1  0  0  0
  2 88  1  0  0  0
  3  4  1  0  0  0
  3 89  1  0  0  0
  3 90  1  0  0  0
  4  5  1  0  0  0
  4 91  1  0  0  0
  4 92  1  0  0  0
  5  6  1  0  0  0
  5 26  1  0  0  0
  5 93  1  0  0  0
  6 25  1  0  0  0
  6 94  1  0  0  0
  6 95  1  0  0  0
  7  8  2  0  0  0
  7 26  1  0  0  0
  7 29  1  0  0  0
  8  9  1  0  0  0
  8 22  1  0  0  0
  9 10  1  0  0  0
  9 27  2  0  0  0
 10 11  2  0  0  0
 10 15  1  0  0  0
 11 12  1  0  0  0
 11 96  1  0  0  0
 12 13  2  0  0  0
 12 97  1  0  0  0
 13 14  1  0  0  0
 13 31  1  0  0  0
 14 15  2  0  0  0
 14 98  1  0  0  0
 15 99  1  0  0  0
 16 17  2  0  0  0
 16 21  1  0  0  0
 16 31  1  0  0  0
 17 18  1  0  0  0
 17100  1  0  0  0
 18 19  2  0  0  0
 18101  1  0  0  0
 19 20  1  0  0  0
 19 24  1  0  0  0
 20 21  2  0  0  0
 20102  1  0  0  0
 21 23  1  0  0  0
 22 28  1  0  0  0
 22 32  2  0  0  0
 26 27  1  0  0  0
 28103  1  0  0  0
 28104  1  0  0  0
 29105  1  0  0  0
 29106  1  0  0  0
 33 34  1  0  0  0
 33 66  1  0  0  0
 33 70  2  0  0  0
 34 36  1  0  0  0
 34 59  1  0  0  0
 34107  1  0  0  0
 35 44  2  0  0  0
 35 45  1  0  0  0
 35 68  1  0  0  0
 36 56  1  0  0  0
 36108  1  0  0  0
 37 39  1  0  0  0
 37 47  1  0  0  0
 37 66  1  0  0  0
 37109  1  0  0  0
 38 43  2  0  0  0
 38 46  1  0  0  0
 38 47  1  0  0  0
 39 64  1  0  0  0
 39 67  2  0  0  0
 40 52  1  0  0  0
 40 53  2  0  0  0
 40 58  1  0  0  0
 41110  1  0  0  0
 41111  1  0  0  0
 41112  1  0  0  0
 41 48  1  0  0  0
 42 43  1  0  0  0
 42 66  1  0  0  0
 42113  1  0  0  0
 42114  1  0  0  0
 43 44  1  0  0  0
 44115  1  0  0  0
 45 46  2  0  0  0
 45116  1  0  0  0
 46117  1  0  0  0
 47118  1  0  0  0
 47119  1  0  0  0
 48 56  1  0  0  0
 48 65  1  0  0  0
 48120  1  0  0  0
 49 50  1  0  0  0
 49 53  1  0  0  0
 49 64  1  0  0  0
 49121  1  0  0  0
 50 51  1  0  0  0
 50122  1  0  0  0
 50123  1  0  0  0
 51 52  1  0  0  0
 51124  1  0  0  0
 51125  1  0  0  0
 52126  1  0  0  0
 52127  1  0  0  0
 53 54  1  0  0  0
 54 55  2  0  0  0
 54128  1  0  0  0
 55 57  1  0  0  0
 55129  1  0  0  0
 56 69  2  0  0  0
 57 58  2  0  0  0
 57130  1  0  0  0
 58131  1  0  0  0
 59 60  1  0  0  0
 59 61  1  0  0  0
 59 62  1  0  0  0
 60132  1  0  0  0
 60133  1  0  0  0
 60134  1  0  0  0
 61135  1  0  0  0
 61136  1  0  0  0
 61137  1  0  0  0
 62138  1  0  0  0
 62139  1  0  0  0
 62140  1  0  0  0
 63 65  1  0  0  0
 63141  1  0  0  0
 63142  1  0  0  0
 63143  1  0  0  0
 64144  1  0  0  0
 65145  1  0  0  0
 68 81  1  0  0  0
 71 72  2  0  0  0
 71 73  1  0  0  0
 71 77  1  0  0  0
 72 74  1  0  0  0
 72 78  1  0  0  0
 73 75  2  0  0  0
 73 84  1  0  0  0
 74 83  2  0  0  0
 74 85  1  0  0  0
 75 83  1  0  0  0
 75 86  1  0  0  0
 76 77  2  0  0  0
 76146  1  0  0  0
 76147  1  0  0  0
 77148  1  0  0  0
 78149  1  0  0  0
 78150  1  0  0  0
 78151  1  0  0  0
 79 80  1  0  0  0
 79 81  1  0  0  0
 79152  1  0  0  0
 79153  1  0  0  0
 80 82  1  0  0  0
 80154  1  0  0  0
 80155  1  0  0  0
 81156  1  0  0  0
 81157  1  0  0  0
 82 85  1  0  0  0
 82158  1  0  0  0
 82159  1  0  0  0
 84160  1  0  0  0
M  ISO  4   1 100  68 101  81 101  84 100
M  END
> <chiral flag>
0

> <version>
0

> <s_m_source_file>
/data/baiqing/PycharmProjects/Reinvent-master-3.2/result/LINK_invent/BTK/process_docking_weight1_custom_product_contain_oxygen_bond_distance_aromatic_linkinvent_7_9_3/rearranged_h_0115.sdf

> <i_m_source_file_index>
9

> <r_mmod_Potential_Energy-OPLS-2005>
-252.088562011719

> <r_mmod_Stretch_Energy-OPLS-2005>
40.9578857421875

> <r_mmod_Bend_Energy-OPLS-2005>
106.95573425293

> <r_mmod_Torsional_Energy-OPLS-2005>
284.469024658203

> <r_mmod_Improper_Torsional_Energy-OPLS-2005>
5.93533658981323

> <r_mmod_Van_der_Waal_Energy-OPLS-2005>
152.877258300781

> <r_mmod_Electrostatic_Energy-OPLS-2005>
-658.534606933594

> <r_mmod_Solvation_Energy-OPLS-2005>
-203.070327758789

> <b_mmod_Minimization_Converged-OPLS-2005>
0

> <r_mmod_RMS_Derivative-OPLS-2005>
1.29509890079498

$$$$
9
                    3D
 Structure written by MMmdl.
154163  0  0  1  0            999 V2000
  -30.5984  -14.6691   20.4841 C   0  0  0  0  0  0
  -30.4463  -12.4097   19.4541 C   0  0  0  0  0  0
  -29.5153  -12.5185   18.2253 C   0  0  0  0  0  0
  -28.0377  -12.3478   18.6339 C   0  0  0  0  0  0
  -27.6555  -13.2153   19.8626 C   0  0  2  0  0  0
  -28.7010  -13.0756   20.9929 C   0  0  0  0  0  0
  -25.2587  -13.8163   20.5683 C   0  0  0  0  0  0
  -24.1854  -13.0434   20.9187 C   0  0  0  0  0  0
  -24.6420  -11.6902   20.8727 C   0  0  0  0  0  0
  -23.9081  -10.4287   21.0400 C   0  0  0  0  0  0
  -24.3619   -9.4201   21.9185 C   0  0  0  0  0  0
  -23.6286   -8.2242   22.0761 C   0  0  0  0  0  0
  -22.4266   -8.0285   21.3552 C   0  0  0  0  0  0
  -21.9910   -9.0268   20.4655 C   0  0  0  0  0  0
  -22.7249  -10.2140   20.3056 C   0  0  0  0  0  0
  -21.6859   -6.0737   22.5282 C   0  0  0  0  0  0
  -21.4021   -6.5630   23.8215 C   0  0  0  0  0  0
  -21.3651   -5.6781   24.9172 C   0  0  0  0  0  0
  -21.6042   -4.3050   24.7218 C   0  0  0  0  0  0
  -21.8817   -3.8144   23.4343 C   0  0  0  0  0  0
  -21.9199   -4.6968   22.3403 C   0  0  0  0  0  0
  -22.7873  -13.5246   21.1828 C   0  0  0  0  0  0
  -22.1665   -4.2154   21.0984 F   0  0  0  0  0  0
  -21.5626   -3.4534   25.7732 F   0  0  0  0  0  0
  -30.0139  -13.4294   20.4298 N   0  0  0  0  0  0
  -26.3012  -12.9338   20.3300 N   0  0  0  0  0  0
  -25.9347  -11.6491   20.5722 N   0  0  0  0  0  0
  -22.0499  -12.8260   22.0383 N   0  0  0  0  0  0
  -25.4293  -15.1886   20.4115 N   0  0  0  0  0  0
  -31.7603  -14.8453   20.1035 O   0  0  0  0  0  0
  -21.6638   -6.8878   21.4241 O   0  0  0  0  0  0
  -22.3571  -14.5550   20.6667 O   0  0  0  0  0  0
  -24.6281  -31.8595   23.2028 C   0  0  0  0  0  0
  -25.9119  -32.4776   23.8363 C   0  0  1  0  0  0
  -27.2228  -27.3124   20.1161 C   0  0  0  0  0  0
  -25.5927  -33.8574   24.2295 N   0  0  0  0  0  0
  -23.4219  -30.4839   21.5462 C   0  0  2  0  0  0
  -24.8688  -28.9401   20.1088 C   0  0  0  0  0  0
  -22.7487  -29.4619   22.4931 C   0  0  0  0  0  0
  -18.0286  -28.1370   22.8479 C   0  0  0  0  0  0
  -24.1478  -36.7282   23.2640 C   0  0  0  0  0  0
  -25.9642  -30.7862   21.3772 C   0  0  0  0  0  0
  -26.0387  -29.4137   20.7182 C   0  0  0  0  0  0
  -27.2193  -28.6105   20.7165 C   0  0  0  0  0  0
  -26.0356  -26.9009   19.4700 C   0  0  0  0  0  0
  -24.8693  -27.6874   19.4764 C   0  0  0  0  0  0
  -23.6379  -29.8224   20.1603 C   0  0  0  0  0  0
  -25.4098  -36.3080   24.0343 C   0  0  1  0  0  0
  -20.5888  -28.3678   23.1270 C   0  0  2  0  0  0
  -20.6766  -26.9400   22.5403 C   0  0  0  0  0  0
  -19.5741  -26.6377   21.5201 C   0  0  0  0  0  0
  -18.1925  -26.7910   22.1623 C   0  0  0  0  0  0
  -19.1538  -28.8843   23.2869 C   0  0  0  0  0  0
  -18.9458  -30.1439   23.8897 C   0  0  0  0  0  0
  -17.6457  -30.6586   24.0554 C   0  0  0  0  0  0
  -25.9042  -34.9452   23.5120 C   0  0  0  0  0  0
  -16.5348  -29.9079   23.6325 C   0  0  0  0  0  0
  -16.7271  -28.6491   23.0356 C   0  0  0  0  0  0
  -26.4495  -31.6577   25.0737 C   0  0  0  0  0  0
  -25.3719  -31.3725   26.1462 C   0  0  0  0  0  0
  -27.0340  -30.2997   24.6203 C   0  0  0  0  0  0
  -27.6058  -32.4311   25.7499 C   0  0  0  0  0  0
  -27.5584  -37.1782   24.8459 C   0  0  0  0  0  0
  -21.4200  -29.3036   22.3670 N   0  0  0  0  0  0
  -26.4274  -37.3784   23.9437 N   0  0  0  0  0  0
  -24.6899  -31.0594   22.0994 N   0  0  0  0  0  0
  -23.4199  -28.8159   23.3020 O   0  0  0  0  0  0
  -28.3113  -26.4239   20.1480 O   0  0  0  0  0  0
  -26.5617  -34.8927   22.4688 O   0  0  0  0  0  0
  -23.5442  -32.1409   23.7344 O   0  0  0  0  0  0
  -28.6656  -17.9314   21.0769 C   0  0  0  0  0  0
  -30.8219  -17.9210   20.0481 C   0  0  0  0  0  0
  -29.6264  -20.1262   20.3418 C   0  0  0  0  0  0
  -29.7820  -17.1633   20.6468 C   0  0  0  0  0  0
  -28.5834  -19.3513   20.9357 C   0  0  0  0  0  0
  -30.7482  -19.3431   19.8990 C   0  0  0  0  0  0
  -28.8187  -23.9449   20.2486 C   0  0  0  0  0  0
  -28.0384  -25.0648   20.4381 C   0  0  0  0  0  0
  -30.2181  -23.8881   19.6821 C   0  0  0  0  0  0
  -28.4356  -22.4782   20.5811 C   0  0  0  0  0  0
  -30.5904  -22.3841   19.5479 C   0  0  0  0  0  0
  -29.5542  -21.5777   20.2029 N   0  0  0  0  0  0
  -29.7582  -15.7015   20.8292 N   0  0  0  0  0  0
  -27.4614  -19.9654   21.3886 F   0  0  0  0  0  0
  -31.8068  -19.9469   19.3049 F   0  0  0  0  0  0
  -31.4864  -12.5447   19.1524 H   0  0  0  0  0  0
  -30.3892  -11.4142   19.8961 H   0  0  0  0  0  0
  -29.7868  -11.7729   17.4774 H   0  0  0  0  0  0
  -29.6521  -13.4901   17.7478 H   0  0  0  0  0  0
  -27.8771  -11.2935   18.8624 H   0  0  0  0  0  0
  -27.3859  -12.5818   17.7908 H   0  0  0  0  0  0
  -27.6707  -14.2491   19.5179 H   0  0  0  0  0  0
  -28.7217  -12.0552   21.3770 H   0  0  0  0  0  0
  -28.4413  -13.7063   21.8446 H   0  0  0  0  0  0
  -25.2768   -9.5685   22.4756 H   0  0  0  0  0  0
  -24.0001   -7.4643   22.7486 H   0  0  0  0  0  0
  -21.0840   -8.8791   19.8967 H   0  0  0  0  0  0
  -22.3710  -10.9677   19.6163 H   0  0  0  0  0  0
  -21.2009   -7.6140   23.9712 H   0  0  0  0  0  0
  -21.1470   -6.0516   25.9075 H   0  0  0  0  0  0
  -22.0602   -2.7614   23.2839 H   0  0  0  0  0  0
  -22.4084  -11.9912   22.4777 H   0  0  0  0  0  0
  -21.1132  -13.1326   22.2577 H   0  0  0  0  0  0
  -24.6571  -15.8364   20.5229 H   0  0  0  0  0  0
  -26.2630  -15.6290   20.0452 H   0  0  0  0  0  0
  -26.7187  -32.5444   23.1108 H   0  0  0  0  0  0
  -25.0062  -33.9707   25.0434 H   0  0  0  0  0  0
  -22.7151  -31.3046   21.4053 H   0  0  0  0  0  0
  -23.3753  -35.9598   23.3282 H   0  0  0  0  0  0
  -24.3596  -36.8916   22.2061 H   0  0  0  0  0  0
  -23.7213  -37.6475   23.6663 H   0  0  0  0  0  0
  -26.0987  -31.5501   20.6099 H   0  0  0  0  0  0
  -26.8442  -30.8343   22.0073 H   0  0  0  0  0  0
  -28.1157  -28.9666   21.2035 H   0  0  0  0  0  0
  -25.9999  -25.9414   18.9728 H   0  0  0  0  0  0
  -23.9760  -27.3199   18.9905 H   0  0  0  0  0  0
  -23.7567  -30.6027   19.4073 H   0  0  0  0  0  0
  -22.7569  -29.2547   19.8561 H   0  0  0  0  0  0
  -25.1262  -36.1927   25.0833 H   0  0  0  0  0  0
  -20.9978  -28.3249   24.1388 H   0  0  0  0  0  0
  -20.5636  -26.2294   23.3600 H   0  0  0  0  0  0
  -21.6636  -26.7405   22.1213 H   0  0  0  0  0  0
  -19.6898  -25.6289   21.1227 H   0  0  0  0  0  0
  -19.6677  -27.3179   20.6716 H   0  0  0  0  0  0
  -17.4191  -26.6643   21.4035 H   0  0  0  0  0  0
  -18.0338  -26.0060   22.9024 H   0  0  0  0  0  0
  -19.7944  -30.7233   24.2285 H   0  0  0  0  0  0
  -17.5026  -31.6269   24.5144 H   0  0  0  0  0  0
  -15.5345  -30.2968   23.7667 H   0  0  0  0  0  0
  -15.8674  -28.0797   22.7079 H   0  0  0  0  0  0
  -24.5875  -30.7100   25.7785 H   0  0  0  0  0  0
  -24.8933  -32.2897   26.4904 H   0  0  0  0  0  0
  -25.8033  -30.8880   27.0228 H   0  0  0  0  0  0
  -26.2924  -29.6747   24.1220 H   0  0  0  0  0  0
  -27.4020  -29.7259   25.4716 H   0  0  0  0  0  0
  -27.8797  -30.4280   23.9446 H   0  0  0  0  0  0
  -27.2677  -33.3613   26.2077 H   0  0  0  0  0  0
  -28.3860  -32.6870   25.0317 H   0  0  0  0  0  0
  -28.0734  -31.8439   26.5411 H   0  0  0  0  0  0
  -28.2548  -38.0131   24.7587 H   0  0  0  0  0  0
  -28.1130  -36.2672   24.6157 H   0  0  0  0  0  0
  -27.2334  -37.1285   25.8867 H   0  0  0  0  0  0
  -20.9374  -29.8761   21.6886 H   0  0  0  0  0  0
  -26.0149  -38.2848   24.1479 H   0  0  0  0  0  0
  -27.8277  -17.4259   21.5339 H   0  0  0  0  0  0
  -31.7048  -17.4189   19.6826 H   0  0  0  0  0  0
  -27.0580  -24.9479   20.8801 H   0  0  0  0  0  0
  -30.8951  -24.3848   20.3780 H   0  0  0  0  0  0
  -30.2805  -24.4123   18.7284 H   0  0  0  0  0  0
  -27.5324  -22.2072   20.0308 H   0  0  0  0  0  0
  -28.2173  -22.3899   21.6463 H   0  0  0  0  0  0
  -31.5680  -22.2049   19.9974 H   0  0  0  0  0  0
  -30.6555  -22.1090   18.4934 H   0  0  0  0  0  0
  -28.8805  -15.3487   21.1803 H   0  0  0  0  0  0
  1 25  1  0  0  0
  1 30  2  0  0  0
  1 83  1  0  0  0
  2  3  1  0  0  0
  2 25  1  0  0  0
  2 86  1  0  0  0
  2 87  1  0  0  0
  3  4  1  0  0  0
  3 88  1  0  0  0
  3 89  1  0  0  0
  4  5  1  0  0  0
  4 90  1  0  0  0
  4 91  1  0  0  0
  5  6  1  0  0  0
  5 26  1  0  0  0
  5 92  1  0  0  0
  6 25  1  0  0  0
  6 93  1  0  0  0
  6 94  1  0  0  0
  7  8  2  0  0  0
  7 26  1  0  0  0
  7 29  1  0  0  0
  8  9  1  0  0  0
  8 22  1  0  0  0
  9 10  1  0  0  0
  9 27  2  0  0  0
 10 11  2  0  0  0
 10 15  1  0  0  0
 11 12  1  0  0  0
 11 95  1  0  0  0
 12 13  2  0  0  0
 12 96  1  0  0  0
 13 14  1  0  0  0
 13 31  1  0  0  0
 14 15  2  0  0  0
 14 97  1  0  0  0
 15 98  1  0  0  0
 16 17  2  0  0  0
 16 21  1  0  0  0
 16 31  1  0  0  0
 17 18  1  0  0  0
 17 99  1  0  0  0
 18 19  2  0  0  0
 18100  1  0  0  0
 19 20  1  0  0  0
 19 24  1  0  0  0
 20 21  2  0  0  0
 20101  1  0  0  0
 21 23  1  0  0  0
 22 28  1  0  0  0
 22 32  2  0  0  0
 26 27  1  0  0  0
 28102  1  0  0  0
 28103  1  0  0  0
 29104  1  0  0  0
 29105  1  0  0  0
 33 34  1  0  0  0
 33 66  1  0  0  0
 33 70  2  0  0  0
 34 36  1  0  0  0
 34 59  1  0  0  0
 34106  1  0  0  0
 35 44  2  0  0  0
 35 45  1  0  0  0
 35 68  1  0  0  0
 36 56  1  0  0  0
 36107  1  0  0  0
 37 39  1  0  0  0
 37 47  1  0  0  0
 37 66  1  0  0  0
 37108  1  0  0  0
 38 43  2  0  0  0
 38 46  1  0  0  0
 38 47  1  0  0  0
 39 64  1  0  0  0
 39 67  2  0  0  0
 40 52  1  0  0  0
 40 53  2  0  0  0
 40 58  1  0  0  0
 41109  1  0  0  0
 41110  1  0  0  0
 41111  1  0  0  0
 41 48  1  0  0  0
 42 43  1  0  0  0
 42 66  1  0  0  0
 42112  1  0  0  0
 42113  1  0  0  0
 43 44  1  0  0  0
 44114  1  0  0  0
 45 46  2  0  0  0
 45115  1  0  0  0
 46116  1  0  0  0
 47117  1  0  0  0
 47118  1  0  0  0
 48 56  1  0  0  0
 48 65  1  0  0  0
 48119  1  0  0  0
 49 50  1  0  0  0
 49 53  1  0  0  0
 49 64  1  0  0  0
 49120  1  0  0  0
 50 51  1  0  0  0
 50121  1  0  0  0
 50122  1  0  0  0
 51 52  1  0  0  0
 51123  1  0  0  0
 51124  1  0  0  0
 52125  1  0  0  0
 52126  1  0  0  0
 53 54  1  0  0  0
 54 55  2  0  0  0
 54127  1  0  0  0
 55 57  1  0  0  0
 55128  1  0  0  0
 56 69  2  0  0  0
 57 58  2  0  0  0
 57129  1  0  0  0
 58130  1  0  0  0
 59 60  1  0  0  0
 59 61  1  0  0  0
 59 62  1  0  0  0
 60131  1  0  0  0
 60132  1  0  0  0
 60133  1  0  0  0
 61134  1  0  0  0
 61135  1  0  0  0
 61136  1  0  0  0
 62137  1  0  0  0
 62138  1  0  0  0
 62139  1  0  0  0
 63 65  1  0  0  0
 63140  1  0  0  0
 63141  1  0  0  0
 63142  1  0  0  0
 64143  1  0  0  0
 65144  1  0  0  0
 68 78  1  0  0  0
 71 74  2  0  0  0
 71 75  1  0  0  0
 71145  1  0  0  0
 72 74  1  0  0  0
 72 76  2  0  0  0
 72146  1  0  0  0
 73 75  2  0  0  0
 73 76  1  0  0  0
 73 82  1  0  0  0
 74 83  1  0  0  0
 75 84  1  0  0  0
 76 85  1  0  0  0
 77 78  2  0  0  0
 77 79  1  0  0  0
 77 80  1  0  0  0
 78147  1  0  0  0
 79 81  1  0  0  0
 79148  1  0  0  0
 79149  1  0  0  0
 80 82  1  0  0  0
 80150  1  0  0  0
 80151  1  0  0  0
 81 82  1  0  0  0
 81152  1  0  0  0
 81153  1  0  0  0
 83154  1  0  0  0
M  ISO  4   1 100  68 101  78 101  83 100
M  END
> <chiral flag>
0

> <version>
0

> <s_m_source_file>
/data/baiqing/PycharmProjects/Reinvent-master-3.2/result/LINK_invent/BTK/process_docking_weight1_custom_product_contain_oxygen_bond_distance_aromatic_linkinvent_7_9_3/rearranged_h_0115.sdf

> <i_m_source_file_index>
10

> <r_mmod_Potential_Energy-OPLS-2005>
190.079254150391

> <r_mmod_Stretch_Energy-OPLS-2005>
82.4048080444336

> <r_mmod_Bend_Energy-OPLS-2005>
180.71174621582

> <r_mmod_Torsional_Energy-OPLS-2005>
224.840118408203

> <r_mmod_Improper_Torsional_Energy-OPLS-2005>
4.13650512695312

> <r_mmod_Van_der_Waal_Energy-OPLS-2005>
146.314346313477

> <r_mmod_Electrostatic_Energy-OPLS-2005>
-286.092590332031

> <r_mmod_Solvation_Energy-OPLS-2005>
-220.01838684082

> <b_mmod_Minimization_Converged-OPLS-2005>
0

> <r_mmod_RMS_Derivative-OPLS-2005>
1.70664203166962

$$$$
10
                    3D
 Structure written by MMmdl.
160168  0  0  1  0            999 V2000
  -30.7451  -14.5215   20.6288 C   0  0  0  0  0  0
  -30.4239  -12.3652   19.4342 C   0  0  0  0  0  0
  -29.4958  -12.5330   18.2156 C   0  0  0  0  0  0
  -28.0200  -12.3804   18.6295 C   0  0  0  0  0  0
  -27.6650  -13.2204   19.8864 C   0  0  2  0  0  0
  -28.7080  -13.0304   21.0116 C   0  0  0  0  0  0
  -25.2603  -13.8176   20.5714 C   0  0  0  0  0  0
  -24.1877  -13.0433   20.9178 C   0  0  0  0  0  0
  -24.6435  -11.6912   20.8718 C   0  0  0  0  0  0
  -23.9067  -10.4300   21.0374 C   0  0  0  0  0  0
  -24.3604   -9.4230   21.9179 C   0  0  0  0  0  0
  -23.6286   -8.2257   22.0767 C   0  0  0  0  0  0
  -22.4280   -8.0281   21.3542 C   0  0  0  0  0  0
  -21.9901   -9.0264   20.4648 C   0  0  0  0  0  0
  -22.7219  -10.2143   20.3046 C   0  0  0  0  0  0
  -21.6862   -6.0728   22.5260 C   0  0  0  0  0  0
  -21.4015   -6.5629   23.8189 C   0  0  0  0  0  0
  -21.3657   -5.6786   24.9154 C   0  0  0  0  0  0
  -21.6045   -4.3051   24.7202 C   0  0  0  0  0  0
  -21.8815   -3.8138   23.4330 C   0  0  0  0  0  0
  -21.9196   -4.6956   22.3390 C   0  0  0  0  0  0
  -22.7898  -13.5246   21.1830 C   0  0  0  0  0  0
  -22.1672   -4.2130   21.0970 F   0  0  0  0  0  0
  -21.5629   -3.4540   25.7717 F   0  0  0  0  0  0
  -30.0362  -13.3582   20.4617 N   0  0  0  0  0  0
  -26.3073  -12.9374   20.3443 N   0  0  0  0  0  0
  -25.9382  -11.6503   20.5790 N   0  0  0  0  0  0
  -22.0514  -12.8276   22.0383 N   0  0  0  0  0  0
  -25.4283  -15.1886   20.4139 N   0  0  0  0  0  0
  -31.7742  -14.7575   19.9827 O   0  0  0  0  0  0
  -21.6638   -6.8877   21.4238 O   0  0  0  0  0  0
  -22.3566  -14.5550   20.6645 O   0  0  0  0  0  0
  -24.6208  -31.8619   23.1978 C   0  0  0  0  0  0
  -25.9045  -32.4785   23.8328 C   0  0  1  0  0  0
  -27.2456  -27.3628   20.1048 C   0  0  0  0  0  0
  -25.5885  -33.8580   24.2228 N   0  0  0  0  0  0
  -23.4143  -30.4767   21.5469 C   0  0  2  0  0  0
  -24.8610  -28.9248   20.1190 C   0  0  0  0  0  0
  -22.7443  -29.4600   22.5017 C   0  0  0  0  0  0
  -18.0252  -28.1364   22.8471 C   0  0  0  0  0  0
  -24.1491  -36.7320   23.2655 C   0  0  0  0  0  0
  -25.9465  -30.8061   21.3582 C   0  0  0  0  0  0
  -26.0275  -29.4326   20.7074 C   0  0  0  0  0  0
  -27.2236  -28.6648   20.6838 C   0  0  0  0  0  0
  -26.0574  -26.8826   19.5158 C   0  0  0  0  0  0
  -24.8761  -27.6529   19.5194 C   0  0  0  0  0  0
  -23.6206  -29.7937   20.1668 C   0  0  0  0  0  0
  -25.4115  -36.3116   24.0321 C   0  0  1  0  0  0
  -20.5860  -28.3655   23.1326 C   0  0  2  0  0  0
  -20.6742  -26.9386   22.5452 C   0  0  0  0  0  0
  -19.5736  -26.6352   21.5240 C   0  0  0  0  0  0
  -18.1899  -26.7911   22.1610 C   0  0  0  0  0  0
  -19.1519  -28.8807   23.2892 C   0  0  0  0  0  0
  -18.9460  -30.1430   23.8892 C   0  0  0  0  0  0
  -17.6474  -30.6576   24.0555 C   0  0  0  0  0  0
  -25.9056  -34.9458   23.5083 C   0  0  0  0  0  0
  -16.5352  -29.9072   23.6335 C   0  0  0  0  0  0
  -16.7255  -28.6481   23.0347 C   0  0  0  0  0  0
  -26.4406  -31.6627   25.0741 C   0  0  0  0  0  0
  -25.3632  -31.3768   26.1478 C   0  0  0  0  0  0
  -27.0251  -30.3069   24.6151 C   0  0  0  0  0  0
  -27.5976  -32.4393   25.7489 C   0  0  0  0  0  0
  -27.5579  -37.1816   24.8457 C   0  0  0  0  0  0
  -21.4151  -29.3047   22.3764 N   0  0  0  0  0  0
  -26.4294  -37.3812   23.9413 N   0  0  0  0  0  0
  -24.6807  -31.0623   22.0943 N   0  0  0  0  0  0
  -23.4186  -28.8163   23.3087 O   0  0  0  0  0  0
  -28.4016  -26.5883   20.0443 O   0  0  0  0  0  0
  -26.5665  -34.8917   22.4682 O   0  0  0  0  0  0
  -23.5372  -32.1437   23.7273 O   0  0  0  0  0  0
  -28.2378  -16.7393   22.0370 C   0  0  0  0  0  0
  -30.0479  -17.9876   20.9985 C   0  0  0  0  0  0
  -29.5486  -16.7428   21.5132 C   0  0  0  0  0  0
  -27.4736  -17.9202   22.1163 C   0  0  0  0  0  0
  -29.2758  -19.2014   21.0284 C   0  0  0  0  0  0
  -27.9941  -19.1437   21.6422 C   0  0  0  0  0  0
  -28.4982  -24.0023   20.1217 C   0  0  0  0  0  0
  -29.0536  -22.8471   20.6022 C   0  0  0  0  0  0
  -30.3678  -15.4923   21.7692 C   0  0  0  0  0  0
  -26.1307  -17.8879   22.8261 C   0  0  0  0  0  0
  -27.7113  -20.9448   23.0752 C   0  0  0  0  0  0
  -28.4616  -25.3737   20.8534 C   0  0  0  0  0  0
  -29.0201  -21.4448   19.9362 C   0  0  0  0  0  0
  -30.7543  -15.2544   22.9542 N   0  0  0  0  0  0
  -27.2817  -20.2864   21.8908 O   0  0  0  0  0  0
  -29.8325  -20.4119   20.5816 O   0  0  0  0  0  0
  -31.4682  -12.4606   19.1286 H   0  0  0  0  0  0
  -30.3363  -11.3579   19.8403 H   0  0  0  0  0  0
  -29.7447  -11.7928   17.4524 H   0  0  0  0  0  0
  -29.6558  -13.5117   17.7585 H   0  0  0  0  0  0
  -27.8410  -11.3242   18.8311 H   0  0  0  0  0  0
  -27.3644  -12.6469   17.7972 H   0  0  0  0  0  0
  -27.7047  -14.2673   19.5868 H   0  0  0  0  0  0
  -28.7012  -11.9979   21.3642 H   0  0  0  0  0  0
  -28.4455  -13.6328   21.8791 H   0  0  0  0  0  0
  -25.2741   -9.5697   22.4754 H   0  0  0  0  0  0
  -23.9976   -7.4642   22.7503 H   0  0  0  0  0  0
  -21.0816   -8.8768   19.8951 H   0  0  0  0  0  0
  -22.3672  -10.9680   19.6146 H   0  0  0  0  0  0
  -21.2010   -7.6126   23.9681 H   0  0  0  0  0  0
  -21.1492   -6.0520   25.9051 H   0  0  0  0  0  0
  -22.0600   -2.7595   23.2823 H   0  0  0  0  0  0
  -22.4090  -11.9949   22.4810 H   0  0  0  0  0  0
  -21.1112  -13.1296   22.2484 H   0  0  0  0  0  0
  -24.6576  -15.8372   20.5225 H   0  0  0  0  0  0
  -26.2858  -15.6429   20.1264 H   0  0  0  0  0  0
  -26.7136  -32.5436   23.1105 H   0  0  0  0  0  0
  -24.9948  -33.9741   25.0315 H   0  0  0  0  0  0
  -22.7107  -31.2959   21.3961 H   0  0  0  0  0  0
  -23.3758  -35.9659   23.3313 H   0  0  0  0  0  0
  -24.3601  -36.8953   22.2088 H   0  0  0  0  0  0
  -23.7202  -37.6493   23.6676 H   0  0  0  0  0  0
  -26.0655  -31.5703   20.5895 H   0  0  0  0  0  0
  -26.8318  -30.8623   21.9804 H   0  0  0  0  0  0
  -28.1281  -29.0638   21.1213 H   0  0  0  0  0  0
  -26.0468  -25.9076   19.0487 H   0  0  0  0  0  0
  -23.9760  -27.2535   19.0678 H   0  0  0  0  0  0
  -23.7093  -30.5588   19.3971 H   0  0  0  0  0  0
  -22.7458  -29.2050   19.8836 H   0  0  0  0  0  0
  -25.1299  -36.1990   25.0814 H   0  0  0  0  0  0
  -20.9899  -28.3182   24.1451 H   0  0  0  0  0  0
  -20.5658  -26.2266   23.3655 H   0  0  0  0  0  0
  -21.6609  -26.7446   22.1228 H   0  0  0  0  0  0
  -19.6954  -25.6270   21.1238 H   0  0  0  0  0  0
  -19.6656  -27.3182   20.6784 H   0  0  0  0  0  0
  -17.4196  -26.6660   21.3985 H   0  0  0  0  0  0
  -18.0269  -26.0064   22.9003 H   0  0  0  0  0  0
  -19.7970  -30.7229   24.2222 H   0  0  0  0  0  0
  -17.5049  -31.6248   24.5186 H   0  0  0  0  0  0
  -15.5362  -30.2988   23.7659 H   0  0  0  0  0  0
  -15.8651  -28.0805   22.7085 H   0  0  0  0  0  0
  -24.5796  -30.7125   25.7810 H   0  0  0  0  0  0
  -24.8832  -32.2955   26.4893 H   0  0  0  0  0  0
  -25.7937  -30.8959   27.0276 H   0  0  0  0  0  0
  -26.2809  -29.6886   24.1118 H   0  0  0  0  0  0
  -27.3949  -29.7262   25.4620 H   0  0  0  0  0  0
  -27.8657  -30.4421   23.9336 H   0  0  0  0  0  0
  -27.2545  -33.3696   26.1994 H   0  0  0  0  0  0
  -28.3743  -32.6951   25.0293 H   0  0  0  0  0  0
  -28.0646  -31.8588   26.5461 H   0  0  0  0  0  0
  -28.2587  -38.0132   24.7556 H   0  0  0  0  0  0
  -28.1063  -36.2672   24.6188 H   0  0  0  0  0  0
  -27.2309  -37.1336   25.8859 H   0  0  0  0  0  0
  -20.9337  -29.8792   21.6989 H   0  0  0  0  0  0
  -26.0184  -38.2880   24.1450 H   0  0  0  0  0  0
  -27.8405  -15.8348   22.4797 H   0  0  0  0  0  0
  -31.0678  -18.0317   20.6388 H   0  0  0  0  0  0
  -27.9925  -23.9795   19.1665 H   0  0  0  0  0  0
  -29.5575  -22.8743   21.5592 H   0  0  0  0  0  0
  -25.7118  -16.8824   22.8578 H   0  0  0  0  0  0
  -25.4140  -18.5453   22.3318 H   0  0  0  0  0  0
  -26.2566  -18.2319   23.8531 H   0  0  0  0  0  0
  -27.3246  -21.9617   23.0930 H   0  0  0  0  0  0
  -28.7992  -21.0008   23.1455 H   0  0  0  0  0  0
  -27.3463  -20.4242   23.9595 H   0  0  0  0  0  0
  -29.3650  -25.4358   21.4633 H   0  0  0  0  0  0
  -27.6296  -25.3541   21.5543 H   0  0  0  0  0  0
  -29.4053  -21.5611   18.9233 H   0  0  0  0  0  0
  -27.9867  -21.1400   19.7923 H   0  0  0  0  0  0
  -30.4518  -15.9865   23.5846 H   0  0  0  0  0  0
  1 25  1  0  0  0
  1 30  2  0  0  0
  1 79  1  0  0  0
  2  3  1  0  0  0
  2 25  1  0  0  0
  2 87  1  0  0  0
  2 88  1  0  0  0
  3  4  1  0  0  0
  3 89  1  0  0  0
  3 90  1  0  0  0
  4  5  1  0  0  0
  4 91  1  0  0  0
  4 92  1  0  0  0
  5  6  1  0  0  0
  5 26  1  0  0  0
  5 93  1  0  0  0
  6 25  1  0  0  0
  6 94  1  0  0  0
  6 95  1  0  0  0
  7  8  2  0  0  0
  7 26  1  0  0  0
  7 29  1  0  0  0
  8  9  1  0  0  0
  8 22  1  0  0  0
  9 10  1  0  0  0
  9 27  2  0  0  0
 10 11  2  0  0  0
 10 15  1  0  0  0
 11 12  1  0  0  0
 11 96  1  0  0  0
 12 13  2  0  0  0
 12 97  1  0  0  0
 13 14  1  0  0  0
 13 31  1  0  0  0
 14 15  2  0  0  0
 14 98  1  0  0  0
 15 99  1  0  0  0
 16 17  2  0  0  0
 16 21  1  0  0  0
 16 31  1  0  0  0
 17 18  1  0  0  0
 17100  1  0  0  0
 18 19  2  0  0  0
 18101  1  0  0  0
 19 20  1  0  0  0
 19 24  1  0  0  0
 20 21  2  0  0  0
 20102  1  0  0  0
 21 23  1  0  0  0
 22 28  1  0  0  0
 22 32  2  0  0  0
 26 27  1  0  0  0
 28103  1  0  0  0
 28104  1  0  0  0
 29105  1  0  0  0
 29106  1  0  0  0
 33 34  1  0  0  0
 33 66  1  0  0  0
 33 70  2  0  0  0
 34 36  1  0  0  0
 34 59  1  0  0  0
 34107  1  0  0  0
 35 44  2  0  0  0
 35 45  1  0  0  0
 35 68  1  0  0  0
 36 56  1  0  0  0
 36108  1  0  0  0
 37 39  1  0  0  0
 37 47  1  0  0  0
 37 66  1  0  0  0
 37109  1  0  0  0
 38 43  2  0  0  0
 38 46  1  0  0  0
 38 47  1  0  0  0
 39 64  1  0  0  0
 39 67  2  0  0  0
 40 52  1  0  0  0
 40 53  2  0  0  0
 40 58  1  0  0  0
 41110  1  0  0  0
 41111  1  0  0  0
 41112  1  0  0  0
 41 48  1  0  0  0
 42 43  1  0  0  0
 42 66  1  0  0  0
 42113  1  0  0  0
 42114  1  0  0  0
 43 44  1  0  0  0
 44115  1  0  0  0
 45 46  2  0  0  0
 45116  1  0  0  0
 46117  1  0  0  0
 47118  1  0  0  0
 47119  1  0  0  0
 48 56  1  0  0  0
 48 65  1  0  0  0
 48120  1  0  0  0
 49 50  1  0  0  0
 49 53  1  0  0  0
 49 64  1  0  0  0
 49121  1  0  0  0
 50 51  1  0  0  0
 50122  1  0  0  0
 50123  1  0  0  0
 51 52  1  0  0  0
 51124  1  0  0  0
 51125  1  0  0  0
 52126  1  0  0  0
 52127  1  0  0  0
 53 54  1  0  0  0
 54 55  2  0  0  0
 54128  1  0  0  0
 55 57  1  0  0  0
 55129  1  0  0  0
 56 69  2  0  0  0
 57 58  2  0  0  0
 57130  1  0  0  0
 58131  1  0  0  0
 59 60  1  0  0  0
 59 61  1  0  0  0
 59 62  1  0  0  0
 60132  1  0  0  0
 60133  1  0  0  0
 60134  1  0  0  0
 61135  1  0  0  0
 61136  1  0  0  0
 61137  1  0  0  0
 62138  1  0  0  0
 62139  1  0  0  0
 62140  1  0  0  0
 63 65  1  0  0  0
 63141  1  0  0  0
 63142  1  0  0  0
 63143  1  0  0  0
 64144  1  0  0  0
 65145  1  0  0  0
 68 82  1  0  0  0
 71 73  2  0  0  0
 71 74  1  0  0  0
 71146  1  0  0  0
 72 73  1  0  0  0
 72 75  2  0  0  0
 72147  1  0  0  0
 73 79  1  0  0  0
 74 76  2  0  0  0
 74 80  1  0  0  0
 75 76  1  0  0  0
 75 86  1  0  0  0
 76 85  1  0  0  0
 77 78  2  0  0  0
 77 82  1  0  0  0
 77148  1  0  0  0
 78 83  1  0  0  0
 78149  1  0  0  0
 79 84  2  0  0  0
 80150  1  0  0  0
 80151  1  0  0  0
 80152  1  0  0  0
 81 85  1  0  0  0
 81153  1  0  0  0
 81154  1  0  0  0
 81155  1  0  0  0
 82156  1  0  0  0
 82157  1  0  0  0
 83 86  1  0  0  0
 83158  1  0  0  0
 83159  1  0  0  0
 84160  1  0  0  0
M  ISO  4   1 100  68 101  79 100  82 101
M  END
> <chiral flag>
0

> <version>
0

> <s_m_source_file>
/data/baiqing/PycharmProjects/Reinvent-master-3.2/result/LINK_invent/BTK/process_docking_weight1_custom_product_contain_oxygen_bond_distance_aromatic_linkinvent_7_9_3/rearranged_h_0115.sdf

> <i_m_source_file_index>
11

> <r_mmod_Potential_Energy-OPLS-2005>
224.489852905273

> <r_mmod_Stretch_Energy-OPLS-2005>
68.0927276611328

> <r_mmod_Bend_Energy-OPLS-2005>
134.568786621094

> <r_mmod_Torsional_Energy-OPLS-2005>
309.122680664062

> <r_mmod_Improper_Torsional_Energy-OPLS-2005>
5.89251947402954

> <r_mmod_Van_der_Waal_Energy-OPLS-2005>
131.025207519531

> <r_mmod_Electrostatic_Energy-OPLS-2005>
-248.910537719727

> <r_mmod_Solvation_Energy-OPLS-2005>
-198.030502319336

> <b_mmod_Minimization_Converged-OPLS-2005>
0

> <r_mmod_RMS_Derivative-OPLS-2005>
5.19248151779175

$$$$
11
                    3D
 Structure written by MMmdl.
170179  0  0  1  0            999 V2000
  -30.5903  -14.8287   20.4436 C   0  0  0  0  0  0
  -30.4288  -12.5328   19.4290 C   0  0  0  0  0  0
  -29.4772  -12.5143   18.2074 C   0  0  0  0  0  0
  -28.0106  -12.3236   18.6341 C   0  0  0  0  0  0
  -27.6268  -13.2227   19.8356 C   0  0  2  0  0  0
  -28.6829  -13.1219   20.9456 C   0  0  0  0  0  0
  -25.2468  -13.8175   20.5740 C   0  0  0  0  0  0
  -24.1775  -13.0423   20.9210 C   0  0  0  0  0  0
  -24.6374  -11.6895   20.8745 C   0  0  0  0  0  0
  -23.9077  -10.4279   21.0403 C   0  0  0  0  0  0
  -24.3650   -9.4195   21.9159 C   0  0  0  0  0  0
  -23.6326   -8.2243   22.0762 C   0  0  0  0  0  0
  -22.4292   -8.0297   21.3579 C   0  0  0  0  0  0
  -21.9937   -9.0243   20.4651 C   0  0  0  0  0  0
  -22.7266  -10.2116   20.3043 C   0  0  0  0  0  0
  -21.6870   -6.0775   22.5287 C   0  0  0  0  0  0
  -21.4000   -6.5660   23.8221 C   0  0  0  0  0  0
  -21.3656   -5.6819   24.9184 C   0  0  0  0  0  0
  -21.6061   -4.3082   24.7228 C   0  0  0  0  0  0
  -21.8820   -3.8184   23.4345 C   0  0  0  0  0  0
  -21.9179   -4.6999   22.3399 C   0  0  0  0  0  0
  -22.7782  -13.5170   21.1867 C   0  0  0  0  0  0
  -22.1661   -4.2201   21.0976 F   0  0  0  0  0  0
  -21.5624   -3.4546   25.7726 F   0  0  0  0  0  0
  -29.9527  -13.5920   20.3555 N   0  0  0  0  0  0
  -26.2863  -12.9370   20.3255 N   0  0  0  0  0  0
  -25.9292  -11.6515   20.5784 N   0  0  0  0  0  0
  -22.0498  -12.8126   22.0416 N   0  0  0  0  0  0
  -25.4179  -15.1913   20.4191 N   0  0  0  0  0  0
  -31.8059  -14.8482   20.2365 O   0  0  0  0  0  0
  -21.6652   -6.8911   21.4257 O   0  0  0  0  0  0
  -22.3433  -14.5487   20.6737 O   0  0  0  0  0  0
  -24.6339  -31.8554   23.1952 C   0  0  0  0  0  0
  -25.9159  -32.4752   23.8307 C   0  0  1  0  0  0
  -27.2303  -27.2462   20.0952 C   0  0  0  0  0  0
  -25.5968  -33.8548   24.2249 N   0  0  0  0  0  0
  -23.4327  -30.4759   21.5411 C   0  0  2  0  0  0
  -24.8808  -28.9222   20.1075 C   0  0  0  0  0  0
  -22.7540  -29.4589   22.4909 C   0  0  0  0  0  0
  -18.0311  -28.1346   22.8486 C   0  0  0  0  0  0
  -24.1491  -36.7258   23.2623 C   0  0  0  0  0  0
  -25.9845  -30.7554   21.3862 C   0  0  0  0  0  0
  -26.0554  -29.3805   20.7158 C   0  0  0  0  0  0
  -27.2288  -28.5546   20.7038 C   0  0  0  0  0  0
  -26.0232  -26.8628   19.4647 C   0  0  0  0  0  0
  -24.8710  -27.6709   19.4742 C   0  0  0  0  0  0
  -23.6549  -29.8124   20.1583 C   0  0  0  0  0  0
  -25.4115  -36.3063   24.0324 C   0  0  1  0  0  0
  -20.5918  -28.3677   23.1255 C   0  0  2  0  0  0
  -20.6787  -26.9391   22.5401 C   0  0  0  0  0  0
  -19.5762  -26.6364   21.5203 C   0  0  0  0  0  0
  -18.1943  -26.7892   22.1613 C   0  0  0  0  0  0
  -19.1560  -28.8830   23.2850 C   0  0  0  0  0  0
  -18.9480  -30.1439   23.8856 C   0  0  0  0  0  0
  -17.6471  -30.6564   24.0552 C   0  0  0  0  0  0
  -25.9084  -34.9434   23.5100 C   0  0  0  0  0  0
  -16.5368  -29.9065   23.6318 C   0  0  0  0  0  0
  -16.7287  -28.6476   23.0349 C   0  0  0  0  0  0
  -26.4475  -31.6580   25.0720 C   0  0  0  0  0  0
  -25.3670  -31.3751   26.1433 C   0  0  0  0  0  0
  -27.0344  -30.2985   24.6273 C   0  0  0  0  0  0
  -27.6029  -32.4310   25.7520 C   0  0  0  0  0  0
  -27.5608  -37.1762   24.8414 C   0  0  0  0  0  0
  -21.4247  -29.3029   22.3655 N   0  0  0  0  0  0
  -26.4257  -37.3811   23.9455 N   0  0  0  0  0  0
  -24.7023  -31.0480   22.0961 N   0  0  0  0  0  0
  -23.4222  -28.8132   23.3014 O   0  0  0  0  0  0
  -28.3127  -26.3257   20.1614 O   0  0  0  0  0  0
  -26.5671  -34.8923   22.4682 O   0  0  0  0  0  0
  -23.5480  -32.1400   23.7229 O   0  0  0  0  0  0
  -30.5541  -19.9158   18.4279 C   0  0  0  0  0  0
  -29.5245  -18.6852   20.2207 C   0  0  0  0  0  0
  -30.7887  -17.4568   18.5407 C   0  0  0  0  0  0
  -31.1443  -18.7133   17.9734 C   0  0  0  0  0  0
  -29.7083  -19.9704   19.5462 C   0  0  0  0  0  0
  -30.0603  -17.3748   19.7760 C   0  0  0  0  0  0
  -28.5952  -23.7582   19.9734 C   0  0  0  0  0  0
  -35.4733  -20.2502   16.9943 C   0  0  0  0  0  0
  -28.2704  -25.0425   19.5210 C   0  0  0  0  0  0
  -34.4341  -19.5262   16.5410 C   0  0  0  0  0  0
  -33.2122  -19.3939   17.3480 C   0  0  0  0  0  0
  -29.0722  -23.3368   21.3538 C   0  0  0  0  0  0
  -29.3192  -21.7795   21.3364 C   0  0  0  0  0  0
  -28.5141  -22.3875   19.2028 C   0  0  1  0  0  0
  -31.1906  -16.2256   17.7366 C   0  0  0  0  0  0
  -28.7480  -22.4667   17.6851 C   0  0  0  0  0  0
  -28.9365  -16.1286   21.6620 C   0  0  0  0  0  0
  -32.1510  -18.7808   16.9925 N   0  0  0  0  0  0
  -29.2357  -21.3005   19.9584 N   0  0  0  0  0  0
  -29.8515  -16.0471   20.5164 N   0  0  0  0  0  0
  -31.4495  -12.7038   19.0855 H   0  0  0  0  0  0
  -30.4447  -11.5642   19.9307 H   0  0  0  0  0  0
  -29.7661  -11.7318   17.5054 H   0  0  0  0  0  0
  -29.5590  -13.4479   17.6561 H   0  0  0  0  0  0
  -27.8787  -11.2747   18.8992 H   0  0  0  0  0  0
  -27.3410  -12.5128   17.7950 H   0  0  0  0  0  0
  -27.6195  -14.2505   19.4717 H   0  0  0  0  0  0
  -28.7810  -12.0887   21.2754 H   0  0  0  0  0  0
  -28.3405  -13.6395   21.8358 H   0  0  0  0  0  0
  -25.2806   -9.5681   22.4708 H   0  0  0  0  0  0
  -24.0060   -7.4630   22.7455 H   0  0  0  0  0  0
  -21.0917   -8.8757   19.8898 H   0  0  0  0  0  0
  -22.3760  -10.9661   19.6144 H   0  0  0  0  0  0
  -21.2002   -7.6172   23.9743 H   0  0  0  0  0  0
  -21.1452   -6.0543   25.9091 H   0  0  0  0  0  0
  -22.0593   -2.7646   23.2820 H   0  0  0  0  0  0
  -22.4229  -11.9774   22.4713 H   0  0  0  0  0  0
  -21.1087  -13.1029   22.2674 H   0  0  0  0  0  0
  -24.6629  -15.8534   20.5609 H   0  0  0  0  0  0
  -26.2949  -15.6311   20.1701 H   0  0  0  0  0  0
  -26.7235  -32.5367   23.1049 H   0  0  0  0  0  0
  -25.0102  -33.9688   25.0380 H   0  0  0  0  0  0
  -22.7278  -31.2975   21.3904 H   0  0  0  0  0  0
  -23.3841  -35.9496   23.3138 H   0  0  0  0  0  0
  -24.3594  -36.9052   22.2069 H   0  0  0  0  0  0
  -23.7129  -37.6356   23.6752 H   0  0  0  0  0  0
  -26.1440  -31.5234   20.6286 H   0  0  0  0  0  0
  -26.8545  -30.7876   22.0309 H   0  0  0  0  0  0
  -28.1221  -28.9094   21.1994 H   0  0  0  0  0  0
  -25.9336  -25.9055   18.9736 H   0  0  0  0  0  0
  -23.9723  -27.3136   18.9910 H   0  0  0  0  0  0
  -23.7819  -30.5895   19.4036 H   0  0  0  0  0  0
  -22.7738  -29.2492   19.8522 H   0  0  0  0  0  0
  -25.1277  -36.1894   25.0813 H   0  0  0  0  0  0
  -20.9980  -28.3250   24.1382 H   0  0  0  0  0  0
  -20.5670  -26.2293   23.3613 H   0  0  0  0  0  0
  -21.6655  -26.7379   22.1211 H   0  0  0  0  0  0
  -19.6923  -25.6284   21.1225 H   0  0  0  0  0  0
  -19.6686  -27.3175   20.6733 H   0  0  0  0  0  0
  -17.4216  -26.6657   21.4014 H   0  0  0  0  0  0
  -18.0300  -26.0018   22.8978 H   0  0  0  0  0  0
  -19.7949  -30.7276   24.2205 H   0  0  0  0  0  0
  -17.5017  -31.6229   24.5183 H   0  0  0  0  0  0
  -15.5361  -30.2952   23.7645 H   0  0  0  0  0  0
  -15.8687  -28.0795   22.7052 H   0  0  0  0  0  0
  -24.5822  -30.7134   25.7739 H   0  0  0  0  0  0
  -24.8869  -32.2929   26.4850 H   0  0  0  0  0  0
  -25.7949  -30.8905   27.0227 H   0  0  0  0  0  0
  -26.2958  -29.6736   24.1242 H   0  0  0  0  0  0
  -27.3937  -29.7257   25.4839 H   0  0  0  0  0  0
  -27.8874  -30.4242   23.9596 H   0  0  0  0  0  0
  -27.2639  -33.3621   26.2096 H   0  0  0  0  0  0
  -28.3864  -32.6883   25.0367 H   0  0  0  0  0  0
  -28.0679  -31.8423   26.5455 H   0  0  0  0  0  0
  -28.2465  -38.0220   24.7755 H   0  0  0  0  0  0
  -28.1288  -36.2797   24.5886 H   0  0  0  0  0  0
  -27.2371  -37.0952   25.8805 H   0  0  0  0  0  0
  -20.9437  -29.8783   21.6890 H   0  0  0  0  0  0
  -26.0128  -38.2850   24.1625 H   0  0  0  0  0  0
  -30.8199  -20.8357   17.9315 H   0  0  0  0  0  0
  -28.9227  -18.7442   21.1088 H   0  0  0  0  0  0
  -36.3849  -20.3463   16.4243 H   0  0  0  0  0  0
  -35.4372  -20.7651   17.9461 H   0  0  0  0  0  0
  -27.9613  -25.1701   18.4924 H   0  0  0  0  0  0
  -34.4599  -19.0174   15.5866 H   0  0  0  0  0  0
  -33.2846  -19.8760   18.3285 H   0  0  0  0  0  0
  -28.3146  -23.5991   22.0938 H   0  0  0  0  0  0
  -29.9815  -23.8853   21.6022 H   0  0  0  0  0  0
  -28.5474  -21.2621   21.9072 H   0  0  0  0  0  0
  -30.2828  -21.5263   21.7805 H   0  0  0  0  0  0
  -27.4684  -22.0985   19.3058 H   0  0  0  0  0  0
  -31.1893  -16.4372   16.6671 H   0  0  0  0  0  0
  -30.4763  -15.4190   17.8635 H   0  0  0  0  0  0
  -32.1893  -15.8869   18.0091 H   0  0  0  0  0  0
  -29.7695  -22.7503   17.4282 H   0  0  0  0  0  0
  -28.0815  -23.2020   17.2281 H   0  0  0  0  0  0
  -28.5155  -21.5120   17.2128 H   0  0  0  0  0  0
  -29.1803  -15.4111   22.4453 H   0  0  0  0  0  0
  -27.9083  -15.9717   21.3319 H   0  0  0  0  0  0
  -28.9874  -17.0632   22.2083 H   0  0  0  0  0  0
  1 25  1  0  0  0
  1 30  2  0  0  0
  1 90  1  0  0  0
  2  3  1  0  0  0
  2 25  1  0  0  0
  2 91  1  0  0  0
  2 92  1  0  0  0
  3  4  1  0  0  0
  3 93  1  0  0  0
  3 94  1  0  0  0
  4  5  1  0  0  0
  4 95  1  0  0  0
  4 96  1  0  0  0
  5  6  1  0  0  0
  5 26  1  0  0  0
  5 97  1  0  0  0
  6 25  1  0  0  0
  6 98  1  0  0  0
  6 99  1  0  0  0
  7  8  2  0  0  0
  7 26  1  0  0  0
  7 29  1  0  0  0
  8  9  1  0  0  0
  8 22  1  0  0  0
  9 10  1  0  0  0
  9 27  2  0  0  0
 10 11  2  0  0  0
 10 15  1  0  0  0
 11 12  1  0  0  0
 11100  1  0  0  0
 12 13  2  0  0  0
 12101  1  0  0  0
 13 14  1  0  0  0
 13 31  1  0  0  0
 14 15  2  0  0  0
 14102  1  0  0  0
 15103  1  0  0  0
 16 17  2  0  0  0
 16 21  1  0  0  0
 16 31  1  0  0  0
 17 18  1  0  0  0
 17104  1  0  0  0
 18 19  2  0  0  0
 18105  1  0  0  0
 19 20  1  0  0  0
 19 24  1  0  0  0
 20 21  2  0  0  0
 20106  1  0  0  0
 21 23  1  0  0  0
 22 28  1  0  0  0
 22 32  2  0  0  0
 26 27  1  0  0  0
 28107  1  0  0  0
 28108  1  0  0  0
 29109  1  0  0  0
 29110  1  0  0  0
 33 34  1  0  0  0
 33 66  1  0  0  0
 33 70  2  0  0  0
 34 36  1  0  0  0
 34 59  1  0  0  0
 34111  1  0  0  0
 35 44  2  0  0  0
 35 45  1  0  0  0
 35 68  1  0  0  0
 36 56  1  0  0  0
 36112  1  0  0  0
 37 39  1  0  0  0
 37 47  1  0  0  0
 37 66  1  0  0  0
 37113  1  0  0  0
 38 43  2  0  0  0
 38 46  1  0  0  0
 38 47  1  0  0  0
 39 64  1  0  0  0
 39 67  2  0  0  0
 40 52  1  0  0  0
 40 53  2  0  0  0
 40 58  1  0  0  0
 41114  1  0  0  0
 41115  1  0  0  0
 41116  1  0  0  0
 41 48  1  0  0  0
 42 43  1  0  0  0
 42 66  1  0  0  0
 42117  1  0  0  0
 42118  1  0  0  0
 43 44  1  0  0  0
 44119  1  0  0  0
 45 46  2  0  0  0
 45120  1  0  0  0
 46121  1  0  0  0
 47122  1  0  0  0
 47123  1  0  0  0
 48 56  1  0  0  0
 48 65  1  0  0  0
 48124  1  0  0  0
 49 50  1  0  0  0
 49 53  1  0  0  0
 49 64  1  0  0  0
 49125  1  0  0  0
 50 51  1  0  0  0
 50126  1  0  0  0
 50127  1  0  0  0
 51 52  1  0  0  0
 51128  1  0  0  0
 51129  1  0  0  0
 52130  1  0  0  0
 52131  1  0  0  0
 53 54  1  0  0  0
 54 55  2  0  0  0
 54132  1  0  0  0
 55 57  1  0  0  0
 55133  1  0  0  0
 56 69  2  0  0  0
 57 58  2  0  0  0
 57134  1  0  0  0
 58135  1  0  0  0
 59 60  1  0  0  0
 59 61  1  0  0  0
 59 62  1  0  0  0
 60136  1  0  0  0
 60137  1  0  0  0
 60138  1  0  0  0
 61139  1  0  0  0
 61140  1  0  0  0
 61141  1  0  0  0
 62142  1  0  0  0
 62143  1  0  0  0
 62144  1  0  0  0
 63 65  1  0  0  0
 63145  1  0  0  0
 63146  1  0  0  0
 63147  1  0  0  0
 64148  1  0  0  0
 65149  1  0  0  0
 68 79  1  0  0  0
 71 74  2  0  0  0
 71 75  1  0  0  0
 71150  1  0  0  0
 72 75  2  0  0  0
 72 76  1  0  0  0
 72151  1  0  0  0
 73 74  1  0  0  0
 73 76  2  0  0  0
 73 85  1  0  0  0
 74 88  1  0  0  0
 75 89  1  0  0  0
 76 90  1  0  0  0
 77 79  2  0  0  0
 77 82  1  0  0  0
 77 84  1  0  0  0
 78 80  2  0  0  0
 78152  1  0  0  0
 78153  1  0  0  0
 79154  1  0  0  0
 80 81  1  0  0  0
 80155  1  0  0  0
 81 88  2  0  0  0
 81156  1  0  0  0
 82 83  1  0  0  0
 82157  1  0  0  0
 82158  1  0  0  0
 83 89  1  0  0  0
 83159  1  0  0  0
 83160  1  0  0  0
 84 86  1  0  0  0
 84 89  1  0  0  0
 84161  1  0  0  0
 85162  1  0  0  0
 85163  1  0  0  0
 85164  1  0  0  0
 86165  1  0  0  0
 86166  1  0  0  0
 86167  1  0  0  0
 87 90  1  0  0  0
 87168  1  0  0  0
 87169  1  0  0  0
 87170  1  0  0  0
M  ISO  4   1 100  68 101  79 101  90 100
M  END
> <chiral flag>
0

> <version>
0

> <s_m_source_file>
/data/baiqing/PycharmProjects/Reinvent-master-3.2/result/LINK_invent/BTK/process_docking_weight1_custom_product_contain_oxygen_bond_distance_aromatic_linkinvent_7_9_3/rearranged_h_0115.sdf

> <i_m_source_file_index>
12

> <r_mmod_Potential_Energy-OPLS-2005>
551.259155273438

> <r_mmod_Stretch_Energy-OPLS-2005>
166.22492980957

> <r_mmod_Bend_Energy-OPLS-2005>
257.617401123047

> <r_mmod_Torsional_Energy-OPLS-2005>
348.548919677734

> <r_mmod_Improper_Torsional_Energy-OPLS-2005>
6.54175567626953

> <r_mmod_Van_der_Waal_Energy-OPLS-2005>
173.760528564453

> <r_mmod_Electrostatic_Energy-OPLS-2005>
-305.948883056641

> <r_mmod_Solvation_Energy-OPLS-2005>
-206.377182006836

> <b_mmod_Minimization_Converged-OPLS-2005>
0

> <r_mmod_RMS_Derivative-OPLS-2005>
5.44499826431274

$$$$
12
                    3D
 Structure written by MMmdl.
148156  0  0  1  0            999 V2000
  -30.4820  -15.0861   20.3959 C   0  0  0  0  0  0
  -30.4447  -12.6796   19.5083 C   0  0  0  0  0  0
  -29.5270  -12.5499   18.2678 C   0  0  0  0  0  0
  -28.0662  -12.3084   18.6904 C   0  0  0  0  0  0
  -27.6233  -13.2572   19.8329 C   0  0  2  0  0  0
  -28.6643  -13.3389   20.9701 C   0  0  0  0  0  0
  -25.2437  -13.8227   20.5726 C   0  0  0  0  0  0
  -24.1769  -13.0439   20.9252 C   0  0  0  0  0  0
  -24.6399  -11.6929   20.8767 C   0  0  0  0  0  0
  -23.9086  -10.4292   21.0411 C   0  0  0  0  0  0
  -24.3628   -9.4206   21.9191 C   0  0  0  0  0  0
  -23.6298   -8.2244   22.0761 C   0  0  0  0  0  0
  -22.4283   -8.0282   21.3545 C   0  0  0  0  0  0
  -21.9922   -9.0260   20.4650 C   0  0  0  0  0  0
  -22.7258  -10.2135   20.3060 C   0  0  0  0  0  0
  -21.6856   -6.0736   22.5278 C   0  0  0  0  0  0
  -21.4017   -6.5642   23.8211 C   0  0  0  0  0  0
  -21.3657   -5.6795   24.9172 C   0  0  0  0  0  0
  -21.6041   -4.3058   24.7226 C   0  0  0  0  0  0
  -21.8818   -3.8149   23.4347 C   0  0  0  0  0  0
  -21.9193   -4.6962   22.3402 C   0  0  0  0  0  0
  -22.7784  -13.5204   21.1892 C   0  0  0  0  0  0
  -22.1661   -4.2147   21.0982 F   0  0  0  0  0  0
  -21.5623   -3.4544   25.7741 F   0  0  0  0  0  0
  -29.9234  -13.7944   20.3631 N   0  0  0  0  0  0
  -26.2860  -12.9471   20.3234 N   0  0  0  0  0  0
  -25.9332  -11.6592   20.5742 N   0  0  0  0  0  0
  -22.0426  -12.8193   22.0437 N   0  0  0  0  0  0
  -25.4087  -15.1957   20.4123 N   0  0  0  0  0  0
  -31.6943  -15.1372   20.1441 O   0  0  0  0  0  0
  -21.6644   -6.8880   21.4241 O   0  0  0  0  0  0
  -22.3474  -14.5511   20.6735 O   0  0  0  0  0  0
  -24.6522  -31.8346   23.1786 C   0  0  0  0  0  0
  -25.9256  -32.4638   23.8201 C   0  0  1  0  0  0
  -27.2175  -27.0418   20.1687 C   0  0  0  0  0  0
  -25.5969  -33.8447   24.2120 N   0  0  0  0  0  0
  -23.4606  -30.4497   21.5265 C   0  0  2  0  0  0
  -24.9124  -28.8594   20.1111 C   0  0  0  0  0  0
  -22.7613  -29.4494   22.4826 C   0  0  0  0  0  0
  -18.0315  -28.1405   22.8477 C   0  0  0  0  0  0
  -24.1501  -36.7231   23.2644 C   0  0  0  0  0  0
  -26.0231  -30.6790   21.3909 C   0  0  0  0  0  0
  -26.0934  -29.2807   20.7345 C   0  0  0  0  0  0
  -27.2455  -28.3914   20.7397 C   0  0  0  0  0  0
  -26.0071  -26.7445   19.5041 C   0  0  0  0  0  0
  -24.8877  -27.6084   19.4774 C   0  0  0  0  0  0
  -23.6929  -29.7724   20.1492 C   0  0  0  0  0  0
  -25.4136  -36.2995   24.0305 C   0  0  1  0  0  0
  -20.5933  -28.3736   23.1226 C   0  0  2  0  0  0
  -20.6808  -26.9433   22.5409 C   0  0  0  0  0  0
  -19.5779  -26.6388   21.5222 C   0  0  0  0  0  0
  -18.1955  -26.7944   22.1621 C   0  0  0  0  0  0
  -19.1573  -28.8889   23.2840 C   0  0  0  0  0  0
  -18.9486  -30.1483   23.8870 C   0  0  0  0  0  0
  -17.6481  -30.6599   24.0560 C   0  0  0  0  0  0
  -25.9095  -34.9377   23.5029 C   0  0  0  0  0  0
  -16.5374  -29.9088   23.6341 C   0  0  0  0  0  0
  -16.7298  -28.6508   23.0360 C   0  0  0  0  0  0
  -26.4551  -31.6532   25.0673 C   0  0  0  0  0  0
  -25.3708  -31.3737   26.1346 C   0  0  0  0  0  0
  -27.0431  -30.2915   24.6312 C   0  0  0  0  0  0
  -27.6059  -32.4324   25.7469 C   0  0  0  0  0  0
  -27.5579  -37.1774   24.8465 C   0  0  0  0  0  0
  -21.4296  -29.3041   22.3582 N   0  0  0  0  0  0
  -26.4290  -37.3720   23.9408 N   0  0  0  0  0  0
  -24.7323  -31.0116   22.0864 N   0  0  0  0  0  0
  -23.4215  -28.8058   23.3021 O   0  0  0  0  0  0
  -28.2480  -26.0014   20.2380 O   0  0  0  0  0  0
  -26.5691  -34.8898   22.4615 O   0  0  0  0  0  0
  -23.5620  -32.1270   23.6950 O   0  0  0  0  0  0
  -28.6651  -18.8563   20.4967 C   0  0  0  0  0  0
  -29.7543  -17.8344   20.4192 C   0  0  0  0  0  0
  -29.1409  -20.1992   20.3539 C   0  0  0  0  0  0
  -31.5690  -20.9080   19.9898 C   0  0  0  0  0  0
  -27.9531  -24.4278   20.1621 C   0  0  0  0  0  0
  -28.9467  -22.9982   20.3086 C   0  0  0  0  0  0
  -30.8579  -18.5814   20.2404 N   0  0  0  0  0  0
  -30.5099  -19.9425   20.2012 N   0  0  0  0  0  0
  -29.6517  -16.2685   20.5199 N   0  0  0  0  0  0
  -28.4407  -21.4948   20.3195 O   0  0  0  0  0  0
  -31.4706  -12.8637   19.1857 H   0  0  0  0  0  0
  -30.4739  -11.7441   20.0689 H   0  0  0  0  0  0
  -29.8697  -11.7389   17.6238 H   0  0  0  0  0  0
  -29.5887  -13.4617   17.6715 H   0  0  0  0  0  0
  -27.9889  -11.2735   19.0251 H   0  0  0  0  0  0
  -27.3988  -12.4023   17.8327 H   0  0  0  0  0  0
  -27.5675  -14.2461   19.3774 H   0  0  0  0  0  0
  -28.7857  -12.3760   21.4681 H   0  0  0  0  0  0
  -28.3391  -14.0436   21.7369 H   0  0  0  0  0  0
  -25.2763   -9.5686   22.4780 H   0  0  0  0  0  0
  -23.9998   -7.4641   22.7491 H   0  0  0  0  0  0
  -21.0848   -8.8786   19.8962 H   0  0  0  0  0  0
  -22.3713  -10.9679   19.6176 H   0  0  0  0  0  0
  -21.2014   -7.6152   23.9714 H   0  0  0  0  0  0
  -21.1476   -6.0527   25.9074 H   0  0  0  0  0  0
  -22.0596   -2.7611   23.2854 H   0  0  0  0  0  0
  -22.4034  -11.9849   22.4825 H   0  0  0  0  0  0
  -21.1039  -13.1219   22.2631 H   0  0  0  0  0  0
  -24.6334  -15.8418   20.5147 H   0  0  0  0  0  0
  -26.2320  -15.6306   20.0188 H   0  0  0  0  0  0
  -26.7315  -32.5219   23.0914 H   0  0  0  0  0  0
  -25.0079  -33.9540   25.0243 H   0  0  0  0  0  0
  -22.7671  -31.2773   21.3636 H   0  0  0  0  0  0
  -23.3772  -35.9553   23.3274 H   0  0  0  0  0  0
  -24.3586  -36.8903   22.2065 H   0  0  0  0  0  0
  -23.7253  -37.6411   23.6715 H   0  0  0  0  0  0
  -26.1893  -31.4273   20.6149 H   0  0  0  0  0  0
  -26.8897  -30.7325   22.0378 H   0  0  0  0  0  0
  -28.1439  -28.7114   21.2483 H   0  0  0  0  0  0
  -25.8889  -25.7899   19.0151 H   0  0  0  0  0  0
  -23.9889  -27.2798   18.9742 H   0  0  0  0  0  0
  -23.8364  -30.5440   19.3919 H   0  0  0  0  0  0
  -22.8064  -29.2180   19.8359 H   0  0  0  0  0  0
  -25.1330  -36.1802   25.0795 H   0  0  0  0  0  0
  -21.0020  -28.3341   24.1350 H   0  0  0  0  0  0
  -20.5731  -26.2342   23.3630 H   0  0  0  0  0  0
  -21.6669  -26.7456   22.1185 H   0  0  0  0  0  0
  -19.6949  -25.6297   21.1259 H   0  0  0  0  0  0
  -19.6724  -27.3194   20.6748 H   0  0  0  0  0  0
  -17.4233  -26.6700   21.4013 H   0  0  0  0  0  0
  -18.0339  -26.0087   22.9014 H   0  0  0  0  0  0
  -19.7958  -30.7309   24.2228 H   0  0  0  0  0  0
  -17.5029  -31.6274   24.5169 H   0  0  0  0  0  0
  -15.5371  -30.2978   23.7686 H   0  0  0  0  0  0
  -15.8697  -28.0817   22.7094 H   0  0  0  0  0  0
  -24.5919  -30.7060   25.7652 H   0  0  0  0  0  0
  -24.8866  -32.2918   26.4679 H   0  0  0  0  0  0
  -25.7965  -30.8966   27.0181 H   0  0  0  0  0  0
  -26.3059  -29.6605   24.1334 H   0  0  0  0  0  0
  -27.4036  -29.7253   25.4912 H   0  0  0  0  0  0
  -27.8970  -30.4128   23.9645 H   0  0  0  0  0  0
  -27.2645  -33.3680   26.1914 H   0  0  0  0  0  0
  -28.3930  -32.6795   25.0330 H   0  0  0  0  0  0
  -28.0651  -31.8529   26.5487 H   0  0  0  0  0  0
  -28.2570  -38.0093   24.7514 H   0  0  0  0  0  0
  -28.1100  -36.2618   24.6291 H   0  0  0  0  0  0
  -27.2290  -37.1411   25.8865 H   0  0  0  0  0  0
  -20.9535  -29.8709   21.6705 H   0  0  0  0  0  0
  -26.0143  -38.2782   24.1410 H   0  0  0  0  0  0
  -27.6199  -18.6215   20.6357 H   0  0  0  0  0  0
  -31.5411  -21.6645   20.7734 H   0  0  0  0  0  0
  -31.4358  -21.3896   19.0210 H   0  0  0  0  0  0
  -32.5453  -20.4229   20.0093 H   0  0  0  0  0  0
  -27.1641  -24.2864   20.9013 H   0  0  0  0  0  0
  -27.4550  -24.2906   19.2032 H   0  0  0  0  0  0
  -29.5169  -23.1127   21.2310 H   0  0  0  0  0  0
  -29.6870  -23.0587   19.5116 H   0  0  0  0  0  0
  -28.7028  -15.9797   20.6943 H   0  0  0  0  0  0
  1 25  1  0  0  0
  1 30  2  0  0  0
  1 79  1  0  0  0
  2  3  1  0  0  0
  2 25  1  0  0  0
  2 81  1  0  0  0
  2 82  1  0  0  0
  3  4  1  0  0  0
  3 83  1  0  0  0
  3 84  1  0  0  0
  4  5  1  0  0  0
  4 85  1  0  0  0
  4 86  1  0  0  0
  5  6  1  0  0  0
  5 26  1  0  0  0
  5 87  1  0  0  0
  6 25  1  0  0  0
  6 88  1  0  0  0
  6 89  1  0  0  0
  7  8  2  0  0  0
  7 26  1  0  0  0
  7 29  1  0  0  0
  8  9  1  0  0  0
  8 22  1  0  0  0
  9 10  1  0  0  0
  9 27  2  0  0  0
 10 11  2  0  0  0
 10 15  1  0  0  0
 11 12  1  0  0  0
 11 90  1  0  0  0
 12 13  2  0  0  0
 12 91  1  0  0  0
 13 14  1  0  0  0
 13 31  1  0  0  0
 14 15  2  0  0  0
 14 92  1  0  0  0
 15 93  1  0  0  0
 16 17  2  0  0  0
 16 21  1  0  0  0
 16 31  1  0  0  0
 17 18  1  0  0  0
 17 94  1  0  0  0
 18 19  2  0  0  0
 18 95  1  0  0  0
 19 20  1  0  0  0
 19 24  1  0  0  0
 20 21  2  0  0  0
 20 96  1  0  0  0
 21 23  1  0  0  0
 22 28  1  0  0  0
 22 32  2  0  0  0
 26 27  1  0  0  0
 28 97  1  0  0  0
 28 98  1  0  0  0
 29 99  1  0  0  0
 29100  1  0  0  0
 33 34  1  0  0  0
 33 66  1  0  0  0
 33 70  2  0  0  0
 34 36  1  0  0  0
 34 59  1  0  0  0
 34101  1  0  0  0
 35 44  2  0  0  0
 35 45  1  0  0  0
 35 68  1  0  0  0
 36 56  1  0  0  0
 36102  1  0  0  0
 37 39  1  0  0  0
 37 47  1  0  0  0
 37 66  1  0  0  0
 37103  1  0  0  0
 38 43  2  0  0  0
 38 46  1  0  0  0
 38 47  1  0  0  0
 39 64  1  0  0  0
 39 67  2  0  0  0
 40 52  1  0  0  0
 40 53  2  0  0  0
 40 58  1  0  0  0
 41104  1  0  0  0
 41105  1  0  0  0
 41106  1  0  0  0
 41 48  1  0  0  0
 42 43  1  0  0  0
 42 66  1  0  0  0
 42107  1  0  0  0
 42108  1  0  0  0
 43 44  1  0  0  0
 44109  1  0  0  0
 45 46  2  0  0  0
 45110  1  0  0  0
 46111  1  0  0  0
 47112  1  0  0  0
 47113  1  0  0  0
 48 56  1  0  0  0
 48 65  1  0  0  0
 48114  1  0  0  0
 49 50  1  0  0  0
 49 53  1  0  0  0
 49 64  1  0  0  0
 49115  1  0  0  0
 50 51  1  0  0  0
 50116  1  0  0  0
 50117  1  0  0  0
 51 52  1  0  0  0
 51118  1  0  0  0
 51119  1  0  0  0
 52120  1  0  0  0
 52121  1  0  0  0
 53 54  1  0  0  0
 54 55  2  0  0  0
 54122  1  0  0  0
 55 57  1  0  0  0
 55123  1  0  0  0
 56 69  2  0  0  0
 57 58  2  0  0  0
 57124  1  0  0  0
 58125  1  0  0  0
 59 60  1  0  0  0
 59 61  1  0  0  0
 59 62  1  0  0  0
 60126  1  0  0  0
 60127  1  0  0  0
 60128  1  0  0  0
 61129  1  0  0  0
 61130  1  0  0  0
 61131  1  0  0  0
 62132  1  0  0  0
 62133  1  0  0  0
 62134  1  0  0  0
 63 65  1  0  0  0
 63135  1  0  0  0
 63136  1  0  0  0
 63137  1  0  0  0
 64138  1  0  0  0
 65139  1  0  0  0
 68 75  1  0  0  0
 71 72  1  0  0  0
 71 73  2  0  0  0
 71140  1  0  0  0
 72 77  2  0  0  0
 72 79  1  0  0  0
 73 78  1  0  0  0
 73 80  1  0  0  0
 74 78  1  0  0  0
 74141  1  0  0  0
 74142  1  0  0  0
 74143  1  0  0  0
 75 76  1  0  0  0
 75144  1  0  0  0
 75145  1  0  0  0
 76 80  1  0  0  0
 76146  1  0  0  0
 76147  1  0  0  0
 77 78  1  0  0  0
 79148  1  0  0  0
M  ISO  4   1 100  68 101  75 101  79 100
M  END
> <chiral flag>
0

> <version>
0

> <s_m_source_file>
/data/baiqing/PycharmProjects/Reinvent-master-3.2/result/LINK_invent/BTK/process_docking_weight1_custom_product_contain_oxygen_bond_distance_aromatic_linkinvent_7_9_3/rearranged_h_0115.sdf

> <i_m_source_file_index>
13

> <r_mmod_Potential_Energy-OPLS-2005>
702.464538574219

> <r_mmod_Stretch_Energy-OPLS-2005>
356.829925537109

> <r_mmod_Bend_Energy-OPLS-2005>
347.909240722656

> <r_mmod_Torsional_Energy-OPLS-2005>
205.321166992188

> <r_mmod_Improper_Torsional_Energy-OPLS-2005>
4.24974012374878

> <r_mmod_Van_der_Waal_Energy-OPLS-2005>
108.562728881836

> <r_mmod_Electrostatic_Energy-OPLS-2005>
-377.351257324219

> <r_mmod_Solvation_Energy-OPLS-2005>
-237.462173461914

> <b_mmod_Minimization_Converged-OPLS-2005>
0

> <r_mmod_RMS_Derivative-OPLS-2005>
0.710932016372681

$$$$
13
                    3D
 Structure written by MMmdl.
164172  0  0  1  0            999 V2000
  -30.6731  -14.6770   20.4776 C   0  0  0  0  0  0
  -30.4328  -12.4135   19.4652 C   0  0  0  0  0  0
  -29.5071  -12.5022   18.2343 C   0  0  0  0  0  0
  -28.0342  -12.3318   18.6512 C   0  0  0  0  0  0
  -27.6479  -13.2303   19.8547 C   0  0  2  0  0  0
  -28.6989  -13.1504   20.9866 C   0  0  0  0  0  0
  -25.2500  -13.8150   20.5605 C   0  0  0  0  0  0
  -24.1816  -13.0410   20.9238 C   0  0  0  0  0  0
  -24.6424  -11.6903   20.8774 C   0  0  0  0  0  0
  -23.9088  -10.4288   21.0403 C   0  0  0  0  0  0
  -24.3646   -9.4209   21.9171 C   0  0  0  0  0  0
  -23.6318   -8.2252   22.0751 C   0  0  0  0  0  0
  -22.4304   -8.0290   21.3536 C   0  0  0  0  0  0
  -21.9944   -9.0247   20.4626 C   0  0  0  0  0  0
  -22.7279  -10.2122   20.3031 C   0  0  0  0  0  0
  -21.6842   -6.0752   22.5257 C   0  0  0  0  0  0
  -21.4013   -6.5653   23.8197 C   0  0  0  0  0  0
  -21.3649   -5.6801   24.9165 C   0  0  0  0  0  0
  -21.6047   -4.3061   24.7203 C   0  0  0  0  0  0
  -21.8820   -3.8162   23.4323 C   0  0  0  0  0  0
  -21.9194   -4.6979   22.3384 C   0  0  0  0  0  0
  -22.7847  -13.5191   21.1873 C   0  0  0  0  0  0
  -22.1643   -4.2175   21.0954 F   0  0  0  0  0  0
  -21.5640   -3.4542   25.7714 F   0  0  0  0  0  0
  -30.0134  -13.4740   20.4042 N   0  0  0  0  0  0
  -26.2980  -12.9398   20.3310 N   0  0  0  0  0  0
  -25.9359  -11.6536   20.5792 N   0  0  0  0  0  0
  -22.0515  -12.8163   22.0438 N   0  0  0  0  0  0
  -25.4047  -15.1832   20.3756 N   0  0  0  0  0  0
  -31.8773  -14.7220   20.2410 O   0  0  0  0  0  0
  -21.6641   -6.8908   21.4226 O   0  0  0  0  0  0
  -22.3517  -14.5469   20.6689 O   0  0  0  0  0  0
  -24.6229  -31.8566   23.1989 C   0  0  0  0  0  0
  -25.9078  -32.4760   23.8295 C   0  0  1  0  0  0
  -27.2144  -27.3360   20.1022 C   0  0  0  0  0  0
  -25.5910  -33.8563   24.2225 N   0  0  0  0  0  0
  -23.4125  -30.4833   21.5408 C   0  0  2  0  0  0
  -24.8570  -28.9464   20.1078 C   0  0  0  0  0  0
  -22.7420  -29.4566   22.4858 C   0  0  0  0  0  0
  -18.0256  -28.1409   22.8397 C   0  0  0  0  0  0
  -24.1492  -36.7316   23.2631 C   0  0  0  0  0  0
  -25.9496  -30.8040   21.3539 C   0  0  0  0  0  0
  -26.0259  -29.4289   20.7056 C   0  0  0  0  0  0
  -27.2092  -28.6354   20.6928 C   0  0  0  0  0  0
  -26.0214  -26.9056   19.4741 C   0  0  0  0  0  0
  -24.8561  -27.6898   19.4856 C   0  0  0  0  0  0
  -23.6248  -29.8226   20.1556 C   0  0  0  0  0  0
  -25.4118  -36.3061   24.0299 C   0  0  1  0  0  0
  -20.5872  -28.3606   23.1265 C   0  0  2  0  0  0
  -20.6720  -26.9319   22.5452 C   0  0  0  0  0  0
  -19.5757  -26.6388   21.5151 C   0  0  0  0  0  0
  -18.1878  -26.8014   22.1424 C   0  0  0  0  0  0
  -19.1527  -28.8815   23.2875 C   0  0  0  0  0  0
  -18.9473  -30.1393   23.8933 C   0  0  0  0  0  0
  -17.6491  -30.6527   24.0638 C   0  0  0  0  0  0
  -25.9056  -34.9443   23.5058 C   0  0  0  0  0  0
  -16.5368  -29.9102   23.6319 C   0  0  0  0  0  0
  -16.7263  -28.6548   23.0271 C   0  0  0  0  0  0
  -26.4512  -31.6524   25.0604 C   0  0  0  0  0  0
  -25.3783  -31.3631   26.1337 C   0  0  0  0  0  0
  -27.0326  -30.2966   24.5941 C   0  0  0  0  0  0
  -27.6038  -32.4263   25.7433 C   0  0  0  0  0  0
  -27.5574  -37.1802   24.8466 C   0  0  0  0  0  0
  -21.4125  -29.2941   22.3598 N   0  0  0  0  0  0
  -26.4292  -37.3774   23.9400 N   0  0  0  0  0  0
  -24.6814  -31.0647   22.0901 N   0  0  0  0  0  0
  -23.4183  -28.8088   23.2886 O   0  0  0  0  0  0
  -28.3328  -26.4943   20.1530 O   0  0  0  0  0  0
  -26.5650  -34.8930   22.4641 O   0  0  0  0  0  0
  -23.5396  -32.1338   23.7346 O   0  0  0  0  0  0
  -28.8453  -19.4018   21.3344 C   0  0  0  0  0  0
  -28.9480  -17.9800   21.3039 C   0  0  0  0  0  0
  -30.9996  -18.1470   20.0274 C   0  0  0  0  0  0
  -29.8301  -20.2443   20.7838 C   0  0  0  0  0  0
  -30.0139  -17.2806   20.6463 C   0  0  0  0  0  0
  -30.9261  -19.5824   20.1714 C   0  0  0  0  0  0
  -31.8834  -17.4341   16.6614 C   0  0  0  0  0  0
  -32.1403  -18.1870   17.7404 C   0  0  0  0  0  0
  -29.1334  -22.5339   20.3141 C   0  0  0  0  0  0
  -27.8367  -17.2280   22.0231 C   0  0  0  0  0  0
  -32.8653  -20.8113   20.6694 C   0  0  0  0  0  0
  -32.1650  -17.6602   19.1664 C   0  0  0  0  0  0
  -29.2841  -24.0925   20.4980 C   0  0  0  0  0  0
  -28.1147  -25.0380   20.0126 C   0  0  0  0  0  0
  -29.8275  -21.6670   20.9815 N   0  0  0  0  0  0
  -29.8842  -15.7968   20.6375 N   0  0  0  0  0  0
  -31.9454  -20.3644   19.6803 O   0  0  0  0  0  0
  -31.4765  -12.5182   19.1598 H   0  0  0  0  0  0
  -30.3547  -11.4349   19.9422 H   0  0  0  0  0  0
  -29.7790  -11.7393   17.5036 H   0  0  0  0  0  0
  -29.6388  -13.4676   17.7412 H   0  0  0  0  0  0
  -27.8887  -11.2848   18.9150 H   0  0  0  0  0  0
  -27.3727  -12.5247   17.8058 H   0  0  0  0  0  0
  -27.6488  -14.2518   19.4761 H   0  0  0  0  0  0
  -28.7161  -12.1535   21.4327 H   0  0  0  0  0  0
  -28.4499  -13.8379   21.7966 H   0  0  0  0  0  0
  -25.2800   -9.5662   22.4736 H   0  0  0  0  0  0
  -24.0005   -7.4671   22.7506 H   0  0  0  0  0  0
  -21.0880   -8.8783   19.8953 H   0  0  0  0  0  0
  -22.3776  -10.9655   19.6122 H   0  0  0  0  0  0
  -21.2000   -7.6158   23.9711 H   0  0  0  0  0  0
  -21.1458   -6.0525   25.9064 H   0  0  0  0  0  0
  -22.0616   -2.7629   23.2811 H   0  0  0  0  0  0
  -22.4186  -11.9846   22.4804 H   0  0  0  0  0  0
  -21.1117  -13.1144   22.2622 H   0  0  0  0  0  0
  -24.6041  -15.8065   20.4212 H   0  0  0  0  0  0
  -26.2032  -15.5975   19.9132 H   0  0  0  0  0  0
  -26.7112  -32.5473   23.1024 H   0  0  0  0  0  0
  -24.9952  -33.9729   25.0288 H   0  0  0  0  0  0
  -22.7023  -31.3019   21.4027 H   0  0  0  0  0  0
  -23.3718  -35.9695   23.3295 H   0  0  0  0  0  0
  -24.3578  -36.8964   22.2055 H   0  0  0  0  0  0
  -23.7333  -37.6538   23.6693 H   0  0  0  0  0  0
  -26.0513  -31.5528   20.5669 H   0  0  0  0  0  0
  -26.8469  -30.8833   21.9550 H   0  0  0  0  0  0
  -28.1087  -29.0020   21.1660 H   0  0  0  0  0  0
  -25.9525  -25.9510   18.9736 H   0  0  0  0  0  0
  -23.9552  -27.3173   19.0163 H   0  0  0  0  0  0
  -23.7419  -30.6017   19.3994 H   0  0  0  0  0  0
  -22.7487  -29.2464   19.8529 H   0  0  0  0  0  0
  -25.1319  -36.1873   25.0802 H   0  0  0  0  0  0
  -21.0000  -28.3236   24.1359 H   0  0  0  0  0  0
  -20.5570  -26.2201   23.3648 H   0  0  0  0  0  0
  -21.6607  -26.7331   22.1313 H   0  0  0  0  0  0
  -19.6877  -25.6293   21.1106 H   0  0  0  0  0  0
  -19.6825  -27.3231   20.6738 H   0  0  0  0  0  0
  -17.4280  -26.6986   21.3654 H   0  0  0  0  0  0
  -18.0051  -26.0047   22.8660 H   0  0  0  0  0  0
  -19.7924  -30.7211   24.2351 H   0  0  0  0  0  0
  -17.5102  -31.6179   24.5349 H   0  0  0  0  0  0
  -15.5370  -30.3060   23.7691 H   0  0  0  0  0  0
  -15.8688  -28.0904   22.6888 H   0  0  0  0  0  0
  -24.5961  -30.6987   25.7644 H   0  0  0  0  0  0
  -24.8973  -32.2785   26.4793 H   0  0  0  0  0  0
  -25.8134  -30.8773   27.0074 H   0  0  0  0  0  0
  -26.2818  -29.6700   24.1090 H   0  0  0  0  0  0
  -27.4217  -29.7232   25.4364 H   0  0  0  0  0  0
  -27.8602  -30.4275   23.8958 H   0  0  0  0  0  0
  -27.2587  -33.3547   26.2013 H   0  0  0  0  0  0
  -28.3869  -32.6846   25.0285 H   0  0  0  0  0  0
  -28.0651  -31.8363   26.5364 H   0  0  0  0  0  0
  -28.2568  -38.0109   24.7479 H   0  0  0  0  0  0
  -28.1067  -36.2633   24.6300 H   0  0  0  0  0  0
  -27.2278  -37.1468   25.8864 H   0  0  0  0  0  0
  -20.9261  -29.8581   21.6760 H   0  0  0  0  0  0
  -26.0119  -38.2821   24.1443 H   0  0  0  0  0  0
  -28.0092  -19.8582   21.8441 H   0  0  0  0  0  0
  -31.8746  -17.8722   15.6760 H   0  0  0  0  0  0
  -31.6757  -16.3777   16.7489 H   0  0  0  0  0  0
  -32.3421  -19.2400   17.5974 H   0  0  0  0  0  0
  -28.4160  -22.2343   19.5441 H   0  0  0  0  0  0
  -27.5142  -17.7875   22.9012 H   0  0  0  0  0  0
  -28.1399  -16.2449   22.3842 H   0  0  0  0  0  0
  -26.9720  -17.1239   21.3666 H   0  0  0  0  0  0
  -32.4381  -21.5774   21.3169 H   0  0  0  0  0  0
  -33.7400  -21.2411   20.1809 H   0  0  0  0  0  0
  -33.2059  -19.9846   21.2982 H   0  0  0  0  0  0
  -32.2199  -16.5922   19.0670 H   0  0  0  0  0  0
  -33.0989  -17.9665   19.6462 H   0  0  0  0  0  0
  -30.1981  -24.3941   19.9813 H   0  0  0  0  0  0
  -29.4571  -24.2917   21.5543 H   0  0  0  0  0  0
  -27.2228  -24.7605   20.5810 H   0  0  0  0  0  0
  -27.9041  -24.8143   18.9648 H   0  0  0  0  0  0
  -28.9467  -15.5053   20.8641 H   0  0  0  0  0  0
  1 25  1  0  0  0
  1 30  2  0  0  0
  1 86  1  0  0  0
  2  3  1  0  0  0
  2 25  1  0  0  0
  2 88  1  0  0  0
  2 89  1  0  0  0
  3  4  1  0  0  0
  3 90  1  0  0  0
  3 91  1  0  0  0
  4  5  1  0  0  0
  4 92  1  0  0  0
  4 93  1  0  0  0
  5  6  1  0  0  0
  5 26  1  0  0  0
  5 94  1  0  0  0
  6 25  1  0  0  0
  6 95  1  0  0  0
  6 96  1  0  0  0
  7  8  2  0  0  0
  7 26  1  0  0  0
  7 29  1  0  0  0
  8  9  1  0  0  0
  8 22  1  0  0  0
  9 10  1  0  0  0
  9 27  2  0  0  0
 10 11  2  0  0  0
 10 15  1  0  0  0
 11 12  1  0  0  0
 11 97  1  0  0  0
 12 13  2  0  0  0
 12 98  1  0  0  0
 13 14  1  0  0  0
 13 31  1  0  0  0
 14 15  2  0  0  0
 14 99  1  0  0  0
 15100  1  0  0  0
 16 17  2  0  0  0
 16 21  1  0  0  0
 16 31  1  0  0  0
 17 18  1  0  0  0
 17101  1  0  0  0
 18 19  2  0  0  0
 18102  1  0  0  0
 19 20  1  0  0  0
 19 24  1  0  0  0
 20 21  2  0  0  0
 20103  1  0  0  0
 21 23  1  0  0  0
 22 28  1  0  0  0
 22 32  2  0  0  0
 26 27  1  0  0  0
 28104  1  0  0  0
 28105  1  0  0  0
 29106  1  0  0  0
 29107  1  0  0  0
 33 34  1  0  0  0
 33 66  1  0  0  0
 33 70  2  0  0  0
 34 36  1  0  0  0
 34 59  1  0  0  0
 34108  1  0  0  0
 35 44  2  0  0  0
 35 45  1  0  0  0
 35 68  1  0  0  0
 36 56  1  0  0  0
 36109  1  0  0  0
 37 39  1  0  0  0
 37 47  1  0  0  0
 37 66  1  0  0  0
 37110  1  0  0  0
 38 43  2  0  0  0
 38 46  1  0  0  0
 38 47  1  0  0  0
 39 64  1  0  0  0
 39 67  2  0  0  0
 40 52  1  0  0  0
 40 53  2  0  0  0
 40 58  1  0  0  0
 41111  1  0  0  0
 41112  1  0  0  0
 41113  1  0  0  0
 41 48  1  0  0  0
 42 43  1  0  0  0
 42 66  1  0  0  0
 42114  1  0  0  0
 42115  1  0  0  0
 43 44  1  0  0  0
 44116  1  0  0  0
 45 46  2  0  0  0
 45117  1  0  0  0
 46118  1  0  0  0
 47119  1  0  0  0
 47120  1  0  0  0
 48 56  1  0  0  0
 48 65  1  0  0  0
 48121  1  0  0  0
 49 50  1  0  0  0
 49 53  1  0  0  0
 49 64  1  0  0  0
 49122  1  0  0  0
 50 51  1  0  0  0
 50123  1  0  0  0
 50124  1  0  0  0
 51 52  1  0  0  0
 51125  1  0  0  0
 51126  1  0  0  0
 52127  1  0  0  0
 52128  1  0  0  0
 53 54  1  0  0  0
 54 55  2  0  0  0
 54129  1  0  0  0
 55 57  1  0  0  0
 55130  1  0  0  0
 56 69  2  0  0  0
 57 58  2  0  0  0
 57131  1  0  0  0
 58132  1  0  0  0
 59 60  1  0  0  0
 59 61  1  0  0  0
 59 62  1  0  0  0
 60133  1  0  0  0
 60134  1  0  0  0
 60135  1  0  0  0
 61136  1  0  0  0
 61137  1  0  0  0
 61138  1  0  0  0
 62139  1  0  0  0
 62140  1  0  0  0
 62141  1  0  0  0
 63 65  1  0  0  0
 63142  1  0  0  0
 63143  1  0  0  0
 63144  1  0  0  0
 64145  1  0  0  0
 65146  1  0  0  0
 68 84  1  0  0  0
 71 72  2  0  0  0
 71 74  1  0  0  0
 71147  1  0  0  0
 72 75  1  0  0  0
 72 80  1  0  0  0
 73 75  2  0  0  0
 73 76  1  0  0  0
 73 82  1  0  0  0
 74 76  2  0  0  0
 74 85  1  0  0  0
 75 86  1  0  0  0
 76 87  1  0  0  0
 77 78  2  0  0  0
 77148  1  0  0  0
 77149  1  0  0  0
 78 82  1  0  0  0
 78150  1  0  0  0
 79 83  1  0  0  0
 79 85  2  0  0  0
 79151  1  0  0  0
 80152  1  0  0  0
 80153  1  0  0  0
 80154  1  0  0  0
 81 87  1  0  0  0
 81155  1  0  0  0
 81156  1  0  0  0
 81157  1  0  0  0
 82158  1  0  0  0
 82159  1  0  0  0
 83 84  1  0  0  0
 83160  1  0  0  0
 83161  1  0  0  0
 84162  1  0  0  0
 84163  1  0  0  0
 86164  1  0  0  0
M  ISO  4   1 100  68 101  84 101  86 100
M  END
> <chiral flag>
0

> <version>
0

> <s_m_source_file>
/data/baiqing/PycharmProjects/Reinvent-master-3.2/result/LINK_invent/BTK/process_docking_weight1_custom_product_contain_oxygen_bond_distance_aromatic_linkinvent_7_9_3/rearranged_h_0115.sdf

> <i_m_source_file_index>
14

> <r_mmod_Potential_Energy-OPLS-2005>
137.117889404297

> <r_mmod_Stretch_Energy-OPLS-2005>
88.5960311889648

> <r_mmod_Bend_Energy-OPLS-2005>
175.233474731445

> <r_mmod_Torsional_Energy-OPLS-2005>
280.887023925781

> <r_mmod_Improper_Torsional_Energy-OPLS-2005>
6.06447887420654

> <r_mmod_Van_der_Waal_Energy-OPLS-2005>
156.633453369141

> <r_mmod_Electrostatic_Energy-OPLS-2005>
-414.913513183594

> <r_mmod_Solvation_Energy-OPLS-2005>
-212.359405517578

> <b_mmod_Minimization_Converged-OPLS-2005>
0

> <r_mmod_RMS_Derivative-OPLS-2005>
5.17704296112061

$$$$
14
                    3D
 Structure written by MMmdl.
157165  0  0  1  0            999 V2000
  -30.6021  -14.6670   20.4771 C   0  0  0  0  0  0
  -30.4448  -12.4046   19.4531 C   0  0  0  0  0  0
  -29.5130  -12.5067   18.2248 C   0  0  0  0  0  0
  -28.0349  -12.3389   18.6360 C   0  0  0  0  0  0
  -27.6509  -13.2132   19.8593 C   0  0  2  0  0  0
  -28.6982  -13.0824   20.9889 C   0  0  0  0  0  0
  -25.2553  -13.8151   20.5679 C   0  0  0  0  0  0
  -24.1822  -13.0426   20.9204 C   0  0  0  0  0  0
  -24.6380  -11.6897   20.8738 C   0  0  0  0  0  0
  -23.9035  -10.4294   21.0409 C   0  0  0  0  0  0
  -24.3597   -9.4215   21.9187 C   0  0  0  0  0  0
  -23.6293   -8.2239   22.0755 C   0  0  0  0  0  0
  -22.4272   -8.0277   21.3546 C   0  0  0  0  0  0
  -21.9895   -9.0242   20.4641 C   0  0  0  0  0  0
  -22.7209  -10.2129   20.3057 C   0  0  0  0  0  0
  -21.6841   -6.0731   22.5287 C   0  0  0  0  0  0
  -21.4005   -6.5634   23.8221 C   0  0  0  0  0  0
  -21.3662   -5.6785   24.9179 C   0  0  0  0  0  0
  -21.6056   -4.3050   24.7222 C   0  0  0  0  0  0
  -21.8821   -3.8140   23.4339 C   0  0  0  0  0  0
  -21.9190   -4.6960   22.3398 C   0  0  0  0  0  0
  -22.7848  -13.5233   21.1866 C   0  0  0  0  0  0
  -22.1667   -4.2147   21.0970 F   0  0  0  0  0  0
  -21.5632   -3.4529   25.7731 F   0  0  0  0  0  0
  -30.0100  -13.4297   20.4214 N   0  0  0  0  0  0
  -26.2973  -12.9327   20.3290 N   0  0  0  0  0  0
  -25.9306  -11.6486   20.5733 N   0  0  0  0  0  0
  -22.0463  -12.8247   22.0416 N   0  0  0  0  0  0
  -25.4239  -15.1873   20.4092 N   0  0  0  0  0  0
  -31.7844  -14.8214   20.1538 O   0  0  0  0  0  0
  -21.6636   -6.8870   21.4248 O   0  0  0  0  0  0
  -22.3554  -14.5542   20.6701 O   0  0  0  0  0  0
  -24.6271  -31.8613   23.2063 C   0  0  0  0  0  0
  -25.9126  -32.4780   23.8379 C   0  0  1  0  0  0
  -27.2095  -27.3165   20.1033 C   0  0  0  0  0  0
  -25.5945  -33.8584   24.2296 N   0  0  0  0  0  0
  -23.4185  -30.4890   21.5509 C   0  0  2  0  0  0
  -24.8599  -28.9522   20.1094 C   0  0  0  0  0  0
  -22.7468  -29.4640   22.4958 C   0  0  0  0  0  0
  -18.0285  -28.1383   22.8494 C   0  0  0  0  0  0
  -24.1483  -36.7286   23.2639 C   0  0  0  0  0  0
  -25.9622  -30.7901   21.3786 C   0  0  0  0  0  0
  -26.0330  -29.4210   20.7145 C   0  0  0  0  0  0
  -27.2114  -28.6150   20.7042 C   0  0  0  0  0  0
  -26.0112  -26.9113   19.4666 C   0  0  0  0  0  0
  -24.8515  -27.7030   19.4771 C   0  0  0  0  0  0
  -23.6296  -29.8322   20.1639 C   0  0  0  0  0  0
  -25.4109  -36.3085   24.0329 C   0  0  1  0  0  0
  -20.5882  -28.3682   23.1289 C   0  0  2  0  0  0
  -20.6772  -26.9409   22.5408 C   0  0  0  0  0  0
  -19.5746  -26.6384   21.5215 C   0  0  0  0  0  0
  -18.1928  -26.7931   22.1626 C   0  0  0  0  0  0
  -19.1535  -28.8853   23.2886 C   0  0  0  0  0  0
  -18.9457  -30.1455   23.8893 C   0  0  0  0  0  0
  -17.6457  -30.6584   24.0560 C   0  0  0  0  0  0
  -25.9055  -34.9451   23.5110 C   0  0  0  0  0  0
  -16.5346  -29.9077   23.6335 C   0  0  0  0  0  0
  -16.7270  -28.6495   23.0356 C   0  0  0  0  0  0
  -26.4500  -31.6593   25.0751 C   0  0  0  0  0  0
  -25.3729  -31.3731   26.1478 C   0  0  0  0  0  0
  -27.0334  -30.3013   24.6214 C   0  0  0  0  0  0
  -27.6070  -32.4320   25.7515 C   0  0  0  0  0  0
  -27.5572  -37.1800   24.8467 C   0  0  0  0  0  0
  -21.4185  -29.3037   22.3691 N   0  0  0  0  0  0
  -26.4288  -37.3775   23.9409 N   0  0  0  0  0  0
  -24.6887  -31.0626   22.1018 N   0  0  0  0  0  0
  -23.4202  -28.8177   23.3029 O   0  0  0  0  0  0
  -28.3075  -26.4388   20.1569 O   0  0  0  0  0  0
  -26.5614  -34.8916   22.4669 O   0  0  0  0  0  0
  -23.5435  -32.1422   23.7381 O   0  0  0  0  0  0
  -28.7245  -17.8444   19.9770 C   0  0  0  0  0  0
  -28.6576  -19.2735   19.8993 C   0  0  0  0  0  0
  -29.7133  -20.0505   20.4541 C   0  0  0  0  0  0
  -29.8322  -17.1633   20.5480 C   0  0  0  0  0  0
  -30.7880  -19.2889   20.9912 C   0  0  0  0  0  0
  -29.0815  -23.9254   20.3169 C   0  0  0  0  0  0
  -26.7478  -19.2029   18.4393 C   0  0  0  0  0  0
  -32.8853  -19.2808   22.1796 C   0  0  0  0  0  0
  -28.0056  -25.0027   19.9138 C   0  0  0  0  0  0
  -28.7331  -22.3900   20.1167 C   0  0  0  0  0  0
  -30.8498  -17.9189   21.0323 N   0  0  0  0  0  0
  -29.7304  -15.7104   20.6734 N   0  0  0  0  0  0
  -30.1763  -24.2715   20.7767 O   0  0  0  0  0  0
  -27.5998  -19.9372   19.3111 O   0  0  0  0  0  0
  -29.8061  -21.4655   20.5074 O   0  0  0  0  0  0
  -31.8497  -19.9972   21.5174 O   0  0  0  0  0  0
  -31.4842  -12.5399   19.1509 H   0  0  0  0  0  0
  -30.3877  -11.4108   19.8998 H   0  0  0  0  0  0
  -29.7859  -11.7546   17.4836 H   0  0  0  0  0  0
  -29.6491  -13.4746   17.7391 H   0  0  0  0  0  0
  -27.8771  -11.2856   18.8708 H   0  0  0  0  0  0
  -27.3805  -12.5631   17.7929 H   0  0  0  0  0  0
  -27.6590  -14.2442   19.5075 H   0  0  0  0  0  0
  -28.7159  -12.0646   21.3816 H   0  0  0  0  0  0
  -28.4423  -13.7232   21.8339 H   0  0  0  0  0  0
  -25.2741   -9.5700   22.4760 H   0  0  0  0  0  0
  -24.0008   -7.4620   22.7470 H   0  0  0  0  0  0
  -21.0822   -8.8743   19.8945 H   0  0  0  0  0  0
  -22.3661  -10.9662   19.6163 H   0  0  0  0  0  0
  -21.1995   -7.6144   23.9719 H   0  0  0  0  0  0
  -21.1490   -6.0511   25.9080 H   0  0  0  0  0  0
  -22.0598   -2.7603   23.2825 H   0  0  0  0  0  0
  -22.4046  -11.9904   22.4827 H   0  0  0  0  0  0
  -21.1086  -13.1312   22.2593 H   0  0  0  0  0  0
  -24.6457  -15.8293   20.5119 H   0  0  0  0  0  0
  -26.2503  -15.6273   20.0319 H   0  0  0  0  0  0
  -26.7197  -32.5439   23.1128 H   0  0  0  0  0  0
  -25.0088  -33.9735   25.0439 H   0  0  0  0  0  0
  -22.7126  -31.3110   21.4136 H   0  0  0  0  0  0
  -23.3741  -35.9628   23.3329 H   0  0  0  0  0  0
  -24.3565  -36.8873   22.2049 H   0  0  0  0  0  0
  -23.7246  -37.6499   23.6642 H   0  0  0  0  0  0
  -26.0962  -31.5564   20.6145 H   0  0  0  0  0  0
  -26.8421  -30.8330   22.0085 H   0  0  0  0  0  0
  -28.1087  -28.9673   21.1928 H   0  0  0  0  0  0
  -25.9259  -25.9653   18.9535 H   0  0  0  0  0  0
  -23.9535  -27.3407   18.9947 H   0  0  0  0  0  0
  -23.7453  -30.6122   19.4105 H   0  0  0  0  0  0
  -22.7479  -29.2634   19.8624 H   0  0  0  0  0  0
  -25.1290  -36.1939   25.0821 H   0  0  0  0  0  0
  -20.9971  -28.3244   24.1411 H   0  0  0  0  0  0
  -20.5673  -26.2289   23.3602 H   0  0  0  0  0  0
  -21.6642  -26.7444   22.1199 H   0  0  0  0  0  0
  -19.6905  -25.6293   21.1244 H   0  0  0  0  0  0
  -19.6686  -27.3192   20.6743 H   0  0  0  0  0  0
  -17.4201  -26.6681   21.4027 H   0  0  0  0  0  0
  -18.0325  -26.0065   22.9016 H   0  0  0  0  0  0
  -19.7930  -30.7276   24.2260 H   0  0  0  0  0  0
  -17.5007  -31.6270   24.5154 H   0  0  0  0  0  0
  -15.5344  -30.2975   23.7663 H   0  0  0  0  0  0
  -15.8671  -28.0811   22.7074 H   0  0  0  0  0  0
  -24.5913  -30.7070   25.7806 H   0  0  0  0  0  0
  -24.8912  -32.2892   26.4905 H   0  0  0  0  0  0
  -25.8057  -30.8912   27.0257 H   0  0  0  0  0  0
  -26.2910  -29.6768   24.1233 H   0  0  0  0  0  0
  -27.4009  -29.7268   25.4729 H   0  0  0  0  0  0
  -27.8798  -30.4284   23.9458 H   0  0  0  0  0  0
  -27.2703  -33.3627   26.2089 H   0  0  0  0  0  0
  -28.3888  -32.6859   25.0345 H   0  0  0  0  0  0
  -28.0735  -31.8444   26.5431 H   0  0  0  0  0  0
  -28.2607  -38.0077   24.7494 H   0  0  0  0  0  0
  -28.1046  -36.2611   24.6321 H   0  0  0  0  0  0
  -27.2289  -37.1485   25.8868 H   0  0  0  0  0  0
  -20.9362  -29.8755   21.6901 H   0  0  0  0  0  0
  -26.0167  -38.2852   24.1400 H   0  0  0  0  0  0
  -27.9111  -17.2462   19.5979 H   0  0  0  0  0  0
  -26.0622  -19.8903   17.9444 H   0  0  0  0  0  0
  -26.1448  -18.4734   18.9811 H   0  0  0  0  0  0
  -27.3161  -18.6921   17.6605 H   0  0  0  0  0  0
  -33.6522  -19.9812   22.5087 H   0  0  0  0  0  0
  -33.3628  -18.5540   21.5215 H   0  0  0  0  0  0
  -32.5027  -18.7678   23.0635 H   0  0  0  0  0  0
  -27.0959  -24.7370   20.4543 H   0  0  0  0  0  0
  -27.7979  -24.8628   18.8528 H   0  0  0  0  0  0
  -28.4858  -22.2357   19.0669 H   0  0  0  0  0  0
  -27.8362  -22.1659   20.6958 H   0  0  0  0  0  0
  -28.7905  -15.3835   20.8151 H   0  0  0  0  0  0
  1 25  1  0  0  0
  1 30  2  0  0  0
  1 82  1  0  0  0
  2  3  1  0  0  0
  2 25  1  0  0  0
  2 87  1  0  0  0
  2 88  1  0  0  0
  3  4  1  0  0  0
  3 89  1  0  0  0
  3 90  1  0  0  0
  4  5  1  0  0  0
  4 91  1  0  0  0
  4 92  1  0  0  0
  5  6  1  0  0  0
  5 26  1  0  0  0
  5 93  1  0  0  0
  6 25  1  0  0  0
  6 94  1  0  0  0
  6 95  1  0  0  0
  7  8  2  0  0  0
  7 26  1  0  0  0
  7 29  1  0  0  0
  8  9  1  0  0  0
  8 22  1  0  0  0
  9 10  1  0  0  0
  9 27  2  0  0  0
 10 11  2  0  0  0
 10 15  1  0  0  0
 11 12  1  0  0  0
 11 96  1  0  0  0
 12 13  2  0  0  0
 12 97  1  0  0  0
 13 14  1  0  0  0
 13 31  1  0  0  0
 14 15  2  0  0  0
 14 98  1  0  0  0
 15 99  1  0  0  0
 16 17  2  0  0  0
 16 21  1  0  0  0
 16 31  1  0  0  0
 17 18  1  0  0  0
 17100  1  0  0  0
 18 19  2  0  0  0
 18101  1  0  0  0
 19 20  1  0  0  0
 19 24  1  0  0  0
 20 21  2  0  0  0
 20102  1  0  0  0
 21 23  1  0  0  0
 22 28  1  0  0  0
 22 32  2  0  0  0
 26 27  1  0  0  0
 28103  1  0  0  0
 28104  1  0  0  0
 29105  1  0  0  0
 29106  1  0  0  0
 33 34  1  0  0  0
 33 66  1  0  0  0
 33 70  2  0  0  0
 34 36  1  0  0  0
 34 59  1  0  0  0
 34107  1  0  0  0
 35 44  2  0  0  0
 35 45  1  0  0  0
 35 68  1  0  0  0
 36 56  1  0  0  0
 36108  1  0  0  0
 37 39  1  0  0  0
 37 47  1  0  0  0
 37 66  1  0  0  0
 37109  1  0  0  0
 38 43  2  0  0  0
 38 46  1  0  0  0
 38 47  1  0  0  0
 39 64  1  0  0  0
 39 67  2  0  0  0
 40 52  1  0  0  0
 40 53  2  0  0  0
 40 58  1  0  0  0
 41110  1  0  0  0
 41111  1  0  0  0
 41112  1  0  0  0
 41 48  1  0  0  0
 42 43  1  0  0  0
 42 66  1  0  0  0
 42113  1  0  0  0
 42114  1  0  0  0
 43 44  1  0  0  0
 44115  1  0  0  0
 45 46  2  0  0  0
 45116  1  0  0  0
 46117  1  0  0  0
 47118  1  0  0  0
 47119  1  0  0  0
 48 56  1  0  0  0
 48 65  1  0  0  0
 48120  1  0  0  0
 49 50  1  0  0  0
 49 53  1  0  0  0
 49 64  1  0  0  0
 49121  1  0  0  0
 50 51  1  0  0  0
 50122  1  0  0  0
 50123  1  0  0  0
 51 52  1  0  0  0
 51124  1  0  0  0
 51125  1  0  0  0
 52126  1  0  0  0
 52127  1  0  0  0
 53 54  1  0  0  0
 54 55  2  0  0  0
 54128  1  0  0  0
 55 57  1  0  0  0
 55129  1  0  0  0
 56 69  2  0  0  0
 57 58  2  0  0  0
 57130  1  0  0  0
 58131  1  0  0  0
 59 60  1  0  0  0
 59 61  1  0  0  0
 59 62  1  0  0  0
 60132  1  0  0  0
 60133  1  0  0  0
 60134  1  0  0  0
 61135  1  0  0  0
 61136  1  0  0  0
 61137  1  0  0  0
 62138  1  0  0  0
 62139  1  0  0  0
 62140  1  0  0  0
 63 65  1  0  0  0
 63141  1  0  0  0
 63142  1  0  0  0
 63143  1  0  0  0
 64144  1  0  0  0
 65145  1  0  0  0
 68 79  1  0  0  0
 71 72  2  0  0  0
 71 74  1  0  0  0
 71146  1  0  0  0
 72 73  1  0  0  0
 72 84  1  0  0  0
 73 75  2  0  0  0
 73 85  1  0  0  0
 74 81  2  0  0  0
 74 82  1  0  0  0
 75 81  1  0  0  0
 75 86  1  0  0  0
 76 79  1  0  0  0
 76 80  1  0  0  0
 76 83  2  0  0  0
 77 84  1  0  0  0
 77147  1  0  0  0
 77148  1  0  0  0
 77149  1  0  0  0
 78 86  1  0  0  0
 78150  1  0  0  0
 78151  1  0  0  0
 78152  1  0  0  0
 79153  1  0  0  0
 79154  1  0  0  0
 80 85  1  0  0  0
 80155  1  0  0  0
 80156  1  0  0  0
 82157  1  0  0  0
M  ISO  4   1 100  68 101  79 101  82 100
M  END
> <chiral flag>
0

> <version>
0

> <s_m_source_file>
/data/baiqing/PycharmProjects/Reinvent-master-3.2/result/LINK_invent/BTK/process_docking_weight1_custom_product_contain_oxygen_bond_distance_aromatic_linkinvent_7_9_3/rearranged_h_0115.sdf

> <i_m_source_file_index>
15

> <r_mmod_Potential_Energy-OPLS-2005>
-20.1247577667236

> <r_mmod_Stretch_Energy-OPLS-2005>
83.4881744384766

> <r_mmod_Bend_Energy-OPLS-2005>
161.93586730957

> <r_mmod_Torsional_Energy-OPLS-2005>
204.529602050781

> <r_mmod_Improper_Torsional_Energy-OPLS-2005>
6.39871597290039

> <r_mmod_Van_der_Waal_Energy-OPLS-2005>
161.588424682617

> <r_mmod_Electrostatic_Energy-OPLS-2005>
-422.218505859375

> <r_mmod_Solvation_Energy-OPLS-2005>
-273.005004882812

> <b_mmod_Minimization_Converged-OPLS-2005>
0

> <r_mmod_RMS_Derivative-OPLS-2005>
1.68365013599396

$$$$
15
                    3D
 Structure written by MMmdl.
157165  0  0  1  0            999 V2000
  -30.6509  -14.6373   20.5913 C   0  0  0  0  0  0
  -30.4327  -12.4186   19.4473 C   0  0  0  0  0  0
  -29.5043  -12.5223   18.2157 C   0  0  0  0  0  0
  -28.0244  -12.3556   18.6184 C   0  0  0  0  0  0
  -27.6490  -13.2166   19.8523 C   0  0  2  0  0  0
  -28.6844  -13.0400   20.9765 C   0  0  0  0  0  0
  -25.2558  -13.8166   20.5681 C   0  0  0  0  0  0
  -24.1829  -13.0430   20.9190 C   0  0  0  0  0  0
  -24.6401  -11.6910   20.8714 C   0  0  0  0  0  0
  -23.9070  -10.4298   21.0380 C   0  0  0  0  0  0
  -24.3614   -9.4224   21.9165 C   0  0  0  0  0  0
  -23.6289   -8.2260   22.0746 C   0  0  0  0  0  0
  -22.4263   -8.0292   21.3545 C   0  0  0  0  0  0
  -21.9905   -9.0263   20.4636 C   0  0  0  0  0  0
  -22.7235  -10.2143   20.3041 C   0  0  0  0  0  0
  -21.6857   -6.0731   22.5277 C   0  0  0  0  0  0
  -21.4016   -6.5629   23.8210 C   0  0  0  0  0  0
  -21.3667   -5.6783   24.9170 C   0  0  0  0  0  0
  -21.6063   -4.3048   24.7229 C   0  0  0  0  0  0
  -21.8822   -3.8140   23.4347 C   0  0  0  0  0  0
  -21.9201   -4.6957   22.3404 C   0  0  0  0  0  0
  -22.7860  -13.5223   21.1845 C   0  0  0  0  0  0
  -22.1658   -4.2135   21.0979 F   0  0  0  0  0  0
  -21.5652   -3.4535   25.7749 F   0  0  0  0  0  0
  -30.0041  -13.4274   20.4449 N   0  0  0  0  0  0
  -26.2961  -12.9343   20.3234 N   0  0  0  0  0  0
  -25.9324  -11.6500   20.5712 N   0  0  0  0  0  0
  -22.0516  -12.8209   22.0403 N   0  0  0  0  0  0
  -25.4280  -15.1878   20.4145 N   0  0  0  0  0  0
  -31.7493  -14.8204   20.0521 O   0  0  0  0  0  0
  -21.6635   -6.8876   21.4244 O   0  0  0  0  0  0
  -22.3542  -14.5533   20.6706 O   0  0  0  0  0  0
  -24.6264  -31.8572   23.2016 C   0  0  0  0  0  0
  -25.9103  -32.4769   23.8345 C   0  0  1  0  0  0
  -27.2243  -27.3036   20.1327 C   0  0  0  0  0  0
  -25.5913  -33.8574   24.2277 N   0  0  0  0  0  0
  -23.4212  -30.4794   21.5431 C   0  0  2  0  0  0
  -24.8694  -28.9259   20.1161 C   0  0  0  0  0  0
  -22.7474  -29.4624   22.4955 C   0  0  0  0  0  0
  -18.0280  -28.1383   22.8441 C   0  0  0  0  0  0
  -24.1488  -36.7287   23.2639 C   0  0  0  0  0  0
  -25.9618  -30.7840   21.3736 C   0  0  0  0  0  0
  -26.0385  -29.4093   20.7189 C   0  0  0  0  0  0
  -27.2212  -28.6110   20.7121 C   0  0  0  0  0  0
  -26.0371  -26.8765   19.5006 C   0  0  0  0  0  0
  -24.8710  -27.6658   19.4964 C   0  0  0  0  0  0
  -23.6377  -29.8071   20.1615 C   0  0  0  0  0  0
  -25.4114  -36.3087   24.0336 C   0  0  1  0  0  0
  -20.5884  -28.3670   23.1263 C   0  0  2  0  0  0
  -20.6755  -26.9397   22.5370 C   0  0  0  0  0  0
  -19.5757  -26.6455   21.5127 C   0  0  0  0  0  0
  -18.1932  -26.7957   22.1547 C   0  0  0  0  0  0
  -19.1529  -28.8839   23.2865 C   0  0  0  0  0  0
  -18.9447  -30.1437   23.8880 C   0  0  0  0  0  0
  -17.6447  -30.6566   24.0556 C   0  0  0  0  0  0
  -25.9046  -34.9451   23.5111 C   0  0  0  0  0  0
  -16.5336  -29.9075   23.6306 C   0  0  0  0  0  0
  -16.7264  -28.6514   23.0276 C   0  0  0  0  0  0
  -26.4476  -31.6584   25.0726 C   0  0  0  0  0  0
  -25.3698  -31.3720   26.1449 C   0  0  0  0  0  0
  -27.0314  -30.3003   24.6188 C   0  0  0  0  0  0
  -27.6026  -32.4321   25.7502 C   0  0  0  0  0  0
  -27.5583  -37.1802   24.8467 C   0  0  0  0  0  0
  -21.4189  -29.3015   22.3657 N   0  0  0  0  0  0
  -26.4299  -37.3778   23.9405 N   0  0  0  0  0  0
  -24.6885  -31.0589   22.0956 N   0  0  0  0  0  0
  -23.4191  -28.8203   23.3065 O   0  0  0  0  0  0
  -28.3385  -26.4506   20.1489 O   0  0  0  0  0  0
  -26.5625  -34.8918   22.4679 O   0  0  0  0  0  0
  -23.5423  -32.1369   23.7330 O   0  0  0  0  0  0
  -29.3749  -18.0415   21.8779 C   0  0  0  0  0  0
  -30.2291  -17.6455   19.6897 C   0  0  0  0  0  0
  -29.2782  -19.4510   21.6328 C   0  0  0  0  0  0
  -29.6295  -20.0021   20.3589 C   0  0  0  0  0  0
  -29.8866  -17.0829   20.9484 C   0  0  0  0  0  0
  -30.1020  -19.0428   19.4102 C   0  0  0  0  0  0
  -27.9311  -19.9686   23.6880 C   0  0  0  0  0  0
  -28.8264  -20.3088   22.7451 C   0  0  0  0  0  0
  -28.8505  -22.3799   20.3451 C   0  0  0  0  0  0
  -29.9127  -15.3468   22.7652 C   0  0  0  0  0  0
  -28.9786  -23.8816   19.8502 C   0  0  0  0  0  0
  -28.1522  -25.0365   20.5826 C   0  0  0  0  0  0
  -29.6415  -21.4067   19.9796 N   0  0  0  0  0  0
  -30.0460  -15.6475   21.3260 N   0  0  0  0  0  0
  -30.4749  -19.4772   18.1810 F   0  0  0  0  0  0
  -31.4737  -12.5501   19.1472 H   0  0  0  0  0  0
  -30.3792  -11.4173   19.8781 H   0  0  0  0  0  0
  -29.7750  -11.7671   17.4764 H   0  0  0  0  0  0
  -29.6421  -13.4886   17.7281 H   0  0  0  0  0  0
  -27.8556  -11.3004   18.8378 H   0  0  0  0  0  0
  -27.3732  -12.5977   17.7771 H   0  0  0  0  0  0
  -27.6755  -14.2576   19.5307 H   0  0  0  0  0  0
  -28.7110  -11.9998   21.3072 H   0  0  0  0  0  0
  -28.3675  -13.6051   21.8460 H   0  0  0  0  0  0
  -25.2758   -9.5738   22.4719 H   0  0  0  0  0  0
  -24.0031   -7.4665   22.7460 H   0  0  0  0  0  0
  -21.0845   -8.8782   19.8927 H   0  0  0  0  0  0
  -22.3689  -10.9686   19.6153 H   0  0  0  0  0  0
  -21.1991   -7.6131   23.9698 H   0  0  0  0  0  0
  -21.1476   -6.0517   25.9064 H   0  0  0  0  0  0
  -22.0587   -2.7596   23.2869 H   0  0  0  0  0  0
  -22.4145  -11.9890   22.4813 H   0  0  0  0  0  0
  -21.1149  -13.1250   22.2624 H   0  0  0  0  0  0
  -24.6595  -15.8430   20.5030 H   0  0  0  0  0  0
  -26.2857  -15.6230   20.0989 H   0  0  0  0  0  0
  -26.7159  -32.5442   23.1075 H   0  0  0  0  0  0
  -25.0047  -33.9709   25.0420 H   0  0  0  0  0  0
  -22.7181  -31.3011   21.3946 H   0  0  0  0  0  0
  -23.3762  -35.9609   23.3307 H   0  0  0  0  0  0
  -24.3561  -36.8908   22.2051 H   0  0  0  0  0  0
  -23.7253  -37.6491   23.6656 H   0  0  0  0  0  0
  -26.0971  -31.5456   20.6046 H   0  0  0  0  0  0
  -26.8411  -30.8309   22.0027 H   0  0  0  0  0  0
  -28.1214  -28.9792   21.1831 H   0  0  0  0  0  0
  -26.0042  -25.9140   19.0106 H   0  0  0  0  0  0
  -23.9774  -27.2910   19.0158 H   0  0  0  0  0  0
  -23.7604  -30.5797   19.4017 H   0  0  0  0  0  0
  -22.7571  -29.2358   19.8581 H   0  0  0  0  0  0
  -25.1302  -36.1919   25.0835 H   0  0  0  0  0  0
  -20.9981  -28.3218   24.1370 H   0  0  0  0  0  0
  -20.5529  -26.2278   23.3552 H   0  0  0  0  0  0
  -21.6609  -26.7391   22.1160 H   0  0  0  0  0  0
  -19.6897  -25.6409   21.1074 H   0  0  0  0  0  0
  -19.6732  -27.3361   20.6733 H   0  0  0  0  0  0
  -17.4190  -26.6776   21.3946 H   0  0  0  0  0  0
  -18.0296  -26.0053   22.8887 H   0  0  0  0  0  0
  -19.7914  -30.7247   24.2296 H   0  0  0  0  0  0
  -17.5001  -31.6216   24.5212 H   0  0  0  0  0  0
  -15.5337  -30.2993   23.7638 H   0  0  0  0  0  0
  -15.8652  -28.0895   22.6930 H   0  0  0  0  0  0
  -24.5874  -30.7070   25.7782 H   0  0  0  0  0  0
  -24.8872  -32.2877   26.4868 H   0  0  0  0  0  0
  -25.8007  -30.8899   27.0231 H   0  0  0  0  0  0
  -26.2896  -29.6785   24.1161 H   0  0  0  0  0  0
  -27.3951  -29.7230   25.4701 H   0  0  0  0  0  0
  -27.8785  -30.4296   23.9446 H   0  0  0  0  0  0
  -27.2636  -33.3622   26.2074 H   0  0  0  0  0  0
  -28.3846  -32.6889   25.0343 H   0  0  0  0  0  0
  -28.0672  -31.8455   26.5438 H   0  0  0  0  0  0
  -28.2607  -38.0092   24.7509 H   0  0  0  0  0  0
  -28.1077  -36.2623   24.6300 H   0  0  0  0  0  0
  -27.2286  -37.1466   25.8867 H   0  0  0  0  0  0
  -20.9389  -29.8606   21.6751 H   0  0  0  0  0  0
  -26.0177  -38.2853   24.1394 H   0  0  0  0  0  0
  -29.0850  -17.7076   22.8610 H   0  0  0  0  0  0
  -30.6271  -17.0150   18.9085 H   0  0  0  0  0  0
  -27.4302  -19.0104   23.6915 H   0  0  0  0  0  0
  -27.6827  -20.6589   24.4820 H   0  0  0  0  0  0
  -29.2930  -21.2801   22.8206 H   0  0  0  0  0  0
  -28.0097  -22.2126   21.0219 H   0  0  0  0  0  0
  -30.5249  -16.0241   23.3621 H   0  0  0  0  0  0
  -30.2365  -14.3388   23.0365 H   0  0  0  0  0  0
  -28.8731  -15.4454   23.0846 H   0  0  0  0  0  0
  -28.6977  -23.8942   18.7987 H   0  0  0  0  0  0
  -30.0333  -24.1462   19.8738 H   0  0  0  0  0  0
  -28.4245  -25.0147   21.6389 H   0  0  0  0  0  0
  -27.0995  -24.7564   20.5740 H   0  0  0  0  0  0
  1 25  1  0  0  0
  1 30  2  0  0  0
  1 84  1  0  0  0
  2  3  1  0  0  0
  2 25  1  0  0  0
  2 86  1  0  0  0
  2 87  1  0  0  0
  3  4  1  0  0  0
  3 88  1  0  0  0
  3 89  1  0  0  0
  4  5  1  0  0  0
  4 90  1  0  0  0
  4 91  1  0  0  0
  5  6  1  0  0  0
  5 26  1  0  0  0
  5 92  1  0  0  0
  6 25  1  0  0  0
  6 93  1  0  0  0
  6 94  1  0  0  0
  7  8  2  0  0  0
  7 26  1  0  0  0
  7 29  1  0  0  0
  8  9  1  0  0  0
  8 22  1  0  0  0
  9 10  1  0  0  0
  9 27  2  0  0  0
 10 11  2  0  0  0
 10 15  1  0  0  0
 11 12  1  0  0  0
 11 95  1  0  0  0
 12 13  2  0  0  0
 12 96  1  0  0  0
 13 14  1  0  0  0
 13 31  1  0  0  0
 14 15  2  0  0  0
 14 97  1  0  0  0
 15 98  1  0  0  0
 16 17  2  0  0  0
 16 21  1  0  0  0
 16 31  1  0  0  0
 17 18  1  0  0  0
 17 99  1  0  0  0
 18 19  2  0  0  0
 18100  1  0  0  0
 19 20  1  0  0  0
 19 24  1  0  0  0
 20 21  2  0  0  0
 20101  1  0  0  0
 21 23  1  0  0  0
 22 28  1  0  0  0
 22 32  2  0  0  0
 26 27  1  0  0  0
 28102  1  0  0  0
 28103  1  0  0  0
 29104  1  0  0  0
 29105  1  0  0  0
 33 34  1  0  0  0
 33 66  1  0  0  0
 33 70  2  0  0  0
 34 36  1  0  0  0
 34 59  1  0  0  0
 34106  1  0  0  0
 35 44  2  0  0  0
 35 45  1  0  0  0
 35 68  1  0  0  0
 36 56  1  0  0  0
 36107  1  0  0  0
 37 39  1  0  0  0
 37 47  1  0  0  0
 37 66  1  0  0  0
 37108  1  0  0  0
 38 43  2  0  0  0
 38 46  1  0  0  0
 38 47  1  0  0  0
 39 64  1  0  0  0
 39 67  2  0  0  0
 40 52  1  0  0  0
 40 53  2  0  0  0
 40 58  1  0  0  0
 41109  1  0  0  0
 41110  1  0  0  0
 41111  1  0  0  0
 41 48  1  0  0  0
 42 43  1  0  0  0
 42 66  1  0  0  0
 42112  1  0  0  0
 42113  1  0  0  0
 43 44  1  0  0  0
 44114  1  0  0  0
 45 46  2  0  0  0
 45115  1  0  0  0
 46116  1  0  0  0
 47117  1  0  0  0
 47118  1  0  0  0
 48 56  1  0  0  0
 48 65  1  0  0  0
 48119  1  0  0  0
 49 50  1  0  0  0
 49 53  1  0  0  0
 49 64  1  0  0  0
 49120  1  0  0  0
 50 51  1  0  0  0
 50121  1  0  0  0
 50122  1  0  0  0
 51 52  1  0  0  0
 51123  1  0  0  0
 51124  1  0  0  0
 52125  1  0  0  0
 52126  1  0  0  0
 53 54  1  0  0  0
 54 55  2  0  0  0
 54127  1  0  0  0
 55 57  1  0  0  0
 55128  1  0  0  0
 56 69  2  0  0  0
 57 58  2  0  0  0
 57129  1  0  0  0
 58130  1  0  0  0
 59 60  1  0  0  0
 59 61  1  0  0  0
 59 62  1  0  0  0
 60131  1  0  0  0
 60132  1  0  0  0
 60133  1  0  0  0
 61134  1  0  0  0
 61135  1  0  0  0
 61136  1  0  0  0
 62137  1  0  0  0
 62138  1  0  0  0
 62139  1  0  0  0
 63 65  1  0  0  0
 63140  1  0  0  0
 63141  1  0  0  0
 63142  1  0  0  0
 64143  1  0  0  0
 65144  1  0  0  0
 68 82  1  0  0  0
 71 73  2  0  0  0
 71 75  1  0  0  0
 71145  1  0  0  0
 72 75  2  0  0  0
 72 76  1  0  0  0
 72146  1  0  0  0
 73 74  1  0  0  0
 73 78  1  0  0  0
 74 76  2  0  0  0
 74 83  1  0  0  0
 75 84  1  0  0  0
 76 85  1  0  0  0
 77 78  2  0  0  0
 77147  1  0  0  0
 77148  1  0  0  0
 78149  1  0  0  0
 79 81  1  0  0  0
 79 83  2  0  0  0
 79150  1  0  0  0
 80 84  1  0  0  0
 80151  1  0  0  0
 80152  1  0  0  0
 80153  1  0  0  0
 81 82  1  0  0  0
 81154  1  0  0  0
 81155  1  0  0  0
 82156  1  0  0  0
 82157  1  0  0  0
M  ISO  4   1 100  68 101  82 101  84 100
M  END
> <chiral flag>
0

> <version>
0

> <s_m_source_file>
/data/baiqing/PycharmProjects/Reinvent-master-3.2/result/LINK_invent/BTK/process_docking_weight1_custom_product_contain_oxygen_bond_distance_aromatic_linkinvent_7_9_3/rearranged_h_0115.sdf

> <i_m_source_file_index>
16

> <r_mmod_Potential_Energy-OPLS-2005>
294.222961425781

> <r_mmod_Stretch_Energy-OPLS-2005>
102.522171020508

> <r_mmod_Bend_Energy-OPLS-2005>
165.171035766602

> <r_mmod_Torsional_Energy-OPLS-2005>
298.31103515625

> <r_mmod_Improper_Torsional_Energy-OPLS-2005>
3.29821491241455

> <r_mmod_Van_der_Waal_Energy-OPLS-2005>
162.861465454102

> <r_mmod_Electrostatic_Energy-OPLS-2005>
-289.803771972656

> <r_mmod_Solvation_Energy-OPLS-2005>
-196.774856567383

> <b_mmod_Minimization_Converged-OPLS-2005>
0

> <r_mmod_RMS_Derivative-OPLS-2005>
3.00667071342468

$$$$
16
                    3D
 Structure written by MMmdl.
155163  0  0  1  0            999 V2000
  -30.6291  -14.7794   20.3123 C   0  0  0  0  0  0
  -30.4437  -12.4317   19.4497 C   0  0  0  0  0  0
  -29.4962  -12.3296   18.2316 C   0  0  0  0  0  0
  -28.0150  -12.2564   18.6581 C   0  0  0  0  0  0
  -27.6274  -13.1937   19.8340 C   0  0  2  0  0  0
  -28.7058  -13.2257   20.9396 C   0  0  0  0  0  0
  -25.2550  -13.8085   20.5796 C   0  0  0  0  0  0
  -24.1786  -13.0389   20.9284 C   0  0  0  0  0  0
  -24.6333  -11.6858   20.8855 C   0  0  0  0  0  0
  -23.9014  -10.4260   21.0479 C   0  0  0  0  0  0
  -24.3571   -9.4164   21.9238 C   0  0  0  0  0  0
  -23.6248   -8.2199   22.0767 C   0  0  0  0  0  0
  -22.4245   -8.0249   21.3546 C   0  0  0  0  0  0
  -21.9895   -9.0231   20.4654 C   0  0  0  0  0  0
  -22.7215  -10.2115   20.3098 C   0  0  0  0  0  0
  -21.6836   -6.0723   22.5292 C   0  0  0  0  0  0
  -21.4005   -6.5627   23.8226 C   0  0  0  0  0  0
  -21.3657   -5.6781   24.9190 C   0  0  0  0  0  0
  -21.6034   -4.3046   24.7244 C   0  0  0  0  0  0
  -21.8807   -3.8142   23.4363 C   0  0  0  0  0  0
  -21.9183   -4.6956   22.3418 C   0  0  0  0  0  0
  -22.7816  -13.5223   21.1890 C   0  0  0  0  0  0
  -22.1660   -4.2138   21.0999 F   0  0  0  0  0  0
  -21.5626   -3.4541   25.7764 F   0  0  0  0  0  0
  -29.9865  -13.5526   20.2930 N   0  0  0  0  0  0
  -26.2911  -12.9186   20.3404 N   0  0  0  0  0  0
  -25.9251  -11.6388   20.5912 N   0  0  0  0  0  0
  -22.0414  -12.8231   22.0422 N   0  0  0  0  0  0
  -25.4277  -15.1796   20.4195 N   0  0  0  0  0  0
  -31.8598  -14.8099   20.3144 O   0  0  0  0  0  0
  -21.6597   -6.8854   21.4253 O   0  0  0  0  0  0
  -22.3544  -14.5541   20.6728 O   0  0  0  0  0  0
  -24.6256  -31.8594   23.2011 C   0  0  0  0  0  0
  -25.9102  -32.4770   23.8362 C   0  0  1  0  0  0
  -27.2352  -27.3077   20.1314 C   0  0  0  0  0  0
  -25.5926  -33.8580   24.2276 N   0  0  0  0  0  0
  -23.4218  -30.4806   21.5427 C   0  0  2  0  0  0
  -24.8743  -28.9308   20.1174 C   0  0  0  0  0  0
  -22.7464  -29.4630   22.4928 C   0  0  0  0  0  0
  -18.0278  -28.1395   22.8484 C   0  0  0  0  0  0
  -24.1493  -36.7292   23.2640 C   0  0  0  0  0  0
  -25.9647  -30.7841   21.3794 C   0  0  0  0  0  0
  -26.0394  -29.4068   20.7328 C   0  0  0  0  0  0
  -27.2181  -28.6006   20.7427 C   0  0  0  0  0  0
  -26.0536  -26.9014   19.4669 C   0  0  0  0  0  0
  -24.8822  -27.6808   19.4816 C   0  0  0  0  0  0
  -23.6410  -29.8086   20.1616 C   0  0  0  0  0  0
  -25.4120  -36.3073   24.0318 C   0  0  1  0  0  0
  -20.5884  -28.3713   23.1270 C   0  0  2  0  0  0
  -20.6782  -26.9441   22.5398 C   0  0  0  0  0  0
  -19.5767  -26.6401   21.5202 C   0  0  0  0  0  0
  -18.1933  -26.7939   22.1608 C   0  0  0  0  0  0
  -19.1529  -28.8868   23.2877 C   0  0  0  0  0  0
  -18.9458  -30.1462   23.8909 C   0  0  0  0  0  0
  -17.6464  -30.6605   24.0567 C   0  0  0  0  0  0
  -25.9053  -34.9444   23.5100 C   0  0  0  0  0  0
  -16.5352  -29.9103   23.6338 C   0  0  0  0  0  0
  -16.7262  -28.6512   23.0365 C   0  0  0  0  0  0
  -26.4479  -31.6587   25.0738 C   0  0  0  0  0  0
  -25.3701  -31.3737   26.1452 C   0  0  0  0  0  0
  -27.0355  -30.3015   24.6231 C   0  0  0  0  0  0
  -27.6051  -32.4331   25.7489 C   0  0  0  0  0  0
  -27.5577  -37.1800   24.8458 C   0  0  0  0  0  0
  -21.4178  -29.3065   22.3659 N   0  0  0  0  0  0
  -26.4290  -37.3767   23.9405 N   0  0  0  0  0  0
  -24.6892  -31.0592   22.0973 N   0  0  0  0  0  0
  -23.4170  -28.8187   23.3031 O   0  0  0  0  0  0
  -28.3596  -26.4596   20.1772 O   0  0  0  0  0  0
  -26.5630  -34.8903   22.4670 O   0  0  0  0  0  0
  -23.5412  -32.1409   23.7317 O   0  0  0  0  0  0
  -30.3484  -18.3337   19.1494 C   0  0  0  0  0  0
  -30.1970  -19.7313   19.3728 C   0  0  0  0  0  0
  -29.7433  -17.8673   21.4146 C   0  0  0  0  0  0
  -30.0692  -17.3322   20.1385 C   0  0  0  0  0  0
  -29.8155  -20.2594   20.6301 C   0  0  0  0  0  0
  -29.6617  -19.2785   21.6702 C   0  0  0  0  0  0
  -29.2061  -24.1063   20.1248 C   0  0  0  0  0  0
  -28.2096  -25.0506   20.1548 C   0  0  0  0  0  0
  -29.4022  -15.7148   18.5530 C   0  0  0  0  0  0
  -30.1104  -20.7387   23.5035 C   0  0  0  0  0  0
  -29.0467  -22.5543   19.9067 C   0  0  0  0  0  0
  -29.9587  -15.8897   19.7731 N   0  0  0  0  0  0
  -28.3384  -16.2325   18.1881 O   0  0  0  0  0  0
  -29.3901  -19.6301   22.9718 O   0  0  0  0  0  0
  -29.6625  -21.6484   20.8821 O   0  0  0  0  0  0
  -31.4729  -12.5690   19.1144 H   0  0  0  0  0  0
  -30.4330  -11.5033   20.0235 H   0  0  0  0  0  0
  -29.7420  -11.4265   17.6706 H   0  0  0  0  0  0
  -29.6484  -13.1285   17.5136 H   0  0  0  0  0  0
  -27.8290  -11.2229   18.9494 H   0  0  0  0  0  0
  -27.3645  -12.4364   17.8010 H   0  0  0  0  0  0
  -27.5489  -14.1821   19.4084 H   0  0  0  0  0  0
  -28.7653  -12.2684   21.4597 H   0  0  0  0  0  0
  -28.4584  -13.9763   21.6928 H   0  0  0  0  0  0
  -25.2719   -9.5619   22.4828 H   0  0  0  0  0  0
  -23.9945   -7.4573   22.7466 H   0  0  0  0  0  0
  -21.0837   -8.8760   19.8939 H   0  0  0  0  0  0
  -22.3701  -10.9664   19.6207 H   0  0  0  0  0  0
  -21.2001   -7.6138   23.9732 H   0  0  0  0  0  0
  -21.1490   -6.0520   25.9082 H   0  0  0  0  0  0
  -22.0590   -2.7603   23.2875 H   0  0  0  0  0  0
  -22.3997  -11.9901   22.4846 H   0  0  0  0  0  0
  -21.1031  -13.1282   22.2588 H   0  0  0  0  0  0
  -24.6611  -15.8336   20.5347 H   0  0  0  0  0  0
  -26.2760  -15.6199   20.0824 H   0  0  0  0  0  0
  -26.7183  -32.5438   23.1127 H   0  0  0  0  0  0
  -25.0059  -33.9733   25.0409 H   0  0  0  0  0  0
  -22.7171  -31.3012   21.3907 H   0  0  0  0  0  0
  -23.3738  -35.9630   23.3282 H   0  0  0  0  0  0
  -24.3607  -36.8943   22.2060 H   0  0  0  0  0  0
  -23.7254  -37.6496   23.6681 H   0  0  0  0  0  0
  -26.0965  -31.5398   20.6043 H   0  0  0  0  0  0
  -26.8434  -30.8399   22.0094 H   0  0  0  0  0  0
  -28.1085  -28.9538   21.2459 H   0  0  0  0  0  0
  -26.0125  -25.9628   18.9355 H   0  0  0  0  0  0
  -23.9910  -27.3119   18.9948 H   0  0  0  0  0  0
  -23.7588  -30.5775   19.3974 H   0  0  0  0  0  0
  -22.7625  -29.2329   19.8634 H   0  0  0  0  0  0
  -25.1296  -36.1926   25.0805 H   0  0  0  0  0  0
  -20.9976  -28.3299   24.1393 H   0  0  0  0  0  0
  -20.5706  -26.2323   23.3591 H   0  0  0  0  0  0
  -21.6646  -26.7493   22.1186 H   0  0  0  0  0  0
  -19.6948  -25.6307   21.1244 H   0  0  0  0  0  0
  -19.6707  -27.3196   20.6718 H   0  0  0  0  0  0
  -17.4209  -26.6676   21.4005 H   0  0  0  0  0  0
  -18.0348  -26.0069   22.8998 H   0  0  0  0  0  0
  -19.7939  -30.7276   24.2277 H   0  0  0  0  0  0
  -17.5028  -31.6288   24.5170 H   0  0  0  0  0  0
  -15.5360  -30.3023   23.7677 H   0  0  0  0  0  0
  -15.8650  -28.0852   22.7090 H   0  0  0  0  0  0
  -24.5863  -30.7109   25.7767 H   0  0  0  0  0  0
  -24.8885  -32.2897   26.4882 H   0  0  0  0  0  0
  -25.7989  -30.8901   27.0233 H   0  0  0  0  0  0
  -26.2972  -29.6735   24.1237 H   0  0  0  0  0  0
  -27.4030  -29.7300   25.4763 H   0  0  0  0  0  0
  -27.8820  -30.4289   23.9485 H   0  0  0  0  0  0
  -27.2699  -33.3656   26.2033 H   0  0  0  0  0  0
  -28.3866  -32.6863   25.0316 H   0  0  0  0  0  0
  -28.0707  -31.8481   26.5427 H   0  0  0  0  0  0
  -28.2575  -38.0111   24.7528 H   0  0  0  0  0  0
  -28.1092  -36.2651   24.6254 H   0  0  0  0  0  0
  -27.2305  -37.1419   25.8861 H   0  0  0  0  0  0
  -20.9368  -29.8767   21.6846 H   0  0  0  0  0  0
  -26.0157  -38.2831   24.1416 H   0  0  0  0  0  0
  -30.6320  -18.0406   18.1474 H   0  0  0  0  0  0
  -30.3988  -20.3955   18.5446 H   0  0  0  0  0  0
  -29.5228  -17.1872   22.2246 H   0  0  0  0  0  0
  -30.2281  -24.4483   20.1921 H   0  0  0  0  0  0
  -27.1779  -24.7343   20.1357 H   0  0  0  0  0  0
  -30.0413  -15.1016   17.9015 H   0  0  0  0  0  0
  -29.4918  -21.6366   23.5007 H   0  0  0  0  0  0
  -31.0376  -20.9516   22.9670 H   0  0  0  0  0  0
  -30.3834  -20.5266   24.5365 H   0  0  0  0  0  0
  -29.4552  -22.3505   18.9181 H   0  0  0  0  0  0
  -27.9821  -22.3232   19.8519 H   0  0  0  0  0  0
  1 25  1  0  0  0
  1 30  2  0  0  0
  1 82  1  0  0  0
  2  3  1  0  0  0
  2 25  1  0  0  0
  2 86  1  0  0  0
  2 87  1  0  0  0
  3  4  1  0  0  0
  3 88  1  0  0  0
  3 89  1  0  0  0
  4  5  1  0  0  0
  4 90  1  0  0  0
  4 91  1  0  0  0
  5  6  1  0  0  0
  5 26  1  0  0  0
  5 92  1  0  0  0
  6 25  1  0  0  0
  6 93  1  0  0  0
  6 94  1  0  0  0
  7  8  2  0  0  0
  7 26  1  0  0  0
  7 29  1  0  0  0
  8  9  1  0  0  0
  8 22  1  0  0  0
  9 10  1  0  0  0
  9 27  2  0  0  0
 10 11  2  0  0  0
 10 15  1  0  0  0
 11 12  1  0  0  0
 11 95  1  0  0  0
 12 13  2  0  0  0
 12 96  1  0  0  0
 13 14  1  0  0  0
 13 31  1  0  0  0
 14 15  2  0  0  0
 14 97  1  0  0  0
 15 98  1  0  0  0
 16 17  2  0  0  0
 16 21  1  0  0  0
 16 31  1  0  0  0
 17 18  1  0  0  0
 17 99  1  0  0  0
 18 19  2  0  0  0
 18100  1  0  0  0
 19 20  1  0  0  0
 19 24  1  0  0  0
 20 21  2  0  0  0
 20101  1  0  0  0
 21 23  1  0  0  0
 22 28  1  0  0  0
 22 32  2  0  0  0
 26 27  1  0  0  0
 28102  1  0  0  0
 28103  1  0  0  0
 29104  1  0  0  0
 29105  1  0  0  0
 33 34  1  0  0  0
 33 66  1  0  0  0
 33 70  2  0  0  0
 34 36  1  0  0  0
 34 59  1  0  0  0
 34106  1  0  0  0
 35 44  2  0  0  0
 35 45  1  0  0  0
 35 68  1  0  0  0
 36 56  1  0  0  0
 36107  1  0  0  0
 37 39  1  0  0  0
 37 47  1  0  0  0
 37 66  1  0  0  0
 37108  1  0  0  0
 38 43  2  0  0  0
 38 46  1  0  0  0
 38 47  1  0  0  0
 39 64  1  0  0  0
 39 67  2  0  0  0
 40 52  1  0  0  0
 40 53  2  0  0  0
 40 58  1  0  0  0
 41109  1  0  0  0
 41110  1  0  0  0
 41111  1  0  0  0
 41 48  1  0  0  0
 42 43  1  0  0  0
 42 66  1  0  0  0
 42112  1  0  0  0
 42113  1  0  0  0
 43 44  1  0  0  0
 44114  1  0  0  0
 45 46  2  0  0  0
 45115  1  0  0  0
 46116  1  0  0  0
 47117  1  0  0  0
 47118  1  0  0  0
 48 56  1  0  0  0
 48 65  1  0  0  0
 48119  1  0  0  0
 49 50  1  0  0  0
 49 53  1  0  0  0
 49 64  1  0  0  0
 49120  1  0  0  0
 50 51  1  0  0  0
 50121  1  0  0  0
 50122  1  0  0  0
 51 52  1  0  0  0
 51123  1  0  0  0
 51124  1  0  0  0
 52125  1  0  0  0
 52126  1  0  0  0
 53 54  1  0  0  0
 54 55  2  0  0  0
 54127  1  0  0  0
 55 57  1  0  0  0
 55128  1  0  0  0
 56 69  2  0  0  0
 57 58  2  0  0  0
 57129  1  0  0  0
 58130  1  0  0  0
 59 60  1  0  0  0
 59 61  1  0  0  0
 59 62  1  0  0  0
 60131  1  0  0  0
 60132  1  0  0  0
 60133  1  0  0  0
 61134  1  0  0  0
 61135  1  0  0  0
 61136  1  0  0  0
 62137  1  0  0  0
 62138  1  0  0  0
 62139  1  0  0  0
 63 65  1  0  0  0
 63140  1  0  0  0
 63141  1  0  0  0
 63142  1  0  0  0
 64143  1  0  0  0
 65144  1  0  0  0
 68 78  1  0  0  0
 71 72  2  0  0  0
 71 74  1  0  0  0
 71145  1  0  0  0
 72 75  1  0  0  0
 72146  1  0  0  0
 73 74  2  0  0  0
 73 76  1  0  0  0
 73147  1  0  0  0
 74 82  1  0  0  0
 75 76  2  0  0  0
 75 85  1  0  0  0
 76 84  1  0  0  0
 77 78  2  0  0  0
 77 81  1  0  0  0
 77148  1  0  0  0
 78149  1  0  0  0
 79 82  1  0  0  0
 79 83  2  0  0  0
 79150  1  0  0  0
 80 84  1  0  0  0
 80151  1  0  0  0
 80152  1  0  0  0
 80153  1  0  0  0
 81 85  1  0  0  0
 81154  1  0  0  0
 81155  1  0  0  0
M  ISO  4   1 100  68 101  78 101  82 100
M  END
> <chiral flag>
0

> <version>
0

> <s_m_source_file>
/data/baiqing/PycharmProjects/Reinvent-master-3.2/result/LINK_invent/BTK/process_docking_weight1_custom_product_contain_oxygen_bond_distance_aromatic_linkinvent_7_9_3/rearranged_h_0115.sdf

> <i_m_source_file_index>
17

> <r_mmod_Potential_Energy-OPLS-2005>
348.527008056641

> <r_mmod_Stretch_Energy-OPLS-2005>
98.4580841064453

> <r_mmod_Bend_Energy-OPLS-2005>
156.712005615234

> <r_mmod_Torsional_Energy-OPLS-2005>
337.824584960938

> <r_mmod_Improper_Torsional_Energy-OPLS-2005>
21.3097095489502

> <r_mmod_Van_der_Waal_Energy-OPLS-2005>
177.491165161133

> <r_mmod_Electrostatic_Energy-OPLS-2005>
-345.554443359375

> <r_mmod_Solvation_Energy-OPLS-2005>
-199.757110595703

> <b_mmod_Minimization_Converged-OPLS-2005>
0

> <r_mmod_RMS_Derivative-OPLS-2005>
2.61733508110046

$$$$
17
                    3D
 Structure written by MMmdl.
157165  0  0  1  0            999 V2000
  -30.6799  -14.4938   20.4790 C   0  0  0  0  0  0
  -30.4227  -12.2834   19.4395 C   0  0  0  0  0  0
  -29.4937  -12.4490   18.2168 C   0  0  0  0  0  0
  -28.0176  -12.3285   18.6326 C   0  0  0  0  0  0
  -27.6683  -13.1944   19.8747 C   0  0  2  0  0  0
  -28.7139  -13.0100   21.0026 C   0  0  0  0  0  0
  -25.2678  -13.8130   20.5696 C   0  0  0  0  0  0
  -24.1902  -13.0441   20.9197 C   0  0  0  0  0  0
  -24.6436  -11.6911   20.8785 C   0  0  0  0  0  0
  -23.9092  -10.4305   21.0421 C   0  0  0  0  0  0
  -24.3647   -9.4229   21.9189 C   0  0  0  0  0  0
  -23.6327   -8.2262   22.0752 C   0  0  0  0  0  0
  -22.4308   -8.0313   21.3544 C   0  0  0  0  0  0
  -21.9952   -9.0288   20.4640 C   0  0  0  0  0  0
  -22.7275  -10.2171   20.3067 C   0  0  0  0  0  0
  -21.6854   -6.0789   22.5301 C   0  0  0  0  0  0
  -21.4004   -6.5669   23.8243 C   0  0  0  0  0  0
  -21.3665   -5.6817   24.9195 C   0  0  0  0  0  0
  -21.6055   -4.3084   24.7241 C   0  0  0  0  0  0
  -21.8815   -3.8190   23.4344 C   0  0  0  0  0  0
  -21.9196   -4.7015   22.3413 C   0  0  0  0  0  0
  -22.7937  -13.5276   21.1863 C   0  0  0  0  0  0
  -22.1652   -4.2209   21.0985 F   0  0  0  0  0  0
  -21.5648   -3.4545   25.7733 F   0  0  0  0  0  0
  -30.0374  -13.2967   20.4359 N   0  0  0  0  0  0
  -26.3110  -12.9270   20.3391 N   0  0  0  0  0  0
  -25.9357  -11.6454   20.5827 N   0  0  0  0  0  0
  -22.0593  -12.8197   22.0397 N   0  0  0  0  0  0
  -25.4402  -15.1838   20.4104 N   0  0  0  0  0  0
  -31.8418  -14.6447   20.0886 O   0  0  0  0  0  0
  -21.6650   -6.8922   21.4264 O   0  0  0  0  0  0
  -22.3603  -14.5597   20.6738 O   0  0  0  0  0  0
  -24.6176  -31.8636   23.2131 C   0  0  0  0  0  0
  -25.9044  -32.4836   23.8448 C   0  0  1  0  0  0
  -27.2355  -27.4409   20.1000 C   0  0  0  0  0  0
  -25.5868  -33.8632   24.2307 N   0  0  0  0  0  0
  -23.4072  -30.4834   21.5517 C   0  0  2  0  0  0
  -24.8520  -28.9469   20.1232 C   0  0  0  0  0  0
  -22.7427  -29.4597   22.5000 C   0  0  0  0  0  0
  -18.0291  -28.1372   22.8511 C   0  0  0  0  0  0
  -24.1480  -36.7329   23.2642 C   0  0  0  0  0  0
  -25.9324  -30.8348   21.3578 C   0  0  0  0  0  0
  -26.0147  -29.4672   20.7086 C   0  0  0  0  0  0
  -27.2144  -28.7229   20.6921 C   0  0  0  0  0  0
  -26.0597  -26.9261   19.5199 C   0  0  0  0  0  0
  -24.8676  -27.6738   19.5316 C   0  0  0  0  0  0
  -23.6145  -29.8120   20.1682 C   0  0  0  0  0  0
  -25.4097  -36.3103   24.0325 C   0  0  1  0  0  0
  -20.5862  -28.3628   23.1321 C   0  0  2  0  0  0
  -20.6734  -26.9354   22.5412 C   0  0  0  0  0  0
  -19.5694  -26.6360   21.5210 C   0  0  0  0  0  0
  -18.1898  -26.7933   22.1650 C   0  0  0  0  0  0
  -19.1533  -28.8826   23.2926 C   0  0  0  0  0  0
  -18.9469  -30.1448   23.8919 C   0  0  0  0  0  0
  -17.6459  -30.6578   24.0564 C   0  0  0  0  0  0
  -25.9011  -34.9477   23.5108 C   0  0  0  0  0  0
  -16.5341  -29.9068   23.6334 C   0  0  0  0  0  0
  -16.7280  -28.6492   23.0363 C   0  0  0  0  0  0
  -26.4478  -31.6650   25.0797 C   0  0  0  0  0  0
  -25.3746  -31.3716   26.1548 C   0  0  0  0  0  0
  -27.0342  -30.3128   24.6181 C   0  0  0  0  0  0
  -27.6059  -32.4388   25.7509 C   0  0  0  0  0  0
  -27.5569  -37.1798   24.8443 C   0  0  0  0  0  0
  -21.4139  -29.3011   22.3740 N   0  0  0  0  0  0
  -26.4268  -37.3790   23.9411 N   0  0  0  0  0  0
  -24.6713  -31.0730   22.1012 N   0  0  0  0  0  0
  -23.4188  -28.8090   23.3015 O   0  0  0  0  0  0
  -28.3866  -26.6917   20.0872 O   0  0  0  0  0  0
  -26.5608  -34.8920   22.4690 O   0  0  0  0  0  0
  -23.5348  -32.1392   23.7525 O   0  0  0  0  0  0
  -30.0516  -19.4069   19.0048 C   0  0  0  0  0  0
  -30.2104  -18.2617   18.2127 C   0  0  0  0  0  0
  -29.7420  -18.0144   20.9673 C   0  0  0  0  0  0
  -29.7493  -19.3101   20.3797 C   0  0  0  0  0  0
  -29.9494  -16.8458   20.1856 C   0  0  0  0  0  0
  -30.0945  -16.9695   18.7741 C   0  0  0  0  0  0
  -29.3914  -20.5362   21.1490 C   0  0  0  0  0  0
  -29.4789  -21.8039   20.6667 C   0  0  0  0  0  0
  -29.0074  -23.0606   21.3113 C   0  0  0  0  0  0
  -28.8123  -24.2714   20.3836 C   0  0  0  0  0  0
  -30.1169  -15.9330   16.5732 C   0  0  0  0  0  0
  -28.3731  -25.6024   21.0289 C   0  0  0  0  0  0
  -28.7931  -23.0631   22.5637 N   0  0  0  0  0  0
  -29.9125  -15.5550   20.8154 N   0  0  0  0  0  0
  -28.9805  -24.2070   19.1573 O   0  0  0  0  0  0
  -30.0634  -15.8268   17.9976 O   0  0  0  0  0  0
  -31.4693  -12.3661   19.1358 H   0  0  0  0  0  0
  -30.3126  -11.2827   19.8612 H   0  0  0  0  0  0
  -29.7282  -11.6999   17.4614 H   0  0  0  0  0  0
  -29.6641  -13.4097   17.7382 H   0  0  0  0  0  0
  -27.8297  -11.2751   18.8491 H   0  0  0  0  0  0
  -27.3636  -12.5839   17.7973 H   0  0  0  0  0  0
  -27.7044  -14.2323   19.5455 H   0  0  0  0  0  0
  -28.7039  -11.9914   21.3911 H   0  0  0  0  0  0
  -28.4949  -13.6499   21.8583 H   0  0  0  0  0  0
  -25.2808   -9.5675   22.4743 H   0  0  0  0  0  0
  -24.0080   -7.4624   22.7409 H   0  0  0  0  0  0
  -21.0926   -8.8792   19.8876 H   0  0  0  0  0  0
  -22.3763  -10.9725   19.6174 H   0  0  0  0  0  0
  -21.1943   -7.6170   23.9752 H   0  0  0  0  0  0
  -21.1489   -6.0542   25.9100 H   0  0  0  0  0  0
  -22.0570   -2.7649   23.2820 H   0  0  0  0  0  0
  -22.4288  -11.9828   22.4689 H   0  0  0  0  0  0
  -21.1177  -13.1118   22.2591 H   0  0  0  0  0  0
  -24.6704  -15.8369   20.5114 H   0  0  0  0  0  0
  -26.2914  -15.6225   20.0770 H   0  0  0  0  0  0
  -26.7109  -32.5567   23.1205 H   0  0  0  0  0  0
  -25.0037  -33.9831   25.0479 H   0  0  0  0  0  0
  -22.7025  -31.3064   21.4113 H   0  0  0  0  0  0
  -23.3715  -35.9687   23.3288 H   0  0  0  0  0  0
  -24.3554  -36.8975   22.2051 H   0  0  0  0  0  0
  -23.7249  -37.6537   23.6699 H   0  0  0  0  0  0
  -26.0337  -31.5915   20.5777 H   0  0  0  0  0  0
  -26.8269  -30.9060   21.9666 H   0  0  0  0  0  0
  -28.1100  -29.1256   21.1410 H   0  0  0  0  0  0
  -26.0643  -25.9431   19.0658 H   0  0  0  0  0  0
  -23.9684  -27.2542   19.1002 H   0  0  0  0  0  0
  -23.7251  -30.5864   19.4077 H   0  0  0  0  0  0
  -22.7409  -29.2315   19.8676 H   0  0  0  0  0  0
  -25.1248  -36.1960   25.0807 H   0  0  0  0  0  0
  -21.0011  -28.3154   24.1416 H   0  0  0  0  0  0
  -20.5608  -26.2221   23.3609 H   0  0  0  0  0  0
  -21.6608  -26.7344   22.1213 H   0  0  0  0  0  0
  -19.6799  -25.6273   21.1215 H   0  0  0  0  0  0
  -19.6620  -27.3195   20.6760 H   0  0  0  0  0  0
  -17.4164  -26.6756   21.4041 H   0  0  0  0  0  0
  -18.0279  -26.0068   22.9034 H   0  0  0  0  0  0
  -19.7927  -30.7283   24.2271 H   0  0  0  0  0  0
  -17.4991  -31.6257   24.5149 H   0  0  0  0  0  0
  -15.5335  -30.2955   23.7642 H   0  0  0  0  0  0
  -15.8704  -28.0788   22.7053 H   0  0  0  0  0  0
  -24.5886  -30.7090   25.7859 H   0  0  0  0  0  0
  -24.8978  -32.2863   26.5091 H   0  0  0  0  0  0
  -25.8100  -30.8802   27.0261 H   0  0  0  0  0  0
  -26.2897  -29.6815   24.1302 H   0  0  0  0  0  0
  -27.4188  -29.7433   25.4653 H   0  0  0  0  0  0
  -27.8683  -30.4458   23.9281 H   0  0  0  0  0  0
  -27.2699  -33.3663   26.2138 H   0  0  0  0  0  0
  -28.3820  -32.6972   25.0294 H   0  0  0  0  0  0
  -28.0818  -31.8512   26.5362 H   0  0  0  0  0  0
  -28.2545  -38.0137   24.7543 H   0  0  0  0  0  0
  -28.1105  -36.2662   24.6204 H   0  0  0  0  0  0
  -27.2314  -37.1377   25.8857 H   0  0  0  0  0  0
  -20.9311  -29.8819   21.7013 H   0  0  0  0  0  0
  -26.0132  -38.2832   24.1525 H   0  0  0  0  0  0
  -30.1014  -20.3583   18.4986 H   0  0  0  0  0  0
  -30.3811  -18.4161   17.1565 H   0  0  0  0  0  0
  -29.5552  -17.9108   22.0250 H   0  0  0  0  0  0
  -28.9874  -20.3698   22.1407 H   0  0  0  0  0  0
  -29.9039  -21.9894   19.6964 H   0  0  0  0  0  0
  -29.7190  -15.0205   16.1300 H   0  0  0  0  0  0
  -31.1501  -16.0382   16.2335 H   0  0  0  0  0  0
  -29.5129  -16.7434   16.1642 H   0  0  0  0  0  0
  -29.0515  -25.8521   21.8442 H   0  0  0  0  0  0
  -27.3858  -25.4648   21.4729 H   0  0  0  0  0  0
  -28.9943  -22.1572   22.9723 H   0  0  0  0  0  0
  -29.0903  -15.3516   21.3602 H   0  0  0  0  0  0
  1 25  1  0  0  0
  1 30  2  0  0  0
  1 84  1  0  0  0
  2  3  1  0  0  0
  2 25  1  0  0  0
  2 87  1  0  0  0
  2 88  1  0  0  0
  3  4  1  0  0  0
  3 89  1  0  0  0
  3 90  1  0  0  0
  4  5  1  0  0  0
  4 91  1  0  0  0
  4 92  1  0  0  0
  5  6  1  0  0  0
  5 26  1  0  0  0
  5 93  1  0  0  0
  6 25  1  0  0  0
  6 94  1  0  0  0
  6 95  1  0  0  0
  7  8  2  0  0  0
  7 26  1  0  0  0
  7 29  1  0  0  0
  8  9  1  0  0  0
  8 22  1  0  0  0
  9 10  1  0  0  0
  9 27  2  0  0  0
 10 11  2  0  0  0
 10 15  1  0  0  0
 11 12  1  0  0  0
 11 96  1  0  0  0
 12 13  2  0  0  0
 12 97  1  0  0  0
 13 14  1  0  0  0
 13 31  1  0  0  0
 14 15  2  0  0  0
 14 98  1  0  0  0
 15 99  1  0  0  0
 16 17  2  0  0  0
 16 21  1  0  0  0
 16 31  1  0  0  0
 17 18  1  0  0  0
 17100  1  0  0  0
 18 19  2  0  0  0
 18101  1  0  0  0
 19 20  1  0  0  0
 19 24  1  0  0  0
 20 21  2  0  0  0
 20102  1  0  0  0
 21 23  1  0  0  0
 22 28  1  0  0  0
 22 32  2  0  0  0
 26 27  1  0  0  0
 28103  1  0  0  0
 28104  1  0  0  0
 29105  1  0  0  0
 29106  1  0  0  0
 33 34  1  0  0  0
 33 66  1  0  0  0
 33 70  2  0  0  0
 34 36  1  0  0  0
 34 59  1  0  0  0
 34107  1  0  0  0
 35 44  2  0  0  0
 35 45  1  0  0  0
 35 68  1  0  0  0
 36 56  1  0  0  0
 36108  1  0  0  0
 37 39  1  0  0  0
 37 47  1  0  0  0
 37 66  1  0  0  0
 37109  1  0  0  0
 38 43  2  0  0  0
 38 46  1  0  0  0
 38 47  1  0  0  0
 39 64  1  0  0  0
 39 67  2  0  0  0
 40 52  1  0  0  0
 40 53  2  0  0  0
 40 58  1  0  0  0
 41110  1  0  0  0
 41111  1  0  0  0
 41112  1  0  0  0
 41 48  1  0  0  0
 42 43  1  0  0  0
 42 66  1  0  0  0
 42113  1  0  0  0
 42114  1  0  0  0
 43 44  1  0  0  0
 44115  1  0  0  0
 45 46  2  0  0  0
 45116  1  0  0  0
 46117  1  0  0  0
 47118  1  0  0  0
 47119  1  0  0  0
 48 56  1  0  0  0
 48 65  1  0  0  0
 48120  1  0  0  0
 49 50  1  0  0  0
 49 53  1  0  0  0
 49 64  1  0  0  0
 49121  1  0  0  0
 50 51  1  0  0  0
 50122  1  0  0  0
 50123  1  0  0  0
 51 52  1  0  0  0
 51124  1  0  0  0
 51125  1  0  0  0
 52126  1  0  0  0
 52127  1  0  0  0
 53 54  1  0  0  0
 54 55  2  0  0  0
 54128  1  0  0  0
 55 57  1  0  0  0
 55129  1  0  0  0
 56 69  2  0  0  0
 57 58  2  0  0  0
 57130  1  0  0  0
 58131  1  0  0  0
 59 60  1  0  0  0
 59 61  1  0  0  0
 59 62  1  0  0  0
 60132  1  0  0  0
 60133  1  0  0  0
 60134  1  0  0  0
 61135  1  0  0  0
 61136  1  0  0  0
 61137  1  0  0  0
 62138  1  0  0  0
 62139  1  0  0  0
 62140  1  0  0  0
 63 65  1  0  0  0
 63141  1  0  0  0
 63142  1  0  0  0
 63143  1  0  0  0
 64144  1  0  0  0
 65145  1  0  0  0
 68 82  1  0  0  0
 71 72  2  0  0  0
 71 74  1  0  0  0
 71146  1  0  0  0
 72 76  1  0  0  0
 72147  1  0  0  0
 73 74  2  0  0  0
 73 75  1  0  0  0
 73148  1  0  0  0
 74 77  1  0  0  0
 75 76  2  0  0  0
 75 84  1  0  0  0
 76 86  1  0  0  0
 77 78  2  0  0  0
 77149  1  0  0  0
 78 79  1  0  0  0
 78150  1  0  0  0
 79 80  1  0  0  0
 79 83  2  0  0  0
 80 82  1  0  0  0
 80 85  2  0  0  0
 81 86  1  0  0  0
 81151  1  0  0  0
 81152  1  0  0  0
 81153  1  0  0  0
 82154  1  0  0  0
 82155  1  0  0  0
 83156  1  0  0  0
 84157  1  0  0  0
M  ISO  4   1 100  68 101  82 101  84 100
M  END
> <chiral flag>
0

> <version>
0

> <s_m_source_file>
/data/baiqing/PycharmProjects/Reinvent-master-3.2/result/LINK_invent/BTK/process_docking_weight1_custom_product_contain_oxygen_bond_distance_aromatic_linkinvent_7_9_3/rearranged_h_0115.sdf

> <i_m_source_file_index>
18

> <r_mmod_Potential_Energy-OPLS-2005>
38.911060333252

> <r_mmod_Stretch_Energy-OPLS-2005>
43.2930030822754

> <r_mmod_Bend_Energy-OPLS-2005>
100.867286682129

> <r_mmod_Torsional_Energy-OPLS-2005>
284.992248535156

> <r_mmod_Improper_Torsional_Energy-OPLS-2005>
5.68152141571045

> <r_mmod_Van_der_Waal_Energy-OPLS-2005>
166.835250854492

> <r_mmod_Electrostatic_Energy-OPLS-2005>
-343.712280273438

> <r_mmod_Solvation_Energy-OPLS-2005>
-236.172714233398

> <b_mmod_Minimization_Converged-OPLS-2005>
0

> <r_mmod_RMS_Derivative-OPLS-2005>
6.01176261901855

$$$$
18
                    3D
 Structure written by MMmdl.
158166  0  0  1  0            999 V2000
  -30.7473  -14.4190   20.4978 C   0  0  0  0  0  0
  -30.3950  -12.2591   19.4311 C   0  0  0  0  0  0
  -29.4803  -12.4818   18.2079 C   0  0  0  0  0  0
  -28.0032  -12.3578   18.6212 C   0  0  0  0  0  0
  -27.6534  -13.2126   19.8690 C   0  0  2  0  0  0
  -28.6948  -13.0338   21.0016 C   0  0  0  0  0  0
  -25.2513  -13.8134   20.5643 C   0  0  0  0  0  0
  -24.1790  -13.0413   20.9231 C   0  0  0  0  0  0
  -24.6355  -11.6885   20.8733 C   0  0  0  0  0  0
  -23.9023  -10.4287   21.0393 C   0  0  0  0  0  0
  -24.3563   -9.4205   21.9166 C   0  0  0  0  0  0
  -23.6274   -8.2218   22.0731 C   0  0  0  0  0  0
  -22.4261   -8.0237   21.3524 C   0  0  0  0  0  0
  -21.9896   -9.0212   20.4633 C   0  0  0  0  0  0
  -22.7197  -10.2116   20.3053 C   0  0  0  0  0  0
  -21.6852   -6.0698   22.5283 C   0  0  0  0  0  0
  -21.4003   -6.5612   23.8204 C   0  0  0  0  0  0
  -21.3674   -5.6775   24.9165 C   0  0  0  0  0  0
  -21.6057   -4.3038   24.7236 C   0  0  0  0  0  0
  -21.8810   -3.8125   23.4359 C   0  0  0  0  0  0
  -21.9185   -4.6926   22.3413 C   0  0  0  0  0  0
  -22.7819  -13.5194   21.1916 C   0  0  0  0  0  0
  -22.1643   -4.2089   21.0994 F   0  0  0  0  0  0
  -21.5678   -3.4540   25.7766 F   0  0  0  0  0  0
  -30.0328  -13.2676   20.4409 N   0  0  0  0  0  0
  -26.2950  -12.9337   20.3311 N   0  0  0  0  0  0
  -25.9283  -11.6485   20.5749 N   0  0  0  0  0  0
  -22.0436  -12.8187   22.0464 N   0  0  0  0  0  0
  -25.4218  -15.1832   20.3931 N   0  0  0  0  0  0
  -31.9129  -14.5113   20.0971 O   0  0  0  0  0  0
  -21.6625   -6.8833   21.4236 O   0  0  0  0  0  0
  -22.3515  -14.5504   20.6763 O   0  0  0  0  0  0
  -24.6153  -31.8703   23.2130 C   0  0  0  0  0  0
  -25.9036  -32.4828   23.8416 C   0  0  1  0  0  0
  -27.2119  -27.4290   20.1034 C   0  0  0  0  0  0
  -25.5909  -33.8632   24.2352 N   0  0  0  0  0  0
  -23.4013  -30.4990   21.5539 C   0  0  2  0  0  0
  -24.8430  -28.9720   20.1085 C   0  0  0  0  0  0
  -22.7406  -29.4689   22.4980 C   0  0  0  0  0  0
  -18.0266  -28.1380   22.8486 C   0  0  0  0  0  0
  -24.1488  -36.7345   23.2631 C   0  0  0  0  0  0
  -25.9295  -30.8374   21.3595 C   0  0  0  0  0  0
  -26.0058  -29.4702   20.7114 C   0  0  0  0  0  0
  -27.1963  -28.7076   20.7056 C   0  0  0  0  0  0
  -26.0394  -26.9587   19.4692 C   0  0  0  0  0  0
  -24.8579  -27.7183   19.4761 C   0  0  0  0  0  0
  -23.6070  -29.8408   20.1641 C   0  0  0  0  0  0
  -25.4093  -36.3137   24.0348 C   0  0  1  0  0  0
  -20.5866  -28.3688   23.1320 C   0  0  2  0  0  0
  -20.6774  -26.9428   22.5416 C   0  0  0  0  0  0
  -19.5747  -26.6406   21.5209 C   0  0  0  0  0  0
  -18.1922  -26.7935   22.1615 C   0  0  0  0  0  0
  -19.1515  -28.8838   23.2912 C   0  0  0  0  0  0
  -18.9433  -30.1440   23.8932 C   0  0  0  0  0  0
  -17.6434  -30.6593   24.0556 C   0  0  0  0  0  0
  -25.9024  -34.9489   23.5154 C   0  0  0  0  0  0
  -16.5324  -29.9090   23.6318 C   0  0  0  0  0  0
  -16.7256  -28.6504   23.0342 C   0  0  0  0  0  0
  -26.4470  -31.6559   25.0711 C   0  0  0  0  0  0
  -25.3753  -31.3602   26.1468 C   0  0  0  0  0  0
  -27.0246  -30.3002   24.6000 C   0  0  0  0  0  0
  -27.6097  -32.4223   25.7478 C   0  0  0  0  0  0
  -27.5588  -37.1822   24.8455 C   0  0  0  0  0  0
  -21.4129  -29.3056   22.3724 N   0  0  0  0  0  0
  -26.4281  -37.3817   23.9430 N   0  0  0  0  0  0
  -24.6690  -31.0816   22.1016 N   0  0  0  0  0  0
  -23.4188  -28.8205   23.3002 O   0  0  0  0  0  0
  -28.3381  -26.6380   20.1565 O   0  0  0  0  0  0
  -26.5591  -34.8946   22.4711 O   0  0  0  0  0  0
  -23.5358  -32.1425   23.7549 O   0  0  0  0  0  0
  -29.0658  -20.0856   21.2823 C   0  0  0  0  0  0
  -31.2331  -18.8930   19.9796 C   0  0  0  0  0  0
  -29.0030  -18.6988   20.9733 C   0  0  0  0  0  0
  -30.1006  -18.1040   20.2918 C   0  0  0  0  0  0
  -30.1854  -20.8809   20.9190 C   0  0  0  0  0  0
  -31.2819  -20.2555   20.2923 C   0  0  0  0  0  0
  -27.1526  -18.1011   22.5429 C   0  0  0  0  0  0
  -27.8181  -17.9228   21.3897 C   0  0  0  0  0  0
  -30.1880  -16.7039   19.8435 C   0  0  0  0  0  0
  -29.3034  -24.4197   20.7060 C   0  0  0  0  0  0
  -28.0533  -25.3025   20.6179 C   0  0  0  0  0  0
  -29.0845  -22.9921   21.2377 C   0  0  0  0  0  0
  -30.0244  -15.6428   20.6769 N   0  0  0  0  0  0
  -30.5073  -16.5354   18.5478 N   0  3  0  0  0  0
  -30.4165  -24.8200   20.3405 O   0  0  0  0  0  0
  -30.2912  -22.2384   21.1382 O   0  0  0  0  0  0
  -32.3792  -20.9785   19.9592 F   0  0  0  0  0  0
  -31.4405  -12.3111   19.1248 H   0  0  0  0  0  0
  -30.2572  -11.2539   19.8365 H   0  0  0  0  0  0
  -29.7098  -11.7532   17.4280 H   0  0  0  0  0  0
  -29.6556  -13.4676   17.7713 H   0  0  0  0  0  0
  -27.8057  -11.3039   18.8292 H   0  0  0  0  0  0
  -27.3554  -12.6343   17.7869 H   0  0  0  0  0  0
  -27.6884  -14.2541   19.5484 H   0  0  0  0  0  0
  -28.6404  -12.0247   21.4144 H   0  0  0  0  0  0
  -28.4797  -13.7080   21.8326 H   0  0  0  0  0  0
  -25.2666   -9.5716   22.4780 H   0  0  0  0  0  0
  -23.9974   -7.4624   22.7459 H   0  0  0  0  0  0
  -21.0816   -8.8739   19.8969 H   0  0  0  0  0  0
  -22.3596  -10.9661   19.6203 H   0  0  0  0  0  0
  -21.1967   -7.6120   23.9695 H   0  0  0  0  0  0
  -21.1524   -6.0499   25.9070 H   0  0  0  0  0  0
  -22.0589   -2.7578   23.2881 H   0  0  0  0  0  0
  -22.3980  -11.9815   22.4873 H   0  0  0  0  0  0
  -21.1038  -13.1213   22.2603 H   0  0  0  0  0  0
  -24.6407  -15.8220   20.4965 H   0  0  0  0  0  0
  -26.1753  -15.5824   19.8537 H   0  0  0  0  0  0
  -26.7109  -32.5563   23.1196 H   0  0  0  0  0  0
  -25.0041  -33.9783   25.0489 H   0  0  0  0  0  0
  -22.6897  -31.3177   21.4243 H   0  0  0  0  0  0
  -23.3755  -35.9672   23.3259 H   0  0  0  0  0  0
  -24.3589  -36.8982   22.2050 H   0  0  0  0  0  0
  -23.7224  -37.6544   23.6634 H   0  0  0  0  0  0
  -26.0195  -31.5939   20.5794 H   0  0  0  0  0  0
  -26.8291  -30.9092   21.9595 H   0  0  0  0  0  0
  -28.0898  -29.0770   21.1889 H   0  0  0  0  0  0
  -26.0224  -26.0053   18.9620 H   0  0  0  0  0  0
  -23.9706  -27.3382   18.9885 H   0  0  0  0  0  0
  -23.7140  -30.6241   19.4131 H   0  0  0  0  0  0
  -22.7280  -29.2669   19.8678 H   0  0  0  0  0  0
  -25.1249  -36.2013   25.0836 H   0  0  0  0  0  0
  -20.9954  -28.3267   24.1442 H   0  0  0  0  0  0
  -20.5715  -26.2287   23.3596 H   0  0  0  0  0  0
  -21.6638  -26.7511   22.1184 H   0  0  0  0  0  0
  -19.6929  -25.6323   21.1231 H   0  0  0  0  0  0
  -19.6695  -27.3233   20.6754 H   0  0  0  0  0  0
  -17.4205  -26.6698   21.4009 H   0  0  0  0  0  0
  -18.0323  -26.0067   22.9003 H   0  0  0  0  0  0
  -19.7896  -30.7243   24.2355 H   0  0  0  0  0  0
  -17.4981  -31.6282   24.5139 H   0  0  0  0  0  0
  -15.5322  -30.2994   23.7630 H   0  0  0  0  0  0
  -15.8659  -28.0836   22.7033 H   0  0  0  0  0  0
  -24.6008  -30.6848   25.7801 H   0  0  0  0  0  0
  -24.8834  -32.2706   26.4904 H   0  0  0  0  0  0
  -25.8155  -30.8812   27.0223 H   0  0  0  0  0  0
  -26.2726  -29.6825   24.1076 H   0  0  0  0  0  0
  -27.4041  -29.7165   25.4392 H   0  0  0  0  0  0
  -27.8569  -30.4304   23.9079 H   0  0  0  0  0  0
  -27.2771  -33.3543   26.2059 H   0  0  0  0  0  0
  -28.3926  -32.6718   25.0301 H   0  0  0  0  0  0
  -28.0727  -31.8297   26.5374 H   0  0  0  0  0  0
  -28.2581  -38.0150   24.7556 H   0  0  0  0  0  0
  -28.1105  -36.2684   24.6192 H   0  0  0  0  0  0
  -27.2323  -37.1396   25.8861 H   0  0  0  0  0  0
  -20.9276  -29.8752   21.6934 H   0  0  0  0  0  0
  -26.0182  -38.2903   24.1430 H   0  0  0  0  0  0
  -28.2271  -20.5419   21.7843 H   0  0  0  0  0  0
  -32.0909  -18.4531   19.4873 H   0  0  0  0  0  0
  -26.2754  -17.5141   22.7784 H   0  0  0  0  0  0
  -27.4666  -18.8275   23.2790 H   0  0  0  0  0  0
  -27.4393  -17.1830   20.6972 H   0  0  0  0  0  0
  -27.5841  -25.3541   21.6039 H   0  0  0  0  0  0
  -27.3578  -24.7875   19.9549 H   0  0  0  0  0  0
  -28.2907  -22.5325   20.6499 H   0  0  0  0  0  0
  -28.7642  -23.0231   22.2810 H   0  0  0  0  0  0
  -29.2474  -15.7283   21.3098 H   0  0  0  0  0  0
  -30.5097  -17.3269   17.9201 H   0  0  0  0  0  0
  -30.8205  -15.6481   18.1913 H   0  0  0  0  0  0
  1 25  1  0  0  0
  1 30  2  0  0  0
  1 83  1  0  0  0
  2  3  1  0  0  0
  2 25  1  0  0  0
  2 88  1  0  0  0
  2 89  1  0  0  0
  3  4  1  0  0  0
  3 90  1  0  0  0
  3 91  1  0  0  0
  4  5  1  0  0  0
  4 92  1  0  0  0
  4 93  1  0  0  0
  5  6  1  0  0  0
  5 26  1  0  0  0
  5 94  1  0  0  0
  6 25  1  0  0  0
  6 95  1  0  0  0
  6 96  1  0  0  0
  7  8  2  0  0  0
  7 26  1  0  0  0
  7 29  1  0  0  0
  8  9  1  0  0  0
  8 22  1  0  0  0
  9 10  1  0  0  0
  9 27  2  0  0  0
 10 11  2  0  0  0
 10 15  1  0  0  0
 11 12  1  0  0  0
 11 97  1  0  0  0
 12 13  2  0  0  0
 12 98  1  0  0  0
 13 14  1  0  0  0
 13 31  1  0  0  0
 14 15  2  0  0  0
 14 99  1  0  0  0
 15100  1  0  0  0
 16 17  2  0  0  0
 16 21  1  0  0  0
 16 31  1  0  0  0
 17 18  1  0  0  0
 17101  1  0  0  0
 18 19  2  0  0  0
 18102  1  0  0  0
 19 20  1  0  0  0
 19 24  1  0  0  0
 20 21  2  0  0  0
 20103  1  0  0  0
 21 23  1  0  0  0
 22 28  1  0  0  0
 22 32  2  0  0  0
 26 27  1  0  0  0
 28104  1  0  0  0
 28105  1  0  0  0
 29106  1  0  0  0
 29107  1  0  0  0
 33 34  1  0  0  0
 33 66  1  0  0  0
 33 70  2  0  0  0
 34 36  1  0  0  0
 34 59  1  0  0  0
 34108  1  0  0  0
 35 44  2  0  0  0
 35 45  1  0  0  0
 35 68  1  0  0  0
 36 56  1  0  0  0
 36109  1  0  0  0
 37 39  1  0  0  0
 37 47  1  0  0  0
 37 66  1  0  0  0
 37110  1  0  0  0
 38 43  2  0  0  0
 38 46  1  0  0  0
 38 47  1  0  0  0
 39 64  1  0  0  0
 39 67  2  0  0  0
 40 52  1  0  0  0
 40 53  2  0  0  0
 40 58  1  0  0  0
 41111  1  0  0  0
 41112  1  0  0  0
 41113  1  0  0  0
 41 48  1  0  0  0
 42 43  1  0  0  0
 42 66  1  0  0  0
 42114  1  0  0  0
 42115  1  0  0  0
 43 44  1  0  0  0
 44116  1  0  0  0
 45 46  2  0  0  0
 45117  1  0  0  0
 46118  1  0  0  0
 47119  1  0  0  0
 47120  1  0  0  0
 48 56  1  0  0  0
 48 65  1  0  0  0
 48121  1  0  0  0
 49 50  1  0  0  0
 49 53  1  0  0  0
 49 64  1  0  0  0
 49122  1  0  0  0
 50 51  1  0  0  0
 50123  1  0  0  0
 50124  1  0  0  0
 51 52  1  0  0  0
 51125  1  0  0  0
 51126  1  0  0  0
 52127  1  0  0  0
 52128  1  0  0  0
 53 54  1  0  0  0
 54 55  2  0  0  0
 54129  1  0  0  0
 55 57  1  0  0  0
 55130  1  0  0  0
 56 69  2  0  0  0
 57 58  2  0  0  0
 57131  1  0  0  0
 58132  1  0  0  0
 59 60  1  0  0  0
 59 61  1  0  0  0
 59 62  1  0  0  0
 60133  1  0  0  0
 60134  1  0  0  0
 60135  1  0  0  0
 61136  1  0  0  0
 61137  1  0  0  0
 61138  1  0  0  0
 62139  1  0  0  0
 62140  1  0  0  0
 62141  1  0  0  0
 63 65  1  0  0  0
 63142  1  0  0  0
 63143  1  0  0  0
 63144  1  0  0  0
 64145  1  0  0  0
 65146  1  0  0  0
 68 81  1  0  0  0
 71 73  2  0  0  0
 71 75  1  0  0  0
 71147  1  0  0  0
 72 74  2  0  0  0
 72 76  1  0  0  0
 72148  1  0  0  0
 73 74  1  0  0  0
 73 78  1  0  0  0
 74 79  1  0  0  0
 75 76  2  0  0  0
 75 86  1  0  0  0
 76 87  1  0  0  0
 77 78  2  0  0  0
 77149  1  0  0  0
 77150  1  0  0  0
 78151  1  0  0  0
 79 83  1  0  0  0
 79 84  2  0  0  0
 80 81  1  0  0  0
 80 82  1  0  0  0
 80 85  2  0  0  0
 81152  1  0  0  0
 81153  1  0  0  0
 82 86  1  0  0  0
 82154  1  0  0  0
 82155  1  0  0  0
 83156  1  0  0  0
 84157  1  0  0  0
 84158  1  0  0  0
M  CHG  1  84   1
M  ISO  4   1 100  68 101  81 101  83 100
M  END
> <chiral flag>
0

> <version>
0

> <s_m_source_file>
/data/baiqing/PycharmProjects/Reinvent-master-3.2/result/LINK_invent/BTK/process_docking_weight1_custom_product_contain_oxygen_bond_distance_aromatic_linkinvent_7_9_3/rearranged_h_0115.sdf

> <i_m_source_file_index>
19

> <r_mmod_Potential_Energy-OPLS-2005>
-160.584548950195

> <r_mmod_Stretch_Energy-OPLS-2005>
37.0262107849121

> <r_mmod_Bend_Energy-OPLS-2005>
104.355293273926

> <r_mmod_Torsional_Energy-OPLS-2005>
301.138305664062

> <r_mmod_Improper_Torsional_Energy-OPLS-2005>
11.4329290390015

> <r_mmod_Van_der_Waal_Energy-OPLS-2005>
164.988525390625

> <r_mmod_Electrostatic_Energy-OPLS-2005>
-325.645202636719

> <r_mmod_Solvation_Energy-OPLS-2005>
-474.333770751953

> <b_mmod_Minimization_Converged-OPLS-2005>
0

> <r_mmod_RMS_Derivative-OPLS-2005>
4.22832775115967

$$$$
19
                    3D
 Structure written by MMmdl.
162170  0  0  1  0            999 V2000
  -30.6343  -14.5379   20.5605 C   0  0  0  0  0  0
  -30.4457  -12.3436   19.4272 C   0  0  0  0  0  0
  -29.5045  -12.5065   18.2101 C   0  0  0  0  0  0
  -28.0253  -12.3479   18.6226 C   0  0  0  0  0  0
  -27.6597  -13.1966   19.8681 C   0  0  2  0  0  0
  -28.7032  -12.9884   20.9912 C   0  0  0  0  0  0
  -25.2600  -13.8135   20.5692 C   0  0  0  0  0  0
  -24.1842  -13.0427   20.9189 C   0  0  0  0  0  0
  -24.6382  -11.6886   20.8728 C   0  0  0  0  0  0
  -23.9033  -10.4283   21.0402 C   0  0  0  0  0  0
  -24.3592   -9.4202   21.9170 C   0  0  0  0  0  0
  -23.6285   -8.2229   22.0726 C   0  0  0  0  0  0
  -22.4269   -8.0253   21.3526 C   0  0  0  0  0  0
  -21.9899   -9.0226   20.4634 C   0  0  0  0  0  0
  -22.7205  -10.2120   20.3048 C   0  0  0  0  0  0
  -21.6849   -6.0723   22.5277 C   0  0  0  0  0  0
  -21.4017   -6.5627   23.8208 C   0  0  0  0  0  0
  -21.3657   -5.6779   24.9171 C   0  0  0  0  0  0
  -21.6044   -4.3041   24.7216 C   0  0  0  0  0  0
  -21.8820   -3.8130   23.4337 C   0  0  0  0  0  0
  -21.9193   -4.6951   22.3394 C   0  0  0  0  0  0
  -22.7856  -13.5230   21.1847 C   0  0  0  0  0  0
  -22.1661   -4.2143   21.0975 F   0  0  0  0  0  0
  -21.5630   -3.4524   25.7729 F   0  0  0  0  0  0
  -30.0249  -13.3257   20.4372 N   0  0  0  0  0  0
  -26.3011  -12.9275   20.3310 N   0  0  0  0  0  0
  -25.9305  -11.6449   20.5745 N   0  0  0  0  0  0
  -22.0490  -12.8234   22.0416 N   0  0  0  0  0  0
  -25.4348  -15.1868   20.4113 N   0  0  0  0  0  0
  -31.7851  -14.7565   20.1719 O   0  0  0  0  0  0
  -21.6617   -6.8860   21.4236 O   0  0  0  0  0  0
  -22.3535  -14.5519   20.6673 O   0  0  0  0  0  0
  -24.6165  -31.8671   23.2077 C   0  0  0  0  0  0
  -25.9061  -32.4811   23.8378 C   0  0  1  0  0  0
  -27.2455  -27.4081   20.0929 C   0  0  0  0  0  0
  -25.5909  -33.8603   24.2295 N   0  0  0  0  0  0
  -23.4041  -30.4875   21.5507 C   0  0  2  0  0  0
  -24.8512  -28.9487   20.1152 C   0  0  0  0  0  0
  -22.7436  -29.4629   22.5008 C   0  0  0  0  0  0
  -18.0264  -28.1353   22.8512 C   0  0  0  0  0  0
  -24.1497  -36.7318   23.2639 C   0  0  0  0  0  0
  -25.9369  -30.8209   21.3667 C   0  0  0  0  0  0
  -26.0124  -29.4543   20.7107 C   0  0  0  0  0  0
  -27.2052  -28.6921   20.6960 C   0  0  0  0  0  0
  -26.0564  -26.9165   19.5049 C   0  0  0  0  0  0
  -24.8718  -27.6802   19.5099 C   0  0  0  0  0  0
  -23.6133  -29.8186   20.1656 C   0  0  0  0  0  0
  -25.4114  -36.3101   24.0336 C   0  0  1  0  0  0
  -20.5866  -28.3647   23.1343 C   0  0  2  0  0  0
  -20.6761  -26.9381   22.5436 C   0  0  0  0  0  0
  -19.5717  -26.6373   21.5245 C   0  0  0  0  0  0
  -18.1895  -26.7895   22.1651 C   0  0  0  0  0  0
  -19.1518  -28.8817   23.2915 C   0  0  0  0  0  0
  -18.9439  -30.1425   23.8916 C   0  0  0  0  0  0
  -17.6441  -30.6569   24.0554 C   0  0  0  0  0  0
  -25.9052  -34.9471   23.5114 C   0  0  0  0  0  0
  -16.5329  -29.9071   23.6319 C   0  0  0  0  0  0
  -16.7251  -28.6483   23.0352 C   0  0  0  0  0  0
  -26.4452  -31.6601   25.0722 C   0  0  0  0  0  0
  -25.3720  -31.3745   26.1481 C   0  0  0  0  0  0
  -27.0247  -30.3012   24.6134 C   0  0  0  0  0  0
  -27.6005  -32.4350   25.7479 C   0  0  0  0  0  0
  -27.5584  -37.1808   24.8454 C   0  0  0  0  0  0
  -21.4163  -29.3010   22.3754 N   0  0  0  0  0  0
  -26.4289  -37.3801   23.9414 N   0  0  0  0  0  0
  -24.6701  -31.0766   22.0972 N   0  0  0  0  0  0
  -23.4218  -28.8188   23.3053 O   0  0  0  0  0  0
  -28.4418  -26.7028   20.1114 O   0  0  0  0  0  0
  -26.5628  -34.8934   22.4679 O   0  0  0  0  0  0
  -23.5368  -32.1413   23.7496 O   0  0  0  0  0  0
  -29.7626  -17.9880   20.4593 C   0  0  0  0  0  0
  -30.2242  -19.5405   22.2796 C   0  0  0  0  0  0
  -29.8449  -19.3323   20.9356 C   0  0  0  0  0  0
  -30.0490  -16.8826   21.3084 C   0  0  0  0  0  0
  -30.5250  -18.4561   23.1385 C   0  0  0  0  0  0
  -30.4011  -17.1306   22.6530 C   0  0  0  0  0  0
  -28.8925  -22.8374   19.9118 C   0  0  0  0  0  0
  -29.5179  -20.5341   20.0767 C   0  0  0  0  0  0
  -31.6799  -19.7347   24.8339 C   0  0  0  0  0  0
  -29.4649  -15.8201   24.3373 C   0  0  0  0  0  0
  -28.5079  -24.2006   20.5185 C   0  0  0  0  0  0
  -28.5851  -25.3915   19.5123 C   0  0  0  0  0  0
  -29.1512  -21.7680   20.5905 N   0  0  0  0  0  0
  -29.7804  -15.5307   20.9050 N   0  0  0  0  0  0
  -29.6352  -20.3629   18.7936 N   0  3  0  0  0  0
  -30.8725  -18.6175   24.4639 O   0  0  0  0  0  0
  -30.5844  -16.0642   23.4951 O   0  0  0  0  0  0
  -31.4863  -12.4819   19.1285 H   0  0  0  0  0  0
  -30.3864  -11.3327   19.8352 H   0  0  0  0  0  0
  -29.7551  -11.7798   17.4358 H   0  0  0  0  0  0
  -29.6524  -13.4907   17.7616 H   0  0  0  0  0  0
  -27.8531  -11.2926   18.8377 H   0  0  0  0  0  0
  -27.3693  -12.5980   17.7879 H   0  0  0  0  0  0
  -27.6964  -14.2392   19.5512 H   0  0  0  0  0  0
  -28.6976  -11.9527   21.3361 H   0  0  0  0  0  0
  -28.4610  -13.5843   21.8717 H   0  0  0  0  0  0
  -25.2742   -9.5679   22.4728 H   0  0  0  0  0  0
  -24.0003   -7.4617   22.7437 H   0  0  0  0  0  0
  -21.0821   -8.8735   19.8955 H   0  0  0  0  0  0
  -22.3645  -10.9648   19.6149 H   0  0  0  0  0  0
  -21.2010   -7.6139   23.9720 H   0  0  0  0  0  0
  -21.1485   -6.0502   25.9084 H   0  0  0  0  0  0
  -22.0608   -2.7595   23.2828 H   0  0  0  0  0  0
  -22.4094  -11.9898   22.4836 H   0  0  0  0  0  0
  -21.1099  -13.1269   22.2613 H   0  0  0  0  0  0
  -24.6658  -15.8412   20.5108 H   0  0  0  0  0  0
  -26.2740  -15.6199   20.0478 H   0  0  0  0  0  0
  -26.7145  -32.5503   23.1158 H   0  0  0  0  0  0
  -25.0033  -33.9774   25.0416 H   0  0  0  0  0  0
  -22.6884  -31.3011   21.4141 H   0  0  0  0  0  0
  -23.3766  -35.9647   23.3287 H   0  0  0  0  0  0
  -24.3605  -36.8949   22.2062 H   0  0  0  0  0  0
  -23.7250  -37.6514   23.6667 H   0  0  0  0  0  0
  -26.0682  -31.5922   20.6063 H   0  0  0  0  0  0
  -26.8173  -30.8647   21.9959 H   0  0  0  0  0  0
  -28.0998  -29.0867   21.1583 H   0  0  0  0  0  0
  -26.0110  -25.9431   19.0427 H   0  0  0  0  0  0
  -23.9773  -27.2815   19.0511 H   0  0  0  0  0  0
  -23.7241  -30.5941   19.4066 H   0  0  0  0  0  0
  -22.7342  -29.2439   19.8686 H   0  0  0  0  0  0
  -25.1293  -36.1950   25.0831 H   0  0  0  0  0  0
  -20.9951  -28.3217   24.1468 H   0  0  0  0  0  0
  -20.5710  -26.2245   23.3624 H   0  0  0  0  0  0
  -21.6614  -26.7439   22.1183 H   0  0  0  0  0  0
  -19.6879  -25.6309   21.1210 H   0  0  0  0  0  0
  -19.6634  -27.3240   20.6819 H   0  0  0  0  0  0
  -17.4177  -26.6677   21.4035 H   0  0  0  0  0  0
  -18.0257  -26.0016   22.9013 H   0  0  0  0  0  0
  -19.7914  -30.7222   24.2306 H   0  0  0  0  0  0
  -17.4994  -31.6249   24.5147 H   0  0  0  0  0  0
  -15.5329  -30.2971   23.7633 H   0  0  0  0  0  0
  -15.8648  -28.0808   22.7058 H   0  0  0  0  0  0
  -24.5878  -30.7088   25.7853 H   0  0  0  0  0  0
  -24.8934  -32.2921   26.4916 H   0  0  0  0  0  0
  -25.8091  -30.8934   27.0242 H   0  0  0  0  0  0
  -26.2778  -29.6825   24.1138 H   0  0  0  0  0  0
  -27.3902  -29.7204   25.4617 H   0  0  0  0  0  0
  -27.8684  -30.4268   23.9342 H   0  0  0  0  0  0
  -27.2564  -33.3626   26.2072 H   0  0  0  0  0  0
  -28.3786  -32.6976   25.0298 H   0  0  0  0  0  0
  -28.0703  -31.8486   26.5385 H   0  0  0  0  0  0
  -28.2591  -38.0117   24.7523 H   0  0  0  0  0  0
  -28.1084  -36.2652   24.6228 H   0  0  0  0  0  0
  -27.2316  -37.1401   25.8859 H   0  0  0  0  0  0
  -20.9347  -29.8744   21.6974 H   0  0  0  0  0  0
  -26.0169  -38.2876   24.1412 H   0  0  0  0  0  0
  -29.4276  -17.7948   19.4534 H   0  0  0  0  0  0
  -30.2512  -20.5538   22.6458 H   0  0  0  0  0  0
  -28.9381  -22.8571   18.8188 H   0  0  0  0  0  0
  -31.2697  -20.1995   25.7297 H   0  0  0  0  0  0
  -31.7977  -20.5166   24.0858 H   0  0  0  0  0  0
  -32.6811  -19.3801   25.0798 H   0  0  0  0  0  0
  -29.5569  -14.8394   24.8035 H   0  0  0  0  0  0
  -28.5321  -15.8249   23.7699 H   0  0  0  0  0  0
  -29.3918  -16.5634   25.1321 H   0  0  0  0  0  0
  -29.1758  -24.3970   21.3577 H   0  0  0  0  0  0
  -27.5006  -24.1311   20.9285 H   0  0  0  0  0  0
  -27.9258  -25.2360   18.6608 H   0  0  0  0  0  0
  -29.5826  -25.3878   19.0692 H   0  0  0  0  0  0
  -28.8460  -15.1999   21.0909 H   0  0  0  0  0  0
  -29.9669  -19.4901   18.3900 H   0  0  0  0  0  0
  -29.4455  -21.0852   18.1074 H   0  0  0  0  0  0
  1 25  1  0  0  0
  1 30  2  0  0  0
  1 84  1  0  0  0
  2  3  1  0  0  0
  2 25  1  0  0  0
  2 88  1  0  0  0
  2 89  1  0  0  0
  3  4  1  0  0  0
  3 90  1  0  0  0
  3 91  1  0  0  0
  4  5  1  0  0  0
  4 92  1  0  0  0
  4 93  1  0  0  0
  5  6  1  0  0  0
  5 26  1  0  0  0
  5 94  1  0  0  0
  6 25  1  0  0  0
  6 95  1  0  0  0
  6 96  1  0  0  0
  7  8  2  0  0  0
  7 26  1  0  0  0
  7 29  1  0  0  0
  8  9  1  0  0  0
  8 22  1  0  0  0
  9 10  1  0  0  0
  9 27  2  0  0  0
 10 11  2  0  0  0
 10 15  1  0  0  0
 11 12  1  0  0  0
 11 97  1  0  0  0
 12 13  2  0  0  0
 12 98  1  0  0  0
 13 14  1  0  0  0
 13 31  1  0  0  0
 14 15  2  0  0  0
 14 99  1  0  0  0
 15100  1  0  0  0
 16 17  2  0  0  0
 16 21  1  0  0  0
 16 31  1  0  0  0
 17 18  1  0  0  0
 17101  1  0  0  0
 18 19  2  0  0  0
 18102  1  0  0  0
 19 20  1  0  0  0
 19 24  1  0  0  0
 20 21  2  0  0  0
 20103  1  0  0  0
 21 23  1  0  0  0
 22 28  1  0  0  0
 22 32  2  0  0  0
 26 27  1  0  0  0
 28104  1  0  0  0
 28105  1  0  0  0
 29106  1  0  0  0
 29107  1  0  0  0
 33 34  1  0  0  0
 33 66  1  0  0  0
 33 70  2  0  0  0
 34 36  1  0  0  0
 34 59  1  0  0  0
 34108  1  0  0  0
 35 44  2  0  0  0
 35 45  1  0  0  0
 35 68  1  0  0  0
 36 56  1  0  0  0
 36109  1  0  0  0
 37 39  1  0  0  0
 37 47  1  0  0  0
 37 66  1  0  0  0
 37110  1  0  0  0
 38 43  2  0  0  0
 38 46  1  0  0  0
 38 47  1  0  0  0
 39 64  1  0  0  0
 39 67  2  0  0  0
 40 52  1  0  0  0
 40 53  2  0  0  0
 40 58  1  0  0  0
 41111  1  0  0  0
 41112  1  0  0  0
 41113  1  0  0  0
 41 48  1  0  0  0
 42 43  1  0  0  0
 42 66  1  0  0  0
 42114  1  0  0  0
 42115  1  0  0  0
 43 44  1  0  0  0
 44116  1  0  0  0
 45 46  2  0  0  0
 45117  1  0  0  0
 46118  1  0  0  0
 47119  1  0  0  0
 47120  1  0  0  0
 48 56  1  0  0  0
 48 65  1  0  0  0
 48121  1  0  0  0
 49 50  1  0  0  0
 49 53  1  0  0  0
 49 64  1  0  0  0
 49122  1  0  0  0
 50 51  1  0  0  0
 50123  1  0  0  0
 50124  1  0  0  0
 51 52  1  0  0  0
 51125  1  0  0  0
 51126  1  0  0  0
 52127  1  0  0  0
 52128  1  0  0  0
 53 54  1  0  0  0
 54 55  2  0  0  0
 54129  1  0  0  0
 55 57  1  0  0  0
 55130  1  0  0  0
 56 69  2  0  0  0
 57 58  2  0  0  0
 57131  1  0  0  0
 58132  1  0  0  0
 59 60  1  0  0  0
 59 61  1  0  0  0
 59 62  1  0  0  0
 60133  1  0  0  0
 60134  1  0  0  0
 60135  1  0  0  0
 61136  1  0  0  0
 61137  1  0  0  0
 61138  1  0  0  0
 62139  1  0  0  0
 62140  1  0  0  0
 62141  1  0  0  0
 63 65  1  0  0  0
 63142  1  0  0  0
 63143  1  0  0  0
 63144  1  0  0  0
 64145  1  0  0  0
 65146  1  0  0  0
 68 82  1  0  0  0
 71 73  2  0  0  0
 71 74  1  0  0  0
 71147  1  0  0  0
 72 73  1  0  0  0
 72 75  2  0  0  0
 72148  1  0  0  0
 73 78  1  0  0  0
 74 76  2  0  0  0
 74 84  1  0  0  0
 75 76  1  0  0  0
 75 86  1  0  0  0
 76 87  1  0  0  0
 77 81  1  0  0  0
 77 83  2  0  0  0
 77149  1  0  0  0
 78 83  1  0  0  0
 78 85  2  0  0  0
 79 86  1  0  0  0
 79150  1  0  0  0
 79151  1  0  0  0
 79152  1  0  0  0
 80 87  1  0  0  0
 80153  1  0  0  0
 80154  1  0  0  0
 80155  1  0  0  0
 81 82  1  0  0  0
 81156  1  0  0  0
 81157  1  0  0  0
 82158  1  0  0  0
 82159  1  0  0  0
 84160  1  0  0  0
 85161  1  0  0  0
 85162  1  0  0  0
M  CHG  1  85   1
M  ISO  4   1 100  68 101  82 101  84 100
M  END
> <chiral flag>
0

> <version>
0

> <s_m_source_file>
/data/baiqing/PycharmProjects/Reinvent-master-3.2/result/LINK_invent/BTK/process_docking_weight1_custom_product_contain_oxygen_bond_distance_aromatic_linkinvent_7_9_3/rearranged_h_0115.sdf

> <i_m_source_file_index>
20

> <r_mmod_Potential_Energy-OPLS-2005>
-1.55150842666626

> <r_mmod_Stretch_Energy-OPLS-2005>
55.7840232849121

> <r_mmod_Bend_Energy-OPLS-2005>
131.885223388672

> <r_mmod_Torsional_Energy-OPLS-2005>
276.956909179688

> <r_mmod_Improper_Torsional_Energy-OPLS-2005>
7.80572462081909

> <r_mmod_Van_der_Waal_Energy-OPLS-2005>
165.642456054688

> <r_mmod_Electrostatic_Energy-OPLS-2005>
-172.626831054688

> <r_mmod_Solvation_Energy-OPLS-2005>
-487.997467041016

> <b_mmod_Minimization_Converged-OPLS-2005>
0

> <r_mmod_RMS_Derivative-OPLS-2005>
2.78607177734375

$$$$
20
                    3D
 Structure written by MMmdl.
155163  0  0  1  0            999 V2000
  -30.6364  -14.7095   20.5771 C   0  0  0  0  0  0
  -30.4426  -12.4623   19.4713 C   0  0  0  0  0  0
  -29.5110  -12.5403   18.2407 C   0  0  0  0  0  0
  -28.0352  -12.3671   18.6472 C   0  0  0  0  0  0
  -27.6556  -13.2270   19.8792 C   0  0  2  0  0  0
  -28.6971  -13.0827   21.0091 C   0  0  0  0  0  0
  -25.2515  -13.8149   20.5631 C   0  0  0  0  0  0
  -24.1815  -13.0418   20.9202 C   0  0  0  0  0  0
  -24.6412  -11.6901   20.8758 C   0  0  0  0  0  0
  -23.9078  -10.4283   21.0416 C   0  0  0  0  0  0
  -24.3629   -9.4197   21.9189 C   0  0  0  0  0  0
  -23.6304   -8.2229   22.0753 C   0  0  0  0  0  0
  -22.4290   -8.0269   21.3541 C   0  0  0  0  0  0
  -21.9926   -9.0239   20.4646 C   0  0  0  0  0  0
  -22.7251  -10.2122   20.3059 C   0  0  0  0  0  0
  -21.6858   -6.0731   22.5280 C   0  0  0  0  0  0
  -21.4019   -6.5644   23.8212 C   0  0  0  0  0  0
  -21.3658   -5.6801   24.9179 C   0  0  0  0  0  0
  -21.6046   -4.3058   24.7235 C   0  0  0  0  0  0
  -21.8821   -3.8148   23.4356 C   0  0  0  0  0  0
  -21.9203   -4.6962   22.3413 C   0  0  0  0  0  0
  -22.7845  -13.5206   21.1877 C   0  0  0  0  0  0
  -22.1673   -4.2146   21.0990 F   0  0  0  0  0  0
  -21.5630   -3.4546   25.7743 F   0  0  0  0  0  0
  -30.0088  -13.4781   20.4646 N   0  0  0  0  0  0
  -26.3003  -12.9377   20.3389 N   0  0  0  0  0  0
  -25.9362  -11.6521   20.5819 N   0  0  0  0  0  0
  -22.0490  -12.8174   22.0419 N   0  0  0  0  0  0
  -25.4111  -15.1832   20.3825 N   0  0  0  0  0  0
  -31.7112  -14.9096   20.0007 O   0  0  0  0  0  0
  -21.6657   -6.8868   21.4235 O   0  0  0  0  0  0
  -22.3528  -14.5517   20.6738 O   0  0  0  0  0  0
  -24.6323  -31.8577   23.1970 C   0  0  0  0  0  0
  -25.9151  -32.4770   23.8335 C   0  0  1  0  0  0
  -27.2329  -27.2809   20.1370 C   0  0  0  0  0  0
  -25.5970  -33.8568   24.2272 N   0  0  0  0  0  0
  -23.4306  -30.4741   21.5405 C   0  0  2  0  0  0
  -24.8846  -28.9214   20.1115 C   0  0  0  0  0  0
  -22.7517  -29.4594   22.4920 C   0  0  0  0  0  0
  -18.0289  -28.1389   22.8459 C   0  0  0  0  0  0
  -24.1490  -36.7287   23.2623 C   0  0  0  0  0  0
  -25.9735  -30.7757   21.3738 C   0  0  0  0  0  0
  -26.0534  -29.3963   20.7231 C   0  0  0  0  0  0
  -27.2344  -28.5855   20.7300 C   0  0  0  0  0  0
  -26.0487  -26.8681   19.4932 C   0  0  0  0  0  0
  -24.8860  -27.6647   19.4844 C   0  0  0  0  0  0
  -23.6510  -29.8023   20.1585 C   0  0  0  0  0  0
  -25.4114  -36.3080   24.0315 C   0  0  1  0  0  0
  -20.5890  -28.3718   23.1247 C   0  0  2  0  0  0
  -20.6762  -26.9438   22.5400 C   0  0  0  0  0  0
  -19.5750  -26.6386   21.5192 C   0  0  0  0  0  0
  -18.1926  -26.7929   22.1597 C   0  0  0  0  0  0
  -19.1543  -28.8867   23.2839 C   0  0  0  0  0  0
  -18.9467  -30.1460   23.8878 C   0  0  0  0  0  0
  -17.6466  -30.6590   24.0556 C   0  0  0  0  0  0
  -25.9061  -34.9443   23.5084 C   0  0  0  0  0  0
  -16.5355  -29.9090   23.6325 C   0  0  0  0  0  0
  -16.7277  -28.6505   23.0345 C   0  0  0  0  0  0
  -26.4525  -31.6568   25.0705 C   0  0  0  0  0  0
  -25.3740  -31.3741   26.1419 C   0  0  0  0  0  0
  -27.0321  -30.2964   24.6161 C   0  0  0  0  0  0
  -27.6103  -32.4272   25.7484 C   0  0  0  0  0  0
  -27.5583  -37.1795   24.8461 C   0  0  0  0  0  0
  -21.4230  -29.3059   22.3648 N   0  0  0  0  0  0
  -26.4297  -37.3777   23.9411 N   0  0  0  0  0  0
  -24.6973  -31.0540   22.0941 N   0  0  0  0  0  0
  -23.4190  -28.8157   23.3054 O   0  0  0  0  0  0
  -28.2806  -26.3394   20.1856 O   0  0  0  0  0  0
  -26.5630  -34.8918   22.4657 O   0  0  0  0  0  0
  -23.5465  -32.1413   23.7251 O   0  0  0  0  0  0
  -30.5441  -18.2447   20.5314 C   0  0  0  0  0  0
  -30.2842  -19.6653   20.4574 C   0  0  0  0  0  0
  -28.2258  -19.3200   21.6036 C   0  0  0  0  0  0
  -29.6704  -17.3032   21.1679 C   0  0  0  0  0  0
  -28.4514  -17.9025   21.6525 C   0  0  0  0  0  0
  -29.1218  -20.2586   21.0323 C   0  0  0  0  0  0
  -26.5878  -17.4522   23.2978 C   0  0  0  0  0  0
  -27.4160  -17.0724   22.3100 C   0  0  0  0  0  0
  -28.2317  -25.4220   21.2560 C   0  0  0  0  0  0
  -30.0527  -15.8208   21.5545 C   0  0  0  0  0  0
  -28.4743  -24.0656   21.4755 C   0  0  0  0  0  0
  -28.9110  -22.9112   20.5964 C   0  0  0  0  0  0
  -29.9277  -15.4942   22.7767 N   0  0  0  0  0  0
  -28.8566  -21.7001   21.2695 N   0  0  0  0  0  0
  -29.2742  -23.0022   19.4217 O   0  0  0  0  0  0
  -28.2749  -23.7094   22.7609 O   0  0  0  0  0  0
  -31.4791  -12.6048   19.1619 H   0  0  0  0  0  0
  -30.4072  -11.4661   19.9142 H   0  0  0  0  0  0
  -29.7872  -11.7773   17.5124 H   0  0  0  0  0  0
  -29.6445  -13.5005   17.7405 H   0  0  0  0  0  0
  -27.8746  -11.3116   18.8696 H   0  0  0  0  0  0
  -27.3810  -12.6066   17.8079 H   0  0  0  0  0  0
  -27.6754  -14.2679   19.5560 H   0  0  0  0  0  0
  -28.7356  -12.0529   21.3683 H   0  0  0  0  0  0
  -28.3935  -13.6737   21.8705 H   0  0  0  0  0  0
  -25.2765   -9.5682   22.4775 H   0  0  0  0  0  0
  -24.0022   -7.4619   22.7459 H   0  0  0  0  0  0
  -21.0868   -8.8743   19.8940 H   0  0  0  0  0  0
  -22.3700  -10.9664   19.6175 H   0  0  0  0  0  0
  -21.2003   -7.6151   23.9713 H   0  0  0  0  0  0
  -21.1488   -6.0536   25.9082 H   0  0  0  0  0  0
  -22.0604   -2.7610   23.2863 H   0  0  0  0  0  0
  -22.4122  -11.9826   22.4767 H   0  0  0  0  0  0
  -21.1106  -13.1178   22.2641 H   0  0  0  0  0  0
  -24.6433  -15.8336   20.5055 H   0  0  0  0  0  0
  -26.2456  -15.6224   20.0168 H   0  0  0  0  0  0
  -26.7224  -32.5433   23.1089 H   0  0  0  0  0  0
  -25.0167  -33.9732   25.0450 H   0  0  0  0  0  0
  -22.7259  -31.2942   21.3903 H   0  0  0  0  0  0
  -23.3762  -35.9616   23.3302 H   0  0  0  0  0  0
  -24.3586  -36.8894   22.2039 H   0  0  0  0  0  0
  -23.7223  -37.6476   23.6640 H   0  0  0  0  0  0
  -26.0991  -31.5314   20.5973 H   0  0  0  0  0  0
  -26.8562  -30.8383   21.9985 H   0  0  0  0  0  0
  -28.1297  -28.9375   21.2242 H   0  0  0  0  0  0
  -26.0178  -25.8902   19.0298 H   0  0  0  0  0  0
  -23.9920  -27.2934   19.0024 H   0  0  0  0  0  0
  -23.7673  -30.5773   19.3995 H   0  0  0  0  0  0
  -22.7729  -29.2271   19.8560 H   0  0  0  0  0  0
  -25.1285  -36.1936   25.0805 H   0  0  0  0  0  0
  -20.9953  -28.3304   24.1376 H   0  0  0  0  0  0
  -20.5634  -26.2360   23.3627 H   0  0  0  0  0  0
  -21.6629  -26.7437   22.1216 H   0  0  0  0  0  0
  -19.6938  -25.6291   21.1233 H   0  0  0  0  0  0
  -19.6684  -27.3180   20.6705 H   0  0  0  0  0  0
  -17.4196  -26.6677   21.3996 H   0  0  0  0  0  0
  -18.0348  -26.0078   22.9001 H   0  0  0  0  0  0
  -19.7945  -30.7262   24.2271 H   0  0  0  0  0  0
  -17.5020  -31.6267   24.5171 H   0  0  0  0  0  0
  -15.5351  -30.2996   23.7647 H   0  0  0  0  0  0
  -15.8679  -28.0813   22.7093 H   0  0  0  0  0  0
  -24.5972  -30.7021   25.7761 H   0  0  0  0  0  0
  -24.8873  -32.2912   26.4731 H   0  0  0  0  0  0
  -25.8056  -30.9014   27.0252 H   0  0  0  0  0  0
  -26.2874  -29.6748   24.1165 H   0  0  0  0  0  0
  -27.3970  -29.7191   25.4672 H   0  0  0  0  0  0
  -27.8789  -30.4229   23.9410 H   0  0  0  0  0  0
  -27.2759  -33.3615   26.2014 H   0  0  0  0  0  0
  -28.3959  -32.6738   25.0326 H   0  0  0  0  0  0
  -28.0720  -31.8393   26.5433 H   0  0  0  0  0  0
  -28.2587  -38.0098   24.7495 H   0  0  0  0  0  0
  -28.1084  -36.2623   24.6295 H   0  0  0  0  0  0
  -27.2315  -37.1449   25.8866 H   0  0  0  0  0  0
  -20.9478  -29.8795   21.6829 H   0  0  0  0  0  0
  -26.0178  -38.2851   24.1412 H   0  0  0  0  0  0
  -31.4891  -17.8831   20.1520 H   0  0  0  0  0  0
  -31.0391  -20.3067   20.0260 H   0  0  0  0  0  0
  -27.3223  -19.7126   22.0480 H   0  0  0  0  0  0
  -25.8548  -16.7590   23.6876 H   0  0  0  0  0  0
  -26.6231  -18.4364   23.7410 H   0  0  0  0  0  0
  -27.3048  -16.0631   21.9396 H   0  0  0  0  0  0
  -27.9158  -25.9888   22.1232 H   0  0  0  0  0  0
  -29.5556  -16.2696   23.3112 H   0  0  0  0  0  0
  -28.4542  -21.8879   22.1809 H   0  0  0  0  0  0
  -28.0353  -24.4906   23.2405 H   0  0  0  0  0  0
  1 25  1  0  0  0
  1 30  2  0  0  0
  1 80  1  0  0  0
  2  3  1  0  0  0
  2 25  1  0  0  0
  2 87  1  0  0  0
  2 88  1  0  0  0
  3  4  1  0  0  0
  3 89  1  0  0  0
  3 90  1  0  0  0
  4  5  1  0  0  0
  4 91  1  0  0  0
  4 92  1  0  0  0
  5  6  1  0  0  0
  5 26  1  0  0  0
  5 93  1  0  0  0
  6 25  1  0  0  0
  6 94  1  0  0  0
  6 95  1  0  0  0
  7  8  2  0  0  0
  7 26  1  0  0  0
  7 29  1  0  0  0
  8  9  1  0  0  0
  8 22  1  0  0  0
  9 10  1  0  0  0
  9 27  2  0  0  0
 10 11  2  0  0  0
 10 15  1  0  0  0
 11 12  1  0  0  0
 11 96  1  0  0  0
 12 13  2  0  0  0
 12 97  1  0  0  0
 13 14  1  0  0  0
 13 31  1  0  0  0
 14 15  2  0  0  0
 14 98  1  0  0  0
 15 99  1  0  0  0
 16 17  2  0  0  0
 16 21  1  0  0  0
 16 31  1  0  0  0
 17 18  1  0  0  0
 17100  1  0  0  0
 18 19  2  0  0  0
 18101  1  0  0  0
 19 20  1  0  0  0
 19 24  1  0  0  0
 20 21  2  0  0  0
 20102  1  0  0  0
 21 23  1  0  0  0
 22 28  1  0  0  0
 22 32  2  0  0  0
 26 27  1  0  0  0
 28103  1  0  0  0
 28104  1  0  0  0
 29105  1  0  0  0
 29106  1  0  0  0
 33 34  1  0  0  0
 33 66  1  0  0  0
 33 70  2  0  0  0
 34 36  1  0  0  0
 34 59  1  0  0  0
 34107  1  0  0  0
 35 44  2  0  0  0
 35 45  1  0  0  0
 35 68  1  0  0  0
 36 56  1  0  0  0
 36108  1  0  0  0
 37 39  1  0  0  0
 37 47  1  0  0  0
 37 66  1  0  0  0
 37109  1  0  0  0
 38 43  2  0  0  0
 38 46  1  0  0  0
 38 47  1  0  0  0
 39 64  1  0  0  0
 39 67  2  0  0  0
 40 52  1  0  0  0
 40 53  2  0  0  0
 40 58  1  0  0  0
 41110  1  0  0  0
 41111  1  0  0  0
 41112  1  0  0  0
 41 48  1  0  0  0
 42 43  1  0  0  0
 42 66  1  0  0  0
 42113  1  0  0  0
 42114  1  0  0  0
 43 44  1  0  0  0
 44115  1  0  0  0
 45 46  2  0  0  0
 45116  1  0  0  0
 46117  1  0  0  0
 47118  1  0  0  0
 47119  1  0  0  0
 48 56  1  0  0  0
 48 65  1  0  0  0
 48120  1  0  0  0
 49 50  1  0  0  0
 49 53  1  0  0  0
 49 64  1  0  0  0
 49121  1  0  0  0
 50 51  1  0  0  0
 50122  1  0  0  0
 50123  1  0  0  0
 51 52  1  0  0  0
 51124  1  0  0  0
 51125  1  0  0  0
 52126  1  0  0  0
 52127  1  0  0  0
 53 54  1  0  0  0
 54 55  2  0  0  0
 54128  1  0  0  0
 55 57  1  0  0  0
 55129  1  0  0  0
 56 69  2  0  0  0
 57 58  2  0  0  0
 57130  1  0  0  0
 58131  1  0  0  0
 59 60  1  0  0  0
 59 61  1  0  0  0
 59 62  1  0  0  0
 60132  1  0  0  0
 60133  1  0  0  0
 60134  1  0  0  0
 61135  1  0  0  0
 61136  1  0  0  0
 61137  1  0  0  0
 62138  1  0  0  0
 62139  1  0  0  0
 62140  1  0  0  0
 63 65  1  0  0  0
 63141  1  0  0  0
 63142  1  0  0  0
 63143  1  0  0  0
 64144  1  0  0  0
 65145  1  0  0  0
 68 79  1  0  0  0
 71 72  2  0  0  0
 71 74  1  0  0  0
 71146  1  0  0  0
 72 76  1  0  0  0
 72147  1  0  0  0
 73 75  1  0  0  0
 73 76  2  0  0  0
 73148  1  0  0  0
 74 75  2  0  0  0
 74 80  1  0  0  0
 75 78  1  0  0  0
 76 84  1  0  0  0
 77 78  2  0  0  0
 77149  1  0  0  0
 77150  1  0  0  0
 78151  1  0  0  0
 79 81  2  0  0  0
 79152  1  0  0  0
 80 83  2  0  0  0
 81 82  1  0  0  0
 81 86  1  0  0  0
 82 84  1  0  0  0
 82 85  2  0  0  0
 83153  1  0  0  0
 84154  1  0  0  0
 86155  1  0  0  0
M  ISO  4   1 100  68 101  79 101  80 100
M  END
> <chiral flag>
0

> <version>
0

> <s_m_source_file>
/data/baiqing/PycharmProjects/Reinvent-master-3.2/result/LINK_invent/BTK/process_docking_weight1_custom_product_contain_oxygen_bond_distance_aromatic_linkinvent_7_9_3/rearranged_h_0115.sdf

> <i_m_source_file_index>
21

> <r_mmod_Potential_Energy-OPLS-2005>
389.971343994141

> <r_mmod_Stretch_Energy-OPLS-2005>
123.876518249512

> <r_mmod_Bend_Energy-OPLS-2005>
246.184204101562

> <r_mmod_Torsional_Energy-OPLS-2005>
255.647018432617

> <r_mmod_Improper_Torsional_Energy-OPLS-2005>
5.78065061569214

> <r_mmod_Van_der_Waal_Energy-OPLS-2005>
150.378540039062

> <r_mmod_Electrostatic_Energy-OPLS-2005>
-248.768356323242

> <r_mmod_Solvation_Energy-OPLS-2005>
-219.605987548828

> <b_mmod_Minimization_Converged-OPLS-2005>
0

> <r_mmod_RMS_Derivative-OPLS-2005>
3.05803894996643

$$$$
21
                    3D
 Structure written by MMmdl.
155163  0  0  1  0            999 V2000
  -30.5753  -14.8006   20.4900 C   0  0  0  0  0  0
  -30.4469  -12.4988   19.4829 C   0  0  0  0  0  0
  -29.5197  -12.5489   18.2434 C   0  0  0  0  0  0
  -28.0414  -12.3642   18.6398 C   0  0  0  0  0  0
  -27.6484  -13.2286   19.8667 C   0  0  2  0  0  0
  -28.6926  -13.0910   20.9925 C   0  0  0  0  0  0
  -25.2520  -13.8166   20.5667 C   0  0  0  0  0  0
  -24.1800  -13.0427   20.9181 C   0  0  0  0  0  0
  -24.6393  -11.6907   20.8728 C   0  0  0  0  0  0
  -23.9067  -10.4289   21.0395 C   0  0  0  0  0  0
  -24.3624   -9.4208   21.9175 C   0  0  0  0  0  0
  -23.6297   -8.2248   22.0750 C   0  0  0  0  0  0
  -22.4274   -8.0290   21.3545 C   0  0  0  0  0  0
  -21.9906   -9.0258   20.4642 C   0  0  0  0  0  0
  -22.7235  -10.2137   20.3052 C   0  0  0  0  0  0
  -21.6851   -6.0741   22.5282 C   0  0  0  0  0  0
  -21.4010   -6.5642   23.8215 C   0  0  0  0  0  0
  -21.3664   -5.6795   24.9176 C   0  0  0  0  0  0
  -21.6046   -4.3058   24.7228 C   0  0  0  0  0  0
  -21.8811   -3.8151   23.4349 C   0  0  0  0  0  0
  -21.9188   -4.6968   22.3404 C   0  0  0  0  0  0
  -22.7823  -13.5220   21.1864 C   0  0  0  0  0  0
  -22.1653   -4.2160   21.0979 F   0  0  0  0  0  0
  -21.5638   -3.4534   25.7735 F   0  0  0  0  0  0
  -29.9894  -13.5358   20.4473 N   0  0  0  0  0  0
  -26.2970  -12.9374   20.3333 N   0  0  0  0  0  0
  -25.9331  -11.6511   20.5739 N   0  0  0  0  0  0
  -22.0475  -12.8214   22.0429 N   0  0  0  0  0  0
  -25.4198  -15.1888   20.4051 N   0  0  0  0  0  0
  -31.7154  -14.9388   20.0294 O   0  0  0  0  0  0
  -21.6641   -6.8886   21.4244 O   0  0  0  0  0  0
  -22.3509  -14.5529   20.6717 O   0  0  0  0  0  0
  -24.6340  -31.8527   23.1946 C   0  0  0  0  0  0
  -25.9140  -32.4739   23.8320 C   0  0  1  0  0  0
  -27.2285  -27.2450   20.1214 C   0  0  0  0  0  0
  -25.5917  -33.8547   24.2233 N   0  0  0  0  0  0
  -23.4353  -30.4722   21.5394 C   0  0  2  0  0  0
  -24.8873  -28.9162   20.1091 C   0  0  0  0  0  0
  -22.7531  -29.4575   22.4893 C   0  0  0  0  0  0
  -18.0302  -28.1389   22.8488 C   0  0  0  0  0  0
  -24.1488  -36.7280   23.2645 C   0  0  0  0  0  0
  -25.9843  -30.7563   21.3823 C   0  0  0  0  0  0
  -26.0609  -29.3779   20.7215 C   0  0  0  0  0  0
  -27.2388  -28.5546   20.7182 C   0  0  0  0  0  0
  -26.0328  -26.8542   19.4854 C   0  0  0  0  0  0
  -24.8782  -27.6620   19.4800 C   0  0  0  0  0  0
  -23.6583  -29.8055   20.1562 C   0  0  0  0  0  0
  -25.4117  -36.3071   24.0326 C   0  0  1  0  0  0
  -20.5909  -28.3708   23.1256 C   0  0  2  0  0  0
  -20.6788  -26.9416   22.5409 C   0  0  0  0  0  0
  -19.5761  -26.6375   21.5218 C   0  0  0  0  0  0
  -18.1940  -26.7929   22.1627 C   0  0  0  0  0  0
  -19.1555  -28.8864   23.2866 C   0  0  0  0  0  0
  -18.9477  -30.1458   23.8889 C   0  0  0  0  0  0
  -17.6477  -30.6595   24.0557 C   0  0  0  0  0  0
  -25.9058  -34.9434   23.5088 C   0  0  0  0  0  0
  -16.5369  -29.9087   23.6333 C   0  0  0  0  0  0
  -16.7284  -28.6501   23.0360 C   0  0  0  0  0  0
  -26.4492  -31.6584   25.0728 C   0  0  0  0  0  0
  -25.3687  -31.3743   26.1425 C   0  0  0  0  0  0
  -27.0360  -30.3000   24.6247 C   0  0  0  0  0  0
  -27.6044  -32.4339   25.7494 C   0  0  0  0  0  0
  -27.5579  -37.1796   24.8466 C   0  0  0  0  0  0
  -21.4233  -29.3042   22.3638 N   0  0  0  0  0  0
  -26.4292  -37.3769   23.9411 N   0  0  0  0  0  0
  -24.7035  -31.0456   22.0945 N   0  0  0  0  0  0
  -23.4209  -28.8122   23.3016 O   0  0  0  0  0  0
  -28.2610  -26.2714   20.1606 O   0  0  0  0  0  0
  -26.5647  -34.8913   22.4669 O   0  0  0  0  0  0
  -23.5475  -32.1362   23.7212 O   0  0  0  0  0  0
  -29.4048  -18.7670   21.2908 C   0  0  0  0  0  0
  -30.1739  -18.0761   19.3171 C   0  0  0  0  0  0
  -29.8384  -17.5770   20.5581 C   0  0  0  0  0  0
  -29.4716  -19.9152   20.5019 C   0  0  0  0  0  0
  -28.0371  -25.1785   21.0446 C   0  0  0  0  0  0
  -29.7779  -16.0884   21.0930 C   0  0  0  0  0  0
  -28.2802  -23.7942   21.1419 C   0  0  0  0  0  0
  -27.7561  -23.1841   22.4413 C   0  0  0  0  0  0
  -30.1865  -20.3125   18.1065 C   0  0  0  0  0  0
  -28.9639  -22.6286   20.2624 C   0  0  0  0  0  0
  -29.0545  -15.9487   22.1215 N   0  0  0  0  0  0
  -29.9534  -19.4770   19.2697 N   0  0  0  0  0  0
  -29.1017  -21.2594   20.9498 N   0  0  0  0  0  0
  -31.4834  -12.6474   19.1779 H   0  0  0  0  0  0
  -30.4230  -11.5082   19.9397 H   0  0  0  0  0  0
  -29.8122  -11.7871   17.5200 H   0  0  0  0  0  0
  -29.6421  -13.5087   17.7395 H   0  0  0  0  0  0
  -27.8849  -11.3083   18.8621 H   0  0  0  0  0  0
  -27.3920  -12.5952   17.7942 H   0  0  0  0  0  0
  -27.6588  -14.2664   19.5344 H   0  0  0  0  0  0
  -28.7545  -12.0515   21.3181 H   0  0  0  0  0  0
  -28.3855  -13.6262   21.8863 H   0  0  0  0  0  0
  -25.2774   -9.5678   22.4749 H   0  0  0  0  0  0
  -24.0002   -7.4631   22.7470 H   0  0  0  0  0  0
  -21.0839   -8.8777   19.8950 H   0  0  0  0  0  0
  -22.3691  -10.9680   19.6165 H   0  0  0  0  0  0
  -21.1999   -7.6149   23.9723 H   0  0  0  0  0  0
  -21.1498   -6.0526   25.9082 H   0  0  0  0  0  0
  -22.0590   -2.7616   23.2839 H   0  0  0  0  0  0
  -22.4098  -11.9875   22.4801 H   0  0  0  0  0  0
  -21.1109  -13.1244   22.2686 H   0  0  0  0  0  0
  -24.6544  -15.8453   20.5167 H   0  0  0  0  0  0
  -26.2864  -15.6318   20.1254 H   0  0  0  0  0  0
  -26.7210  -32.5388   23.1066 H   0  0  0  0  0  0
  -25.0038  -33.9687   25.0360 H   0  0  0  0  0  0
  -22.7347  -31.2957   21.3899 H   0  0  0  0  0  0
  -23.3755  -35.9604   23.3305 H   0  0  0  0  0  0
  -24.3583  -36.8912   22.2061 H   0  0  0  0  0  0
  -23.7233  -37.6475   23.6678 H   0  0  0  0  0  0
  -26.1304  -31.5165   20.6140 H   0  0  0  0  0  0
  -26.8577  -30.8056   22.0193 H   0  0  0  0  0  0
  -28.1373  -28.8985   21.2110 H   0  0  0  0  0  0
  -25.9834  -25.8825   19.0148 H   0  0  0  0  0  0
  -23.9800  -27.3018   18.9979 H   0  0  0  0  0  0
  -23.7864  -30.5828   19.4019 H   0  0  0  0  0  0
  -22.7759  -29.2416   19.8480 H   0  0  0  0  0  0
  -25.1301  -36.1921   25.0818 H   0  0  0  0  0  0
  -21.0005  -28.3288   24.1372 H   0  0  0  0  0  0
  -20.5689  -26.2318   23.3624 H   0  0  0  0  0  0
  -21.6657  -26.7431   22.1200 H   0  0  0  0  0  0
  -19.6924  -25.6277   21.1267 H   0  0  0  0  0  0
  -19.6699  -27.3168   20.6735 H   0  0  0  0  0  0
  -17.4211  -26.6677   21.4027 H   0  0  0  0  0  0
  -18.0334  -26.0066   22.9019 H   0  0  0  0  0  0
  -19.7952  -30.7274   24.2260 H   0  0  0  0  0  0
  -17.5033  -31.6279   24.5153 H   0  0  0  0  0  0
  -15.5368  -30.2991   23.7661 H   0  0  0  0  0  0
  -15.8683  -28.0817   22.7087 H   0  0  0  0  0  0
  -24.5853  -30.7119   25.7731 H   0  0  0  0  0  0
  -24.8876  -32.2910   26.4842 H   0  0  0  0  0  0
  -25.7952  -30.8906   27.0217 H   0  0  0  0  0  0
  -26.2968  -29.6734   24.1238 H   0  0  0  0  0  0
  -27.4012  -29.7282   25.4792 H   0  0  0  0  0  0
  -27.8855  -30.4296   23.9536 H   0  0  0  0  0  0
  -27.2659  -33.3653   26.2045 H   0  0  0  0  0  0
  -28.3842  -32.6878   25.0304 H   0  0  0  0  0  0
  -28.0718  -31.8481   26.5418 H   0  0  0  0  0  0
  -28.2592  -38.0096   24.7520 H   0  0  0  0  0  0
  -28.1082  -36.2631   24.6289 H   0  0  0  0  0  0
  -27.2306  -37.1439   25.8871 H   0  0  0  0  0  0
  -20.9435  -29.8761   21.6827 H   0  0  0  0  0  0
  -26.0172  -38.2843   24.1409 H   0  0  0  0  0  0
  -29.0563  -18.7718   22.3137 H   0  0  0  0  0  0
  -30.5298  -17.5564   18.4369 H   0  0  0  0  0  0
  -27.5200  -25.6074   21.8914 H   0  0  0  0  0  0
  -27.0576  -22.3728   22.2311 H   0  0  0  0  0  0
  -27.2238  -23.8949   23.0734 H   0  0  0  0  0  0
  -28.5792  -22.7986   23.0425 H   0  0  0  0  0  0
  -30.7981  -19.7853   17.3746 H   0  0  0  0  0  0
  -30.7079  -21.2231   18.4012 H   0  0  0  0  0  0
  -29.2326  -20.5765   17.6512 H   0  0  0  0  0  0
  -29.9469  -22.9739   19.9402 H   0  0  0  0  0  0
  -28.3663  -22.5002   19.3582 H   0  0  0  0  0  0
  -28.6372  -16.8333   22.3810 H   0  0  0  0  0  0
  -28.8048  -21.3002   21.9210 H   0  0  0  0  0  0
  1 25  1  0  0  0
  1 30  2  0  0  0
  1 76  1  0  0  0
  2  3  1  0  0  0
  2 25  1  0  0  0
  2 84  1  0  0  0
  2 85  1  0  0  0
  3  4  1  0  0  0
  3 86  1  0  0  0
  3 87  1  0  0  0
  4  5  1  0  0  0
  4 88  1  0  0  0
  4 89  1  0  0  0
  5  6  1  0  0  0
  5 26  1  0  0  0
  5 90  1  0  0  0
  6 25  1  0  0  0
  6 91  1  0  0  0
  6 92  1  0  0  0
  7  8  2  0  0  0
  7 26  1  0  0  0
  7 29  1  0  0  0
  8  9  1  0  0  0
  8 22  1  0  0  0
  9 10  1  0  0  0
  9 27  2  0  0  0
 10 11  2  0  0  0
 10 15  1  0  0  0
 11 12  1  0  0  0
 11 93  1  0  0  0
 12 13  2  0  0  0
 12 94  1  0  0  0
 13 14  1  0  0  0
 13 31  1  0  0  0
 14 15  2  0  0  0
 14 95  1  0  0  0
 15 96  1  0  0  0
 16 17  2  0  0  0
 16 21  1  0  0  0
 16 31  1  0  0  0
 17 18  1  0  0  0
 17 97  1  0  0  0
 18 19  2  0  0  0
 18 98  1  0  0  0
 19 20  1  0  0  0
 19 24  1  0  0  0
 20 21  2  0  0  0
 20 99  1  0  0  0
 21 23  1  0  0  0
 22 28  1  0  0  0
 22 32  2  0  0  0
 26 27  1  0  0  0
 28100  1  0  0  0
 28101  1  0  0  0
 29102  1  0  0  0
 29103  1  0  0  0
 33 34  1  0  0  0
 33 66  1  0  0  0
 33 70  2  0  0  0
 34 36  1  0  0  0
 34 59  1  0  0  0
 34104  1  0  0  0
 35 44  2  0  0  0
 35 45  1  0  0  0
 35 68  1  0  0  0
 36 56  1  0  0  0
 36105  1  0  0  0
 37 39  1  0  0  0
 37 47  1  0  0  0
 37 66  1  0  0  0
 37106  1  0  0  0
 38 43  2  0  0  0
 38 46  1  0  0  0
 38 47  1  0  0  0
 39 64  1  0  0  0
 39 67  2  0  0  0
 40 52  1  0  0  0
 40 53  2  0  0  0
 40 58  1  0  0  0
 41107  1  0  0  0
 41108  1  0  0  0
 41109  1  0  0  0
 41 48  1  0  0  0
 42 43  1  0  0  0
 42 66  1  0  0  0
 42110  1  0  0  0
 42111  1  0  0  0
 43 44  1  0  0  0
 44112  1  0  0  0
 45 46  2  0  0  0
 45113  1  0  0  0
 46114  1  0  0  0
 47115  1  0  0  0
 47116  1  0  0  0
 48 56  1  0  0  0
 48 65  1  0  0  0
 48117  1  0  0  0
 49 50  1  0  0  0
 49 53  1  0  0  0
 49 64  1  0  0  0
 49118  1  0  0  0
 50 51  1  0  0  0
 50119  1  0  0  0
 50120  1  0  0  0
 51 52  1  0  0  0
 51121  1  0  0  0
 51122  1  0  0  0
 52123  1  0  0  0
 52124  1  0  0  0
 53 54  1  0  0  0
 54 55  2  0  0  0
 54125  1  0  0  0
 55 57  1  0  0  0
 55126  1  0  0  0
 56 69  2  0  0  0
 57 58  2  0  0  0
 57127  1  0  0  0
 58128  1  0  0  0
 59 60  1  0  0  0
 59 61  1  0  0  0
 59 62  1  0  0  0
 60129  1  0  0  0
 60130  1  0  0  0
 60131  1  0  0  0
 61132  1  0  0  0
 61133  1  0  0  0
 61134  1  0  0  0
 62135  1  0  0  0
 62136  1  0  0  0
 62137  1  0  0  0
 63 65  1  0  0  0
 63138  1  0  0  0
 63139  1  0  0  0
 63140  1  0  0  0
 64141  1  0  0  0
 65142  1  0  0  0
 68 75  1  0  0  0
 71 73  1  0  0  0
 71 74  2  0  0  0
 71143  1  0  0  0
 72 73  2  0  0  0
 72 82  1  0  0  0
 72144  1  0  0  0
 73 76  1  0  0  0
 74 82  1  0  0  0
 74 83  1  0  0  0
 75 77  2  0  0  0
 75145  1  0  0  0
 76 81  2  0  0  0
 77 78  1  0  0  0
 77 80  1  0  0  0
 78146  1  0  0  0
 78147  1  0  0  0
 78148  1  0  0  0
 79 82  1  0  0  0
 79149  1  0  0  0
 79150  1  0  0  0
 79151  1  0  0  0
 80 83  1  0  0  0
 80152  1  0  0  0
 80153  1  0  0  0
 81154  1  0  0  0
 83155  1  0  0  0
M  ISO  4   1 100  68 101  75 101  76 100
M  END
> <chiral flag>
0

> <version>
0

> <s_m_source_file>
/data/baiqing/PycharmProjects/Reinvent-master-3.2/result/LINK_invent/BTK/process_docking_weight1_custom_product_contain_oxygen_bond_distance_aromatic_linkinvent_7_9_3/rearranged_h_0115.sdf

> <i_m_source_file_index>
22

> <r_mmod_Potential_Energy-OPLS-2005>
383.705108642578

> <r_mmod_Stretch_Energy-OPLS-2005>
155.395858764648

> <r_mmod_Bend_Energy-OPLS-2005>
281.566802978516

> <r_mmod_Torsional_Energy-OPLS-2005>
201.205718994141

> <r_mmod_Improper_Torsional_Energy-OPLS-2005>
2.73842573165894

> <r_mmod_Van_der_Waal_Energy-OPLS-2005>
131.09098815918

> <r_mmod_Electrostatic_Energy-OPLS-2005>
-295.134857177734

> <r_mmod_Solvation_Energy-OPLS-2005>
-199.16423034668

> <b_mmod_Minimization_Converged-OPLS-2005>
0

> <r_mmod_RMS_Derivative-OPLS-2005>
1.76475667953491

$$$$
22
                    3D
 Structure written by MMmdl.
154162  0  0  1  0            999 V2000
  -30.5822  -14.8472   20.3933 C   0  0  0  0  0  0
  -30.4409  -12.5122   19.4759 C   0  0  0  0  0  0
  -29.5140  -12.4897   18.2394 C   0  0  0  0  0  0
  -28.0437  -12.2876   18.6596 C   0  0  0  0  0  0
  -27.6242  -13.2168   19.8272 C   0  0  2  0  0  0
  -28.6751  -13.2437   20.9550 C   0  0  0  0  0  0
  -25.2502  -13.8136   20.5717 C   0  0  0  0  0  0
  -24.1783  -13.0411   20.9241 C   0  0  0  0  0  0
  -24.6354  -11.6880   20.8775 C   0  0  0  0  0  0
  -23.9032  -10.4273   21.0432 C   0  0  0  0  0  0
  -24.3594   -9.4189   21.9199 C   0  0  0  0  0  0
  -23.6277   -8.2222   22.0755 C   0  0  0  0  0  0
  -22.4261   -8.0264   21.3542 C   0  0  0  0  0  0
  -21.9892   -9.0237   20.4647 C   0  0  0  0  0  0
  -22.7213  -10.2119   20.3069 C   0  0  0  0  0  0
  -21.6846   -6.0726   22.5280 C   0  0  0  0  0  0
  -21.4010   -6.5634   23.8212 C   0  0  0  0  0  0
  -21.3658   -5.6789   24.9175 C   0  0  0  0  0  0
  -21.6043   -4.3052   24.7228 C   0  0  0  0  0  0
  -21.8819   -3.8140   23.4350 C   0  0  0  0  0  0
  -21.9191   -4.6956   22.3405 C   0  0  0  0  0  0
  -22.7815  -13.5217   21.1893 C   0  0  0  0  0  0
  -22.1661   -4.2141   21.0983 F   0  0  0  0  0  0
  -21.5632   -3.4536   25.7741 F   0  0  0  0  0  0
  -29.9678  -13.6046   20.3581 N   0  0  0  0  0  0
  -26.2865  -12.9283   20.3229 N   0  0  0  0  0  0
  -25.9270  -11.6454   20.5757 N   0  0  0  0  0  0
  -22.0449  -12.8217   22.0445 N   0  0  0  0  0  0
  -25.4249  -15.1858   20.4141 N   0  0  0  0  0  0
  -31.8119  -14.9055   20.2932 O   0  0  0  0  0  0
  -21.6626   -6.8863   21.4240 O   0  0  0  0  0  0
  -22.3514  -14.5522   20.6726 O   0  0  0  0  0  0
  -24.6350  -31.8520   23.1952 C   0  0  0  0  0  0
  -25.9156  -32.4739   23.8315 C   0  0  1  0  0  0
  -27.2229  -27.2246   20.1483 C   0  0  0  0  0  0
  -25.5936  -33.8542   24.2236 N   0  0  0  0  0  0
  -23.4351  -30.4718   21.5395 C   0  0  2  0  0  0
  -24.8860  -28.9060   20.1210 C   0  0  0  0  0  0
  -22.7522  -29.4584   22.4905 C   0  0  0  0  0  0
  -18.0293  -28.1391   22.8484 C   0  0  0  0  0  0
  -24.1491  -36.7277   23.2641 C   0  0  0  0  0  0
  -25.9839  -30.7523   21.3822 C   0  0  0  0  0  0
  -26.0595  -29.3667   20.7350 C   0  0  0  0  0  0
  -27.2350  -28.5387   20.7386 C   0  0  0  0  0  0
  -26.0283  -26.8360   19.5126 C   0  0  0  0  0  0
  -24.8757  -27.6475   19.4999 C   0  0  0  0  0  0
  -23.6589  -29.7997   20.1593 C   0  0  0  0  0  0
  -25.4119  -36.3059   24.0324 C   0  0  1  0  0  0
  -20.5900  -28.3705   23.1260 C   0  0  2  0  0  0
  -20.6778  -26.9418   22.5407 C   0  0  0  0  0  0
  -19.5754  -26.6385   21.5212 C   0  0  0  0  0  0
  -18.1935  -26.7932   22.1625 C   0  0  0  0  0  0
  -19.1548  -28.8866   23.2867 C   0  0  0  0  0  0
  -18.9467  -30.1467   23.8887 C   0  0  0  0  0  0
  -17.6464  -30.6590   24.0562 C   0  0  0  0  0  0
  -25.9062  -34.9431   23.5084 C   0  0  0  0  0  0
  -16.5355  -29.9084   23.6334 C   0  0  0  0  0  0
  -16.7279  -28.6503   23.0355 C   0  0  0  0  0  0
  -26.4511  -31.6573   25.0717 C   0  0  0  0  0  0
  -25.3721  -31.3733   26.1427 C   0  0  0  0  0  0
  -27.0365  -30.2983   24.6228 C   0  0  0  0  0  0
  -27.6055  -32.4321   25.7498 C   0  0  0  0  0  0
  -27.5577  -37.1795   24.8466 C   0  0  0  0  0  0
  -21.4224  -29.3047   22.3646 N   0  0  0  0  0  0
  -26.4290  -37.3762   23.9407 N   0  0  0  0  0  0
  -24.7039  -31.0448   22.0950 N   0  0  0  0  0  0
  -23.4198  -28.8129   23.3027 O   0  0  0  0  0  0
  -28.2864  -26.2891   20.0758 O   0  0  0  0  0  0
  -26.5640  -34.8913   22.4657 O   0  0  0  0  0  0
  -23.5488  -32.1356   23.7221 O   0  0  0  0  0  0
  -29.1221  -17.5737   21.9458 C   0  0  0  0  0  0
  -28.7886  -20.0205   21.9449 C   0  0  0  0  0  0
  -29.6341  -17.5680   20.6311 C   0  0  0  0  0  0
  -29.7697  -18.9047   20.0090 C   0  0  0  0  0  0
  -29.3356  -20.1594   20.6548 C   0  0  0  0  0  0
  -28.7048  -18.7631   22.5809 C   0  0  0  0  0  0
  -30.0765  -19.8881   17.6996 C   0  0  0  0  0  0
  -30.3243  -18.9586   18.6384 C   0  0  0  0  0  0
  -28.5801  -23.8579   21.0547 C   0  0  0  0  0  0
  -28.4320  -25.2570   21.0464 C   0  0  0  0  0  0
  -29.7299  -16.1561   19.9205 C   0  0  0  0  0  0
  -28.5527  -22.6130   20.0576 C   0  0  0  0  0  0
  -29.0998  -16.0690   18.8245 N   0  0  0  0  0  0
  -29.5636  -21.4926   20.1603 O   0  0  0  0  0  0
  -28.1950  -18.6931   23.8334 F   0  0  0  0  0  0
  -31.4762  -12.6615   19.1649 H   0  0  0  0  0  0
  -30.4154  -11.5564   20.0014 H   0  0  0  0  0  0
  -29.8189  -11.6976   17.5544 H   0  0  0  0  0  0
  -29.6133  -13.4259   17.6879 H   0  0  0  0  0  0
  -27.9301  -11.2460   18.9622 H   0  0  0  0  0  0
  -27.3814  -12.4300   17.8048 H   0  0  0  0  0  0
  -27.5649  -14.2075   19.3922 H   0  0  0  0  0  0
  -28.7386  -12.2759   21.4544 H   0  0  0  0  0  0
  -28.3940  -13.9708   21.7187 H   0  0  0  0  0  0
  -25.2736   -9.5666   22.4777 H   0  0  0  0  0  0
  -23.9987   -7.4610   22.7469 H   0  0  0  0  0  0
  -21.0824   -8.8753   19.8950 H   0  0  0  0  0  0
  -22.3674  -10.9661   19.6181 H   0  0  0  0  0  0
  -21.2000   -7.6141   23.9715 H   0  0  0  0  0  0
  -21.1482   -6.0518   25.9079 H   0  0  0  0  0  0
  -22.0600   -2.7603   23.2853 H   0  0  0  0  0  0
  -22.4053  -11.9875   22.4839 H   0  0  0  0  0  0
  -21.1063  -13.1245   22.2638 H   0  0  0  0  0  0
  -24.6620  -15.8454   20.5201 H   0  0  0  0  0  0
  -26.2749  -15.6125   20.0660 H   0  0  0  0  0  0
  -26.7224  -32.5386   23.1057 H   0  0  0  0  0  0
  -25.0071  -33.9674   25.0373 H   0  0  0  0  0  0
  -22.7334  -31.2946   21.3878 H   0  0  0  0  0  0
  -23.3754  -35.9609   23.3298 H   0  0  0  0  0  0
  -24.3577  -36.8907   22.2055 H   0  0  0  0  0  0
  -23.7244  -37.6476   23.6672 H   0  0  0  0  0  0
  -26.1239  -31.5057   20.6059 H   0  0  0  0  0  0
  -26.8609  -30.8091   22.0154 H   0  0  0  0  0  0
  -28.1389  -28.8917   21.2145 H   0  0  0  0  0  0
  -25.9854  -25.8683   19.0325 H   0  0  0  0  0  0
  -23.9789  -27.2877   19.0142 H   0  0  0  0  0  0
  -23.7902  -30.5728   19.4014 H   0  0  0  0  0  0
  -22.7763  -29.2357   19.8523 H   0  0  0  0  0  0
  -25.1303  -36.1901   25.0816 H   0  0  0  0  0  0
  -20.9991  -28.3286   24.1381 H   0  0  0  0  0  0
  -20.5675  -26.2317   23.3616 H   0  0  0  0  0  0
  -21.6646  -26.7433   22.1202 H   0  0  0  0  0  0
  -19.6914  -25.6294   21.1246 H   0  0  0  0  0  0
  -19.6689  -27.3190   20.6737 H   0  0  0  0  0  0
  -17.4203  -26.6677   21.4030 H   0  0  0  0  0  0
  -18.0336  -26.0077   22.9025 H   0  0  0  0  0  0
  -19.7943  -30.7288   24.2248 H   0  0  0  0  0  0
  -17.5017  -31.6268   24.5165 H   0  0  0  0  0  0
  -15.5356  -30.2982   23.7665 H   0  0  0  0  0  0
  -15.8679  -28.0818   22.7076 H   0  0  0  0  0  0
  -24.5907  -30.7072   25.7749 H   0  0  0  0  0  0
  -24.8903  -32.2906   26.4820 H   0  0  0  0  0  0
  -25.8028  -30.8930   27.0222 H   0  0  0  0  0  0
  -26.2961  -29.6721   24.1238 H   0  0  0  0  0  0
  -27.4018  -29.7256   25.4763 H   0  0  0  0  0  0
  -27.8850  -30.4244   23.9500 H   0  0  0  0  0  0
  -27.2656  -33.3631   26.2049 H   0  0  0  0  0  0
  -28.3885  -32.6864   25.0342 H   0  0  0  0  0  0
  -28.0703  -31.8463   26.5438 H   0  0  0  0  0  0
  -28.2593  -38.0093   24.7509 H   0  0  0  0  0  0
  -28.1075  -36.2622   24.6299 H   0  0  0  0  0  0
  -27.2294  -37.1452   25.8869 H   0  0  0  0  0  0
  -20.9420  -29.8763   21.6837 H   0  0  0  0  0  0
  -26.0165  -38.2834   24.1405 H   0  0  0  0  0  0
  -28.9717  -16.6388   22.4662 H   0  0  0  0  0  0
  -28.4723  -20.8982   22.4882 H   0  0  0  0  0  0
  -30.5562  -19.8324   16.7326 H   0  0  0  0  0  0
  -29.3977  -20.7114   17.8625 H   0  0  0  0  0  0
  -31.0185  -18.1711   18.3787 H   0  0  0  0  0  0
  -28.7005  -23.4781   22.0592 H   0  0  0  0  0  0
  -28.4583  -25.7371   22.0156 H   0  0  0  0  0  0
  -28.6101  -23.0111   19.0444 H   0  0  0  0  0  0
  -27.5620  -22.1644   20.1372 H   0  0  0  0  0  0
  -28.6369  -16.9420   18.6030 H   0  0  0  0  0  0
  1 25  1  0  0  0
  1 30  2  0  0  0
  1 81  1  0  0  0
  2  3  1  0  0  0
  2 25  1  0  0  0
  2 86  1  0  0  0
  2 87  1  0  0  0
  3  4  1  0  0  0
  3 88  1  0  0  0
  3 89  1  0  0  0
  4  5  1  0  0  0
  4 90  1  0  0  0
  4 91  1  0  0  0
  5  6  1  0  0  0
  5 26  1  0  0  0
  5 92  1  0  0  0
  6 25  1  0  0  0
  6 93  1  0  0  0
  6 94  1  0  0  0
  7  8  2  0  0  0
  7 26  1  0  0  0
  7 29  1  0  0  0
  8  9  1  0  0  0
  8 22  1  0  0  0
  9 10  1  0  0  0
  9 27  2  0  0  0
 10 11  2  0  0  0
 10 15  1  0  0  0
 11 12  1  0  0  0
 11 95  1  0  0  0
 12 13  2  0  0  0
 12 96  1  0  0  0
 13 14  1  0  0  0
 13 31  1  0  0  0
 14 15  2  0  0  0
 14 97  1  0  0  0
 15 98  1  0  0  0
 16 17  2  0  0  0
 16 21  1  0  0  0
 16 31  1  0  0  0
 17 18  1  0  0  0
 17 99  1  0  0  0
 18 19  2  0  0  0
 18100  1  0  0  0
 19 20  1  0  0  0
 19 24  1  0  0  0
 20 21  2  0  0  0
 20101  1  0  0  0
 21 23  1  0  0  0
 22 28  1  0  0  0
 22 32  2  0  0  0
 26 27  1  0  0  0
 28102  1  0  0  0
 28103  1  0  0  0
 29104  1  0  0  0
 29105  1  0  0  0
 33 34  1  0  0  0
 33 66  1  0  0  0
 33 70  2  0  0  0
 34 36  1  0  0  0
 34 59  1  0  0  0
 34106  1  0  0  0
 35 44  2  0  0  0
 35 45  1  0  0  0
 35 68  1  0  0  0
 36 56  1  0  0  0
 36107  1  0  0  0
 37 39  1  0  0  0
 37 47  1  0  0  0
 37 66  1  0  0  0
 37108  1  0  0  0
 38 43  2  0  0  0
 38 46  1  0  0  0
 38 47  1  0  0  0
 39 64  1  0  0  0
 39 67  2  0  0  0
 40 52  1  0  0  0
 40 53  2  0  0  0
 40 58  1  0  0  0
 41109  1  0  0  0
 41110  1  0  0  0
 41111  1  0  0  0
 41 48  1  0  0  0
 42 43  1  0  0  0
 42 66  1  0  0  0
 42112  1  0  0  0
 42113  1  0  0  0
 43 44  1  0  0  0
 44114  1  0  0  0
 45 46  2  0  0  0
 45115  1  0  0  0
 46116  1  0  0  0
 47117  1  0  0  0
 47118  1  0  0  0
 48 56  1  0  0  0
 48 65  1  0  0  0
 48119  1  0  0  0
 49 50  1  0  0  0
 49 53  1  0  0  0
 49 64  1  0  0  0
 49120  1  0  0  0
 50 51  1  0  0  0
 50121  1  0  0  0
 50122  1  0  0  0
 51 52  1  0  0  0
 51123  1  0  0  0
 51124  1  0  0  0
 52125  1  0  0  0
 52126  1  0  0  0
 53 54  1  0  0  0
 54 55  2  0  0  0
 54127  1  0  0  0
 55 57  1  0  0  0
 55128  1  0  0  0
 56 69  2  0  0  0
 57 58  2  0  0  0
 57129  1  0  0  0
 58130  1  0  0  0
 59 60  1  0  0  0
 59 61  1  0  0  0
 59 62  1  0  0  0
 60131  1  0  0  0
 60132  1  0  0  0
 60133  1  0  0  0
 61134  1  0  0  0
 61135  1  0  0  0
 61136  1  0  0  0
 62137  1  0  0  0
 62138  1  0  0  0
 62139  1  0  0  0
 63 65  1  0  0  0
 63140  1  0  0  0
 63141  1  0  0  0
 63142  1  0  0  0
 64143  1  0  0  0
 65144  1  0  0  0
 68 80  1  0  0  0
 71 73  2  0  0  0
 71 76  1  0  0  0
 71145  1  0  0  0
 72 75  1  0  0  0
 72 76  2  0  0  0
 72146  1  0  0  0
 73 74  1  0  0  0
 73 81  1  0  0  0
 74 75  2  0  0  0
 74 78  1  0  0  0
 75 84  1  0  0  0
 76 85  1  0  0  0
 77 78  2  0  0  0
 77147  1  0  0  0
 77148  1  0  0  0
 78149  1  0  0  0
 79 80  2  0  0  0
 79 82  1  0  0  0
 79150  1  0  0  0
 80151  1  0  0  0
 81 83  2  0  0  0
 82 84  1  0  0  0
 82152  1  0  0  0
 82153  1  0  0  0
 83154  1  0  0  0
M  ISO  4   1 100  68 101  80 101  81 100
M  END
> <chiral flag>
0

> <version>
0

> <s_m_source_file>
/data/baiqing/PycharmProjects/Reinvent-master-3.2/result/LINK_invent/BTK/process_docking_weight1_custom_product_contain_oxygen_bond_distance_aromatic_linkinvent_7_9_3/rearranged_h_0115.sdf

> <i_m_source_file_index>
23

> <r_mmod_Potential_Energy-OPLS-2005>
557.453979492188

> <r_mmod_Stretch_Energy-OPLS-2005>
166.671356201172

> <r_mmod_Bend_Energy-OPLS-2005>
251.8076171875

> <r_mmod_Torsional_Energy-OPLS-2005>
290.065887451172

> <r_mmod_Improper_Torsional_Energy-OPLS-2005>
21.5645656585693

> <r_mmod_Van_der_Waal_Energy-OPLS-2005>
128.625579833984

> <r_mmod_Electrostatic_Energy-OPLS-2005>
-240.452194213867

> <r_mmod_Solvation_Energy-OPLS-2005>
-192.780181884766

> <b_mmod_Minimization_Converged-OPLS-2005>
0

> <r_mmod_RMS_Derivative-OPLS-2005>
0.348992317914963

$$$$
23
                    3D
 Structure written by MMmdl.
162170  0  0  1  0            999 V2000
  -30.6872  -14.5039   20.6020 C   0  0  0  0  0  0
  -30.4391  -12.3372   19.4236 C   0  0  0  0  0  0
  -29.5023  -12.5184   18.2093 C   0  0  0  0  0  0
  -28.0251  -12.3660   18.6223 C   0  0  0  0  0  0
  -27.6686  -13.2061   19.8762 C   0  0  2  0  0  0
  -28.7086  -12.9796   20.9967 C   0  0  0  0  0  0
  -25.2621  -13.8142   20.5671 C   0  0  0  0  0  0
  -24.1855  -13.0429   20.9158 C   0  0  0  0  0  0
  -24.6401  -11.6896   20.8720 C   0  0  0  0  0  0
  -23.9060  -10.4294   21.0403 C   0  0  0  0  0  0
  -24.3616   -9.4222   21.9184 C   0  0  0  0  0  0
  -23.6287   -8.2262   22.0758 C   0  0  0  0  0  0
  -22.4268   -8.0294   21.3548 C   0  0  0  0  0  0
  -21.9902   -9.0267   20.4655 C   0  0  0  0  0  0
  -22.7233  -10.2140   20.3059 C   0  0  0  0  0  0
  -21.6859   -6.0739   22.5280 C   0  0  0  0  0  0
  -21.4020   -6.5640   23.8215 C   0  0  0  0  0  0
  -21.3658   -5.6791   24.9176 C   0  0  0  0  0  0
  -21.6045   -4.3054   24.7229 C   0  0  0  0  0  0
  -21.8817   -3.8144   23.4352 C   0  0  0  0  0  0
  -21.9196   -4.6962   22.3406 C   0  0  0  0  0  0
  -22.7885  -13.5259   21.1813 C   0  0  0  0  0  0
  -22.1663   -4.2149   21.0982 F   0  0  0  0  0  0
  -21.5626   -3.4538   25.7741 F   0  0  0  0  0  0
  -30.0460  -13.3065   20.4611 N   0  0  0  0  0  0
  -26.3063  -12.9313   20.3349 N   0  0  0  0  0  0
  -25.9335  -11.6473   20.5748 N   0  0  0  0  0  0
  -22.0507  -12.8281   22.0384 N   0  0  0  0  0  0
  -25.4330  -15.1854   20.4104 N   0  0  0  0  0  0
  -31.7558  -14.7615   20.0371 O   0  0  0  0  0  0
  -21.6633   -6.8888   21.4245 O   0  0  0  0  0  0
  -22.3577  -14.5561   20.6654 O   0  0  0  0  0  0
  -24.6224  -31.8651   23.2101 C   0  0  0  0  0  0
  -25.9112  -32.4812   23.8384 C   0  0  1  0  0  0
  -27.2258  -27.3857   20.0939 C   0  0  0  0  0  0
  -25.5966  -33.8608   24.2330 N   0  0  0  0  0  0
  -23.4119  -30.4922   21.5516 C   0  0  2  0  0  0
  -24.8570  -28.9673   20.1056 C   0  0  0  0  0  0
  -22.7459  -29.4670   22.4985 C   0  0  0  0  0  0
  -18.0313  -28.1332   22.8550 C   0  0  0  0  0  0
  -24.1496  -36.7307   23.2626 C   0  0  0  0  0  0
  -25.9477  -30.8161   21.3734 C   0  0  0  0  0  0
  -26.0233  -29.4522   20.7104 C   0  0  0  0  0  0
  -27.2115  -28.6710   20.7012 C   0  0  0  0  0  0
  -26.0415  -26.9580   19.4430 C   0  0  0  0  0  0
  -24.8647  -27.7214   19.4655 C   0  0  0  0  0  0
  -23.6204  -29.8358   20.1633 C   0  0  0  0  0  0
  -25.4116  -36.3103   24.0323 C   0  0  1  0  0  0
  -20.5902  -28.3693   23.1330 C   0  0  2  0  0  0
  -20.6832  -26.9439   22.5405 C   0  0  0  0  0  0
  -19.5778  -26.6429   21.5223 C   0  0  0  0  0  0
  -18.1990  -26.7870   22.1717 C   0  0  0  0  0  0
  -19.1548  -28.8836   23.2921 C   0  0  0  0  0  0
  -18.9444  -30.1463   23.8882 C   0  0  0  0  0  0
  -17.6430  -30.6579   24.0494 C   0  0  0  0  0  0
  -25.9045  -34.9467   23.5117 C   0  0  0  0  0  0
  -16.5338  -29.9028   23.6300 C   0  0  0  0  0  0
  -16.7290  -28.6416   23.0388 C   0  0  0  0  0  0
  -26.4513  -31.6586   25.0720 C   0  0  0  0  0  0
  -25.3762  -31.3708   26.1458 C   0  0  0  0  0  0
  -27.0342  -30.3011   24.6123 C   0  0  0  0  0  0
  -27.6090  -32.4291   25.7488 C   0  0  0  0  0  0
  -27.5589  -37.1809   24.8458 C   0  0  0  0  0  0
  -21.4168  -29.3067   22.3718 N   0  0  0  0  0  0
  -26.4304  -37.3787   23.9402 N   0  0  0  0  0  0
  -24.6789  -31.0714   22.1029 N   0  0  0  0  0  0
  -23.4208  -28.8210   23.3038 O   0  0  0  0  0  0
  -28.3370  -26.5423   20.1866 O   0  0  0  0  0  0
  -26.5575  -34.8921   22.4660 O   0  0  0  0  0  0
  -23.5404  -32.1431   23.7468 O   0  0  0  0  0  0
  -30.1538  -17.7395   20.3368 C   0  0  0  0  0  0
  -29.7473  -17.5265   22.5459 C   0  0  0  0  0  0
  -30.0594  -16.8184   21.4267 C   0  0  0  0  0  0
  -29.8271  -19.0002   20.8095 C   0  0  0  0  0  0
  -26.8644  -21.0285   22.9142 C   0  0  0  0  0  0
  -27.5732  -19.9077   23.1118 C   0  0  0  0  0  0
  -29.6217  -20.2667   20.0020 C   0  0  0  0  0  0
  -27.1964  -24.9048   21.6206 C   0  0  0  0  0  0
  -29.0858  -19.8330   23.1537 C   0  0  0  0  0  0
  -29.2517  -24.1012   20.4084 C   0  0  0  0  0  0
  -28.8497  -22.6573   19.9263 C   0  0  0  0  0  0
  -28.0497  -25.1102   20.3452 C   0  0  2  0  0  0
  -29.5744  -18.8585   22.1881 N   0  0  0  0  0  0
  -30.0749  -15.3851   21.4205 N   0  0  0  0  0  0
  -29.4846  -21.4835   20.5839 N   0  0  0  0  0  0
  -29.5589  -20.1569   18.7766 O   0  0  0  0  0  0
  -31.4809  -12.4570   19.1215 H   0  0  0  0  0  0
  -30.3627  -11.3212   19.8145 H   0  0  0  0  0  0
  -29.7479  -11.7904   17.4355 H   0  0  0  0  0  0
  -29.6628  -13.5014   17.7639 H   0  0  0  0  0  0
  -27.8480  -11.3085   18.8243 H   0  0  0  0  0  0
  -27.3713  -12.6313   17.7909 H   0  0  0  0  0  0
  -27.7169  -14.2554   19.5815 H   0  0  0  0  0  0
  -28.6887  -11.9386   21.3246 H   0  0  0  0  0  0
  -28.4446  -13.5590   21.8813 H   0  0  0  0  0  0
  -25.2764   -9.5694   22.4759 H   0  0  0  0  0  0
  -23.9992   -7.4657   22.7481 H   0  0  0  0  0  0
  -21.0829   -8.8791   19.8970 H   0  0  0  0  0  0
  -22.3691  -10.9680   19.6169 H   0  0  0  0  0  0
  -21.2011   -7.6145   23.9726 H   0  0  0  0  0  0
  -21.1476   -6.0513   25.9081 H   0  0  0  0  0  0
  -22.0591   -2.7607   23.2849 H   0  0  0  0  0  0
  -22.4089  -11.9954   22.4814 H   0  0  0  0  0  0
  -21.1131  -13.1340   22.2556 H   0  0  0  0  0  0
  -24.6679  -15.8414   20.5242 H   0  0  0  0  0  0
  -26.2950  -15.6289   20.1179 H   0  0  0  0  0  0
  -26.7195  -32.5497   23.1148 H   0  0  0  0  0  0
  -25.0206  -33.9762   25.0537 H   0  0  0  0  0  0
  -22.7044  -31.3120   21.4161 H   0  0  0  0  0  0
  -23.3753  -35.9646   23.3281 H   0  0  0  0  0  0
  -24.3609  -36.8920   22.2045 H   0  0  0  0  0  0
  -23.7241  -37.6509   23.6638 H   0  0  0  0  0  0
  -26.0725  -31.5869   20.6121 H   0  0  0  0  0  0
  -26.8313  -30.8627   21.9971 H   0  0  0  0  0  0
  -28.1012  -29.0331   21.1969 H   0  0  0  0  0  0
  -25.9801  -26.0167   18.9225 H   0  0  0  0  0  0
  -23.9752  -27.3472   18.9774 H   0  0  0  0  0  0
  -23.7305  -30.6153   19.4086 H   0  0  0  0  0  0
  -22.7427  -29.2600   19.8644 H   0  0  0  0  0  0
  -25.1294  -36.1970   25.0811 H   0  0  0  0  0  0
  -21.0000  -28.3248   24.1449 H   0  0  0  0  0  0
  -20.5811  -26.2291   23.3575 H   0  0  0  0  0  0
  -21.6702  -26.7552   22.1166 H   0  0  0  0  0  0
  -19.6970  -25.6399   21.1128 H   0  0  0  0  0  0
  -19.6613  -27.3343   20.6830 H   0  0  0  0  0  0
  -17.4220  -26.6571   21.4184 H   0  0  0  0  0  0
  -18.0526  -25.9997   22.9130 H   0  0  0  0  0  0
  -19.7900  -30.7328   24.2215 H   0  0  0  0  0  0
  -17.4946  -31.6311   24.4969 H   0  0  0  0  0  0
  -15.5327  -30.2916   23.7562 H   0  0  0  0  0  0
  -15.8711  -28.0679   22.7128 H   0  0  0  0  0  0
  -24.5957  -30.7028   25.7804 H   0  0  0  0  0  0
  -24.8928  -32.2868   26.4865 H   0  0  0  0  0  0
  -25.8113  -30.8922   27.0241 H   0  0  0  0  0  0
  -26.2916  -29.6785   24.1125 H   0  0  0  0  0  0
  -27.4048  -29.7235   25.4604 H   0  0  0  0  0  0
  -27.8784  -30.4306   23.9342 H   0  0  0  0  0  0
  -27.2729  -33.3582   26.2097 H   0  0  0  0  0  0
  -28.3899  -32.6854   25.0317 H   0  0  0  0  0  0
  -28.0767  -31.8387   26.5375 H   0  0  0  0  0  0
  -28.2596  -38.0115   24.7511 H   0  0  0  0  0  0
  -28.1092  -36.2645   24.6279 H   0  0  0  0  0  0
  -27.2308  -37.1455   25.8860 H   0  0  0  0  0  0
  -20.9340  -29.8758   21.6905 H   0  0  0  0  0  0
  -26.0190  -38.2866   24.1391 H   0  0  0  0  0  0
  -30.3431  -17.5053   19.2978 H   0  0  0  0  0  0
  -29.5630  -17.1986   23.5612 H   0  0  0  0  0  0
  -25.7844  -21.0077   22.8821 H   0  0  0  0  0  0
  -27.3526  -21.9805   22.7831 H   0  0  0  0  0  0
  -27.0539  -18.9690   23.2511 H   0  0  0  0  0  0
  -26.2549  -25.4508   21.6070 H   0  0  0  0  0  0
  -27.7414  -25.2179   22.5111 H   0  0  0  0  0  0
  -26.9298  -23.8593   21.7527 H   0  0  0  0  0  0
  -29.3829  -19.5122   24.1543 H   0  0  0  0  0  0
  -29.5563  -20.8031   23.0145 H   0  0  0  0  0  0
  -30.0665  -24.4624   19.7802 H   0  0  0  0  0  0
  -29.6521  -24.0692   21.4219 H   0  0  0  0  0  0
  -28.9947  -22.6131   18.8464 H   0  0  0  0  0  0
  -27.7773  -22.5181   20.0695 H   0  0  0  0  0  0
  -27.4981  -24.7845   19.4663 H   0  0  0  0  0  0
  -29.3855  -14.9546   22.0194 H   0  0  0  0  0  0
  -29.5898  -21.5197   21.5864 H   0  0  0  0  0  0
  1 25  1  0  0  0
  1 30  2  0  0  0
  1 84  1  0  0  0
  2  3  1  0  0  0
  2 25  1  0  0  0
  2 87  1  0  0  0
  2 88  1  0  0  0
  3  4  1  0  0  0
  3 89  1  0  0  0
  3 90  1  0  0  0
  4  5  1  0  0  0
  4 91  1  0  0  0
  4 92  1  0  0  0
  5  6  1  0  0  0
  5 26  1  0  0  0
  5 93  1  0  0  0
  6 25  1  0  0  0
  6 94  1  0  0  0
  6 95  1  0  0  0
  7  8  2  0  0  0
  7 26  1  0  0  0
  7 29  1  0  0  0
  8  9  1  0  0  0
  8 22  1  0  0  0
  9 10  1  0  0  0
  9 27  2  0  0  0
 10 11  2  0  0  0
 10 15  1  0  0  0
 11 12  1  0  0  0
 11 96  1  0  0  0
 12 13  2  0  0  0
 12 97  1  0  0  0
 13 14  1  0  0  0
 13 31  1  0  0  0
 14 15  2  0  0  0
 14 98  1  0  0  0
 15 99  1  0  0  0
 16 17  2  0  0  0
 16 21  1  0  0  0
 16 31  1  0  0  0
 17 18  1  0  0  0
 17100  1  0  0  0
 18 19  2  0  0  0
 18101  1  0  0  0
 19 20  1  0  0  0
 19 24  1  0  0  0
 20 21  2  0  0  0
 20102  1  0  0  0
 21 23  1  0  0  0
 22 28  1  0  0  0
 22 32  2  0  0  0
 26 27  1  0  0  0
 28103  1  0  0  0
 28104  1  0  0  0
 29105  1  0  0  0
 29106  1  0  0  0
 33 34  1  0  0  0
 33 66  1  0  0  0
 33 70  2  0  0  0
 34 36  1  0  0  0
 34 59  1  0  0  0
 34107  1  0  0  0
 35 44  2  0  0  0
 35 45  1  0  0  0
 35 68  1  0  0  0
 36 56  1  0  0  0
 36108  1  0  0  0
 37 39  1  0  0  0
 37 47  1  0  0  0
 37 66  1  0  0  0
 37109  1  0  0  0
 38 43  2  0  0  0
 38 46  1  0  0  0
 38 47  1  0  0  0
 39 64  1  0  0  0
 39 67  2  0  0  0
 40 52  1  0  0  0
 40 53  2  0  0  0
 40 58  1  0  0  0
 41110  1  0  0  0
 41111  1  0  0  0
 41112  1  0  0  0
 41 48  1  0  0  0
 42 43  1  0  0  0
 42 66  1  0  0  0
 42113  1  0  0  0
 42114  1  0  0  0
 43 44  1  0  0  0
 44115  1  0  0  0
 45 46  2  0  0  0
 45116  1  0  0  0
 46117  1  0  0  0
 47118  1  0  0  0
 47119  1  0  0  0
 48 56  1  0  0  0
 48 65  1  0  0  0
 48120  1  0  0  0
 49 50  1  0  0  0
 49 53  1  0  0  0
 49 64  1  0  0  0
 49121  1  0  0  0
 50 51  1  0  0  0
 50122  1  0  0  0
 50123  1  0  0  0
 51 52  1  0  0  0
 51124  1  0  0  0
 51125  1  0  0  0
 52126  1  0  0  0
 52127  1  0  0  0
 53 54  1  0  0  0
 54 55  2  0  0  0
 54128  1  0  0  0
 55 57  1  0  0  0
 55129  1  0  0  0
 56 69  2  0  0  0
 57 58  2  0  0  0
 57130  1  0  0  0
 58131  1  0  0  0
 59 60  1  0  0  0
 59 61  1  0  0  0
 59 62  1  0  0  0
 60132  1  0  0  0
 60133  1  0  0  0
 60134  1  0  0  0
 61135  1  0  0  0
 61136  1  0  0  0
 61137  1  0  0  0
 62138  1  0  0  0
 62139  1  0  0  0
 62140  1  0  0  0
 63 65  1  0  0  0
 63141  1  0  0  0
 63142  1  0  0  0
 63143  1  0  0  0
 64144  1  0  0  0
 65145  1  0  0  0
 68 82  1  0  0  0
 71 73  1  0  0  0
 71 74  2  0  0  0
 71146  1  0  0  0
 72 73  2  0  0  0
 72 83  1  0  0  0
 72147  1  0  0  0
 73 84  1  0  0  0
 74 77  1  0  0  0
 74 83  1  0  0  0
 75 76  2  0  0  0
 75148  1  0  0  0
 75149  1  0  0  0
 76 79  1  0  0  0
 76150  1  0  0  0
 77 85  1  0  0  0
 77 86  2  0  0  0
 78151  1  0  0  0
 78152  1  0  0  0
 78153  1  0  0  0
 78 82  1  0  0  0
 79 83  1  0  0  0
 79154  1  0  0  0
 79155  1  0  0  0
 80 81  1  0  0  0
 80 82  1  0  0  0
 80156  1  0  0  0
 80157  1  0  0  0
 81 85  1  0  0  0
 81158  1  0  0  0
 81159  1  0  0  0
 82160  1  0  0  0
 84161  1  0  0  0
 85162  1  0  0  0
M  ISO  4   1 100  68 101  82 101  84 100
M  END
> <chiral flag>
0

> <version>
0

> <s_m_source_file>
/data/baiqing/PycharmProjects/Reinvent-master-3.2/result/LINK_invent/BTK/process_docking_weight1_custom_product_contain_oxygen_bond_distance_aromatic_linkinvent_7_9_3/rearranged_h_0115.sdf

> <i_m_source_file_index>
24

> <r_mmod_Potential_Energy-OPLS-2005>
-9.49981021881104

> <r_mmod_Stretch_Energy-OPLS-2005>
54.2898941040039

> <r_mmod_Bend_Energy-OPLS-2005>
137.792541503906

> <r_mmod_Torsional_Energy-OPLS-2005>
260.645965576172

> <r_mmod_Improper_Torsional_Energy-OPLS-2005>
5.20504570007324

> <r_mmod_Van_der_Waal_Energy-OPLS-2005>
137.507247924805

> <r_mmod_Electrostatic_Energy-OPLS-2005>
-387.038452148438

> <r_mmod_Solvation_Energy-OPLS-2005>
-241.797302246094

> <b_mmod_Minimization_Converged-OPLS-2005>
0

> <r_mmod_RMS_Derivative-OPLS-2005>
2.15951180458069

$$$$
24
                    3D
 Structure written by MMmdl.
162170  0  0  1  0            999 V2000
  -30.7084  -14.4908   20.5490 C   0  0  0  0  0  0
  -30.4181  -12.3139   19.4256 C   0  0  0  0  0  0
  -29.4902  -12.4976   18.2079 C   0  0  0  0  0  0
  -28.0123  -12.3571   18.6188 C   0  0  0  0  0  0
  -27.6550  -13.2086   19.8661 C   0  0  2  0  0  0
  -28.7014  -13.0217   20.9886 C   0  0  0  0  0  0
  -25.2580  -13.8165   20.5675 C   0  0  0  0  0  0
  -24.1837  -13.0445   20.9194 C   0  0  0  0  0  0
  -24.6377  -11.6910   20.8739 C   0  0  0  0  0  0
  -23.9030  -10.4301   21.0389 C   0  0  0  0  0  0
  -24.3594   -9.4227   21.9165 C   0  0  0  0  0  0
  -23.6294   -8.2248   22.0738 C   0  0  0  0  0  0
  -22.4267   -8.0266   21.3535 C   0  0  0  0  0  0
  -21.9894   -9.0230   20.4628 C   0  0  0  0  0  0
  -22.7206  -10.2127   20.3036 C   0  0  0  0  0  0
  -21.6855   -6.0722   22.5288 C   0  0  0  0  0  0
  -21.4010   -6.5638   23.8220 C   0  0  0  0  0  0
  -21.3670   -5.6795   24.9189 C   0  0  0  0  0  0
  -21.6054   -4.3055   24.7240 C   0  0  0  0  0  0
  -21.8825   -3.8138   23.4366 C   0  0  0  0  0  0
  -21.9194   -4.6948   22.3416 C   0  0  0  0  0  0
  -22.7869  -13.5238   21.1864 C   0  0  0  0  0  0
  -22.1659   -4.2144   21.0988 F   0  0  0  0  0  0
  -21.5632   -3.4537   25.7743 F   0  0  0  0  0  0
  -30.0267  -13.3192   20.4243 N   0  0  0  0  0  0
  -26.2988  -12.9334   20.3339 N   0  0  0  0  0  0
  -25.9306  -11.6492   20.5782 N   0  0  0  0  0  0
  -22.0496  -12.8233   22.0416 N   0  0  0  0  0  0
  -25.4327  -15.1881   20.4062 N   0  0  0  0  0  0
  -31.8707  -14.6283   20.1625 O   0  0  0  0  0  0
  -21.6653   -6.8850   21.4234 O   0  0  0  0  0  0
  -22.3562  -14.5544   20.6700 O   0  0  0  0  0  0
  -24.6181  -31.8675   23.2073 C   0  0  0  0  0  0
  -25.9055  -32.4826   23.8385 C   0  0  1  0  0  0
  -27.2314  -27.3996   20.1000 C   0  0  0  0  0  0
  -25.5879  -33.8621   24.2305 N   0  0  0  0  0  0
  -23.4070  -30.4943   21.5478 C   0  0  2  0  0  0
  -24.8521  -28.9586   20.1112 C   0  0  0  0  0  0
  -22.7421  -29.4678   22.4943 C   0  0  0  0  0  0
  -18.0279  -28.1393   22.8487 C   0  0  0  0  0  0
  -24.1469  -36.7320   23.2641 C   0  0  0  0  0  0
  -25.9397  -30.8246   21.3621 C   0  0  0  0  0  0
  -26.0161  -29.4561   20.7095 C   0  0  0  0  0  0
  -27.2067  -28.6861   20.6986 C   0  0  0  0  0  0
  -26.0446  -26.9364   19.4804 C   0  0  0  0  0  0
  -24.8634  -27.6992   19.4926 C   0  0  0  0  0  0
  -23.6175  -29.8308   20.1614 C   0  0  0  0  0  0
  -25.4096  -36.3124   24.0341 C   0  0  1  0  0  0
  -20.5871  -28.3698   23.1290 C   0  0  2  0  0  0
  -20.6766  -26.9429   22.5410 C   0  0  0  0  0  0
  -19.5749  -26.6392   21.5207 C   0  0  0  0  0  0
  -18.1928  -26.7935   22.1624 C   0  0  0  0  0  0
  -19.1526  -28.8858   23.2898 C   0  0  0  0  0  0
  -18.9461  -30.1452   23.8926 C   0  0  0  0  0  0
  -17.6465  -30.6600   24.0567 C   0  0  0  0  0  0
  -25.9035  -34.9487   23.5134 C   0  0  0  0  0  0
  -16.5356  -29.9114   23.6302 C   0  0  0  0  0  0
  -16.7268  -28.6526   23.0333 C   0  0  0  0  0  0
  -26.4457  -31.6609   25.0722 C   0  0  0  0  0  0
  -25.3689  -31.3729   26.1445 C   0  0  0  0  0  0
  -27.0277  -30.3046   24.6104 C   0  0  0  0  0  0
  -27.6039  -32.4313   25.7484 C   0  0  0  0  0  0
  -27.5575  -37.1815   24.8463 C   0  0  0  0  0  0
  -21.4141  -29.3069   22.3685 N   0  0  0  0  0  0
  -26.4282  -37.3812   23.9415 N   0  0  0  0  0  0
  -24.6743  -31.0760   22.0982 N   0  0  0  0  0  0
  -23.4188  -28.8205   23.2982 O   0  0  0  0  0  0
  -28.3894  -26.6307   20.1501 O   0  0  0  0  0  0
  -26.5629  -34.8945   22.4707 O   0  0  0  0  0  0
  -23.5362  -32.1426   23.7455 O   0  0  0  0  0  0
  -29.7631  -20.3601   18.5182 C   0  0  0  0  0  0
  -29.9665  -17.9193   18.7846 C   0  0  0  0  0  0
  -30.1510  -18.0889   20.1889 C   0  0  0  0  0  0
  -29.9382  -20.5666   19.9052 C   0  0  0  0  0  0
  -29.7721  -19.0654   17.9669 C   0  0  0  0  0  0
  -30.1478  -19.4166   20.7176 C   0  0  0  0  0  0
  -30.8694  -16.1681   17.2428 C   0  0  0  0  0  0
  -29.9687  -16.5874   18.1481 C   0  0  0  0  0  0
  -29.2784  -22.8343   20.0184 C   0  0  0  0  0  0
  -30.8150  -24.8436   19.9762 C   0  0  0  0  0  0
  -30.4890  -16.9314   21.1757 C   0  0  0  0  0  0
  -28.2832  -25.2138   19.8500 C   0  0  0  0  0  0
  -29.4346  -24.3205   20.4142 C   0  0  1  0  0  0
  -30.0032  -21.8716   20.4665 N   0  0  0  0  0  0
  -29.5966  -18.9395   16.5886 N   0  0  0  0  0  0
  -29.9846  -15.5545   20.9585 N   0  0  0  0  0  0
  -30.3766  -19.5972   22.0415 F   0  0  0  0  0  0
  -31.4617  -12.4083   19.1224 H   0  0  0  0  0  0
  -30.3166  -11.3078   19.8370 H   0  0  0  0  0  0
  -29.7355  -11.7750   17.4302 H   0  0  0  0  0  0
  -29.6524  -13.4822   17.7688 H   0  0  0  0  0  0
  -27.8238  -11.3021   18.8194 H   0  0  0  0  0  0
  -27.3615  -12.6263   17.7848 H   0  0  0  0  0  0
  -27.6846  -14.2514   19.5511 H   0  0  0  0  0  0
  -28.6849  -11.9952   21.3596 H   0  0  0  0  0  0
  -28.4701  -13.6516   21.8490 H   0  0  0  0  0  0
  -25.2725   -9.5736   22.4762 H   0  0  0  0  0  0
  -24.0020   -7.4647   22.7459 H   0  0  0  0  0  0
  -21.0819   -8.8728   19.8946 H   0  0  0  0  0  0
  -22.3621  -10.9660   19.6159 H   0  0  0  0  0  0
  -21.1996   -7.6149   23.9716 H   0  0  0  0  0  0
  -21.1487   -6.0524   25.9089 H   0  0  0  0  0  0
  -22.0590   -2.7595   23.2863 H   0  0  0  0  0  0
  -22.4065  -11.9871   22.4802 H   0  0  0  0  0  0
  -21.1108  -13.1257   22.2596 H   0  0  0  0  0  0
  -24.6669  -15.8466   20.5100 H   0  0  0  0  0  0
  -26.2851  -15.6234   20.0776 H   0  0  0  0  0  0
  -26.7125  -32.5530   23.1151 H   0  0  0  0  0  0
  -24.9932  -33.9760   25.0386 H   0  0  0  0  0  0
  -22.7005  -31.3154   21.4085 H   0  0  0  0  0  0
  -23.3735  -35.9648   23.3308 H   0  0  0  0  0  0
  -24.3560  -36.8930   22.2052 H   0  0  0  0  0  0
  -23.7205  -37.6523   23.6647 H   0  0  0  0  0  0
  -26.0477  -31.5871   20.5896 H   0  0  0  0  0  0
  -26.8306  -30.8850   21.9759 H   0  0  0  0  0  0
  -28.1029  -29.0695   21.1663 H   0  0  0  0  0  0
  -26.0012  -25.9806   18.9805 H   0  0  0  0  0  0
  -23.9680  -27.3142   19.0230 H   0  0  0  0  0  0
  -23.7352  -30.6091   19.4057 H   0  0  0  0  0  0
  -22.7387  -29.2596   19.8586 H   0  0  0  0  0  0
  -25.1271  -36.1993   25.0837 H   0  0  0  0  0  0
  -20.9981  -28.3275   24.1406 H   0  0  0  0  0  0
  -20.5638  -26.2326   23.3614 H   0  0  0  0  0  0
  -21.6641  -26.7454   22.1220 H   0  0  0  0  0  0
  -19.6912  -25.6298   21.1246 H   0  0  0  0  0  0
  -19.6677  -27.3189   20.6726 H   0  0  0  0  0  0
  -17.4191  -26.6670   21.4037 H   0  0  0  0  0  0
  -18.0351  -26.0080   22.9026 H   0  0  0  0  0  0
  -19.7940  -30.7248   24.2323 H   0  0  0  0  0  0
  -17.5029  -31.6283   24.5162 H   0  0  0  0  0  0
  -15.5357  -30.3047   23.7590 H   0  0  0  0  0  0
  -15.8666  -28.0858   22.7032 H   0  0  0  0  0  0
  -24.5879  -30.7065   25.7761 H   0  0  0  0  0  0
  -24.8848  -32.2885   26.4856 H   0  0  0  0  0  0
  -25.8004  -30.8912   27.0226 H   0  0  0  0  0  0
  -26.2831  -29.6837   24.1101 H   0  0  0  0  0  0
  -27.3982  -29.7262   25.4577 H   0  0  0  0  0  0
  -27.8696  -30.4367   23.9299 H   0  0  0  0  0  0
  -27.2681  -33.3614   26.2085 H   0  0  0  0  0  0
  -28.3842  -32.6866   25.0301 H   0  0  0  0  0  0
  -28.0710  -31.8405   26.5375 H   0  0  0  0  0  0
  -28.2608  -38.0103   24.7527 H   0  0  0  0  0  0
  -28.1060  -36.2640   24.6266 H   0  0  0  0  0  0
  -27.2305  -37.1444   25.8872 H   0  0  0  0  0  0
  -20.9296  -29.8827   21.6934 H   0  0  0  0  0  0
  -26.0176  -38.2891   24.1428 H   0  0  0  0  0  0
  -29.6435  -21.2052   17.8562 H   0  0  0  0  0  0
  -30.8078  -15.1836   16.8023 H   0  0  0  0  0  0
  -31.6874  -16.7987   16.9268 H   0  0  0  0  0  0
  -29.1626  -15.9244   18.4266 H   0  0  0  0  0  0
  -28.4873  -22.6605   19.2824 H   0  0  0  0  0  0
  -31.6212  -24.2675   20.4335 H   0  0  0  0  0  0
  -30.9507  -25.8839   20.2709 H   0  0  0  0  0  0
  -30.9405  -24.7829   18.8949 H   0  0  0  0  0  0
  -30.1227  -17.2108   22.1631 H   0  0  0  0  0  0
  -31.5748  -16.9150   21.2820 H   0  0  0  0  0  0
  -27.3575  -24.8193   20.2720 H   0  0  0  0  0  0
  -28.2199  -25.1002   18.7666 H   0  0  0  0  0  0
  -29.3837  -24.3704   21.5015 H   0  0  0  0  0  0
  -29.8693  -19.7235   16.0052 H   0  0  0  0  0  0
  -29.8892  -18.0485   16.1979 H   0  0  0  0  0  0
  -29.0232  -15.3786   21.2054 H   0  0  0  0  0  0
  1 25  1  0  0  0
  1 30  2  0  0  0
  1 86  1  0  0  0
  2  3  1  0  0  0
  2 25  1  0  0  0
  2 88  1  0  0  0
  2 89  1  0  0  0
  3  4  1  0  0  0
  3 90  1  0  0  0
  3 91  1  0  0  0
  4  5  1  0  0  0
  4 92  1  0  0  0
  4 93  1  0  0  0
  5  6  1  0  0  0
  5 26  1  0  0  0
  5 94  1  0  0  0
  6 25  1  0  0  0
  6 95  1  0  0  0
  6 96  1  0  0  0
  7  8  2  0  0  0
  7 26  1  0  0  0
  7 29  1  0  0  0
  8  9  1  0  0  0
  8 22  1  0  0  0
  9 10  1  0  0  0
  9 27  2  0  0  0
 10 11  2  0  0  0
 10 15  1  0  0  0
 11 12  1  0  0  0
 11 97  1  0  0  0
 12 13  2  0  0  0
 12 98  1  0  0  0
 13 14  1  0  0  0
 13 31  1  0  0  0
 14 15  2  0  0  0
 14 99  1  0  0  0
 15100  1  0  0  0
 16 17  2  0  0  0
 16 21  1  0  0  0
 16 31  1  0  0  0
 17 18  1  0  0  0
 17101  1  0  0  0
 18 19  2  0  0  0
 18102  1  0  0  0
 19 20  1  0  0  0
 19 24  1  0  0  0
 20 21  2  0  0  0
 20103  1  0  0  0
 21 23  1  0  0  0
 22 28  1  0  0  0
 22 32  2  0  0  0
 26 27  1  0  0  0
 28104  1  0  0  0
 28105  1  0  0  0
 29106  1  0  0  0
 29107  1  0  0  0
 33 34  1  0  0  0
 33 66  1  0  0  0
 33 70  2  0  0  0
 34 36  1  0  0  0
 34 59  1  0  0  0
 34108  1  0  0  0
 35 44  2  0  0  0
 35 45  1  0  0  0
 35 68  1  0  0  0
 36 56  1  0  0  0
 36109  1  0  0  0
 37 39  1  0  0  0
 37 47  1  0  0  0
 37 66  1  0  0  0
 37110  1  0  0  0
 38 43  2  0  0  0
 38 46  1  0  0  0
 38 47  1  0  0  0
 39 64  1  0  0  0
 39 67  2  0  0  0
 40 52  1  0  0  0
 40 53  2  0  0  0
 40 58  1  0  0  0
 41111  1  0  0  0
 41112  1  0  0  0
 41113  1  0  0  0
 41 48  1  0  0  0
 42 43  1  0  0  0
 42 66  1  0  0  0
 42114  1  0  0  0
 42115  1  0  0  0
 43 44  1  0  0  0
 44116  1  0  0  0
 45 46  2  0  0  0
 45117  1  0  0  0
 46118  1  0  0  0
 47119  1  0  0  0
 47120  1  0  0  0
 48 56  1  0  0  0
 48 65  1  0  0  0
 48121  1  0  0  0
 49 50  1  0  0  0
 49 53  1  0  0  0
 49 64  1  0  0  0
 49122  1  0  0  0
 50 51  1  0  0  0
 50123  1  0  0  0
 50124  1  0  0  0
 51 52  1  0  0  0
 51125  1  0  0  0
 51126  1  0  0  0
 52127  1  0  0  0
 52128  1  0  0  0
 53 54  1  0  0  0
 54 55  2  0  0  0
 54129  1  0  0  0
 55 57  1  0  0  0
 55130  1  0  0  0
 56 69  2  0  0  0
 57 58  2  0  0  0
 57131  1  0  0  0
 58132  1  0  0  0
 59 60  1  0  0  0
 59 61  1  0  0  0
 59 62  1  0  0  0
 60133  1  0  0  0
 60134  1  0  0  0
 60135  1  0  0  0
 61136  1  0  0  0
 61137  1  0  0  0
 61138  1  0  0  0
 62139  1  0  0  0
 62140  1  0  0  0
 62141  1  0  0  0
 63 65  1  0  0  0
 63142  1  0  0  0
 63143  1  0  0  0
 63144  1  0  0  0
 64145  1  0  0  0
 65146  1  0  0  0
 68 82  1  0  0  0
 71 74  2  0  0  0
 71 75  1  0  0  0
 71147  1  0  0  0
 72 73  1  0  0  0
 72 75  2  0  0  0
 72 78  1  0  0  0
 73 76  2  0  0  0
 73 81  1  0  0  0
 74 76  1  0  0  0
 74 84  1  0  0  0
 75 85  1  0  0  0
 76 87  1  0  0  0
 77 78  2  0  0  0
 77148  1  0  0  0
 77149  1  0  0  0
 78150  1  0  0  0
 79 83  1  0  0  0
 79 84  2  0  0  0
 79151  1  0  0  0
 80152  1  0  0  0
 80153  1  0  0  0
 80154  1  0  0  0
 80 83  1  0  0  0
 81 86  1  0  0  0
 81155  1  0  0  0
 81156  1  0  0  0
 82 83  1  0  0  0
 82157  1  0  0  0
 82158  1  0  0  0
 83159  1  0  0  0
 85160  1  0  0  0
 85161  1  0  0  0
 86162  1  0  0  0
M  ISO  4   1 100  68 101  82 101  86 100
M  END
> <chiral flag>
0

> <version>
0

> <s_m_source_file>
/data/baiqing/PycharmProjects/Reinvent-master-3.2/result/LINK_invent/BTK/process_docking_weight1_custom_product_contain_oxygen_bond_distance_aromatic_linkinvent_7_9_3/rearranged_h_0115.sdf

> <i_m_source_file_index>
25

> <r_mmod_Potential_Energy-OPLS-2005>
-18.2798118591309

> <r_mmod_Stretch_Energy-OPLS-2005>
51.5150909423828

> <r_mmod_Bend_Energy-OPLS-2005>
113.805732727051

> <r_mmod_Torsional_Energy-OPLS-2005>
232.422760009766

> <r_mmod_Improper_Torsional_Energy-OPLS-2005>
8.51330089569092

> <r_mmod_Van_der_Waal_Energy-OPLS-2005>
165.936126708984

> <r_mmod_Electrostatic_Energy-OPLS-2005>
-391.138641357422

> <r_mmod_Solvation_Energy-OPLS-2005>
-219.415832519531

> <b_mmod_Minimization_Converged-OPLS-2005>
0

> <r_mmod_RMS_Derivative-OPLS-2005>
2.36500525474548

$$$$
25
                    3D
 Structure written by MMmdl.
161169  0  0  1  0            999 V2000
  -30.7538  -14.3703   20.6474 C   0  0  0  0  0  0
  -30.4141  -12.2719   19.4035 C   0  0  0  0  0  0
  -29.4831  -12.5146   18.1999 C   0  0  0  0  0  0
  -28.0076  -12.3704   18.6166 C   0  0  0  0  0  0
  -27.6648  -13.1964   19.8823 C   0  0  2  0  0  0
  -28.7032  -12.9430   20.9991 C   0  0  0  0  0  0
  -25.2614  -13.8146   20.5688 C   0  0  0  0  0  0
  -24.1842  -13.0447   20.9164 C   0  0  0  0  0  0
  -24.6372  -11.6901   20.8724 C   0  0  0  0  0  0
  -23.9036  -10.4294   21.0401 C   0  0  0  0  0  0
  -24.3599   -9.4208   21.9172 C   0  0  0  0  0  0
  -23.6281   -8.2240   22.0739 C   0  0  0  0  0  0
  -22.4266   -8.0266   21.3535 C   0  0  0  0  0  0
  -21.9897   -9.0238   20.4637 C   0  0  0  0  0  0
  -22.7215  -10.2124   20.3048 C   0  0  0  0  0  0
  -21.6842   -6.0732   22.5269 C   0  0  0  0  0  0
  -21.4013   -6.5636   23.8205 C   0  0  0  0  0  0
  -21.3666   -5.6787   24.9166 C   0  0  0  0  0  0
  -21.6050   -4.3051   24.7213 C   0  0  0  0  0  0
  -21.8819   -3.8143   23.4333 C   0  0  0  0  0  0
  -21.9197   -4.6962   22.3390 C   0  0  0  0  0  0
  -22.7865  -13.5233   21.1843 C   0  0  0  0  0  0
  -22.1659   -4.2154   21.0968 F   0  0  0  0  0  0
  -21.5637   -3.4531   25.7726 F   0  0  0  0  0  0
  -30.0484  -13.2257   20.4613 N   0  0  0  0  0  0
  -26.3033  -12.9289   20.3396 N   0  0  0  0  0  0
  -25.9301  -11.6463   20.5789 N   0  0  0  0  0  0
  -22.0519  -12.8221   22.0399 N   0  0  0  0  0  0
  -25.4408  -15.1859   20.4094 N   0  0  0  0  0  0
  -31.8084  -14.6221   20.0557 O   0  0  0  0  0  0
  -21.6626   -6.8872   21.4230 O   0  0  0  0  0  0
  -22.3551  -14.5547   20.6688 O   0  0  0  0  0  0
  -24.6075  -31.8715   23.2143 C   0  0  0  0  0  0
  -25.8990  -32.4846   23.8424 C   0  0  1  0  0  0
  -27.2472  -27.4852   20.1005 C   0  0  0  0  0  0
  -25.5879  -33.8643   24.2366 N   0  0  0  0  0  0
  -23.3942  -30.4932   21.5508 C   0  0  2  0  0  0
  -24.8461  -28.9621   20.1177 C   0  0  0  0  0  0
  -22.7385  -29.4659   22.5005 C   0  0  0  0  0  0
  -18.0270  -28.1372   22.8500 C   0  0  0  0  0  0
  -24.1483  -36.7317   23.2639 C   0  0  0  0  0  0
  -25.9149  -30.8544   21.3591 C   0  0  0  0  0  0
  -25.9979  -29.4886   20.7156 C   0  0  0  0  0  0
  -27.2001  -28.7558   20.7105 C   0  0  0  0  0  0
  -26.0869  -26.9637   19.4933 C   0  0  0  0  0  0
  -24.8818  -27.6946   19.5068 C   0  0  0  0  0  0
  -23.6024  -29.8206   20.1661 C   0  0  0  0  0  0
  -25.4104  -36.3131   24.0352 C   0  0  1  0  0  0
  -20.5853  -28.3642   23.1347 C   0  0  2  0  0  0
  -20.6759  -26.9389   22.5423 C   0  0  0  0  0  0
  -19.5731  -26.6385   21.5220 C   0  0  0  0  0  0
  -18.1911  -26.7922   22.1631 C   0  0  0  0  0  0
  -19.1516  -28.8827   23.2920 C   0  0  0  0  0  0
  -18.9444  -30.1436   23.8925 C   0  0  0  0  0  0
  -17.6445  -30.6580   24.0571 C   0  0  0  0  0  0
  -25.9020  -34.9488   23.5152 C   0  0  0  0  0  0
  -16.5339  -29.9081   23.6322 C   0  0  0  0  0  0
  -16.7258  -28.6499   23.0343 C   0  0  0  0  0  0
  -26.4454  -31.6603   25.0720 C   0  0  0  0  0  0
  -25.3757  -31.3670   26.1494 C   0  0  0  0  0  0
  -27.0274  -30.3067   24.6024 C   0  0  0  0  0  0
  -27.6046  -32.4312   25.7464 C   0  0  0  0  0  0
  -27.5585  -37.1816   24.8474 C   0  0  0  0  0  0
  -21.4120  -29.3017   22.3763 N   0  0  0  0  0  0
  -26.4302  -37.3807   23.9411 N   0  0  0  0  0  0
  -24.6563  -31.0864   22.1010 N   0  0  0  0  0  0
  -23.4188  -28.8217   23.3033 O   0  0  0  0  0  0
  -28.4089  -26.7585   20.0494 O   0  0  0  0  0  0
  -26.5568  -34.8932   22.4703 O   0  0  0  0  0  0
  -23.5284  -32.1440   23.7579 O   0  0  0  0  0  0
  -30.5797  -18.9075   20.8590 C   0  0  0  0  0  0
  -31.4471  -16.9677   22.6888 C   0  0  0  0  0  0
  -30.1461  -17.5711   20.6941 C   0  0  0  0  0  0
  -30.6027  -16.5954   21.6223 C   0  0  0  0  0  0
  -31.4369  -19.2860   21.9215 C   0  0  0  0  0  0
  -31.8691  -18.3007   22.8296 C   0  0  0  0  0  0
  -28.8871  -17.9895   18.5352 C   0  0  0  0  0  0
  -29.2606  -17.2043   19.5625 C   0  0  0  0  0  0
  -28.5478  -25.0484   21.7442 C   0  0  0  0  0  0
  -28.9813  -26.4335   21.3157 C   0  0  0  0  0  0
  -29.8663  -21.8132   22.6772 C   0  0  0  0  0  0
  -28.7831  -22.7900   22.1968 C   0  0  0  0  0  0
  -31.0596  -21.6582   21.7125 C   0  0  0  0  0  0
  -29.3608  -24.0838   21.8947 N   0  0  0  0  0  0
  -30.2196  -15.2362   21.5176 N   0  0  0  0  0  0
  -31.8911  -20.5739   22.1187 O   0  0  0  0  0  0
  -32.6879  -18.6407   23.8544 F   0  0  0  0  0  0
  -31.4578  -12.3609   19.0971 H   0  0  0  0  0  0
  -30.3031  -11.2498   19.7702 H   0  0  0  0  0  0
  -29.7122  -11.8123   17.3970 H   0  0  0  0  0  0
  -29.6573  -13.5123   17.7945 H   0  0  0  0  0  0
  -27.8154  -11.3126   18.8031 H   0  0  0  0  0  0
  -27.3535  -12.6563   17.7927 H   0  0  0  0  0  0
  -27.7200  -14.2463   19.5999 H   0  0  0  0  0  0
  -28.6617  -11.9015   21.3198 H   0  0  0  0  0  0
  -28.4537  -13.5214   21.8889 H   0  0  0  0  0  0
  -25.2750   -9.5673   22.4745 H   0  0  0  0  0  0
  -23.9996   -7.4620   22.7436 H   0  0  0  0  0  0
  -21.0848   -8.8744   19.8926 H   0  0  0  0  0  0
  -22.3676  -10.9657   19.6154 H   0  0  0  0  0  0
  -21.1993   -7.6146   23.9708 H   0  0  0  0  0  0
  -21.1496   -6.0515   25.9073 H   0  0  0  0  0  0
  -22.0600   -2.7607   23.2819 H   0  0  0  0  0  0
  -22.4135  -11.9880   22.4790 H   0  0  0  0  0  0
  -21.1133  -13.1230   22.2613 H   0  0  0  0  0  0
  -24.6869  -15.8542   20.5222 H   0  0  0  0  0  0
  -26.3060  -15.6154   20.1067 H   0  0  0  0  0  0
  -26.7063  -32.5594   23.1201 H   0  0  0  0  0  0
  -25.0100  -33.9817   25.0560 H   0  0  0  0  0  0
  -22.6794  -31.3070   21.4113 H   0  0  0  0  0  0
  -23.3751  -35.9643   23.3324 H   0  0  0  0  0  0
  -24.3591  -36.8900   22.2050 H   0  0  0  0  0  0
  -23.7229  -37.6532   23.6626 H   0  0  0  0  0  0
  -26.0130  -31.6187   20.5875 H   0  0  0  0  0  0
  -26.8070  -30.9174   21.9690 H   0  0  0  0  0  0
  -28.0911  -29.1735   21.1571 H   0  0  0  0  0  0
  -26.1179  -25.9941   19.0168 H   0  0  0  0  0  0
  -23.9966  -27.2827   19.0423 H   0  0  0  0  0  0
  -23.7063  -30.5919   19.4021 H   0  0  0  0  0  0
  -22.7304  -29.2328   19.8738 H   0  0  0  0  0  0
  -25.1274  -36.2013   25.0848 H   0  0  0  0  0  0
  -20.9945  -28.3196   24.1469 H   0  0  0  0  0  0
  -20.5677  -26.2247   23.3602 H   0  0  0  0  0  0
  -21.6627  -26.7447   22.1205 H   0  0  0  0  0  0
  -19.6891  -25.6304   21.1226 H   0  0  0  0  0  0
  -19.6670  -27.3222   20.6770 H   0  0  0  0  0  0
  -17.4191  -26.6693   21.4025 H   0  0  0  0  0  0
  -18.0294  -26.0052   22.9008 H   0  0  0  0  0  0
  -19.7915  -30.7247   24.2308 H   0  0  0  0  0  0
  -17.4996  -31.6266   24.5162 H   0  0  0  0  0  0
  -15.5337  -30.2989   23.7628 H   0  0  0  0  0  0
  -15.8662  -28.0831   22.7027 H   0  0  0  0  0  0
  -24.5937  -30.7001   25.7848 H   0  0  0  0  0  0
  -24.8935  -32.2802   26.4987 H   0  0  0  0  0  0
  -25.8153  -30.8830   27.0223 H   0  0  0  0  0  0
  -26.2784  -29.6838   24.1121 H   0  0  0  0  0  0
  -27.4138  -29.7289   25.4428 H   0  0  0  0  0  0
  -27.8575  -30.4426   23.9089 H   0  0  0  0  0  0
  -27.2682  -33.3603   26.2077 H   0  0  0  0  0  0
  -28.3825  -32.6889   25.0265 H   0  0  0  0  0  0
  -28.0743  -31.8415   26.5346 H   0  0  0  0  0  0
  -28.2619  -38.0097   24.7517 H   0  0  0  0  0  0
  -28.1063  -36.2633   24.6304 H   0  0  0  0  0  0
  -27.2304  -37.1478   25.8879 H   0  0  0  0  0  0
  -20.9280  -29.8762   21.7011 H   0  0  0  0  0  0
  -26.0201  -38.2889   24.1412 H   0  0  0  0  0  0
  -30.2518  -19.6442   20.1479 H   0  0  0  0  0  0
  -31.7913  -16.2313   23.3999 H   0  0  0  0  0  0
  -28.2286  -17.6067   17.7675 H   0  0  0  0  0  0
  -29.2142  -19.0115   18.4191 H   0  0  0  0  0  0
  -28.8640  -16.2029   19.5625 H   0  0  0  0  0  0
  -27.4682  -24.9394   21.8855 H   0  0  0  0  0  0
  -28.7254  -27.1373   22.1093 H   0  0  0  0  0  0
  -30.0673  -26.4606   21.2201 H   0  0  0  0  0  0
  -29.3882  -20.8458   22.8344 H   0  0  0  0  0  0
  -30.2363  -22.1251   23.6535 H   0  0  0  0  0  0
  -28.0070  -22.8609   22.9642 H   0  0  0  0  0  0
  -28.3025  -22.3799   21.3060 H   0  0  0  0  0  0
  -31.6725  -22.5599   21.7525 H   0  0  0  0  0  0
  -30.7390  -21.5838   20.6748 H   0  0  0  0  0  0
  -29.4045  -14.9385   22.0312 H   0  0  0  0  0  0
  1 25  1  0  0  0
  1 30  2  0  0  0
  1 85  1  0  0  0
  2  3  1  0  0  0
  2 25  1  0  0  0
  2 88  1  0  0  0
  2 89  1  0  0  0
  3  4  1  0  0  0
  3 90  1  0  0  0
  3 91  1  0  0  0
  4  5  1  0  0  0
  4 92  1  0  0  0
  4 93  1  0  0  0
  5  6  1  0  0  0
  5 26  1  0  0  0
  5 94  1  0  0  0
  6 25  1  0  0  0
  6 95  1  0  0  0
  6 96  1  0  0  0
  7  8  2  0  0  0
  7 26  1  0  0  0
  7 29  1  0  0  0
  8  9  1  0  0  0
  8 22  1  0  0  0
  9 10  1  0  0  0
  9 27  2  0  0  0
 10 11  2  0  0  0
 10 15  1  0  0  0
 11 12  1  0  0  0
 11 97  1  0  0  0
 12 13  2  0  0  0
 12 98  1  0  0  0
 13 14  1  0  0  0
 13 31  1  0  0  0
 14 15  2  0  0  0
 14 99  1  0  0  0
 15100  1  0  0  0
 16 17  2  0  0  0
 16 21  1  0  0  0
 16 31  1  0  0  0
 17 18  1  0  0  0
 17101  1  0  0  0
 18 19  2  0  0  0
 18102  1  0  0  0
 19 20  1  0  0  0
 19 24  1  0  0  0
 20 21  2  0  0  0
 20103  1  0  0  0
 21 23  1  0  0  0
 22 28  1  0  0  0
 22 32  2  0  0  0
 26 27  1  0  0  0
 28104  1  0  0  0
 28105  1  0  0  0
 29106  1  0  0  0
 29107  1  0  0  0
 33 34  1  0  0  0
 33 66  1  0  0  0
 33 70  2  0  0  0
 34 36  1  0  0  0
 34 59  1  0  0  0
 34108  1  0  0  0
 35 44  2  0  0  0
 35 45  1  0  0  0
 35 68  1  0  0  0
 36 56  1  0  0  0
 36109  1  0  0  0
 37 39  1  0  0  0
 37 47  1  0  0  0
 37 66  1  0  0  0
 37110  1  0  0  0
 38 43  2  0  0  0
 38 46  1  0  0  0
 38 47  1  0  0  0
 39 64  1  0  0  0
 39 67  2  0  0  0
 40 52  1  0  0  0
 40 53  2  0  0  0
 40 58  1  0  0  0
 41111  1  0  0  0
 41112  1  0  0  0
 41113  1  0  0  0
 41 48  1  0  0  0
 42 43  1  0  0  0
 42 66  1  0  0  0
 42114  1  0  0  0
 42115  1  0  0  0
 43 44  1  0  0  0
 44116  1  0  0  0
 45 46  2  0  0  0
 45117  1  0  0  0
 46118  1  0  0  0
 47119  1  0  0  0
 47120  1  0  0  0
 48 56  1  0  0  0
 48 65  1  0  0  0
 48121  1  0  0  0
 49 50  1  0  0  0
 49 53  1  0  0  0
 49 64  1  0  0  0
 49122  1  0  0  0
 50 51  1  0  0  0
 50123  1  0  0  0
 50124  1  0  0  0
 51 52  1  0  0  0
 51125  1  0  0  0
 51126  1  0  0  0
 52127  1  0  0  0
 52128  1  0  0  0
 53 54  1  0  0  0
 54 55  2  0  0  0
 54129  1  0  0  0
 55 57  1  0  0  0
 55130  1  0  0  0
 56 69  2  0  0  0
 57 58  2  0  0  0
 57131  1  0  0  0
 58132  1  0  0  0
 59 60  1  0  0  0
 59 61  1  0  0  0
 59 62  1  0  0  0
 60133  1  0  0  0
 60134  1  0  0  0
 60135  1  0  0  0
 61136  1  0  0  0
 61137  1  0  0  0
 61138  1  0  0  0
 62139  1  0  0  0
 62140  1  0  0  0
 62141  1  0  0  0
 63 65  1  0  0  0
 63142  1  0  0  0
 63143  1  0  0  0
 63144  1  0  0  0
 64145  1  0  0  0
 65146  1  0  0  0
 68 80  1  0  0  0
 71 73  2  0  0  0
 71 75  1  0  0  0
 71147  1  0  0  0
 72 74  2  0  0  0
 72 76  1  0  0  0
 72148  1  0  0  0
 73 74  1  0  0  0
 73 78  1  0  0  0
 74 85  1  0  0  0
 75 76  2  0  0  0
 75 86  1  0  0  0
 76 87  1  0  0  0
 77 78  2  0  0  0
 77149  1  0  0  0
 77150  1  0  0  0
 78151  1  0  0  0
 79 80  1  0  0  0
 79 84  2  0  0  0
 79152  1  0  0  0
 80153  1  0  0  0
 80154  1  0  0  0
 81 82  1  0  0  0
 81 83  1  0  0  0
 81155  1  0  0  0
 81156  1  0  0  0
 82 84  1  0  0  0
 82157  1  0  0  0
 82158  1  0  0  0
 83 86  1  0  0  0
 83159  1  0  0  0
 83160  1  0  0  0
 85161  1  0  0  0
M  ISO  4   1 100  68 101  80 101  85 100
M  END
> <chiral flag>
0

> <version>
0

> <s_m_source_file>
/data/baiqing/PycharmProjects/Reinvent-master-3.2/result/LINK_invent/BTK/process_docking_weight1_custom_product_contain_oxygen_bond_distance_aromatic_linkinvent_7_9_3/rearranged_h_0115.sdf

> <i_m_source_file_index>
26

> <r_mmod_Potential_Energy-OPLS-2005>
-2.70536279678345

> <r_mmod_Stretch_Energy-OPLS-2005>
33.3438110351562

> <r_mmod_Bend_Energy-OPLS-2005>
95.0693664550781

> <r_mmod_Torsional_Energy-OPLS-2005>
255.431976318359

> <r_mmod_Improper_Torsional_Energy-OPLS-2005>
2.13155269622803

> <r_mmod_Van_der_Waal_Energy-OPLS-2005>
165.058807373047

> <r_mmod_Electrostatic_Energy-OPLS-2005>
-337.445007324219

> <r_mmod_Solvation_Energy-OPLS-2005>
-222.268051147461

> <b_mmod_Minimization_Converged-OPLS-2005>
0

> <r_mmod_RMS_Derivative-OPLS-2005>
1.80377984046936

$$$$
26
                    3D
 Structure written by MMmdl.
158166  0  0  1  0            999 V2000
  -30.6541  -14.5931   20.4990 C   0  0  0  0  0  0
  -30.4318  -12.3599   19.4506 C   0  0  0  0  0  0
  -29.5037  -12.4957   18.2236 C   0  0  0  0  0  0
  -28.0244  -12.3499   18.6342 C   0  0  0  0  0  0
  -27.6540  -13.2172   19.8671 C   0  0  2  0  0  0
  -28.7010  -13.0630   20.9951 C   0  0  0  0  0  0
  -25.2528  -13.8167   20.5702 C   0  0  0  0  0  0
  -24.1812  -13.0411   20.9187 C   0  0  0  0  0  0
  -24.6400  -11.6896   20.8743 C   0  0  0  0  0  0
  -23.9073  -10.4276   21.0400 C   0  0  0  0  0  0
  -24.3622   -9.4190   21.9180 C   0  0  0  0  0  0
  -23.6290   -8.2231   22.0753 C   0  0  0  0  0  0
  -22.4274   -8.0273   21.3543 C   0  0  0  0  0  0
  -21.9906   -9.0251   20.4649 C   0  0  0  0  0  0
  -22.7240  -10.2126   20.3057 C   0  0  0  0  0  0
  -21.6849   -6.0733   22.5280 C   0  0  0  0  0  0
  -21.4010   -6.5639   23.8214 C   0  0  0  0  0  0
  -21.3660   -5.6793   24.9177 C   0  0  0  0  0  0
  -21.6044   -4.3056   24.7230 C   0  0  0  0  0  0
  -21.8819   -3.8148   23.4352 C   0  0  0  0  0  0
  -21.9193   -4.6962   22.3409 C   0  0  0  0  0  0
  -22.7833  -13.5199   21.1856 C   0  0  0  0  0  0
  -22.1663   -4.2144   21.0986 F   0  0  0  0  0  0
  -21.5627   -3.4540   25.7743 F   0  0  0  0  0  0
  -30.0224  -13.3822   20.4310 N   0  0  0  0  0  0
  -26.2991  -12.9375   20.3361 N   0  0  0  0  0  0
  -25.9333  -11.6521   20.5784 N   0  0  0  0  0  0
  -22.0487  -12.8192   22.0421 N   0  0  0  0  0  0
  -25.4065  -15.1909   20.4166 N   0  0  0  0  0  0
  -31.8187  -14.7357   20.1184 O   0  0  0  0  0  0
  -21.6635   -6.8872   21.4242 O   0  0  0  0  0  0
  -22.3515  -14.5512   20.6720 O   0  0  0  0  0  0
  -24.6229  -31.8615   23.2042 C   0  0  0  0  0  0
  -25.9087  -32.4790   23.8358 C   0  0  1  0  0  0
  -27.2296  -27.3529   20.1075 C   0  0  0  0  0  0
  -25.5908  -33.8589   24.2286 N   0  0  0  0  0  0
  -23.4148  -30.4854   21.5458 C   0  0  2  0  0  0
  -24.8609  -28.9438   20.1104 C   0  0  0  0  0  0
  -22.7452  -29.4635   22.4947 C   0  0  0  0  0  0
  -18.0282  -28.1385   22.8488 C   0  0  0  0  0  0
  -24.1484  -36.7308   23.2638 C   0  0  0  0  0  0
  -25.9518  -30.8032   21.3687 C   0  0  0  0  0  0
  -26.0268  -29.4327   20.7123 C   0  0  0  0  0  0
  -27.2126  -28.6472   20.7029 C   0  0  0  0  0  0
  -26.0421  -26.9095   19.4799 C   0  0  0  0  0  0
  -24.8684  -27.6859   19.4879 C   0  0  0  0  0  0
  -23.6271  -29.8191   20.1607 C   0  0  0  0  0  0
  -25.4107  -36.3094   24.0332 C   0  0  1  0  0  0
  -20.5877  -28.3685   23.1293 C   0  0  2  0  0  0
  -20.6767  -26.9411   22.5415 C   0  0  0  0  0  0
  -19.5746  -26.6387   21.5212 C   0  0  0  0  0  0
  -18.1927  -26.7928   22.1627 C   0  0  0  0  0  0
  -19.1533  -28.8850   23.2887 C   0  0  0  0  0  0
  -18.9458  -30.1453   23.8902 C   0  0  0  0  0  0
  -17.6460  -30.6591   24.0567 C   0  0  0  0  0  0
  -25.9041  -34.9462   23.5111 C   0  0  0  0  0  0
  -16.5352  -29.9093   23.6327 C   0  0  0  0  0  0
  -16.7271  -28.6512   23.0345 C   0  0  0  0  0  0
  -26.4484  -31.6592   25.0716 C   0  0  0  0  0  0
  -25.3735  -31.3721   26.1457 C   0  0  0  0  0  0
  -27.0323  -30.3021   24.6146 C   0  0  0  0  0  0
  -27.6044  -32.4324   25.7486 C   0  0  0  0  0  0
  -27.5578  -37.1808   24.8464 C   0  0  0  0  0  0
  -21.4170  -29.3044   22.3689 N   0  0  0  0  0  0
  -26.4288  -37.3785   23.9409 N   0  0  0  0  0  0
  -24.6821  -31.0654   22.0974 N   0  0  0  0  0  0
  -23.4189  -28.8177   23.3017 O   0  0  0  0  0  0
  -28.3697  -26.5456   20.1617 O   0  0  0  0  0  0
  -26.5616  -34.8927   22.4679 O   0  0  0  0  0  0
  -23.5401  -32.1396   23.7391 O   0  0  0  0  0  0
  -31.0171  -20.0655   20.7919 C   0  0  0  0  0  0
  -31.2722  -17.6471   20.8758 C   0  0  0  0  0  0
  -31.7382  -18.9184   20.8243 C   0  0  0  0  0  0
  -29.6939  -20.3523   20.7958 C   0  0  0  0  0  0
  -30.0555  -17.0744   20.7206 C   0  0  0  0  0  0
  -28.6785  -19.4400   20.7204 C   0  0  0  0  0  0
  -28.8441  -17.9432   20.4966 C   0  0  0  0  0  0
  -29.4193  -22.6873   20.2184 C   0  0  0  0  0  0
  -33.2525  -19.0767   20.8552 C   0  0  0  0  0  0
  -29.3616  -24.2087   20.5811 C   0  0  0  0  0  0
  -28.2344  -25.0978   19.9394 C   0  0  0  0  0  0
  -27.8078  -17.3282   20.0961 N   0  0  0  0  0  0
  -29.3648  -21.7201   21.0763 N   0  0  0  0  0  0
  -27.3752  -19.9046   20.8099 N   0  0  0  0  0  0
  -29.8450  -15.6511   20.7918 N   0  0  0  0  0  0
  -31.4745  -12.4687   19.1482 H   0  0  0  0  0  0
  -30.3495  -11.3639   19.8887 H   0  0  0  0  0  0
  -29.7577  -11.7419   17.4772 H   0  0  0  0  0  0
  -29.6600  -13.4651   17.7482 H   0  0  0  0  0  0
  -27.8484  -11.2970   18.8577 H   0  0  0  0  0  0
  -27.3741  -12.5939   17.7931 H   0  0  0  0  0  0
  -27.6712  -14.2529   19.5300 H   0  0  0  0  0  0
  -28.6990  -12.0433   21.3827 H   0  0  0  0  0  0
  -28.4566  -13.7022   21.8448 H   0  0  0  0  0  0
  -25.2764   -9.5663   22.4754 H   0  0  0  0  0  0
  -23.9995   -7.4622   22.7474 H   0  0  0  0  0  0
  -21.0832   -8.8778   19.8963 H   0  0  0  0  0  0
  -22.3695  -10.9671   19.6173 H   0  0  0  0  0  0
  -21.1999   -7.6146   23.9715 H   0  0  0  0  0  0
  -21.1482   -6.0525   25.9078 H   0  0  0  0  0  0
  -22.0596   -2.7610   23.2859 H   0  0  0  0  0  0
  -22.4108  -11.9846   22.4793 H   0  0  0  0  0  0
  -21.1115  -13.1227   22.2650 H   0  0  0  0  0  0
  -24.6209  -15.8170   20.5529 H   0  0  0  0  0  0
  -26.2437  -15.6919   20.1426 H   0  0  0  0  0  0
  -26.7155  -32.5470   23.1111 H   0  0  0  0  0  0
  -25.0040  -33.9731   25.0420 H   0  0  0  0  0  0
  -22.7083  -31.3056   21.4032 H   0  0  0  0  0  0
  -23.3740  -35.9646   23.3306 H   0  0  0  0  0  0
  -24.3574  -36.8921   22.2051 H   0  0  0  0  0  0
  -23.7243  -37.6516   23.6653 H   0  0  0  0  0  0
  -26.0744  -31.5675   20.5999 H   0  0  0  0  0  0
  -26.8359  -30.8546   21.9930 H   0  0  0  0  0  0
  -28.1091  -29.0177   21.1797 H   0  0  0  0  0  0
  -25.9960  -25.9529   18.9809 H   0  0  0  0  0  0
  -23.9745  -27.3067   19.0122 H   0  0  0  0  0  0
  -23.7440  -30.5947   19.4030 H   0  0  0  0  0  0
  -22.7481  -29.2456   19.8599 H   0  0  0  0  0  0
  -25.1287  -36.1950   25.0825 H   0  0  0  0  0  0
  -20.9971  -28.3256   24.1413 H   0  0  0  0  0  0
  -20.5661  -26.2296   23.3611 H   0  0  0  0  0  0
  -21.6637  -26.7439   22.1214 H   0  0  0  0  0  0
  -19.6907  -25.6297   21.1242 H   0  0  0  0  0  0
  -19.6685  -27.3200   20.6743 H   0  0  0  0  0  0
  -17.4193  -26.6670   21.4033 H   0  0  0  0  0  0
  -18.0338  -26.0071   22.9029 H   0  0  0  0  0  0
  -19.7932  -30.7266   24.2273 H   0  0  0  0  0  0
  -17.5017  -31.6271   24.5174 H   0  0  0  0  0  0
  -15.5353  -30.3001   23.7646 H   0  0  0  0  0  0
  -15.8671  -28.0841   22.7048 H   0  0  0  0  0  0
  -24.5902  -30.7074   25.7798 H   0  0  0  0  0  0
  -24.8937  -32.2888   26.4899 H   0  0  0  0  0  0
  -25.8080  -30.8894   27.0222 H   0  0  0  0  0  0
  -26.2889  -29.6778   24.1175 H   0  0  0  0  0  0
  -27.4039  -29.7266   25.4635 H   0  0  0  0  0  0
  -27.8747  -30.4315   23.9347 H   0  0  0  0  0  0
  -27.2646  -33.3615   26.2076 H   0  0  0  0  0  0
  -28.3850  -32.6902   25.0316 H   0  0  0  0  0  0
  -28.0719  -31.8445   26.5396 H   0  0  0  0  0  0
  -28.2602  -38.0099   24.7505 H   0  0  0  0  0  0
  -28.1067  -36.2633   24.6295 H   0  0  0  0  0  0
  -27.2299  -37.1468   25.8868 H   0  0  0  0  0  0
  -20.9339  -29.8775   21.6913 H   0  0  0  0  0  0
  -26.0175  -38.2862   24.1407 H   0  0  0  0  0  0
  -31.6409  -20.9484   20.8412 H   0  0  0  0  0  0
  -32.0376  -16.9429   21.1647 H   0  0  0  0  0  0
  -29.5832  -22.4937   19.1544 H   0  0  0  0  0  0
  -33.5806  -19.9395   20.2739 H   0  0  0  0  0  0
  -33.7599  -18.2039   20.4406 H   0  0  0  0  0  0
  -33.5951  -19.2107   21.8821 H   0  0  0  0  0  0
  -30.3224  -24.6338   20.2923 H   0  0  0  0  0  0
  -29.3163  -24.3066   21.6659 H   0  0  0  0  0  0
  -27.2869  -24.7402   20.3453 H   0  0  0  0  0  0
  -28.2050  -24.9228   18.8629 H   0  0  0  0  0  0
  -28.0487  -16.3620   19.9341 H   0  0  0  0  0  0
  -27.2123  -20.8860   20.6304 H   0  0  0  0  0  0
  -26.6717  -19.2772   20.4344 H   0  0  0  0  0  0
  -28.9056  -15.3890   21.0438 H   0  0  0  0  0  0
  1 25  1  0  0  0
  1 30  2  0  0  0
  1 85  1  0  0  0
  2  3  1  0  0  0
  2 25  1  0  0  0
  2 86  1  0  0  0
  2 87  1  0  0  0
  3  4  1  0  0  0
  3 88  1  0  0  0
  3 89  1  0  0  0
  4  5  1  0  0  0
  4 90  1  0  0  0
  4 91  1  0  0  0
  5  6  1  0  0  0
  5 26  1  0  0  0
  5 92  1  0  0  0
  6 25  1  0  0  0
  6 93  1  0  0  0
  6 94  1  0  0  0
  7  8  2  0  0  0
  7 26  1  0  0  0
  7 29  1  0  0  0
  8  9  1  0  0  0
  8 22  1  0  0  0
  9 10  1  0  0  0
  9 27  2  0  0  0
 10 11  2  0  0  0
 10 15  1  0  0  0
 11 12  1  0  0  0
 11 95  1  0  0  0
 12 13  2  0  0  0
 12 96  1  0  0  0
 13 14  1  0  0  0
 13 31  1  0  0  0
 14 15  2  0  0  0
 14 97  1  0  0  0
 15 98  1  0  0  0
 16 17  2  0  0  0
 16 21  1  0  0  0
 16 31  1  0  0  0
 17 18  1  0  0  0
 17 99  1  0  0  0
 18 19  2  0  0  0
 18100  1  0  0  0
 19 20  1  0  0  0
 19 24  1  0  0  0
 20 21  2  0  0  0
 20101  1  0  0  0
 21 23  1  0  0  0
 22 28  1  0  0  0
 22 32  2  0  0  0
 26 27  1  0  0  0
 28102  1  0  0  0
 28103  1  0  0  0
 29104  1  0  0  0
 29105  1  0  0  0
 33 34  1  0  0  0
 33 66  1  0  0  0
 33 70  2  0  0  0
 34 36  1  0  0  0
 34 59  1  0  0  0
 34106  1  0  0  0
 35 44  2  0  0  0
 35 45  1  0  0  0
 35 68  1  0  0  0
 36 56  1  0  0  0
 36107  1  0  0  0
 37 39  1  0  0  0
 37 47  1  0  0  0
 37 66  1  0  0  0
 37108  1  0  0  0
 38 43  2  0  0  0
 38 46  1  0  0  0
 38 47  1  0  0  0
 39 64  1  0  0  0
 39 67  2  0  0  0
 40 52  1  0  0  0
 40 53  2  0  0  0
 40 58  1  0  0  0
 41109  1  0  0  0
 41110  1  0  0  0
 41111  1  0  0  0
 41 48  1  0  0  0
 42 43  1  0  0  0
 42 66  1  0  0  0
 42112  1  0  0  0
 42113  1  0  0  0
 43 44  1  0  0  0
 44114  1  0  0  0
 45 46  2  0  0  0
 45115  1  0  0  0
 46116  1  0  0  0
 47117  1  0  0  0
 47118  1  0  0  0
 48 56  1  0  0  0
 48 65  1  0  0  0
 48119  1  0  0  0
 49 50  1  0  0  0
 49 53  1  0  0  0
 49 64  1  0  0  0
 49120  1  0  0  0
 50 51  1  0  0  0
 50121  1  0  0  0
 50122  1  0  0  0
 51 52  1  0  0  0
 51123  1  0  0  0
 51124  1  0  0  0
 52125  1  0  0  0
 52126  1  0  0  0
 53 54  1  0  0  0
 54 55  2  0  0  0
 54127  1  0  0  0
 55 57  1  0  0  0
 55128  1  0  0  0
 56 69  2  0  0  0
 57 58  2  0  0  0
 57129  1  0  0  0
 58130  1  0  0  0
 59 60  1  0  0  0
 59 61  1  0  0  0
 59 62  1  0  0  0
 60131  1  0  0  0
 60132  1  0  0  0
 60133  1  0  0  0
 61134  1  0  0  0
 61135  1  0  0  0
 61136  1  0  0  0
 62137  1  0  0  0
 62138  1  0  0  0
 62139  1  0  0  0
 63 65  1  0  0  0
 63140  1  0  0  0
 63141  1  0  0  0
 63142  1  0  0  0
 64143  1  0  0  0
 65144  1  0  0  0
 68 81  1  0  0  0
 71 73  2  0  0  0
 71 74  1  0  0  0
 71145  1  0  0  0
 72 73  1  0  0  0
 72 75  2  0  0  0
 72146  1  0  0  0
 73 79  1  0  0  0
 74 76  2  0  0  0
 74 83  1  0  0  0
 75 77  1  0  0  0
 75 85  1  0  0  0
 76 77  1  0  0  0
 76 84  1  0  0  0
 77 82  2  0  0  0
 78 80  1  0  0  0
 78 83  2  0  0  0
 78147  1  0  0  0
 79148  1  0  0  0
 79149  1  0  0  0
 79150  1  0  0  0
 80 81  1  0  0  0
 80151  1  0  0  0
 80152  1  0  0  0
 81153  1  0  0  0
 81154  1  0  0  0
 82155  1  0  0  0
 84156  1  0  0  0
 84157  1  0  0  0
 85158  1  0  0  0
M  ISO  4   1 100  68 101  81 101  85 100
M  END
> <chiral flag>
0

> <version>
0

> <s_m_source_file>
/data/baiqing/PycharmProjects/Reinvent-master-3.2/result/LINK_invent/BTK/process_docking_weight1_custom_product_contain_oxygen_bond_distance_aromatic_linkinvent_7_9_3/rearranged_h_0115.sdf

> <i_m_source_file_index>
27

> <r_mmod_Potential_Energy-OPLS-2005>
-83.2365264892578

> <r_mmod_Stretch_Energy-OPLS-2005>
71.0981674194336

> <r_mmod_Bend_Energy-OPLS-2005>
162.929580688477

> <r_mmod_Torsional_Energy-OPLS-2005>
197.153366088867

> <r_mmod_Improper_Torsional_Energy-OPLS-2005>
9.27152824401855

> <r_mmod_Van_der_Waal_Energy-OPLS-2005>
169.626342773438

> <r_mmod_Electrostatic_Energy-OPLS-2005>
-513.469787597656

> <r_mmod_Solvation_Energy-OPLS-2005>
-214.853897094727

> <b_mmod_Minimization_Converged-OPLS-2005>
0

> <r_mmod_RMS_Derivative-OPLS-2005>
0.92902547121048

$$$$
27
                    3D
 Structure written by MMmdl.
154162  0  0  1  0            999 V2000
  -30.5097  -15.0100   20.3929 C   0  0  0  0  0  0
  -30.4380  -12.6121   19.5440 C   0  0  0  0  0  0
  -29.5352  -12.4901   18.2908 C   0  0  0  0  0  0
  -28.0534  -12.3226   18.6758 C   0  0  0  0  0  0
  -27.6232  -13.2587   19.8355 C   0  0  2  0  0  0
  -28.6535  -13.2938   20.9813 C   0  0  0  0  0  0
  -25.2404  -13.8244   20.5676 C   0  0  0  0  0  0
  -24.1740  -13.0443   20.9194 C   0  0  0  0  0  0
  -24.6385  -11.6940   20.8738 C   0  0  0  0  0  0
  -23.9086  -10.4296   21.0398 C   0  0  0  0  0  0
  -24.3647   -9.4217   21.9181 C   0  0  0  0  0  0
  -23.6311   -8.2254   22.0752 C   0  0  0  0  0  0
  -22.4291   -8.0294   21.3537 C   0  0  0  0  0  0
  -21.9925   -9.0267   20.4638 C   0  0  0  0  0  0
  -22.7258  -10.2142   20.3046 C   0  0  0  0  0  0
  -21.6864   -6.0743   22.5284 C   0  0  0  0  0  0
  -21.4014   -6.5641   23.8217 C   0  0  0  0  0  0
  -21.3664   -5.6787   24.9174 C   0  0  0  0  0  0
  -21.6052   -4.3051   24.7220 C   0  0  0  0  0  0
  -21.8822   -3.8147   23.4339 C   0  0  0  0  0  0
  -21.9197   -4.6970   22.3399 C   0  0  0  0  0  0
  -22.7761  -13.5206   21.1874 C   0  0  0  0  0  0
  -22.1665   -4.2157   21.0971 F   0  0  0  0  0  0
  -21.5628   -3.4532   25.7726 F   0  0  0  0  0  0
  -29.9318  -13.7301   20.4044 N   0  0  0  0  0  0
  -26.2839  -12.9503   20.3201 N   0  0  0  0  0  0
  -25.9322  -11.6622   20.5730 N   0  0  0  0  0  0
  -22.0433  -12.8193   22.0444 N   0  0  0  0  0  0
  -25.4045  -15.1983   20.4135 N   0  0  0  0  0  0
  -31.6983  -15.0613   20.0515 O   0  0  0  0  0  0
  -21.6653   -6.8893   21.4244 O   0  0  0  0  0  0
  -22.3438  -14.5505   20.6728 O   0  0  0  0  0  0
  -24.6446  -31.8404   23.1861 C   0  0  0  0  0  0
  -25.9209  -32.4675   23.8264 C   0  0  1  0  0  0
  -27.2168  -27.1005   20.1616 C   0  0  0  0  0  0
  -25.5947  -33.8484   24.2177 N   0  0  0  0  0  0
  -23.4503  -30.4585   21.5315 C   0  0  2  0  0  0
  -24.9018  -28.8795   20.1066 C   0  0  0  0  0  0
  -22.7571  -29.4528   22.4846 C   0  0  0  0  0  0
  -18.0303  -28.1405   22.8466 C   0  0  0  0  0  0
  -24.1492  -36.7246   23.2644 C   0  0  0  0  0  0
  -26.0076  -30.7029   21.3903 C   0  0  0  0  0  0
  -26.0778  -29.3107   20.7322 C   0  0  0  0  0  0
  -27.2330  -28.4371   20.7426 C   0  0  0  0  0  0
  -26.0208  -26.7855   19.4785 C   0  0  0  0  0  0
  -24.8895  -27.6334   19.4607 C   0  0  0  0  0  0
  -23.6789  -29.7850   20.1511 C   0  0  0  0  0  0
  -25.4127  -36.3020   24.0314 C   0  0  1  0  0  0
  -20.5916  -28.3735   23.1224 C   0  0  2  0  0  0
  -20.6786  -26.9436   22.5403 C   0  0  0  0  0  0
  -19.5766  -26.6382   21.5209 C   0  0  0  0  0  0
  -18.1945  -26.7940   22.1614 C   0  0  0  0  0  0
  -19.1560  -28.8888   23.2834 C   0  0  0  0  0  0
  -18.9476  -30.1484   23.8862 C   0  0  0  0  0  0
  -17.6472  -30.6600   24.0557 C   0  0  0  0  0  0
  -25.9081  -34.9394   23.5059 C   0  0  0  0  0  0
  -16.5364  -29.9093   23.6340 C   0  0  0  0  0  0
  -16.7284  -28.6513   23.0353 C   0  0  0  0  0  0
  -26.4526  -31.6552   25.0714 C   0  0  0  0  0  0
  -25.3712  -31.3729   26.1405 C   0  0  0  0  0  0
  -27.0397  -30.2944   24.6315 C   0  0  0  0  0  0
  -27.6051  -32.4330   25.7501 C   0  0  0  0  0  0
  -27.5576  -37.1783   24.8467 C   0  0  0  0  0  0
  -21.4265  -29.3051   22.3592 N   0  0  0  0  0  0
  -26.4288  -37.3737   23.9407 N   0  0  0  0  0  0
  -24.7209  -31.0228   22.0908 N   0  0  0  0  0  0
  -23.4200  -28.8081   23.3012 O   0  0  0  0  0  0
  -28.2609  -26.0975   20.2758 O   0  0  0  0  0  0
  -26.5672  -34.8897   22.4641 O   0  0  0  0  0  0
  -23.5559  -32.1297   23.7065 O   0  0  0  0  0  0
  -29.6356  -17.7547   19.6785 C   0  0  0  0  0  0
  -29.6688  -17.4926   18.2495 C   0  0  0  0  0  0
  -29.4396  -19.2250   19.6321 C   0  0  0  0  0  0
  -28.7695  -15.8705   16.6029 C   0  0  0  0  0  0
  -29.6208  -16.1773   17.5967 C   0  0  0  0  0  0
  -28.8945  -21.6475   20.0228 C   0  0  0  0  0  0
  -29.6738  -16.4622   20.6787 C   0  0  0  0  0  0
  -30.3576  -23.6260   20.8613 C   0  0  0  0  0  0
  -28.0850  -24.5599   19.9661 C   0  0  0  0  0  0
  -28.8907  -23.2173   20.6534 C   0  0  1  0  0  0
  -29.6109  -18.5590   17.4824 N   0  0  0  0  0  0
  -29.0228  -16.5592   21.7619 N   0  0  0  0  0  0
  -29.2429  -20.4038   20.4961 N   0  0  0  0  0  0
  -29.5088  -19.6292   18.3371 O   0  0  0  0  0  0
  -31.4730  -12.7662   19.2366 H   0  0  0  0  0  0
  -30.4419  -11.6756   20.1040 H   0  0  0  0  0  0
  -29.8532  -11.6412   17.6838 H   0  0  0  0  0  0
  -29.6582  -13.3633   17.6583 H   0  0  0  0  0  0
  -27.9120  -11.2822   18.9692 H   0  0  0  0  0  0
  -27.4158  -12.4797   17.8043 H   0  0  0  0  0  0
  -27.5839  -14.2621   19.4088 H   0  0  0  0  0  0
  -28.7467  -12.3132   21.4502 H   0  0  0  0  0  0
  -28.3305  -13.9723   21.7704 H   0  0  0  0  0  0
  -25.2798   -9.5697   22.4754 H   0  0  0  0  0  0
  -24.0014   -7.4648   22.7483 H   0  0  0  0  0  0
  -21.0852   -8.8796   19.8953 H   0  0  0  0  0  0
  -22.3717  -10.9688   19.6152 H   0  0  0  0  0  0
  -21.2001   -7.6146   23.9726 H   0  0  0  0  0  0
  -21.1487   -6.0510   25.9082 H   0  0  0  0  0  0
  -22.0595   -2.7609   23.2834 H   0  0  0  0  0  0
  -22.4054  -11.9847   22.4815 H   0  0  0  0  0  0
  -21.1057  -13.1214   22.2686 H   0  0  0  0  0  0
  -24.6374  -15.8494   20.5436 H   0  0  0  0  0  0
  -26.2722  -15.6529   20.1601 H   0  0  0  0  0  0
  -26.7265  -32.5266   23.0980 H   0  0  0  0  0  0
  -25.0063  -33.9608   25.0300 H   0  0  0  0  0  0
  -22.7537  -31.2849   21.3756 H   0  0  0  0  0  0
  -23.3763  -35.9569   23.3295 H   0  0  0  0  0  0
  -24.3570  -36.8893   22.2060 H   0  0  0  0  0  0
  -23.7245  -37.6434   23.6694 H   0  0  0  0  0  0
  -26.1668  -31.4555   20.6171 H   0  0  0  0  0  0
  -26.8760  -30.7538   22.0349 H   0  0  0  0  0  0
  -28.1257  -28.7609   21.2590 H   0  0  0  0  0  0
  -25.9250  -25.8375   18.9701 H   0  0  0  0  0  0
  -23.9953  -27.3058   18.9479 H   0  0  0  0  0  0
  -23.8152  -30.5595   19.3962 H   0  0  0  0  0  0
  -22.7917  -29.2292   19.8405 H   0  0  0  0  0  0
  -25.1320  -36.1842   25.0806 H   0  0  0  0  0  0
  -20.9998  -28.3334   24.1348 H   0  0  0  0  0  0
  -20.5676  -26.2355   23.3632 H   0  0  0  0  0  0
  -21.6657  -26.7440   22.1207 H   0  0  0  0  0  0
  -19.6935  -25.6278   21.1274 H   0  0  0  0  0  0
  -19.6711  -27.3163   20.6717 H   0  0  0  0  0  0
  -17.4217  -26.6675   21.4020 H   0  0  0  0  0  0
  -18.0350  -26.0095   22.9021 H   0  0  0  0  0  0
  -19.7953  -30.7308   24.2217 H   0  0  0  0  0  0
  -17.5028  -31.6277   24.5163 H   0  0  0  0  0  0
  -15.5365  -30.2981   23.7692 H   0  0  0  0  0  0
  -15.8682  -28.0824   22.7083 H   0  0  0  0  0  0
  -24.5903  -30.7068   25.7712 H   0  0  0  0  0  0
  -24.8887  -32.2902   26.4791 H   0  0  0  0  0  0
  -25.7995  -30.8920   27.0210 H   0  0  0  0  0  0
  -26.3015  -29.6660   24.1319 H   0  0  0  0  0  0
  -27.3986  -29.7249   25.4900 H   0  0  0  0  0  0
  -27.8936  -30.4165   23.9651 H   0  0  0  0  0  0
  -27.2638  -33.3653   26.2015 H   0  0  0  0  0  0
  -28.3893  -32.6861   25.0352 H   0  0  0  0  0  0
  -28.0689  -31.8504   26.5470 H   0  0  0  0  0  0
  -28.2585  -38.0086   24.7508 H   0  0  0  0  0  0
  -28.1082  -36.2615   24.6306 H   0  0  0  0  0  0
  -27.2292  -37.1438   25.8870 H   0  0  0  0  0  0
  -20.9486  -29.8742   21.6746 H   0  0  0  0  0  0
  -26.0150  -38.2804   24.1408 H   0  0  0  0  0  0
  -28.7874  -14.8999   16.1295 H   0  0  0  0  0  0
  -28.0397  -16.5845   16.2462 H   0  0  0  0  0  0
  -30.3468  -15.4422   17.8900 H   0  0  0  0  0  0
  -28.5881  -21.7245   18.9765 H   0  0  0  0  0  0
  -30.9040  -22.8806   21.4407 H   0  0  0  0  0  0
  -30.4315  -24.5731   21.3961 H   0  0  0  0  0  0
  -30.8699  -23.7495   19.9064 H   0  0  0  0  0  0
  -27.0293  -24.3345   20.1039 H   0  0  0  0  0  0
  -28.2408  -24.4866   18.8899 H   0  0  0  0  0  0
  -28.4656  -23.1143   21.6523 H   0  0  0  0  0  0
  -28.5576  -17.4551   21.8534 H   0  0  0  0  0  0
  1 25  1  0  0  0
  1 30  2  0  0  0
  1 77  1  0  0  0
  2  3  1  0  0  0
  2 25  1  0  0  0
  2 85  1  0  0  0
  2 86  1  0  0  0
  3  4  1  0  0  0
  3 87  1  0  0  0
  3 88  1  0  0  0
  4  5  1  0  0  0
  4 89  1  0  0  0
  4 90  1  0  0  0
  5  6  1  0  0  0
  5 26  1  0  0  0
  5 91  1  0  0  0
  6 25  1  0  0  0
  6 92  1  0  0  0
  6 93  1  0  0  0
  7  8  2  0  0  0
  7 26  1  0  0  0
  7 29  1  0  0  0
  8  9  1  0  0  0
  8 22  1  0  0  0
  9 10  1  0  0  0
  9 27  2  0  0  0
 10 11  2  0  0  0
 10 15  1  0  0  0
 11 12  1  0  0  0
 11 94  1  0  0  0
 12 13  2  0  0  0
 12 95  1  0  0  0
 13 14  1  0  0  0
 13 31  1  0  0  0
 14 15  2  0  0  0
 14 96  1  0  0  0
 15 97  1  0  0  0
 16 17  2  0  0  0
 16 21  1  0  0  0
 16 31  1  0  0  0
 17 18  1  0  0  0
 17 98  1  0  0  0
 18 19  2  0  0  0
 18 99  1  0  0  0
 19 20  1  0  0  0
 19 24  1  0  0  0
 20 21  2  0  0  0
 20100  1  0  0  0
 21 23  1  0  0  0
 22 28  1  0  0  0
 22 32  2  0  0  0
 26 27  1  0  0  0
 28101  1  0  0  0
 28102  1  0  0  0
 29103  1  0  0  0
 29104  1  0  0  0
 33 34  1  0  0  0
 33 66  1  0  0  0
 33 70  2  0  0  0
 34 36  1  0  0  0
 34 59  1  0  0  0
 34105  1  0  0  0
 35 44  2  0  0  0
 35 45  1  0  0  0
 35 68  1  0  0  0
 36 56  1  0  0  0
 36106  1  0  0  0
 37 39  1  0  0  0
 37 47  1  0  0  0
 37 66  1  0  0  0
 37107  1  0  0  0
 38 43  2  0  0  0
 38 46  1  0  0  0
 38 47  1  0  0  0
 39 64  1  0  0  0
 39 67  2  0  0  0
 40 52  1  0  0  0
 40 53  2  0  0  0
 40 58  1  0  0  0
 41108  1  0  0  0
 41109  1  0  0  0
 41110  1  0  0  0
 41 48  1  0  0  0
 42 43  1  0  0  0
 42 66  1  0  0  0
 42111  1  0  0  0
 42112  1  0  0  0
 43 44  1  0  0  0
 44113  1  0  0  0
 45 46  2  0  0  0
 45114  1  0  0  0
 46115  1  0  0  0
 47116  1  0  0  0
 47117  1  0  0  0
 48 56  1  0  0  0
 48 65  1  0  0  0
 48118  1  0  0  0
 49 50  1  0  0  0
 49 53  1  0  0  0
 49 64  1  0  0  0
 49119  1  0  0  0
 50 51  1  0  0  0
 50120  1  0  0  0
 50121  1  0  0  0
 51 52  1  0  0  0
 51122  1  0  0  0
 51123  1  0  0  0
 52124  1  0  0  0
 52125  1  0  0  0
 53 54  1  0  0  0
 54 55  2  0  0  0
 54126  1  0  0  0
 55 57  1  0  0  0
 55127  1  0  0  0
 56 69  2  0  0  0
 57 58  2  0  0  0
 57128  1  0  0  0
 58129  1  0  0  0
 59 60  1  0  0  0
 59 61  1  0  0  0
 59 62  1  0  0  0
 60130  1  0  0  0
 60131  1  0  0  0
 60132  1  0  0  0
 61133  1  0  0  0
 61134  1  0  0  0
 61135  1  0  0  0
 62136  1  0  0  0
 62137  1  0  0  0
 62138  1  0  0  0
 63 65  1  0  0  0
 63139  1  0  0  0
 63140  1  0  0  0
 63141  1  0  0  0
 64142  1  0  0  0
 65143  1  0  0  0
 68 79  1  0  0  0
 71 72  1  0  0  0
 71 73  2  0  0  0
 71 77  1  0  0  0
 72 75  1  0  0  0
 72 81  2  0  0  0
 73 83  1  0  0  0
 73 84  1  0  0  0
 74 75  2  0  0  0
 74144  1  0  0  0
 74145  1  0  0  0
 75146  1  0  0  0
 76 80  1  0  0  0
 76 83  2  0  0  0
 76147  1  0  0  0
 77 82  2  0  0  0
 78148  1  0  0  0
 78149  1  0  0  0
 78150  1  0  0  0
 78 80  1  0  0  0
 79 80  1  0  0  0
 79151  1  0  0  0
 79152  1  0  0  0
 80153  1  0  0  0
 81 84  1  0  0  0
 82154  1  0  0  0
M  ISO  4   1 100  68 101  77 100  79 101
M  END
> <chiral flag>
0

> <version>
0

> <s_m_source_file>
/data/baiqing/PycharmProjects/Reinvent-master-3.2/result/LINK_invent/BTK/process_docking_weight1_custom_product_contain_oxygen_bond_distance_aromatic_linkinvent_7_9_3/rearranged_h_0115.sdf

> <i_m_source_file_index>
28

> <r_mmod_Potential_Energy-OPLS-2005>
771.867553710938

> <r_mmod_Stretch_Energy-OPLS-2005>
356.814971923828

> <r_mmod_Bend_Energy-OPLS-2005>
332.032653808594

> <r_mmod_Torsional_Energy-OPLS-2005>
238.508560180664

> <r_mmod_Improper_Torsional_Energy-OPLS-2005>
4.45391845703125

> <r_mmod_Van_der_Waal_Energy-OPLS-2005>
122.27352142334

> <r_mmod_Electrostatic_Energy-OPLS-2005>
-305.717864990234

> <r_mmod_Solvation_Energy-OPLS-2005>
-209.332260131836

> <b_mmod_Minimization_Converged-OPLS-2005>
0

> <r_mmod_RMS_Derivative-OPLS-2005>
1.69650483131409

$$$$
28
                    3D
 Structure written by MMmdl.
160168  0  0  1  0            999 V2000
  -30.7365  -14.5328   20.4349 C   0  0  0  0  0  0
  -30.3969  -12.3103   19.4429 C   0  0  0  0  0  0
  -29.4780  -12.4390   18.2124 C   0  0  0  0  0  0
  -28.0080  -12.2847   18.6428 C   0  0  0  0  0  0
  -27.6362  -13.1912   19.8462 C   0  0  2  0  0  0
  -28.6902  -13.1410   20.9763 C   0  0  0  0  0  0
  -25.2536  -13.8110   20.5708 C   0  0  0  0  0  0
  -24.1804  -13.0418   20.9233 C   0  0  0  0  0  0
  -24.6343  -11.6879   20.8801 C   0  0  0  0  0  0
  -23.9019  -10.4277   21.0462 C   0  0  0  0  0  0
  -24.3595   -9.4190   21.9214 C   0  0  0  0  0  0
  -23.6282   -8.2227   22.0774 C   0  0  0  0  0  0
  -22.4260   -8.0271   21.3574 C   0  0  0  0  0  0
  -21.9894   -9.0239   20.4678 C   0  0  0  0  0  0
  -22.7211  -10.2119   20.3090 C   0  0  0  0  0  0
  -21.6849   -6.0739   22.5305 C   0  0  0  0  0  0
  -21.3998   -6.5649   23.8231 C   0  0  0  0  0  0
  -21.3643   -5.6801   24.9188 C   0  0  0  0  0  0
  -21.6032   -4.3066   24.7232 C   0  0  0  0  0  0
  -21.8828   -3.8158   23.4354 C   0  0  0  0  0  0
  -21.9191   -4.6973   22.3413 C   0  0  0  0  0  0
  -22.7826  -13.5230   21.1874 C   0  0  0  0  0  0
  -22.1662   -4.2155   21.0992 F   0  0  0  0  0  0
  -21.5634   -3.4549   25.7750 F   0  0  0  0  0  0
  -30.0114  -13.3793   20.3825 N   0  0  0  0  0  0
  -26.2913  -12.9231   20.3334 N   0  0  0  0  0  0
  -25.9270  -11.6424   20.5856 N   0  0  0  0  0  0
  -22.0415  -12.8263   22.0412 N   0  0  0  0  0  0
  -25.4246  -15.1826   20.4100 N   0  0  0  0  0  0
  -31.9377  -14.5242   20.1628 O   0  0  0  0  0  0
  -21.6625   -6.8873   21.4264 O   0  0  0  0  0  0
  -22.3523  -14.5524   20.6672 O   0  0  0  0  0  0
  -24.6158  -31.8674   23.2092 C   0  0  0  0  0  0
  -25.9063  -32.4808   23.8388 C   0  0  1  0  0  0
  -27.2288  -27.4229   20.1201 C   0  0  0  0  0  0
  -25.5926  -33.8602   24.2327 N   0  0  0  0  0  0
  -23.4030  -30.4889   21.5504 C   0  0  2  0  0  0
  -24.8529  -28.9569   20.1122 C   0  0  0  0  0  0
  -22.7408  -29.4656   22.5000 C   0  0  0  0  0  0
  -18.0260  -28.1364   22.8499 C   0  0  0  0  0  0
  -24.1489  -36.7280   23.2628 C   0  0  0  0  0  0
  -25.9327  -30.8319   21.3627 C   0  0  0  0  0  0
  -26.0146  -29.4689   20.7058 C   0  0  0  0  0  0
  -27.2108  -28.7122   20.7035 C   0  0  0  0  0  0
  -26.0567  -26.9355   19.5023 C   0  0  0  0  0  0
  -24.8695  -27.6895   19.5047 C   0  0  0  0  0  0
  -23.6098  -29.8169   20.1661 C   0  0  0  0  0  0
  -25.4109  -36.3089   24.0335 C   0  0  1  0  0  0
  -20.5849  -28.3654   23.1318 C   0  0  2  0  0  0
  -20.6748  -26.9392   22.5416 C   0  0  0  0  0  0
  -19.5730  -26.6368   21.5212 C   0  0  0  0  0  0
  -18.1905  -26.7916   22.1614 C   0  0  0  0  0  0
  -19.1509  -28.8822   23.2901 C   0  0  0  0  0  0
  -18.9449  -30.1428   23.8913 C   0  0  0  0  0  0
  -17.6449  -30.6580   24.0563 C   0  0  0  0  0  0
  -25.9046  -34.9460   23.5121 C   0  0  0  0  0  0
  -16.5336  -29.9077   23.6341 C   0  0  0  0  0  0
  -16.7241  -28.6480   23.0382 C   0  0  0  0  0  0
  -26.4501  -31.6586   25.0711 C   0  0  0  0  0  0
  -25.3773  -31.3690   26.1458 C   0  0  0  0  0  0
  -27.0342  -30.3027   24.6102 C   0  0  0  0  0  0
  -27.6081  -32.4308   25.7473 C   0  0  0  0  0  0
  -27.5597  -37.1768   24.8447 C   0  0  0  0  0  0
  -21.4134  -29.3027   22.3737 N   0  0  0  0  0  0
  -26.4276  -37.3797   23.9441 N   0  0  0  0  0  0
  -24.6685  -31.0757   22.0995 N   0  0  0  0  0  0
  -23.4172  -28.8204   23.3055 O   0  0  0  0  0  0
  -28.3410  -26.6126   20.1910 O   0  0  0  0  0  0
  -26.5603  -34.8930   22.4684 O   0  0  0  0  0  0
  -23.5354  -32.1447   23.7483 O   0  0  0  0  0  0
  -31.8141  -17.1866   21.3507 C   0  0  0  0  0  0
  -31.4090  -19.5502   21.7362 C   0  0  0  0  0  0
  -29.5515  -18.0733   21.1550 C   0  0  0  0  0  0
  -30.4553  -16.9624   20.9974 C   0  0  0  0  0  0
  -30.0338  -19.3857   21.4528 C   0  0  0  0  0  0
  -32.2807  -18.4563   21.7160 C   0  0  0  0  0  0
  -30.2319  -16.1919   17.9559 C   0  0  0  0  0  0
  -29.5062  -15.9966   19.0730 C   0  0  0  0  0  0
  -29.0612  -24.2812   20.7719 C   0  0  0  0  0  0
  -28.0431  -17.8946   21.0198 C   0  0  0  0  0  0
  -28.6040  -22.8899   21.2781 C   0  0  0  0  0  0
  -28.1016  -25.4601   21.0344 C   0  0  0  0  0  0
  -29.7039  -21.7984   21.3624 C   0  0  0  0  0  0
  -30.0459  -15.7187   20.3451 N   0  0  0  0  0  0
  -30.1367  -24.4436   20.1860 O   0  0  0  0  0  0
  -29.1544  -20.4659   21.4432 O   0  0  0  0  0  0
  -33.5918  -18.6354   22.0060 F   0  0  0  0  0  0
  -31.4437  -12.3680   19.1362 H   0  0  0  0  0  0
  -30.2778  -11.3321   19.9123 H   0  0  0  0  0  0
  -29.7304  -11.6829   17.4665 H   0  0  0  0  0  0
  -29.6226  -13.4023   17.7264 H   0  0  0  0  0  0
  -27.8592  -11.2367   18.9097 H   0  0  0  0  0  0
  -27.3406  -12.4798   17.8021 H   0  0  0  0  0  0
  -27.6155  -14.1959   19.4467 H   0  0  0  0  0  0
  -28.6708  -12.1779   21.4884 H   0  0  0  0  0  0
  -28.4665  -13.8994   21.7287 H   0  0  0  0  0  0
  -25.2732   -9.5692   22.4792 H   0  0  0  0  0  0
  -24.0007   -7.4612   22.7481 H   0  0  0  0  0  0
  -21.0832   -8.8753   19.8975 H   0  0  0  0  0  0
  -22.3664  -10.9671   19.6208 H   0  0  0  0  0  0
  -21.1978   -7.6153   23.9739 H   0  0  0  0  0  0
  -21.1439   -6.0519   25.9090 H   0  0  0  0  0  0
  -22.0611   -2.7620   23.2842 H   0  0  0  0  0  0
  -22.3947  -11.9899   22.4831 H   0  0  0  0  0  0
  -21.1026  -13.1347   22.2549 H   0  0  0  0  0  0
  -24.6555  -15.8330   20.5260 H   0  0  0  0  0  0
  -26.2752  -15.6276   20.0953 H   0  0  0  0  0  0
  -26.7125  -32.5519   23.1145 H   0  0  0  0  0  0
  -25.0160  -33.9785   25.0522 H   0  0  0  0  0  0
  -22.6939  -31.3068   21.4079 H   0  0  0  0  0  0
  -23.3793  -35.9565   23.3227 H   0  0  0  0  0  0
  -24.3603  -36.8962   22.2056 H   0  0  0  0  0  0
  -23.7181  -37.6438   23.6683 H   0  0  0  0  0  0
  -26.0500  -31.6017   20.5984 H   0  0  0  0  0  0
  -26.8178  -30.8806   21.9844 H   0  0  0  0  0  0
  -28.1030  -29.0970   21.1783 H   0  0  0  0  0  0
  -26.0547  -25.9557   19.0456 H   0  0  0  0  0  0
  -23.9757  -27.2856   19.0508 H   0  0  0  0  0  0
  -23.7037  -30.5881   19.4000 H   0  0  0  0  0  0
  -22.7401  -29.2220   19.8791 H   0  0  0  0  0  0
  -25.1285  -36.1928   25.0824 H   0  0  0  0  0  0
  -20.9934  -28.3187   24.1435 H   0  0  0  0  0  0
  -20.5617  -26.2269   23.3605 H   0  0  0  0  0  0
  -21.6623  -26.7413   22.1207 H   0  0  0  0  0  0
  -19.6890  -25.6271   21.1247 H   0  0  0  0  0  0
  -19.6679  -27.3186   20.6747 H   0  0  0  0  0  0
  -17.4189  -26.6681   21.4003 H   0  0  0  0  0  0
  -18.0295  -26.0025   22.8966 H   0  0  0  0  0  0
  -19.7935  -30.7239   24.2288 H   0  0  0  0  0  0
  -17.5017  -31.6286   24.5132 H   0  0  0  0  0  0
  -15.5345  -30.3003   23.7661 H   0  0  0  0  0  0
  -15.8624  -28.0793   22.7142 H   0  0  0  0  0  0
  -24.5937  -30.7057   25.7782 H   0  0  0  0  0  0
  -24.8982  -32.2846   26.4938 H   0  0  0  0  0  0
  -25.8120  -30.8821   27.0201 H   0  0  0  0  0  0
  -26.2882  -29.6754   24.1211 H   0  0  0  0  0  0
  -27.4176  -29.7301   25.4561 H   0  0  0  0  0  0
  -27.8695  -30.4340   23.9217 H   0  0  0  0  0  0
  -27.2715  -33.3624   26.2045 H   0  0  0  0  0  0
  -28.3905  -32.6845   25.0298 H   0  0  0  0  0  0
  -28.0746  -31.8432   26.5396 H   0  0  0  0  0  0
  -28.2527  -38.0158   24.7648 H   0  0  0  0  0  0
  -28.1194  -36.2702   24.6079 H   0  0  0  0  0  0
  -27.2341  -37.1163   25.8850 H   0  0  0  0  0  0
  -20.9296  -29.8767   21.6972 H   0  0  0  0  0  0
  -26.0154  -38.2849   24.1549 H   0  0  0  0  0  0
  -32.5697  -16.4222   21.2961 H   0  0  0  0  0  0
  -31.8339  -20.5081   21.9878 H   0  0  0  0  0  0
  -29.7556  -16.4130   17.0114 H   0  0  0  0  0  0
  -31.3113  -16.1340   17.9662 H   0  0  0  0  0  0
  -28.4310  -16.0756   19.0552 H   0  0  0  0  0  0
  -27.7441  -16.8523   21.1377 H   0  0  0  0  0  0
  -27.6847  -18.2660   20.0596 H   0  0  0  0  0  0
  -27.5303  -18.4511   21.8062 H   0  0  0  0  0  0
  -27.8118  -22.5541   20.6109 H   0  0  0  0  0  0
  -28.1472  -23.0090   22.2608 H   0  0  0  0  0  0
  -28.2101  -25.7597   22.0772 H   0  0  0  0  0  0
  -27.0862  -25.0816   20.9223 H   0  0  0  0  0  0
  -30.3029  -22.0068   22.2513 H   0  0  0  0  0  0
  -30.3678  -21.8603   20.4978 H   0  0  0  0  0  0
  1 25  1  0  0  0
  1 30  2  0  0  0
  1 84  1  0  0  0
  2  3  1  0  0  0
  2 25  1  0  0  0
  2 88  1  0  0  0
  2 89  1  0  0  0
  3  4  1  0  0  0
  3 90  1  0  0  0
  3 91  1  0  0  0
  4  5  1  0  0  0
  4 92  1  0  0  0
  4 93  1  0  0  0
  5  6  1  0  0  0
  5 26  1  0  0  0
  5 94  1  0  0  0
  6 25  1  0  0  0
  6 95  1  0  0  0
  6 96  1  0  0  0
  7  8  2  0  0  0
  7 26  1  0  0  0
  7 29  1  0  0  0
  8  9  1  0  0  0
  8 22  1  0  0  0
  9 10  1  0  0  0
  9 27  2  0  0  0
 10 11  2  0  0  0
 10 15  1  0  0  0
 11 12  1  0  0  0
 11 97  1  0  0  0
 12 13  2  0  0  0
 12 98  1  0  0  0
 13 14  1  0  0  0
 13 31  1  0  0  0
 14 15  2  0  0  0
 14 99  1  0  0  0
 15100  1  0  0  0
 16 17  2  0  0  0
 16 21  1  0  0  0
 16 31  1  0  0  0
 17 18  1  0  0  0
 17101  1  0  0  0
 18 19  2  0  0  0
 18102  1  0  0  0
 19 20  1  0  0  0
 19 24  1  0  0  0
 20 21  2  0  0  0
 20103  1  0  0  0
 21 23  1  0  0  0
 22 28  1  0  0  0
 22 32  2  0  0  0
 26 27  1  0  0  0
 28104  1  0  0  0
 28105  1  0  0  0
 29106  1  0  0  0
 29107  1  0  0  0
 33 34  1  0  0  0
 33 66  1  0  0  0
 33 70  2  0  0  0
 34 36  1  0  0  0
 34 59  1  0  0  0
 34108  1  0  0  0
 35 44  2  0  0  0
 35 45  1  0  0  0
 35 68  1  0  0  0
 36 56  1  0  0  0
 36109  1  0  0  0
 37 39  1  0  0  0
 37 47  1  0  0  0
 37 66  1  0  0  0
 37110  1  0  0  0
 38 43  2  0  0  0
 38 46  1  0  0  0
 38 47  1  0  0  0
 39 64  1  0  0  0
 39 67  2  0  0  0
 40 52  1  0  0  0
 40 53  2  0  0  0
 40 58  1  0  0  0
 41111  1  0  0  0
 41112  1  0  0  0
 41113  1  0  0  0
 41 48  1  0  0  0
 42 43  1  0  0  0
 42 66  1  0  0  0
 42114  1  0  0  0
 42115  1  0  0  0
 43 44  1  0  0  0
 44116  1  0  0  0
 45 46  2  0  0  0
 45117  1  0  0  0
 46118  1  0  0  0
 47119  1  0  0  0
 47120  1  0  0  0
 48 56  1  0  0  0
 48 65  1  0  0  0
 48121  1  0  0  0
 49 50  1  0  0  0
 49 53  1  0  0  0
 49 64  1  0  0  0
 49122  1  0  0  0
 50 51  1  0  0  0
 50123  1  0  0  0
 50124  1  0  0  0
 51 52  1  0  0  0
 51125  1  0  0  0
 51126  1  0  0  0
 52127  1  0  0  0
 52128  1  0  0  0
 53 54  1  0  0  0
 54 55  2  0  0  0
 54129  1  0  0  0
 55 57  1  0  0  0
 55130  1  0  0  0
 56 69  2  0  0  0
 57 58  2  0  0  0
 57131  1  0  0  0
 58132  1  0  0  0
 59 60  1  0  0  0
 59 61  1  0  0  0
 59 62  1  0  0  0
 60133  1  0  0  0
 60134  1  0  0  0
 60135  1  0  0  0
 61136  1  0  0  0
 61137  1  0  0  0
 61138  1  0  0  0
 62139  1  0  0  0
 62140  1  0  0  0
 62141  1  0  0  0
 63 65  1  0  0  0
 63142  1  0  0  0
 63143  1  0  0  0
 63144  1  0  0  0
 64145  1  0  0  0
 65146  1  0  0  0
 68 82  1  0  0  0
 71 74  2  0  0  0
 71 76  1  0  0  0
 71147  1  0  0  0
 72 75  1  0  0  0
 72 76  2  0  0  0
 72148  1  0  0  0
 73 74  1  0  0  0
 73 75  2  0  0  0
 73 80  1  0  0  0
 74 84  1  0  0  0
 75 86  1  0  0  0
 76 87  1  0  0  0
 77 78  2  0  0  0
 77149  1  0  0  0
 77150  1  0  0  0
 78 84  1  0  0  0
 78151  1  0  0  0
 79 81  1  0  0  0
 79 82  1  0  0  0
 79 85  2  0  0  0
 80152  1  0  0  0
 80153  1  0  0  0
 80154  1  0  0  0
 81 83  1  0  0  0
 81155  1  0  0  0
 81156  1  0  0  0
 82157  1  0  0  0
 82158  1  0  0  0
 83 86  1  0  0  0
 83159  1  0  0  0
 83160  1  0  0  0
M  ISO  4   1 100  68 101  82 101  84 100
M  END
> <chiral flag>
0

> <version>
0

> <s_m_source_file>
/data/baiqing/PycharmProjects/Reinvent-master-3.2/result/LINK_invent/BTK/process_docking_weight1_custom_product_contain_oxygen_bond_distance_aromatic_linkinvent_7_9_3/rearranged_h_0115.sdf

> <i_m_source_file_index>
29

> <r_mmod_Potential_Energy-OPLS-2005>
267.590942382812

> <r_mmod_Stretch_Energy-OPLS-2005>
53.1500358581543

> <r_mmod_Bend_Energy-OPLS-2005>
115.820213317871

> <r_mmod_Torsional_Energy-OPLS-2005>
374.019378662109

> <r_mmod_Improper_Torsional_Energy-OPLS-2005>
17.4532928466797

> <r_mmod_Van_der_Waal_Energy-OPLS-2005>
170.948654174805

> <r_mmod_Electrostatic_Energy-OPLS-2005>
-290.631011962891

> <r_mmod_Solvation_Energy-OPLS-2005>
-210.12727355957

> <b_mmod_Minimization_Converged-OPLS-2005>
0

> <r_mmod_RMS_Derivative-OPLS-2005>
3.13302302360535

$$$$
29
                    3D
 Structure written by MMmdl.
157165  0  0  1  0            999 V2000
  -30.6300  -14.6744   20.4905 C   0  0  0  0  0  0
  -30.4383  -12.4128   19.4585 C   0  0  0  0  0  0
  -29.5085  -12.5104   18.2283 C   0  0  0  0  0  0
  -28.0321  -12.3439   18.6411 C   0  0  0  0  0  0
  -27.6483  -13.2221   19.8616 C   0  0  2  0  0  0
  -28.6980  -13.1039   20.9913 C   0  0  0  0  0  0
  -25.2426  -13.8035   20.5609 C   0  0  0  0  0  0
  -24.1765  -13.0318   20.9229 C   0  0  0  0  0  0
  -24.6402  -11.6827   20.8788 C   0  0  0  0  0  0
  -23.9078  -10.4231   21.0432 C   0  0  0  0  0  0
  -24.3621   -9.4151   21.9209 C   0  0  0  0  0  0
  -23.6287   -8.2196   22.0764 C   0  0  0  0  0  0
  -22.4269   -8.0258   21.3548 C   0  0  0  0  0  0
  -21.9914   -9.0231   20.4647 C   0  0  0  0  0  0
  -22.7255  -10.2099   20.3068 C   0  0  0  0  0  0
  -21.6837   -6.0730   22.5284 C   0  0  0  0  0  0
  -21.4002   -6.5635   23.8217 C   0  0  0  0  0  0
  -21.3656   -5.6789   24.9180 C   0  0  0  0  0  0
  -21.6045   -4.3052   24.7229 C   0  0  0  0  0  0
  -21.8818   -3.8144   23.4348 C   0  0  0  0  0  0
  -21.9188   -4.6961   22.3406 C   0  0  0  0  0  0
  -22.7792  -13.5134   21.1875 C   0  0  0  0  0  0
  -22.1659   -4.2149   21.0983 F   0  0  0  0  0  0
  -21.5632   -3.4535   25.7741 F   0  0  0  0  0  0
  -30.0115  -13.4487   20.4221 N   0  0  0  0  0  0
  -26.2953  -12.9318   20.3325 N   0  0  0  0  0  0
  -25.9348  -11.6465   20.5819 N   0  0  0  0  0  0
  -22.0434  -12.8156   22.0447 N   0  0  0  0  0  0
  -25.3845  -15.1689   20.3773 N   0  0  0  0  0  0
  -31.8004  -14.8137   20.1263 O   0  0  0  0  0  0
  -21.6620   -6.8869   21.4246 O   0  0  0  0  0  0
  -22.3491  -14.5449   20.6721 O   0  0  0  0  0  0
  -24.6262  -31.8589   23.2014 C   0  0  0  0  0  0
  -25.9107  -32.4773   23.8347 C   0  0  1  0  0  0
  -27.2364  -27.3194   20.1189 C   0  0  0  0  0  0
  -25.5929  -33.8574   24.2284 N   0  0  0  0  0  0
  -23.4208  -30.4822   21.5430 C   0  0  2  0  0  0
  -24.8693  -28.9341   20.1117 C   0  0  0  0  0  0
  -22.7475  -29.4624   22.4923 C   0  0  0  0  0  0
  -18.0291  -28.1385   22.8482 C   0  0  0  0  0  0
  -24.1490  -36.7288   23.2641 C   0  0  0  0  0  0
  -25.9619  -30.7903   21.3715 C   0  0  0  0  0  0
  -26.0378  -29.4168   20.7149 C   0  0  0  0  0  0
  -27.2227  -28.6225   20.7062 C   0  0  0  0  0  0
  -26.0413  -26.8874   19.4957 C   0  0  0  0  0  0
  -24.8735  -27.6747   19.4926 C   0  0  0  0  0  0
  -23.6369  -29.8144   20.1591 C   0  0  0  0  0  0
  -25.4113  -36.3076   24.0334 C   0  0  1  0  0  0
  -20.5892  -28.3683   23.1276 C   0  0  2  0  0  0
  -20.6783  -26.9406   22.5404 C   0  0  0  0  0  0
  -19.5764  -26.6383   21.5201 C   0  0  0  0  0  0
  -18.1940  -26.7930   22.1613 C   0  0  0  0  0  0
  -19.1544  -28.8850   23.2878 C   0  0  0  0  0  0
  -18.9468  -30.1454   23.8886 C   0  0  0  0  0  0
  -17.6471  -30.6587   24.0565 C   0  0  0  0  0  0
  -25.9052  -34.9448   23.5111 C   0  0  0  0  0  0
  -16.5361  -29.9085   23.6334 C   0  0  0  0  0  0
  -16.7279  -28.6509   23.0345 C   0  0  0  0  0  0
  -26.4492  -31.6582   25.0716 C   0  0  0  0  0  0
  -25.3730  -31.3723   26.1446 C   0  0  0  0  0  0
  -27.0343  -30.3014   24.6162 C   0  0  0  0  0  0
  -27.6052  -32.4313   25.7486 C   0  0  0  0  0  0
  -27.5579  -37.1802   24.8468 C   0  0  0  0  0  0
  -21.4187  -29.3045   22.3673 N   0  0  0  0  0  0
  -26.4292  -37.3769   23.9412 N   0  0  0  0  0  0
  -24.6885  -31.0605   22.0957 N   0  0  0  0  0  0
  -23.4196  -28.8163   23.3000 O   0  0  0  0  0  0
  -28.3670  -26.4849   20.1676 O   0  0  0  0  0  0
  -26.5610  -34.8916   22.4669 O   0  0  0  0  0  0
  -23.5427  -32.1383   23.7350 O   0  0  0  0  0  0
  -31.1699  -17.9170   20.5103 C   0  0  0  0  0  0
  -28.8467  -19.4556   20.7111 C   0  0  0  0  0  0
  -31.2366  -19.3519   20.4312 C   0  0  0  0  0  0
  -28.7948  -18.0330   20.8022 C   0  0  0  0  0  0
  -30.0576  -20.1690   20.5264 C   0  0  0  0  0  0
  -29.9540  -17.2084   20.6940 C   0  0  0  0  0  0
  -33.7649  -19.4371   20.4700 C   0  0  0  0  0  0
  -32.5590  -20.0068   20.2931 C   0  0  0  0  0  0
  -29.1880  -22.4896   20.3716 C   0  0  0  0  0  0
  -27.4338  -17.4069   20.9886 C   0  0  0  0  0  0
  -29.4009  -24.0574   20.4104 C   0  0  0  0  0  0
  -28.1815  -25.0165   20.0506 C   0  0  0  0  0  0
  -30.1477  -21.6139   20.4875 N   0  0  0  0  0  0
  -29.8201  -15.7422   20.8006 N   0  0  0  0  0  0
  -31.4796  -12.5348   19.1555 H   0  0  0  0  0  0
  -30.3732  -11.4231   19.9138 H   0  0  0  0  0  0
  -29.7774  -11.7529   17.4909 H   0  0  0  0  0  0
  -29.6450  -13.4758   17.7384 H   0  0  0  0  0  0
  -27.8759  -11.2917   18.8829 H   0  0  0  0  0  0
  -27.3759  -12.5616   17.7975 H   0  0  0  0  0  0
  -27.6544  -14.2541   19.5097 H   0  0  0  0  0  0
  -28.7182  -12.0897   21.3930 H   0  0  0  0  0  0
  -28.4416  -13.7519   21.8308 H   0  0  0  0  0  0
  -25.2763   -9.5617   22.4790 H   0  0  0  0  0  0
  -23.9981   -7.4579   22.7481 H   0  0  0  0  0  0
  -21.0845   -8.8762   19.8950 H   0  0  0  0  0  0
  -22.3732  -10.9648   19.6178 H   0  0  0  0  0  0
  -21.1990   -7.6143   23.9723 H   0  0  0  0  0  0
  -21.1481   -6.0518   25.9084 H   0  0  0  0  0  0
  -22.0602   -2.7608   23.2847 H   0  0  0  0  0  0
  -22.4038  -11.9811   22.4833 H   0  0  0  0  0  0
  -21.1065  -13.1208   22.2665 H   0  0  0  0  0  0
  -24.5872  -15.7923   20.4411 H   0  0  0  0  0  0
  -26.1866  -15.5934   19.9339 H   0  0  0  0  0  0
  -26.7172  -32.5442   23.1095 H   0  0  0  0  0  0
  -25.0100  -33.9716   25.0444 H   0  0  0  0  0  0
  -22.7159  -31.3036   21.3983 H   0  0  0  0  0  0
  -23.3753  -35.9621   23.3304 H   0  0  0  0  0  0
  -24.3585  -36.8902   22.2055 H   0  0  0  0  0  0
  -23.7247  -37.6496   23.6654 H   0  0  0  0  0  0
  -26.0959  -31.5533   20.6033 H   0  0  0  0  0  0
  -26.8423  -30.8385   22.0008 H   0  0  0  0  0  0
  -28.1193  -28.9923   21.1839 H   0  0  0  0  0  0
  -25.9841  -25.9253   19.0095 H   0  0  0  0  0  0
  -23.9782  -27.2995   19.0150 H   0  0  0  0  0  0
  -23.7573  -30.5904   19.4020 H   0  0  0  0  0  0
  -22.7571  -29.2436   19.8562 H   0  0  0  0  0  0
  -25.1297  -36.1924   25.0828 H   0  0  0  0  0  0
  -20.9990  -28.3253   24.1393 H   0  0  0  0  0  0
  -20.5674  -26.2293   23.3605 H   0  0  0  0  0  0
  -21.6654  -26.7435   22.1202 H   0  0  0  0  0  0
  -19.6927  -25.6287   21.1241 H   0  0  0  0  0  0
  -19.6706  -27.3189   20.6726 H   0  0  0  0  0  0
  -17.4212  -26.6667   21.4015 H   0  0  0  0  0  0
  -18.0350  -26.0078   22.9018 H   0  0  0  0  0  0
  -19.7943  -30.7282   24.2240 H   0  0  0  0  0  0
  -17.5025  -31.6263   24.5175 H   0  0  0  0  0  0
  -15.5362  -30.2993   23.7663 H   0  0  0  0  0  0
  -15.8678  -28.0838   22.7048 H   0  0  0  0  0  0
  -24.5908  -30.7064   25.7786 H   0  0  0  0  0  0
  -24.8915  -32.2890   26.4862 H   0  0  0  0  0  0
  -25.8061  -30.8916   27.0228 H   0  0  0  0  0  0
  -26.2919  -29.6758   24.1193 H   0  0  0  0  0  0
  -27.4074  -29.7268   25.4650 H   0  0  0  0  0  0
  -27.8767  -30.4327   23.9368 H   0  0  0  0  0  0
  -27.2670  -33.3620   26.2058 H   0  0  0  0  0  0
  -28.3865  -32.6861   25.0313 H   0  0  0  0  0  0
  -28.0713  -31.8437   26.5409 H   0  0  0  0  0  0
  -28.2599  -38.0096   24.7505 H   0  0  0  0  0  0
  -28.1073  -36.2627   24.6303 H   0  0  0  0  0  0
  -27.2300  -37.1463   25.8873 H   0  0  0  0  0  0
  -20.9362  -29.8771   21.6890 H   0  0  0  0  0  0
  -26.0173  -38.2847   24.1400 H   0  0  0  0  0  0
  -32.0770  -17.3388   20.4298 H   0  0  0  0  0  0
  -27.9205  -20.0035   20.8027 H   0  0  0  0  0  0
  -34.6660  -20.0182   20.3325 H   0  0  0  0  0  0
  -33.8939  -18.4044   20.7554 H   0  0  0  0  0  0
  -32.5531  -21.0495   20.0082 H   0  0  0  0  0  0
  -28.1443  -22.1905   20.2463 H   0  0  0  0  0  0
  -26.7030  -18.1263   21.3588 H   0  0  0  0  0  0
  -27.4597  -16.5753   21.6931 H   0  0  0  0  0  0
  -27.0947  -17.0567   20.0158 H   0  0  0  0  0  0
  -30.2322  -24.2959   19.7474 H   0  0  0  0  0  0
  -29.7452  -24.3082   21.4133 H   0  0  0  0  0  0
  -27.3408  -24.7306   20.6847 H   0  0  0  0  0  0
  -27.8860  -24.7953   19.0245 H   0  0  0  0  0  0
  -28.8924  -15.4391   21.0497 H   0  0  0  0  0  0
  1 25  1  0  0  0
  1 30  2  0  0  0
  1 84  1  0  0  0
  2  3  1  0  0  0
  2 25  1  0  0  0
  2 85  1  0  0  0
  2 86  1  0  0  0
  3  4  1  0  0  0
  3 87  1  0  0  0
  3 88  1  0  0  0
  4  5  1  0  0  0
  4 89  1  0  0  0
  4 90  1  0  0  0
  5  6  1  0  0  0
  5 26  1  0  0  0
  5 91  1  0  0  0
  6 25  1  0  0  0
  6 92  1  0  0  0
  6 93  1  0  0  0
  7  8  2  0  0  0
  7 26  1  0  0  0
  7 29  1  0  0  0
  8  9  1  0  0  0
  8 22  1  0  0  0
  9 10  1  0  0  0
  9 27  2  0  0  0
 10 11  2  0  0  0
 10 15  1  0  0  0
 11 12  1  0  0  0
 11 94  1  0  0  0
 12 13  2  0  0  0
 12 95  1  0  0  0
 13 14  1  0  0  0
 13 31  1  0  0  0
 14 15  2  0  0  0
 14 96  1  0  0  0
 15 97  1  0  0  0
 16 17  2  0  0  0
 16 21  1  0  0  0
 16 31  1  0  0  0
 17 18  1  0  0  0
 17 98  1  0  0  0
 18 19  2  0  0  0
 18 99  1  0  0  0
 19 20  1  0  0  0
 19 24  1  0  0  0
 20 21  2  0  0  0
 20100  1  0  0  0
 21 23  1  0  0  0
 22 28  1  0  0  0
 22 32  2  0  0  0
 26 27  1  0  0  0
 28101  1  0  0  0
 28102  1  0  0  0
 29103  1  0  0  0
 29104  1  0  0  0
 33 34  1  0  0  0
 33 66  1  0  0  0
 33 70  2  0  0  0
 34 36  1  0  0  0
 34 59  1  0  0  0
 34105  1  0  0  0
 35 44  2  0  0  0
 35 45  1  0  0  0
 35 68  1  0  0  0
 36 56  1  0  0  0
 36106  1  0  0  0
 37 39  1  0  0  0
 37 47  1  0  0  0
 37 66  1  0  0  0
 37107  1  0  0  0
 38 43  2  0  0  0
 38 46  1  0  0  0
 38 47  1  0  0  0
 39 64  1  0  0  0
 39 67  2  0  0  0
 40 52  1  0  0  0
 40 53  2  0  0  0
 40 58  1  0  0  0
 41108  1  0  0  0
 41109  1  0  0  0
 41110  1  0  0  0
 41 48  1  0  0  0
 42 43  1  0  0  0
 42 66  1  0  0  0
 42111  1  0  0  0
 42112  1  0  0  0
 43 44  1  0  0  0
 44113  1  0  0  0
 45 46  2  0  0  0
 45114  1  0  0  0
 46115  1  0  0  0
 47116  1  0  0  0
 47117  1  0  0  0
 48 56  1  0  0  0
 48 65  1  0  0  0
 48118  1  0  0  0
 49 50  1  0  0  0
 49 53  1  0  0  0
 49 64  1  0  0  0
 49119  1  0  0  0
 50 51  1  0  0  0
 50120  1  0  0  0
 50121  1  0  0  0
 51 52  1  0  0  0
 51122  1  0  0  0
 51123  1  0  0  0
 52124  1  0  0  0
 52125  1  0  0  0
 53 54  1  0  0  0
 54 55  2  0  0  0
 54126  1  0  0  0
 55 57  1  0  0  0
 55127  1  0  0  0
 56 69  2  0  0  0
 57 58  2  0  0  0
 57128  1  0  0  0
 58129  1  0  0  0
 59 60  1  0  0  0
 59 61  1  0  0  0
 59 62  1  0  0  0
 60130  1  0  0  0
 60131  1  0  0  0
 60132  1  0  0  0
 61133  1  0  0  0
 61134  1  0  0  0
 61135  1  0  0  0
 62136  1  0  0  0
 62137  1  0  0  0
 62138  1  0  0  0
 63 65  1  0  0  0
 63139  1  0  0  0
 63140  1  0  0  0
 63141  1  0  0  0
 64142  1  0  0  0
 65143  1  0  0  0
 68 82  1  0  0  0
 71 73  2  0  0  0
 71 76  1  0  0  0
 71144  1  0  0  0
 72 74  1  0  0  0
 72 75  2  0  0  0
 72145  1  0  0  0
 73 75  1  0  0  0
 73 78  1  0  0  0
 74 76  2  0  0  0
 74 80  1  0  0  0
 75 83  1  0  0  0
 76 84  1  0  0  0
 77 78  2  0  0  0
 77146  1  0  0  0
 77147  1  0  0  0
 78148  1  0  0  0
 79 81  1  0  0  0
 79 83  2  0  0  0
 79149  1  0  0  0
 80150  1  0  0  0
 80151  1  0  0  0
 80152  1  0  0  0
 81 82  1  0  0  0
 81153  1  0  0  0
 81154  1  0  0  0
 82155  1  0  0  0
 82156  1  0  0  0
 84157  1  0  0  0
M  ISO  4   1 100  68 101  82 101  84 100
M  END
> <chiral flag>
0

> <version>
0

> <s_m_source_file>
/data/baiqing/PycharmProjects/Reinvent-master-3.2/result/LINK_invent/BTK/process_docking_weight1_custom_product_contain_oxygen_bond_distance_aromatic_linkinvent_7_9_3/rearranged_h_0115.sdf

> <i_m_source_file_index>
30

> <r_mmod_Potential_Energy-OPLS-2005>
48.6938629150391

> <r_mmod_Stretch_Energy-OPLS-2005>
89.2255325317383

> <r_mmod_Bend_Energy-OPLS-2005>
151.785110473633

> <r_mmod_Torsional_Energy-OPLS-2005>
211.82389831543

> <r_mmod_Improper_Torsional_Energy-OPLS-2005>
5.17899179458618

> <r_mmod_Van_der_Waal_Energy-OPLS-2005>
156.287811279297

> <r_mmod_Electrostatic_Energy-OPLS-2005>
-404.598602294922

> <r_mmod_Solvation_Energy-OPLS-2005>
-215.001098632812

> <b_mmod_Minimization_Converged-OPLS-2005>
0

> <r_mmod_RMS_Derivative-OPLS-2005>
0.945243179798126

$$$$
30
                    3D
 Structure written by MMmdl.
153161  0  0  1  0            999 V2000
  -30.6325  -14.6982   20.5208 C   0  0  0  0  0  0
  -30.4371  -12.4388   19.4598 C   0  0  0  0  0  0
  -29.5101  -12.5152   18.2302 C   0  0  0  0  0  0
  -28.0337  -12.3534   18.6448 C   0  0  0  0  0  0
  -27.6470  -13.2340   19.8635 C   0  0  2  0  0  0
  -28.6965  -13.1245   20.9907 C   0  0  0  0  0  0
  -25.2519  -13.8199   20.5721 C   0  0  0  0  0  0
  -24.1805  -13.0449   20.9217 C   0  0  0  0  0  0
  -24.6407  -11.6925   20.8728 C   0  0  0  0  0  0
  -23.9094  -10.4297   21.0346 C   0  0  0  0  0  0
  -24.3625   -9.4225   21.9146 C   0  0  0  0  0  0
  -23.6302   -8.2266   22.0735 C   0  0  0  0  0  0
  -22.4286   -8.0276   21.3530 C   0  0  0  0  0  0
  -21.9912   -9.0239   20.4647 C   0  0  0  0  0  0
  -22.7238  -10.2129   20.3047 C   0  0  0  0  0  0
  -21.6879   -6.0735   22.5280 C   0  0  0  0  0  0
  -21.4017   -6.5638   23.8224 C   0  0  0  0  0  0
  -21.3665   -5.6785   24.9179 C   0  0  0  0  0  0
  -21.6049   -4.3060   24.7222 C   0  0  0  0  0  0
  -21.8805   -3.8154   23.4347 C   0  0  0  0  0  0
  -21.9213   -4.6967   22.3402 C   0  0  0  0  0  0
  -22.7816  -13.5196   21.1857 C   0  0  0  0  0  0
  -22.1664   -4.2145   21.0982 F   0  0  0  0  0  0
  -21.5631   -3.4547   25.7745 F   0  0  0  0  0  0
  -29.9966  -13.4839   20.4081 N   0  0  0  0  0  0
  -26.2957  -12.9424   20.3351 N   0  0  0  0  0  0
  -25.9356  -11.6572   20.5824 N   0  0  0  0  0  0
  -22.0491  -12.8200   22.0439 N   0  0  0  0  0  0
  -25.4162  -15.1926   20.4124 N   0  0  0  0  0  0
  -31.8145  -14.8111   20.1862 O   0  0  0  0  0  0
  -21.6688   -6.8861   21.4241 O   0  0  0  0  0  0
  -22.3517  -14.5500   20.6698 O   0  0  0  0  0  0
  -24.6301  -31.8567   23.2013 C   0  0  0  0  0  0
  -25.9139  -32.4776   23.8348 C   0  0  1  0  0  0
  -27.2194  -27.2690   20.1422 C   0  0  0  0  0  0
  -25.5933  -33.8585   24.2258 N   0  0  0  0  0  0
  -23.4279  -30.4806   21.5441 C   0  0  2  0  0  0
  -24.8756  -28.9346   20.1119 C   0  0  0  0  0  0
  -22.7502  -29.4610   22.4921 C   0  0  0  0  0  0
  -18.0282  -28.1413   22.8462 C   0  0  0  0  0  0
  -24.1492  -36.7297   23.2642 C   0  0  0  0  0  0
  -25.9730  -30.7775   21.3806 C   0  0  0  0  0  0
  -26.0478  -29.3994   20.7216 C   0  0  0  0  0  0
  -27.2232  -28.5824   20.7226 C   0  0  0  0  0  0
  -26.0300  -26.8780   19.4857 C   0  0  0  0  0  0
  -24.8754  -27.6848   19.4763 C   0  0  0  0  0  0
  -23.6448  -29.8180   20.1590 C   0  0  0  0  0  0
  -25.4125  -36.3097   24.0326 C   0  0  1  0  0  0
  -20.5886  -28.3703   23.1285 C   0  0  2  0  0  0
  -20.6759  -26.9419   22.5432 C   0  0  0  0  0  0
  -19.5752  -26.6394   21.5222 C   0  0  0  0  0  0
  -18.1941  -26.7955   22.1614 C   0  0  0  0  0  0
  -19.1535  -28.8880   23.2864 C   0  0  0  0  0  0
  -18.9455  -30.1475   23.8877 C   0  0  0  0  0  0
  -17.6447  -30.6599   24.0560 C   0  0  0  0  0  0
  -25.9072  -34.9462   23.5090 C   0  0  0  0  0  0
  -16.5342  -29.9106   23.6334 C   0  0  0  0  0  0
  -16.7263  -28.6522   23.0334 C   0  0  0  0  0  0
  -26.4508  -31.6597   25.0745 C   0  0  0  0  0  0
  -25.3723  -31.3724   26.1454 C   0  0  0  0  0  0
  -27.0338  -30.3003   24.6240 C   0  0  0  0  0  0
  -27.6056  -32.4350   25.7509 C   0  0  0  0  0  0
  -27.5587  -37.1808   24.8468 C   0  0  0  0  0  0
  -21.4214  -29.3035   22.3661 N   0  0  0  0  0  0
  -26.4292  -37.3794   23.9423 N   0  0  0  0  0  0
  -24.6953  -31.0550   22.0984 N   0  0  0  0  0  0
  -23.4200  -28.8130   23.3003 O   0  0  0  0  0  0
  -28.2999  -26.3587   20.2137 O   0  0  0  0  0  0
  -26.5642  -34.8917   22.4663 O   0  0  0  0  0  0
  -23.5467  -32.1358   23.7336 O   0  0  0  0  0  0
  -29.6052  -18.4052   20.6468 C   0  0  0  0  0  0
  -31.3482  -18.6063   22.7910 C   0  0  0  0  0  0
  -29.8606  -19.7426   21.1748 C   0  0  0  0  0  0
  -30.1993  -17.1833   21.1646 C   0  0  0  0  0  0
  -30.7480  -19.7889   22.2978 C   0  0  0  0  0  0
  -31.0885  -17.3337   22.2488 C   0  0  0  0  0  0
  -29.2871  -21.0223   20.4518 C   0  0  0  0  0  0
  -29.0757  -23.7927   20.4312 C   0  0  0  0  0  0
  -28.8888  -22.3919   21.1825 C   0  0  0  0  0  0
  -27.9515  -24.9255   20.5301 C   0  0  0  0  0  0
  -31.0993  -20.9643   22.9668 N   0  0  0  0  0  0
  -29.8422  -15.8155   20.7303 N   0  0  0  0  0  0
  -29.0338  -20.9510   19.2442 O   0  0  0  0  0  0
  -30.1154  -24.0240   19.8066 O   0  0  0  0  0  0
  -31.6673  -16.2524   22.8286 F   0  0  0  0  0  0
  -31.4748  -12.5713   19.1538 H   0  0  0  0  0  0
  -30.3840  -11.4540   19.9248 H   0  0  0  0  0  0
  -29.7812  -11.7544   17.4966 H   0  0  0  0  0  0
  -29.6467  -13.4781   17.7363 H   0  0  0  0  0  0
  -27.8665  -11.3025   18.8823 H   0  0  0  0  0  0
  -27.3858  -12.5804   17.7965 H   0  0  0  0  0  0
  -27.6487  -14.2651   19.5064 H   0  0  0  0  0  0
  -28.7245  -12.1102   21.3903 H   0  0  0  0  0  0
  -28.4436  -13.7738   21.8298 H   0  0  0  0  0  0
  -25.2759   -9.5770   22.4721 H   0  0  0  0  0  0
  -24.0052   -7.4670   22.7449 H   0  0  0  0  0  0
  -21.0857   -8.8764   19.8942 H   0  0  0  0  0  0
  -22.3679  -10.9664   19.6168 H   0  0  0  0  0  0
  -21.2016   -7.6170   23.9736 H   0  0  0  0  0  0
  -21.1484   -6.0526   25.9084 H   0  0  0  0  0  0
  -22.0587   -2.7633   23.2880 H   0  0  0  0  0  0
  -22.4125  -11.9889   22.4880 H   0  0  0  0  0  0
  -21.1092  -13.1178   22.2565 H   0  0  0  0  0  0
  -24.6372  -15.8324   20.5241 H   0  0  0  0  0  0
  -26.2475  -15.6407   20.0512 H   0  0  0  0  0  0
  -26.7185  -32.5417   23.1068 H   0  0  0  0  0  0
  -25.0065  -33.9717   25.0396 H   0  0  0  0  0  0
  -22.7245  -31.3019   21.3995 H   0  0  0  0  0  0
  -23.3769  -35.9617   23.3309 H   0  0  0  0  0  0
  -24.3579  -36.8935   22.2060 H   0  0  0  0  0  0
  -23.7230  -37.6482   23.6664 H   0  0  0  0  0  0
  -26.1133  -31.5426   20.6143 H   0  0  0  0  0  0
  -26.8495  -30.8226   22.0141 H   0  0  0  0  0  0
  -28.1211  -28.9367   21.2113 H   0  0  0  0  0  0
  -25.9647  -25.9313   18.9697 H   0  0  0  0  0  0
  -23.9807  -27.3302   18.9826 H   0  0  0  0  0  0
  -23.7631  -30.5946   19.4032 H   0  0  0  0  0  0
  -22.7617  -29.2497   19.8558 H   0  0  0  0  0  0
  -25.1308  -36.1931   25.0818 H   0  0  0  0  0  0
  -20.9955  -28.3287   24.1417 H   0  0  0  0  0  0
  -20.5722  -26.2289   23.3650 H   0  0  0  0  0  0
  -21.6629  -26.7506   22.1183 H   0  0  0  0  0  0
  -19.6924  -25.6315   21.1235 H   0  0  0  0  0  0
  -19.6700  -27.3189   20.6770 H   0  0  0  0  0  0
  -17.4218  -26.6721   21.4009 H   0  0  0  0  0  0
  -18.0312  -26.0152   22.9052 H   0  0  0  0  0  0
  -19.7932  -30.7289   24.2220 H   0  0  0  0  0  0
  -17.5013  -31.6260   24.5193 H   0  0  0  0  0  0
  -15.5346  -30.2996   23.7710 H   0  0  0  0  0  0
  -15.8658  -28.0856   22.7042 H   0  0  0  0  0  0
  -24.5895  -30.7093   25.7756 H   0  0  0  0  0  0
  -24.8912  -32.2867   26.4920 H   0  0  0  0  0  0
  -25.8045  -30.8850   27.0201 H   0  0  0  0  0  0
  -26.2898  -29.6762   24.1258 H   0  0  0  0  0  0
  -27.3976  -29.7285   25.4790 H   0  0  0  0  0  0
  -27.8816  -30.4276   23.9507 H   0  0  0  0  0  0
  -27.2653  -33.3652   26.2065 H   0  0  0  0  0  0
  -28.3842  -32.6918   25.0320 H   0  0  0  0  0  0
  -28.0721  -31.8490   26.5425 H   0  0  0  0  0  0
  -28.2598  -38.0107   24.7543 H   0  0  0  0  0  0
  -28.1072  -36.2650   24.6247 H   0  0  0  0  0  0
  -27.2308  -37.1417   25.8863 H   0  0  0  0  0  0
  -20.9405  -29.8704   21.6820 H   0  0  0  0  0  0
  -26.0179  -38.2875   24.1401 H   0  0  0  0  0  0
  -28.9246  -18.3202   19.8094 H   0  0  0  0  0  0
  -32.0251  -18.6531   23.6329 H   0  0  0  0  0  0
  -29.3851  -22.4740   22.1415 H   0  0  0  0  0  0
  -27.8321  -22.3092   21.4285 H   0  0  0  0  0  0
  -27.5267  -24.8894   21.5351 H   0  0  0  0  0  0
  -27.1713  -24.5781   19.8565 H   0  0  0  0  0  0
  -31.6281  -20.8558   23.8301 H   0  0  0  0  0  0
  -30.3818  -21.6695   23.0913 H   0  0  0  0  0  0
  -28.8541  -15.6272   20.7005 H   0  0  0  0  0  0
  1 25  1  0  0  0
  1 30  2  0  0  0
  1 82  1  0  0  0
  2  3  1  0  0  0
  2 25  1  0  0  0
  2 86  1  0  0  0
  2 87  1  0  0  0
  3  4  1  0  0  0
  3 88  1  0  0  0
  3 89  1  0  0  0
  4  5  1  0  0  0
  4 90  1  0  0  0
  4 91  1  0  0  0
  5  6  1  0  0  0
  5 26  1  0  0  0
  5 92  1  0  0  0
  6 25  1  0  0  0
  6 93  1  0  0  0
  6 94  1  0  0  0
  7  8  2  0  0  0
  7 26  1  0  0  0
  7 29  1  0  0  0
  8  9  1  0  0  0
  8 22  1  0  0  0
  9 10  1  0  0  0
  9 27  2  0  0  0
 10 11  2  0  0  0
 10 15  1  0  0  0
 11 12  1  0  0  0
 11 95  1  0  0  0
 12 13  2  0  0  0
 12 96  1  0  0  0
 13 14  1  0  0  0
 13 31  1  0  0  0
 14 15  2  0  0  0
 14 97  1  0  0  0
 15 98  1  0  0  0
 16 17  2  0  0  0
 16 21  1  0  0  0
 16 31  1  0  0  0
 17 18  1  0  0  0
 17 99  1  0  0  0
 18 19  2  0  0  0
 18100  1  0  0  0
 19 20  1  0  0  0
 19 24  1  0  0  0
 20 21  2  0  0  0
 20101  1  0  0  0
 21 23  1  0  0  0
 22 28  1  0  0  0
 22 32  2  0  0  0
 26 27  1  0  0  0
 28102  1  0  0  0
 28103  1  0  0  0
 29104  1  0  0  0
 29105  1  0  0  0
 33 34  1  0  0  0
 33 66  1  0  0  0
 33 70  2  0  0  0
 34 36  1  0  0  0
 34 59  1  0  0  0
 34106  1  0  0  0
 35 44  2  0  0  0
 35 45  1  0  0  0
 35 68  1  0  0  0
 36 56  1  0  0  0
 36107  1  0  0  0
 37 39  1  0  0  0
 37 47  1  0  0  0
 37 66  1  0  0  0
 37108  1  0  0  0
 38 43  2  0  0  0
 38 46  1  0  0  0
 38 47  1  0  0  0
 39 64  1  0  0  0
 39 67  2  0  0  0
 40 52  1  0  0  0
 40 53  2  0  0  0
 40 58  1  0  0  0
 41109  1  0  0  0
 41110  1  0  0  0
 41111  1  0  0  0
 41 48  1  0  0  0
 42 43  1  0  0  0
 42 66  1  0  0  0
 42112  1  0  0  0
 42113  1  0  0  0
 43 44  1  0  0  0
 44114  1  0  0  0
 45 46  2  0  0  0
 45115  1  0  0  0
 46116  1  0  0  0
 47117  1  0  0  0
 47118  1  0  0  0
 48 56  1  0  0  0
 48 65  1  0  0  0
 48119  1  0  0  0
 49 50  1  0  0  0
 49 53  1  0  0  0
 49 64  1  0  0  0
 49120  1  0  0  0
 50 51  1  0  0  0
 50121  1  0  0  0
 50122  1  0  0  0
 51 52  1  0  0  0
 51123  1  0  0  0
 51124  1  0  0  0
 52125  1  0  0  0
 52126  1  0  0  0
 53 54  1  0  0  0
 54 55  2  0  0  0
 54127  1  0  0  0
 55 57  1  0  0  0
 55128  1  0  0  0
 56 69  2  0  0  0
 57 58  2  0  0  0
 57129  1  0  0  0
 58130  1  0  0  0
 59 60  1  0  0  0
 59 61  1  0  0  0
 59 62  1  0  0  0
 60131  1  0  0  0
 60132  1  0  0  0
 60133  1  0  0  0
 61134  1  0  0  0
 61135  1  0  0  0
 61136  1  0  0  0
 62137  1  0  0  0
 62138  1  0  0  0
 62139  1  0  0  0
 63 65  1  0  0  0
 63140  1  0  0  0
 63141  1  0  0  0
 63142  1  0  0  0
 64143  1  0  0  0
 65144  1  0  0  0
 68 80  1  0  0  0
 71 73  2  0  0  0
 71 74  1  0  0  0
 71145  1  0  0  0
 72 75  2  0  0  0
 72 76  1  0  0  0
 72146  1  0  0  0
 73 75  1  0  0  0
 73 77  1  0  0  0
 74 76  2  0  0  0
 74 82  1  0  0  0
 75 81  1  0  0  0
 76 85  1  0  0  0
 77 79  1  0  0  0
 77 83  2  0  0  0
 78 79  1  0  0  0
 78 80  1  0  0  0
 78 84  2  0  0  0
 79147  1  0  0  0
 79148  1  0  0  0
 80149  1  0  0  0
 80150  1  0  0  0
 81151  1  0  0  0
 81152  1  0  0  0
 82153  1  0  0  0
M  ISO  4   1 100  68 101  80 101  82 100
M  END
> <chiral flag>
0

> <version>
0

> <s_m_source_file>
/data/baiqing/PycharmProjects/Reinvent-master-3.2/result/LINK_invent/BTK/process_docking_weight1_custom_product_contain_oxygen_bond_distance_aromatic_linkinvent_7_9_3/rearranged_h_0115.sdf

> <i_m_source_file_index>
31

> <r_mmod_Potential_Energy-OPLS-2005>
175.394515991211

> <r_mmod_Stretch_Energy-OPLS-2005>
124.08048248291

> <r_mmod_Bend_Energy-OPLS-2005>
158.606018066406

> <r_mmod_Torsional_Energy-OPLS-2005>
279.6337890625

> <r_mmod_Improper_Torsional_Energy-OPLS-2005>
13.2168569564819

> <r_mmod_Van_der_Waal_Energy-OPLS-2005>
144.236877441406

> <r_mmod_Electrostatic_Energy-OPLS-2005>
-355.960205078125

> <r_mmod_Solvation_Energy-OPLS-2005>
-263.062927246094

> <b_mmod_Minimization_Converged-OPLS-2005>
0

> <r_mmod_RMS_Derivative-OPLS-2005>
5.05545568466187

$$$$
31
                    3D
 Structure written by MMmdl.
157165  0  0  1  0            999 V2000
  -30.5457  -15.0491   20.4237 C   0  0  0  0  0  0
  -30.4299  -12.6698   19.4927 C   0  0  0  0  0  0
  -29.5142  -12.5368   18.2555 C   0  0  0  0  0  0
  -28.0563  -12.3004   18.6881 C   0  0  0  0  0  0
  -27.6167  -13.2590   19.8250 C   0  0  2  0  0  0
  -28.6610  -13.3619   20.9553 C   0  0  0  0  0  0
  -25.2420  -13.8237   20.5743 C   0  0  0  0  0  0
  -24.1753  -13.0442   20.9248 C   0  0  0  0  0  0
  -24.6387  -11.6930   20.8770 C   0  0  0  0  0  0
  -23.9078  -10.4295   21.0413 C   0  0  0  0  0  0
  -24.3628   -9.4208   21.9187 C   0  0  0  0  0  0
  -23.6302   -8.2242   22.0755 C   0  0  0  0  0  0
  -22.4284   -8.0283   21.3544 C   0  0  0  0  0  0
  -21.9920   -9.0256   20.4643 C   0  0  0  0  0  0
  -22.7252  -10.2134   20.3056 C   0  0  0  0  0  0
  -21.6854   -6.0738   22.5277 C   0  0  0  0  0  0
  -21.4015   -6.5641   23.8212 C   0  0  0  0  0  0
  -21.3661   -5.6794   24.9174 C   0  0  0  0  0  0
  -21.6044   -4.3056   24.7224 C   0  0  0  0  0  0
  -21.8820   -3.8148   23.4344 C   0  0  0  0  0  0
  -21.9194   -4.6965   22.3402 C   0  0  0  0  0  0
  -22.7772  -13.5202   21.1896 C   0  0  0  0  0  0
  -22.1662   -4.2151   21.0979 F   0  0  0  0  0  0
  -21.5628   -3.4538   25.7736 F   0  0  0  0  0  0
  -29.9121  -13.8015   20.3255 N   0  0  0  0  0  0
  -26.2836  -12.9481   20.3238 N   0  0  0  0  0  0
  -25.9319  -11.6601   20.5748 N   0  0  0  0  0  0
  -22.0426  -12.8183   22.0446 N   0  0  0  0  0  0
  -25.4077  -15.1969   20.4185 N   0  0  0  0  0  0
  -31.7643  -15.0296   20.2110 O   0  0  0  0  0  0
  -21.6644   -6.8881   21.4239 O   0  0  0  0  0  0
  -22.3454  -14.5507   20.6741 O   0  0  0  0  0  0
  -24.6507  -31.8374   23.1824 C   0  0  0  0  0  0
  -25.9245  -32.4659   23.8246 C   0  0  1  0  0  0
  -27.2109  -27.0624   20.1692 C   0  0  0  0  0  0
  -25.5964  -33.8468   24.2159 N   0  0  0  0  0  0
  -23.4579  -30.4540   21.5301 C   0  0  2  0  0  0
  -24.9078  -28.8661   20.1145 C   0  0  0  0  0  0
  -22.7604  -29.4509   22.4843 C   0  0  0  0  0  0
  -18.0311  -28.1398   22.8476 C   0  0  0  0  0  0
  -24.1492  -36.7239   23.2645 C   0  0  0  0  0  0
  -26.0191  -30.6882   21.3913 C   0  0  0  0  0  0
  -26.0891  -29.2905   20.7371 C   0  0  0  0  0  0
  -27.2440  -28.4083   20.7411 C   0  0  0  0  0  0
  -26.0052  -26.7572   19.5039 C   0  0  0  0  0  0
  -24.8827  -27.6152   19.4795 C   0  0  0  0  0  0
  -23.6892  -29.7792   20.1521 C   0  0  0  0  0  0
  -25.4128  -36.3010   24.0308 C   0  0  1  0  0  0
  -20.5928  -28.3728   23.1225 C   0  0  2  0  0  0
  -20.6795  -26.9425   22.5406 C   0  0  0  0  0  0
  -19.5766  -26.6381   21.5215 C   0  0  0  0  0  0
  -18.1946  -26.7934   22.1627 C   0  0  0  0  0  0
  -19.1569  -28.8882   23.2840 C   0  0  0  0  0  0
  -18.9485  -30.1477   23.8865 C   0  0  0  0  0  0
  -17.6480  -30.6591   24.0555 C   0  0  0  0  0  0
  -25.9083  -34.9386   23.5047 C   0  0  0  0  0  0
  -16.5370  -29.9081   23.6342 C   0  0  0  0  0  0
  -16.7296  -28.6503   23.0359 C   0  0  0  0  0  0
  -26.4535  -31.6555   25.0717 C   0  0  0  0  0  0
  -25.3696  -31.3761   26.1398 C   0  0  0  0  0  0
  -27.0405  -30.2941   24.6343 C   0  0  0  0  0  0
  -27.6057  -32.4331   25.7506 C   0  0  0  0  0  0
  -27.5571  -37.1778   24.8467 C   0  0  0  0  0  0
  -21.4290  -29.3042   22.3593 N   0  0  0  0  0  0
  -26.4285  -37.3729   23.9404 N   0  0  0  0  0  0
  -24.7297  -31.0164   22.0892 N   0  0  0  0  0  0
  -23.4213  -28.8066   23.3026 O   0  0  0  0  0  0
  -28.2374  -26.0267   20.1810 O   0  0  0  0  0  0
  -26.5683  -34.8889   22.4635 O   0  0  0  0  0  0
  -23.5611  -32.1283   23.7003 O   0  0  0  0  0  0
  -31.1415  -17.2955   22.2485 C   0  0  0  0  0  0
  -31.8986  -19.5100   22.7415 C   0  0  0  0  0  0
  -30.1344  -19.2247   20.9821 C   0  0  0  0  0  0
  -30.3275  -17.6817   21.1455 C   0  0  0  0  0  0
  -31.0935  -20.0328   21.7085 C   0  0  0  0  0  0
  -31.8804  -18.1617   23.0441 C   0  0  0  0  0  0
  -28.7632  -21.8039   20.6739 C   0  0  0  0  0  0
  -28.5076  -23.0700   20.0360 C   0  0  0  0  0  0
  -29.1586  -20.2843   20.1729 C   0  0  0  0  0  0
  -32.1724  -23.5693   21.3449 C   0  0  0  0  0  0
  -27.9360  -24.5355   20.6309 C   0  0  0  0  0  0
  -32.2123  -22.1978   22.0221 C   0  0  0  0  0  0
  -29.8568  -16.3287   20.5215 N   0  0  0  0  0  0
  -28.6604  -19.8946   19.1131 O   0  0  0  0  0  0
  -31.2873  -21.3566   21.3407 O   0  0  0  0  0  0
  -32.6295  -17.6813   24.0654 F   0  0  0  0  0  0
  -31.4578  -12.8357   19.1670 H   0  0  0  0  0  0
  -30.4477  -11.7423   20.0672 H   0  0  0  0  0  0
  -29.8533  -11.7201   17.6168 H   0  0  0  0  0  0
  -29.5763  -13.4453   17.6546 H   0  0  0  0  0  0
  -27.9814  -11.2678   19.0308 H   0  0  0  0  0  0
  -27.3848  -12.3868   17.8331 H   0  0  0  0  0  0
  -27.5545  -14.2431   19.3594 H   0  0  0  0  0  0
  -28.7841  -12.4106   21.4746 H   0  0  0  0  0  0
  -28.3429  -14.0892   21.7040 H   0  0  0  0  0  0
  -25.2768   -9.5686   22.4770 H   0  0  0  0  0  0
  -24.0008   -7.4634   22.7476 H   0  0  0  0  0  0
  -21.0851   -8.8779   19.8947 H   0  0  0  0  0  0
  -22.3709  -10.9678   19.6172 H   0  0  0  0  0  0
  -21.2007   -7.6149   23.9715 H   0  0  0  0  0  0
  -21.1481   -6.0524   25.9077 H   0  0  0  0  0  0
  -22.0597   -2.7608   23.2844 H   0  0  0  0  0  0
  -22.4059  -11.9850   22.4835 H   0  0  0  0  0  0
  -21.1040  -13.1193   22.2654 H   0  0  0  0  0  0
  -24.6385  -15.8479   20.5343 H   0  0  0  0  0  0
  -26.2534  -15.6398   20.0843 H   0  0  0  0  0  0
  -26.7311  -32.5241   23.0970 H   0  0  0  0  0  0
  -25.0071  -33.9573   25.0279 H   0  0  0  0  0  0
  -22.7642  -31.2816   21.3704 H   0  0  0  0  0  0
  -23.3754  -35.9570   23.3295 H   0  0  0  0  0  0
  -24.3574  -36.8889   22.2064 H   0  0  0  0  0  0
  -23.7244  -37.6428   23.6696 H   0  0  0  0  0  0
  -26.1814  -31.4365   20.6140 H   0  0  0  0  0  0
  -26.8869  -30.7441   22.0373 H   0  0  0  0  0  0
  -28.1452  -28.7321   21.2427 H   0  0  0  0  0  0
  -25.9121  -25.8017   19.0075 H   0  0  0  0  0  0
  -23.9842  -27.2859   18.9758 H   0  0  0  0  0  0
  -23.8331  -30.5513   19.3954 H   0  0  0  0  0  0
  -22.8019  -29.2258   19.8401 H   0  0  0  0  0  0
  -25.1315  -36.1833   25.0800 H   0  0  0  0  0  0
  -21.0015  -28.3318   24.1350 H   0  0  0  0  0  0
  -20.5689  -26.2340   23.3630 H   0  0  0  0  0  0
  -21.6659  -26.7429   22.1201 H   0  0  0  0  0  0
  -19.6925  -25.6285   21.1262 H   0  0  0  0  0  0
  -19.6699  -27.3178   20.6732 H   0  0  0  0  0  0
  -17.4217  -26.6680   21.4028 H   0  0  0  0  0  0
  -18.0341  -26.0081   22.9033 H   0  0  0  0  0  0
  -19.7960  -30.7302   24.2219 H   0  0  0  0  0  0
  -17.5032  -31.6268   24.5162 H   0  0  0  0  0  0
  -15.5367  -30.2970   23.7682 H   0  0  0  0  0  0
  -15.8699  -28.0807   22.7091 H   0  0  0  0  0  0
  -24.5891  -30.7090   25.7713 H   0  0  0  0  0  0
  -24.8858  -32.2943   26.4737 H   0  0  0  0  0  0
  -25.7961  -30.8996   27.0234 H   0  0  0  0  0  0
  -26.3038  -29.6652   24.1330 H   0  0  0  0  0  0
  -27.3972  -29.7259   25.4943 H   0  0  0  0  0  0
  -27.8967  -30.4157   23.9704 H   0  0  0  0  0  0
  -27.2655  -33.3671   26.1994 H   0  0  0  0  0  0
  -28.3919  -32.6826   25.0365 H   0  0  0  0  0  0
  -28.0667  -31.8511   26.5496 H   0  0  0  0  0  0
  -28.2583  -38.0081   24.7509 H   0  0  0  0  0  0
  -28.1073  -36.2607   24.6304 H   0  0  0  0  0  0
  -27.2287  -37.1436   25.8871 H   0  0  0  0  0  0
  -20.9519  -29.8752   21.6757 H   0  0  0  0  0  0
  -26.0144  -38.2793   24.1407 H   0  0  0  0  0  0
  -31.2454  -16.2642   22.5468 H   0  0  0  0  0  0
  -32.5654  -20.1208   23.3295 H   0  0  0  0  0  0
  -28.6551  -21.8401   21.7472 H   0  0  0  0  0  0
  -28.6303  -23.0794   18.9629 H   0  0  0  0  0  0
  -32.8531  -24.2665   21.8331 H   0  0  0  0  0  0
  -31.1709  -23.9977   21.3820 H   0  0  0  0  0  0
  -32.4660  -23.4953   20.2977 H   0  0  0  0  0  0
  -28.1524  -24.5126   21.6991 H   0  0  0  0  0  0
  -26.8536  -24.4206   20.5842 H   0  0  0  0  0  0
  -31.9368  -22.2999   23.0729 H   0  0  0  0  0  0
  -33.2242  -21.7946   21.9632 H   0  0  0  0  0  0
  -28.8713  -16.2820   20.3075 H   0  0  0  0  0  0
  1 25  1  0  0  0
  1 30  2  0  0  0
  1 83  1  0  0  0
  2  3  1  0  0  0
  2 25  1  0  0  0
  2 87  1  0  0  0
  2 88  1  0  0  0
  3  4  1  0  0  0
  3 89  1  0  0  0
  3 90  1  0  0  0
  4  5  1  0  0  0
  4 91  1  0  0  0
  4 92  1  0  0  0
  5  6  1  0  0  0
  5 26  1  0  0  0
  5 93  1  0  0  0
  6 25  1  0  0  0
  6 94  1  0  0  0
  6 95  1  0  0  0
  7  8  2  0  0  0
  7 26  1  0  0  0
  7 29  1  0  0  0
  8  9  1  0  0  0
  8 22  1  0  0  0
  9 10  1  0  0  0
  9 27  2  0  0  0
 10 11  2  0  0  0
 10 15  1  0  0  0
 11 12  1  0  0  0
 11 96  1  0  0  0
 12 13  2  0  0  0
 12 97  1  0  0  0
 13 14  1  0  0  0
 13 31  1  0  0  0
 14 15  2  0  0  0
 14 98  1  0  0  0
 15 99  1  0  0  0
 16 17  2  0  0  0
 16 21  1  0  0  0
 16 31  1  0  0  0
 17 18  1  0  0  0
 17100  1  0  0  0
 18 19  2  0  0  0
 18101  1  0  0  0
 19 20  1  0  0  0
 19 24  1  0  0  0
 20 21  2  0  0  0
 20102  1  0  0  0
 21 23  1  0  0  0
 22 28  1  0  0  0
 22 32  2  0  0  0
 26 27  1  0  0  0
 28103  1  0  0  0
 28104  1  0  0  0
 29105  1  0  0  0
 29106  1  0  0  0
 33 34  1  0  0  0
 33 66  1  0  0  0
 33 70  2  0  0  0
 34 36  1  0  0  0
 34 59  1  0  0  0
 34107  1  0  0  0
 35 44  2  0  0  0
 35 45  1  0  0  0
 35 68  1  0  0  0
 36 56  1  0  0  0
 36108  1  0  0  0
 37 39  1  0  0  0
 37 47  1  0  0  0
 37 66  1  0  0  0
 37109  1  0  0  0
 38 43  2  0  0  0
 38 46  1  0  0  0
 38 47  1  0  0  0
 39 64  1  0  0  0
 39 67  2  0  0  0
 40 52  1  0  0  0
 40 53  2  0  0  0
 40 58  1  0  0  0
 41110  1  0  0  0
 41111  1  0  0  0
 41112  1  0  0  0
 41 48  1  0  0  0
 42 43  1  0  0  0
 42 66  1  0  0  0
 42113  1  0  0  0
 42114  1  0  0  0
 43 44  1  0  0  0
 44115  1  0  0  0
 45 46  2  0  0  0
 45116  1  0  0  0
 46117  1  0  0  0
 47118  1  0  0  0
 47119  1  0  0  0
 48 56  1  0  0  0
 48 65  1  0  0  0
 48120  1  0  0  0
 49 50  1  0  0  0
 49 53  1  0  0  0
 49 64  1  0  0  0
 49121  1  0  0  0
 50 51  1  0  0  0
 50122  1  0  0  0
 50123  1  0  0  0
 51 52  1  0  0  0
 51124  1  0  0  0
 51125  1  0  0  0
 52126  1  0  0  0
 52127  1  0  0  0
 53 54  1  0  0  0
 54 55  2  0  0  0
 54128  1  0  0  0
 55 57  1  0  0  0
 55129  1  0  0  0
 56 69  2  0  0  0
 57 58  2  0  0  0
 57130  1  0  0  0
 58131  1  0  0  0
 59 60  1  0  0  0
 59 61  1  0  0  0
 59 62  1  0  0  0
 60132  1  0  0  0
 60133  1  0  0  0
 60134  1  0  0  0
 61135  1  0  0  0
 61136  1  0  0  0
 61137  1  0  0  0
 62138  1  0  0  0
 62139  1  0  0  0
 62140  1  0  0  0
 63 65  1  0  0  0
 63141  1  0  0  0
 63142  1  0  0  0
 63143  1  0  0  0
 64144  1  0  0  0
 65145  1  0  0  0
 68 81  1  0  0  0
 71 74  2  0  0  0
 71 76  1  0  0  0
 71146  1  0  0  0
 72 75  1  0  0  0
 72 76  2  0  0  0
 72147  1  0  0  0
 73 74  1  0  0  0
 73 75  2  0  0  0
 73 79  1  0  0  0
 74 83  1  0  0  0
 75 85  1  0  0  0
 76 86  1  0  0  0
 77 78  2  0  0  0
 77 79  1  0  0  0
 77148  1  0  0  0
 78 81  1  0  0  0
 78149  1  0  0  0
 79 84  2  0  0  0
 80 82  1  0  0  0
 80150  1  0  0  0
 80151  1  0  0  0
 80152  1  0  0  0
 81153  1  0  0  0
 81154  1  0  0  0
 82 85  1  0  0  0
 82155  1  0  0  0
 82156  1  0  0  0
 83157  1  0  0  0
M  ISO  4   1 100  68 101  81 101  83 100
M  END
> <chiral flag>
0

> <version>
0

> <s_m_source_file>
/data/baiqing/PycharmProjects/Reinvent-master-3.2/result/LINK_invent/BTK/process_docking_weight1_custom_product_contain_oxygen_bond_distance_aromatic_linkinvent_7_9_3/rearranged_h_0115.sdf

> <i_m_source_file_index>
32

> <r_mmod_Potential_Energy-OPLS-2005>
967.258544921875

> <r_mmod_Stretch_Energy-OPLS-2005>
397.063629150391

> <r_mmod_Bend_Energy-OPLS-2005>
373.688140869141

> <r_mmod_Torsional_Energy-OPLS-2005>
277.873779296875

> <r_mmod_Improper_Torsional_Energy-OPLS-2005>
6.34235715866089

> <r_mmod_Van_der_Waal_Energy-OPLS-2005>
161.717514038086

> <r_mmod_Electrostatic_Energy-OPLS-2005>
-298.872039794922

> <r_mmod_Solvation_Energy-OPLS-2005>
-218.733596801758

> <b_mmod_Minimization_Converged-OPLS-2005>
0

> <r_mmod_RMS_Derivative-OPLS-2005>
0.734562039375305

$$$$
32
                    3D
 Structure written by MMmdl.
162170  0  0  1  0            999 V2000
  -30.6923  -14.4413   20.6158 C   0  0  0  0  0  0
  -30.4432  -12.3045   19.3972 C   0  0  0  0  0  0
  -29.4978  -12.5021   18.1928 C   0  0  0  0  0  0
  -28.0155  -12.3761   18.6057 C   0  0  0  0  0  0
  -27.6715  -13.1924   19.8792 C   0  0  2  0  0  0
  -28.7147  -12.9206   20.9861 C   0  0  0  0  0  0
  -25.2644  -13.8104   20.5595 C   0  0  0  0  0  0
  -24.1878  -13.0436   20.9159 C   0  0  0  0  0  0
  -24.6395  -11.6889   20.8736 C   0  0  0  0  0  0
  -23.9029  -10.4291   21.0410 C   0  0  0  0  0  0
  -24.3575   -9.4201   21.9188 C   0  0  0  0  0  0
  -23.6257   -8.2236   22.0752 C   0  0  0  0  0  0
  -22.4245   -8.0271   21.3540 C   0  0  0  0  0  0
  -21.9884   -9.0247   20.4643 C   0  0  0  0  0  0
  -22.7202  -10.2132   20.3055 C   0  0  0  0  0  0
  -21.6840   -6.0723   22.5277 C   0  0  0  0  0  0
  -21.4008   -6.5639   23.8209 C   0  0  0  0  0  0
  -21.3632   -5.6798   24.9175 C   0  0  0  0  0  0
  -21.6030   -4.3061   24.7233 C   0  0  0  0  0  0
  -21.8824   -3.8153   23.4357 C   0  0  0  0  0  0
  -21.9192   -4.6956   22.3410 C   0  0  0  0  0  0
  -22.7903  -13.5275   21.1798 C   0  0  0  0  0  0
  -22.1664   -4.2134   21.0991 F   0  0  0  0  0  0
  -21.5608   -3.4547   25.7748 F   0  0  0  0  0  0
  -30.0489  -13.2543   20.4458 N   0  0  0  0  0  0
  -26.3082  -12.9250   20.3359 N   0  0  0  0  0  0
  -25.9332  -11.6438   20.5797 N   0  0  0  0  0  0
  -22.0503  -12.8268   22.0317 N   0  0  0  0  0  0
  -25.4388  -15.1789   20.3784 N   0  0  0  0  0  0
  -31.7915  -14.7007   20.1134 O   0  0  0  0  0  0
  -21.6620   -6.8859   21.4237 O   0  0  0  0  0  0
  -22.3633  -14.5603   20.6641 O   0  0  0  0  0  0
  -24.6139  -31.8676   23.2143 C   0  0  0  0  0  0
  -25.9049  -32.4810   23.8432 C   0  0  1  0  0  0
  -27.2420  -27.4519   20.0974 C   0  0  0  0  0  0
  -25.5930  -33.8608   24.2373 N   0  0  0  0  0  0
  -23.4029  -30.4908   21.5509 C   0  0  2  0  0  0
  -24.8532  -28.9582   20.1144 C   0  0  0  0  0  0
  -22.7415  -29.4641   22.4989 C   0  0  0  0  0  0
  -18.0259  -28.1372   22.8480 C   0  0  0  0  0  0
  -24.1470  -36.7270   23.2644 C   0  0  0  0  0  0
  -25.9308  -30.8365   21.3685 C   0  0  0  0  0  0
  -26.0103  -29.4732   20.7128 C   0  0  0  0  0  0
  -27.2105  -28.7274   20.7012 C   0  0  0  0  0  0
  -26.0724  -26.9479   19.4908 C   0  0  0  0  0  0
  -24.8786  -27.6943   19.4993 C   0  0  0  0  0  0
  -23.6135  -29.8228   20.1648 C   0  0  0  0  0  0
  -25.4085  -36.3098   24.0364 C   0  0  1  0  0  0
  -20.5851  -28.3645   23.1330 C   0  0  2  0  0  0
  -20.6729  -26.9378   22.5429 C   0  0  0  0  0  0
  -19.5731  -26.6383   21.5199 C   0  0  0  0  0  0
  -18.1901  -26.7938   22.1579 C   0  0  0  0  0  0
  -19.1511  -28.8823   23.2897 C   0  0  0  0  0  0
  -18.9440  -30.1429   23.8899 C   0  0  0  0  0  0
  -17.6448  -30.6580   24.0554 C   0  0  0  0  0  0
  -25.9024  -34.9461   23.5153 C   0  0  0  0  0  0
  -16.5332  -29.9075   23.6332 C   0  0  0  0  0  0
  -16.7256  -28.6494   23.0349 C   0  0  0  0  0  0
  -26.4495  -31.6587   25.0753 C   0  0  0  0  0  0
  -25.3787  -31.3672   26.1529 C   0  0  0  0  0  0
  -27.0335  -30.3032   24.6123 C   0  0  0  0  0  0
  -27.6099  -32.4289   25.7497 C   0  0  0  0  0  0
  -27.5583  -37.1778   24.8453 C   0  0  0  0  0  0
  -21.4132  -29.3022   22.3744 N   0  0  0  0  0  0
  -26.4254  -37.3800   23.9454 N   0  0  0  0  0  0
  -24.6668  -31.0796   22.1023 N   0  0  0  0  0  0
  -23.4192  -28.8167   23.3015 O   0  0  0  0  0  0
  -28.3958  -26.7029   20.0854 O   0  0  0  0  0  0
  -26.5538  -34.8920   22.4682 O   0  0  0  0  0  0
  -23.5341  -32.1416   23.7536 O   0  0  0  0  0  0
  -28.8306  -17.4489   21.0878 C   0  0  0  0  0  0
  -31.2038  -17.4902   21.6086 C   0  0  0  0  0  0
  -28.7566  -18.8562   21.1985 C   0  0  0  0  0  0
  -30.0384  -16.7560   21.2976 C   0  0  0  0  0  0
  -29.9206  -19.5911   21.5532 C   0  0  0  0  0  0
  -31.1372  -18.8954   21.7435 C   0  0  0  0  0  0
  -27.4233  -19.4947   21.0421 C   0  0  0  0  0  0
  -25.7558  -20.1389   19.2031 C   0  0  0  0  0  0
  -26.5787  -19.0153   19.8552 C   0  0  0  0  0  0
  -29.1243  -24.3410   20.2845 C   0  0  0  0  0  0
  -29.0485  -23.0907   21.1912 C   0  0  0  0  0  0
  -28.3294  -25.5184   20.8891 C   0  0  0  0  0  0
  -29.8488  -21.8530   20.7308 C   0  0  0  0  0  0
  -29.9789  -15.3364   21.3165 N   0  0  0  0  0  0
  -26.9880  -20.3698   21.7947 O   0  0  0  0  0  0
  -29.8883  -20.9427   21.8308 O   0  0  0  0  0  0
  -32.2494  -19.5829   22.1020 F   0  0  0  0  0  0
  -31.4798  -12.4396   19.0839 H   0  0  0  0  0  0
  -30.3778  -11.2829   19.7742 H   0  0  0  0  0  0
  -29.7275  -11.7722   17.4148 H   0  0  0  0  0  0
  -29.6729  -13.4829   17.7478 H   0  0  0  0  0  0
  -27.8081  -11.3199   18.7759 H   0  0  0  0  0  0
  -27.3716  -12.6824   17.7799 H   0  0  0  0  0  0
  -27.7347  -14.2470   19.6127 H   0  0  0  0  0  0
  -28.6962  -11.8663   21.2663 H   0  0  0  0  0  0
  -28.4668  -13.4570   21.9019 H   0  0  0  0  0  0
  -25.2719   -9.5674   22.4767 H   0  0  0  0  0  0
  -23.9962   -7.4633   22.7480 H   0  0  0  0  0  0
  -21.0811   -8.8748   19.8958 H   0  0  0  0  0  0
  -22.3647  -10.9660   19.6164 H   0  0  0  0  0  0
  -21.2008   -7.6150   23.9701 H   0  0  0  0  0  0
  -21.1441   -6.0537   25.9072 H   0  0  0  0  0  0
  -22.0628   -2.7624   23.2876 H   0  0  0  0  0  0
  -22.4075  -11.9893   22.4674 H   0  0  0  0  0  0
  -21.1136  -13.1332   22.2516 H   0  0  0  0  0  0
  -24.6368  -15.7985   20.3591 H   0  0  0  0  0  0
  -26.2460  -15.5581   19.9010 H   0  0  0  0  0  0
  -26.7116  -32.5545   23.1204 H   0  0  0  0  0  0
  -25.0217  -33.9783   25.0613 H   0  0  0  0  0  0
  -22.6889  -31.3055   21.4119 H   0  0  0  0  0  0
  -23.3775  -35.9557   23.3254 H   0  0  0  0  0  0
  -24.3586  -36.8911   22.2069 H   0  0  0  0  0  0
  -23.7155  -37.6438   23.6659 H   0  0  0  0  0  0
  -26.0499  -31.6079   20.6056 H   0  0  0  0  0  0
  -26.8139  -30.8824   21.9932 H   0  0  0  0  0  0
  -28.1046  -29.1184   21.1666 H   0  0  0  0  0  0
  -26.0881  -25.9779   19.0146 H   0  0  0  0  0  0
  -23.9925  -27.2928   19.0288 H   0  0  0  0  0  0
  -23.7223  -30.5973   19.4048 H   0  0  0  0  0  0
  -22.7399  -29.2396   19.8707 H   0  0  0  0  0  0
  -25.1241  -36.1953   25.0852 H   0  0  0  0  0  0
  -20.9943  -28.3205   24.1457 H   0  0  0  0  0  0
  -20.5582  -26.2255   23.3615 H   0  0  0  0  0  0
  -21.6607  -26.7395   22.1268 H   0  0  0  0  0  0
  -19.6885  -25.6295   21.1228 H   0  0  0  0  0  0
  -19.6719  -27.3187   20.6726 H   0  0  0  0  0  0
  -17.4208  -26.6746   21.3934 H   0  0  0  0  0  0
  -18.0243  -26.0051   22.8936 H   0  0  0  0  0  0
  -19.7927  -30.7224   24.2283 H   0  0  0  0  0  0
  -17.5016  -31.6269   24.5149 H   0  0  0  0  0  0
  -15.5328  -30.2968   23.7666 H   0  0  0  0  0  0
  -15.8659  -28.0809   22.7060 H   0  0  0  0  0  0
  -24.6028  -30.6912   25.7917 H   0  0  0  0  0  0
  -24.8898  -32.2803   26.4926 H   0  0  0  0  0  0
  -25.8209  -30.8950   27.0315 H   0  0  0  0  0  0
  -26.2878  -29.6770   24.1216 H   0  0  0  0  0  0
  -27.4154  -29.7284   25.4572 H   0  0  0  0  0  0
  -27.8690  -30.4350   23.9244 H   0  0  0  0  0  0
  -27.2764  -33.3609   26.2062 H   0  0  0  0  0  0
  -28.3914  -32.6789   25.0313 H   0  0  0  0  0  0
  -28.0758  -31.8409   26.5417 H   0  0  0  0  0  0
  -28.2552  -38.0126   24.7568 H   0  0  0  0  0  0
  -28.1110  -36.2652   24.6143 H   0  0  0  0  0  0
  -27.2336  -37.1297   25.8865 H   0  0  0  0  0  0
  -20.9278  -29.8788   21.7010 H   0  0  0  0  0  0
  -26.0134  -38.2861   24.1515 H   0  0  0  0  0  0
  -27.9325  -16.8847   20.8769 H   0  0  0  0  0  0
  -32.1392  -16.9861   21.8033 H   0  0  0  0  0  0
  -25.2929  -19.7882   18.2803 H   0  0  0  0  0  0
  -26.3841  -20.9957   18.9544 H   0  0  0  0  0  0
  -24.9606  -20.4852   19.8640 H   0  0  0  0  0  0
  -25.9214  -18.2116   20.1884 H   0  0  0  0  0  0
  -27.2467  -18.5860   19.1093 H   0  0  0  0  0  0
  -28.7338  -24.1050   19.2940 H   0  0  0  0  0  0
  -30.1644  -24.6388   20.1474 H   0  0  0  0  0  0
  -28.0035  -22.8045   21.3124 H   0  0  0  0  0  0
  -29.3967  -23.3735   22.1849 H   0  0  0  0  0  0
  -28.7309  -25.7653   21.8735 H   0  0  0  0  0  0
  -27.3013  -25.1942   21.0619 H   0  0  0  0  0  0
  -30.8715  -22.1359   20.4798 H   0  0  0  0  0  0
  -29.4044  -21.4098   19.8385 H   0  0  0  0  0  0
  -29.1011  -14.9495   21.6297 H   0  0  0  0  0  0
  1 25  1  0  0  0
  1 30  2  0  0  0
  1 84  1  0  0  0
  2  3  1  0  0  0
  2 25  1  0  0  0
  2 88  1  0  0  0
  2 89  1  0  0  0
  3  4  1  0  0  0
  3 90  1  0  0  0
  3 91  1  0  0  0
  4  5  1  0  0  0
  4 92  1  0  0  0
  4 93  1  0  0  0
  5  6  1  0  0  0
  5 26  1  0  0  0
  5 94  1  0  0  0
  6 25  1  0  0  0
  6 95  1  0  0  0
  6 96  1  0  0  0
  7  8  2  0  0  0
  7 26  1  0  0  0
  7 29  1  0  0  0
  8  9  1  0  0  0
  8 22  1  0  0  0
  9 10  1  0  0  0
  9 27  2  0  0  0
 10 11  2  0  0  0
 10 15  1  0  0  0
 11 12  1  0  0  0
 11 97  1  0  0  0
 12 13  2  0  0  0
 12 98  1  0  0  0
 13 14  1  0  0  0
 13 31  1  0  0  0
 14 15  2  0  0  0
 14 99  1  0  0  0
 15100  1  0  0  0
 16 17  2  0  0  0
 16 21  1  0  0  0
 16 31  1  0  0  0
 17 18  1  0  0  0
 17101  1  0  0  0
 18 19  2  0  0  0
 18102  1  0  0  0
 19 20  1  0  0  0
 19 24  1  0  0  0
 20 21  2  0  0  0
 20103  1  0  0  0
 21 23  1  0  0  0
 22 28  1  0  0  0
 22 32  2  0  0  0
 26 27  1  0  0  0
 28104  1  0  0  0
 28105  1  0  0  0
 29106  1  0  0  0
 29107  1  0  0  0
 33 34  1  0  0  0
 33 66  1  0  0  0
 33 70  2  0  0  0
 34 36  1  0  0  0
 34 59  1  0  0  0
 34108  1  0  0  0
 35 44  2  0  0  0
 35 45  1  0  0  0
 35 68  1  0  0  0
 36 56  1  0  0  0
 36109  1  0  0  0
 37 39  1  0  0  0
 37 47  1  0  0  0
 37 66  1  0  0  0
 37110  1  0  0  0
 38 43  2  0  0  0
 38 46  1  0  0  0
 38 47  1  0  0  0
 39 64  1  0  0  0
 39 67  2  0  0  0
 40 52  1  0  0  0
 40 53  2  0  0  0
 40 58  1  0  0  0
 41111  1  0  0  0
 41112  1  0  0  0
 41113  1  0  0  0
 41 48  1  0  0  0
 42 43  1  0  0  0
 42 66  1  0  0  0
 42114  1  0  0  0
 42115  1  0  0  0
 43 44  1  0  0  0
 44116  1  0  0  0
 45 46  2  0  0  0
 45117  1  0  0  0
 46118  1  0  0  0
 47119  1  0  0  0
 47120  1  0  0  0
 48 56  1  0  0  0
 48 65  1  0  0  0
 48121  1  0  0  0
 49 50  1  0  0  0
 49 53  1  0  0  0
 49 64  1  0  0  0
 49122  1  0  0  0
 50 51  1  0  0  0
 50123  1  0  0  0
 50124  1  0  0  0
 51 52  1  0  0  0
 51125  1  0  0  0
 51126  1  0  0  0
 52127  1  0  0  0
 52128  1  0  0  0
 53 54  1  0  0  0
 54 55  2  0  0  0
 54129  1  0  0  0
 55 57  1  0  0  0
 55130  1  0  0  0
 56 69  2  0  0  0
 57 58  2  0  0  0
 57131  1  0  0  0
 58132  1  0  0  0
 59 60  1  0  0  0
 59 61  1  0  0  0
 59 62  1  0  0  0
 60133  1  0  0  0
 60134  1  0  0  0
 60135  1  0  0  0
 61136  1  0  0  0
 61137  1  0  0  0
 61138  1  0  0  0
 62139  1  0  0  0
 62140  1  0  0  0
 62141  1  0  0  0
 63 65  1  0  0  0
 63142  1  0  0  0
 63143  1  0  0  0
 63144  1  0  0  0
 64145  1  0  0  0
 65146  1  0  0  0
 68 82  1  0  0  0
 71 73  2  0  0  0
 71 74  1  0  0  0
 71147  1  0  0  0
 72 74  2  0  0  0
 72 76  1  0  0  0
 72148  1  0  0  0
 73 75  1  0  0  0
 73 77  1  0  0  0
 74 84  1  0  0  0
 75 76  2  0  0  0
 75 86  1  0  0  0
 76 87  1  0  0  0
 77 79  1  0  0  0
 77 85  2  0  0  0
 78 79  1  0  0  0
 78149  1  0  0  0
 78150  1  0  0  0
 78151  1  0  0  0
 79152  1  0  0  0
 79153  1  0  0  0
 80 81  1  0  0  0
 80 82  1  0  0  0
 80154  1  0  0  0
 80155  1  0  0  0
 81 83  1  0  0  0
 81156  1  0  0  0
 81157  1  0  0  0
 82158  1  0  0  0
 82159  1  0  0  0
 83 86  1  0  0  0
 83160  1  0  0  0
 83161  1  0  0  0
 84162  1  0  0  0
M  ISO  4   1 100  68 101  82 101  84 100
M  END
> <chiral flag>
0

> <version>
0

> <s_m_source_file>
/data/baiqing/PycharmProjects/Reinvent-master-3.2/result/LINK_invent/BTK/process_docking_weight1_custom_product_contain_oxygen_bond_distance_aromatic_linkinvent_7_9_3/rearranged_h_0115.sdf

> <i_m_source_file_index>
33

> <r_mmod_Potential_Energy-OPLS-2005>
25.5370254516602

> <r_mmod_Stretch_Energy-OPLS-2005>
35.8914794921875

> <r_mmod_Bend_Energy-OPLS-2005>
96.7457656860352

> <r_mmod_Torsional_Energy-OPLS-2005>
313.658142089844

> <r_mmod_Improper_Torsional_Energy-OPLS-2005>
6.2088189125061

> <r_mmod_Van_der_Waal_Energy-OPLS-2005>
141.914627075195

> <r_mmod_Electrostatic_Energy-OPLS-2005>
-358.359558105469

> <r_mmod_Solvation_Energy-OPLS-2005>
-220.586135864258

> <b_mmod_Minimization_Converged-OPLS-2005>
0

> <r_mmod_RMS_Derivative-OPLS-2005>
2.61183214187622

$$$$
33
                    3D
 Structure written by MMmdl.
156164  0  0  1  0            999 V2000
  -30.7306  -14.4984   20.5890 C   0  0  0  0  0  0
  -30.4017  -12.3182   19.4527 C   0  0  0  0  0  0
  -29.4963  -12.5133   18.2220 C   0  0  0  0  0  0
  -28.0156  -12.3730   18.6230 C   0  0  0  0  0  0
  -27.6535  -13.2223   19.8712 C   0  0  2  0  0  0
  -28.6919  -13.0500   21.0033 C   0  0  0  0  0  0
  -25.2535  -13.8194   20.5710 C   0  0  0  0  0  0
  -24.1790  -13.0432   20.9174 C   0  0  0  0  0  0
  -24.6376  -11.6908   20.8704 C   0  0  0  0  0  0
  -23.9054  -10.4295   21.0391 C   0  0  0  0  0  0
  -24.3619   -9.4208   21.9160 C   0  0  0  0  0  0
  -23.6298   -8.2239   22.0727 C   0  0  0  0  0  0
  -22.4276   -8.0282   21.3531 C   0  0  0  0  0  0
  -21.9907   -9.0244   20.4624 C   0  0  0  0  0  0
  -22.7229  -10.2133   20.3037 C   0  0  0  0  0  0
  -21.6851   -6.0737   22.5278 C   0  0  0  0  0  0
  -21.4007   -6.5633   23.8216 C   0  0  0  0  0  0
  -21.3661   -5.6785   24.9174 C   0  0  0  0  0  0
  -21.6052   -4.3049   24.7224 C   0  0  0  0  0  0
  -21.8820   -3.8144   23.4341 C   0  0  0  0  0  0
  -21.9192   -4.6961   22.3399 C   0  0  0  0  0  0
  -22.7832  -13.5204   21.1887 C   0  0  0  0  0  0
  -22.1670   -4.2141   21.0976 F   0  0  0  0  0  0
  -21.5639   -3.4540   25.7740 F   0  0  0  0  0  0
  -30.0242  -13.3362   20.4505 N   0  0  0  0  0  0
  -26.2970  -12.9385   20.3346 N   0  0  0  0  0  0
  -25.9295  -11.6526   20.5722 N   0  0  0  0  0  0
  -22.0526  -12.8151   22.0467 N   0  0  0  0  0  0
  -25.4228  -15.1912   20.4180 N   0  0  0  0  0  0
  -31.8328  -14.6199   20.0480 O   0  0  0  0  0  0
  -21.6639   -6.8876   21.4242 O   0  0  0  0  0  0
  -22.3474  -14.5517   20.6774 O   0  0  0  0  0  0
  -24.6153  -31.8635   23.2084 C   0  0  0  0  0  0
  -25.9024  -32.4804   23.8394 C   0  0  1  0  0  0
  -27.2383  -27.4093   20.1111 C   0  0  0  0  0  0
  -25.5870  -33.8602   24.2326 N   0  0  0  0  0  0
  -23.4039  -30.4893   21.5435 C   0  0  2  0  0  0
  -24.8550  -28.9443   20.1193 C   0  0  0  0  0  0
  -22.7367  -29.4655   22.4904 C   0  0  0  0  0  0
  -18.0232  -28.1395   22.8449 C   0  0  0  0  0  0
  -24.1496  -36.7342   23.2642 C   0  0  0  0  0  0
  -25.9352  -30.8267   21.3580 C   0  0  0  0  0  0
  -26.0176  -29.4560   20.7105 C   0  0  0  0  0  0
  -27.2150  -28.6986   20.6996 C   0  0  0  0  0  0
  -26.0600  -26.9156   19.5161 C   0  0  0  0  0  0
  -24.8726  -27.6721   19.5209 C   0  0  0  0  0  0
  -23.6196  -29.8190   20.1607 C   0  0  0  0  0  0
  -25.4107  -36.3098   24.0339 C   0  0  1  0  0  0
  -20.5823  -28.3673   23.1287 C   0  0  2  0  0  0
  -20.6633  -26.9303   22.5580 C   0  0  0  0  0  0
  -19.5716  -26.6323   21.5266 C   0  0  0  0  0  0
  -18.1841  -26.7966   22.1531 C   0  0  0  0  0  0
  -19.1484  -28.8839   23.2889 C   0  0  0  0  0  0
  -18.9415  -30.1430   23.8942 C   0  0  0  0  0  0
  -17.6427  -30.6604   24.0565 C   0  0  0  0  0  0
  -25.9033  -34.9455   23.5130 C   0  0  0  0  0  0
  -16.5334  -29.9132   23.6256 C   0  0  0  0  0  0
  -16.7231  -28.6547   23.0301 C   0  0  0  0  0  0
  -26.4460  -31.6564   25.0723 C   0  0  0  0  0  0
  -25.3763  -31.3699   26.1517 C   0  0  0  0  0  0
  -27.0259  -30.2997   24.6063 C   0  0  0  0  0  0
  -27.6014  -32.4301   25.7508 C   0  0  0  0  0  0
  -27.5582  -37.1826   24.8464 C   0  0  0  0  0  0
  -21.4104  -29.2982   22.3590 N   0  0  0  0  0  0
  -26.4288  -37.3788   23.9414 N   0  0  0  0  0  0
  -24.6704  -31.0757   22.0957 N   0  0  0  0  0  0
  -23.4100  -28.8248   23.3017 O   0  0  0  0  0  0
  -28.3788  -26.6279   20.1120 O   0  0  0  0  0  0
  -26.5653  -34.8903   22.4724 O   0  0  0  0  0  0
  -23.5358  -32.1349   23.7506 O   0  0  0  0  0  0
  -29.5562  -19.1910   20.4530 C   0  0  0  0  0  0
  -29.9574  -18.2351   22.6504 C   0  0  0  0  0  0
  -29.5249  -20.6360   22.4158 C   0  0  0  0  0  0
  -29.8480  -18.0487   21.2561 C   0  0  0  0  0  0
  -29.3866  -20.4909   21.0139 C   0  0  0  0  0  0
  -29.8110  -19.5145   23.2253 C   0  0  0  0  0  0
  -30.1374  -16.7004   20.6602 C   0  0  0  0  0  0
  -28.6058  -24.0689   20.0984 C   0  0  0  0  0  0
  -28.5703  -24.1658   18.5739 C   0  0  0  0  0  0
  -29.1225  -21.7033   20.0849 C   0  0  0  0  0  0
  -28.2651  -25.3821   20.8504 C   0  0  0  0  0  0
  -30.1020  -15.5549   21.2596 N   0  0  0  0  0  0
  -28.8482  -22.9841   20.7599 N   0  0  0  0  0  0
  -29.9872  -19.6669   24.6003 N   0  0  0  0  0  0
  -31.4536  -12.3636   19.1648 H   0  0  0  0  0  0
  -30.2575  -11.3206   19.8703 H   0  0  0  0  0  0
  -29.7411  -11.7884   17.4438 H   0  0  0  0  0  0
  -29.6730  -13.4999   17.7897 H   0  0  0  0  0  0
  -27.8260  -11.3179   18.8248 H   0  0  0  0  0  0
  -27.3672  -12.6405   17.7869 H   0  0  0  0  0  0
  -27.6860  -14.2665   19.5582 H   0  0  0  0  0  0
  -28.6634  -12.0340   21.3947 H   0  0  0  0  0  0
  -28.4447  -13.6983   21.8464 H   0  0  0  0  0  0
  -25.2777   -9.5693   22.4708 H   0  0  0  0  0  0
  -24.0026   -7.4627   22.7422 H   0  0  0  0  0  0
  -21.0842   -8.8748   19.8926 H   0  0  0  0  0  0
  -22.3673  -10.9662   19.6137 H   0  0  0  0  0  0
  -21.1996   -7.6140   23.9715 H   0  0  0  0  0  0
  -21.1489   -6.0515   25.9076 H   0  0  0  0  0  0
  -22.0601   -2.7604   23.2843 H   0  0  0  0  0  0
  -22.4204  -11.9790   22.4774 H   0  0  0  0  0  0
  -21.1150  -13.1116   22.2784 H   0  0  0  0  0  0
  -24.6641  -15.8525   20.5396 H   0  0  0  0  0  0
  -26.2962  -15.6328   20.1580 H   0  0  0  0  0  0
  -26.7091  -32.5532   23.1155 H   0  0  0  0  0  0
  -24.9931  -33.9761   25.0406 H   0  0  0  0  0  0
  -22.6924  -31.3059   21.4024 H   0  0  0  0  0  0
  -23.3710  -35.9725   23.3303 H   0  0  0  0  0  0
  -24.3592  -36.8965   22.2060 H   0  0  0  0  0  0
  -23.7282  -37.6559   23.6659 H   0  0  0  0  0  0
  -26.0449  -31.5846   20.5805 H   0  0  0  0  0  0
  -26.8274  -30.8919   21.9708 H   0  0  0  0  0  0
  -28.1116  -29.0946   21.1575 H   0  0  0  0  0  0
  -26.0573  -25.9348   19.0608 H   0  0  0  0  0  0
  -23.9806  -27.2577   19.0735 H   0  0  0  0  0  0
  -23.7482  -30.5926   19.4031 H   0  0  0  0  0  0
  -22.7372  -29.2547   19.8552 H   0  0  0  0  0  0
  -25.1266  -36.1966   25.0833 H   0  0  0  0  0  0
  -20.9920  -28.3382   24.1412 H   0  0  0  0  0  0
  -20.5221  -26.2300   23.3833 H   0  0  0  0  0  0
  -21.6538  -26.7070   22.1594 H   0  0  0  0  0  0
  -19.6802  -25.6187   21.1360 H   0  0  0  0  0  0
  -19.6786  -27.3121   20.6795 H   0  0  0  0  0  0
  -17.4196  -26.6896   21.3829 H   0  0  0  0  0  0
  -18.0026  -26.0050   22.8815 H   0  0  0  0  0  0
  -19.7906  -30.7209   24.2306 H   0  0  0  0  0  0
  -17.4964  -31.6322   24.5078 H   0  0  0  0  0  0
  -15.5348  -30.3103   23.7426 H   0  0  0  0  0  0
  -15.8610  -28.0899   22.6979 H   0  0  0  0  0  0
  -24.5911  -30.7040   25.7928 H   0  0  0  0  0  0
  -24.8996  -32.2880   26.4968 H   0  0  0  0  0  0
  -25.8164  -30.8907   27.0268 H   0  0  0  0  0  0
  -26.2803  -29.6837   24.1030 H   0  0  0  0  0  0
  -27.3928  -29.7149   25.4496 H   0  0  0  0  0  0
  -27.8680  -30.4310   23.9266 H   0  0  0  0  0  0
  -27.2563  -33.3563   26.2120 H   0  0  0  0  0  0
  -28.3818  -32.6929   25.0356 H   0  0  0  0  0  0
  -28.0683  -31.8415   26.5412 H   0  0  0  0  0  0
  -28.2586  -38.0133   24.7467 H   0  0  0  0  0  0
  -28.1075  -36.2641   24.6307 H   0  0  0  0  0  0
  -27.2312  -37.1522   25.8875 H   0  0  0  0  0  0
  -20.9301  -29.8556   21.6646 H   0  0  0  0  0  0
  -26.0161  -38.2867   24.1379 H   0  0  0  0  0  0
  -29.4907  -19.0763   19.3793 H   0  0  0  0  0  0
  -30.2149  -17.3892   23.2741 H   0  0  0  0  0  0
  -29.4343  -21.6147   22.8669 H   0  0  0  0  0  0
  -30.4418  -16.7542   19.6097 H   0  0  0  0  0  0
  -28.8153  -25.1714   18.2358 H   0  0  0  0  0  0
  -27.5708  -23.9296   18.2087 H   0  0  0  0  0  0
  -29.2780  -23.4928   18.0918 H   0  0  0  0  0  0
  -28.2936  -21.4445   19.4230 H   0  0  0  0  0  0
  -30.0077  -21.8006   19.4543 H   0  0  0  0  0  0
  -28.9383  -25.4639   21.7041 H   0  0  0  0  0  0
  -27.2682  -25.2711   21.2793 H   0  0  0  0  0  0
  -30.0178  -18.8628   25.2214 H   0  0  0  0  0  0
  -29.8031  -20.5492   25.0671 H   0  0  0  0  0  0
  1 25  1  0  0  0
  1 30  2  0  0  0
  1 82  1  0  0  0
  2  3  1  0  0  0
  2 25  1  0  0  0
  2 85  1  0  0  0
  2 86  1  0  0  0
  3  4  1  0  0  0
  3 87  1  0  0  0
  3 88  1  0  0  0
  4  5  1  0  0  0
  4 89  1  0  0  0
  4 90  1  0  0  0
  5  6  1  0  0  0
  5 26  1  0  0  0
  5 91  1  0  0  0
  6 25  1  0  0  0
  6 92  1  0  0  0
  6 93  1  0  0  0
  7  8  2  0  0  0
  7 26  1  0  0  0
  7 29  1  0  0  0
  8  9  1  0  0  0
  8 22  1  0  0  0
  9 10  1  0  0  0
  9 27  2  0  0  0
 10 11  2  0  0  0
 10 15  1  0  0  0
 11 12  1  0  0  0
 11 94  1  0  0  0
 12 13  2  0  0  0
 12 95  1  0  0  0
 13 14  1  0  0  0
 13 31  1  0  0  0
 14 15  2  0  0  0
 14 96  1  0  0  0
 15 97  1  0  0  0
 16 17  2  0  0  0
 16 21  1  0  0  0
 16 31  1  0  0  0
 17 18  1  0  0  0
 17 98  1  0  0  0
 18 19  2  0  0  0
 18 99  1  0  0  0
 19 20  1  0  0  0
 19 24  1  0  0  0
 20 21  2  0  0  0
 20100  1  0  0  0
 21 23  1  0  0  0
 22 28  1  0  0  0
 22 32  2  0  0  0
 26 27  1  0  0  0
 28101  1  0  0  0
 28102  1  0  0  0
 29103  1  0  0  0
 29104  1  0  0  0
 33 34  1  0  0  0
 33 66  1  0  0  0
 33 70  2  0  0  0
 34 36  1  0  0  0
 34 59  1  0  0  0
 34105  1  0  0  0
 35 44  2  0  0  0
 35 45  1  0  0  0
 35 68  1  0  0  0
 36 56  1  0  0  0
 36106  1  0  0  0
 37 39  1  0  0  0
 37 47  1  0  0  0
 37 66  1  0  0  0
 37107  1  0  0  0
 38 43  2  0  0  0
 38 46  1  0  0  0
 38 47  1  0  0  0
 39 64  1  0  0  0
 39 67  2  0  0  0
 40 52  1  0  0  0
 40 53  2  0  0  0
 40 58  1  0  0  0
 41108  1  0  0  0
 41109  1  0  0  0
 41110  1  0  0  0
 41 48  1  0  0  0
 42 43  1  0  0  0
 42 66  1  0  0  0
 42111  1  0  0  0
 42112  1  0  0  0
 43 44  1  0  0  0
 44113  1  0  0  0
 45 46  2  0  0  0
 45114  1  0  0  0
 46115  1  0  0  0
 47116  1  0  0  0
 47117  1  0  0  0
 48 56  1  0  0  0
 48 65  1  0  0  0
 48118  1  0  0  0
 49 50  1  0  0  0
 49 53  1  0  0  0
 49 64  1  0  0  0
 49119  1  0  0  0
 50 51  1  0  0  0
 50120  1  0  0  0
 50121  1  0  0  0
 51 52  1  0  0  0
 51122  1  0  0  0
 51123  1  0  0  0
 52124  1  0  0  0
 52125  1  0  0  0
 53 54  1  0  0  0
 54 55  2  0  0  0
 54126  1  0  0  0
 55 57  1  0  0  0
 55127  1  0  0  0
 56 69  2  0  0  0
 57 58  2  0  0  0
 57128  1  0  0  0
 58129  1  0  0  0
 59 60  1  0  0  0
 59 61  1  0  0  0
 59 62  1  0  0  0
 60130  1  0  0  0
 60131  1  0  0  0
 60132  1  0  0  0
 61133  1  0  0  0
 61134  1  0  0  0
 61135  1  0  0  0
 62136  1  0  0  0
 62137  1  0  0  0
 62138  1  0  0  0
 63 65  1  0  0  0
 63139  1  0  0  0
 63140  1  0  0  0
 63141  1  0  0  0
 64142  1  0  0  0
 65143  1  0  0  0
 68 81  1  0  0  0
 71 74  2  0  0  0
 71 75  1  0  0  0
 71144  1  0  0  0
 72 74  1  0  0  0
 72 76  2  0  0  0
 72145  1  0  0  0
 73 75  2  0  0  0
 73 76  1  0  0  0
 73146  1  0  0  0
 74 77  1  0  0  0
 75 80  1  0  0  0
 76 84  1  0  0  0
 77 82  2  0  0  0
 77147  1  0  0  0
 78 79  1  0  0  0
 78 81  1  0  0  0
 78 83  2  0  0  0
 79148  1  0  0  0
 79149  1  0  0  0
 79150  1  0  0  0
 80 83  1  0  0  0
 80151  1  0  0  0
 80152  1  0  0  0
 81153  1  0  0  0
 81154  1  0  0  0
 84155  1  0  0  0
 84156  1  0  0  0
M  ISO  4   1 100  68 101  81 101  82 100
M  END
> <chiral flag>
0

> <version>
0

> <s_m_source_file>
/data/baiqing/PycharmProjects/Reinvent-master-3.2/result/LINK_invent/BTK/process_docking_weight1_custom_product_contain_oxygen_bond_distance_aromatic_linkinvent_7_9_3/rearranged_h_0115.sdf

> <i_m_source_file_index>
34

> <r_mmod_Potential_Energy-OPLS-2005>
-53.804515838623

> <r_mmod_Stretch_Energy-OPLS-2005>
52.83251953125

> <r_mmod_Bend_Energy-OPLS-2005>
113.053741455078

> <r_mmod_Torsional_Energy-OPLS-2005>
191.57682800293

> <r_mmod_Improper_Torsional_Energy-OPLS-2005>
3.95902681350708

> <r_mmod_Van_der_Waal_Energy-OPLS-2005>
161.848205566406

> <r_mmod_Electrostatic_Energy-OPLS-2005>
-393.285827636719

> <r_mmod_Solvation_Energy-OPLS-2005>
-201.118850708008

> <b_mmod_Minimization_Converged-OPLS-2005>
0

> <r_mmod_RMS_Derivative-OPLS-2005>
3.7820782661438

$$$$
34
                    3D
 Structure written by MMmdl.
170178  0  0  1  0            999 V2000
  -30.5662  -14.9215   20.4863 C   0  0  0  0  0  0
  -30.4468  -12.5959   19.4548 C   0  0  0  0  0  0
  -29.4997  -12.5050   18.2344 C   0  0  0  0  0  0
  -28.0451  -12.2471   18.6766 C   0  0  0  0  0  0
  -27.6188  -13.1760   19.8304 C   0  0  2  0  0  0
  -28.6837  -13.1980   20.9540 C   0  0  0  0  0  0
  -25.2369  -13.7993   20.5571 C   0  0  0  0  0  0
  -24.1677  -13.0316   20.9219 C   0  0  0  0  0  0
  -24.6242  -11.6795   20.8830 C   0  0  0  0  0  0
  -23.8922  -10.4202   21.0473 C   0  0  0  0  0  0
  -24.3493   -9.4138   21.9235 C   0  0  0  0  0  0
  -23.6186   -8.2173   22.0785 C   0  0  0  0  0  0
  -22.4180   -8.0210   21.3565 C   0  0  0  0  0  0
  -21.9798   -9.0176   20.4670 C   0  0  0  0  0  0
  -22.7116  -10.2059   20.3112 C   0  0  0  0  0  0
  -21.6849   -6.0643   22.5257 C   0  0  0  0  0  0
  -21.4006   -6.5576   23.8175 C   0  0  0  0  0  0
  -21.3670   -5.6752   24.9149 C   0  0  0  0  0  0
  -21.6054   -4.3016   24.7233 C   0  0  0  0  0  0
  -21.8814   -3.8080   23.4362 C   0  0  0  0  0  0
  -21.9202   -4.6869   22.3400 C   0  0  0  0  0  0
  -22.7723  -13.5176   21.1839 C   0  0  0  0  0  0
  -22.1674   -4.2040   21.0983 F   0  0  0  0  0  0
  -21.5650   -3.4532   25.7769 F   0  0  0  0  0  0
  -29.9436  -13.6727   20.3589 N   0  0  0  0  0  0
  -26.2776  -12.9100   20.3263 N   0  0  0  0  0  0
  -25.9145  -11.6318   20.5820 N   0  0  0  0  0  0
  -22.0342  -12.8281   22.0466 N   0  0  0  0  0  0
  -25.3838  -15.1688   20.3688 N   0  0  0  0  0  0
  -31.7804  -14.9372   20.2461 O   0  0  0  0  0  0
  -21.6606   -6.8771   21.4220 O   0  0  0  0  0  0
  -22.3455  -14.5487   20.6650 O   0  0  0  0  0  0
  -24.6365  -31.8501   23.1916 C   0  0  0  0  0  0
  -25.9173  -32.4719   23.8280 C   0  0  1  0  0  0
  -27.2347  -27.2178   20.1404 C   0  0  0  0  0  0
  -25.5942  -33.8520   24.2207 N   0  0  0  0  0  0
  -23.4385  -30.4693   21.5341 C   0  0  2  0  0  0
  -24.8925  -28.9081   20.1096 C   0  0  0  0  0  0
  -22.7546  -29.4563   22.4861 C   0  0  0  0  0  0
  -18.0303  -28.1399   22.8478 C   0  0  0  0  0  0
  -24.1497  -36.7281   23.2637 C   0  0  0  0  0  0
  -25.9890  -30.7481   21.3808 C   0  0  0  0  0  0
  -26.0646  -29.3664   20.7248 C   0  0  0  0  0  0
  -27.2397  -28.5369   20.7236 C   0  0  0  0  0  0
  -26.0371  -26.8404   19.4928 C   0  0  0  0  0  0
  -24.8875  -27.6563   19.4788 C   0  0  0  0  0  0
  -23.6643  -29.8003   20.1525 C   0  0  0  0  0  0
  -25.4121  -36.3047   24.0316 C   0  0  1  0  0  0
  -20.5916  -28.3711   23.1257 C   0  0  2  0  0  0
  -20.6796  -26.9417   22.5412 C   0  0  0  0  0  0
  -19.5767  -26.6385   21.5221 C   0  0  0  0  0  0
  -18.1946  -26.7940   22.1623 C   0  0  0  0  0  0
  -19.1556  -28.8874   23.2863 C   0  0  0  0  0  0
  -18.9470  -30.1475   23.8883 C   0  0  0  0  0  0
  -17.6463  -30.6587   24.0572 C   0  0  0  0  0  0
  -25.9069  -34.9419   23.5069 C   0  0  0  0  0  0
  -16.5359  -29.9087   23.6330 C   0  0  0  0  0  0
  -16.7286  -28.6512   23.0340 C   0  0  0  0  0  0
  -26.4511  -31.6556   25.0696 C   0  0  0  0  0  0
  -25.3723  -31.3761   26.1410 C   0  0  0  0  0  0
  -27.0358  -30.2950   24.6242 C   0  0  0  0  0  0
  -27.6036  -32.4324   25.7487 C   0  0  0  0  0  0
  -27.5581  -37.1795   24.8456 C   0  0  0  0  0  0
  -21.4240  -29.3043   22.3632 N   0  0  0  0  0  0
  -26.4293  -37.3750   23.9402 N   0  0  0  0  0  0
  -24.7070  -31.0416   22.0919 N   0  0  0  0  0  0
  -23.4225  -28.8100   23.2975 O   0  0  0  0  0  0
  -28.3141  -26.2878   20.1702 O   0  0  0  0  0  0
  -26.5641  -34.8902   22.4637 O   0  0  0  0  0  0
  -23.5497  -32.1332   23.7179 O   0  0  0  0  0  0
  -28.9561  -20.4841   23.2596 C   0  0  0  0  0  0
  -29.0770  -17.7241   23.2772 C   0  0  0  0  0  0
  -29.5408  -18.3861   22.0656 C   0  0  0  0  0  0
  -29.3531  -19.8883   22.0201 C   0  0  0  0  0  0
  -28.6389  -19.8174   24.4473 C   0  0  0  0  0  0
  -28.6708  -18.4242   24.4394 C   0  0  0  0  0  0
  -27.8969  -15.5791   23.6896 C   0  0  0  0  0  0
  -29.0395  -16.2589   23.4839 C   0  0  0  0  0  0
  -30.3139  -17.4290   21.0573 C   0  0  0  0  0  0
  -28.9603  -23.5872   20.2388 C   0  0  0  0  0  0
  -28.3856  -22.1993   27.2434 C   0  0  0  0  0  0
  -28.4450  -16.2625   20.2886 C   0  0  0  0  0  0
  -28.9065  -18.0488   26.8044 C   0  0  0  0  0  0
  -28.0052  -24.8559   20.5987 C   0  0  0  0  0  0
  -28.9371  -22.3063   21.2245 C   0  0  0  0  0  0
  -28.4266  -21.8682   25.7490 C   0  0  0  0  0  0
  -29.8362  -16.1327   20.7417 N   0  0  0  0  0  0
  -31.3977  -17.8430   20.6290 O   0  0  0  0  0  0
  -29.6873  -23.6044   19.2403 O   0  0  0  0  0  0
  -28.2954  -17.7083   25.5627 O   0  0  0  0  0  0
  -29.4744  -20.8820   20.9551 O   0  0  0  0  0  0
  -28.2381  -20.4626   25.6048 O   0  0  0  0  0  0
  -31.4602  -12.7961   19.1042 H   0  0  0  0  0  0
  -30.4942  -11.6415   19.9804 H   0  0  0  0  0  0
  -29.8272  -11.7158   17.5569 H   0  0  0  0  0  0
  -29.5464  -13.4314   17.6602 H   0  0  0  0  0  0
  -27.9699  -11.2104   19.0049 H   0  0  0  0  0  0
  -27.3691  -12.3544   17.8271 H   0  0  0  0  0  0
  -27.5460  -14.1314   19.3377 H   0  0  0  0  0  0
  -28.8037  -12.2008   21.3824 H   0  0  0  0  0  0
  -28.3834  -13.8262   21.7845 H   0  0  0  0  0  0
  -25.2616   -9.5649   22.4834 H   0  0  0  0  0  0
  -23.9901   -7.4567   22.7521 H   0  0  0  0  0  0
  -21.0727   -8.8698   19.8951 H   0  0  0  0  0  0
  -22.3573  -10.9612   19.6250 H   0  0  0  0  0  0
  -21.1977   -7.6083   23.9643 H   0  0  0  0  0  0
  -21.1526   -6.0492   25.9050 H   0  0  0  0  0  0
  -22.0588   -2.7533   23.2914 H   0  0  0  0  0  0
  -22.3937  -11.9971   22.4905 H   0  0  0  0  0  0
  -21.0993  -13.1403   22.2663 H   0  0  0  0  0  0
  -24.5948  -15.8034   20.4357 H   0  0  0  0  0  0
  -26.2046  -15.6031   19.9707 H   0  0  0  0  0  0
  -26.7238  -32.5367   23.1016 H   0  0  0  0  0  0
  -25.0092  -33.9631   25.0356 H   0  0  0  0  0  0
  -22.7365  -31.2920   21.3822 H   0  0  0  0  0  0
  -23.3743  -35.9630   23.3293 H   0  0  0  0  0  0
  -24.3585  -36.8917   22.2051 H   0  0  0  0  0  0
  -23.7271  -37.6487   23.6673 H   0  0  0  0  0  0
  -26.1366  -31.5052   20.6086 H   0  0  0  0  0  0
  -26.8624  -30.7986   22.0203 H   0  0  0  0  0  0
  -28.1382  -28.8830   21.2126 H   0  0  0  0  0  0
  -25.9707  -25.8862   18.9905 H   0  0  0  0  0  0
  -23.9949  -27.3065   18.9781 H   0  0  0  0  0  0
  -23.7968  -30.5745   19.3960 H   0  0  0  0  0  0
  -22.7824  -29.2368   19.8429 H   0  0  0  0  0  0
  -25.1304  -36.1882   25.0806 H   0  0  0  0  0  0
  -21.0011  -28.3306   24.1379 H   0  0  0  0  0  0
  -20.5713  -26.2308   23.3618 H   0  0  0  0  0  0
  -21.6660  -26.7451   22.1196 H   0  0  0  0  0  0
  -19.6925  -25.6298   21.1250 H   0  0  0  0  0  0
  -19.6706  -27.3198   20.6753 H   0  0  0  0  0  0
  -17.4218  -26.6692   21.4027 H   0  0  0  0  0  0
  -18.0334  -26.0095   22.9021 H   0  0  0  0  0  0
  -19.7943  -30.7308   24.2240 H   0  0  0  0  0  0
  -17.5010  -31.6261   24.5184 H   0  0  0  0  0  0
  -15.5358  -30.2978   23.7662 H   0  0  0  0  0  0
  -15.8690  -28.0831   22.7043 H   0  0  0  0  0  0
  -24.5872  -30.7132   25.7746 H   0  0  0  0  0  0
  -24.8957  -32.2965   26.4800 H   0  0  0  0  0  0
  -25.8024  -30.8951   27.0207 H   0  0  0  0  0  0
  -26.2956  -29.6685   24.1251 H   0  0  0  0  0  0
  -27.3968  -29.7225   25.4796 H   0  0  0  0  0  0
  -27.8865  -30.4151   23.9535 H   0  0  0  0  0  0
  -27.2588  -33.3603   26.2056 H   0  0  0  0  0  0
  -28.3859  -32.6925   25.0349 H   0  0  0  0  0  0
  -28.0693  -31.8477   26.5426 H   0  0  0  0  0  0
  -28.2586  -38.0103   24.7495 H   0  0  0  0  0  0
  -28.1092  -36.2631   24.6287 H   0  0  0  0  0  0
  -27.2304  -37.1458   25.8861 H   0  0  0  0  0  0
  -20.9433  -29.8745   21.6813 H   0  0  0  0  0  0
  -26.0165  -38.2823   24.1391 H   0  0  0  0  0  0
  -28.8505  -21.5374   23.3795 H   0  0  0  0  0  0
  -27.8945  -14.5159   23.8780 H   0  0  0  0  0  0
  -26.9385  -16.0815   23.6788 H   0  0  0  0  0  0
  -29.9821  -15.7324   23.5132 H   0  0  0  0  0  0
  -28.5420  -23.2654   27.4105 H   0  0  0  0  0  0
  -29.1696  -21.6629   27.7811 H   0  0  0  0  0  0
  -27.4256  -21.9268   27.6826 H   0  0  0  0  0  0
  -28.0175  -17.2663   20.3163 H   0  0  0  0  0  0
  -27.7815  -15.6749   20.9085 H   0  0  0  0  0  0
  -28.3836  -15.9863   19.2373 H   0  0  0  0  0  0
  -28.2312  -18.6529   27.4130 H   0  0  0  0  0  0
  -29.8513  -18.5824   26.6865 H   0  0  0  0  0  0
  -29.1133  -17.1315   27.3577 H   0  0  0  0  0  0
  -27.9085  -24.8714   21.6843 H   0  0  0  0  0  0
  -27.0206  -24.5743   20.2342 H   0  0  0  0  0  0
  -27.9049  -22.2161   21.5666 H   0  0  0  0  0  0
  -29.5334  -22.7076   22.0413 H   0  0  0  0  0  0
  -29.3923  -22.1897   25.3579 H   0  0  0  0  0  0
  -27.6422  -22.4105   25.2169 H   0  0  0  0  0  0
  1 25  1  0  0  0
  1 30  2  0  0  0
  1 87  1  0  0  0
  2  3  1  0  0  0
  2 25  1  0  0  0
  2 93  1  0  0  0
  2 94  1  0  0  0
  3  4  1  0  0  0
  3 95  1  0  0  0
  3 96  1  0  0  0
  4  5  1  0  0  0
  4 97  1  0  0  0
  4 98  1  0  0  0
  5  6  1  0  0  0
  5 26  1  0  0  0
  5 99  1  0  0  0
  6 25  1  0  0  0
  6100  1  0  0  0
  6101  1  0  0  0
  7  8  2  0  0  0
  7 26  1  0  0  0
  7 29  1  0  0  0
  8  9  1  0  0  0
  8 22  1  0  0  0
  9 10  1  0  0  0
  9 27  2  0  0  0
 10 11  2  0  0  0
 10 15  1  0  0  0
 11 12  1  0  0  0
 11102  1  0  0  0
 12 13  2  0  0  0
 12103  1  0  0  0
 13 14  1  0  0  0
 13 31  1  0  0  0
 14 15  2  0  0  0
 14104  1  0  0  0
 15105  1  0  0  0
 16 17  2  0  0  0
 16 21  1  0  0  0
 16 31  1  0  0  0
 17 18  1  0  0  0
 17106  1  0  0  0
 18 19  2  0  0  0
 18107  1  0  0  0
 19 20  1  0  0  0
 19 24  1  0  0  0
 20 21  2  0  0  0
 20108  1  0  0  0
 21 23  1  0  0  0
 22 28  1  0  0  0
 22 32  2  0  0  0
 26 27  1  0  0  0
 28109  1  0  0  0
 28110  1  0  0  0
 29111  1  0  0  0
 29112  1  0  0  0
 33 34  1  0  0  0
 33 66  1  0  0  0
 33 70  2  0  0  0
 34 36  1  0  0  0
 34 59  1  0  0  0
 34113  1  0  0  0
 35 44  2  0  0  0
 35 45  1  0  0  0
 35 68  1  0  0  0
 36 56  1  0  0  0
 36114  1  0  0  0
 37 39  1  0  0  0
 37 47  1  0  0  0
 37 66  1  0  0  0
 37115  1  0  0  0
 38 43  2  0  0  0
 38 46  1  0  0  0
 38 47  1  0  0  0
 39 64  1  0  0  0
 39 67  2  0  0  0
 40 52  1  0  0  0
 40 53  2  0  0  0
 40 58  1  0  0  0
 41116  1  0  0  0
 41117  1  0  0  0
 41118  1  0  0  0
 41 48  1  0  0  0
 42 43  1  0  0  0
 42 66  1  0  0  0
 42119  1  0  0  0
 42120  1  0  0  0
 43 44  1  0  0  0
 44121  1  0  0  0
 45 46  2  0  0  0
 45122  1  0  0  0
 46123  1  0  0  0
 47124  1  0  0  0
 47125  1  0  0  0
 48 56  1  0  0  0
 48 65  1  0  0  0
 48126  1  0  0  0
 49 50  1  0  0  0
 49 53  1  0  0  0
 49 64  1  0  0  0
 49127  1  0  0  0
 50 51  1  0  0  0
 50128  1  0  0  0
 50129  1  0  0  0
 51 52  1  0  0  0
 51130  1  0  0  0
 51131  1  0  0  0
 52132  1  0  0  0
 52133  1  0  0  0
 53 54  1  0  0  0
 54 55  2  0  0  0
 54134  1  0  0  0
 55 57  1  0  0  0
 55135  1  0  0  0
 56 69  2  0  0  0
 57 58  2  0  0  0
 57136  1  0  0  0
 58137  1  0  0  0
 59 60  1  0  0  0
 59 61  1  0  0  0
 59 62  1  0  0  0
 60138  1  0  0  0
 60139  1  0  0  0
 60140  1  0  0  0
 61141  1  0  0  0
 61142  1  0  0  0
 61143  1  0  0  0
 62144  1  0  0  0
 62145  1  0  0  0
 62146  1  0  0  0
 63 65  1  0  0  0
 63147  1  0  0  0
 63148  1  0  0  0
 63149  1  0  0  0
 64150  1  0  0  0
 65151  1  0  0  0
 68 84  1  0  0  0
 71 74  2  0  0  0
 71 75  1  0  0  0
 71152  1  0  0  0
 72 73  2  0  0  0
 72 76  1  0  0  0
 72 78  1  0  0  0
 73 74  1  0  0  0
 73 79  1  0  0  0
 74 91  1  0  0  0
 75 76  2  0  0  0
 75 92  1  0  0  0
 76 90  1  0  0  0
 77 78  2  0  0  0
 77153  1  0  0  0
 77154  1  0  0  0
 78155  1  0  0  0
 79 87  1  0  0  0
 79 88  2  0  0  0
 80 84  1  0  0  0
 80 85  1  0  0  0
 80 89  2  0  0  0
 81 86  1  0  0  0
 81156  1  0  0  0
 81157  1  0  0  0
 81158  1  0  0  0
 82 87  1  0  0  0
 82159  1  0  0  0
 82160  1  0  0  0
 82161  1  0  0  0
 83 90  1  0  0  0
 83162  1  0  0  0
 83163  1  0  0  0
 83164  1  0  0  0
 84165  1  0  0  0
 84166  1  0  0  0
 85 91  1  0  0  0
 85167  1  0  0  0
 85168  1  0  0  0
 86 92  1  0  0  0
 86169  1  0  0  0
 86170  1  0  0  0
M  ISO  4   1 100  68 101  84 101  87 100
M  END
> <chiral flag>
0

> <version>
0

> <s_m_source_file>
/data/baiqing/PycharmProjects/Reinvent-master-3.2/result/LINK_invent/BTK/process_docking_weight1_custom_product_contain_oxygen_bond_distance_aromatic_linkinvent_7_9_3/rearranged_h_0115.sdf

> <i_m_source_file_index>
35

> <r_mmod_Potential_Energy-OPLS-2005>
793.001770019531

> <r_mmod_Stretch_Energy-OPLS-2005>
232.375122070312

> <r_mmod_Bend_Energy-OPLS-2005>
299.590118408203

> <r_mmod_Torsional_Energy-OPLS-2005>
388.216217041016

> <r_mmod_Improper_Torsional_Energy-OPLS-2005>
5.58220911026001

> <r_mmod_Van_der_Waal_Energy-OPLS-2005>
210.71614074707

> <r_mmod_Electrostatic_Energy-OPLS-2005>
-247.010437011719

> <r_mmod_Solvation_Energy-OPLS-2005>
-245.867858886719

> <b_mmod_Minimization_Converged-OPLS-2005>
0

> <r_mmod_RMS_Derivative-OPLS-2005>
3.84608936309814

$$$$
35
                    3D
 Structure written by MMmdl.
166174  0  0  1  0            999 V2000
  -30.7258  -14.4765   20.4979 C   0  0  0  0  0  0
  -30.4179  -12.2859   19.4411 C   0  0  0  0  0  0
  -29.5000  -12.4669   18.2137 C   0  0  0  0  0  0
  -28.0176  -12.3513   18.6248 C   0  0  0  0  0  0
  -27.6543  -13.2130   19.8656 C   0  0  2  0  0  0
  -28.7035  -13.0488   20.9898 C   0  0  0  0  0  0
  -25.2610  -13.8163   20.5836 C   0  0  0  0  0  0
  -24.1822  -13.0443   20.9213 C   0  0  0  0  0  0
  -24.6377  -11.6909   20.8717 C   0  0  0  0  0  0
  -23.9044  -10.4300   21.0387 C   0  0  0  0  0  0
  -24.3606   -9.4207   21.9151 C   0  0  0  0  0  0
  -23.6269   -8.2254   22.0722 C   0  0  0  0  0  0
  -22.4253   -8.0288   21.3528 C   0  0  0  0  0  0
  -21.9895   -9.0266   20.4631 C   0  0  0  0  0  0
  -22.7230  -10.2141   20.3040 C   0  0  0  0  0  0
  -21.6851   -6.0740   22.5267 C   0  0  0  0  0  0
  -21.4038   -6.5643   23.8209 C   0  0  0  0  0  0
  -21.3669   -5.6781   24.9157 C   0  0  0  0  0  0
  -21.6041   -4.3045   24.7205 C   0  0  0  0  0  0
  -21.8813   -3.8145   23.4324 C   0  0  0  0  0  0
  -21.9192   -4.6970   22.3390 C   0  0  0  0  0  0
  -22.7855  -13.5240   21.1867 C   0  0  0  0  0  0
  -22.1637   -4.2153   21.0962 F   0  0  0  0  0  0
  -21.5629   -3.4522   25.7712 F   0  0  0  0  0  0
  -30.0271  -13.3134   20.4145 N   0  0  0  0  0  0
  -26.3000  -12.9333   20.3362 N   0  0  0  0  0  0
  -25.9296  -11.6485   20.5708 N   0  0  0  0  0  0
  -22.0502  -12.8244   22.0439 N   0  0  0  0  0  0
  -25.4436  -15.1899   20.4547 N   0  0  0  0  0  0
  -31.9360  -14.5289   20.2596 O   0  0  0  0  0  0
  -21.6624   -6.8873   21.4221 O   0  0  0  0  0  0
  -22.3558  -14.5538   20.6680 O   0  0  0  0  0  0
  -24.6122  -31.8675   23.2086 C   0  0  0  0  0  0
  -25.9036  -32.4809   23.8377 C   0  0  1  0  0  0
  -27.2302  -27.4530   20.0998 C   0  0  0  0  0  0
  -25.5891  -33.8607   24.2311 N   0  0  0  0  0  0
  -23.3993  -30.4922   21.5483 C   0  0  2  0  0  0
  -24.8462  -28.9589   20.1138 C   0  0  0  0  0  0
  -22.7398  -29.4656   22.4961 C   0  0  0  0  0  0
  -18.0270  -28.1369   22.8476 C   0  0  0  0  0  0
  -24.1492  -36.7341   23.2627 C   0  0  0  0  0  0
  -25.9227  -30.8469   21.3513 C   0  0  0  0  0  0
  -26.0046  -29.4789   20.7069 C   0  0  0  0  0  0
  -27.2034  -28.7317   20.6963 C   0  0  0  0  0  0
  -26.0601  -26.9456   19.4945 C   0  0  0  0  0  0
  -24.8669  -27.6912   19.5060 C   0  0  0  0  0  0
  -23.6079  -29.8243   20.1620 C   0  0  0  0  0  0
  -25.4100  -36.3102   24.0328 C   0  0  1  0  0  0
  -20.5858  -28.3656   23.1311 C   0  0  2  0  0  0
  -20.6760  -26.9392   22.5417 C   0  0  0  0  0  0
  -19.5763  -26.6384   21.5190 C   0  0  0  0  0  0
  -18.1940  -26.7913   22.1604 C   0  0  0  0  0  0
  -19.1518  -28.8828   23.2894 C   0  0  0  0  0  0
  -18.9449  -30.1431   23.8905 C   0  0  0  0  0  0
  -17.6453  -30.6568   24.0565 C   0  0  0  0  0  0
  -25.9029  -34.9470   23.5124 C   0  0  0  0  0  0
  -16.5345  -29.9082   23.6299 C   0  0  0  0  0  0
  -16.7265  -28.6504   23.0317 C   0  0  0  0  0  0
  -26.4475  -31.6570   25.0681 C   0  0  0  0  0  0
  -25.3763  -31.3691   26.1438 C   0  0  0  0  0  0
  -27.0278  -30.3020   24.6012 C   0  0  0  0  0  0
  -27.6057  -32.4261   25.7454 C   0  0  0  0  0  0
  -27.5593  -37.1806   24.8431 C   0  0  0  0  0  0
  -21.4128  -29.3030   22.3724 N   0  0  0  0  0  0
  -26.4277  -37.3795   23.9421 N   0  0  0  0  0  0
  -24.6641  -31.0814   22.0968 N   0  0  0  0  0  0
  -23.4184  -28.8192   23.2996 O   0  0  0  0  0  0
  -28.3798  -26.7030   20.1217 O   0  0  0  0  0  0
  -26.5590  -34.8915   22.4684 O   0  0  0  0  0  0
  -23.5326  -32.1400   23.7506 O   0  0  0  0  0  0
  -30.1515  -18.9243   21.6210 C   0  0  0  0  0  0
  -28.3285  -18.2514   20.1609 C   0  0  0  0  0  0
  -29.3721  -17.8919   21.0448 C   0  0  0  0  0  0
  -30.0109  -20.2708   21.2008 C   0  0  0  0  0  0
  -28.1603  -19.5930   19.7522 C   0  0  0  0  0  0
  -29.0164  -20.6023   20.2472 C   0  0  0  0  0  0
  -31.0018  -16.8897   18.4821 C   0  0  0  0  0  0
  -30.8920  -21.3252   21.7334 C   0  0  0  0  0  0
  -31.4950  -21.3268   22.9341 C   0  0  0  0  0  0
  -30.0413  -16.0870   18.9824 C   0  0  0  0  0  0
  -29.7143  -16.4424   21.3503 C   0  0  0  0  0  0
  -28.4932  -24.2502   19.9034 C   0  0  0  0  0  0
  -27.0888  -19.9500   18.7393 C   0  0  0  0  0  0
  -32.4251  -22.4253   23.4063 C   0  0  0  0  0  0
  -28.2329  -25.4548   20.8169 C   0  0  0  0  0  0
  -28.3152  -22.8587   20.5333 C   0  0  0  0  0  0
  -29.9929  -15.6023   20.3056 N   0  0  0  0  0  0
  -29.7869  -16.1044   22.5364 O   0  0  0  0  0  0
  -28.8202  -24.3915   18.7182 O   0  0  0  0  0  0
  -28.9274  -21.8668   19.7094 O   0  0  0  0  0  0
  -31.4680  -12.3547   19.1534 H   0  0  0  0  0  0
  -30.2929  -11.2934   19.8748 H   0  0  0  0  0  0
  -29.7314  -11.7203   17.4539 H   0  0  0  0  0  0
  -29.6830  -13.4341   17.7478 H   0  0  0  0  0  0
  -27.8249  -11.2991   18.8359 H   0  0  0  0  0  0
  -27.3729  -12.6085   17.7832 H   0  0  0  0  0  0
  -27.6689  -14.2525   19.5427 H   0  0  0  0  0  0
  -28.6750  -12.0354   21.3910 H   0  0  0  0  0  0
  -28.4977  -13.7173   21.8262 H   0  0  0  0  0  0
  -25.2746   -9.5656   22.4710 H   0  0  0  0  0  0
  -23.9977   -7.4639   22.7430 H   0  0  0  0  0  0
  -21.0826   -8.8814   19.8918 H   0  0  0  0  0  0
  -22.3703  -10.9697   19.6168 H   0  0  0  0  0  0
  -21.2047   -7.6150   23.9732 H   0  0  0  0  0  0
  -21.1493   -6.0490   25.9066 H   0  0  0  0  0  0
  -22.0578   -2.7611   23.2811 H   0  0  0  0  0  0
  -22.4130  -11.9890   22.4799 H   0  0  0  0  0  0
  -21.1128  -13.1277   22.2684 H   0  0  0  0  0  0
  -24.7094  -15.8492   20.6882 H   0  0  0  0  0  0
  -26.3255  -15.6382   20.2495 H   0  0  0  0  0  0
  -26.7103  -32.5541   23.1148 H   0  0  0  0  0  0
  -25.0030  -33.9762   25.0449 H   0  0  0  0  0  0
  -22.6878  -31.3074   21.4073 H   0  0  0  0  0  0
  -23.3730  -35.9694   23.3242 H   0  0  0  0  0  0
  -24.3613  -36.9009   22.2051 H   0  0  0  0  0  0
  -23.7247  -37.6543   23.6662 H   0  0  0  0  0  0
  -26.0130  -31.6082   20.5740 H   0  0  0  0  0  0
  -26.8191  -30.9156   21.9570 H   0  0  0  0  0  0
  -28.0986  -29.1242   21.1602 H   0  0  0  0  0  0
  -26.0698  -25.9756   19.0162 H   0  0  0  0  0  0
  -23.9769  -27.2886   19.0427 H   0  0  0  0  0  0
  -23.7160  -30.5989   19.4021 H   0  0  0  0  0  0
  -22.7329  -29.2453   19.8606 H   0  0  0  0  0  0
  -25.1262  -36.1963   25.0815 H   0  0  0  0  0  0
  -20.9953  -28.3216   24.1429 H   0  0  0  0  0  0
  -20.5633  -26.2265   23.3599 H   0  0  0  0  0  0
  -21.6635  -26.7415   22.1230 H   0  0  0  0  0  0
  -19.6932  -25.6300   21.1207 H   0  0  0  0  0  0
  -19.6713  -27.3204   20.6733 H   0  0  0  0  0  0
  -17.4202  -26.6634   21.4022 H   0  0  0  0  0  0
  -18.0372  -26.0058   22.9003 H   0  0  0  0  0  0
  -19.7927  -30.7243   24.2297 H   0  0  0  0  0  0
  -17.5000  -31.6243   24.5188 H   0  0  0  0  0  0
  -15.5344  -30.2996   23.7609 H   0  0  0  0  0  0
  -15.8669  -28.0840   22.6998 H   0  0  0  0  0  0
  -24.5940  -30.7017   25.7801 H   0  0  0  0  0  0
  -24.8939  -32.2849   26.4857 H   0  0  0  0  0  0
  -25.8126  -30.8894   27.0209 H   0  0  0  0  0  0
  -26.2803  -29.6801   24.1058 H   0  0  0  0  0  0
  -27.4069  -29.7212   25.4435 H   0  0  0  0  0  0
  -27.8624  -30.4351   23.9121 H   0  0  0  0  0  0
  -27.2701  -33.3571   26.2037 H   0  0  0  0  0  0
  -28.3890  -32.6796   25.0296 H   0  0  0  0  0  0
  -28.0689  -31.8353   26.5374 H   0  0  0  0  0  0
  -28.2524  -38.0187   24.7543 H   0  0  0  0  0  0
  -28.1165  -36.2708   24.6134 H   0  0  0  0  0  0
  -27.2328  -37.1305   25.8834 H   0  0  0  0  0  0
  -20.9271  -29.8801   21.6989 H   0  0  0  0  0  0
  -26.0154  -38.2861   24.1463 H   0  0  0  0  0  0
  -30.9274  -18.6556   22.3239 H   0  0  0  0  0  0
  -27.6970  -17.4815   19.7394 H   0  0  0  0  0  0
  -30.9761  -17.2162   17.4526 H   0  0  0  0  0  0
  -31.8282  -17.2301   19.0910 H   0  0  0  0  0  0
  -31.0774  -22.1569   21.0675 H   0  0  0  0  0  0
  -31.3276  -20.5171   23.6319 H   0  0  0  0  0  0
  -29.2137  -15.7399   18.3788 H   0  0  0  0  0  0
  -26.6472  -19.0626   18.2831 H   0  0  0  0  0  0
  -27.5132  -20.5636   17.9425 H   0  0  0  0  0  0
  -26.2904  -20.5183   19.2185 H   0  0  0  0  0  0
  -32.5206  -23.2187   22.6631 H   0  0  0  0  0  0
  -33.4196  -22.0217   23.5959 H   0  0  0  0  0  0
  -32.0583  -22.8688   24.3317 H   0  0  0  0  0  0
  -28.9446  -25.4259   21.6417 H   0  0  0  0  0  0
  -27.2401  -25.3500   21.2580 H   0  0  0  0  0  0
  -27.2500  -22.6420   20.6219 H   0  0  0  0  0  0
  -28.7354  -22.8601   21.5390 H   0  0  0  0  0  0
  1 25  1  0  0  0
  1 30  2  0  0  0
  1 87  1  0  0  0
  2  3  1  0  0  0
  2 25  1  0  0  0
  2 91  1  0  0  0
  2 92  1  0  0  0
  3  4  1  0  0  0
  3 93  1  0  0  0
  3 94  1  0  0  0
  4  5  1  0  0  0
  4 95  1  0  0  0
  4 96  1  0  0  0
  5  6  1  0  0  0
  5 26  1  0  0  0
  5 97  1  0  0  0
  6 25  1  0  0  0
  6 98  1  0  0  0
  6 99  1  0  0  0
  7  8  2  0  0  0
  7 26  1  0  0  0
  7 29  1  0  0  0
  8  9  1  0  0  0
  8 22  1  0  0  0
  9 10  1  0  0  0
  9 27  2  0  0  0
 10 11  2  0  0  0
 10 15  1  0  0  0
 11 12  1  0  0  0
 11100  1  0  0  0
 12 13  2  0  0  0
 12101  1  0  0  0
 13 14  1  0  0  0
 13 31  1  0  0  0
 14 15  2  0  0  0
 14102  1  0  0  0
 15103  1  0  0  0
 16 17  2  0  0  0
 16 21  1  0  0  0
 16 31  1  0  0  0
 17 18  1  0  0  0
 17104  1  0  0  0
 18 19  2  0  0  0
 18105  1  0  0  0
 19 20  1  0  0  0
 19 24  1  0  0  0
 20 21  2  0  0  0
 20106  1  0  0  0
 21 23  1  0  0  0
 22 28  1  0  0  0
 22 32  2  0  0  0
 26 27  1  0  0  0
 28107  1  0  0  0
 28108  1  0  0  0
 29109  1  0  0  0
 29110  1  0  0  0
 33 34  1  0  0  0
 33 66  1  0  0  0
 33 70  2  0  0  0
 34 36  1  0  0  0
 34 59  1  0  0  0
 34111  1  0  0  0
 35 44  2  0  0  0
 35 45  1  0  0  0
 35 68  1  0  0  0
 36 56  1  0  0  0
 36112  1  0  0  0
 37 39  1  0  0  0
 37 47  1  0  0  0
 37 66  1  0  0  0
 37113  1  0  0  0
 38 43  2  0  0  0
 38 46  1  0  0  0
 38 47  1  0  0  0
 39 64  1  0  0  0
 39 67  2  0  0  0
 40 52  1  0  0  0
 40 53  2  0  0  0
 40 58  1  0  0  0
 41114  1  0  0  0
 41115  1  0  0  0
 41116  1  0  0  0
 41 48  1  0  0  0
 42 43  1  0  0  0
 42 66  1  0  0  0
 42117  1  0  0  0
 42118  1  0  0  0
 43 44  1  0  0  0
 44119  1  0  0  0
 45 46  2  0  0  0
 45120  1  0  0  0
 46121  1  0  0  0
 47122  1  0  0  0
 47123  1  0  0  0
 48 56  1  0  0  0
 48 65  1  0  0  0
 48124  1  0  0  0
 49 50  1  0  0  0
 49 53  1  0  0  0
 49 64  1  0  0  0
 49125  1  0  0  0
 50 51  1  0  0  0
 50126  1  0  0  0
 50127  1  0  0  0
 51 52  1  0  0  0
 51128  1  0  0  0
 51129  1  0  0  0
 52130  1  0  0  0
 52131  1  0  0  0
 53 54  1  0  0  0
 54 55  2  0  0  0
 54132  1  0  0  0
 55 57  1  0  0  0
 55133  1  0  0  0
 56 69  2  0  0  0
 57 58  2  0  0  0
 57134  1  0  0  0
 58135  1  0  0  0
 59 60  1  0  0  0
 59 61  1  0  0  0
 59 62  1  0  0  0
 60136  1  0  0  0
 60137  1  0  0  0
 60138  1  0  0  0
 61139  1  0  0  0
 61140  1  0  0  0
 61141  1  0  0  0
 62142  1  0  0  0
 62143  1  0  0  0
 62144  1  0  0  0
 63 65  1  0  0  0
 63145  1  0  0  0
 63146  1  0  0  0
 63147  1  0  0  0
 64148  1  0  0  0
 65149  1  0  0  0
 68 85  1  0  0  0
 71 73  2  0  0  0
 71 74  1  0  0  0
 71150  1  0  0  0
 72 73  1  0  0  0
 72 75  2  0  0  0
 72151  1  0  0  0
 73 81  1  0  0  0
 74 76  2  0  0  0
 74 78  1  0  0  0
 75 76  1  0  0  0
 75 83  1  0  0  0
 76 90  1  0  0  0
 77 80  2  0  0  0
 77152  1  0  0  0
 77153  1  0  0  0
 78 79  2  0  0  0
 78154  1  0  0  0
 79 84  1  0  0  0
 79155  1  0  0  0
 80 87  1  0  0  0
 80156  1  0  0  0
 81 87  1  0  0  0
 81 88  2  0  0  0
 82 85  1  0  0  0
 82 86  1  0  0  0
 82 89  2  0  0  0
 83157  1  0  0  0
 83158  1  0  0  0
 83159  1  0  0  0
 84160  1  0  0  0
 84161  1  0  0  0
 84162  1  0  0  0
 85163  1  0  0  0
 85164  1  0  0  0
 86 90  1  0  0  0
 86165  1  0  0  0
 86166  1  0  0  0
M  ISO  4   1 100  68 101  85 101  87 100
M  END
> <chiral flag>
0

> <version>
0

> <s_m_source_file>
/data/baiqing/PycharmProjects/Reinvent-master-3.2/result/LINK_invent/BTK/process_docking_weight1_custom_product_contain_oxygen_bond_distance_aromatic_linkinvent_7_9_3/rearranged_h_0115.sdf

> <i_m_source_file_index>
36

> <r_mmod_Potential_Energy-OPLS-2005>
240.877456665039

> <r_mmod_Stretch_Energy-OPLS-2005>
39.839168548584

> <r_mmod_Bend_Energy-OPLS-2005>
97.4038238525391

> <r_mmod_Torsional_Energy-OPLS-2005>
407.048156738281

> <r_mmod_Improper_Torsional_Energy-OPLS-2005>
19.8755588531494

> <r_mmod_Van_der_Waal_Energy-OPLS-2005>
157.851455688477

> <r_mmod_Electrostatic_Energy-OPLS-2005>
-285.422943115234

> <r_mmod_Solvation_Energy-OPLS-2005>
-219.902099609375

> <b_mmod_Minimization_Converged-OPLS-2005>
0

> <r_mmod_RMS_Derivative-OPLS-2005>
3.9282751083374

$$$$
36
                    3D
 Structure written by MMmdl.
164173  0  0  1  0            999 V2000
  -30.6031  -14.5748   20.4719 C   0  0  0  0  0  0
  -30.4169  -12.3307   19.4531 C   0  0  0  0  0  0
  -29.5123  -12.5240   18.2161 C   0  0  0  0  0  0
  -28.0252  -12.3978   18.6094 C   0  0  0  0  0  0
  -27.6555  -13.2217   19.8717 C   0  0  2  0  0  0
  -28.6909  -13.0214   20.9996 C   0  0  0  0  0  0
  -25.2521  -13.8172   20.5651 C   0  0  0  0  0  0
  -24.1794  -13.0429   20.9175 C   0  0  0  0  0  0
  -24.6376  -11.6911   20.8690 C   0  0  0  0  0  0
  -23.9038  -10.4294   21.0349 C   0  0  0  0  0  0
  -24.3585   -9.4207   21.9148 C   0  0  0  0  0  0
  -23.6249   -8.2267   22.0751 C   0  0  0  0  0  0
  -22.4224   -8.0315   21.3571 C   0  0  0  0  0  0
  -21.9885   -9.0275   20.4664 C   0  0  0  0  0  0
  -22.7203  -10.2155   20.3027 C   0  0  0  0  0  0
  -21.6832   -6.0750   22.5289 C   0  0  0  0  0  0
  -21.3988   -6.5657   23.8230 C   0  0  0  0  0  0
  -21.3651   -5.6800   24.9194 C   0  0  0  0  0  0
  -21.6051   -4.3072   24.7229 C   0  0  0  0  0  0
  -21.8806   -3.8166   23.4340 C   0  0  0  0  0  0
  -21.9202   -4.6977   22.3393 C   0  0  0  0  0  0
  -22.7835  -13.5260   21.1849 C   0  0  0  0  0  0
  -22.1680   -4.2170   21.0976 F   0  0  0  0  0  0
  -21.5622   -3.4554   25.7731 F   0  0  0  0  0  0
  -30.0113  -13.3453   20.4449 N   0  0  0  0  0  0
  -26.2987  -12.9366   20.3315 N   0  0  0  0  0  0
  -25.9317  -11.6516   20.5713 N   0  0  0  0  0  0
  -22.0465  -12.8301   22.0419 N   0  0  0  0  0  0
  -25.4185  -15.1889   20.4034 N   0  0  0  0  0  0
  -31.7667  -14.7450   20.0973 O   0  0  0  0  0  0
  -21.6582   -6.8923   21.4280 O   0  0  0  0  0  0
  -22.3586  -14.5579   20.6671 O   0  0  0  0  0  0
  -24.6299  -31.8599   23.2020 C   0  0  0  0  0  0
  -25.9141  -32.4770   23.8354 C   0  0  1  0  0  0
  -27.2113  -27.3403   20.1284 C   0  0  0  0  0  0
  -25.5966  -33.8558   24.2289 N   0  0  0  0  0  0
  -23.4199  -30.4829   21.5473 C   0  0  2  0  0  0
  -24.8621  -28.9402   20.1070 C   0  0  0  0  0  0
  -22.7487  -29.4623   22.4974 C   0  0  0  0  0  0
  -18.0303  -28.1389   22.8477 C   0  0  0  0  0  0
  -24.1487  -36.7285   23.2636 C   0  0  0  0  0  0
  -25.9565  -30.8007   21.3636 C   0  0  0  0  0  0
  -26.0305  -29.4314   20.7058 C   0  0  0  0  0  0
  -27.2154  -28.6445   20.6988 C   0  0  0  0  0  0
  -26.0302  -26.8911   19.5068 C   0  0  0  0  0  0
  -24.8629  -27.6786   19.4900 C   0  0  0  0  0  0
  -23.6305  -29.8202   20.1598 C   0  0  0  0  0  0
  -25.4109  -36.3070   24.0325 C   0  0  1  0  0  0
  -20.5886  -28.3671   23.1291 C   0  0  2  0  0  0
  -20.6761  -26.9396   22.5421 C   0  0  0  0  0  0
  -19.5747  -26.6376   21.5222 C   0  0  0  0  0  0
  -18.1930  -26.7926   22.1630 C   0  0  0  0  0  0
  -19.1543  -28.8848   23.2866 C   0  0  0  0  0  0
  -18.9468  -30.1463   23.8854 C   0  0  0  0  0  0
  -17.6465  -30.6586   24.0562 C   0  0  0  0  0  0
  -25.9049  -34.9458   23.5099 C   0  0  0  0  0  0
  -16.5355  -29.9082   23.6343 C   0  0  0  0  0  0
  -16.7284  -28.6516   23.0328 C   0  0  0  0  0  0
  -26.4526  -31.6559   25.0707 C   0  0  0  0  0  0
  -25.3784  -31.3652   26.1448 C   0  0  0  0  0  0
  -27.0335  -30.2979   24.6114 C   0  0  0  0  0  0
  -27.6082  -32.4299   25.7483 C   0  0  0  0  0  0
  -27.5575  -37.1799   24.8467 C   0  0  0  0  0  0
  -21.4200  -29.3025   22.3700 N   0  0  0  0  0  0
  -26.4283  -37.3776   23.9416 N   0  0  0  0  0  0
  -24.6870  -31.0641   22.0949 N   0  0  0  0  0  0
  -23.4218  -28.8173   23.3074 O   0  0  0  0  0  0
  -28.2972  -26.4710   20.1727 O   0  0  0  0  0  0
  -26.5608  -34.8940   22.4670 O   0  0  0  0  0  0
  -23.5467  -32.1404   23.7382 O   0  0  0  0  0  0
  -29.2778  -18.1141   20.9256 C   0  0  0  0  0  0
  -29.7379  -16.9485   20.1980 C   0  0  0  0  0  0
  -29.9146  -17.2188   18.8534 C   0  0  0  0  0  0
  -29.1561  -19.2746   20.1642 C   0  0  0  0  0  0
  -30.1631  -16.3425   17.7466 C   0  0  0  0  0  0
  -29.4177  -16.2311   16.6312 C   0  0  0  0  0  0
  -28.3397  -21.6167   19.3190 C   0  0  0  0  0  0
  -29.4891  -21.5035   21.5204 C   0  0  0  0  0  0
  -27.7610  -23.0274   19.6647 C   0  0  0  0  0  0
  -28.8987  -22.9195   21.8515 C   0  0  0  0  0  0
  -28.6173  -20.6770   20.5377 C   0  0  2  0  0  0
  -28.6657  -23.8527   20.6183 C   0  0  2  0  0  0
  -29.7319  -15.3300   15.4543 C   0  0  0  0  0  0
  -28.1065  -25.2900   21.0286 C   0  0  0  0  0  0
  -29.7904  -15.6215   20.7882 N   0  0  0  0  0  0
  -29.6794  -18.9238   18.5277 S   0  0  0  0  0  0
  -31.4673  -12.4221   19.1714 H   0  0  0  0  0  0
  -30.2880  -11.3251   19.8579 H   0  0  0  0  0  0
  -29.7601  -11.8002   17.4404 H   0  0  0  0  0  0
  -29.7055  -13.5052   17.7845 H   0  0  0  0  0  0
  -27.8210  -11.3444   18.7816 H   0  0  0  0  0  0
  -27.3867  -12.7081   17.7789 H   0  0  0  0  0  0
  -27.6848  -14.2695   19.5724 H   0  0  0  0  0  0
  -28.6774  -11.9882   21.3564 H   0  0  0  0  0  0
  -28.4517  -13.6434   21.8601 H   0  0  0  0  0  0
  -25.2732   -9.5674   22.4721 H   0  0  0  0  0  0
  -23.9966   -7.4668   22.7457 H   0  0  0  0  0  0
  -21.0820   -8.8771   19.8943 H   0  0  0  0  0  0
  -22.3644  -10.9683   19.6129 H   0  0  0  0  0  0
  -21.1933   -7.6172   23.9707 H   0  0  0  0  0  0
  -21.1507   -6.0551   25.9095 H   0  0  0  0  0  0
  -22.0581   -2.7615   23.2826 H   0  0  0  0  0  0
  -22.4085  -11.9980   22.4834 H   0  0  0  0  0  0
  -21.1081  -13.1357   22.2650 H   0  0  0  0  0  0
  -24.6413  -15.8399   20.4747 H   0  0  0  0  0  0
  -26.2702  -15.6234   20.0702 H   0  0  0  0  0  0
  -26.7214  -32.5449   23.1115 H   0  0  0  0  0  0
  -25.0177  -33.9698   25.0469 H   0  0  0  0  0  0
  -22.7150  -31.3041   21.4080 H   0  0  0  0  0  0
  -23.3765  -35.9605   23.3285 H   0  0  0  0  0  0
  -24.3581  -36.8911   22.2054 H   0  0  0  0  0  0
  -23.7226  -37.6480   23.6654 H   0  0  0  0  0  0
  -26.0850  -31.5653   20.5967 H   0  0  0  0  0  0
  -26.8377  -30.8486   21.9903 H   0  0  0  0  0  0
  -28.1199  -29.0127   21.1593 H   0  0  0  0  0  0
  -26.0037  -25.9141   19.0477 H   0  0  0  0  0  0
  -23.9663  -27.2994   19.0166 H   0  0  0  0  0  0
  -23.7472  -30.5977   19.4023 H   0  0  0  0  0  0
  -22.7490  -29.2466   19.8638 H   0  0  0  0  0  0
  -25.1293  -36.1915   25.0811 H   0  0  0  0  0  0
  -20.9984  -28.3221   24.1410 H   0  0  0  0  0  0
  -20.5657  -26.2283   23.3605 H   0  0  0  0  0  0
  -21.6632  -26.7425   22.1215 H   0  0  0  0  0  0
  -19.6889  -25.6288   21.1246 H   0  0  0  0  0  0
  -19.6689  -27.3171   20.6728 H   0  0  0  0  0  0
  -17.4208  -26.6694   21.4019 H   0  0  0  0  0  0
  -18.0323  -26.0075   22.9026 H   0  0  0  0  0  0
  -19.7941  -30.7304   24.2175 H   0  0  0  0  0  0
  -17.5026  -31.6251   24.5188 H   0  0  0  0  0  0
  -15.5342  -30.2965   23.7695 H   0  0  0  0  0  0
  -15.8695  -28.0840   22.7003 H   0  0  0  0  0  0
  -24.5986  -30.6963   25.7779 H   0  0  0  0  0  0
  -24.8961  -32.2794   26.4907 H   0  0  0  0  0  0
  -25.8167  -30.8821   27.0196 H   0  0  0  0  0  0
  -26.2856  -29.6752   24.1187 H   0  0  0  0  0  0
  -27.4083  -29.7200   25.4574 H   0  0  0  0  0  0
  -27.8719  -30.4244   23.9262 H   0  0  0  0  0  0
  -27.2667  -33.3608   26.2037 H   0  0  0  0  0  0
  -28.3901  -32.6858   25.0309 H   0  0  0  0  0  0
  -28.0751  -31.8447   26.5422 H   0  0  0  0  0  0
  -28.2582  -38.0107   24.7552 H   0  0  0  0  0  0
  -28.1086  -36.2651   24.6249 H   0  0  0  0  0  0
  -27.2316  -37.1399   25.8875 H   0  0  0  0  0  0
  -20.9396  -29.8739   21.6873 H   0  0  0  0  0  0
  -26.0165  -38.2846   24.1441 H   0  0  0  0  0  0
  -29.0180  -18.0509   21.9733 H   0  0  0  0  0  0
  -31.0634  -15.7487   17.8171 H   0  0  0  0  0  0
  -28.5124  -16.8207   16.5354 H   0  0  0  0  0  0
  -29.2695  -21.7684   18.7698 H   0  0  0  0  0  0
  -27.6605  -21.1216   18.6221 H   0  0  0  0  0  0
  -29.6058  -20.9395   22.4468 H   0  0  0  0  0  0
  -30.4980  -21.6194   21.1245 H   0  0  0  0  0  0
  -26.7701  -22.9043   20.1074 H   0  0  0  0  0  0
  -27.6103  -23.5822   18.7414 H   0  0  0  0  0  0
  -29.5563  -23.4124   22.5658 H   0  0  0  0  0  0
  -27.9515  -22.7812   22.3767 H   0  0  0  0  0  0
  -27.6583  -20.5029   21.0271 H   0  0  0  0  0  0
  -29.6308  -23.9984   20.1356 H   0  0  0  0  0  0
  -30.6271  -14.7359   15.6279 H   0  0  0  0  0  0
  -29.8974  -15.9392   14.5640 H   0  0  0  0  0  0
  -28.9008  -14.6488   15.2625 H   0  0  0  0  0  0
  -28.6135  -25.5723   21.9541 H   0  0  0  0  0  0
  -27.0605  -25.1761   21.3252 H   0  0  0  0  0  0
  -28.9643  -15.3667   21.3107 H   0  0  0  0  0  0
  1 25  1  0  0  0
  1 30  2  0  0  0
  1 85  1  0  0  0
  2  3  1  0  0  0
  2 25  1  0  0  0
  2 87  1  0  0  0
  2 88  1  0  0  0
  3  4  1  0  0  0
  3 89  1  0  0  0
  3 90  1  0  0  0
  4  5  1  0  0  0
  4 91  1  0  0  0
  4 92  1  0  0  0
  5  6  1  0  0  0
  5 26  1  0  0  0
  5 93  1  0  0  0
  6 25  1  0  0  0
  6 94  1  0  0  0
  6 95  1  0  0  0
  7  8  2  0  0  0
  7 26  1  0  0  0
  7 29  1  0  0  0
  8  9  1  0  0  0
  8 22  1  0  0  0
  9 10  1  0  0  0
  9 27  2  0  0  0
 10 11  2  0  0  0
 10 15  1  0  0  0
 11 12  1  0  0  0
 11 96  1  0  0  0
 12 13  2  0  0  0
 12 97  1  0  0  0
 13 14  1  0  0  0
 13 31  1  0  0  0
 14 15  2  0  0  0
 14 98  1  0  0  0
 15 99  1  0  0  0
 16 17  2  0  0  0
 16 21  1  0  0  0
 16 31  1  0  0  0
 17 18  1  0  0  0
 17100  1  0  0  0
 18 19  2  0  0  0
 18101  1  0  0  0
 19 20  1  0  0  0
 19 24  1  0  0  0
 20 21  2  0  0  0
 20102  1  0  0  0
 21 23  1  0  0  0
 22 28  1  0  0  0
 22 32  2  0  0  0
 26 27  1  0  0  0
 28103  1  0  0  0
 28104  1  0  0  0
 29105  1  0  0  0
 29106  1  0  0  0
 33 34  1  0  0  0
 33 66  1  0  0  0
 33 70  2  0  0  0
 34 36  1  0  0  0
 34 59  1  0  0  0
 34107  1  0  0  0
 35 44  2  0  0  0
 35 45  1  0  0  0
 35 68  1  0  0  0
 36 56  1  0  0  0
 36108  1  0  0  0
 37 39  1  0  0  0
 37 47  1  0  0  0
 37 66  1  0  0  0
 37109  1  0  0  0
 38 43  2  0  0  0
 38 46  1  0  0  0
 38 47  1  0  0  0
 39 64  1  0  0  0
 39 67  2  0  0  0
 40 52  1  0  0  0
 40 53  2  0  0  0
 40 58  1  0  0  0
 41110  1  0  0  0
 41111  1  0  0  0
 41112  1  0  0  0
 41 48  1  0  0  0
 42 43  1  0  0  0
 42 66  1  0  0  0
 42113  1  0  0  0
 42114  1  0  0  0
 43 44  1  0  0  0
 44115  1  0  0  0
 45 46  2  0  0  0
 45116  1  0  0  0
 46117  1  0  0  0
 47118  1  0  0  0
 47119  1  0  0  0
 48 56  1  0  0  0
 48 65  1  0  0  0
 48120  1  0  0  0
 49 50  1  0  0  0
 49 53  1  0  0  0
 49 64  1  0  0  0
 49121  1  0  0  0
 50 51  1  0  0  0
 50122  1  0  0  0
 50123  1  0  0  0
 51 52  1  0  0  0
 51124  1  0  0  0
 51125  1  0  0  0
 52126  1  0  0  0
 52127  1  0  0  0
 53 54  1  0  0  0
 54 55  2  0  0  0
 54128  1  0  0  0
 55 57  1  0  0  0
 55129  1  0  0  0
 56 69  2  0  0  0
 57 58  2  0  0  0
 57130  1  0  0  0
 58131  1  0  0  0
 59 60  1  0  0  0
 59 61  1  0  0  0
 59 62  1  0  0  0
 60132  1  0  0  0
 60133  1  0  0  0
 60134  1  0  0  0
 61135  1  0  0  0
 61136  1  0  0  0
 61137  1  0  0  0
 62138  1  0  0  0
 62139  1  0  0  0
 62140  1  0  0  0
 63 65  1  0  0  0
 63141  1  0  0  0
 63142  1  0  0  0
 63143  1  0  0  0
 64144  1  0  0  0
 65145  1  0  0  0
 68 84  1  0  0  0
 71 72  1  0  0  0
 71 74  2  0  0  0
 71146  1  0  0  0
 72 73  2  0  0  0
 72 85  1  0  0  0
 73 75  1  0  0  0
 73 86  1  0  0  0
 74 86  1  0  0  0
 74 81  1  0  0  0
 75 76  2  0  0  0
 75147  1  0  0  0
 76 83  1  0  0  0
 76148  1  0  0  0
 77 79  1  0  0  0
 77 81  1  0  0  0
 77149  1  0  0  0
 77150  1  0  0  0
 78 80  1  0  0  0
 78 81  1  0  0  0
 78151  1  0  0  0
 78152  1  0  0  0
 79 82  1  0  0  0
 79153  1  0  0  0
 79154  1  0  0  0
 80 82  1  0  0  0
 80155  1  0  0  0
 80156  1  0  0  0
 81157  1  0  0  0
 82 84  1  0  0  0
 82158  1  0  0  0
 83159  1  0  0  0
 83160  1  0  0  0
 83161  1  0  0  0
 84162  1  0  0  0
 84163  1  0  0  0
 85164  1  0  0  0
M  ISO  4   1 100  68 101  84 101  85 100
M  END
> <chiral flag>
0

> <version>
0

> <s_m_source_file>
/data/baiqing/PycharmProjects/Reinvent-master-3.2/result/LINK_invent/BTK/process_docking_weight1_custom_product_contain_oxygen_bond_distance_aromatic_linkinvent_7_9_3/rearranged_h_0115.sdf

> <i_m_source_file_index>
37

> <r_mmod_Potential_Energy-OPLS-2005>
75.6858901977539

> <r_mmod_Stretch_Energy-OPLS-2005>
62.8244743347168

> <r_mmod_Bend_Energy-OPLS-2005>
130.48616027832

> <r_mmod_Torsional_Energy-OPLS-2005>
290.301025390625

> <r_mmod_Improper_Torsional_Energy-OPLS-2005>
6.32265043258667

> <r_mmod_Van_der_Waal_Energy-OPLS-2005>
115.42945098877

> <r_mmod_Electrostatic_Energy-OPLS-2005>
-372.495208740234

> <r_mmod_Solvation_Energy-OPLS-2005>
-196.695831298828

> <b_mmod_Minimization_Converged-OPLS-2005>
0

> <r_mmod_RMS_Derivative-OPLS-2005>
6.81210422515869

$$$$
37
                    3D
 Structure written by MMmdl.
163172  0  0  1  0            999 V2000
  -30.5991  -14.6618   20.5012 C   0  0  0  0  0  0
  -30.4496  -12.4110   19.4415 C   0  0  0  0  0  0
  -29.5112  -12.5156   18.2179 C   0  0  0  0  0  0
  -28.0333  -12.3510   18.6305 C   0  0  0  0  0  0
  -27.6542  -13.2159   19.8617 C   0  0  2  0  0  0
  -28.7024  -13.0614   20.9870 C   0  0  0  0  0  0
  -25.2564  -13.8164   20.5681 C   0  0  0  0  0  0
  -24.1832  -13.0424   20.9188 C   0  0  0  0  0  0
  -24.6400  -11.6894   20.8730 C   0  0  0  0  0  0
  -23.9069  -10.4281   21.0404 C   0  0  0  0  0  0
  -24.3621   -9.4197   21.9182 C   0  0  0  0  0  0
  -23.6291   -8.2240   22.0754 C   0  0  0  0  0  0
  -22.4272   -8.0280   21.3551 C   0  0  0  0  0  0
  -21.9908   -9.0248   20.4646 C   0  0  0  0  0  0
  -22.7240  -10.2125   20.3050 C   0  0  0  0  0  0
  -21.6850   -6.0728   22.5277 C   0  0  0  0  0  0
  -21.4012   -6.5632   23.8209 C   0  0  0  0  0  0
  -21.3657   -5.6788   24.9171 C   0  0  0  0  0  0
  -21.6047   -4.3051   24.7225 C   0  0  0  0  0  0
  -21.8820   -3.8141   23.4347 C   0  0  0  0  0  0
  -21.9190   -4.6955   22.3403 C   0  0  0  0  0  0
  -22.7852  -13.5221   21.1853 C   0  0  0  0  0  0
  -22.1659   -4.2139   21.0983 F   0  0  0  0  0  0
  -21.5627   -3.4538   25.7741 F   0  0  0  0  0  0
  -30.0150  -13.4230   20.4249 N   0  0  0  0  0  0
  -26.2996  -12.9345   20.3305 N   0  0  0  0  0  0
  -25.9336  -11.6500   20.5740 N   0  0  0  0  0  0
  -22.0483  -12.8215   22.0406 N   0  0  0  0  0  0
  -25.4227  -15.1895   20.4117 N   0  0  0  0  0  0
  -31.7663  -14.8514   20.1445 O   0  0  0  0  0  0
  -21.6635   -6.8877   21.4244 O   0  0  0  0  0  0
  -22.3532  -14.5526   20.6701 O   0  0  0  0  0  0
  -24.6277  -31.8581   23.2009 C   0  0  0  0  0  0
  -25.9122  -32.4765   23.8333 C   0  0  1  0  0  0
  -27.2281  -27.3119   20.1112 C   0  0  0  0  0  0
  -25.5937  -33.8562   24.2265 N   0  0  0  0  0  0
  -23.4213  -30.4814   21.5433 C   0  0  2  0  0  0
  -24.8684  -28.9337   20.1101 C   0  0  0  0  0  0
  -22.7486  -29.4611   22.4925 C   0  0  0  0  0  0
  -18.0289  -28.1377   22.8466 C   0  0  0  0  0  0
  -24.1498  -36.7282   23.2645 C   0  0  0  0  0  0
  -25.9642  -30.7861   21.3742 C   0  0  0  0  0  0
  -26.0369  -29.4143   20.7136 C   0  0  0  0  0  0
  -27.2189  -28.6141   20.7015 C   0  0  0  0  0  0
  -26.0333  -26.8821   19.4900 C   0  0  0  0  0  0
  -24.8687  -27.6738   19.4906 C   0  0  0  0  0  0
  -23.6360  -29.8145   20.1593 C   0  0  0  0  0  0
  -25.4119  -36.3071   24.0339 C   0  0  1  0  0  0
  -20.5893  -28.3668   23.1280 C   0  0  2  0  0  0
  -20.6780  -26.9387   22.5412 C   0  0  0  0  0  0
  -19.5758  -26.6371   21.5206 C   0  0  0  0  0  0
  -18.1930  -26.7913   22.1614 C   0  0  0  0  0  0
  -19.1547  -28.8839   23.2864 C   0  0  0  0  0  0
  -18.9472  -30.1438   23.8882 C   0  0  0  0  0  0
  -17.6470  -30.6572   24.0547 C   0  0  0  0  0  0
  -25.9061  -34.9443   23.5109 C   0  0  0  0  0  0
  -16.5353  -29.9067   23.6338 C   0  0  0  0  0  0
  -16.7279  -28.6500   23.0336 C   0  0  0  0  0  0
  -26.4497  -31.6578   25.0707 C   0  0  0  0  0  0
  -25.3723  -31.3733   26.1427 C   0  0  0  0  0  0
  -27.0347  -30.3003   24.6169 C   0  0  0  0  0  0
  -27.6053  -32.4323   25.7482 C   0  0  0  0  0  0
  -27.5579  -37.1791   24.8467 C   0  0  0  0  0  0
  -21.4198  -29.3021   22.3679 N   0  0  0  0  0  0
  -26.4290  -37.3766   23.9419 N   0  0  0  0  0  0
  -24.6900  -31.0588   22.0963 N   0  0  0  0  0  0
  -23.4207  -28.8146   23.3004 O   0  0  0  0  0  0
  -28.3578  -26.4764   20.1560 O   0  0  0  0  0  0
  -26.5616  -34.8916   22.4661 O   0  0  0  0  0  0
  -23.5442  -32.1385   23.7344 O   0  0  0  0  0  0
  -30.7838  -18.0062   21.1175 C   0  0  0  0  0  0
  -28.4371  -19.1713   20.1456 C   0  0  0  0  0  0
  -30.6307  -19.4446   21.1490 C   0  0  0  0  0  0
  -29.4239  -20.0620   20.6452 C   0  0  0  0  0  0
  -29.7646  -17.1334   20.6545 C   0  0  0  0  0  0
  -28.5959  -17.7585   20.1583 C   0  0  0  0  0  0
  -31.1053  -23.4622   18.6951 C   0  0  0  0  0  0
  -30.4256  -22.3586   19.0032 C   0  0  0  0  0  0
  -31.7297  -20.2572   21.7847 C   0  0  0  0  0  0
  -29.0455  -21.5388   20.7781 C   0  0  0  0  0  0
  -30.6788  -24.6547   19.5029 C   0  0  0  0  0  0
  -29.4883  -24.1140   20.3323 C   0  0  1  0  0  0
  -32.8528  -19.5124   22.5020 C   0  0  0  0  0  0
  -28.2087  -25.0050   19.9783 C   0  0  0  0  0  0
  -29.5214  -22.5985   20.0252 N   0  0  0  0  0  0
  -29.7397  -15.6785   20.8177 N   0  0  0  0  0  0
  -28.1626  -21.8182   21.7345 N   0  3  0  0  0  0
  -31.7759  -21.4884   21.7917 O   0  0  0  0  0  0
  -27.5804  -16.9761   19.7176 F   0  0  0  0  0  0
  -31.4866  -12.5595   19.1355 H   0  0  0  0  0  0
  -30.4053  -11.4117   19.8781 H   0  0  0  0  0  0
  -29.7761  -11.7626   17.4750 H   0  0  0  0  0  0
  -29.6502  -13.4826   17.7309 H   0  0  0  0  0  0
  -27.8698  -11.2966   18.8570 H   0  0  0  0  0  0
  -27.3783  -12.5856   17.7893 H   0  0  0  0  0  0
  -27.6682  -14.2519   19.5233 H   0  0  0  0  0  0
  -28.7201  -12.0331   21.3513 H   0  0  0  0  0  0
  -28.4468  -13.6759   21.8513 H   0  0  0  0  0  0
  -25.2763   -9.5660   22.4752 H   0  0  0  0  0  0
  -23.9984   -7.4629   22.7478 H   0  0  0  0  0  0
  -21.0838   -8.8781   19.8956 H   0  0  0  0  0  0
  -22.3715  -10.9664   19.6156 H   0  0  0  0  0  0
  -21.2008   -7.6140   23.9711 H   0  0  0  0  0  0
  -21.1476   -6.0517   25.9075 H   0  0  0  0  0  0
  -22.0603   -2.7602   23.2855 H   0  0  0  0  0  0
  -22.4086  -11.9875   22.4806 H   0  0  0  0  0  0
  -21.1093  -13.1239   22.2586 H   0  0  0  0  0  0
  -24.6485  -15.8336   20.5229 H   0  0  0  0  0  0
  -26.2608  -15.6478   20.0694 H   0  0  0  0  0  0
  -26.7170  -32.5431   23.1071 H   0  0  0  0  0  0
  -25.0100  -33.9692   25.0417 H   0  0  0  0  0  0
  -22.7150  -31.3026   21.3980 H   0  0  0  0  0  0
  -23.3766  -35.9606   23.3306 H   0  0  0  0  0  0
  -24.3588  -36.8892   22.2059 H   0  0  0  0  0  0
  -23.7246  -37.6481   23.6659 H   0  0  0  0  0  0
  -26.1007  -31.5527   20.6102 H   0  0  0  0  0  0
  -26.8436  -30.8288   22.0065 H   0  0  0  0  0  0
  -28.1174  -28.9761   21.1813 H   0  0  0  0  0  0
  -25.9725  -25.9193   19.0051 H   0  0  0  0  0  0
  -23.9725  -27.2994   19.0160 H   0  0  0  0  0  0
  -23.7532  -30.5909   19.4022 H   0  0  0  0  0  0
  -22.7563  -29.2442   19.8563 H   0  0  0  0  0  0
  -25.1298  -36.1920   25.0829 H   0  0  0  0  0  0
  -20.9974  -28.3232   24.1409 H   0  0  0  0  0  0
  -20.5687  -26.2259   23.3599 H   0  0  0  0  0  0
  -21.6644  -26.7416   22.1189 H   0  0  0  0  0  0
  -19.6924  -25.6289   21.1221 H   0  0  0  0  0  0
  -19.6717  -27.3197   20.6740 H   0  0  0  0  0  0
  -17.4206  -26.6670   21.4010 H   0  0  0  0  0  0
  -18.0321  -26.0062   22.9020 H   0  0  0  0  0  0
  -19.7954  -30.7260   24.2247 H   0  0  0  0  0  0
  -17.5026  -31.6256   24.5143 H   0  0  0  0  0  0
  -15.5355  -30.2957   23.7676 H   0  0  0  0  0  0
  -15.8679  -28.0813   22.7048 H   0  0  0  0  0  0
  -24.5903  -30.7084   25.7748 H   0  0  0  0  0  0
  -24.8918  -32.2909   26.4828 H   0  0  0  0  0  0
  -25.8029  -30.8920   27.0217 H   0  0  0  0  0  0
  -26.2915  -29.6755   24.1205 H   0  0  0  0  0  0
  -27.4059  -29.7261   25.4664 H   0  0  0  0  0  0
  -27.8782  -30.4294   23.9384 H   0  0  0  0  0  0
  -27.2650  -33.3630   26.2045 H   0  0  0  0  0  0
  -28.3871  -32.6877   25.0314 H   0  0  0  0  0  0
  -28.0717  -31.8468   26.5416 H   0  0  0  0  0  0
  -28.2581  -38.0097   24.7501 H   0  0  0  0  0  0
  -28.1087  -36.2624   24.6305 H   0  0  0  0  0  0
  -27.2295  -37.1448   25.8866 H   0  0  0  0  0  0
  -20.9384  -29.8743   21.6888 H   0  0  0  0  0  0
  -26.0181  -38.2847   24.1402 H   0  0  0  0  0  0
  -31.6671  -17.5361   21.5229 H   0  0  0  0  0  0
  -27.5023  -19.5736   19.7818 H   0  0  0  0  0  0
  -31.8785  -23.5233   17.9430 H   0  0  0  0  0  0
  -30.5199  -21.3707   18.5690 H   0  0  0  0  0  0
  -30.3951  -25.4642   18.8302 H   0  0  0  0  0  0
  -31.4942  -25.0040   20.1363 H   0  0  0  0  0  0
  -29.7140  -24.2449   21.3921 H   0  0  0  0  0  0
  -32.4447  -18.8433   23.2591 H   0  0  0  0  0  0
  -33.5160  -20.2202   22.9995 H   0  0  0  0  0  0
  -33.4448  -18.9355   21.7932 H   0  0  0  0  0  0
  -27.3747  -24.6639   20.5931 H   0  0  0  0  0  0
  -27.9298  -24.8045   18.9431 H   0  0  0  0  0  0
  -28.8110  -15.3259   20.9832 H   0  0  0  0  0  0
  -27.8070  -21.0668   22.3051 H   0  0  0  0  0  0
  -27.8279  -22.7484   21.9074 H   0  0  0  0  0  0
  1 25  1  0  0  0
  1 30  2  0  0  0
  1 86  1  0  0  0
  2  3  1  0  0  0
  2 25  1  0  0  0
  2 90  1  0  0  0
  2 91  1  0  0  0
  3  4  1  0  0  0
  3 92  1  0  0  0
  3 93  1  0  0  0
  4  5  1  0  0  0
  4 94  1  0  0  0
  4 95  1  0  0  0
  5  6  1  0  0  0
  5 26  1  0  0  0
  5 96  1  0  0  0
  6 25  1  0  0  0
  6 97  1  0  0  0
  6 98  1  0  0  0
  7  8  2  0  0  0
  7 26  1  0  0  0
  7 29  1  0  0  0
  8  9  1  0  0  0
  8 22  1  0  0  0
  9 10  1  0  0  0
  9 27  2  0  0  0
 10 11  2  0  0  0
 10 15  1  0  0  0
 11 12  1  0  0  0
 11 99  1  0  0  0
 12 13  2  0  0  0
 12100  1  0  0  0
 13 14  1  0  0  0
 13 31  1  0  0  0
 14 15  2  0  0  0
 14101  1  0  0  0
 15102  1  0  0  0
 16 17  2  0  0  0
 16 21  1  0  0  0
 16 31  1  0  0  0
 17 18  1  0  0  0
 17103  1  0  0  0
 18 19  2  0  0  0
 18104  1  0  0  0
 19 20  1  0  0  0
 19 24  1  0  0  0
 20 21  2  0  0  0
 20105  1  0  0  0
 21 23  1  0  0  0
 22 28  1  0  0  0
 22 32  2  0  0  0
 26 27  1  0  0  0
 28106  1  0  0  0
 28107  1  0  0  0
 29108  1  0  0  0
 29109  1  0  0  0
 33 34  1  0  0  0
 33 66  1  0  0  0
 33 70  2  0  0  0
 34 36  1  0  0  0
 34 59  1  0  0  0
 34110  1  0  0  0
 35 44  2  0  0  0
 35 45  1  0  0  0
 35 68  1  0  0  0
 36 56  1  0  0  0
 36111  1  0  0  0
 37 39  1  0  0  0
 37 47  1  0  0  0
 37 66  1  0  0  0
 37112  1  0  0  0
 38 43  2  0  0  0
 38 46  1  0  0  0
 38 47  1  0  0  0
 39 64  1  0  0  0
 39 67  2  0  0  0
 40 52  1  0  0  0
 40 53  2  0  0  0
 40 58  1  0  0  0
 41113  1  0  0  0
 41114  1  0  0  0
 41115  1  0  0  0
 41 48  1  0  0  0
 42 43  1  0  0  0
 42 66  1  0  0  0
 42116  1  0  0  0
 42117  1  0  0  0
 43 44  1  0  0  0
 44118  1  0  0  0
 45 46  2  0  0  0
 45119  1  0  0  0
 46120  1  0  0  0
 47121  1  0  0  0
 47122  1  0  0  0
 48 56  1  0  0  0
 48 65  1  0  0  0
 48123  1  0  0  0
 49 50  1  0  0  0
 49 53  1  0  0  0
 49 64  1  0  0  0
 49124  1  0  0  0
 50 51  1  0  0  0
 50125  1  0  0  0
 50126  1  0  0  0
 51 52  1  0  0  0
 51127  1  0  0  0
 51128  1  0  0  0
 52129  1  0  0  0
 52130  1  0  0  0
 53 54  1  0  0  0
 54 55  2  0  0  0
 54131  1  0  0  0
 55 57  1  0  0  0
 55132  1  0  0  0
 56 69  2  0  0  0
 57 58  2  0  0  0
 57133  1  0  0  0
 58134  1  0  0  0
 59 60  1  0  0  0
 59 61  1  0  0  0
 59 62  1  0  0  0
 60135  1  0  0  0
 60136  1  0  0  0
 60137  1  0  0  0
 61138  1  0  0  0
 61139  1  0  0  0
 61140  1  0  0  0
 62141  1  0  0  0
 62142  1  0  0  0
 62143  1  0  0  0
 63 65  1  0  0  0
 63144  1  0  0  0
 63145  1  0  0  0
 63146  1  0  0  0
 64147  1  0  0  0
 65148  1  0  0  0
 68 84  1  0  0  0
 71 73  2  0  0  0
 71 75  1  0  0  0
 71149  1  0  0  0
 72 74  2  0  0  0
 72 76  1  0  0  0
 72150  1  0  0  0
 73 74  1  0  0  0
 73 79  1  0  0  0
 74 80  1  0  0  0
 75 76  2  0  0  0
 75 86  1  0  0  0
 76 89  1  0  0  0
 77 78  2  0  0  0
 77 81  1  0  0  0
 77151  1  0  0  0
 78 85  1  0  0  0
 78152  1  0  0  0
 79 83  1  0  0  0
 79 88  2  0  0  0
 80 85  1  0  0  0
 80 87  2  0  0  0
 81 82  1  0  0  0
 81153  1  0  0  0
 81154  1  0  0  0
 82 84  1  0  0  0
 82 85  1  0  0  0
 82155  1  0  0  0
 83156  1  0  0  0
 83157  1  0  0  0
 83158  1  0  0  0
 84159  1  0  0  0
 84160  1  0  0  0
 86161  1  0  0  0
 87162  1  0  0  0
 87163  1  0  0  0
M  CHG  1  87   1
M  ISO  4   1 100  68 101  84 101  86 100
M  END
> <chiral flag>
0

> <version>
0

> <s_m_source_file>
/data/baiqing/PycharmProjects/Reinvent-master-3.2/result/LINK_invent/BTK/process_docking_weight1_custom_product_contain_oxygen_bond_distance_aromatic_linkinvent_7_9_3/rearranged_h_0115.sdf

> <i_m_source_file_index>
38

> <r_mmod_Potential_Energy-OPLS-2005>
-152.143035888672

> <r_mmod_Stretch_Energy-OPLS-2005>
96.693473815918

> <r_mmod_Bend_Energy-OPLS-2005>
207.099563598633

> <r_mmod_Torsional_Energy-OPLS-2005>
264.917541503906

> <r_mmod_Improper_Torsional_Energy-OPLS-2005>
7.65221548080444

> <r_mmod_Van_der_Waal_Energy-OPLS-2005>
148.696655273438

> <r_mmod_Electrostatic_Energy-OPLS-2005>
-528.870239257812

> <r_mmod_Solvation_Energy-OPLS-2005>
-401.725799560547

> <b_mmod_Minimization_Converged-OPLS-2005>
0

> <r_mmod_RMS_Derivative-OPLS-2005>
1.86152279376984

$$$$
38
                    3D
 Structure written by MMmdl.
157165  0  0  1  0            999 V2000
  -30.6164  -14.7744   20.3426 C   0  0  0  0  0  0
  -30.4235  -12.4569   19.4446 C   0  0  0  0  0  0
  -29.4798  -12.4515   18.2234 C   0  0  0  0  0  0
  -28.0210  -12.2144   18.6651 C   0  0  0  0  0  0
  -27.6054  -13.1514   19.8241 C   0  0  2  0  0  0
  -28.6733  -13.2307   20.9415 C   0  0  0  0  0  0
  -25.2453  -13.7931   20.5735 C   0  0  0  0  0  0
  -24.1679  -13.0278   20.9302 C   0  0  0  0  0  0
  -24.6213  -11.6759   20.8883 C   0  0  0  0  0  0
  -23.8929  -10.4183   21.0520 C   0  0  0  0  0  0
  -24.3531   -9.4096   21.9250 C   0  0  0  0  0  0
  -23.6212   -8.2121   22.0769 C   0  0  0  0  0  0
  -22.4197   -8.0190   21.3548 C   0  0  0  0  0  0
  -21.9849   -9.0167   20.4666 C   0  0  0  0  0  0
  -22.7158  -10.2051   20.3115 C   0  0  0  0  0  0
  -21.6806   -6.0673   22.5264 C   0  0  0  0  0  0
  -21.3986   -6.5601   23.8193 C   0  0  0  0  0  0
  -21.3651   -5.6778   24.9162 C   0  0  0  0  0  0
  -21.6057   -4.3032   24.7235 C   0  0  0  0  0  0
  -21.8825   -3.8111   23.4349 C   0  0  0  0  0  0
  -21.9191   -4.6909   22.3398 C   0  0  0  0  0  0
  -22.7750  -13.5150   21.1959 C   0  0  0  0  0  0
  -22.1632   -4.2094   21.0977 F   0  0  0  0  0  0
  -21.5664   -3.4534   25.7759 F   0  0  0  0  0  0
  -29.9775  -13.5476   20.3359 N   0  0  0  0  0  0
  -26.2749  -12.8940   20.3363 N   0  0  0  0  0  0
  -25.9091  -11.6188   20.5899 N   0  0  0  0  0  0
  -22.0410  -12.8149   22.0557 N   0  0  0  0  0  0
  -25.4217  -15.1628   20.4016 N   0  0  0  0  0  0
  -31.8442  -14.8280   20.2375 O   0  0  0  0  0  0
  -21.6567   -6.8787   21.4229 O   0  0  0  0  0  0
  -22.3479  -14.5466   20.6781 O   0  0  0  0  0  0
  -24.6240  -31.8587   23.2048 C   0  0  0  0  0  0
  -25.9090  -32.4778   23.8373 C   0  0  1  0  0  0
  -27.2300  -27.3190   20.1397 C   0  0  0  0  0  0
  -25.5907  -33.8570   24.2315 N   0  0  0  0  0  0
  -23.4182  -30.4847   21.5441 C   0  0  2  0  0  0
  -24.8691  -28.9305   20.1206 C   0  0  0  0  0  0
  -22.7443  -29.4656   22.4922 C   0  0  0  0  0  0
  -18.0304  -28.1349   22.8548 C   0  0  0  0  0  0
  -24.1482  -36.7285   23.2649 C   0  0  0  0  0  0
  -25.9588  -30.7964   21.3723 C   0  0  0  0  0  0
  -26.0372  -29.4206   20.7195 C   0  0  0  0  0  0
  -27.2212  -28.6274   20.7136 C   0  0  0  0  0  0
  -26.0400  -26.8720   19.5253 C   0  0  0  0  0  0
  -24.8701  -27.6596   19.5209 C   0  0  0  0  0  0
  -23.6366  -29.8113   20.1635 C   0  0  0  0  0  0
  -25.4116  -36.3091   24.0350 C   0  0  1  0  0  0
  -20.5879  -28.3712   23.1272 C   0  0  2  0  0  0
  -20.6821  -26.9472   22.5328 C   0  0  0  0  0  0
  -19.5741  -26.6400   21.5198 C   0  0  0  0  0  0
  -18.1986  -26.7854   22.1760 C   0  0  0  0  0  0
  -19.1533  -28.8868   23.2892 C   0  0  0  0  0  0
  -18.9438  -30.1471   23.8886 C   0  0  0  0  0  0
  -17.6424  -30.6575   24.0543 C   0  0  0  0  0  0
  -25.9041  -34.9458   23.5140 C   0  0  0  0  0  0
  -16.5323  -29.9040   23.6339 C   0  0  0  0  0  0
  -16.7293  -28.6440   23.0398 C   0  0  0  0  0  0
  -26.4493  -31.6578   25.0724 C   0  0  0  0  0  0
  -25.3740  -31.3679   26.1451 C   0  0  0  0  0  0
  -27.0373  -30.3028   24.6170 C   0  0  0  0  0  0
  -27.6067  -32.4305   25.7491 C   0  0  0  0  0  0
  -27.5583  -37.1804   24.8475 C   0  0  0  0  0  0
  -21.4145  -29.3096   22.3689 N   0  0  0  0  0  0
  -26.4299  -37.3788   23.9408 N   0  0  0  0  0  0
  -24.6859  -31.0624   22.0988 N   0  0  0  0  0  0
  -23.4180  -28.8164   23.2975 O   0  0  0  0  0  0
  -28.3591  -26.4905   20.1403 O   0  0  0  0  0  0
  -26.5600  -34.8908   22.4701 O   0  0  0  0  0  0
  -23.5394  -32.1362   23.7392 O   0  0  0  0  0  0
  -30.9951  -17.7075   21.5115 C   0  0  0  0  0  0
  -30.7709  -20.1528   21.5126 C   0  0  0  0  0  0
  -30.0934  -17.5543   20.4372 C   0  0  0  0  0  0
  -29.5155  -18.8101   19.9124 C   0  0  0  0  0  0
  -29.8468  -20.1260   20.4453 C   0  0  0  0  0  0
  -31.3293  -18.9704   22.0291 C   0  0  0  0  0  0
  -29.2306  -22.5268   20.4738 C   0  0  0  0  0  0
  -29.7594  -16.0930   19.9739 C   0  0  0  0  0  0
  -27.0597  -18.5263   19.2842 C   0  0  0  0  0  0
  -28.4831  -18.8085   18.7717 C   0  0  0  0  0  0
  -28.8642  -23.9032   19.7698 C   0  0  0  0  0  0
  -28.2342  -25.0928   20.6307 C   0  0  0  0  0  0
  -28.7985  -15.9596   19.1770 N   0  0  0  0  0  0
  -29.3376  -21.3652   19.8798 N   0  0  0  0  0  0
  -32.2065  -19.0496   23.0552 F   0  0  0  0  0  0
  -31.4539  -12.5993   19.1160 H   0  0  0  0  0  0
  -30.3896  -11.5005   19.9690 H   0  0  0  0  0  0
  -29.7795  -11.6793   17.5142 H   0  0  0  0  0  0
  -29.5482  -13.4023   17.6913 H   0  0  0  0  0  0
  -27.9233  -11.1721   18.9765 H   0  0  0  0  0  0
  -27.3431  -12.3382   17.8173 H   0  0  0  0  0  0
  -27.4860  -14.0904   19.3222 H   0  0  0  0  0  0
  -28.7309  -12.2887   21.4864 H   0  0  0  0  0  0
  -28.3906  -13.9967   21.6665 H   0  0  0  0  0  0
  -25.2698   -9.5525   22.4814 H   0  0  0  0  0  0
  -23.9942   -7.4489   22.7442 H   0  0  0  0  0  0
  -21.0813   -8.8669   19.8946 H   0  0  0  0  0  0
  -22.3658  -10.9587   19.6202 H   0  0  0  0  0  0
  -21.1942   -7.6113   23.9666 H   0  0  0  0  0  0
  -21.1478   -6.0515   25.9065 H   0  0  0  0  0  0
  -22.0630   -2.7579   23.2878 H   0  0  0  0  0  0
  -22.4049  -11.9807   22.4921 H   0  0  0  0  0  0
  -21.1011  -13.1135   22.2761 H   0  0  0  0  0  0
  -24.6470  -15.8153   20.4489 H   0  0  0  0  0  0
  -26.2829  -15.5852   20.0733 H   0  0  0  0  0  0
  -26.7158  -32.5456   23.1129 H   0  0  0  0  0  0
  -25.0057  -33.9722   25.0461 H   0  0  0  0  0  0
  -22.7117  -31.3055   21.3953 H   0  0  0  0  0  0
  -23.3759  -35.9599   23.3322 H   0  0  0  0  0  0
  -24.3583  -36.8884   22.2060 H   0  0  0  0  0  0
  -23.7213  -37.6486   23.6654 H   0  0  0  0  0  0
  -26.0839  -31.5611   20.6040 H   0  0  0  0  0  0
  -26.8384  -30.8489   22.0024 H   0  0  0  0  0  0
  -28.1196  -28.9985   21.1890 H   0  0  0  0  0  0
  -26.0097  -25.8997   19.0538 H   0  0  0  0  0  0
  -23.9678  -27.2754   19.0650 H   0  0  0  0  0  0
  -23.7570  -30.5813   19.4013 H   0  0  0  0  0  0
  -22.7581  -29.2414   19.8605 H   0  0  0  0  0  0
  -25.1298  -36.1965   25.0847 H   0  0  0  0  0  0
  -21.0000  -28.3243   24.1379 H   0  0  0  0  0  0
  -20.5888  -26.2318   23.3507 H   0  0  0  0  0  0
  -21.6675  -26.7671   22.1020 H   0  0  0  0  0  0
  -19.6905  -25.6302   21.1218 H   0  0  0  0  0  0
  -19.6552  -27.3228   20.6723 H   0  0  0  0  0  0
  -17.4130  -26.6440   21.4305 H   0  0  0  0  0  0
  -18.0603  -26.0022   22.9235 H   0  0  0  0  0  0
  -19.7907  -30.7328   24.2186 H   0  0  0  0  0  0
  -17.4988  -31.6278   24.5090 H   0  0  0  0  0  0
  -15.5318  -30.2917   23.7685 H   0  0  0  0  0  0
  -15.8710  -28.0714   22.7121 H   0  0  0  0  0  0
  -24.5901  -30.7064   25.7748 H   0  0  0  0  0  0
  -24.8936  -32.2819   26.4947 H   0  0  0  0  0  0
  -25.8048  -30.8782   27.0189 H   0  0  0  0  0  0
  -26.2954  -29.6751   24.1215 H   0  0  0  0  0  0
  -27.4129  -29.7318   25.4671 H   0  0  0  0  0  0
  -27.8787  -30.4378   23.9372 H   0  0  0  0  0  0
  -27.2718  -33.3612   26.2095 H   0  0  0  0  0  0
  -28.3861  -32.6857   25.0294 H   0  0  0  0  0  0
  -28.0760  -31.8403   26.5381 H   0  0  0  0  0  0
  -28.2622  -38.0082   24.7512 H   0  0  0  0  0  0
  -28.1056  -36.2618   24.6320 H   0  0  0  0  0  0
  -27.2286  -37.1467   25.8872 H   0  0  0  0  0  0
  -20.9270  -29.8869   21.6987 H   0  0  0  0  0  0
  -26.0190  -38.2861   24.1412 H   0  0  0  0  0  0
  -31.4423  -16.8410   21.9733 H   0  0  0  0  0  0
  -31.0953  -21.0859   21.9465 H   0  0  0  0  0  0
  -29.4340  -22.6358   21.5428 H   0  0  0  0  0  0
  -26.9878  -17.5953   19.8425 H   0  0  0  0  0  0
  -26.3542  -18.4758   18.4550 H   0  0  0  0  0  0
  -26.7312  -19.3112   19.9640 H   0  0  0  0  0  0
  -28.7829  -18.1258   17.9802 H   0  0  0  0  0  0
  -28.4578  -19.7638   18.2455 H   0  0  0  0  0  0
  -28.1973  -23.6930   18.9327 H   0  0  0  0  0  0
  -29.7836  -24.2756   19.3176 H   0  0  0  0  0  0
  -28.7201  -25.0826   21.6069 H   0  0  0  0  0  0
  -27.1919  -24.8511   20.8469 H   0  0  0  0  0  0
  -28.3633  -16.8577   18.9942 H   0  0  0  0  0  0
  1 25  1  0  0  0
  1 30  2  0  0  0
  1 78  1  0  0  0
  2  3  1  0  0  0
  2 25  1  0  0  0
  2 86  1  0  0  0
  2 87  1  0  0  0
  3  4  1  0  0  0
  3 88  1  0  0  0
  3 89  1  0  0  0
  4  5  1  0  0  0
  4 90  1  0  0  0
  4 91  1  0  0  0
  5  6  1  0  0  0
  5 26  1  0  0  0
  5 92  1  0  0  0
  6 25  1  0  0  0
  6 93  1  0  0  0
  6 94  1  0  0  0
  7  8  2  0  0  0
  7 26  1  0  0  0
  7 29  1  0  0  0
  8  9  1  0  0  0
  8 22  1  0  0  0
  9 10  1  0  0  0
  9 27  2  0  0  0
 10 11  2  0  0  0
 10 15  1  0  0  0
 11 12  1  0  0  0
 11 95  1  0  0  0
 12 13  2  0  0  0
 12 96  1  0  0  0
 13 14  1  0  0  0
 13 31  1  0  0  0
 14 15  2  0  0  0
 14 97  1  0  0  0
 15 98  1  0  0  0
 16 17  2  0  0  0
 16 21  1  0  0  0
 16 31  1  0  0  0
 17 18  1  0  0  0
 17 99  1  0  0  0
 18 19  2  0  0  0
 18100  1  0  0  0
 19 20  1  0  0  0
 19 24  1  0  0  0
 20 21  2  0  0  0
 20101  1  0  0  0
 21 23  1  0  0  0
 22 28  1  0  0  0
 22 32  2  0  0  0
 26 27  1  0  0  0
 28102  1  0  0  0
 28103  1  0  0  0
 29104  1  0  0  0
 29105  1  0  0  0
 33 34  1  0  0  0
 33 66  1  0  0  0
 33 70  2  0  0  0
 34 36  1  0  0  0
 34 59  1  0  0  0
 34106  1  0  0  0
 35 44  2  0  0  0
 35 45  1  0  0  0
 35 68  1  0  0  0
 36 56  1  0  0  0
 36107  1  0  0  0
 37 39  1  0  0  0
 37 47  1  0  0  0
 37 66  1  0  0  0
 37108  1  0  0  0
 38 43  2  0  0  0
 38 46  1  0  0  0
 38 47  1  0  0  0
 39 64  1  0  0  0
 39 67  2  0  0  0
 40 52  1  0  0  0
 40 53  2  0  0  0
 40 58  1  0  0  0
 41109  1  0  0  0
 41110  1  0  0  0
 41111  1  0  0  0
 41 48  1  0  0  0
 42 43  1  0  0  0
 42 66  1  0  0  0
 42112  1  0  0  0
 42113  1  0  0  0
 43 44  1  0  0  0
 44114  1  0  0  0
 45 46  2  0  0  0
 45115  1  0  0  0
 46116  1  0  0  0
 47117  1  0  0  0
 47118  1  0  0  0
 48 56  1  0  0  0
 48 65  1  0  0  0
 48119  1  0  0  0
 49 50  1  0  0  0
 49 53  1  0  0  0
 49 64  1  0  0  0
 49120  1  0  0  0
 50 51  1  0  0  0
 50121  1  0  0  0
 50122  1  0  0  0
 51 52  1  0  0  0
 51123  1  0  0  0
 51124  1  0  0  0
 52125  1  0  0  0
 52126  1  0  0  0
 53 54  1  0  0  0
 54 55  2  0  0  0
 54127  1  0  0  0
 55 57  1  0  0  0
 55128  1  0  0  0
 56 69  2  0  0  0
 57 58  2  0  0  0
 57129  1  0  0  0
 58130  1  0  0  0
 59 60  1  0  0  0
 59 61  1  0  0  0
 59 62  1  0  0  0
 60131  1  0  0  0
 60132  1  0  0  0
 60133  1  0  0  0
 61134  1  0  0  0
 61135  1  0  0  0
 61136  1  0  0  0
 62137  1  0  0  0
 62138  1  0  0  0
 62139  1  0  0  0
 63 65  1  0  0  0
 63140  1  0  0  0
 63141  1  0  0  0
 63142  1  0  0  0
 64143  1  0  0  0
 65144  1  0  0  0
 68 82  1  0  0  0
 71 73  2  0  0  0
 71 76  1  0  0  0
 71145  1  0  0  0
 72 75  1  0  0  0
 72 76  2  0  0  0
 72146  1  0  0  0
 73 74  1  0  0  0
 73 78  1  0  0  0
 74 75  2  0  0  0
 74 80  1  0  0  0
 75 84  1  0  0  0
 76 85  1  0  0  0
 77 81  1  0  0  0
 77 84  2  0  0  0
 77147  1  0  0  0
 78 83  2  0  0  0
 79 80  1  0  0  0
 79148  1  0  0  0
 79149  1  0  0  0
 79150  1  0  0  0
 80151  1  0  0  0
 80152  1  0  0  0
 81 82  1  0  0  0
 81153  1  0  0  0
 81154  1  0  0  0
 82155  1  0  0  0
 82156  1  0  0  0
 83157  1  0  0  0
M  ISO  4   1 100  68 101  78 100  82 101
M  END
> <chiral flag>
0

> <version>
0

> <s_m_source_file>
/data/baiqing/PycharmProjects/Reinvent-master-3.2/result/LINK_invent/BTK/process_docking_weight1_custom_product_contain_oxygen_bond_distance_aromatic_linkinvent_7_9_3/rearranged_h_0115.sdf

> <i_m_source_file_index>
39

> <r_mmod_Potential_Energy-OPLS-2005>
339.728820800781

> <r_mmod_Stretch_Energy-OPLS-2005>
124.630821228027

> <r_mmod_Bend_Energy-OPLS-2005>
163.610382080078

> <r_mmod_Torsional_Energy-OPLS-2005>
237.871215820312

> <r_mmod_Improper_Torsional_Energy-OPLS-2005>
14.0069437026978

> <r_mmod_Van_der_Waal_Energy-OPLS-2005>
171.754333496094

> <r_mmod_Electrostatic_Energy-OPLS-2005>
-273.706512451172

> <r_mmod_Solvation_Energy-OPLS-2005>
-190.03483581543

> <b_mmod_Minimization_Converged-OPLS-2005>
0

> <r_mmod_RMS_Derivative-OPLS-2005>
4.88054847717285

$$$$
39
                    3D
 Structure written by MMmdl.
156164  0  0  1  0            999 V2000
  -30.7147  -14.5134   20.4418 C   0  0  0  0  0  0
  -30.4216  -12.2919   19.4479 C   0  0  0  0  0  0
  -29.5061  -12.4345   18.2118 C   0  0  0  0  0  0
  -28.0166  -12.3331   18.6090 C   0  0  0  0  0  0
  -27.6488  -13.1982   19.8465 C   0  0  2  0  0  0
  -28.7002  -13.0746   20.9694 C   0  0  0  0  0  0
  -25.2606  -13.8115   20.5706 C   0  0  0  0  0  0
  -24.1845  -13.0406   20.9187 C   0  0  0  0  0  0
  -24.6415  -11.6877   20.8752 C   0  0  0  0  0  0
  -23.9101  -10.4259   21.0412 C   0  0  0  0  0  0
  -24.3608   -9.4180   21.9217 C   0  0  0  0  0  0
  -23.6245   -8.2245   22.0799 C   0  0  0  0  0  0
  -22.4237   -8.0295   21.3574 C   0  0  0  0  0  0
  -21.9891   -9.0298   20.4694 C   0  0  0  0  0  0
  -22.7259  -10.2150   20.3091 C   0  0  0  0  0  0
  -21.6851   -6.0712   22.5271 C   0  0  0  0  0  0
  -21.4031   -6.5624   23.8203 C   0  0  0  0  0  0
  -21.3657   -5.6795   24.9184 C   0  0  0  0  0  0
  -21.6037   -4.3057   24.7234 C   0  0  0  0  0  0
  -21.8825   -3.8118   23.4361 C   0  0  0  0  0  0
  -21.9169   -4.6922   22.3401 C   0  0  0  0  0  0
  -22.7870  -13.5252   21.1811 C   0  0  0  0  0  0
  -22.1630   -4.2113   21.0970 F   0  0  0  0  0  0
  -21.5641   -3.4547   25.7750 F   0  0  0  0  0  0
  -30.0318  -13.3356   20.4035 N   0  0  0  0  0  0
  -26.2993  -12.9265   20.3303 N   0  0  0  0  0  0
  -25.9338  -11.6430   20.5781 N   0  0  0  0  0  0
  -22.0447  -12.8301   22.0360 N   0  0  0  0  0  0
  -25.4359  -15.1831   20.4182 N   0  0  0  0  0  0
  -31.9317  -14.5954   20.2646 O   0  0  0  0  0  0
  -21.6631   -6.8878   21.4240 O   0  0  0  0  0  0
  -22.3579  -14.5555   20.6647 O   0  0  0  0  0  0
  -24.6147  -31.8692   23.2126 C   0  0  0  0  0  0
  -25.9048  -32.4825   23.8405 C   0  0  1  0  0  0
  -27.2300  -27.4396   20.1100 C   0  0  0  0  0  0
  -25.5904  -33.8618   24.2341 N   0  0  0  0  0  0
  -23.4016  -30.4939   21.5507 C   0  0  2  0  0  0
  -24.8514  -28.9584   20.1173 C   0  0  0  0  0  0
  -22.7405  -29.4681   22.4986 C   0  0  0  0  0  0
  -18.0279  -28.1354   22.8505 C   0  0  0  0  0  0
  -24.1482  -36.7309   23.2640 C   0  0  0  0  0  0
  -25.9279  -30.8355   21.3686 C   0  0  0  0  0  0
  -26.0068  -29.4690   20.7227 C   0  0  0  0  0  0
  -27.2021  -28.7144   20.7196 C   0  0  0  0  0  0
  -26.0644  -26.9413   19.4962 C   0  0  0  0  0  0
  -24.8742  -27.6935   19.5032 C   0  0  0  0  0  0
  -23.6137  -29.8269   20.1641 C   0  0  0  0  0  0
  -25.4101  -36.3111   24.0353 C   0  0  1  0  0  0
  -20.5861  -28.3668   23.1320 C   0  0  2  0  0  0
  -20.6751  -26.9414   22.5401 C   0  0  0  0  0  0
  -19.5724  -26.6393   21.5207 C   0  0  0  0  0  0
  -18.1910  -26.7909   22.1633 C   0  0  0  0  0  0
  -19.1530  -28.8837   23.2902 C   0  0  0  0  0  0
  -18.9454  -30.1441   23.8916 C   0  0  0  0  0  0
  -17.6451  -30.6571   24.0569 C   0  0  0  0  0  0
  -25.9030  -34.9483   23.5150 C   0  0  0  0  0  0
  -16.5338  -29.9068   23.6315 C   0  0  0  0  0  0
  -16.7272  -28.6474   23.0357 C   0  0  0  0  0  0
  -26.4474  -31.6621   25.0734 C   0  0  0  0  0  0
  -25.3737  -31.3745   26.1488 C   0  0  0  0  0  0
  -27.0308  -30.3068   24.6110 C   0  0  0  0  0  0
  -27.6054  -32.4352   25.7480 C   0  0  0  0  0  0
  -27.5579  -37.1808   24.8468 C   0  0  0  0  0  0
  -21.4147  -29.3044   22.3740 N   0  0  0  0  0  0
  -26.4288  -37.3787   23.9415 N   0  0  0  0  0  0
  -24.6650  -31.0797   22.1041 N   0  0  0  0  0  0
  -23.4194  -28.8226   23.3028 O   0  0  0  0  0  0
  -28.3736  -26.6797   20.0806 O   0  0  0  0  0  0
  -26.5554  -34.8960   22.4689 O   0  0  0  0  0  0
  -23.5350  -32.1462   23.7527 O   0  0  0  0  0  0
  -29.9720  -18.1901   20.7810 C   0  0  0  0  0  0
  -29.5726  -19.0285   21.8672 C   0  0  0  0  0  0
  -29.8065  -16.8461   21.0337 C   0  0  0  0  0  0
  -29.1427  -18.3122   22.9552 C   0  0  0  0  0  0
  -28.5557  -23.4456   21.6940 C   0  0  0  0  0  0
  -27.9578  -24.6105   21.3623 C   0  0  0  0  0  0
  -29.9018  -15.7542   20.0683 C   0  0  0  0  0  0
  -28.5924  -18.8516   24.2346 C   0  0  0  0  0  0
  -27.8463  -22.1024   21.7939 C   0  0  0  0  0  0
  -28.6511  -25.9696   21.2928 C   0  0  0  0  0  0
  -28.5468  -20.9591   21.0335 C   0  0  0  0  0  0
  -29.4275  -15.9024   18.9005 N   0  0  0  0  0  0
  -29.5759  -20.3829   21.8389 O   0  0  0  0  0  0
  -29.2337  -16.5903   22.6619 S   0  0  0  0  0  0
  -31.4713  -12.3648   19.1579 H   0  0  0  0  0  0
  -30.2980  -11.3099   19.9069 H   0  0  0  0  0  0
  -29.7448  -11.6571   17.4834 H   0  0  0  0  0  0
  -29.6978  -13.3846   17.7092 H   0  0  0  0  0  0
  -27.7935  -11.2845   18.8027 H   0  0  0  0  0  0
  -27.3913  -12.6203   17.7636 H   0  0  0  0  0  0
  -27.6379  -14.2243   19.4953 H   0  0  0  0  0  0
  -28.6828  -12.0755   21.4005 H   0  0  0  0  0  0
  -28.4814  -13.7630   21.7867 H   0  0  0  0  0  0
  -25.2756   -9.5620   22.4799 H   0  0  0  0  0  0
  -23.9915   -7.4652   22.7539 H   0  0  0  0  0  0
  -21.0819   -8.8844   19.9014 H   0  0  0  0  0  0
  -22.3753  -10.9684   19.6181 H   0  0  0  0  0  0
  -21.2055   -7.6138   23.9700 H   0  0  0  0  0  0
  -21.1468   -6.0536   25.9098 H   0  0  0  0  0  0
  -22.0592   -2.7565   23.2889 H   0  0  0  0  0  0
  -22.3955  -11.9963   22.4823 H   0  0  0  0  0  0
  -21.1094  -13.1455   22.2519 H   0  0  0  0  0  0
  -24.6831  -15.8475   20.5553 H   0  0  0  0  0  0
  -26.2915  -15.6167   20.0971 H   0  0  0  0  0  0
  -26.7110  -32.5563   23.1161 H   0  0  0  0  0  0
  -25.0106  -33.9762   25.0535 H   0  0  0  0  0  0
  -22.6885  -31.3100   21.4083 H   0  0  0  0  0  0
  -23.3750  -35.9638   23.3327 H   0  0  0  0  0  0
  -24.3575  -36.8884   22.2043 H   0  0  0  0  0  0
  -23.7233  -37.6535   23.6628 H   0  0  0  0  0  0
  -26.0451  -31.6034   20.6030 H   0  0  0  0  0  0
  -26.8115  -30.8888   21.9893 H   0  0  0  0  0  0
  -28.0949  -29.0977   21.1899 H   0  0  0  0  0  0
  -26.0813  -25.9689   19.0230 H   0  0  0  0  0  0
  -23.9850  -27.2955   19.0322 H   0  0  0  0  0  0
  -23.7303  -30.6015   19.4055 H   0  0  0  0  0  0
  -22.7357  -29.2520   19.8618 H   0  0  0  0  0  0
  -25.1278  -36.1975   25.0840 H   0  0  0  0  0  0
  -20.9944  -28.3225   24.1445 H   0  0  0  0  0  0
  -20.5662  -26.2284   23.3595 H   0  0  0  0  0  0
  -21.6623  -26.7446   22.1210 H   0  0  0  0  0  0
  -19.6882  -25.6297   21.1231 H   0  0  0  0  0  0
  -19.6648  -27.3185   20.6718 H   0  0  0  0  0  0
  -17.4185  -26.6689   21.4030 H   0  0  0  0  0  0
  -18.0320  -26.0027   22.9002 H   0  0  0  0  0  0
  -19.7928  -30.7233   24.2326 H   0  0  0  0  0  0
  -17.5008  -31.6275   24.5136 H   0  0  0  0  0  0
  -15.5342  -30.2968   23.7640 H   0  0  0  0  0  0
  -15.8670  -28.0784   22.7076 H   0  0  0  0  0  0
  -24.5889  -30.7103   25.7826 H   0  0  0  0  0  0
  -24.8951  -32.2919   26.4942 H   0  0  0  0  0  0
  -25.8101  -30.8905   27.0233 H   0  0  0  0  0  0
  -26.2852  -29.6828   24.1152 H   0  0  0  0  0  0
  -27.4071  -29.7315   25.4576 H   0  0  0  0  0  0
  -27.8703  -30.4392   23.9273 H   0  0  0  0  0  0
  -27.2666  -33.3637   26.2094 H   0  0  0  0  0  0
  -28.3841  -32.6939   25.0285 H   0  0  0  0  0  0
  -28.0751  -31.8449   26.5360 H   0  0  0  0  0  0
  -28.2606  -38.0089   24.7497 H   0  0  0  0  0  0
  -28.1063  -36.2631   24.6315 H   0  0  0  0  0  0
  -27.2299  -37.1481   25.8867 H   0  0  0  0  0  0
  -20.9322  -29.8814   21.7001 H   0  0  0  0  0  0
  -26.0202  -38.2873   24.1419 H   0  0  0  0  0  0
  -30.3100  -18.6028   19.8400 H   0  0  0  0  0  0
  -29.6116  -23.4385   21.9292 H   0  0  0  0  0  0
  -26.8999  -24.6123   21.1441 H   0  0  0  0  0  0
  -28.9854  -19.8464   24.4483 H   0  0  0  0  0  0
  -28.8460  -18.2085   25.0764 H   0  0  0  0  0  0
  -27.5050  -18.9258   24.1806 H   0  0  0  0  0  0
  -26.8301  -22.2179   21.4137 H   0  0  0  0  0  0
  -27.7510  -21.8274   22.8439 H   0  0  0  0  0  0
  -28.3594  -26.5519   22.1695 H   0  0  0  0  0  0
  -29.7292  -25.8213   21.3642 H   0  0  0  0  0  0
  -28.9591  -21.2975   20.0827 H   0  0  0  0  0  0
  -27.7952  -20.2088   20.7731 H   0  0  0  0  0  0
  -28.9730  -16.8002   18.7905 H   0  0  0  0  0  0
  1 25  1  0  0  0
  1 30  2  0  0  0
  1 77  1  0  0  0
  2  3  1  0  0  0
  2 25  1  0  0  0
  2 85  1  0  0  0
  2 86  1  0  0  0
  3  4  1  0  0  0
  3 87  1  0  0  0
  3 88  1  0  0  0
  4  5  1  0  0  0
  4 89  1  0  0  0
  4 90  1  0  0  0
  5  6  1  0  0  0
  5 26  1  0  0  0
  5 91  1  0  0  0
  6 25  1  0  0  0
  6 92  1  0  0  0
  6 93  1  0  0  0
  7  8  2  0  0  0
  7 26  1  0  0  0
  7 29  1  0  0  0
  8  9  1  0  0  0
  8 22  1  0  0  0
  9 10  1  0  0  0
  9 27  2  0  0  0
 10 11  2  0  0  0
 10 15  1  0  0  0
 11 12  1  0  0  0
 11 94  1  0  0  0
 12 13  2  0  0  0
 12 95  1  0  0  0
 13 14  1  0  0  0
 13 31  1  0  0  0
 14 15  2  0  0  0
 14 96  1  0  0  0
 15 97  1  0  0  0
 16 17  2  0  0  0
 16 21  1  0  0  0
 16 31  1  0  0  0
 17 18  1  0  0  0
 17 98  1  0  0  0
 18 19  2  0  0  0
 18 99  1  0  0  0
 19 20  1  0  0  0
 19 24  1  0  0  0
 20 21  2  0  0  0
 20100  1  0  0  0
 21 23  1  0  0  0
 22 28  1  0  0  0
 22 32  2  0  0  0
 26 27  1  0  0  0
 28101  1  0  0  0
 28102  1  0  0  0
 29103  1  0  0  0
 29104  1  0  0  0
 33 34  1  0  0  0
 33 66  1  0  0  0
 33 70  2  0  0  0
 34 36  1  0  0  0
 34 59  1  0  0  0
 34105  1  0  0  0
 35 44  2  0  0  0
 35 45  1  0  0  0
 35 68  1  0  0  0
 36 56  1  0  0  0
 36106  1  0  0  0
 37 39  1  0  0  0
 37 47  1  0  0  0
 37 66  1  0  0  0
 37107  1  0  0  0
 38 43  2  0  0  0
 38 46  1  0  0  0
 38 47  1  0  0  0
 39 64  1  0  0  0
 39 67  2  0  0  0
 40 52  1  0  0  0
 40 53  2  0  0  0
 40 58  1  0  0  0
 41108  1  0  0  0
 41109  1  0  0  0
 41110  1  0  0  0
 41 48  1  0  0  0
 42 43  1  0  0  0
 42 66  1  0  0  0
 42111  1  0  0  0
 42112  1  0  0  0
 43 44  1  0  0  0
 44113  1  0  0  0
 45 46  2  0  0  0
 45114  1  0  0  0
 46115  1  0  0  0
 47116  1  0  0  0
 47117  1  0  0  0
 48 56  1  0  0  0
 48 65  1  0  0  0
 48118  1  0  0  0
 49 50  1  0  0  0
 49 53  1  0  0  0
 49 64  1  0  0  0
 49119  1  0  0  0
 50 51  1  0  0  0
 50120  1  0  0  0
 50121  1  0  0  0
 51 52  1  0  0  0
 51122  1  0  0  0
 51123  1  0  0  0
 52124  1  0  0  0
 52125  1  0  0  0
 53 54  1  0  0  0
 54 55  2  0  0  0
 54126  1  0  0  0
 55 57  1  0  0  0
 55127  1  0  0  0
 56 69  2  0  0  0
 57 58  2  0  0  0
 57128  1  0  0  0
 58129  1  0  0  0
 59 60  1  0  0  0
 59 61  1  0  0  0
 59 62  1  0  0  0
 60130  1  0  0  0
 60131  1  0  0  0
 60132  1  0  0  0
 61133  1  0  0  0
 61134  1  0  0  0
 61135  1  0  0  0
 62136  1  0  0  0
 62137  1  0  0  0
 62138  1  0  0  0
 63 65  1  0  0  0
 63139  1  0  0  0
 63140  1  0  0  0
 63141  1  0  0  0
 64142  1  0  0  0
 65143  1  0  0  0
 68 80  1  0  0  0
 71 72  1  0  0  0
 71 73  2  0  0  0
 71144  1  0  0  0
 72 74  2  0  0  0
 72 83  1  0  0  0
 73 77  1  0  0  0
 73 84  1  0  0  0
 74 78  1  0  0  0
 74 84  1  0  0  0
 75 76  2  0  0  0
 75 79  1  0  0  0
 75145  1  0  0  0
 76 80  1  0  0  0
 76146  1  0  0  0
 77 82  2  0  0  0
 78147  1  0  0  0
 78148  1  0  0  0
 78149  1  0  0  0
 79 81  1  0  0  0
 79150  1  0  0  0
 79151  1  0  0  0
 80152  1  0  0  0
 80153  1  0  0  0
 81 83  1  0  0  0
 81154  1  0  0  0
 81155  1  0  0  0
 82156  1  0  0  0
M  ISO  4   1 100  68 101  77 100  80 101
M  END
> <chiral flag>
0

> <version>
0

> <s_m_source_file>
/data/baiqing/PycharmProjects/Reinvent-master-3.2/result/LINK_invent/BTK/process_docking_weight1_custom_product_contain_oxygen_bond_distance_aromatic_linkinvent_7_9_3/rearranged_h_0115.sdf

> <i_m_source_file_index>
40

> <r_mmod_Potential_Energy-OPLS-2005>
134.075134277344

> <r_mmod_Stretch_Energy-OPLS-2005>
33.5868949890137

> <r_mmod_Bend_Energy-OPLS-2005>
93.8789596557617

> <r_mmod_Torsional_Energy-OPLS-2005>
284.866302490234

> <r_mmod_Improper_Torsional_Energy-OPLS-2005>
20.1035842895508

> <r_mmod_Van_der_Waal_Energy-OPLS-2005>
116.294891357422

> <r_mmod_Electrostatic_Energy-OPLS-2005>
-247.209228515625

> <r_mmod_Solvation_Energy-OPLS-2005>
-195.594818115234

> <b_mmod_Minimization_Converged-OPLS-2005>
0

> <r_mmod_RMS_Derivative-OPLS-2005>
4.57841539382935

$$$$
40
                    3D
 Structure written by MMmdl.
161169  0  0  1  0            999 V2000
  -30.6967  -14.5930   20.4645 C   0  0  0  0  0  0
  -30.4238  -12.3536   19.4488 C   0  0  0  0  0  0
  -29.4932  -12.4551   18.2209 C   0  0  0  0  0  0
  -28.0200  -12.2735   18.6389 C   0  0  0  0  0  0
  -27.6292  -13.1672   19.8397 C   0  0  2  0  0  0
  -28.6876  -13.1188   20.9675 C   0  0  0  0  0  0
  -25.2564  -13.8029   20.5702 C   0  0  0  0  0  0
  -24.1789  -13.0363   20.9233 C   0  0  0  0  0  0
  -24.6295  -11.6821   20.8794 C   0  0  0  0  0  0
  -23.8969  -10.4244   21.0452 C   0  0  0  0  0  0
  -24.3557   -9.4172   21.9213 C   0  0  0  0  0  0
  -23.6260   -8.2203   22.0759 C   0  0  0  0  0  0
  -22.4243   -8.0253   21.3546 C   0  0  0  0  0  0
  -21.9862   -9.0217   20.4647 C   0  0  0  0  0  0
  -22.7168  -10.2104   20.3076 C   0  0  0  0  0  0
  -21.6836   -6.0719   22.5281 C   0  0  0  0  0  0
  -21.3998   -6.5631   23.8208 C   0  0  0  0  0  0
  -21.3653   -5.6791   24.9176 C   0  0  0  0  0  0
  -21.6044   -4.3056   24.7233 C   0  0  0  0  0  0
  -21.8820   -3.8145   23.4357 C   0  0  0  0  0  0
  -21.9187   -4.6953   22.3410 C   0  0  0  0  0  0
  -22.7839  -13.5220   21.1898 C   0  0  0  0  0  0
  -22.1667   -4.2138   21.0986 F   0  0  0  0  0  0
  -21.5634   -3.4537   25.7750 F   0  0  0  0  0  0
  -30.0122  -13.4074   20.3922 N   0  0  0  0  0  0
  -26.2868  -12.9063   20.3294 N   0  0  0  0  0  0
  -25.9192  -11.6288   20.5810 N   0  0  0  0  0  0
  -22.0463  -12.8221   22.0449 N   0  0  0  0  0  0
  -25.4407  -15.1739   20.4122 N   0  0  0  0  0  0
  -31.9027  -14.6732   20.2272 O   0  0  0  0  0  0
  -21.6621   -6.8852   21.4237 O   0  0  0  0  0  0
  -22.3553  -14.5538   20.6746 O   0  0  0  0  0  0
  -24.6158  -31.8660   23.2071 C   0  0  0  0  0  0
  -25.9052  -32.4804   23.8384 C   0  0  1  0  0  0
  -27.2429  -27.4134   20.0909 C   0  0  0  0  0  0
  -25.5898  -33.8601   24.2322 N   0  0  0  0  0  0
  -23.4046  -30.4904   21.5444 C   0  0  2  0  0  0
  -24.8518  -28.9506   20.1147 C   0  0  0  0  0  0
  -22.7408  -29.4668   22.4935 C   0  0  0  0  0  0
  -18.0283  -28.1388   22.8488 C   0  0  0  0  0  0
  -24.1484  -36.7306   23.2638 C   0  0  0  0  0  0
  -25.9351  -30.8251   21.3630 C   0  0  0  0  0  0
  -26.0118  -29.4569   20.7110 C   0  0  0  0  0  0
  -27.2029  -28.6945   20.6982 C   0  0  0  0  0  0
  -26.0521  -26.9164   19.5096 C   0  0  0  0  0  0
  -24.8668  -27.6792   19.5170 C   0  0  0  0  0  0
  -23.6152  -29.8198   20.1602 C   0  0  0  0  0  0
  -25.4105  -36.3096   24.0335 C   0  0  1  0  0  0
  -20.5870  -28.3682   23.1294 C   0  0  2  0  0  0
  -20.6765  -26.9409   22.5412 C   0  0  0  0  0  0
  -19.5749  -26.6392   21.5201 C   0  0  0  0  0  0
  -18.1931  -26.7936   22.1618 C   0  0  0  0  0  0
  -19.1531  -28.8847   23.2895 C   0  0  0  0  0  0
  -18.9461  -30.1447   23.8915 C   0  0  0  0  0  0
  -17.6465  -30.6587   24.0570 C   0  0  0  0  0  0
  -25.9030  -34.9462   23.5123 C   0  0  0  0  0  0
  -16.5357  -29.9093   23.6322 C   0  0  0  0  0  0
  -16.7275  -28.6510   23.0344 C   0  0  0  0  0  0
  -26.4483  -31.6585   25.0713 C   0  0  0  0  0  0
  -25.3767  -31.3700   26.1472 C   0  0  0  0  0  0
  -27.0308  -30.3021   24.6103 C   0  0  0  0  0  0
  -27.6058  -32.4303   25.7486 C   0  0  0  0  0  0
  -27.5575  -37.1807   24.8468 C   0  0  0  0  0  0
  -21.4132  -29.3050   22.3682 N   0  0  0  0  0  0
  -26.4290  -37.3781   23.9403 N   0  0  0  0  0  0
  -24.6696  -31.0762   22.0966 N   0  0  0  0  0  0
  -23.4172  -28.8211   23.2986 O   0  0  0  0  0  0
  -28.4441  -26.7190   20.1161 O   0  0  0  0  0  0
  -26.5591  -34.8916   22.4683 O   0  0  0  0  0  0
  -23.5349  -32.1418   23.7462 O   0  0  0  0  0  0
  -30.6515  -18.3343   23.2606 C   0  0  0  0  0  0
  -30.0137  -18.4107   20.5693 C   0  0  0  0  0  0
  -30.4516  -17.1098   22.5814 C   0  0  0  0  0  0
  -30.1551  -17.1276   21.1888 C   0  0  0  0  0  0
  -30.5050  -19.5962   22.6323 C   0  0  0  0  0  0
  -30.1328  -19.6396   21.2663 C   0  0  0  0  0  0
  -31.4188  -15.6775   24.3909 C   0  0  0  0  0  0
  -30.5735  -15.8639   23.3631 C   0  0  0  0  0  0
  -28.9291  -24.2998   20.4183 C   0  0  0  0  0  0
  -28.7591  -22.9788   20.1636 C   0  0  0  0  0  0
  -29.8560  -15.9013   20.3479 C   0  0  0  0  0  0
  -31.2118  -20.7426   24.6346 C   0  0  0  0  0  0
  -28.6371  -25.4532   19.4492 C   0  0  0  0  0  0
  -29.0639  -21.8280   21.1343 C   0  0  0  0  0  0
  -28.9917  -16.0213   19.4306 N   0  0  0  0  0  0
  -30.7376  -20.7840   23.2937 O   0  0  0  0  0  0
  -29.9304  -20.8255   20.5625 O   0  0  0  0  0  0
  -31.4657  -12.4538   19.1399 H   0  0  0  0  0  0
  -30.3427  -11.3708   19.9179 H   0  0  0  0  0  0
  -29.7626  -11.6976   17.4834 H   0  0  0  0  0  0
  -29.6268  -13.4190   17.7297 H   0  0  0  0  0  0
  -27.8767  -11.2247   18.9008 H   0  0  0  0  0  0
  -27.3576  -12.4673   17.7949 H   0  0  0  0  0  0
  -27.5669  -14.1551   19.4179 H   0  0  0  0  0  0
  -28.6955  -12.1354   21.4405 H   0  0  0  0  0  0
  -28.4335  -13.8298   21.7555 H   0  0  0  0  0  0
  -25.2692   -9.5670   22.4792 H   0  0  0  0  0  0
  -23.9979   -7.4586   22.7455 H   0  0  0  0  0  0
  -21.0808   -8.8717   19.8943 H   0  0  0  0  0  0
  -22.3616  -10.9655   19.6198 H   0  0  0  0  0  0
  -21.1979   -7.6139   23.9705 H   0  0  0  0  0  0
  -21.1479   -6.0528   25.9075 H   0  0  0  0  0  0
  -22.0604   -2.7607   23.2857 H   0  0  0  0  0  0
  -22.4042  -11.9860   22.4823 H   0  0  0  0  0  0
  -21.1087  -13.1279   22.2659 H   0  0  0  0  0  0
  -24.6904  -15.8445   20.5368 H   0  0  0  0  0  0
  -26.3114  -15.6022   20.1144 H   0  0  0  0  0  0
  -26.7119  -32.5521   23.1142 H   0  0  0  0  0  0
  -25.0057  -33.9761   25.0471 H   0  0  0  0  0  0
  -22.6950  -31.3080   21.4010 H   0  0  0  0  0  0
  -23.3731  -35.9655   23.3326 H   0  0  0  0  0  0
  -24.3575  -36.8894   22.2047 H   0  0  0  0  0  0
  -23.7261  -37.6527   23.6638 H   0  0  0  0  0  0
  -26.0490  -31.5918   20.5947 H   0  0  0  0  0  0
  -26.8215  -30.8804   21.9823 H   0  0  0  0  0  0
  -28.0986  -29.0845   21.1613 H   0  0  0  0  0  0
  -25.9971  -25.9382   19.0599 H   0  0  0  0  0  0
  -23.9689  -27.2774   19.0671 H   0  0  0  0  0  0
  -23.7244  -30.5914   19.3966 H   0  0  0  0  0  0
  -22.7408  -29.2373   19.8653 H   0  0  0  0  0  0
  -25.1281  -36.1955   25.0829 H   0  0  0  0  0  0
  -20.9989  -28.3269   24.1404 H   0  0  0  0  0  0
  -20.5643  -26.2296   23.3605 H   0  0  0  0  0  0
  -21.6641  -26.7430   22.1224 H   0  0  0  0  0  0
  -19.6906  -25.6302   21.1227 H   0  0  0  0  0  0
  -19.6697  -27.3202   20.6729 H   0  0  0  0  0  0
  -17.4194  -26.6680   21.4025 H   0  0  0  0  0  0
  -18.0345  -26.0078   22.9017 H   0  0  0  0  0  0
  -19.7940  -30.7253   24.2298 H   0  0  0  0  0  0
  -17.5025  -31.6272   24.5173 H   0  0  0  0  0  0
  -15.5359  -30.3006   23.7631 H   0  0  0  0  0  0
  -15.8676  -28.0834   22.7048 H   0  0  0  0  0  0
  -24.5935  -30.7037   25.7829 H   0  0  0  0  0  0
  -24.8965  -32.2862   26.4929 H   0  0  0  0  0  0
  -25.8143  -30.8878   27.0225 H   0  0  0  0  0  0
  -26.2849  -29.6781   24.1159 H   0  0  0  0  0  0
  -27.4067  -29.7255   25.4566 H   0  0  0  0  0  0
  -27.8695  -30.4317   23.9254 H   0  0  0  0  0  0
  -27.2671  -33.3589   26.2097 H   0  0  0  0  0  0
  -28.3868  -32.6887   25.0319 H   0  0  0  0  0  0
  -28.0729  -31.8406   26.5385 H   0  0  0  0  0  0
  -28.2604  -38.0088   24.7480 H   0  0  0  0  0  0
  -28.1053  -36.2617   24.6330 H   0  0  0  0  0  0
  -27.2290  -37.1509   25.8870 H   0  0  0  0  0  0
  -20.9271  -29.8785   21.6924 H   0  0  0  0  0  0
  -26.0175  -38.2854   24.1402 H   0  0  0  0  0  0
  -30.8872  -18.2820   24.3113 H   0  0  0  0  0  0
  -29.7692  -18.4639   19.5169 H   0  0  0  0  0  0
  -31.4356  -14.7434   24.9344 H   0  0  0  0  0  0
  -32.1108  -16.4437   24.7089 H   0  0  0  0  0  0
  -29.9029  -15.0564   23.1106 H   0  0  0  0  0  0
  -29.3248  -24.5997   21.3789 H   0  0  0  0  0  0
  -28.3700  -22.6770   19.2009 H   0  0  0  0  0  0
  -31.3699  -21.7600   24.9926 H   0  0  0  0  0  0
  -32.1645  -20.2140   24.7054 H   0  0  0  0  0  0
  -30.4891  -20.2735   25.3034 H   0  0  0  0  0  0
  -27.8704  -25.1757   18.7301 H   0  0  0  0  0  0
  -29.5357  -25.5827   18.8450 H   0  0  0  0  0  0
  -28.1187  -21.3584   21.4103 H   0  0  0  0  0  0
  -29.4770  -22.2687   22.0382 H   0  0  0  0  0  0
  -28.9431  -15.1648   18.8926 H   0  0  0  0  0  0
  1 25  1  0  0  0
  1 30  2  0  0  0
  1 81  1  0  0  0
  2  3  1  0  0  0
  2 25  1  0  0  0
  2 88  1  0  0  0
  2 89  1  0  0  0
  3  4  1  0  0  0
  3 90  1  0  0  0
  3 91  1  0  0  0
  4  5  1  0  0  0
  4 92  1  0  0  0
  4 93  1  0  0  0
  5  6  1  0  0  0
  5 26  1  0  0  0
  5 94  1  0  0  0
  6 25  1  0  0  0
  6 95  1  0  0  0
  6 96  1  0  0  0
  7  8  2  0  0  0
  7 26  1  0  0  0
  7 29  1  0  0  0
  8  9  1  0  0  0
  8 22  1  0  0  0
  9 10  1  0  0  0
  9 27  2  0  0  0
 10 11  2  0  0  0
 10 15  1  0  0  0
 11 12  1  0  0  0
 11 97  1  0  0  0
 12 13  2  0  0  0
 12 98  1  0  0  0
 13 14  1  0  0  0
 13 31  1  0  0  0
 14 15  2  0  0  0
 14 99  1  0  0  0
 15100  1  0  0  0
 16 17  2  0  0  0
 16 21  1  0  0  0
 16 31  1  0  0  0
 17 18  1  0  0  0
 17101  1  0  0  0
 18 19  2  0  0  0
 18102  1  0  0  0
 19 20  1  0  0  0
 19 24  1  0  0  0
 20 21  2  0  0  0
 20103  1  0  0  0
 21 23  1  0  0  0
 22 28  1  0  0  0
 22 32  2  0  0  0
 26 27  1  0  0  0
 28104  1  0  0  0
 28105  1  0  0  0
 29106  1  0  0  0
 29107  1  0  0  0
 33 34  1  0  0  0
 33 66  1  0  0  0
 33 70  2  0  0  0
 34 36  1  0  0  0
 34 59  1  0  0  0
 34108  1  0  0  0
 35 44  2  0  0  0
 35 45  1  0  0  0
 35 68  1  0  0  0
 36 56  1  0  0  0
 36109  1  0  0  0
 37 39  1  0  0  0
 37 47  1  0  0  0
 37 66  1  0  0  0
 37110  1  0  0  0
 38 43  2  0  0  0
 38 46  1  0  0  0
 38 47  1  0  0  0
 39 64  1  0  0  0
 39 67  2  0  0  0
 40 52  1  0  0  0
 40 53  2  0  0  0
 40 58  1  0  0  0
 41111  1  0  0  0
 41112  1  0  0  0
 41113  1  0  0  0
 41 48  1  0  0  0
 42 43  1  0  0  0
 42 66  1  0  0  0
 42114  1  0  0  0
 42115  1  0  0  0
 43 44  1  0  0  0
 44116  1  0  0  0
 45 46  2  0  0  0
 45117  1  0  0  0
 46118  1  0  0  0
 47119  1  0  0  0
 47120  1  0  0  0
 48 56  1  0  0  0
 48 65  1  0  0  0
 48121  1  0  0  0
 49 50  1  0  0  0
 49 53  1  0  0  0
 49 64  1  0  0  0
 49122  1  0  0  0
 50 51  1  0  0  0
 50123  1  0  0  0
 50124  1  0  0  0
 51 52  1  0  0  0
 51125  1  0  0  0
 51126  1  0  0  0
 52127  1  0  0  0
 52128  1  0  0  0
 53 54  1  0  0  0
 54 55  2  0  0  0
 54129  1  0  0  0
 55 57  1  0  0  0
 55130  1  0  0  0
 56 69  2  0  0  0
 57 58  2  0  0  0
 57131  1  0  0  0
 58132  1  0  0  0
 59 60  1  0  0  0
 59 61  1  0  0  0
 59 62  1  0  0  0
 60133  1  0  0  0
 60134  1  0  0  0
 60135  1  0  0  0
 61136  1  0  0  0
 61137  1  0  0  0
 61138  1  0  0  0
 62139  1  0  0  0
 62140  1  0  0  0
 62141  1  0  0  0
 63 65  1  0  0  0
 63142  1  0  0  0
 63143  1  0  0  0
 63144  1  0  0  0
 64145  1  0  0  0
 65146  1  0  0  0
 68 83  1  0  0  0
 71 73  2  0  0  0
 71 75  1  0  0  0
 71147  1  0  0  0
 72 74  2  0  0  0
 72 76  1  0  0  0
 72148  1  0  0  0
 73 74  1  0  0  0
 73 78  1  0  0  0
 74 81  1  0  0  0
 75 76  2  0  0  0
 75 86  1  0  0  0
 76 87  1  0  0  0
 77 78  2  0  0  0
 77149  1  0  0  0
 77150  1  0  0  0
 78151  1  0  0  0
 79 80  2  0  0  0
 79 83  1  0  0  0
 79152  1  0  0  0
 80 84  1  0  0  0
 80153  1  0  0  0
 81 85  2  0  0  0
 82 86  1  0  0  0
 82154  1  0  0  0
 82155  1  0  0  0
 82156  1  0  0  0
 83157  1  0  0  0
 83158  1  0  0  0
 84 87  1  0  0  0
 84159  1  0  0  0
 84160  1  0  0  0
 85161  1  0  0  0
M  ISO  4   1 100  68 101  81 100  83 101
M  END
> <chiral flag>
0

> <version>
0

> <s_m_source_file>
/data/baiqing/PycharmProjects/Reinvent-master-3.2/result/LINK_invent/BTK/process_docking_weight1_custom_product_contain_oxygen_bond_distance_aromatic_linkinvent_7_9_3/rearranged_h_0115.sdf

> <i_m_source_file_index>
41

> <r_mmod_Potential_Energy-OPLS-2005>
217.301910400391

> <r_mmod_Stretch_Energy-OPLS-2005>
54.4771347045898

> <r_mmod_Bend_Energy-OPLS-2005>
139.03694152832

> <r_mmod_Torsional_Energy-OPLS-2005>
243.568084716797

> <r_mmod_Improper_Torsional_Energy-OPLS-2005>
14.7135591506958

> <r_mmod_Van_der_Waal_Energy-OPLS-2005>
176.669967651367

> <r_mmod_Electrostatic_Energy-OPLS-2005>
-248.234390258789

> <r_mmod_Solvation_Energy-OPLS-2005>
-198.838638305664

> <b_mmod_Minimization_Converged-OPLS-2005>
0

> <r_mmod_RMS_Derivative-OPLS-2005>
2.02522754669189

$$$$
41
                    3D
 Structure written by MMmdl.
167175  0  0  1  0            999 V2000
  -30.5713  -14.7287   20.4552 C   0  0  0  0  0  0
  -30.4393  -12.4436   19.4615 C   0  0  0  0  0  0
  -29.5051  -12.4999   18.2312 C   0  0  0  0  0  0
  -28.0334  -12.3153   18.6504 C   0  0  0  0  0  0
  -27.6412  -13.2063   19.8577 C   0  0  2  0  0  0
  -28.6892  -13.1191   20.9884 C   0  0  0  0  0  0
  -25.2517  -13.7867   20.5796 C   0  0  0  0  0  0
  -24.1782  -13.0220   20.9283 C   0  0  0  0  0  0
  -24.6375  -11.6725   20.8780 C   0  0  0  0  0  0
  -23.9034  -10.4166   21.0426 C   0  0  0  0  0  0
  -24.3591   -9.4100   21.9209 C   0  0  0  0  0  0
  -23.6266   -8.2147   22.0762 C   0  0  0  0  0  0
  -22.4248   -8.0216   21.3540 C   0  0  0  0  0  0
  -21.9885   -9.0185   20.4645 C   0  0  0  0  0  0
  -22.7211  -10.2055   20.3066 C   0  0  0  0  0  0
  -21.6828   -6.0704   22.5285 C   0  0  0  0  0  0
  -21.3993   -6.5623   23.8207 C   0  0  0  0  0  0
  -21.3662   -5.6789   24.9183 C   0  0  0  0  0  0
  -21.6050   -4.3049   24.7238 C   0  0  0  0  0  0
  -21.8821   -3.8130   23.4364 C   0  0  0  0  0  0
  -21.9184   -4.6940   22.3411 C   0  0  0  0  0  0
  -22.7831  -13.5103   21.1900 C   0  0  0  0  0  0
  -22.1660   -4.2124   21.0989 F   0  0  0  0  0  0
  -21.5641   -3.4541   25.7759 F   0  0  0  0  0  0
  -29.9882  -13.4856   20.4073 N   0  0  0  0  0  0
  -26.2938  -12.9133   20.3324 N   0  0  0  0  0  0
  -25.9305  -11.6302   20.5772 N   0  0  0  0  0  0
  -22.0439  -12.8129   22.0448 N   0  0  0  0  0  0
  -25.4122  -15.1476   20.4267 N   0  0  0  0  0  0
  -31.7589  -14.8722   20.1460 O   0  0  0  0  0  0
  -21.6603   -6.8834   21.4238 O   0  0  0  0  0  0
  -22.3580  -14.5442   20.6749 O   0  0  0  0  0  0
  -24.6232  -31.8595   23.2011 C   0  0  0  0  0  0
  -25.9065  -32.4787   23.8357 C   0  0  1  0  0  0
  -27.2483  -27.3324   20.1159 C   0  0  0  0  0  0
  -25.5871  -33.8585   24.2281 N   0  0  0  0  0  0
  -23.4204  -30.4779   21.5441 C   0  0  2  0  0  0
  -24.8707  -28.9289   20.1178 C   0  0  0  0  0  0
  -22.7469  -29.4604   22.4949 C   0  0  0  0  0  0
  -18.0300  -28.1426   22.8485 C   0  0  0  0  0  0
  -24.1467  -36.7299   23.2627 C   0  0  0  0  0  0
  -25.9559  -30.7984   21.3644 C   0  0  0  0  0  0
  -26.0365  -29.4214   20.7148 C   0  0  0  0  0  0
  -27.2252  -28.6348   20.7026 C   0  0  0  0  0  0
  -26.0551  -26.8853   19.5004 C   0  0  0  0  0  0
  -24.8804  -27.6663   19.5034 C   0  0  0  0  0  0
  -23.6366  -29.8065   20.1623 C   0  0  0  0  0  0
  -25.4086  -36.3086   24.0332 C   0  0  1  0  0  0
  -20.5894  -28.3717   23.1304 C   0  0  2  0  0  0
  -20.6790  -26.9444   22.5415 C   0  0  0  0  0  0
  -19.5763  -26.6413   21.5220 C   0  0  0  0  0  0
  -18.1942  -26.7965   22.1637 C   0  0  0  0  0  0
  -19.1548  -28.8887   23.2890 C   0  0  0  0  0  0
  -18.9466  -30.1496   23.8908 C   0  0  0  0  0  0
  -17.6465  -30.6617   24.0574 C   0  0  0  0  0  0
  -25.9026  -34.9456   23.5114 C   0  0  0  0  0  0
  -16.5361  -29.9123   23.6326 C   0  0  0  0  0  0
  -16.7289  -28.6546   23.0331 C   0  0  0  0  0  0
  -26.4463  -31.6591   25.0715 C   0  0  0  0  0  0
  -25.3679  -31.3743   26.1434 C   0  0  0  0  0  0
  -27.0287  -30.3024   24.6116 C   0  0  0  0  0  0
  -27.6057  -32.4287   25.7476 C   0  0  0  0  0  0
  -27.5586  -37.1769   24.8446 C   0  0  0  0  0  0
  -21.4183  -29.3064   22.3695 N   0  0  0  0  0  0
  -26.4262  -37.3788   23.9442 N   0  0  0  0  0  0
  -24.6860  -31.0596   22.0964 N   0  0  0  0  0  0
  -23.4179  -28.8133   23.3029 O   0  0  0  0  0  0
  -28.4003  -26.5278   20.1603 O   0  0  0  0  0  0
  -26.5614  -34.8925   22.4689 O   0  0  0  0  0  0
  -23.5391  -32.1388   23.7331 O   0  0  0  0  0  0
  -31.1024  -17.9671   20.6306 C   0  0  0  0  0  0
  -28.7148  -18.1468   20.5090 C   0  0  0  0  0  0
  -30.0557  -20.2537   20.6266 C   0  0  0  0  0  0
  -29.8580  -17.2773   20.5821 C   0  0  0  0  0  0
  -28.8116  -19.5741   20.6396 C   0  0  0  0  0  0
  -31.1968  -19.3970   20.6239 C   0  0  0  0  0  0
  -27.3380  -17.6882   20.2759 C   0  0  0  0  0  0
  -29.3676  -22.5910   20.2452 C   0  0  0  0  0  0
  -26.6263  -18.0507   19.1796 C   0  0  0  0  0  0
  -25.1316  -17.8366   19.0538 C   0  0  0  0  0  0
  -27.2345  -18.7605   17.9773 C   0  0  0  0  0  0
  -30.7900  -24.6045   19.6011 C   0  0  0  0  0  0
  -27.2470  -20.4516   22.1421 C   0  0  0  0  0  0
  -28.2845  -25.0630   19.9853 C   0  0  0  0  0  0
  -29.5399  -24.1564   20.3800 C   0  0  1  0  0  0
  -30.2055  -21.6937   20.6907 N   0  0  0  0  0  0
  -29.7108  -15.7993   20.6280 N   0  0  0  0  0  0
  -27.6563  -20.3083   20.7865 O   0  0  0  0  0  0
  -32.4307  -19.9587   20.6438 F   0  0  0  0  0  0
  -31.4765  -12.5899   19.1538 H   0  0  0  0  0  0
  -30.3995  -11.4616   19.9350 H   0  0  0  0  0  0
  -29.7839  -11.7328   17.5075 H   0  0  0  0  0  0
  -29.6218  -13.4581   17.7220 H   0  0  0  0  0  0
  -27.8955  -11.2641   18.9084 H   0  0  0  0  0  0
  -27.3712  -12.5069   17.8066 H   0  0  0  0  0  0
  -27.6341  -14.2310   19.4872 H   0  0  0  0  0  0
  -28.7289  -12.1108   21.4025 H   0  0  0  0  0  0
  -28.4254  -13.7759   21.8194 H   0  0  0  0  0  0
  -25.2730   -9.5577   22.4791 H   0  0  0  0  0  0
  -23.9965   -7.4528   22.7477 H   0  0  0  0  0  0
  -21.0812   -8.8703   19.8945 H   0  0  0  0  0  0
  -22.3678  -10.9610   19.6189 H   0  0  0  0  0  0
  -21.1973   -7.6128   23.9703 H   0  0  0  0  0  0
  -21.1495   -6.0527   25.9084 H   0  0  0  0  0  0
  -22.0602   -2.7589   23.2877 H   0  0  0  0  0  0
  -22.4054  -11.9785   22.4826 H   0  0  0  0  0  0
  -21.1067  -13.1168   22.2658 H   0  0  0  0  0  0
  -24.5969  -15.7480   20.4661 H   0  0  0  0  0  0
  -26.1770  -15.5590   19.9102 H   0  0  0  0  0  0
  -26.7130  -32.5481   23.1113 H   0  0  0  0  0  0
  -24.9945  -33.9753   25.0374 H   0  0  0  0  0  0
  -22.7143  -31.2969   21.3960 H   0  0  0  0  0  0
  -23.3759  -35.9594   23.3207 H   0  0  0  0  0  0
  -24.3566  -36.9003   22.2056 H   0  0  0  0  0  0
  -23.7187  -37.6456   23.6709 H   0  0  0  0  0  0
  -26.0613  -31.5552   20.5861 H   0  0  0  0  0  0
  -26.8454  -30.8707   21.9785 H   0  0  0  0  0  0
  -28.1226  -29.0128   21.1705 H   0  0  0  0  0  0
  -26.0083  -25.9215   19.0140 H   0  0  0  0  0  0
  -23.9839  -27.2881   19.0320 H   0  0  0  0  0  0
  -23.7566  -30.5811   19.4043 H   0  0  0  0  0  0
  -22.7593  -29.2327   19.8593 H   0  0  0  0  0  0
  -25.1252  -36.1916   25.0824 H   0  0  0  0  0  0
  -21.0003  -28.3287   24.1417 H   0  0  0  0  0  0
  -20.5723  -26.2313   23.3604 H   0  0  0  0  0  0
  -21.6650  -26.7480   22.1186 H   0  0  0  0  0  0
  -19.6923  -25.6313   21.1275 H   0  0  0  0  0  0
  -19.6709  -27.3205   20.6733 H   0  0  0  0  0  0
  -17.4199  -26.6704   21.4054 H   0  0  0  0  0  0
  -18.0347  -26.0134   22.9063 H   0  0  0  0  0  0
  -19.7934  -30.7322   24.2270 H   0  0  0  0  0  0
  -17.5014  -31.6295   24.5183 H   0  0  0  0  0  0
  -15.5367  -30.3029   23.7650 H   0  0  0  0  0  0
  -15.8688  -28.0891   22.7016 H   0  0  0  0  0  0
  -24.5848  -30.7103   25.7754 H   0  0  0  0  0  0
  -24.8857  -32.2916   26.4829 H   0  0  0  0  0  0
  -25.7961  -30.8927   27.0232 H   0  0  0  0  0  0
  -26.2856  -29.6812   24.1105 H   0  0  0  0  0  0
  -27.3990  -29.7236   25.4588 H   0  0  0  0  0  0
  -27.8709  -30.4339   23.9317 H   0  0  0  0  0  0
  -27.2730  -33.3614   26.2040 H   0  0  0  0  0  0
  -28.3880  -32.6788   25.0295 H   0  0  0  0  0  0
  -28.0700  -31.8389   26.5392 H   0  0  0  0  0  0
  -28.2512  -38.0155   24.7616 H   0  0  0  0  0  0
  -28.1181  -36.2698   24.6103 H   0  0  0  0  0  0
  -27.2330  -37.1201   25.8848 H   0  0  0  0  0  0
  -20.9365  -29.8744   21.6865 H   0  0  0  0  0  0
  -26.0135  -38.2830   24.1564 H   0  0  0  0  0  0
  -32.0231  -17.4048   20.6694 H   0  0  0  0  0  0
  -26.8785  -17.1393   21.0840 H   0  0  0  0  0  0
  -28.4576  -22.3116   19.7081 H   0  0  0  0  0  0
  -24.6730  -17.6520   20.0253 H   0  0  0  0  0  0
  -24.9082  -17.0078   18.3818 H   0  0  0  0  0  0
  -24.6591  -18.7344   18.6532 H   0  0  0  0  0  0
  -28.3181  -18.6497   17.9284 H   0  0  0  0  0  0
  -27.0055  -19.8261   18.0118 H   0  0  0  0  0  0
  -26.8263  -18.3572   17.0496 H   0  0  0  0  0  0
  -31.6682  -24.0180   19.8779 H   0  0  0  0  0  0
  -31.0271  -25.6478   19.8077 H   0  0  0  0  0  0
  -30.6438  -24.5028   18.5249 H   0  0  0  0  0  0
  -26.3451  -21.0620   22.1915 H   0  0  0  0  0  0
  -28.0130  -20.9454   22.7417 H   0  0  0  0  0  0
  -27.0205  -19.4869   22.5974 H   0  0  0  0  0  0
  -27.4312  -24.7234   20.5746 H   0  0  0  0  0  0
  -28.0338  -24.8685   18.9420 H   0  0  0  0  0  0
  -29.7370  -24.3422   21.4364 H   0  0  0  0  0  0
  -28.7616  -15.4920   20.7742 H   0  0  0  0  0  0
  1 25  1  0  0  0
  1 30  2  0  0  0
  1 87  1  0  0  0
  2  3  1  0  0  0
  2 25  1  0  0  0
  2 90  1  0  0  0
  2 91  1  0  0  0
  3  4  1  0  0  0
  3 92  1  0  0  0
  3 93  1  0  0  0
  4  5  1  0  0  0
  4 94  1  0  0  0
  4 95  1  0  0  0
  5  6  1  0  0  0
  5 26  1  0  0  0
  5 96  1  0  0  0
  6 25  1  0  0  0
  6 97  1  0  0  0
  6 98  1  0  0  0
  7  8  2  0  0  0
  7 26  1  0  0  0
  7 29  1  0  0  0
  8  9  1  0  0  0
  8 22  1  0  0  0
  9 10  1  0  0  0
  9 27  2  0  0  0
 10 11  2  0  0  0
 10 15  1  0  0  0
 11 12  1  0  0  0
 11 99  1  0  0  0
 12 13  2  0  0  0
 12100  1  0  0  0
 13 14  1  0  0  0
 13 31  1  0  0  0
 14 15  2  0  0  0
 14101  1  0  0  0
 15102  1  0  0  0
 16 17  2  0  0  0
 16 21  1  0  0  0
 16 31  1  0  0  0
 17 18  1  0  0  0
 17103  1  0  0  0
 18 19  2  0  0  0
 18104  1  0  0  0
 19 20  1  0  0  0
 19 24  1  0  0  0
 20 21  2  0  0  0
 20105  1  0  0  0
 21 23  1  0  0  0
 22 28  1  0  0  0
 22 32  2  0  0  0
 26 27  1  0  0  0
 28106  1  0  0  0
 28107  1  0  0  0
 29108  1  0  0  0
 29109  1  0  0  0
 33 34  1  0  0  0
 33 66  1  0  0  0
 33 70  2  0  0  0
 34 36  1  0  0  0
 34 59  1  0  0  0
 34110  1  0  0  0
 35 44  2  0  0  0
 35 45  1  0  0  0
 35 68  1  0  0  0
 36 56  1  0  0  0
 36111  1  0  0  0
 37 39  1  0  0  0
 37 47  1  0  0  0
 37 66  1  0  0  0
 37112  1  0  0  0
 38 43  2  0  0  0
 38 46  1  0  0  0
 38 47  1  0  0  0
 39 64  1  0  0  0
 39 67  2  0  0  0
 40 52  1  0  0  0
 40 53  2  0  0  0
 40 58  1  0  0  0
 41113  1  0  0  0
 41114  1  0  0  0
 41115  1  0  0  0
 41 48  1  0  0  0
 42 43  1  0  0  0
 42 66  1  0  0  0
 42116  1  0  0  0
 42117  1  0  0  0
 43 44  1  0  0  0
 44118  1  0  0  0
 45 46  2  0  0  0
 45119  1  0  0  0
 46120  1  0  0  0
 47121  1  0  0  0
 47122  1  0  0  0
 48 56  1  0  0  0
 48 65  1  0  0  0
 48123  1  0  0  0
 49 50  1  0  0  0
 49 53  1  0  0  0
 49 64  1  0  0  0
 49124  1  0  0  0
 50 51  1  0  0  0
 50125  1  0  0  0
 50126  1  0  0  0
 51 52  1  0  0  0
 51127  1  0  0  0
 51128  1  0  0  0
 52129  1  0  0  0
 52130  1  0  0  0
 53 54  1  0  0  0
 54 55  2  0  0  0
 54131  1  0  0  0
 55 57  1  0  0  0
 55132  1  0  0  0
 56 69  2  0  0  0
 57 58  2  0  0  0
 57133  1  0  0  0
 58134  1  0  0  0
 59 60  1  0  0  0
 59 61  1  0  0  0
 59 62  1  0  0  0
 60135  1  0  0  0
 60136  1  0  0  0
 60137  1  0  0  0
 61138  1  0  0  0
 61139  1  0  0  0
 61140  1  0  0  0
 62141  1  0  0  0
 62142  1  0  0  0
 62143  1  0  0  0
 63 65  1  0  0  0
 63144  1  0  0  0
 63145  1  0  0  0
 63146  1  0  0  0
 64147  1  0  0  0
 65148  1  0  0  0
 68 84  1  0  0  0
 71 74  2  0  0  0
 71 76  1  0  0  0
 71149  1  0  0  0
 72 74  1  0  0  0
 72 75  2  0  0  0
 72 77  1  0  0  0
 73 75  1  0  0  0
 73 76  2  0  0  0
 73 86  1  0  0  0
 74 87  1  0  0  0
 75 88  1  0  0  0
 76 89  1  0  0  0
 77 79  2  0  0  0
 77150  1  0  0  0
 78 85  1  0  0  0
 78 86  2  0  0  0
 78151  1  0  0  0
 79 80  1  0  0  0
 79 81  1  0  0  0
 80152  1  0  0  0
 80153  1  0  0  0
 80154  1  0  0  0
 81155  1  0  0  0
 81156  1  0  0  0
 81157  1  0  0  0
 82158  1  0  0  0
 82159  1  0  0  0
 82160  1  0  0  0
 82 85  1  0  0  0
 83 88  1  0  0  0
 83161  1  0  0  0
 83162  1  0  0  0
 83163  1  0  0  0
 84 85  1  0  0  0
 84164  1  0  0  0
 84165  1  0  0  0
 85166  1  0  0  0
 87167  1  0  0  0
M  ISO  4   1 100  68 101  84 101  87 100
M  END
> <chiral flag>
0

> <version>
0

> <s_m_source_file>
/data/baiqing/PycharmProjects/Reinvent-master-3.2/result/LINK_invent/BTK/process_docking_weight1_custom_product_contain_oxygen_bond_distance_aromatic_linkinvent_7_9_3/rearranged_h_0115.sdf

> <i_m_source_file_index>
42

> <r_mmod_Potential_Energy-OPLS-2005>
202.050064086914

> <r_mmod_Stretch_Energy-OPLS-2005>
93.8666305541992

> <r_mmod_Bend_Energy-OPLS-2005>
154.628112792969

> <r_mmod_Torsional_Energy-OPLS-2005>
293.628265380859

> <r_mmod_Improper_Torsional_Energy-OPLS-2005>
9.17794895172119

> <r_mmod_Van_der_Waal_Energy-OPLS-2005>
153.803085327148

> <r_mmod_Electrostatic_Energy-OPLS-2005>
-371.3984375

> <r_mmod_Solvation_Energy-OPLS-2005>
-196.170272827148

> <b_mmod_Minimization_Converged-OPLS-2005>
0

> <r_mmod_RMS_Derivative-OPLS-2005>
1.90815091133118

$$$$
42
                    3D
 Structure written by MMmdl.
158166  0  0  1  0            999 V2000
  -30.6241  -14.7470   20.5331 C   0  0  0  0  0  0
  -30.4323  -12.4671   19.4883 C   0  0  0  0  0  0
  -29.5186  -12.5287   18.2462 C   0  0  0  0  0  0
  -28.0439  -12.3448   18.6502 C   0  0  0  0  0  0
  -27.6485  -13.2322   19.8600 C   0  0  2  0  0  0
  -28.6866  -13.1579   21.0024 C   0  0  0  0  0  0
  -25.2481  -13.8132   20.5497 C   0  0  0  0  0  0
  -24.1815  -13.0429   20.9206 C   0  0  0  0  0  0
  -24.6414  -11.6914   20.8792 C   0  0  0  0  0  0
  -23.9083  -10.4298   21.0439 C   0  0  0  0  0  0
  -24.3631   -9.4198   21.9195 C   0  0  0  0  0  0
  -23.6304   -8.2233   22.0742 C   0  0  0  0  0  0
  -22.4282   -8.0285   21.3535 C   0  0  0  0  0  0
  -21.9925   -9.0265   20.4647 C   0  0  0  0  0  0
  -22.7260  -10.2144   20.3075 C   0  0  0  0  0  0
  -21.6851   -6.0758   22.5280 C   0  0  0  0  0  0
  -21.4032   -6.5653   23.8227 C   0  0  0  0  0  0
  -21.3653   -5.6785   24.9174 C   0  0  0  0  0  0
  -21.6030   -4.3048   24.7194 C   0  0  0  0  0  0
  -21.8830   -3.8162   23.4309 C   0  0  0  0  0  0
  -21.9202   -4.6992   22.3385 C   0  0  0  0  0  0
  -22.7844  -13.5231   21.1858 C   0  0  0  0  0  0
  -22.1647   -4.2198   21.0951 F   0  0  0  0  0  0
  -21.5606   -3.4516   25.7693 F   0  0  0  0  0  0
  -29.9919  -13.5214   20.4383 N   0  0  0  0  0  0
  -26.2964  -12.9373   20.3270 N   0  0  0  0  0  0
  -25.9353  -11.6528   20.5802 N   0  0  0  0  0  0
  -22.0480  -12.8264   22.0439 N   0  0  0  0  0  0
  -25.4101  -15.1768   20.3440 N   0  0  0  0  0  0
  -31.7244  -14.8721   19.9851 O   0  0  0  0  0  0
  -21.6617   -6.8905   21.4246 O   0  0  0  0  0  0
  -22.3531  -14.5520   20.6672 O   0  0  0  0  0  0
  -24.6312  -31.8534   23.1944 C   0  0  0  0  0  0
  -25.9128  -32.4743   23.8316 C   0  0  1  0  0  0
  -27.2396  -27.2638   20.1290 C   0  0  0  0  0  0
  -25.5919  -33.8548   24.2228 N   0  0  0  0  0  0
  -23.4297  -30.4703   21.5361 C   0  0  2  0  0  0
  -24.8806  -28.9061   20.1098 C   0  0  0  0  0  0
  -22.7503  -29.4587   22.4896 C   0  0  0  0  0  0
  -18.0294  -28.1413   22.8467 C   0  0  0  0  0  0
  -24.1483  -36.7281   23.2646 C   0  0  0  0  0  0
  -25.9718  -30.7653   21.3724 C   0  0  0  0  0  0
  -26.0471  -29.3853   20.7175 C   0  0  0  0  0  0
  -27.2242  -28.5744   20.7174 C   0  0  0  0  0  0
  -26.0474  -26.8387   19.5041 C   0  0  0  0  0  0
  -24.8850  -27.6417   19.4949 C   0  0  0  0  0  0
  -23.6499  -29.7934   20.1549 C   0  0  0  0  0  0
  -25.4116  -36.3070   24.0318 C   0  0  1  0  0  0
  -20.5895  -28.3708   23.1261 C   0  0  2  0  0  0
  -20.6778  -26.9423   22.5390 C   0  0  0  0  0  0
  -19.5742  -26.6403   21.5200 C   0  0  0  0  0  0
  -18.1927  -26.7954   22.1620 C   0  0  0  0  0  0
  -19.1547  -28.8877   23.2864 C   0  0  0  0  0  0
  -18.9473  -30.1480   23.8875 C   0  0  0  0  0  0
  -17.6466  -30.6592   24.0567 C   0  0  0  0  0  0
  -25.9058  -34.9442   23.5081 C   0  0  0  0  0  0
  -16.5355  -29.9089   23.6331 C   0  0  0  0  0  0
  -16.7286  -28.6523   23.0329 C   0  0  0  0  0  0
  -26.4488  -31.6593   25.0718 C   0  0  0  0  0  0
  -25.3709  -31.3755   26.1435 C   0  0  0  0  0  0
  -27.0360  -30.3015   24.6246 C   0  0  0  0  0  0
  -27.6034  -32.4366   25.7490 C   0  0  0  0  0  0
  -27.5577  -37.1800   24.8468 C   0  0  0  0  0  0
  -21.4207  -29.3060   22.3656 N   0  0  0  0  0  0
  -26.4292  -37.3771   23.9406 N   0  0  0  0  0  0
  -24.6960  -31.0499   22.0912 N   0  0  0  0  0  0
  -23.4197  -28.8144   23.3011 O   0  0  0  0  0  0
  -28.3756  -26.4284   20.2146 O   0  0  0  0  0  0
  -26.5643  -34.8919   22.4656 O   0  0  0  0  0  0
  -23.5453  -32.1346   23.7234 O   0  0  0  0  0  0
  -27.9615  -17.2115   21.4488 C   0  0  0  0  0  0
  -27.1075  -18.2694   21.4794 C   0  0  0  0  0  0
  -27.5181  -19.6008   20.9720 C   0  0  0  0  0  0
  -29.7347  -18.5188   20.4960 C   0  0  0  0  0  0
  -25.7618  -18.0948   22.0808 C   0  0  0  0  0  0
  -30.1239  -16.0077   21.4009 C   0  0  0  0  0  0
  -29.1864  -22.4380   20.6949 C   0  0  0  0  0  0
  -28.1578  -23.6871   20.4706 C   0  0  0  0  0  0
  -29.2071  -21.0273   19.8738 C   0  0  0  0  0  0
  -28.5070  -25.0406   19.6527 C   0  0  0  0  0  0
  -29.2711  -17.2283   20.9837 N   0  0  0  0  0  0
  -28.8509  -19.6853   20.5102 N   0  0  0  0  0  0
  -24.8244  -19.0011   21.8046 N   0  0  0  0  0  0
  -26.7976  -20.6077   20.9169 O   0  0  0  0  0  0
  -30.8945  -18.6140   20.0930 O   0  0  0  0  0  0
  -25.4400  -17.1447   22.7955 O   0  0  0  0  0  0
  -31.4760  -12.5816   19.1903 H   0  0  0  0  0  0
  -30.3721  -11.4846   19.9597 H   0  0  0  0  0  0
  -29.8088  -11.7598   17.5289 H   0  0  0  0  0  0
  -29.6538  -13.4869   17.7417 H   0  0  0  0  0  0
  -27.8974  -11.2943   18.9023 H   0  0  0  0  0  0
  -27.3903  -12.5463   17.8006 H   0  0  0  0  0  0
  -27.6510  -14.2595   19.4944 H   0  0  0  0  0  0
  -28.7227  -12.1548   21.4288 H   0  0  0  0  0  0
  -28.4014  -13.8246   21.8158 H   0  0  0  0  0  0
  -25.2774   -9.5669   22.4774 H   0  0  0  0  0  0
  -24.0026   -7.4604   22.7434 H   0  0  0  0  0  0
  -21.0879   -8.8791   19.8933 H   0  0  0  0  0  0
  -22.3721  -10.9690   19.6190 H   0  0  0  0  0  0
  -21.2030   -7.6160   23.9745 H   0  0  0  0  0  0
  -21.1459   -6.0495   25.9078 H   0  0  0  0  0  0
  -22.0625   -2.7631   23.2773 H   0  0  0  0  0  0
  -22.4105  -11.9939   22.4858 H   0  0  0  0  0  0
  -21.1103  -13.1337   22.2636 H   0  0  0  0  0  0
  -24.6392  -15.8244   20.4663 H   0  0  0  0  0  0
  -26.2035  -15.5789   19.8656 H   0  0  0  0  0  0
  -26.7193  -32.5396   23.1063 H   0  0  0  0  0  0
  -25.0035  -33.9681   25.0352 H   0  0  0  0  0  0
  -22.7266  -31.2911   21.3835 H   0  0  0  0  0  0
  -23.3743  -35.9615   23.3309 H   0  0  0  0  0  0
  -24.3572  -36.8910   22.2065 H   0  0  0  0  0  0
  -23.7228  -37.6478   23.6673 H   0  0  0  0  0  0
  -26.1105  -31.5236   20.6015 H   0  0  0  0  0  0
  -26.8478  -30.8192   22.0071 H   0  0  0  0  0  0
  -28.1185  -28.9366   21.2059 H   0  0  0  0  0  0
  -25.9874  -25.8609   19.0491 H   0  0  0  0  0  0
  -23.9863  -27.2638   19.0255 H   0  0  0  0  0  0
  -23.7759  -30.5638   19.3926 H   0  0  0  0  0  0
  -22.7692  -29.2248   19.8526 H   0  0  0  0  0  0
  -25.1299  -36.1920   25.0812 H   0  0  0  0  0  0
  -20.9989  -28.3279   24.1381 H   0  0  0  0  0  0
  -20.5695  -26.2309   23.3586 H   0  0  0  0  0  0
  -21.6641  -26.7457   22.1171 H   0  0  0  0  0  0
  -19.6895  -25.6324   21.1212 H   0  0  0  0  0  0
  -19.6675  -27.3213   20.6733 H   0  0  0  0  0  0
  -17.4192  -26.6687   21.4028 H   0  0  0  0  0  0
  -18.0338  -26.0126   22.9051 H   0  0  0  0  0  0
  -19.7946  -30.7314   24.2225 H   0  0  0  0  0  0
  -17.5005  -31.6256   24.5201 H   0  0  0  0  0  0
  -15.5351  -30.2967   23.7669 H   0  0  0  0  0  0
  -15.8696  -28.0837   22.7027 H   0  0  0  0  0  0
  -24.5855  -30.7143   25.7748 H   0  0  0  0  0  0
  -24.8926  -32.2929   26.4885 H   0  0  0  0  0  0
  -25.8005  -30.8900   27.0205 H   0  0  0  0  0  0
  -26.2967  -29.6740   24.1252 H   0  0  0  0  0  0
  -27.4005  -29.7315   25.4803 H   0  0  0  0  0  0
  -27.8846  -30.4283   23.9518 H   0  0  0  0  0  0
  -27.2621  -33.3658   26.2068 H   0  0  0  0  0  0
  -28.3829  -32.6956   25.0312 H   0  0  0  0  0  0
  -28.0720  -31.8510   26.5413 H   0  0  0  0  0  0
  -28.2599  -38.0095   24.7505 H   0  0  0  0  0  0
  -28.1067  -36.2626   24.6299 H   0  0  0  0  0  0
  -27.2300  -37.1453   25.8876 H   0  0  0  0  0  0
  -20.9394  -29.8791   21.6868 H   0  0  0  0  0  0
  -26.0164  -38.2840   24.1424 H   0  0  0  0  0  0
  -27.6002  -16.2756   21.8535 H   0  0  0  0  0  0
  -29.6945  -15.5888   22.3105 H   0  0  0  0  0  0
  -31.0494  -16.4460   21.7774 H   0  0  0  0  0  0
  -29.0967  -22.1599   21.7443 H   0  0  0  0  0  0
  -30.1933  -22.8540   20.6441 H   0  0  0  0  0  0
  -27.9147  -24.0329   21.4766 H   0  0  0  0  0  0
  -27.2096  -23.2969   20.1010 H   0  0  0  0  0  0
  -30.2076  -20.8948   19.4644 H   0  0  0  0  0  0
  -28.5567  -21.1002   19.0007 H   0  0  0  0  0  0
  -28.0138  -25.0009   18.6812 H   0  0  0  0  0  0
  -29.5641  -24.9690   19.3948 H   0  0  0  0  0  0
  -23.8882  -18.9090   22.1717 H   0  0  0  0  0  0
  -25.0731  -19.8240   21.2629 H   0  0  0  0  0  0
  1 25  1  0  0  0
  1 30  2  0  0  0
  1 76  1  0  0  0
  2  3  1  0  0  0
  2 25  1  0  0  0
  2 87  1  0  0  0
  2 88  1  0  0  0
  3  4  1  0  0  0
  3 89  1  0  0  0
  3 90  1  0  0  0
  4  5  1  0  0  0
  4 91  1  0  0  0
  4 92  1  0  0  0
  5  6  1  0  0  0
  5 26  1  0  0  0
  5 93  1  0  0  0
  6 25  1  0  0  0
  6 94  1  0  0  0
  6 95  1  0  0  0
  7  8  2  0  0  0
  7 26  1  0  0  0
  7 29  1  0  0  0
  8  9  1  0  0  0
  8 22  1  0  0  0
  9 10  1  0  0  0
  9 27  2  0  0  0
 10 11  2  0  0  0
 10 15  1  0  0  0
 11 12  1  0  0  0
 11 96  1  0  0  0
 12 13  2  0  0  0
 12 97  1  0  0  0
 13 14  1  0  0  0
 13 31  1  0  0  0
 14 15  2  0  0  0
 14 98  1  0  0  0
 15 99  1  0  0  0
 16 17  2  0  0  0
 16 21  1  0  0  0
 16 31  1  0  0  0
 17 18  1  0  0  0
 17100  1  0  0  0
 18 19  2  0  0  0
 18101  1  0  0  0
 19 20  1  0  0  0
 19 24  1  0  0  0
 20 21  2  0  0  0
 20102  1  0  0  0
 21 23  1  0  0  0
 22 28  1  0  0  0
 22 32  2  0  0  0
 26 27  1  0  0  0
 28103  1  0  0  0
 28104  1  0  0  0
 29105  1  0  0  0
 29106  1  0  0  0
 33 34  1  0  0  0
 33 66  1  0  0  0
 33 70  2  0  0  0
 34 36  1  0  0  0
 34 59  1  0  0  0
 34107  1  0  0  0
 35 44  2  0  0  0
 35 45  1  0  0  0
 35 68  1  0  0  0
 36 56  1  0  0  0
 36108  1  0  0  0
 37 39  1  0  0  0
 37 47  1  0  0  0
 37 66  1  0  0  0
 37109  1  0  0  0
 38 43  2  0  0  0
 38 46  1  0  0  0
 38 47  1  0  0  0
 39 64  1  0  0  0
 39 67  2  0  0  0
 40 52  1  0  0  0
 40 53  2  0  0  0
 40 58  1  0  0  0
 41110  1  0  0  0
 41111  1  0  0  0
 41112  1  0  0  0
 41 48  1  0  0  0
 42 43  1  0  0  0
 42 66  1  0  0  0
 42113  1  0  0  0
 42114  1  0  0  0
 43 44  1  0  0  0
 44115  1  0  0  0
 45 46  2  0  0  0
 45116  1  0  0  0
 46117  1  0  0  0
 47118  1  0  0  0
 47119  1  0  0  0
 48 56  1  0  0  0
 48 65  1  0  0  0
 48120  1  0  0  0
 49 50  1  0  0  0
 49 53  1  0  0  0
 49 64  1  0  0  0
 49121  1  0  0  0
 50 51  1  0  0  0
 50122  1  0  0  0
 50123  1  0  0  0
 51 52  1  0  0  0
 51124  1  0  0  0
 51125  1  0  0  0
 52126  1  0  0  0
 52127  1  0  0  0
 53 54  1  0  0  0
 54 55  2  0  0  0
 54128  1  0  0  0
 55 57  1  0  0  0
 55129  1  0  0  0
 56 69  2  0  0  0
 57 58  2  0  0  0
 57130  1  0  0  0
 58131  1  0  0  0
 59 60  1  0  0  0
 59 61  1  0  0  0
 59 62  1  0  0  0
 60132  1  0  0  0
 60133  1  0  0  0
 60134  1  0  0  0
 61135  1  0  0  0
 61136  1  0  0  0
 61137  1  0  0  0
 62138  1  0  0  0
 62139  1  0  0  0
 62140  1  0  0  0
 63 65  1  0  0  0
 63141  1  0  0  0
 63142  1  0  0  0
 63143  1  0  0  0
 64144  1  0  0  0
 65145  1  0  0  0
 68 80  1  0  0  0
 71 72  2  0  0  0
 71 81  1  0  0  0
 71146  1  0  0  0
 72 73  1  0  0  0
 72 75  1  0  0  0
 73 82  1  0  0  0
 73 84  2  0  0  0
 74 81  1  0  0  0
 74 82  1  0  0  0
 74 85  2  0  0  0
 75 83  1  0  0  0
 75 86  2  0  0  0
 76 81  1  0  0  0
 76147  1  0  0  0
 76148  1  0  0  0
 77 78  1  0  0  0
 77 79  1  0  0  0
 77149  1  0  0  0
 77150  1  0  0  0
 78 80  1  0  0  0
 78151  1  0  0  0
 78152  1  0  0  0
 79 82  1  0  0  0
 79153  1  0  0  0
 79154  1  0  0  0
 80155  1  0  0  0
 80156  1  0  0  0
 83157  1  0  0  0
 83158  1  0  0  0
M  ISO  4   1 100  68 101  76 100  80 101
M  END
> <chiral flag>
0

> <version>
0

> <s_m_source_file>
/data/baiqing/PycharmProjects/Reinvent-master-3.2/result/LINK_invent/BTK/process_docking_weight1_custom_product_contain_oxygen_bond_distance_aromatic_linkinvent_7_9_3/rearranged_h_0115.sdf

> <i_m_source_file_index>
43

> <r_mmod_Potential_Energy-OPLS-2005>
233.703643798828

> <r_mmod_Stretch_Energy-OPLS-2005>
155.537490844727

> <r_mmod_Bend_Energy-OPLS-2005>
264.296051025391

> <r_mmod_Torsional_Energy-OPLS-2005>
203.486022949219

> <r_mmod_Improper_Torsional_Energy-OPLS-2005>
4.26924514770508

> <r_mmod_Van_der_Waal_Energy-OPLS-2005>
155.731979370117

> <r_mmod_Electrostatic_Energy-OPLS-2005>
-397.840301513672

> <r_mmod_Solvation_Energy-OPLS-2005>
-233.544067382812

> <b_mmod_Minimization_Converged-OPLS-2005>
0

> <r_mmod_RMS_Derivative-OPLS-2005>
2.11949515342712

$$$$
43
                    3D
 Structure written by MMmdl.
157165  0  0  1  0            999 V2000
  -30.6545  -14.6962   20.3738 C   0  0  0  0  0  0
  -30.4318  -12.4043   19.4516 C   0  0  0  0  0  0
  -29.4990  -12.4516   18.2212 C   0  0  0  0  0  0
  -28.0244  -12.2783   18.6447 C   0  0  0  0  0  0
  -27.6243  -13.1815   19.8397 C   0  0  2  0  0  0
  -28.6922  -13.1798   20.9569 C   0  0  0  0  0  0
  -25.2529  -13.8030   20.5766 C   0  0  0  0  0  0
  -24.1767  -13.0363   20.9257 C   0  0  0  0  0  0
  -24.6297  -11.6820   20.8822 C   0  0  0  0  0  0
  -23.8972  -10.4240   21.0460 C   0  0  0  0  0  0
  -24.3557   -9.4158   21.9213 C   0  0  0  0  0  0
  -23.6252   -8.2188   22.0757 C   0  0  0  0  0  0
  -22.4237   -8.0239   21.3543 C   0  0  0  0  0  0
  -21.9862   -9.0208   20.4647 C   0  0  0  0  0  0
  -22.7170  -10.2093   20.3078 C   0  0  0  0  0  0
  -21.6831   -6.0717   22.5282 C   0  0  0  0  0  0
  -21.4002   -6.5634   23.8214 C   0  0  0  0  0  0
  -21.3654   -5.6790   24.9179 C   0  0  0  0  0  0
  -21.6040   -4.3049   24.7233 C   0  0  0  0  0  0
  -21.8819   -3.8140   23.4354 C   0  0  0  0  0  0
  -21.9186   -4.6953   22.3408 C   0  0  0  0  0  0
  -22.7805  -13.5202   21.1893 C   0  0  0  0  0  0
  -22.1660   -4.2142   21.0987 F   0  0  0  0  0  0
  -21.5628   -3.4530   25.7745 F   0  0  0  0  0  0
  -30.0035  -13.4832   20.3600 N   0  0  0  0  0  0
  -26.2866  -12.9093   20.3364 N   0  0  0  0  0  0
  -25.9204  -11.6306   20.5850 N   0  0  0  0  0  0
  -22.0435  -12.8212   22.0444 N   0  0  0  0  0  0
  -25.4320  -15.1749   20.4173 N   0  0  0  0  0  0
  -31.8836  -14.7593   20.3081 O   0  0  0  0  0  0
  -21.6611   -6.8836   21.4231 O   0  0  0  0  0  0
  -22.3516  -14.5513   20.6725 O   0  0  0  0  0  0
  -24.6242  -31.8610   23.2021 C   0  0  0  0  0  0
  -25.9097  -32.4785   23.8353 C   0  0  1  0  0  0
  -27.2342  -27.3372   20.1195 C   0  0  0  0  0  0
  -25.5924  -33.8583   24.2286 N   0  0  0  0  0  0
  -23.4175  -30.4827   21.5443 C   0  0  2  0  0  0
  -24.8658  -28.9373   20.1118 C   0  0  0  0  0  0
  -22.7468  -29.4626   22.4943 C   0  0  0  0  0  0
  -18.0289  -28.1379   22.8487 C   0  0  0  0  0  0
  -24.1490  -36.7303   23.2637 C   0  0  0  0  0  0
  -25.9546  -30.7989   21.3666 C   0  0  0  0  0  0
  -26.0316  -29.4250   20.7149 C   0  0  0  0  0  0
  -27.2169  -28.6355   20.7112 C   0  0  0  0  0  0
  -26.0459  -26.8979   19.4900 C   0  0  0  0  0  0
  -24.8738  -27.6783   19.4914 C   0  0  0  0  0  0
  -23.6315  -29.8141   20.1600 C   0  0  0  0  0  0
  -25.4112  -36.3085   24.0329 C   0  0  1  0  0  0
  -20.5883  -28.3683   23.1292 C   0  0  2  0  0  0
  -20.6777  -26.9410   22.5415 C   0  0  0  0  0  0
  -19.5750  -26.6379   21.5215 C   0  0  0  0  0  0
  -18.1933  -26.7922   22.1625 C   0  0  0  0  0  0
  -19.1538  -28.8848   23.2884 C   0  0  0  0  0  0
  -18.9459  -30.1451   23.8897 C   0  0  0  0  0  0
  -17.6458  -30.6580   24.0561 C   0  0  0  0  0  0
  -25.9049  -34.9455   23.5105 C   0  0  0  0  0  0
  -16.5353  -29.9078   23.6319 C   0  0  0  0  0  0
  -16.7277  -28.6497   23.0340 C   0  0  0  0  0  0
  -26.4492  -31.6577   25.0709 C   0  0  0  0  0  0
  -25.3731  -31.3699   26.1440 C   0  0  0  0  0  0
  -27.0320  -30.3011   24.6109 C   0  0  0  0  0  0
  -27.6062  -32.4290   25.7488 C   0  0  0  0  0  0
  -27.5576  -37.1807   24.8463 C   0  0  0  0  0  0
  -21.4182  -29.3038   22.3690 N   0  0  0  0  0  0
  -26.4288  -37.3780   23.9405 N   0  0  0  0  0  0
  -24.6846  -31.0641   22.0954 N   0  0  0  0  0  0
  -23.4203  -28.8175   23.3023 O   0  0  0  0  0  0
  -28.3695  -26.5177   20.1792 O   0  0  0  0  0  0
  -26.5616  -34.8923   22.4669 O   0  0  0  0  0  0
  -23.5414  -32.1395   23.7367 O   0  0  0  0  0  0
  -30.6982  -19.7489   19.8047 C   0  0  0  0  0  0
  -29.1282  -19.3206   21.5664 C   0  0  0  0  0  0
  -30.0584  -17.3851   20.3059 C   0  0  0  0  0  0
  -30.8281  -18.3446   19.5666 C   0  0  0  0  0  0
  -29.8220  -20.2788   20.7846 C   0  0  0  0  0  0
  -29.2329  -17.9188   21.3321 C   0  0  0  0  0  0
  -29.3123  -22.5904   20.2748 C   0  0  0  0  0  0
  -29.8505  -15.9448   19.8312 C   0  0  0  0  0  0
  -31.1937  -17.9459   17.0700 C   0  0  0  0  0  0
  -31.8040  -17.9132   18.4764 C   0  0  0  0  0  0
  -29.3774  -24.1378   20.5527 C   0  0  0  0  0  0
  -28.2114  -25.0595   20.0060 C   0  0  0  0  0  0
  -29.0692  -15.8350   18.8410 N   0  0  0  0  0  0
  -29.7438  -21.6765   21.0883 N   0  0  0  0  0  0
  -28.4656  -17.0820   22.0735 F   0  0  0  0  0  0
  -31.4723  -12.5197   19.1438 H   0  0  0  0  0  0
  -30.3650  -11.4374   19.9533 H   0  0  0  0  0  0
  -29.7733  -11.6710   17.5103 H   0  0  0  0  0  0
  -29.6247  -13.3972   17.6926 H   0  0  0  0  0  0
  -27.8820  -11.2310   18.9126 H   0  0  0  0  0  0
  -27.3634  -12.4655   17.7976 H   0  0  0  0  0  0
  -27.5394  -14.1696   19.4241 H   0  0  0  0  0  0
  -28.7244  -12.2105   21.4561 H   0  0  0  0  0  0
  -28.4431  -13.9148   21.7240 H   0  0  0  0  0  0
  -25.2702   -9.5636   22.4783 H   0  0  0  0  0  0
  -23.9970   -7.4566   22.7458 H   0  0  0  0  0  0
  -21.0806   -8.8716   19.8938 H   0  0  0  0  0  0
  -22.3642  -10.9638   19.6188 H   0  0  0  0  0  0
  -21.1996   -7.6145   23.9714 H   0  0  0  0  0  0
  -21.1475   -6.0527   25.9082 H   0  0  0  0  0  0
  -22.0606   -2.7607   23.2859 H   0  0  0  0  0  0
  -22.4056  -11.9877   22.4828 H   0  0  0  0  0  0
  -21.1045  -13.1232   22.2639 H   0  0  0  0  0  0
  -24.6773  -15.8419   20.5343 H   0  0  0  0  0  0
  -26.3002  -15.6023   20.1168 H   0  0  0  0  0  0
  -26.7174  -32.5471   23.1115 H   0  0  0  0  0  0
  -25.0076  -33.9732   25.0433 H   0  0  0  0  0  0
  -22.7105  -31.3022   21.4001 H   0  0  0  0  0  0
  -23.3744  -35.9643   23.3297 H   0  0  0  0  0  0
  -24.3587  -36.8925   22.2052 H   0  0  0  0  0  0
  -23.7252  -37.6509   23.6659 H   0  0  0  0  0  0
  -26.0725  -31.5579   20.5920 H   0  0  0  0  0  0
  -26.8406  -30.8590   21.9868 H   0  0  0  0  0  0
  -28.1100  -29.0040   21.1954 H   0  0  0  0  0  0
  -25.9992  -25.9374   18.9980 H   0  0  0  0  0  0
  -23.9801  -27.2988   19.0148 H   0  0  0  0  0  0
  -23.7485  -30.5883   19.4012 H   0  0  0  0  0  0
  -22.7530  -29.2400   19.8600 H   0  0  0  0  0  0
  -25.1288  -36.1940   25.0821 H   0  0  0  0  0  0
  -20.9976  -28.3255   24.1411 H   0  0  0  0  0  0
  -20.5684  -26.2292   23.3613 H   0  0  0  0  0  0
  -21.6645  -26.7445   22.1206 H   0  0  0  0  0  0
  -19.6917  -25.6291   21.1241 H   0  0  0  0  0  0
  -19.6686  -27.3191   20.6748 H   0  0  0  0  0  0
  -17.4203  -26.6672   21.4025 H   0  0  0  0  0  0
  -18.0334  -26.0064   22.9023 H   0  0  0  0  0  0
  -19.7935  -30.7268   24.2267 H   0  0  0  0  0  0
  -17.5011  -31.6260   24.5161 H   0  0  0  0  0  0
  -15.5351  -30.2980   23.7633 H   0  0  0  0  0  0
  -15.8682  -28.0820   22.7039 H   0  0  0  0  0  0
  -24.5925  -30.7026   25.7770 H   0  0  0  0  0  0
  -24.8902  -32.2857   26.4858 H   0  0  0  0  0  0
  -25.8069  -30.8892   27.0217 H   0  0  0  0  0  0
  -26.2870  -29.6780   24.1148 H   0  0  0  0  0  0
  -27.4065  -29.7243   25.4577 H   0  0  0  0  0  0
  -27.8720  -30.4323   23.9281 H   0  0  0  0  0  0
  -27.2690  -33.3593   26.2070 H   0  0  0  0  0  0
  -28.3884  -32.6833   25.0322 H   0  0  0  0  0  0
  -28.0713  -31.8397   26.5403 H   0  0  0  0  0  0
  -28.2590  -38.0106   24.7506 H   0  0  0  0  0  0
  -28.1072  -36.2637   24.6285 H   0  0  0  0  0  0
  -27.2298  -37.1456   25.8867 H   0  0  0  0  0  0
  -20.9362  -29.8772   21.6905 H   0  0  0  0  0  0
  -26.0168  -38.2854   24.1401 H   0  0  0  0  0  0
  -31.2963  -20.4340   19.2201 H   0  0  0  0  0  0
  -28.4739  -19.6595   22.3564 H   0  0  0  0  0  0
  -28.8944  -22.3317   19.2983 H   0  0  0  0  0  0
  -31.9310  -17.6428   16.3265 H   0  0  0  0  0  0
  -30.8477  -18.9457   16.8091 H   0  0  0  0  0  0
  -30.3484  -17.2660   16.9795 H   0  0  0  0  0  0
  -32.2047  -16.9217   18.6876 H   0  0  0  0  0  0
  -32.6699  -18.5773   18.5034 H   0  0  0  0  0  0
  -30.3150  -24.4959   20.1285 H   0  0  0  0  0  0
  -29.4649  -24.2876   21.6289 H   0  0  0  0  0  0
  -27.2953  -24.7376   20.5036 H   0  0  0  0  0  0
  -28.0778  -24.8614   18.9417 H   0  0  0  0  0  0
  -28.6904  -16.7345   18.5730 H   0  0  0  0  0  0
  1 25  1  0  0  0
  1 30  2  0  0  0
  1 78  1  0  0  0
  2  3  1  0  0  0
  2 25  1  0  0  0
  2 86  1  0  0  0
  2 87  1  0  0  0
  3  4  1  0  0  0
  3 88  1  0  0  0
  3 89  1  0  0  0
  4  5  1  0  0  0
  4 90  1  0  0  0
  4 91  1  0  0  0
  5  6  1  0  0  0
  5 26  1  0  0  0
  5 92  1  0  0  0
  6 25  1  0  0  0
  6 93  1  0  0  0
  6 94  1  0  0  0
  7  8  2  0  0  0
  7 26  1  0  0  0
  7 29  1  0  0  0
  8  9  1  0  0  0
  8 22  1  0  0  0
  9 10  1  0  0  0
  9 27  2  0  0  0
 10 11  2  0  0  0
 10 15  1  0  0  0
 11 12  1  0  0  0
 11 95  1  0  0  0
 12 13  2  0  0  0
 12 96  1  0  0  0
 13 14  1  0  0  0
 13 31  1  0  0  0
 14 15  2  0  0  0
 14 97  1  0  0  0
 15 98  1  0  0  0
 16 17  2  0  0  0
 16 21  1  0  0  0
 16 31  1  0  0  0
 17 18  1  0  0  0
 17 99  1  0  0  0
 18 19  2  0  0  0
 18100  1  0  0  0
 19 20  1  0  0  0
 19 24  1  0  0  0
 20 21  2  0  0  0
 20101  1  0  0  0
 21 23  1  0  0  0
 22 28  1  0  0  0
 22 32  2  0  0  0
 26 27  1  0  0  0
 28102  1  0  0  0
 28103  1  0  0  0
 29104  1  0  0  0
 29105  1  0  0  0
 33 34  1  0  0  0
 33 66  1  0  0  0
 33 70  2  0  0  0
 34 36  1  0  0  0
 34 59  1  0  0  0
 34106  1  0  0  0
 35 44  2  0  0  0
 35 45  1  0  0  0
 35 68  1  0  0  0
 36 56  1  0  0  0
 36107  1  0  0  0
 37 39  1  0  0  0
 37 47  1  0  0  0
 37 66  1  0  0  0
 37108  1  0  0  0
 38 43  2  0  0  0
 38 46  1  0  0  0
 38 47  1  0  0  0
 39 64  1  0  0  0
 39 67  2  0  0  0
 40 52  1  0  0  0
 40 53  2  0  0  0
 40 58  1  0  0  0
 41109  1  0  0  0
 41110  1  0  0  0
 41111  1  0  0  0
 41 48  1  0  0  0
 42 43  1  0  0  0
 42 66  1  0  0  0
 42112  1  0  0  0
 42113  1  0  0  0
 43 44  1  0  0  0
 44114  1  0  0  0
 45 46  2  0  0  0
 45115  1  0  0  0
 46116  1  0  0  0
 47117  1  0  0  0
 47118  1  0  0  0
 48 56  1  0  0  0
 48 65  1  0  0  0
 48119  1  0  0  0
 49 50  1  0  0  0
 49 53  1  0  0  0
 49 64  1  0  0  0
 49120  1  0  0  0
 50 51  1  0  0  0
 50121  1  0  0  0
 50122  1  0  0  0
 51 52  1  0  0  0
 51123  1  0  0  0
 51124  1  0  0  0
 52125  1  0  0  0
 52126  1  0  0  0
 53 54  1  0  0  0
 54 55  2  0  0  0
 54127  1  0  0  0
 55 57  1  0  0  0
 55128  1  0  0  0
 56 69  2  0  0  0
 57 58  2  0  0  0
 57129  1  0  0  0
 58130  1  0  0  0
 59 60  1  0  0  0
 59 61  1  0  0  0
 59 62  1  0  0  0
 60131  1  0  0  0
 60132  1  0  0  0
 60133  1  0  0  0
 61134  1  0  0  0
 61135  1  0  0  0
 61136  1  0  0  0
 62137  1  0  0  0
 62138  1  0  0  0
 62139  1  0  0  0
 63 65  1  0  0  0
 63140  1  0  0  0
 63141  1  0  0  0
 63142  1  0  0  0
 64143  1  0  0  0
 65144  1  0  0  0
 68 82  1  0  0  0
 71 74  2  0  0  0
 71 75  1  0  0  0
 71145  1  0  0  0
 72 75  2  0  0  0
 72 76  1  0  0  0
 72146  1  0  0  0
 73 74  1  0  0  0
 73 76  2  0  0  0
 73 78  1  0  0  0
 74 80  1  0  0  0
 75 84  1  0  0  0
 76 85  1  0  0  0
 77 81  1  0  0  0
 77 84  2  0  0  0
 77147  1  0  0  0
 78 83  2  0  0  0
 79 80  1  0  0  0
 79148  1  0  0  0
 79149  1  0  0  0
 79150  1  0  0  0
 80151  1  0  0  0
 80152  1  0  0  0
 81 82  1  0  0  0
 81153  1  0  0  0
 81154  1  0  0  0
 82155  1  0  0  0
 82156  1  0  0  0
 83157  1  0  0  0
M  ISO  4   1 100  68 101  78 100  82 101
M  END
> <chiral flag>
0

> <version>
0

> <s_m_source_file>
/data/baiqing/PycharmProjects/Reinvent-master-3.2/result/LINK_invent/BTK/process_docking_weight1_custom_product_contain_oxygen_bond_distance_aromatic_linkinvent_7_9_3/rearranged_h_0115.sdf

> <i_m_source_file_index>
44

> <r_mmod_Potential_Energy-OPLS-2005>
300.951629638672

> <r_mmod_Stretch_Energy-OPLS-2005>
81.0565948486328

> <r_mmod_Bend_Energy-OPLS-2005>
140.537048339844

> <r_mmod_Torsional_Energy-OPLS-2005>
271.998596191406

> <r_mmod_Improper_Torsional_Energy-OPLS-2005>
22.7895011901855

> <r_mmod_Van_der_Waal_Energy-OPLS-2005>
146.415939331055

> <r_mmod_Electrostatic_Energy-OPLS-2005>
-240.609252929688

> <r_mmod_Solvation_Energy-OPLS-2005>
-191.425384521484

> <b_mmod_Minimization_Converged-OPLS-2005>
0

> <r_mmod_RMS_Derivative-OPLS-2005>
1.25934243202209

$$$$
44
                    3D
 Structure written by MMmdl.
157165  0  0  1  0            999 V2000
  -30.5887  -14.7112   20.4770 C   0  0  0  0  0  0
  -30.4433  -12.4303   19.4692 C   0  0  0  0  0  0
  -29.5165  -12.5118   18.2337 C   0  0  0  0  0  0
  -28.0368  -12.3518   18.6400 C   0  0  0  0  0  0
  -27.6511  -13.2226   19.8646 C   0  0  2  0  0  0
  -28.6967  -13.1037   20.9967 C   0  0  0  0  0  0
  -25.2543  -13.8170   20.5690 C   0  0  0  0  0  0
  -24.1812  -13.0430   20.9187 C   0  0  0  0  0  0
  -24.6389  -11.6906   20.8732 C   0  0  0  0  0  0
  -23.9048  -10.4294   21.0399 C   0  0  0  0  0  0
  -24.3604   -9.4212   21.9177 C   0  0  0  0  0  0
  -23.6288   -8.2239   22.0741 C   0  0  0  0  0  0
  -22.4270   -8.0268   21.3532 C   0  0  0  0  0  0
  -21.9905   -9.0241   20.4632 C   0  0  0  0  0  0
  -22.7224  -10.2128   20.3043 C   0  0  0  0  0  0
  -21.6854   -6.0727   22.5274 C   0  0  0  0  0  0
  -21.4014   -6.5629   23.8210 C   0  0  0  0  0  0
  -21.3661   -5.6779   24.9172 C   0  0  0  0  0  0
  -21.6047   -4.3043   24.7221 C   0  0  0  0  0  0
  -21.8823   -3.8133   23.4341 C   0  0  0  0  0  0
  -21.9195   -4.6954   22.3398 C   0  0  0  0  0  0
  -22.7835  -13.5226   21.1862 C   0  0  0  0  0  0
  -22.1663   -4.2138   21.0977 F   0  0  0  0  0  0
  -21.5636   -3.4528   25.7735 F   0  0  0  0  0  0
  -30.0049  -13.4658   20.4309 N   0  0  0  0  0  0
  -26.2978  -12.9366   20.3324 N   0  0  0  0  0  0
  -25.9323  -11.6512   20.5746 N   0  0  0  0  0  0
  -22.0466  -12.8221   22.0413 N   0  0  0  0  0  0
  -25.4241  -15.1896   20.4150 N   0  0  0  0  0  0
  -31.7486  -14.8773   20.0899 O   0  0  0  0  0  0
  -21.6631   -6.8867   21.4237 O   0  0  0  0  0  0
  -22.3527  -14.5540   20.6712 O   0  0  0  0  0  0
  -24.6309  -31.8551   23.1997 C   0  0  0  0  0  0
  -25.9140  -32.4752   23.8344 C   0  0  1  0  0  0
  -27.2288  -27.2837   20.1150 C   0  0  0  0  0  0
  -25.5935  -33.8551   24.2261 N   0  0  0  0  0  0
  -23.4272  -30.4774   21.5419 C   0  0  2  0  0  0
  -24.8768  -28.9295   20.1054 C   0  0  0  0  0  0
  -22.7502  -29.4597   22.4909 C   0  0  0  0  0  0
  -18.0287  -28.1393   22.8481 C   0  0  0  0  0  0
  -24.1476  -36.7266   23.2643 C   0  0  0  0  0  0
  -25.9716  -30.7742   21.3772 C   0  0  0  0  0  0
  -26.0467  -29.3995   20.7164 C   0  0  0  0  0  0
  -27.2234  -28.5848   20.7183 C   0  0  0  0  0  0
  -26.0318  -26.8723   19.4864 C   0  0  0  0  0  0
  -24.8729  -27.6728   19.4804 C   0  0  0  0  0  0
  -23.6455  -29.8129   20.1570 C   0  0  0  0  0  0
  -25.4102  -36.3054   24.0329 C   0  0  1  0  0  0
  -20.5893  -28.3700   23.1271 C   0  0  2  0  0  0
  -20.6770  -26.9412   22.5412 C   0  0  0  0  0  0
  -19.5749  -26.6386   21.5213 C   0  0  0  0  0  0
  -18.1931  -26.7935   22.1622 C   0  0  0  0  0  0
  -19.1544  -28.8860   23.2874 C   0  0  0  0  0  0
  -18.9466  -30.1463   23.8889 C   0  0  0  0  0  0
  -17.6465  -30.6588   24.0560 C   0  0  0  0  0  0
  -25.9050  -34.9432   23.5097 C   0  0  0  0  0  0
  -16.5354  -29.9087   23.6334 C   0  0  0  0  0  0
  -16.7275  -28.6508   23.0349 C   0  0  0  0  0  0
  -26.4508  -31.6574   25.0731 C   0  0  0  0  0  0
  -25.3731  -31.3710   26.1446 C   0  0  0  0  0  0
  -27.0368  -30.2996   24.6218 C   0  0  0  0  0  0
  -27.6068  -32.4303   25.7507 C   0  0  0  0  0  0
  -27.5563  -37.1785   24.8466 C   0  0  0  0  0  0
  -21.4207  -29.3043   22.3654 N   0  0  0  0  0  0
  -26.4267  -37.3760   23.9416 N   0  0  0  0  0  0
  -24.6956  -31.0528   22.0966 N   0  0  0  0  0  0
  -23.4207  -28.8138   23.3002 O   0  0  0  0  0  0
  -28.3020  -26.3708   20.2153 O   0  0  0  0  0  0
  -26.5623  -34.8912   22.4665 O   0  0  0  0  0  0
  -23.5465  -32.1366   23.7301 O   0  0  0  0  0  0
  -30.0671  -18.2324   21.3976 C   0  0  0  0  0  0
  -28.8572  -19.0599   19.0268 C   0  0  0  0  0  0
  -29.1169  -17.6612   19.2642 C   0  0  0  0  0  0
  -29.7323  -17.2002   20.4689 C   0  0  0  0  0  0
  -29.1728  -20.0893   19.9743 C   0  0  0  0  0  0
  -29.8096  -19.6275   21.1642 C   0  0  0  0  0  0
  -28.7015  -19.8817   16.6807 C   0  0  0  0  0  0
  -28.1187  -19.4366   17.8055 C   0  0  0  0  0  0
  -28.7566  -24.0017   19.2619 C   0  0  0  0  0  0
  -28.4747  -25.3631   19.2454 C   0  0  0  0  0  0
  -28.6776  -16.6462   18.2114 C   0  0  0  0  0  0
  -28.9900  -22.8147   20.2795 C   0  0  0  0  0  0
  -29.7709  -15.7646   20.8403 N   0  0  0  0  0  0
  -28.7984  -21.4558   19.6470 N   0  0  0  0  0  0
  -30.1489  -20.5229   22.1246 F   0  0  0  0  0  0
  -31.4852  -12.5603   19.1707 H   0  0  0  0  0  0
  -30.3863  -11.4407   19.9254 H   0  0  0  0  0  0
  -29.7901  -11.7453   17.5085 H   0  0  0  0  0  0
  -29.6579  -13.4672   17.7280 H   0  0  0  0  0  0
  -27.8717  -11.2997   18.8721 H   0  0  0  0  0  0
  -27.3852  -12.5832   17.7956 H   0  0  0  0  0  0
  -27.6585  -14.2543   19.5172 H   0  0  0  0  0  0
  -28.7226  -12.0869   21.3917 H   0  0  0  0  0  0
  -28.4316  -13.7420   21.8406 H   0  0  0  0  0  0
  -25.2747   -9.5700   22.4749 H   0  0  0  0  0  0
  -24.0001   -7.4635   22.7465 H   0  0  0  0  0  0
  -21.0832   -8.8756   19.8946 H   0  0  0  0  0  0
  -22.3677  -10.9655   19.6147 H   0  0  0  0  0  0
  -21.2000   -7.6140   23.9716 H   0  0  0  0  0  0
  -21.1484   -6.0502   25.9077 H   0  0  0  0  0  0
  -22.0602   -2.7596   23.2833 H   0  0  0  0  0  0
  -22.4064  -11.9878   22.4805 H   0  0  0  0  0  0
  -21.1088  -13.1253   22.2612 H   0  0  0  0  0  0
  -24.6557  -15.8407   20.5341 H   0  0  0  0  0  0
  -26.2756  -15.6367   20.1023 H   0  0  0  0  0  0
  -26.7215  -32.5408   23.1096 H   0  0  0  0  0  0
  -25.0074  -33.9681   25.0403 H   0  0  0  0  0  0
  -22.7236  -31.2996   21.3971 H   0  0  0  0  0  0
  -23.3744  -35.9594   23.3303 H   0  0  0  0  0  0
  -24.3566  -36.8891   22.2059 H   0  0  0  0  0  0
  -23.7226  -37.6464   23.6669 H   0  0  0  0  0  0
  -26.1088  -31.5370   20.6094 H   0  0  0  0  0  0
  -26.8496  -30.8221   22.0101 H   0  0  0  0  0  0
  -28.1150  -28.9304   21.2239 H   0  0  0  0  0  0
  -25.9651  -25.8957   19.0298 H   0  0  0  0  0  0
  -23.9746  -27.3024   19.0070 H   0  0  0  0  0  0
  -23.7680  -30.5899   19.4018 H   0  0  0  0  0  0
  -22.7652  -29.2450   19.8506 H   0  0  0  0  0  0
  -25.1287  -36.1892   25.0823 H   0  0  0  0  0  0
  -20.9995  -28.3276   24.1386 H   0  0  0  0  0  0
  -20.5658  -26.2307   23.3619 H   0  0  0  0  0  0
  -21.6638  -26.7424   22.1213 H   0  0  0  0  0  0
  -19.6903  -25.6295   21.1247 H   0  0  0  0  0  0
  -19.6696  -27.3189   20.6735 H   0  0  0  0  0  0
  -17.4203  -26.6684   21.4022 H   0  0  0  0  0  0
  -18.0328  -26.0079   22.9023 H   0  0  0  0  0  0
  -19.7939  -30.7273   24.2263 H   0  0  0  0  0  0
  -17.5019  -31.6264   24.5171 H   0  0  0  0  0  0
  -15.5356  -30.2982   23.7666 H   0  0  0  0  0  0
  -15.8678  -28.0825   22.7067 H   0  0  0  0  0  0
  -24.5927  -30.7037   25.7766 H   0  0  0  0  0  0
  -24.8899  -32.2873   26.4851 H   0  0  0  0  0  0
  -25.8053  -30.8905   27.0235 H   0  0  0  0  0  0
  -26.2958  -29.6727   24.1247 H   0  0  0  0  0  0
  -27.4057  -29.7271   25.4738 H   0  0  0  0  0  0
  -27.8828  -30.4271   23.9461 H   0  0  0  0  0  0
  -27.2693  -33.3610   26.2078 H   0  0  0  0  0  0
  -28.3896  -32.6844   25.0349 H   0  0  0  0  0  0
  -28.0723  -31.8430   26.5433 H   0  0  0  0  0  0
  -28.2582  -38.0082   24.7516 H   0  0  0  0  0  0
  -28.1055  -36.2615   24.6283 H   0  0  0  0  0  0
  -27.2287  -37.1424   25.8871 H   0  0  0  0  0  0
  -20.9391  -29.8765   21.6859 H   0  0  0  0  0  0
  -26.0142  -38.2827   24.1441 H   0  0  0  0  0  0
  -30.5002  -17.9547   22.3469 H   0  0  0  0  0  0
  -28.1094  -20.1460   15.8156 H   0  0  0  0  0  0
  -29.7747  -19.9871   16.6079 H   0  0  0  0  0  0
  -27.0425  -19.3430   17.8462 H   0  0  0  0  0  0
  -28.8565  -23.6242   18.2541 H   0  0  0  0  0  0
  -28.3763  -25.8223   18.2704 H   0  0  0  0  0  0
  -28.9012  -16.9968   17.2037 H   0  0  0  0  0  0
  -27.6045  -16.4696   18.2806 H   0  0  0  0  0  0
  -29.1864  -15.6919   18.3066 H   0  0  0  0  0  0
  -28.3228  -22.9327   21.1351 H   0  0  0  0  0  0
  -30.0107  -22.8792   20.6592 H   0  0  0  0  0  0
  -28.9013  -15.4304   21.2272 H   0  0  0  0  0  0
  -28.3076  -21.4907   18.7583 H   0  0  0  0  0  0
  1 25  1  0  0  0
  1 30  2  0  0  0
  1 83  1  0  0  0
  2  3  1  0  0  0
  2 25  1  0  0  0
  2 86  1  0  0  0
  2 87  1  0  0  0
  3  4  1  0  0  0
  3 88  1  0  0  0
  3 89  1  0  0  0
  4  5  1  0  0  0
  4 90  1  0  0  0
  4 91  1  0  0  0
  5  6  1  0  0  0
  5 26  1  0  0  0
  5 92  1  0  0  0
  6 25  1  0  0  0
  6 93  1  0  0  0
  6 94  1  0  0  0
  7  8  2  0  0  0
  7 26  1  0  0  0
  7 29  1  0  0  0
  8  9  1  0  0  0
  8 22  1  0  0  0
  9 10  1  0  0  0
  9 27  2  0  0  0
 10 11  2  0  0  0
 10 15  1  0  0  0
 11 12  1  0  0  0
 11 95  1  0  0  0
 12 13  2  0  0  0
 12 96  1  0  0  0
 13 14  1  0  0  0
 13 31  1  0  0  0
 14 15  2  0  0  0
 14 97  1  0  0  0
 15 98  1  0  0  0
 16 17  2  0  0  0
 16 21  1  0  0  0
 16 31  1  0  0  0
 17 18  1  0  0  0
 17 99  1  0  0  0
 18 19  2  0  0  0
 18100  1  0  0  0
 19 20  1  0  0  0
 19 24  1  0  0  0
 20 21  2  0  0  0
 20101  1  0  0  0
 21 23  1  0  0  0
 22 28  1  0  0  0
 22 32  2  0  0  0
 26 27  1  0  0  0
 28102  1  0  0  0
 28103  1  0  0  0
 29104  1  0  0  0
 29105  1  0  0  0
 33 34  1  0  0  0
 33 66  1  0  0  0
 33 70  2  0  0  0
 34 36  1  0  0  0
 34 59  1  0  0  0
 34106  1  0  0  0
 35 44  2  0  0  0
 35 45  1  0  0  0
 35 68  1  0  0  0
 36 56  1  0  0  0
 36107  1  0  0  0
 37 39  1  0  0  0
 37 47  1  0  0  0
 37 66  1  0  0  0
 37108  1  0  0  0
 38 43  2  0  0  0
 38 46  1  0  0  0
 38 47  1  0  0  0
 39 64  1  0  0  0
 39 67  2  0  0  0
 40 52  1  0  0  0
 40 53  2  0  0  0
 40 58  1  0  0  0
 41109  1  0  0  0
 41110  1  0  0  0
 41111  1  0  0  0
 41 48  1  0  0  0
 42 43  1  0  0  0
 42 66  1  0  0  0
 42112  1  0  0  0
 42113  1  0  0  0
 43 44  1  0  0  0
 44114  1  0  0  0
 45 46  2  0  0  0
 45115  1  0  0  0
 46116  1  0  0  0
 47117  1  0  0  0
 47118  1  0  0  0
 48 56  1  0  0  0
 48 65  1  0  0  0
 48119  1  0  0  0
 49 50  1  0  0  0
 49 53  1  0  0  0
 49 64  1  0  0  0
 49120  1  0  0  0
 50 51  1  0  0  0
 50121  1  0  0  0
 50122  1  0  0  0
 51 52  1  0  0  0
 51123  1  0  0  0
 51124  1  0  0  0
 52125  1  0  0  0
 52126  1  0  0  0
 53 54  1  0  0  0
 54 55  2  0  0  0
 54127  1  0  0  0
 55 57  1  0  0  0
 55128  1  0  0  0
 56 69  2  0  0  0
 57 58  2  0  0  0
 57129  1  0  0  0
 58130  1  0  0  0
 59 60  1  0  0  0
 59 61  1  0  0  0
 59 62  1  0  0  0
 60131  1  0  0  0
 60132  1  0  0  0
 60133  1  0  0  0
 61134  1  0  0  0
 61135  1  0  0  0
 61136  1  0  0  0
 62137  1  0  0  0
 62138  1  0  0  0
 62139  1  0  0  0
 63 65  1  0  0  0
 63140  1  0  0  0
 63141  1  0  0  0
 63142  1  0  0  0
 64143  1  0  0  0
 65144  1  0  0  0
 68 80  1  0  0  0
 71 74  2  0  0  0
 71 76  1  0  0  0
 71145  1  0  0  0
 72 73  2  0  0  0
 72 75  1  0  0  0
 72 78  1  0  0  0
 73 74  1  0  0  0
 73 81  1  0  0  0
 74 83  1  0  0  0
 75 76  2  0  0  0
 75 84  1  0  0  0
 76 85  1  0  0  0
 77 78  2  0  0  0
 77146  1  0  0  0
 77147  1  0  0  0
 78148  1  0  0  0
 79 80  2  0  0  0
 79 82  1  0  0  0
 79149  1  0  0  0
 80150  1  0  0  0
 81151  1  0  0  0
 81152  1  0  0  0
 81153  1  0  0  0
 82 84  1  0  0  0
 82154  1  0  0  0
 82155  1  0  0  0
 83156  1  0  0  0
 84157  1  0  0  0
M  ISO  4   1 100  68 101  80 101  83 100
M  END
> <chiral flag>
0

> <version>
0

> <s_m_source_file>
/data/baiqing/PycharmProjects/Reinvent-master-3.2/result/LINK_invent/BTK/process_docking_weight1_custom_product_contain_oxygen_bond_distance_aromatic_linkinvent_7_9_3/rearranged_h_0115.sdf

> <i_m_source_file_index>
45

> <r_mmod_Potential_Energy-OPLS-2005>
271.014373779297

> <r_mmod_Stretch_Energy-OPLS-2005>
100.583770751953

> <r_mmod_Bend_Energy-OPLS-2005>
220.459899902344

> <r_mmod_Torsional_Energy-OPLS-2005>
272.903930664062

> <r_mmod_Improper_Torsional_Energy-OPLS-2005>
6.49890565872192

> <r_mmod_Van_der_Waal_Energy-OPLS-2005>
142.069885253906

> <r_mmod_Electrostatic_Energy-OPLS-2005>
-333.987365722656

> <r_mmod_Solvation_Energy-OPLS-2005>
-213.098190307617

> <b_mmod_Minimization_Converged-OPLS-2005>
0

> <r_mmod_RMS_Derivative-OPLS-2005>
1.34647738933563

$$$$
45
                    3D
 Structure written by MMmdl.
150158  0  0  1  0            999 V2000
  -30.5228  -14.9533   20.4202 C   0  0  0  0  0  0
  -30.4453  -12.5852   19.5049 C   0  0  0  0  0  0
  -29.5252  -12.5346   18.2615 C   0  0  0  0  0  0
  -28.0573  -12.3202   18.6757 C   0  0  0  0  0  0
  -27.6338  -13.2462   19.8451 C   0  0  2  0  0  0
  -28.6758  -13.2581   20.9853 C   0  0  0  0  0  0
  -25.2477  -13.8211   20.5713 C   0  0  0  0  0  0
  -24.1787  -13.0437   20.9222 C   0  0  0  0  0  0
  -24.6400  -11.6921   20.8751 C   0  0  0  0  0  0
  -23.9080  -10.4292   21.0407 C   0  0  0  0  0  0
  -24.3627   -9.4206   21.9184 C   0  0  0  0  0  0
  -23.6297   -8.2245   22.0754 C   0  0  0  0  0  0
  -22.4279   -8.0285   21.3543 C   0  0  0  0  0  0
  -21.9916   -9.0260   20.4646 C   0  0  0  0  0  0
  -22.7250  -10.2136   20.3057 C   0  0  0  0  0  0
  -21.6858   -6.0736   22.5277 C   0  0  0  0  0  0
  -21.4018   -6.5639   23.8211 C   0  0  0  0  0  0
  -21.3660   -5.6793   24.9173 C   0  0  0  0  0  0
  -21.6043   -4.3056   24.7223 C   0  0  0  0  0  0
  -21.8818   -3.8147   23.4346 C   0  0  0  0  0  0
  -21.9194   -4.6963   22.3401 C   0  0  0  0  0  0
  -22.7807  -13.5208   21.1878 C   0  0  0  0  0  0
  -22.1662   -4.2148   21.0979 F   0  0  0  0  0  0
  -21.5625   -3.4539   25.7737 F   0  0  0  0  0  0
  -29.9572  -13.6759   20.3986 N   0  0  0  0  0  0
  -26.2904  -12.9440   20.3265 N   0  0  0  0  0  0
  -25.9336  -11.6570   20.5747 N   0  0  0  0  0  0
  -22.0459  -12.8196   22.0436 N   0  0  0  0  0  0
  -25.4140  -15.1943   20.4139 N   0  0  0  0  0  0
  -31.7156  -15.0346   20.0947 O   0  0  0  0  0  0
  -21.6642   -6.8883   21.4241 O   0  0  0  0  0  0
  -22.3490  -14.5511   20.6724 O   0  0  0  0  0  0
  -24.6443  -31.8423   23.1875 C   0  0  0  0  0  0
  -25.9210  -32.4683   23.8266 C   0  0  1  0  0  0
  -27.2194  -27.1223   20.1396 C   0  0  0  0  0  0
  -25.5954  -33.8491   24.2180 N   0  0  0  0  0  0
  -23.4486  -30.4624   21.5331 C   0  0  2  0  0  0
  -24.8980  -28.8906   20.1057 C   0  0  0  0  0  0
  -22.7572  -29.4535   22.4844 C   0  0  0  0  0  0
  -18.0308  -28.1395   22.8472 C   0  0  0  0  0  0
  -24.1496  -36.7259   23.2645 C   0  0  0  0  0  0
  -26.0059  -30.7101   21.3905 C   0  0  0  0  0  0
  -26.0747  -29.3213   20.7293 C   0  0  0  0  0  0
  -27.2305  -28.4510   20.7349 C   0  0  0  0  0  0
  -26.0122  -26.7998   19.4765 C   0  0  0  0  0  0
  -24.8806  -27.6435   19.4664 C   0  0  0  0  0  0
  -23.6752  -29.7941   20.1512 C   0  0  0  0  0  0
  -25.4129  -36.3027   24.0312 C   0  0  1  0  0  0
  -20.5920  -28.3721   23.1227 C   0  0  2  0  0  0
  -20.6791  -26.9421   22.5403 C   0  0  0  0  0  0
  -19.5766  -26.6377   21.5209 C   0  0  0  0  0  0
  -18.1948  -26.7932   22.1621 C   0  0  0  0  0  0
  -19.1564  -28.8876   23.2842 C   0  0  0  0  0  0
  -18.9478  -30.1471   23.8870 C   0  0  0  0  0  0
  -17.6474  -30.6588   24.0558 C   0  0  0  0  0  0
  -25.9075  -34.9399   23.5056 C   0  0  0  0  0  0
  -16.5366  -29.9081   23.6335 C   0  0  0  0  0  0
  -16.7292  -28.6502   23.0351 C   0  0  0  0  0  0
  -26.4526  -31.6560   25.0718 C   0  0  0  0  0  0
  -25.3706  -31.3762   26.1412 C   0  0  0  0  0  0
  -27.0395  -30.2949   24.6327 C   0  0  0  0  0  0
  -27.6047  -32.4334   25.7508 C   0  0  0  0  0  0
  -27.5570  -37.1799   24.8471 C   0  0  0  0  0  0
  -21.4261  -29.3043   22.3594 N   0  0  0  0  0  0
  -26.4298  -37.3732   23.9389 N   0  0  0  0  0  0
  -24.7193  -31.0265   22.0919 N   0  0  0  0  0  0
  -23.4207  -28.8082   23.3000 O   0  0  0  0  0  0
  -28.2776  -26.1394   20.2573 O   0  0  0  0  0  0
  -26.5661  -34.8895   22.4636 O   0  0  0  0  0  0
  -23.5557  -32.1309   23.7085 O   0  0  0  0  0  0
  -28.6135  -19.6521   21.1107 C   0  0  0  0  0  0
  -29.2974  -20.4892   20.1737 C   0  0  0  0  0  0
  -30.2376  -19.6435   19.4824 C   0  0  0  0  0  0
  -29.6820  -17.5639   20.5402 C   0  0  0  0  0  0
  -29.0944  -22.0597   19.8283 C   0  0  0  0  0  0
  -28.5077  -23.2482   20.3471 C   0  0  0  0  0  0
  -31.9913  -19.4686   17.8337 C   0  0  0  0  0  0
  -28.3080  -24.7179   19.6101 C   0  0  0  0  0  0
  -28.7827  -18.2755   21.2600 N   0  0  0  0  0  0
  -30.4145  -18.2688   19.6570 N   0  0  0  0  0  0
  -29.7037  -16.0875   20.6842 N   0  0  0  0  0  0
  -31.0307  -20.2559   18.5322 O   0  0  0  0  0  0
  -31.4792  -12.7435   19.1941 H   0  0  0  0  0  0
  -30.4387  -11.6288   20.0300 H   0  0  0  0  0  0
  -29.8433  -11.7394   17.5859 H   0  0  0  0  0  0
  -29.6152  -13.4667   17.7014 H   0  0  0  0  0  0
  -27.9500  -11.2774   18.9760 H   0  0  0  0  0  0
  -27.3958  -12.4595   17.8199 H   0  0  0  0  0  0
  -27.6012  -14.2514   19.4245 H   0  0  0  0  0  0
  -28.7600  -12.2743   21.4494 H   0  0  0  0  0  0
  -28.3717  -13.9436   21.7776 H   0  0  0  0  0  0
  -25.2772   -9.5680   22.4760 H   0  0  0  0  0  0
  -24.0003   -7.4635   22.7475 H   0  0  0  0  0  0
  -21.0844   -8.8783   19.8954 H   0  0  0  0  0  0
  -22.3708  -10.9676   19.6167 H   0  0  0  0  0  0
  -21.2014   -7.6148   23.9713 H   0  0  0  0  0  0
  -21.1481   -6.0524   25.9075 H   0  0  0  0  0  0
  -22.0597   -2.7608   23.2848 H   0  0  0  0  0  0
  -22.4089  -11.9864   22.4826 H   0  0  0  0  0  0
  -21.1076  -13.1216   22.2646 H   0  0  0  0  0  0
  -24.6407  -15.8415   20.5253 H   0  0  0  0  0  0
  -26.2488  -15.6384   20.0548 H   0  0  0  0  0  0
  -26.7276  -32.5279   23.0991 H   0  0  0  0  0  0
  -25.0074  -33.9603   25.0310 H   0  0  0  0  0  0
  -22.7523  -31.2894   21.3794 H   0  0  0  0  0  0
  -23.3742  -35.9610   23.3328 H   0  0  0  0  0  0
  -24.3570  -36.8870   22.2055 H   0  0  0  0  0  0
  -23.7278  -37.6473   23.6671 H   0  0  0  0  0  0
  -26.1667  -31.4648   20.6194 H   0  0  0  0  0  0
  -26.8740  -30.7574   22.0360 H   0  0  0  0  0  0
  -28.1226  -28.7729   21.2537 H   0  0  0  0  0  0
  -25.8750  -25.8508   18.9877 H   0  0  0  0  0  0
  -23.9807  -27.3068   18.9699 H   0  0  0  0  0  0
  -23.8123  -30.5702   19.3972 H   0  0  0  0  0  0
  -22.7892  -29.2382   19.8393 H   0  0  0  0  0  0
  -25.1324  -36.1861   25.0806 H   0  0  0  0  0  0
  -21.0015  -28.3317   24.1347 H   0  0  0  0  0  0
  -20.5677  -26.2335   23.3624 H   0  0  0  0  0  0
  -21.6658  -26.7423   22.1204 H   0  0  0  0  0  0
  -19.6927  -25.6281   21.1257 H   0  0  0  0  0  0
  -19.6702  -27.3171   20.6726 H   0  0  0  0  0  0
  -17.4213  -26.6664   21.4031 H   0  0  0  0  0  0
  -18.0355  -26.0085   22.9029 H   0  0  0  0  0  0
  -19.7953  -30.7296   24.2226 H   0  0  0  0  0  0
  -17.5025  -31.6264   24.5168 H   0  0  0  0  0  0
  -15.5364  -30.2972   23.7675 H   0  0  0  0  0  0
  -15.8693  -28.0814   22.7077 H   0  0  0  0  0  0
  -24.5888  -30.7106   25.7736 H   0  0  0  0  0  0
  -24.8894  -32.2950   26.4774 H   0  0  0  0  0  0
  -25.7983  -30.8978   27.0233 H   0  0  0  0  0  0
  -26.3020  -29.6662   24.1326 H   0  0  0  0  0  0
  -27.3978  -29.7262   25.4919 H   0  0  0  0  0  0
  -27.8941  -30.4167   23.9669 H   0  0  0  0  0  0
  -27.2629  -33.3650   26.2031 H   0  0  0  0  0  0
  -28.3887  -32.6874   25.0361 H   0  0  0  0  0  0
  -28.0686  -31.8502   26.5472 H   0  0  0  0  0  0
  -28.2617  -38.0063   24.7450 H   0  0  0  0  0  0
  -28.1035  -36.2587   24.6391 H   0  0  0  0  0  0
  -27.2274  -37.1559   25.8873 H   0  0  0  0  0  0
  -20.9471  -29.8764   21.6779 H   0  0  0  0  0  0
  -26.0167  -38.2812   24.1344 H   0  0  0  0  0  0
  -27.8514  -20.0878   21.7397 H   0  0  0  0  0  0
  -29.5034  -22.2546   18.8458 H   0  0  0  0  0  0
  -28.0592  -23.1961   21.3290 H   0  0  0  0  0  0
  -32.5442  -20.1026   17.1409 H   0  0  0  0  0  0
  -31.5144  -18.6800   17.2499 H   0  0  0  0  0  0
  -32.7142  -19.0195   18.5165 H   0  0  0  0  0  0
  -27.4292  -24.5739   18.9918 H   0  0  0  0  0  0
  -29.1137  -24.7729   18.8779 H   0  0  0  0  0  0
  -28.8323  -15.7711   21.0727 H   0  0  0  0  0  0
  1 25  1  0  0  0
  1 30  2  0  0  0
  1 81  1  0  0  0
  2  3  1  0  0  0
  2 25  1  0  0  0
  2 83  1  0  0  0
  2 84  1  0  0  0
  3  4  1  0  0  0
  3 85  1  0  0  0
  3 86  1  0  0  0
  4  5  1  0  0  0
  4 87  1  0  0  0
  4 88  1  0  0  0
  5  6  1  0  0  0
  5 26  1  0  0  0
  5 89  1  0  0  0
  6 25  1  0  0  0
  6 90  1  0  0  0
  6 91  1  0  0  0
  7  8  2  0  0  0
  7 26  1  0  0  0
  7 29  1  0  0  0
  8  9  1  0  0  0
  8 22  1  0  0  0
  9 10  1  0  0  0
  9 27  2  0  0  0
 10 11  2  0  0  0
 10 15  1  0  0  0
 11 12  1  0  0  0
 11 92  1  0  0  0
 12 13  2  0  0  0
 12 93  1  0  0  0
 13 14  1  0  0  0
 13 31  1  0  0  0
 14 15  2  0  0  0
 14 94  1  0  0  0
 15 95  1  0  0  0
 16 17  2  0  0  0
 16 21  1  0  0  0
 16 31  1  0  0  0
 17 18  1  0  0  0
 17 96  1  0  0  0
 18 19  2  0  0  0
 18 97  1  0  0  0
 19 20  1  0  0  0
 19 24  1  0  0  0
 20 21  2  0  0  0
 20 98  1  0  0  0
 21 23  1  0  0  0
 22 28  1  0  0  0
 22 32  2  0  0  0
 26 27  1  0  0  0
 28 99  1  0  0  0
 28100  1  0  0  0
 29101  1  0  0  0
 29102  1  0  0  0
 33 34  1  0  0  0
 33 66  1  0  0  0
 33 70  2  0  0  0
 34 36  1  0  0  0
 34 59  1  0  0  0
 34103  1  0  0  0
 35 44  2  0  0  0
 35 45  1  0  0  0
 35 68  1  0  0  0
 36 56  1  0  0  0
 36104  1  0  0  0
 37 39  1  0  0  0
 37 47  1  0  0  0
 37 66  1  0  0  0
 37105  1  0  0  0
 38 43  2  0  0  0
 38 46  1  0  0  0
 38 47  1  0  0  0
 39 64  1  0  0  0
 39 67  2  0  0  0
 40 52  1  0  0  0
 40 53  2  0  0  0
 40 58  1  0  0  0
 41106  1  0  0  0
 41107  1  0  0  0
 41108  1  0  0  0
 41 48  1  0  0  0
 42 43  1  0  0  0
 42 66  1  0  0  0
 42109  1  0  0  0
 42110  1  0  0  0
 43 44  1  0  0  0
 44111  1  0  0  0
 45 46  2  0  0  0
 45112  1  0  0  0
 46113  1  0  0  0
 47114  1  0  0  0
 47115  1  0  0  0
 48 56  1  0  0  0
 48 65  1  0  0  0
 48116  1  0  0  0
 49 50  1  0  0  0
 49 53  1  0  0  0
 49 64  1  0  0  0
 49117  1  0  0  0
 50 51  1  0  0  0
 50118  1  0  0  0
 50119  1  0  0  0
 51 52  1  0  0  0
 51120  1  0  0  0
 51121  1  0  0  0
 52122  1  0  0  0
 52123  1  0  0  0
 53 54  1  0  0  0
 54 55  2  0  0  0
 54124  1  0  0  0
 55 57  1  0  0  0
 55125  1  0  0  0
 56 69  2  0  0  0
 57 58  2  0  0  0
 57126  1  0  0  0
 58127  1  0  0  0
 59 60  1  0  0  0
 59 61  1  0  0  0
 59 62  1  0  0  0
 60128  1  0  0  0
 60129  1  0  0  0
 60130  1  0  0  0
 61131  1  0  0  0
 61132  1  0  0  0
 61133  1  0  0  0
 62134  1  0  0  0
 62135  1  0  0  0
 62136  1  0  0  0
 63 65  1  0  0  0
 63137  1  0  0  0
 63138  1  0  0  0
 63139  1  0  0  0
 64140  1  0  0  0
 65141  1  0  0  0
 68 78  1  0  0  0
 71 72  2  0  0  0
 71 79  1  0  0  0
 71142  1  0  0  0
 72 73  1  0  0  0
 72 75  1  0  0  0
 73 80  2  0  0  0
 73 82  1  0  0  0
 74 79  2  0  0  0
 74 80  1  0  0  0
 74 81  1  0  0  0
 75 76  2  0  0  0
 75143  1  0  0  0
 76 78  1  0  0  0
 76144  1  0  0  0
 77 82  1  0  0  0
 77145  1  0  0  0
 77146  1  0  0  0
 77147  1  0  0  0
 78148  1  0  0  0
 78149  1  0  0  0
 81150  1  0  0  0
M  ISO  4   1 100  68 101  78 101  81 100
M  END
> <chiral flag>
0

> <version>
0

> <s_m_source_file>
/data/baiqing/PycharmProjects/Reinvent-master-3.2/result/LINK_invent/BTK/process_docking_weight1_custom_product_contain_oxygen_bond_distance_aromatic_linkinvent_7_9_3/rearranged_h_0115.sdf

> <i_m_source_file_index>
46

> <r_mmod_Potential_Energy-OPLS-2005>
107.640014648438

> <r_mmod_Stretch_Energy-OPLS-2005>
238.127426147461

> <r_mmod_Bend_Energy-OPLS-2005>
293.774261474609

> <r_mmod_Torsional_Energy-OPLS-2005>
198.788619995117

> <r_mmod_Improper_Torsional_Energy-OPLS-2005>
4.4961199760437

> <r_mmod_Van_der_Waal_Energy-OPLS-2005>
148.938278198242

> <r_mmod_Electrostatic_Energy-OPLS-2005>
-749.535034179688

> <r_mmod_Solvation_Energy-OPLS-2005>
-225.151275634766

> <b_mmod_Minimization_Converged-OPLS-2005>
0

> <r_mmod_RMS_Derivative-OPLS-2005>
0.502474069595337

$$$$
46
                    3D
 Structure written by MMmdl.
165173  0  0  1  0            999 V2000
  -30.6343  -14.7132   20.4711 C   0  0  0  0  0  0
  -30.4481  -12.4353   19.4734 C   0  0  0  0  0  0
  -29.5134  -12.4478   18.2400 C   0  0  0  0  0  0
  -28.0472  -12.2245   18.6659 C   0  0  0  0  0  0
  -27.6332  -13.1629   19.8223 C   0  0  2  0  0  0
  -28.6789  -13.1267   20.9654 C   0  0  0  0  0  0
  -25.2573  -13.8019   20.5577 C   0  0  0  0  0  0
  -24.1783  -13.0371   20.9127 C   0  0  0  0  0  0
  -24.6303  -11.6832   20.8753 C   0  0  0  0  0  0
  -23.8968  -10.4273   21.0461 C   0  0  0  0  0  0
  -24.3559   -9.4201   21.9218 C   0  0  0  0  0  0
  -23.6250   -8.2225   22.0783 C   0  0  0  0  0  0
  -22.4241   -8.0273   21.3563 C   0  0  0  0  0  0
  -21.9852   -9.0246   20.4669 C   0  0  0  0  0  0
  -22.7161  -10.2119   20.3093 C   0  0  0  0  0  0
  -21.6856   -6.0732   22.5278 C   0  0  0  0  0  0
  -21.4028   -6.5652   23.8215 C   0  0  0  0  0  0
  -21.3637   -5.6815   24.9168 C   0  0  0  0  0  0
  -21.6026   -4.3071   24.7226 C   0  0  0  0  0  0
  -21.8821   -3.8153   23.4363 C   0  0  0  0  0  0
  -21.9205   -4.6968   22.3410 C   0  0  0  0  0  0
  -22.7835  -13.5252   21.1808 C   0  0  0  0  0  0
  -22.1661   -4.2144   21.0989 F   0  0  0  0  0  0
  -21.5605   -3.4560   25.7743 F   0  0  0  0  0  0
  -29.9884  -13.4928   20.3991 N   0  0  0  0  0  0
  -26.2875  -12.9059   20.3134 N   0  0  0  0  0  0
  -25.9200  -11.6283   20.5746 N   0  0  0  0  0  0
  -22.0498  -12.8268   22.0417 N   0  0  0  0  0  0
  -25.4480  -15.1677   20.3948 N   0  0  0  0  0  0
  -31.8476  -14.7606   20.2741 O   0  0  0  0  0  0
  -21.6619   -6.8863   21.4241 O   0  0  0  0  0  0
  -22.3511  -14.5560   20.6674 O   0  0  0  0  0  0
  -24.6221  -31.8606   23.2062 C   0  0  0  0  0  0
  -25.9081  -32.4799   23.8377 C   0  0  1  0  0  0
  -27.2448  -27.3557   20.1193 C   0  0  0  0  0  0
  -25.5874  -33.8596   24.2278 N   0  0  0  0  0  0
  -23.4147  -30.4836   21.5499 C   0  0  2  0  0  0
  -24.8660  -28.9382   20.1188 C   0  0  0  0  0  0
  -22.7465  -29.4607   22.4991 C   0  0  0  0  0  0
  -18.0248  -28.1350   22.8484 C   0  0  0  0  0  0
  -24.1489  -36.7302   23.2640 C   0  0  0  0  0  0
  -25.9512  -30.8052   21.3697 C   0  0  0  0  0  0
  -26.0311  -29.4331   20.7144 C   0  0  0  0  0  0
  -27.2231  -28.6542   20.7050 C   0  0  0  0  0  0
  -26.0541  -26.9012   19.4996 C   0  0  0  0  0  0
  -24.8758  -27.6742   19.5051 C   0  0  0  0  0  0
  -23.6283  -29.8144   20.1662 C   0  0  0  0  0  0
  -25.4118  -36.3116   24.0328 C   0  0  1  0  0  0
  -20.5848  -28.3650   23.1311 C   0  0  2  0  0  0
  -20.6764  -26.9387   22.5423 C   0  0  0  0  0  0
  -19.5755  -26.6374   21.5211 C   0  0  0  0  0  0
  -18.1907  -26.7899   22.1603 C   0  0  0  0  0  0
  -19.1498  -28.8818   23.2881 C   0  0  0  0  0  0
  -18.9439  -30.1412   23.8924 C   0  0  0  0  0  0
  -17.6461  -30.6592   24.0547 C   0  0  0  0  0  0
  -25.9047  -34.9470   23.5110 C   0  0  0  0  0  0
  -16.5344  -29.9089   23.6339 C   0  0  0  0  0  0
  -16.7244  -28.6469   23.0401 C   0  0  0  0  0  0
  -26.4502  -31.6597   25.0715 C   0  0  0  0  0  0
  -25.3732  -31.3674   26.1429 C   0  0  0  0  0  0
  -27.0369  -30.3045   24.6132 C   0  0  0  0  0  0
  -27.6091  -32.4322   25.7479 C   0  0  0  0  0  0
  -27.5589  -37.1805   24.8470 C   0  0  0  0  0  0
  -21.4174  -29.3012   22.3737 N   0  0  0  0  0  0
  -26.4308  -37.3802   23.9410 N   0  0  0  0  0  0
  -24.6803  -31.0636   22.0999 N   0  0  0  0  0  0
  -23.4210  -28.8118   23.3028 O   0  0  0  0  0  0
  -28.3950  -26.5612   20.1787 O   0  0  0  0  0  0
  -26.5661  -34.8941   22.4706 O   0  0  0  0  0  0
  -23.5394  -32.1377   23.7414 O   0  0  0  0  0  0
  -29.6207  -18.3232   21.6222 C   0  0  0  0  0  0
  -30.2668  -17.5210   20.6351 C   0  0  0  0  0  0
  -31.0816  -18.2582   19.7015 C   0  0  0  0  0  0
  -31.1135  -19.7031   19.7222 C   0  0  0  0  0  0
  -29.6742  -19.7459   21.6659 C   0  0  0  0  0  0
  -30.3728  -20.4601   20.6698 C   0  0  0  0  0  0
  -29.7519  -16.0556   20.5562 C   0  0  0  0  0  0
  -31.9420  -20.4805   18.6990 C   0  0  0  0  0  0
  -31.2538  -17.3585   17.2972 C   0  0  0  0  0  0
  -28.6408  -19.8370   23.8379 C   0  0  0  0  0  0
  -31.9363  -17.5450   18.6545 C   0  0  0  0  0  0
  -29.4584  -24.2025   20.4815 C   0  0  0  0  0  0
  -28.2685  -25.1113   19.9835 C   0  0  0  0  0  0
  -29.2773  -22.6388   20.3087 C   0  0  0  0  0  0
  -28.4835  -16.0136   20.5662 N   0  0  0  0  0  0
  -29.0593  -20.4944   22.6475 O   0  0  0  0  0  0
  -30.4398  -21.8599   20.7032 O   0  0  0  0  0  0
  -31.4844  -12.5761   19.1595 H   0  0  0  0  0  0
  -30.4150  -11.4664   19.9727 H   0  0  0  0  0  0
  -29.8147  -11.6667   17.5407 H   0  0  0  0  0  0
  -29.6034  -13.3946   17.7077 H   0  0  0  0  0  0
  -27.9622  -11.1893   18.9963 H   0  0  0  0  0  0
  -27.3737  -12.3206   17.8148 H   0  0  0  0  0  0
  -27.6004  -14.1350   19.3407 H   0  0  0  0  0  0
  -28.7233  -12.1351   21.4129 H   0  0  0  0  0  0
  -28.3907  -13.7871   21.7870 H   0  0  0  0  0  0
  -25.2729   -9.5683   22.4763 H   0  0  0  0  0  0
  -23.9981   -7.4633   22.7506 H   0  0  0  0  0  0
  -21.0783   -8.8761   19.8985 H   0  0  0  0  0  0
  -22.3638  -10.9665   19.6197 H   0  0  0  0  0  0
  -21.2043   -7.6170   23.9700 H   0  0  0  0  0  0
  -21.1436   -6.0552   25.9059 H   0  0  0  0  0  0
  -22.0621   -2.7624   23.2860 H   0  0  0  0  0  0
  -22.4115  -11.9904   22.4756 H   0  0  0  0  0  0
  -21.1162  -13.1332   22.2715 H   0  0  0  0  0  0
  -24.7306  -15.8717   20.5367 H   0  0  0  0  0  0
  -26.3748  -15.5511   20.2246 H   0  0  0  0  0  0
  -26.7126  -32.5548   23.1121 H   0  0  0  0  0  0
  -25.0006  -33.9738   25.0413 H   0  0  0  0  0  0
  -22.7043  -31.3005   21.4094 H   0  0  0  0  0  0
  -23.3789  -35.9597   23.3301 H   0  0  0  0  0  0
  -24.3559  -36.8943   22.2059 H   0  0  0  0  0  0
  -23.7235  -37.6480   23.6689 H   0  0  0  0  0  0
  -26.0681  -31.5739   20.6033 H   0  0  0  0  0  0
  -26.8337  -30.8592   21.9951 H   0  0  0  0  0  0
  -28.1207  -29.0322   21.1741 H   0  0  0  0  0  0
  -26.0086  -25.9368   19.0169 H   0  0  0  0  0  0
  -23.9788  -27.2864   19.0403 H   0  0  0  0  0  0
  -23.7405  -30.5888   19.4056 H   0  0  0  0  0  0
  -22.7496  -29.2373   19.8768 H   0  0  0  0  0  0
  -25.1314  -36.1970   25.0822 H   0  0  0  0  0  0
  -20.9902  -28.3221   24.1438 H   0  0  0  0  0  0
  -20.5660  -26.2262   23.3599 H   0  0  0  0  0  0
  -21.6635  -26.7446   22.1222 H   0  0  0  0  0  0
  -19.6977  -25.6279   21.1234 H   0  0  0  0  0  0
  -19.6730  -27.3193   20.6729 H   0  0  0  0  0  0
  -17.4198  -26.6635   21.3984 H   0  0  0  0  0  0
  -18.0309  -26.0015   22.8969 H   0  0  0  0  0  0
  -19.7919  -30.7165   24.2380 H   0  0  0  0  0  0
  -17.5027  -31.6305   24.5095 H   0  0  0  0  0  0
  -15.5339  -30.3030   23.7654 H   0  0  0  0  0  0
  -15.8604  -28.0798   22.7199 H   0  0  0  0  0  0
  -24.5969  -30.6968   25.7719 H   0  0  0  0  0  0
  -24.8817  -32.2777   26.4864 H   0  0  0  0  0  0
  -25.8037  -30.8853   27.0204 H   0  0  0  0  0  0
  -26.2916  -29.6758   24.1229 H   0  0  0  0  0  0
  -27.4197  -29.7368   25.4626 H   0  0  0  0  0  0
  -27.8729  -30.4396   23.9261 H   0  0  0  0  0  0
  -27.2763  -33.3672   26.2020 H   0  0  0  0  0  0
  -28.3904  -32.6782   25.0262 H   0  0  0  0  0  0
  -28.0740  -31.8437   26.5405 H   0  0  0  0  0  0
  -28.2611  -38.0104   24.7541 H   0  0  0  0  0  0
  -28.1091  -36.2642   24.6293 H   0  0  0  0  0  0
  -27.2281  -37.1422   25.8860 H   0  0  0  0  0  0
  -20.9368  -29.8685   21.6892 H   0  0  0  0  0  0
  -26.0216  -38.2876   24.1424 H   0  0  0  0  0  0
  -28.9974  -17.8144   22.3432 H   0  0  0  0  0  0
  -32.9921  -20.1920   18.7311 H   0  0  0  0  0  0
  -31.9311  -21.5560   18.8703 H   0  0  0  0  0  0
  -31.5620  -20.3211   17.6900 H   0  0  0  0  0  0
  -31.9212  -16.8333   16.6128 H   0  0  0  0  0  0
  -30.9978  -18.3102   16.8363 H   0  0  0  0  0  0
  -30.3435  -16.7695   17.3878 H   0  0  0  0  0  0
  -28.4022  -20.5809   24.6010 H   0  0  0  0  0  0
  -29.4267  -19.1984   24.2445 H   0  0  0  0  0  0
  -27.7462  -19.2374   23.6650 H   0  0  0  0  0  0
  -32.2877  -16.5932   19.0152 H   0  0  0  0  0  0
  -32.8767  -18.0763   18.5247 H   0  0  0  0  0  0
  -29.6374  -24.4196   21.5357 H   0  0  0  0  0  0
  -30.3660  -24.4999   19.9550 H   0  0  0  0  0  0
  -27.3632  -24.7610   20.4822 H   0  0  0  0  0  0
  -28.1279  -24.9315   18.9171 H   0  0  0  0  0  0
  -29.0742  -22.4242   19.2599 H   0  0  0  0  0  0
  -28.4017  -22.3101   20.8696 H   0  0  0  0  0  0
  -28.0925  -16.9448   20.6219 H   0  0  0  0  0  0
  1 25  1  0  0  0
  1 30  2  0  0  0
  1 77  1  0  0  0
  2  3  1  0  0  0
  2 25  1  0  0  0
  2 88  1  0  0  0
  2 89  1  0  0  0
  3  4  1  0  0  0
  3 90  1  0  0  0
  3 91  1  0  0  0
  4  5  1  0  0  0
  4 92  1  0  0  0
  4 93  1  0  0  0
  5  6  1  0  0  0
  5 26  1  0  0  0
  5 94  1  0  0  0
  6 25  1  0  0  0
  6 95  1  0  0  0
  6 96  1  0  0  0
  7  8  2  0  0  0
  7 26  1  0  0  0
  7 29  1  0  0  0
  8  9  1  0  0  0
  8 22  1  0  0  0
  9 10  1  0  0  0
  9 27  2  0  0  0
 10 11  2  0  0  0
 10 15  1  0  0  0
 11 12  1  0  0  0
 11 97  1  0  0  0
 12 13  2  0  0  0
 12 98  1  0  0  0
 13 14  1  0  0  0
 13 31  1  0  0  0
 14 15  2  0  0  0
 14 99  1  0  0  0
 15100  1  0  0  0
 16 17  2  0  0  0
 16 21  1  0  0  0
 16 31  1  0  0  0
 17 18  1  0  0  0
 17101  1  0  0  0
 18 19  2  0  0  0
 18102  1  0  0  0
 19 20  1  0  0  0
 19 24  1  0  0  0
 20 21  2  0  0  0
 20103  1  0  0  0
 21 23  1  0  0  0
 22 28  1  0  0  0
 22 32  2  0  0  0
 26 27  1  0  0  0
 28104  1  0  0  0
 28105  1  0  0  0
 29106  1  0  0  0
 29107  1  0  0  0
 33 34  1  0  0  0
 33 66  1  0  0  0
 33 70  2  0  0  0
 34 36  1  0  0  0
 34 59  1  0  0  0
 34108  1  0  0  0
 35 44  2  0  0  0
 35 45  1  0  0  0
 35 68  1  0  0  0
 36 56  1  0  0  0
 36109  1  0  0  0
 37 39  1  0  0  0
 37 47  1  0  0  0
 37 66  1  0  0  0
 37110  1  0  0  0
 38 43  2  0  0  0
 38 46  1  0  0  0
 38 47  1  0  0  0
 39 64  1  0  0  0
 39 67  2  0  0  0
 40 52  1  0  0  0
 40 53  2  0  0  0
 40 58  1  0  0  0
 41111  1  0  0  0
 41112  1  0  0  0
 41113  1  0  0  0
 41 48  1  0  0  0
 42 43  1  0  0  0
 42 66  1  0  0  0
 42114  1  0  0  0
 42115  1  0  0  0
 43 44  1  0  0  0
 44116  1  0  0  0
 45 46  2  0  0  0
 45117  1  0  0  0
 46118  1  0  0  0
 47119  1  0  0  0
 47120  1  0  0  0
 48 56  1  0  0  0
 48 65  1  0  0  0
 48121  1  0  0  0
 49 50  1  0  0  0
 49 53  1  0  0  0
 49 64  1  0  0  0
 49122  1  0  0  0
 50 51  1  0  0  0
 50123  1  0  0  0
 50124  1  0  0  0
 51 52  1  0  0  0
 51125  1  0  0  0
 51126  1  0  0  0
 52127  1  0  0  0
 52128  1  0  0  0
 53 54  1  0  0  0
 54 55  2  0  0  0
 54129  1  0  0  0
 55 57  1  0  0  0
 55130  1  0  0  0
 56 69  2  0  0  0
 57 58  2  0  0  0
 57131  1  0  0  0
 58132  1  0  0  0
 59 60  1  0  0  0
 59 61  1  0  0  0
 59 62  1  0  0  0
 60133  1  0  0  0
 60134  1  0  0  0
 60135  1  0  0  0
 61136  1  0  0  0
 61137  1  0  0  0
 61138  1  0  0  0
 62139  1  0  0  0
 62140  1  0  0  0
 62141  1  0  0  0
 63 65  1  0  0  0
 63142  1  0  0  0
 63143  1  0  0  0
 63144  1  0  0  0
 64145  1  0  0  0
 65146  1  0  0  0
 68 83  1  0  0  0
 71 72  2  0  0  0
 71 75  1  0  0  0
 71147  1  0  0  0
 72 73  1  0  0  0
 72 77  1  0  0  0
 73 74  2  0  0  0
 73 81  1  0  0  0
 74 76  1  0  0  0
 74 78  1  0  0  0
 75 76  2  0  0  0
 75 86  1  0  0  0
 76 87  1  0  0  0
 77 85  2  0  0  0
 78148  1  0  0  0
 78149  1  0  0  0
 78150  1  0  0  0
 79 81  1  0  0  0
 79151  1  0  0  0
 79152  1  0  0  0
 79153  1  0  0  0
 80 86  1  0  0  0
 80154  1  0  0  0
 80155  1  0  0  0
 80156  1  0  0  0
 81157  1  0  0  0
 81158  1  0  0  0
 82 83  1  0  0  0
 82 84  1  0  0  0
 82159  1  0  0  0
 82160  1  0  0  0
 83161  1  0  0  0
 83162  1  0  0  0
 84 87  1  0  0  0
 84163  1  0  0  0
 84164  1  0  0  0
 85165  1  0  0  0
M  ISO  4   1 100  68 101  77 100  83 101
M  END
> <chiral flag>
0

> <version>
0

> <s_m_source_file>
/data/baiqing/PycharmProjects/Reinvent-master-3.2/result/LINK_invent/BTK/process_docking_weight1_custom_product_contain_oxygen_bond_distance_aromatic_linkinvent_7_9_3/rearranged_h_0115.sdf

> <i_m_source_file_index>
47

> <r_mmod_Potential_Energy-OPLS-2005>
298.14794921875

> <r_mmod_Stretch_Energy-OPLS-2005>
93.8910751342773

> <r_mmod_Bend_Energy-OPLS-2005>
171.338562011719

> <r_mmod_Torsional_Energy-OPLS-2005>
241.899841308594

> <r_mmod_Improper_Torsional_Energy-OPLS-2005>
7.20409154891968

> <r_mmod_Van_der_Waal_Energy-OPLS-2005>
180.804977416992

> <r_mmod_Electrostatic_Energy-OPLS-2005>
-267.284027099609

> <r_mmod_Solvation_Energy-OPLS-2005>
-193.135635375977

> <b_mmod_Minimization_Converged-OPLS-2005>
0

> <r_mmod_RMS_Derivative-OPLS-2005>
4.81482410430908

$$$$
47
                    3D
 Structure written by MMmdl.
155163  0  0  1  0            999 V2000
  -30.6083  -14.6961   20.4301 C   0  0  0  0  0  0
  -30.4482  -12.4161   19.5104 C   0  0  0  0  0  0
  -29.5369  -12.4809   18.2682 C   0  0  0  0  0  0
  -28.0358  -12.4048   18.6400 C   0  0  0  0  0  0
  -27.6539  -13.2518   19.8861 C   0  0  2  0  0  0
  -28.6997  -13.1413   21.0216 C   0  0  0  0  0  0
  -25.2510  -13.8287   20.5811 C   0  0  0  0  0  0
  -24.1800  -13.0582   20.9201 C   0  0  0  0  0  0
  -24.6403  -11.7018   20.8785 C   0  0  0  0  0  0
  -23.9089  -10.4383   21.0434 C   0  0  0  0  0  0
  -24.3603   -9.4295   21.9242 C   0  0  0  0  0  0
  -23.6280   -8.2314   22.0772 C   0  0  0  0  0  0
  -22.4253   -8.0362   21.3550 C   0  0  0  0  0  0
  -21.9914   -9.0361   20.4650 C   0  0  0  0  0  0
  -22.7261  -10.2243   20.3107 C   0  0  0  0  0  0
  -21.6825   -6.0819   22.5280 C   0  0  0  0  0  0
  -21.4007   -6.5676   23.8247 C   0  0  0  0  0  0
  -21.3677   -5.6787   24.9172 C   0  0  0  0  0  0
  -21.6073   -4.3046   24.7185 C   0  0  0  0  0  0
  -21.8788   -3.8213   23.4256 C   0  0  0  0  0  0
  -21.9151   -4.7062   22.3356 C   0  0  0  0  0  0
  -22.7796  -13.5313   21.1876 C   0  0  0  0  0  0
  -22.1582   -4.2271   21.0899 F   0  0  0  0  0  0
  -21.5697   -3.4504   25.7665 F   0  0  0  0  0  0
  -30.0052  -13.4678   20.4351 N   0  0  0  0  0  0
  -26.2999  -12.9543   20.3513 N   0  0  0  0  0  0
  -25.9357  -11.6660   20.5893 N   0  0  0  0  0  0
  -22.0350  -12.8390   22.0398 N   0  0  0  0  0  0
  -25.4155  -15.2093   20.4296 N   0  0  0  0  0  0
  -31.8010  -14.8239   20.1551 O   0  0  0  0  0  0
  -21.6630   -6.8980   21.4237 O   0  0  0  0  0  0
  -22.3505  -14.5685   20.6749 O   0  0  0  0  0  0
  -24.6172  -31.8668   23.2173 C   0  0  0  0  0  0
  -25.9050  -32.4823   23.8465 C   0  0  1  0  0  0
  -27.2294  -27.4126   20.0360 C   0  0  0  0  0  0
  -25.5876  -33.8626   24.2347 N   0  0  0  0  0  0
  -23.4059  -30.4995   21.5583 C   0  0  2  0  0  0
  -24.8454  -28.9687   20.1214 C   0  0  0  0  0  0
  -22.7449  -29.4631   22.4988 C   0  0  0  0  0  0
  -18.0277  -28.1322   22.8542 C   0  0  0  0  0  0
  -24.1470  -36.7326   23.2649 C   0  0  0  0  0  0
  -25.9474  -30.8184   21.3795 C   0  0  0  0  0  0
  -26.0182  -29.4577   20.7079 C   0  0  0  0  0  0
  -27.2124  -28.6903   20.6580 C   0  0  0  0  0  0
  -26.0101  -26.9253   19.5116 C   0  0  0  0  0  0
  -24.8374  -27.6968   19.5322 C   0  0  0  0  0  0
  -23.6215  -29.8552   20.1663 C   0  0  0  0  0  0
  -25.4098  -36.3124   24.0343 C   0  0  1  0  0  0
  -20.5884  -28.3621   23.1342 C   0  0  2  0  0  0
  -20.6744  -26.9355   22.5435 C   0  0  0  0  0  0
  -19.5703  -26.6359   21.5231 C   0  0  0  0  0  0
  -18.1891  -26.7871   22.1660 C   0  0  0  0  0  0
  -19.1534  -28.8794   23.2953 C   0  0  0  0  0  0
  -18.9440  -30.1396   23.8982 C   0  0  0  0  0  0
  -17.6446  -30.6549   24.0562 C   0  0  0  0  0  0
  -25.9031  -34.9488   23.5159 C   0  0  0  0  0  0
  -16.5343  -29.9070   23.6276 C   0  0  0  0  0  0
  -16.7273  -28.6448   23.0382 C   0  0  0  0  0  0
  -26.4433  -31.6626   25.0829 C   0  0  0  0  0  0
  -25.3723  -31.3669   26.1611 C   0  0  0  0  0  0
  -27.0209  -30.3068   24.6179 C   0  0  0  0  0  0
  -27.5981  -32.4380   25.7589 C   0  0  0  0  0  0
  -27.5590  -37.1832   24.8468 C   0  0  0  0  0  0
  -21.4158  -29.3013   22.3769 N   0  0  0  0  0  0
  -26.4278  -37.3830   23.9439 N   0  0  0  0  0  0
  -24.6761  -31.0781   22.1075 N   0  0  0  0  0  0
  -23.4223  -28.8121   23.2999 O   0  0  0  0  0  0
  -28.4033  -26.6649   19.9936 O   0  0  0  0  0  0
  -26.5627  -34.8927   22.4737 O   0  0  0  0  0  0
  -23.5364  -32.1415   23.7570 O   0  0  0  0  0  0
  -29.6990  -18.0399   17.5294 C   0  0  0  0  0  0
  -29.5651  -18.3312   20.2977 C   0  0  0  0  0  0
  -29.4654  -19.3282   18.0587 C   0  0  0  0  0  0
  -29.7977  -17.0166   19.7610 C   0  0  0  0  0  0
  -29.4199  -19.5051   19.4742 C   0  0  0  0  0  0
  -29.8609  -16.9115   18.3554 C   0  0  0  0  0  0
  -29.4849  -24.4859   19.3731 C   0  0  0  0  0  0
  -29.0212  -23.2026   19.4871 C   0  0  0  0  0  0
  -29.1765  -20.4305   17.0401 C   0  0  0  0  0  0
  -28.5877  -25.6669   18.9517 C   0  0  0  0  0  0
  -29.8507  -21.9416   19.8572 C   0  0  0  0  0  0
  -29.7934  -15.7927   20.5651 N   0  0  0  0  0  0
  -29.0678  -20.7289   20.0665 O   0  0  0  0  0  0
  -29.9985  -15.7051   17.7634 F   0  0  0  0  0  0
  -31.4942  -12.5461   19.2249 H   0  0  0  0  0  0
  -30.3834  -11.4503   20.0048 H   0  0  0  0  0  0
  -29.7942  -11.6722   17.5870 H   0  0  0  0  0  0
  -29.7443  -13.3967   17.7190 H   0  0  0  0  0  0
  -27.7851  -11.3607   18.8189 H   0  0  0  0  0  0
  -27.4371  -12.7263   17.7863 H   0  0  0  0  0  0
  -27.6549  -14.2916   19.5581 H   0  0  0  0  0  0
  -28.7200  -12.1452   21.4653 H   0  0  0  0  0  0
  -28.4607  -13.8231   21.8424 H   0  0  0  0  0  0
  -25.2709   -9.5801   22.4869 H   0  0  0  0  0  0
  -23.9986   -7.4728   22.7493 H   0  0  0  0  0  0
  -21.0836   -8.8905   19.8940 H   0  0  0  0  0  0
  -22.3728  -10.9796   19.6242 H   0  0  0  0  0  0
  -21.1970   -7.6167   23.9778 H   0  0  0  0  0  0
  -21.1547   -6.0507   25.9092 H   0  0  0  0  0  0
  -22.0542   -2.7683   23.2718 H   0  0  0  0  0  0
  -22.3652  -11.9747   22.4458 H   0  0  0  0  0  0
  -21.1166  -13.1736   22.2896 H   0  0  0  0  0  0
  -24.6466  -15.8565   20.5609 H   0  0  0  0  0  0
  -26.2634  -15.6737   20.1323 H   0  0  0  0  0  0
  -26.7112  -32.5488   23.1218 H   0  0  0  0  0  0
  -24.9979  -33.9778   25.0460 H   0  0  0  0  0  0
  -22.6945  -31.3169   21.4276 H   0  0  0  0  0  0
  -23.3749  -35.9635   23.3275 H   0  0  0  0  0  0
  -24.3581  -36.9015   22.2076 H   0  0  0  0  0  0
  -23.7186  -37.6503   23.6695 H   0  0  0  0  0  0
  -26.0926  -31.5971   20.6295 H   0  0  0  0  0  0
  -26.8233  -30.8494   22.0158 H   0  0  0  0  0  0
  -28.1243  -29.0852   21.0868 H   0  0  0  0  0  0
  -25.9075  -25.9344   19.1049 H   0  0  0  0  0  0
  -23.9296  -27.2944   19.1067 H   0  0  0  0  0  0
  -23.7695  -30.6499   19.4343 H   0  0  0  0  0  0
  -22.7346  -29.3149   19.8310 H   0  0  0  0  0  0
  -25.1265  -36.1993   25.0834 H   0  0  0  0  0  0
  -20.9996  -28.3129   24.1452 H   0  0  0  0  0  0
  -20.5619  -26.2221   23.3621 H   0  0  0  0  0  0
  -21.6603  -26.7338   22.1241 H   0  0  0  0  0  0
  -19.6837  -25.6272   21.1244 H   0  0  0  0  0  0
  -19.6610  -27.3198   20.6782 H   0  0  0  0  0  0
  -17.4164  -26.6683   21.4062 H   0  0  0  0  0  0
  -18.0268  -25.9975   22.9023 H   0  0  0  0  0  0
  -19.7912  -30.7184   24.2422 H   0  0  0  0  0  0
  -17.4978  -31.6245   24.5134 H   0  0  0  0  0  0
  -15.5343  -30.3005   23.7480 H   0  0  0  0  0  0
  -15.8690  -28.0760   22.7109 H   0  0  0  0  0  0
  -24.5920  -30.6958   25.8009 H   0  0  0  0  0  0
  -24.8881  -32.2776   26.5154 H   0  0  0  0  0  0
  -25.8189  -30.8843   27.0328 H   0  0  0  0  0  0
  -26.2705  -29.6962   24.1148 H   0  0  0  0  0  0
  -27.3853  -29.7205   25.4628 H   0  0  0  0  0  0
  -27.8634  -30.4404   23.9388 H   0  0  0  0  0  0
  -27.2555  -33.3708   26.2095 H   0  0  0  0  0  0
  -28.3819  -32.6931   25.0438 H   0  0  0  0  0  0
  -28.0577  -31.8552   26.5592 H   0  0  0  0  0  0
  -28.2555  -38.0176   24.7603 H   0  0  0  0  0  0
  -28.1136  -36.2730   24.6177 H   0  0  0  0  0  0
  -27.2336  -37.1377   25.8872 H   0  0  0  0  0  0
  -20.9278  -29.8896   21.7163 H   0  0  0  0  0  0
  -26.0161  -38.2894   24.1499 H   0  0  0  0  0  0
  -29.7009  -17.8896   16.4599 H   0  0  0  0  0  0
  -29.4505  -18.4477   21.3633 H   0  0  0  0  0  0
  -30.5345  -24.7379   19.5622 H   0  0  0  0  0  0
  -27.9565  -23.0253   19.2989 H   0  0  0  0  0  0
  -28.3897  -20.1193   16.3478 H   0  0  0  0  0  0
  -30.0567  -20.6200   16.4240 H   0  0  0  0  0  0
  -28.8605  -21.3758   17.4715 H   0  0  0  0  0  0
  -27.6871  -25.1645   18.6133 H   0  0  0  0  0  0
  -28.9628  -26.1806   18.0578 H   0  0  0  0  0  0
  -30.3444  -22.1621   20.8057 H   0  0  0  0  0  0
  -30.6553  -21.8030   19.1340 H   0  0  0  0  0  0
  -28.8782  -15.5597   20.9153 H   0  0  0  0  0  0
  1 25  1  0  0  0
  1 30  2  0  0  0
  1 82  1  0  0  0
  2  3  1  0  0  0
  2 25  1  0  0  0
  2 85  1  0  0  0
  2 86  1  0  0  0
  3  4  1  0  0  0
  3 87  1  0  0  0
  3 88  1  0  0  0
  4  5  1  0  0  0
  4 89  1  0  0  0
  4 90  1  0  0  0
  5  6  1  0  0  0
  5 26  1  0  0  0
  5 91  1  0  0  0
  6 25  1  0  0  0
  6 92  1  0  0  0
  6 93  1  0  0  0
  7  8  2  0  0  0
  7 26  1  0  0  0
  7 29  1  0  0  0
  8  9  1  0  0  0
  8 22  1  0  0  0
  9 10  1  0  0  0
  9 27  2  0  0  0
 10 11  2  0  0  0
 10 15  1  0  0  0
 11 12  1  0  0  0
 11 94  1  0  0  0
 12 13  2  0  0  0
 12 95  1  0  0  0
 13 14  1  0  0  0
 13 31  1  0  0  0
 14 15  2  0  0  0
 14 96  1  0  0  0
 15 97  1  0  0  0
 16 17  2  0  0  0
 16 21  1  0  0  0
 16 31  1  0  0  0
 17 18  1  0  0  0
 17 98  1  0  0  0
 18 19  2  0  0  0
 18 99  1  0  0  0
 19 20  1  0  0  0
 19 24  1  0  0  0
 20 21  2  0  0  0
 20100  1  0  0  0
 21 23  1  0  0  0
 22 28  1  0  0  0
 22 32  2  0  0  0
 26 27  1  0  0  0
 28101  1  0  0  0
 28102  1  0  0  0
 29103  1  0  0  0
 29104  1  0  0  0
 33 34  1  0  0  0
 33 66  1  0  0  0
 33 70  2  0  0  0
 34 36  1  0  0  0
 34 59  1  0  0  0
 34105  1  0  0  0
 35 44  2  0  0  0
 35 45  1  0  0  0
 35 68  1  0  0  0
 36 56  1  0  0  0
 36106  1  0  0  0
 37 39  1  0  0  0
 37 47  1  0  0  0
 37 66  1  0  0  0
 37107  1  0  0  0
 38 43  2  0  0  0
 38 46  1  0  0  0
 38 47  1  0  0  0
 39 64  1  0  0  0
 39 67  2  0  0  0
 40 52  1  0  0  0
 40 53  2  0  0  0
 40 58  1  0  0  0
 41108  1  0  0  0
 41109  1  0  0  0
 41110  1  0  0  0
 41 48  1  0  0  0
 42 43  1  0  0  0
 42 66  1  0  0  0
 42111  1  0  0  0
 42112  1  0  0  0
 43 44  1  0  0  0
 44113  1  0  0  0
 45 46  2  0  0  0
 45114  1  0  0  0
 46115  1  0  0  0
 47116  1  0  0  0
 47117  1  0  0  0
 48 56  1  0  0  0
 48 65  1  0  0  0
 48118  1  0  0  0
 49 50  1  0  0  0
 49 53  1  0  0  0
 49 64  1  0  0  0
 49119  1  0  0  0
 50 51  1  0  0  0
 50120  1  0  0  0
 50121  1  0  0  0
 51 52  1  0  0  0
 51122  1  0  0  0
 51123  1  0  0  0
 52124  1  0  0  0
 52125  1  0  0  0
 53 54  1  0  0  0
 54 55  2  0  0  0
 54126  1  0  0  0
 55 57  1  0  0  0
 55127  1  0  0  0
 56 69  2  0  0  0
 57 58  2  0  0  0
 57128  1  0  0  0
 58129  1  0  0  0
 59 60  1  0  0  0
 59 61  1  0  0  0
 59 62  1  0  0  0
 60130  1  0  0  0
 60131  1  0  0  0
 60132  1  0  0  0
 61133  1  0  0  0
 61134  1  0  0  0
 61135  1  0  0  0
 62136  1  0  0  0
 62137  1  0  0  0
 62138  1  0  0  0
 63 65  1  0  0  0
 63139  1  0  0  0
 63140  1  0  0  0
 63141  1  0  0  0
 64142  1  0  0  0
 65143  1  0  0  0
 68 80  1  0  0  0
 71 73  2  0  0  0
 71 76  1  0  0  0
 71144  1  0  0  0
 72 74  1  0  0  0
 72 75  2  0  0  0
 72145  1  0  0  0
 73 75  1  0  0  0
 73 79  1  0  0  0
 74 76  2  0  0  0
 74 82  1  0  0  0
 75 83  1  0  0  0
 76 84  1  0  0  0
 77 78  2  0  0  0
 77 80  1  0  0  0
 77146  1  0  0  0
 78 81  1  0  0  0
 78147  1  0  0  0
 79148  1  0  0  0
 79149  1  0  0  0
 79150  1  0  0  0
 80151  1  0  0  0
 80152  1  0  0  0
 81 83  1  0  0  0
 81153  1  0  0  0
 81154  1  0  0  0
 82155  1  0  0  0
M  ISO  4   1 100  68 101  80 101  82 100
M  END
> <chiral flag>
0

> <version>
0

> <s_m_source_file>
/data/baiqing/PycharmProjects/Reinvent-master-3.2/result/LINK_invent/BTK/process_docking_weight1_custom_product_contain_oxygen_bond_distance_aromatic_linkinvent_7_9_3/rearranged_h_0115.sdf

> <i_m_source_file_index>
48

> <r_mmod_Potential_Energy-OPLS-2005>
63.3924407958984

> <r_mmod_Stretch_Energy-OPLS-2005>
67.1098098754883

> <r_mmod_Bend_Energy-OPLS-2005>
129.911758422852

> <r_mmod_Torsional_Energy-OPLS-2005>
274.245483398438

> <r_mmod_Improper_Torsional_Energy-OPLS-2005>
8.02405452728271

> <r_mmod_Van_der_Waal_Energy-OPLS-2005>
149.583694458008

> <r_mmod_Electrostatic_Energy-OPLS-2005>
-405.458282470703

> <r_mmod_Solvation_Energy-OPLS-2005>
-210.791091918945

> <b_mmod_Minimization_Converged-OPLS-2005>
0

> <r_mmod_RMS_Derivative-OPLS-2005>
12.6027774810791

$$$$
48
                    3D
 Structure written by MMmdl.
160168  0  0  1  0            999 V2000
  -30.6186  -14.8691   20.4225 C   0  0  0  0  0  0
  -30.4396  -12.5379   19.4857 C   0  0  0  0  0  0
  -29.5218  -12.4628   18.2483 C   0  0  0  0  0  0
  -28.0535  -12.2710   18.6732 C   0  0  0  0  0  0
  -27.6208  -13.2234   19.8171 C   0  0  2  0  0  0
  -28.6685  -13.2891   20.9481 C   0  0  0  0  0  0
  -25.2342  -13.7938   20.5861 C   0  0  0  0  0  0
  -24.1688  -13.0211   20.9331 C   0  0  0  0  0  0
  -24.6327  -11.6735   20.8755 C   0  0  0  0  0  0
  -23.9014  -10.4143   21.0392 C   0  0  0  0  0  0
  -24.3559   -9.4069   21.9183 C   0  0  0  0  0  0
  -23.6225   -8.2129   22.0753 C   0  0  0  0  0  0
  -22.4211   -8.0185   21.3544 C   0  0  0  0  0  0
  -21.9836   -9.0144   20.4647 C   0  0  0  0  0  0
  -22.7173  -10.2010   20.3053 C   0  0  0  0  0  0
  -21.6805   -6.0675   22.5275 C   0  0  0  0  0  0
  -21.3997   -6.5600   23.8199 C   0  0  0  0  0  0
  -21.3650   -5.6760   24.9174 C   0  0  0  0  0  0
  -21.6037   -4.3024   24.7230 C   0  0  0  0  0  0
  -21.8826   -3.8114   23.4359 C   0  0  0  0  0  0
  -21.9177   -4.6917   22.3405 C   0  0  0  0  0  0
  -22.7717  -13.5037   21.1953 C   0  0  0  0  0  0
  -22.1647   -4.2099   21.0978 F   0  0  0  0  0  0
  -21.5626   -3.4513   25.7752 F   0  0  0  0  0  0
  -29.9485  -13.6574   20.3293 N   0  0  0  0  0  0
  -26.2813  -12.9267   20.3184 N   0  0  0  0  0  0
  -25.9247  -11.6409   20.5664 N   0  0  0  0  0  0
  -22.0344  -12.8113   22.0545 N   0  0  0  0  0  0
  -25.3610  -15.1634   20.4453 N   0  0  0  0  0  0
  -31.8488  -14.8385   20.3179 O   0  0  0  0  0  0
  -21.6579   -6.8799   21.4229 O   0  0  0  0  0  0
  -22.3464  -14.5347   20.6718 O   0  0  0  0  0  0
  -24.6334  -31.8493   23.1892 C   0  0  0  0  0  0
  -25.9137  -32.4733   23.8281 C   0  0  1  0  0  0
  -27.2368  -27.2288   20.1687 C   0  0  0  0  0  0
  -25.5914  -33.8537   24.2199 N   0  0  0  0  0  0
  -23.4349  -30.4655   21.5332 C   0  0  2  0  0  0
  -24.8869  -28.8962   20.1232 C   0  0  0  0  0  0
  -22.7553  -29.4542   22.4879 C   0  0  0  0  0  0
  -18.0325  -28.1365   22.8456 C   0  0  0  0  0  0
  -24.1464  -36.7280   23.2643 C   0  0  0  0  0  0
  -25.9806  -30.7612   21.3671 C   0  0  0  0  0  0
  -26.0593  -29.3739   20.7228 C   0  0  0  0  0  0
  -27.2395  -28.5573   20.7231 C   0  0  0  0  0  0
  -26.0354  -26.8106   19.5601 C   0  0  0  0  0  0
  -24.8788  -27.6216   19.5319 C   0  0  0  0  0  0
  -23.6605  -29.7896   20.1541 C   0  0  0  0  0  0
  -25.4097  -36.3039   24.0309 C   0  0  1  0  0  0
  -20.5917  -28.3697   23.1279 C   0  0  2  0  0  0
  -20.6804  -26.9410   22.5448 C   0  0  0  0  0  0
  -19.5822  -26.6380   21.5192 C   0  0  0  0  0  0
  -18.1989  -26.7923   22.1589 C   0  0  0  0  0  0
  -19.1569  -28.8857   23.2852 C   0  0  0  0  0  0
  -18.9475  -30.1464   23.8857 C   0  0  0  0  0  0
  -17.6460  -30.6572   24.0532 C   0  0  0  0  0  0
  -25.9045  -34.9423   23.5045 C   0  0  0  0  0  0
  -16.5368  -29.9040   23.6320 C   0  0  0  0  0  0
  -16.7307  -28.6454   23.0343 C   0  0  0  0  0  0
  -26.4497  -31.6599   25.0704 C   0  0  0  0  0  0
  -25.3725  -31.3797   26.1440 C   0  0  0  0  0  0
  -27.0340  -30.3010   24.6211 C   0  0  0  0  0  0
  -27.6020  -32.4371   25.7512 C   0  0  0  0  0  0
  -27.5553  -37.1786   24.8462 C   0  0  0  0  0  0
  -21.4253  -29.3008   22.3654 N   0  0  0  0  0  0
  -26.4260  -37.3752   23.9400 N   0  0  0  0  0  0
  -24.7031  -31.0455   22.0866 N   0  0  0  0  0  0
  -23.4250  -28.8095   23.3001 O   0  0  0  0  0  0
  -28.3454  -26.3421   20.1613 O   0  0  0  0  0  0
  -26.5646  -34.8907   22.4625 O   0  0  0  0  0  0
  -23.5471  -32.1326   23.7156 O   0  0  0  0  0  0
  -26.9314  -19.5177   19.3897 C   0  0  0  0  0  0
  -27.7511  -18.3937   19.6025 C   0  0  0  0  0  0
  -27.2422  -20.7989   19.8733 C   0  0  0  0  0  0
  -28.9830  -18.5395   20.3124 C   0  0  0  0  0  0
  -28.5372  -20.9883   20.4130 C   0  0  0  0  0  0
  -26.4283  -16.9266   18.0408 C   0  0  0  0  0  0
  -24.8273  -21.4965   20.0091 C   0  0  0  0  0  0
  -27.2307  -17.1144   19.1045 C   0  0  0  0  0  0
  -26.1402  -21.7924   19.9485 C   0  0  0  0  0  0
  -29.7896  -17.2436   20.8094 C   0  0  0  0  0  0
  -30.0906  -16.2853   18.5895 C   0  0  0  0  0  0
  -28.2368  -24.9508   20.7577 C   0  0  0  0  0  0
  -28.7679  -23.5677   20.0500 C   0  0  0  0  0  0
  -29.3419  -19.8614   20.6706 N   0  0  0  0  0  0
  -29.9553  -16.0611   20.0480 N   0  0  0  0  0  0
  -30.2404  -17.2998   21.9603 O   0  0  0  0  0  0
  -28.9795  -22.2869   20.8344 O   0  0  0  0  0  0
  -31.4738  -12.6829   19.1713 H   0  0  0  0  0  0
  -30.4224  -11.5968   20.0395 H   0  0  0  0  0  0
  -29.8313  -11.6315   17.6128 H   0  0  0  0  0  0
  -29.6310  -13.3641   17.6452 H   0  0  0  0  0  0
  -27.9565  -11.2389   19.0134 H   0  0  0  0  0  0
  -27.3940  -12.3762   17.8096 H   0  0  0  0  0  0
  -27.5719  -14.2000   19.3477 H   0  0  0  0  0  0
  -28.7432  -12.3361   21.4753 H   0  0  0  0  0  0
  -28.3779  -14.0386   21.6837 H   0  0  0  0  0  0
  -25.2706   -9.5527   22.4769 H   0  0  0  0  0  0
  -23.9900   -7.4499   22.7469 H   0  0  0  0  0  0
  -21.0769   -8.8653   19.8953 H   0  0  0  0  0  0
  -22.3637  -10.9543   19.6156 H   0  0  0  0  0  0
  -21.2010   -7.6108   23.9692 H   0  0  0  0  0  0
  -21.1464   -6.0503   25.9068 H   0  0  0  0  0  0
  -22.0632   -2.7578   23.2877 H   0  0  0  0  0  0
  -22.3945  -11.9821   22.5044 H   0  0  0  0  0  0
  -21.0952  -13.1159   22.2680 H   0  0  0  0  0  0
  -24.5031  -15.7044   20.4169 H   0  0  0  0  0  0
  -26.0818  -15.5686   19.8651 H   0  0  0  0  0  0
  -26.7223  -32.5397   23.1043 H   0  0  0  0  0  0
  -24.9992  -33.9680   25.0298 H   0  0  0  0  0  0
  -22.7285  -31.2837   21.3763 H   0  0  0  0  0  0
  -23.3701  -35.9643   23.3318 H   0  0  0  0  0  0
  -24.3529  -36.8903   22.2052 H   0  0  0  0  0  0
  -23.7260  -37.6491   23.6684 H   0  0  0  0  0  0
  -26.1042  -31.5118   20.5864 H   0  0  0  0  0  0
  -26.8640  -30.8292   21.9908 H   0  0  0  0  0  0
  -28.1430  -28.9262   21.1879 H   0  0  0  0  0  0
  -25.9832  -25.8246   19.1210 H   0  0  0  0  0  0
  -23.9796  -27.2370   19.0724 H   0  0  0  0  0  0
  -23.8013  -30.5604   19.3961 H   0  0  0  0  0  0
  -22.7810  -29.2257   19.8394 H   0  0  0  0  0  0
  -25.1279  -36.1845   25.0809 H   0  0  0  0  0  0
  -21.0001  -28.3278   24.1407 H   0  0  0  0  0  0
  -20.5620  -26.2333   23.3660 H   0  0  0  0  0  0
  -21.6703  -26.7367   22.1326 H   0  0  0  0  0  0
  -19.6997  -25.6281   21.1246 H   0  0  0  0  0  0
  -19.6803  -27.3191   20.6721 H   0  0  0  0  0  0
  -17.4283  -26.6667   21.3967 H   0  0  0  0  0  0
  -18.0394  -26.0059   22.8980 H   0  0  0  0  0  0
  -19.7940  -30.7314   24.2221 H   0  0  0  0  0  0
  -17.5001  -31.6271   24.5092 H   0  0  0  0  0  0
  -15.5352  -30.2901   23.7649 H   0  0  0  0  0  0
  -15.8749  -28.0722   22.7070 H   0  0  0  0  0  0
  -24.5881  -30.7149   25.7800 H   0  0  0  0  0  0
  -24.8961  -32.3005   26.4828 H   0  0  0  0  0  0
  -25.8066  -30.9019   27.0236 H   0  0  0  0  0  0
  -26.2931  -29.6781   24.1195 H   0  0  0  0  0  0
  -27.3951  -29.7252   25.4739 H   0  0  0  0  0  0
  -27.8828  -30.4251   23.9487 H   0  0  0  0  0  0
  -27.2573  -33.3663   26.2062 H   0  0  0  0  0  0
  -28.3880  -32.6959   25.0409 H   0  0  0  0  0  0
  -28.0645  -31.8537   26.5481 H   0  0  0  0  0  0
  -28.2564  -38.0084   24.7474 H   0  0  0  0  0  0
  -28.1047  -36.2605   24.6313 H   0  0  0  0  0  0
  -27.2284  -37.1478   25.8874 H   0  0  0  0  0  0
  -20.9434  -29.8792   21.6915 H   0  0  0  0  0  0
  -26.0109  -38.2799   24.1459 H   0  0  0  0  0  0
  -25.9769  -19.3708   18.9088 H   0  0  0  0  0  0
  -26.0956  -15.9316   17.7803 H   0  0  0  0  0  0
  -26.0861  -17.7339   17.4079 H   0  0  0  0  0  0
  -24.0831  -22.2800   20.0461 H   0  0  0  0  0  0
  -24.4622  -20.4783   20.0365 H   0  0  0  0  0  0
  -27.5081  -16.2515   19.6803 H   0  0  0  0  0  0
  -26.3700  -22.8409   19.9519 H   0  0  0  0  0  0
  -29.9138  -17.3092   18.2609 H   0  0  0  0  0  0
  -29.3944  -15.6542   18.0382 H   0  0  0  0  0  0
  -31.0956  -16.0549   18.2283 H   0  0  0  0  0  0
  -28.8326  -25.0376   21.6675 H   0  0  0  0  0  0
  -27.2221  -24.7974   21.1191 H   0  0  0  0  0  0
  -28.1924  -23.3686   19.1484 H   0  0  0  0  0  0
  -29.7535  -23.7930   19.6439 H   0  0  0  0  0  0
  1 25  1  0  0  0
  1 30  2  0  0  0
  1 85  1  0  0  0
  2  3  1  0  0  0
  2 25  1  0  0  0
  2 88  1  0  0  0
  2 89  1  0  0  0
  3  4  1  0  0  0
  3 90  1  0  0  0
  3 91  1  0  0  0
  4  5  1  0  0  0
  4 92  1  0  0  0
  4 93  1  0  0  0
  5  6  1  0  0  0
  5 26  1  0  0  0
  5 94  1  0  0  0
  6 25  1  0  0  0
  6 95  1  0  0  0
  6 96  1  0  0  0
  7  8  2  0  0  0
  7 26  1  0  0  0
  7 29  1  0  0  0
  8  9  1  0  0  0
  8 22  1  0  0  0
  9 10  1  0  0  0
  9 27  2  0  0  0
 10 11  2  0  0  0
 10 15  1  0  0  0
 11 12  1  0  0  0
 11 97  1  0  0  0
 12 13  2  0  0  0
 12 98  1  0  0  0
 13 14  1  0  0  0
 13 31  1  0  0  0
 14 15  2  0  0  0
 14 99  1  0  0  0
 15100  1  0  0  0
 16 17  2  0  0  0
 16 21  1  0  0  0
 16 31  1  0  0  0
 17 18  1  0  0  0
 17101  1  0  0  0
 18 19  2  0  0  0
 18102  1  0  0  0
 19 20  1  0  0  0
 19 24  1  0  0  0
 20 21  2  0  0  0
 20103  1  0  0  0
 21 23  1  0  0  0
 22 28  1  0  0  0
 22 32  2  0  0  0
 26 27  1  0  0  0
 28104  1  0  0  0
 28105  1  0  0  0
 29106  1  0  0  0
 29107  1  0  0  0
 33 34  1  0  0  0
 33 66  1  0  0  0
 33 70  2  0  0  0
 34 36  1  0  0  0
 34 59  1  0  0  0
 34108  1  0  0  0
 35 44  2  0  0  0
 35 45  1  0  0  0
 35 68  1  0  0  0
 36 56  1  0  0  0
 36109  1  0  0  0
 37 39  1  0  0  0
 37 47  1  0  0  0
 37 66  1  0  0  0
 37110  1  0  0  0
 38 43  2  0  0  0
 38 46  1  0  0  0
 38 47  1  0  0  0
 39 64  1  0  0  0
 39 67  2  0  0  0
 40 52  1  0  0  0
 40 53  2  0  0  0
 40 58  1  0  0  0
 41111  1  0  0  0
 41112  1  0  0  0
 41113  1  0  0  0
 41 48  1  0  0  0
 42 43  1  0  0  0
 42 66  1  0  0  0
 42114  1  0  0  0
 42115  1  0  0  0
 43 44  1  0  0  0
 44116  1  0  0  0
 45 46  2  0  0  0
 45117  1  0  0  0
 46118  1  0  0  0
 47119  1  0  0  0
 47120  1  0  0  0
 48 56  1  0  0  0
 48 65  1  0  0  0
 48121  1  0  0  0
 49 50  1  0  0  0
 49 53  1  0  0  0
 49 64  1  0  0  0
 49122  1  0  0  0
 50 51  1  0  0  0
 50123  1  0  0  0
 50124  1  0  0  0
 51 52  1  0  0  0
 51125  1  0  0  0
 51126  1  0  0  0
 52127  1  0  0  0
 52128  1  0  0  0
 53 54  1  0  0  0
 54 55  2  0  0  0
 54129  1  0  0  0
 55 57  1  0  0  0
 55130  1  0  0  0
 56 69  2  0  0  0
 57 58  2  0  0  0
 57131  1  0  0  0
 58132  1  0  0  0
 59 60  1  0  0  0
 59 61  1  0  0  0
 59 62  1  0  0  0
 60133  1  0  0  0
 60134  1  0  0  0
 60135  1  0  0  0
 61136  1  0  0  0
 61137  1  0  0  0
 61138  1  0  0  0
 62139  1  0  0  0
 62140  1  0  0  0
 62141  1  0  0  0
 63 65  1  0  0  0
 63142  1  0  0  0
 63143  1  0  0  0
 63144  1  0  0  0
 64145  1  0  0  0
 65146  1  0  0  0
 68 82  1  0  0  0
 71 72  2  0  0  0
 71 73  1  0  0  0
 71147  1  0  0  0
 72 74  1  0  0  0
 72 78  1  0  0  0
 73 75  2  0  0  0
 73 79  1  0  0  0
 74 80  1  0  0  0
 74 84  2  0  0  0
 75 84  1  0  0  0
 75 87  1  0  0  0
 76 78  2  0  0  0
 76148  1  0  0  0
 76149  1  0  0  0
 77 79  2  0  0  0
 77150  1  0  0  0
 77151  1  0  0  0
 78152  1  0  0  0
 79153  1  0  0  0
 80 85  1  0  0  0
 80 86  2  0  0  0
 81 85  1  0  0  0
 81154  1  0  0  0
 81155  1  0  0  0
 81156  1  0  0  0
 82 83  1  0  0  0
 82157  1  0  0  0
 82158  1  0  0  0
 83 87  1  0  0  0
 83159  1  0  0  0
 83160  1  0  0  0
M  ISO  4   1 100  68 101  82 101  85 100
M  END
> <chiral flag>
0

> <version>
0

> <s_m_source_file>
/data/baiqing/PycharmProjects/Reinvent-master-3.2/result/LINK_invent/BTK/process_docking_weight1_custom_product_contain_oxygen_bond_distance_aromatic_linkinvent_7_9_3/rearranged_h_0115.sdf

> <i_m_source_file_index>
49

> <r_mmod_Potential_Energy-OPLS-2005>
513.710632324219

> <r_mmod_Stretch_Energy-OPLS-2005>
177.888702392578

> <r_mmod_Bend_Energy-OPLS-2005>
216.836730957031

> <r_mmod_Torsional_Energy-OPLS-2005>
391.739532470703

> <r_mmod_Improper_Torsional_Energy-OPLS-2005>
27.9260311126709

> <r_mmod_Van_der_Waal_Energy-OPLS-2005>
166.402328491211

> <r_mmod_Electrostatic_Energy-OPLS-2005>
-397.399993896484

> <r_mmod_Solvation_Energy-OPLS-2005>
-209.119033813477

> <b_mmod_Minimization_Converged-OPLS-2005>
0

> <r_mmod_RMS_Derivative-OPLS-2005>
4.46533870697021

$$$$
49
                    3D
 Structure written by MMmdl.
148156  0  0  1  0            999 V2000
  -30.4916  -15.0216   20.4041 C   0  0  0  0  0  0
  -30.4464  -12.6316   19.5155 C   0  0  0  0  0  0
  -29.5302  -12.5508   18.2699 C   0  0  0  0  0  0
  -28.0641  -12.3226   18.6828 C   0  0  0  0  0  0
  -27.6310  -13.2535   19.8446 C   0  0  2  0  0  0
  -28.6707  -13.2917   20.9859 C   0  0  0  0  0  0
  -25.2458  -13.8216   20.5736 C   0  0  0  0  0  0
  -24.1773  -13.0431   20.9217 C   0  0  0  0  0  0
  -24.6399  -11.6921   20.8740 C   0  0  0  0  0  0
  -23.9084  -10.4290   21.0397 C   0  0  0  0  0  0
  -24.3631   -9.4207   21.9178 C   0  0  0  0  0  0
  -23.6301   -8.2244   22.0752 C   0  0  0  0  0  0
  -22.4282   -8.0282   21.3543 C   0  0  0  0  0  0
  -21.9920   -9.0254   20.4644 C   0  0  0  0  0  0
  -22.7253  -10.2131   20.3049 C   0  0  0  0  0  0
  -21.6855   -6.0737   22.5279 C   0  0  0  0  0  0
  -21.4015   -6.5640   23.8212 C   0  0  0  0  0  0
  -21.3660   -5.6792   24.9174 C   0  0  0  0  0  0
  -21.6045   -4.3055   24.7224 C   0  0  0  0  0  0
  -21.8819   -3.8147   23.4345 C   0  0  0  0  0  0
  -21.9192   -4.6964   22.3402 C   0  0  0  0  0  0
  -22.7793  -13.5200   21.1875 C   0  0  0  0  0  0
  -22.1661   -4.2150   21.0979 F   0  0  0  0  0  0
  -21.5630   -3.4538   25.7737 F   0  0  0  0  0  0
  -29.9441  -13.7308   20.3971 N   0  0  0  0  0  0
  -26.2893  -12.9462   20.3268 N   0  0  0  0  0  0
  -25.9337  -11.6583   20.5734 N   0  0  0  0  0  0
  -22.0447  -12.8188   22.0434 N   0  0  0  0  0  0
  -25.4118  -15.1951   20.4229 N   0  0  0  0  0  0
  -31.6776  -15.1146   20.0638 O   0  0  0  0  0  0
  -21.6642   -6.8882   21.4242 O   0  0  0  0  0  0
  -22.3475  -14.5505   20.6723 O   0  0  0  0  0  0
  -24.6479  -31.8375   23.1822 C   0  0  0  0  0  0
  -25.9229  -32.4658   23.8233 C   0  0  1  0  0  0
  -27.2246  -27.0803   20.1520 C   0  0  0  0  0  0
  -25.5956  -33.8468   24.2147 N   0  0  0  0  0  0
  -23.4551  -30.4534   21.5278 C   0  0  2  0  0  0
  -24.9075  -28.8697   20.1036 C   0  0  0  0  0  0
  -22.7592  -29.4508   22.4829 C   0  0  0  0  0  0
  -18.0308  -28.1400   22.8474 C   0  0  0  0  0  0
  -24.1493  -36.7239   23.2644 C   0  0  0  0  0  0
  -26.0137  -30.6912   21.3910 C   0  0  0  0  0  0
  -26.0831  -29.2974   20.7314 C   0  0  0  0  0  0
  -27.2347  -28.4165   20.7433 C   0  0  0  0  0  0
  -26.0221  -26.7665   19.4803 C   0  0  0  0  0  0
  -24.8932  -27.6201   19.4630 C   0  0  0  0  0  0
  -23.6849  -29.7772   20.1483 C   0  0  0  0  0  0
  -25.4128  -36.3010   24.0310 C   0  0  1  0  0  0
  -20.5924  -28.3731   23.1222 C   0  0  2  0  0  0
  -20.6790  -26.9427   22.5406 C   0  0  0  0  0  0
  -19.5765  -26.6379   21.5215 C   0  0  0  0  0  0
  -18.1946  -26.7937   22.1624 C   0  0  0  0  0  0
  -19.1567  -28.8884   23.2838 C   0  0  0  0  0  0
  -18.9482  -30.1479   23.8866 C   0  0  0  0  0  0
  -17.6478  -30.6594   24.0558 C   0  0  0  0  0  0
  -25.9082  -34.9388   23.5042 C   0  0  0  0  0  0
  -16.5368  -29.9085   23.6340 C   0  0  0  0  0  0
  -16.7292  -28.6505   23.0358 C   0  0  0  0  0  0
  -26.4532  -31.6554   25.0705 C   0  0  0  0  0  0
  -25.3699  -31.3768   26.1389 C   0  0  0  0  0  0
  -27.0409  -30.2939   24.6340 C   0  0  0  0  0  0
  -27.6048  -32.4338   25.7495 C   0  0  0  0  0  0
  -27.5574  -37.1776   24.8465 C   0  0  0  0  0  0
  -21.4278  -29.3042   22.3582 N   0  0  0  0  0  0
  -26.4285  -37.3731   23.9407 N   0  0  0  0  0  0
  -24.7255  -31.0174   22.0883 N   0  0  0  0  0  0
  -23.4208  -28.8070   23.3012 O   0  0  0  0  0  0
  -28.2678  -26.0738   20.2936 O   0  0  0  0  0  0
  -26.5679  -34.8899   22.4628 O   0  0  0  0  0  0
  -23.5585  -32.1282   23.7006 O   0  0  0  0  0  0
  -28.5171  -19.4716   19.1070 C   0  0  0  0  0  0
  -28.7617  -18.0189   19.2208 C   0  0  0  0  0  0
  -29.0445  -20.3443   20.0491 C   0  0  0  0  0  0
  -29.5427  -17.5605   20.2798 C   0  0  0  0  0  0
  -29.0474  -21.9104   19.8872 C   0  0  0  0  0  0
  -28.3415  -23.1089   20.2470 C   0  0  0  0  0  0
  -28.1583  -17.0700   18.2264 C   0  0  0  0  0  0
  -28.3800  -24.6585   19.6046 C   0  0  0  0  0  0
  -29.6828  -16.1694   20.7036 N   0  0  0  0  0  0
  -29.9820  -19.1619   21.1145 S   0  0  0  0  0  0
  -31.4785  -12.8010   19.2050 H   0  0  0  0  0  0
  -30.4537  -11.6817   20.0523 H   0  0  0  0  0  0
  -29.8620  -11.7523   17.6049 H   0  0  0  0  0  0
  -29.6089  -13.4774   17.6992 H   0  0  0  0  0  0
  -27.9680  -11.2812   18.9920 H   0  0  0  0  0  0
  -27.4023  -12.4486   17.8252 H   0  0  0  0  0  0
  -27.5896  -14.2540   19.4142 H   0  0  0  0  0  0
  -28.7710  -12.3139   21.4595 H   0  0  0  0  0  0
  -28.3545  -13.9807   21.7703 H   0  0  0  0  0  0
  -25.2775   -9.5683   22.4755 H   0  0  0  0  0  0
  -24.0007   -7.4637   22.7474 H   0  0  0  0  0  0
  -21.0849   -8.8776   19.8952 H   0  0  0  0  0  0
  -22.3709  -10.9670   19.6159 H   0  0  0  0  0  0
  -21.2008   -7.6148   23.9717 H   0  0  0  0  0  0
  -21.1483   -6.0522   25.9077 H   0  0  0  0  0  0
  -22.0597   -2.7609   23.2843 H   0  0  0  0  0  0
  -22.4072  -11.9854   22.4824 H   0  0  0  0  0  0
  -21.1063  -13.1205   22.2642 H   0  0  0  0  0  0
  -24.6434  -15.8451   20.5483 H   0  0  0  0  0  0
  -26.2642  -15.6449   20.1194 H   0  0  0  0  0  0
  -26.7292  -32.5242   23.0953 H   0  0  0  0  0  0
  -25.0070  -33.9572   25.0273 H   0  0  0  0  0  0
  -22.7606  -31.2808   21.3684 H   0  0  0  0  0  0
  -23.3763  -35.9562   23.3287 H   0  0  0  0  0  0
  -24.3574  -36.8896   22.2063 H   0  0  0  0  0  0
  -23.7242  -37.6424   23.6701 H   0  0  0  0  0  0
  -26.1785  -31.4429   20.6179 H   0  0  0  0  0  0
  -26.8802  -30.7413   22.0387 H   0  0  0  0  0  0
  -28.1234  -28.7343   21.2703 H   0  0  0  0  0  0
  -25.9028  -25.8047   19.0069 H   0  0  0  0  0  0
  -23.9941  -27.2853   18.9641 H   0  0  0  0  0  0
  -23.8230  -30.5499   19.3911 H   0  0  0  0  0  0
  -22.7990  -29.2204   19.8381 H   0  0  0  0  0  0
  -25.1321  -36.1826   25.0802 H   0  0  0  0  0  0
  -21.0016  -28.3329   24.1344 H   0  0  0  0  0  0
  -20.5680  -26.2347   23.3633 H   0  0  0  0  0  0
  -21.6655  -26.7424   22.1207 H   0  0  0  0  0  0
  -19.6925  -25.6282   21.1265 H   0  0  0  0  0  0
  -19.6702  -27.3173   20.6732 H   0  0  0  0  0  0
  -17.4216  -26.6681   21.4026 H   0  0  0  0  0  0
  -18.0341  -26.0086   22.9026 H   0  0  0  0  0  0
  -19.7958  -30.7304   24.2220 H   0  0  0  0  0  0
  -17.5031  -31.6271   24.5166 H   0  0  0  0  0  0
  -15.5367  -30.2978   23.7682 H   0  0  0  0  0  0
  -15.8692  -28.0814   22.7090 H   0  0  0  0  0  0
  -24.5882  -30.7114   25.7706 H   0  0  0  0  0  0
  -24.8886  -32.2959   26.4739 H   0  0  0  0  0  0
  -25.7964  -30.8986   27.0216 H   0  0  0  0  0  0
  -26.3043  -29.6644   24.1336 H   0  0  0  0  0  0
  -27.3980  -29.7265   25.4945 H   0  0  0  0  0  0
  -27.8968  -30.4153   23.9699 H   0  0  0  0  0  0
  -27.2630  -33.3664   26.1995 H   0  0  0  0  0  0
  -28.3900  -32.6857   25.0354 H   0  0  0  0  0  0
  -28.0672  -31.8517   26.5477 H   0  0  0  0  0  0
  -28.2580  -38.0083   24.7512 H   0  0  0  0  0  0
  -28.1081  -36.2611   24.6292 H   0  0  0  0  0  0
  -27.2289  -37.1421   25.8866 H   0  0  0  0  0  0
  -20.9502  -29.8740   21.6739 H   0  0  0  0  0  0
  -26.0144  -38.2795   24.1412 H   0  0  0  0  0  0
  -27.9379  -19.8391   18.2714 H   0  0  0  0  0  0
  -29.8135  -22.1563   19.1646 H   0  0  0  0  0  0
  -27.5558  -22.9899   20.9793 H   0  0  0  0  0  0
  -27.9560  -17.5630   17.2753 H   0  0  0  0  0  0
  -27.2142  -16.6655   18.5886 H   0  0  0  0  0  0
  -28.8204  -16.2304   18.0134 H   0  0  0  0  0  0
  -27.6538  -24.6340   18.7953 H   0  0  0  0  0  0
  -29.3329  -24.7020   19.0768 H   0  0  0  0  0  0
  -28.8196  -15.8351   21.1052 H   0  0  0  0  0  0
  1 25  1  0  0  0
  1 30  2  0  0  0
  1 79  1  0  0  0
  2  3  1  0  0  0
  2 25  1  0  0  0
  2 81  1  0  0  0
  2 82  1  0  0  0
  3  4  1  0  0  0
  3 83  1  0  0  0
  3 84  1  0  0  0
  4  5  1  0  0  0
  4 85  1  0  0  0
  4 86  1  0  0  0
  5  6  1  0  0  0
  5 26  1  0  0  0
  5 87  1  0  0  0
  6 25  1  0  0  0
  6 88  1  0  0  0
  6 89  1  0  0  0
  7  8  2  0  0  0
  7 26  1  0  0  0
  7 29  1  0  0  0
  8  9  1  0  0  0
  8 22  1  0  0  0
  9 10  1  0  0  0
  9 27  2  0  0  0
 10 11  2  0  0  0
 10 15  1  0  0  0
 11 12  1  0  0  0
 11 90  1  0  0  0
 12 13  2  0  0  0
 12 91  1  0  0  0
 13 14  1  0  0  0
 13 31  1  0  0  0
 14 15  2  0  0  0
 14 92  1  0  0  0
 15 93  1  0  0  0
 16 17  2  0  0  0
 16 21  1  0  0  0
 16 31  1  0  0  0
 17 18  1  0  0  0
 17 94  1  0  0  0
 18 19  2  0  0  0
 18 95  1  0  0  0
 19 20  1  0  0  0
 19 24  1  0  0  0
 20 21  2  0  0  0
 20 96  1  0  0  0
 21 23  1  0  0  0
 22 28  1  0  0  0
 22 32  2  0  0  0
 26 27  1  0  0  0
 28 97  1  0  0  0
 28 98  1  0  0  0
 29 99  1  0  0  0
 29100  1  0  0  0
 33 34  1  0  0  0
 33 66  1  0  0  0
 33 70  2  0  0  0
 34 36  1  0  0  0
 34 59  1  0  0  0
 34101  1  0  0  0
 35 44  2  0  0  0
 35 45  1  0  0  0
 35 68  1  0  0  0
 36 56  1  0  0  0
 36102  1  0  0  0
 37 39  1  0  0  0
 37 47  1  0  0  0
 37 66  1  0  0  0
 37103  1  0  0  0
 38 43  2  0  0  0
 38 46  1  0  0  0
 38 47  1  0  0  0
 39 64  1  0  0  0
 39 67  2  0  0  0
 40 52  1  0  0  0
 40 53  2  0  0  0
 40 58  1  0  0  0
 41104  1  0  0  0
 41105  1  0  0  0
 41106  1  0  0  0
 41 48  1  0  0  0
 42 43  1  0  0  0
 42 66  1  0  0  0
 42107  1  0  0  0
 42108  1  0  0  0
 43 44  1  0  0  0
 44109  1  0  0  0
 45 46  2  0  0  0
 45110  1  0  0  0
 46111  1  0  0  0
 47112  1  0  0  0
 47113  1  0  0  0
 48 56  1  0  0  0
 48 65  1  0  0  0
 48114  1  0  0  0
 49 50  1  0  0  0
 49 53  1  0  0  0
 49 64  1  0  0  0
 49115  1  0  0  0
 50 51  1  0  0  0
 50116  1  0  0  0
 50117  1  0  0  0
 51 52  1  0  0  0
 51118  1  0  0  0
 51119  1  0  0  0
 52120  1  0  0  0
 52121  1  0  0  0
 53 54  1  0  0  0
 54 55  2  0  0  0
 54122  1  0  0  0
 55 57  1  0  0  0
 55123  1  0  0  0
 56 69  2  0  0  0
 57 58  2  0  0  0
 57124  1  0  0  0
 58125  1  0  0  0
 59 60  1  0  0  0
 59 61  1  0  0  0
 59 62  1  0  0  0
 60126  1  0  0  0
 60127  1  0  0  0
 60128  1  0  0  0
 61129  1  0  0  0
 61130  1  0  0  0
 61131  1  0  0  0
 62132  1  0  0  0
 62133  1  0  0  0
 62134  1  0  0  0
 63 65  1  0  0  0
 63135  1  0  0  0
 63136  1  0  0  0
 63137  1  0  0  0
 64138  1  0  0  0
 65139  1  0  0  0
 68 78  1  0  0  0
 71 72  1  0  0  0
 71 73  2  0  0  0
 71140  1  0  0  0
 72 74  2  0  0  0
 72 77  1  0  0  0
 73 75  1  0  0  0
 73 80  1  0  0  0
 74 79  1  0  0  0
 74 80  1  0  0  0
 75 76  2  0  0  0
 75141  1  0  0  0
 76 78  1  0  0  0
 76142  1  0  0  0
 77143  1  0  0  0
 77144  1  0  0  0
 77145  1  0  0  0
 78146  1  0  0  0
 78147  1  0  0  0
 79148  1  0  0  0
M  ISO  4   1 100  68 101  78 101  79 100
M  END
> <chiral flag>
0

> <version>
0

> <s_m_source_file>
/data/baiqing/PycharmProjects/Reinvent-master-3.2/result/LINK_invent/BTK/process_docking_weight1_custom_product_contain_oxygen_bond_distance_aromatic_linkinvent_7_9_3/rearranged_h_0115.sdf

> <i_m_source_file_index>
50

> <r_mmod_Potential_Energy-OPLS-2005>
684.709533691406

> <r_mmod_Stretch_Energy-OPLS-2005>
285.904083251953

> <r_mmod_Bend_Energy-OPLS-2005>
332.171020507812

> <r_mmod_Torsional_Energy-OPLS-2005>
277.893218994141

> <r_mmod_Improper_Torsional_Energy-OPLS-2005>
10.315037727356

> <r_mmod_Van_der_Waal_Energy-OPLS-2005>
104.196754455566

> <r_mmod_Electrostatic_Energy-OPLS-2005>
-361.419281005859

> <r_mmod_Solvation_Energy-OPLS-2005>
-213.448989868164

> <b_mmod_Minimization_Converged-OPLS-2005>
0

> <r_mmod_RMS_Derivative-OPLS-2005>
0.160075843334198

$$$$
50
                    3D
 Structure written by MMmdl.
160168  0  0  1  0            999 V2000
  -30.7882  -14.3930   20.6411 C   0  0  0  0  0  0
  -30.3925  -12.2825   19.4210 C   0  0  0  0  0  0
  -29.4840  -12.5367   18.2029 C   0  0  0  0  0  0
  -28.0065  -12.3929   18.6144 C   0  0  0  0  0  0
  -27.6616  -13.2146   19.8840 C   0  0  2  0  0  0
  -28.7045  -13.0005   21.0070 C   0  0  0  0  0  0
  -25.2575  -13.8176   20.5751 C   0  0  0  0  0  0
  -24.1833  -13.0456   20.9212 C   0  0  0  0  0  0
  -24.6396  -11.6928   20.8752 C   0  0  0  0  0  0
  -23.9051  -10.4307   21.0392 C   0  0  0  0  0  0
  -24.3605   -9.4215   21.9177 C   0  0  0  0  0  0
  -23.6292   -8.2239   22.0739 C   0  0  0  0  0  0
  -22.4267   -8.0282   21.3544 C   0  0  0  0  0  0
  -21.9896   -9.0243   20.4632 C   0  0  0  0  0  0
  -22.7208  -10.2129   20.3049 C   0  0  0  0  0  0
  -21.6848   -6.0755   22.5297 C   0  0  0  0  0  0
  -21.4005   -6.5663   23.8230 C   0  0  0  0  0  0
  -21.3657   -5.6804   24.9195 C   0  0  0  0  0  0
  -21.6045   -4.3070   24.7220 C   0  0  0  0  0  0
  -21.8812   -3.8166   23.4344 C   0  0  0  0  0  0
  -21.9189   -4.6985   22.3403 C   0  0  0  0  0  0
  -22.7852  -13.5228   21.1879 C   0  0  0  0  0  0
  -22.1674   -4.2187   21.0977 F   0  0  0  0  0  0
  -21.5612   -3.4547   25.7727 F   0  0  0  0  0  0
  -30.0393  -13.2704   20.4550 N   0  0  0  0  0  0
  -26.3032  -12.9377   20.3436 N   0  0  0  0  0  0
  -25.9331  -11.6523   20.5778 N   0  0  0  0  0  0
  -22.0522  -12.8201   22.0440 N   0  0  0  0  0  0
  -25.4282  -15.1896   20.4137 N   0  0  0  0  0  0
  -31.8632  -14.5323   20.0492 O   0  0  0  0  0  0
  -21.6637   -6.8884   21.4252 O   0  0  0  0  0  0
  -22.3551  -14.5564   20.6750 O   0  0  0  0  0  0
  -24.6131  -31.8674   23.2140 C   0  0  0  0  0  0
  -25.9044  -32.4815   23.8414 C   0  0  1  0  0  0
  -27.2403  -27.4403   20.1002 C   0  0  0  0  0  0
  -25.5945  -33.8615   24.2337 N   0  0  0  0  0  0
  -23.3997  -30.4905   21.5531 C   0  0  2  0  0  0
  -24.8492  -28.9587   20.1156 C   0  0  0  0  0  0
  -22.7392  -29.4641   22.5003 C   0  0  0  0  0  0
  -18.0265  -28.1389   22.8486 C   0  0  0  0  0  0
  -24.1483  -36.7263   23.2636 C   0  0  0  0  0  0
  -25.9237  -30.8380   21.3613 C   0  0  0  0  0  0
  -26.0056  -29.4705   20.7140 C   0  0  0  0  0  0
  -27.2041  -28.7196   20.7033 C   0  0  0  0  0  0
  -26.0621  -26.9455   19.4956 C   0  0  0  0  0  0
  -24.8705  -27.6928   19.5045 C   0  0  0  0  0  0
  -23.6082  -29.8228   20.1663 C   0  0  0  0  0  0
  -25.4116  -36.3092   24.0329 C   0  0  1  0  0  0
  -20.5848  -28.3657   23.1354 C   0  0  2  0  0  0
  -20.6750  -26.9395   22.5420 C   0  0  0  0  0  0
  -19.5740  -26.6401   21.5193 C   0  0  0  0  0  0
  -18.1922  -26.7956   22.1598 C   0  0  0  0  0  0
  -19.1509  -28.8836   23.2928 C   0  0  0  0  0  0
  -18.9445  -30.1454   23.8936 C   0  0  0  0  0  0
  -17.6454  -30.6607   24.0564 C   0  0  0  0  0  0
  -25.9036  -34.9462   23.5113 C   0  0  0  0  0  0
  -16.5340  -29.9111   23.6326 C   0  0  0  0  0  0
  -16.7260  -28.6509   23.0369 C   0  0  0  0  0  0
  -26.4496  -31.6609   25.0724 C   0  0  0  0  0  0
  -25.3783  -31.3671   26.1483 C   0  0  0  0  0  0
  -27.0293  -30.3076   24.6010 C   0  0  0  0  0  0
  -27.6122  -32.4283   25.7491 C   0  0  0  0  0  0
  -27.5560  -37.1801   24.8482 C   0  0  0  0  0  0
  -21.4110  -29.3037   22.3757 N   0  0  0  0  0  0
  -26.4299  -37.3792   23.9394 N   0  0  0  0  0  0
  -24.6636  -31.0803   22.1031 N   0  0  0  0  0  0
  -23.4162  -28.8189   23.3053 O   0  0  0  0  0  0
  -28.4165  -26.7153   20.1247 O   0  0  0  0  0  0
  -26.5549  -34.8926   22.4632 O   0  0  0  0  0  0
  -23.5333  -32.1417   23.7546 O   0  0  0  0  0  0
  -30.0094  -19.4935   23.4549 C   0  0  0  0  0  0
  -30.3636  -19.0333   20.7904 C   0  0  0  0  0  0
  -29.9756  -18.1559   23.0010 C   0  0  0  0  0  0
  -30.1781  -17.8998   21.6167 C   0  0  0  0  0  0
  -30.2271  -20.5403   22.5437 C   0  0  0  0  0  0
  -28.6874  -16.3576   24.1203 C   0  0  0  0  0  0
  -29.7912  -17.1097   24.0128 C   0  0  0  0  0  0
  -30.3137  -16.5678   20.9502 C   0  0  0  0  0  0
  -29.5417  -23.7727   21.5706 C   0  0  0  0  0  0
  -29.5687  -24.5763   20.4839 C   0  0  0  0  0  0
  -30.8243  -24.8479   19.6607 C   0  0  0  0  0  0
  -30.7070  -22.9902   22.1674 C   0  0  0  0  0  0
  -28.3082  -25.2915   20.0080 C   0  0  0  0  0  0
  -30.3956  -20.3114   21.2299 N   0  0  0  0  0  0
  -30.2429  -15.3873   21.4506 N   0  0  0  0  0  0
  -30.2795  -21.8645   23.0021 N   0  0  0  0  0  0
  -31.4448  -12.3174   19.1347 H   0  0  0  0  0  0
  -30.2361  -11.2722   19.7998 H   0  0  0  0  0  0
  -29.7151  -11.8388   17.3976 H   0  0  0  0  0  0
  -29.6658  -13.5387   17.8081 H   0  0  0  0  0  0
  -27.8138  -11.3355   18.7936 H   0  0  0  0  0  0
  -27.3523  -12.6910   17.7925 H   0  0  0  0  0  0
  -27.7037  -14.2625   19.5905 H   0  0  0  0  0  0
  -28.6715  -11.9754   21.3767 H   0  0  0  0  0  0
  -28.4679  -13.6287   21.8648 H   0  0  0  0  0  0
  -25.2756   -9.5709   22.4750 H   0  0  0  0  0  0
  -24.0038   -7.4613   22.7427 H   0  0  0  0  0  0
  -21.0842   -8.8720   19.8919 H   0  0  0  0  0  0
  -22.3661  -10.9657   19.6146 H   0  0  0  0  0  0
  -21.2020   -7.6180   23.9754 H   0  0  0  0  0  0
  -21.1482   -6.0539   25.9099 H   0  0  0  0  0  0
  -22.0595   -2.7639   23.2822 H   0  0  0  0  0  0
  -22.4104  -11.9835   22.4809 H   0  0  0  0  0  0
  -21.1130  -13.1179   22.2640 H   0  0  0  0  0  0
  -24.6638  -15.8444   20.5196 H   0  0  0  0  0  0
  -26.2917  -15.6315   20.1244 H   0  0  0  0  0  0
  -26.7103  -32.5542   23.1183 H   0  0  0  0  0  0
  -25.0292  -33.9799   25.0610 H   0  0  0  0  0  0
  -22.6888  -31.3075   21.4150 H   0  0  0  0  0  0
  -23.3749  -35.9590   23.3330 H   0  0  0  0  0  0
  -24.3566  -36.8810   22.2042 H   0  0  0  0  0  0
  -23.7235  -37.6474   23.6619 H   0  0  0  0  0  0
  -26.0248  -31.6001   20.5856 H   0  0  0  0  0  0
  -26.8156  -30.9032   21.9708 H   0  0  0  0  0  0
  -28.0957  -29.1108   21.1736 H   0  0  0  0  0  0
  -26.0457  -25.9821   19.0093 H   0  0  0  0  0  0
  -23.9821  -27.2884   19.0426 H   0  0  0  0  0  0
  -23.7178  -30.6010   19.4094 H   0  0  0  0  0  0
  -22.7328  -29.2423   19.8669 H   0  0  0  0  0  0
  -25.1302  -36.1943   25.0824 H   0  0  0  0  0  0
  -20.9925  -28.3178   24.1486 H   0  0  0  0  0  0
  -20.5634  -26.2220   23.3575 H   0  0  0  0  0  0
  -21.6637  -26.7449   22.1225 H   0  0  0  0  0  0
  -19.6909  -25.6310   21.1237 H   0  0  0  0  0  0
  -19.6754  -27.3194   20.6720 H   0  0  0  0  0  0
  -17.4192  -26.6712   21.4006 H   0  0  0  0  0  0
  -18.0342  -26.0112   22.9003 H   0  0  0  0  0  0
  -19.7922  -30.7249   24.2340 H   0  0  0  0  0  0
  -17.5017  -31.6307   24.5133 H   0  0  0  0  0  0
  -15.5346  -30.3027   23.7672 H   0  0  0  0  0  0
  -15.8643  -28.0842   22.7117 H   0  0  0  0  0  0
  -24.6031  -30.6934   25.7818 H   0  0  0  0  0  0
  -24.8891  -32.2790   26.4925 H   0  0  0  0  0  0
  -25.8193  -30.8889   27.0233 H   0  0  0  0  0  0
  -26.2774  -29.6882   24.1107 H   0  0  0  0  0  0
  -27.4151  -29.7289   25.4405 H   0  0  0  0  0  0
  -27.8594  -30.4429   23.9066 H   0  0  0  0  0  0
  -27.2824  -33.3606   26.2099 H   0  0  0  0  0  0
  -28.3977  -32.6771   25.0331 H   0  0  0  0  0  0
  -28.0748  -31.8345   26.5387 H   0  0  0  0  0  0
  -28.2645  -38.0034   24.7454 H   0  0  0  0  0  0
  -28.0994  -36.2562   24.6425 H   0  0  0  0  0  0
  -27.2247  -37.1572   25.8883 H   0  0  0  0  0  0
  -20.9230  -29.8745   21.6988 H   0  0  0  0  0  0
  -26.0157  -38.2843   24.1431 H   0  0  0  0  0  0
  -29.8820  -19.6988   24.5102 H   0  0  0  0  0  0
  -30.5409  -18.9186   19.7299 H   0  0  0  0  0  0
  -28.6061  -15.5859   24.8706 H   0  0  0  0  0  0
  -27.8481  -16.5002   23.4564 H   0  0  0  0  0  0
  -30.6099  -16.9410   24.6963 H   0  0  0  0  0  0
  -30.5401  -16.6726   19.8812 H   0  0  0  0  0  0
  -28.6034  -23.6766   22.1012 H   0  0  0  0  0  0
  -31.5524  -24.0441   19.7382 H   0  0  0  0  0  0
  -31.3064  -25.7719   19.9858 H   0  0  0  0  0  0
  -30.5825  -24.9516   18.6009 H   0  0  0  0  0  0
  -31.2785  -23.6730   22.8038 H   0  0  0  0  0  0
  -31.3923  -22.6605   21.3866 H   0  0  0  0  0  0
  -27.4502  -24.9305   20.5830 H   0  0  0  0  0  0
  -28.1277  -25.0068   18.9693 H   0  0  0  0  0  0
  -30.1627  -22.0391   23.9965 H   0  0  0  0  0  0
  1 25  1  0  0  0
  1 30  2  0  0  0
  1 85  1  0  0  0
  2  3  1  0  0  0
  2 25  1  0  0  0
  2 87  1  0  0  0
  2 88  1  0  0  0
  3  4  1  0  0  0
  3 89  1  0  0  0
  3 90  1  0  0  0
  4  5  1  0  0  0
  4 91  1  0  0  0
  4 92  1  0  0  0
  5  6  1  0  0  0
  5 26  1  0  0  0
  5 93  1  0  0  0
  6 25  1  0  0  0
  6 94  1  0  0  0
  6 95  1  0  0  0
  7  8  2  0  0  0
  7 26  1  0  0  0
  7 29  1  0  0  0
  8  9  1  0  0  0
  8 22  1  0  0  0
  9 10  1  0  0  0
  9 27  2  0  0  0
 10 11  2  0  0  0
 10 15  1  0  0  0
 11 12  1  0  0  0
 11 96  1  0  0  0
 12 13  2  0  0  0
 12 97  1  0  0  0
 13 14  1  0  0  0
 13 31  1  0  0  0
 14 15  2  0  0  0
 14 98  1  0  0  0
 15 99  1  0  0  0
 16 17  2  0  0  0
 16 21  1  0  0  0
 16 31  1  0  0  0
 17 18  1  0  0  0
 17100  1  0  0  0
 18 19  2  0  0  0
 18101  1  0  0  0
 19 20  1  0  0  0
 19 24  1  0  0  0
 20 21  2  0  0  0
 20102  1  0  0  0
 21 23  1  0  0  0
 22 28  1  0  0  0
 22 32  2  0  0  0
 26 27  1  0  0  0
 28103  1  0  0  0
 28104  1  0  0  0
 29105  1  0  0  0
 29106  1  0  0  0
 33 34  1  0  0  0
 33 66  1  0  0  0
 33 70  2  0  0  0
 34 36  1  0  0  0
 34 59  1  0  0  0
 34107  1  0  0  0
 35 44  2  0  0  0
 35 45  1  0  0  0
 35 68  1  0  0  0
 36 56  1  0  0  0
 36108  1  0  0  0
 37 39  1  0  0  0
 37 47  1  0  0  0
 37 66  1  0  0  0
 37109  1  0  0  0
 38 43  2  0  0  0
 38 46  1  0  0  0
 38 47  1  0  0  0
 39 64  1  0  0  0
 39 67  2  0  0  0
 40 52  1  0  0  0
 40 53  2  0  0  0
 40 58  1  0  0  0
 41110  1  0  0  0
 41111  1  0  0  0
 41112  1  0  0  0
 41 48  1  0  0  0
 42 43  1  0  0  0
 42 66  1  0  0  0
 42113  1  0  0  0
 42114  1  0  0  0
 43 44  1  0  0  0
 44115  1  0  0  0
 45 46  2  0  0  0
 45116  1  0  0  0
 46117  1  0  0  0
 47118  1  0  0  0
 47119  1  0  0  0
 48 56  1  0  0  0
 48 65  1  0  0  0
 48120  1  0  0  0
 49 50  1  0  0  0
 49 53  1  0  0  0
 49 64  1  0  0  0
 49121  1  0  0  0
 50 51  1  0  0  0
 50122  1  0  0  0
 50123  1  0  0  0
 51 52  1  0  0  0
 51124  1  0  0  0
 51125  1  0  0  0
 52126  1  0  0  0
 52127  1  0  0  0
 53 54  1  0  0  0
 54 55  2  0  0  0
 54128  1  0  0  0
 55 57  1  0  0  0
 55129  1  0  0  0
 56 69  2  0  0  0
 57 58  2  0  0  0
 57130  1  0  0  0
 58131  1  0  0  0
 59 60  1  0  0  0
 59 61  1  0  0  0
 59 62  1  0  0  0
 60132  1  0  0  0
 60133  1  0  0  0
 60134  1  0  0  0
 61135  1  0  0  0
 61136  1  0  0  0
 61137  1  0  0  0
 62138  1  0  0  0
 62139  1  0  0  0
 62140  1  0  0  0
 63 65  1  0  0  0
 63141  1  0  0  0
 63142  1  0  0  0
 63143  1  0  0  0
 64144  1  0  0  0
 65145  1  0  0  0
 68 83  1  0  0  0
 71 73  2  0  0  0
 71 75  1  0  0  0
 71146  1  0  0  0
 72 74  2  0  0  0
 72 84  1  0  0  0
 72147  1  0  0  0
 73 74  1  0  0  0
 73 77  1  0  0  0
 74 78  1  0  0  0
 75 84  2  0  0  0
 75 86  1  0  0  0
 76 77  2  0  0  0
 76148  1  0  0  0
 76149  1  0  0  0
 77150  1  0  0  0
 78 85  2  0  0  0
 78151  1  0  0  0
 79 80  2  0  0  0
 79 82  1  0  0  0
 79152  1  0  0  0
 80 81  1  0  0  0
 80 83  1  0  0  0
 81153  1  0  0  0
 81154  1  0  0  0
 81155  1  0  0  0
 82 86  1  0  0  0
 82156  1  0  0  0
 82157  1  0  0  0
 83158  1  0  0  0
 83159  1  0  0  0
 86160  1  0  0  0
M  ISO  4   1 100  68 101  83 101  85 100
M  END
> <chiral flag>
0

> <version>
0

> <s_m_source_file>
/data/baiqing/PycharmProjects/Reinvent-master-3.2/result/LINK_invent/BTK/process_docking_weight1_custom_product_contain_oxygen_bond_distance_aromatic_linkinvent_7_9_3/rearranged_h_0115.sdf

> <i_m_source_file_index>
51

> <r_mmod_Potential_Energy-OPLS-2005>
-185.640213012695

> <r_mmod_Stretch_Energy-OPLS-2005>
38.313850402832

> <r_mmod_Bend_Energy-OPLS-2005>
116.164817810059

> <r_mmod_Torsional_Energy-OPLS-2005>
189.322357177734

> <r_mmod_Improper_Torsional_Energy-OPLS-2005>
2.75775718688965

> <r_mmod_Van_der_Waal_Energy-OPLS-2005>
176.684524536133

> <r_mmod_Electrostatic_Energy-OPLS-2005>
-512.049499511719

> <r_mmod_Solvation_Energy-OPLS-2005>
-208.368850708008

> <b_mmod_Minimization_Converged-OPLS-2005>
0

> <r_mmod_RMS_Derivative-OPLS-2005>
4.74378442764282

$$$$
51
                    3D
 Structure written by MMmdl.
154162  0  0  1  0            999 V2000
  -30.6074  -14.7869   20.3422 C   0  0  0  0  0  0
  -30.4442  -12.4500   19.4739 C   0  0  0  0  0  0
  -29.5190  -12.3798   18.2392 C   0  0  0  0  0  0
  -28.0360  -12.2773   18.6580 C   0  0  0  0  0  0
  -27.6331  -13.2204   19.8272 C   0  0  2  0  0  0
  -28.6880  -13.2363   20.9515 C   0  0  0  0  0  0
  -25.2506  -13.8161   20.5693 C   0  0  0  0  0  0
  -24.1798  -13.0424   20.9224 C   0  0  0  0  0  0
  -24.6376  -11.6896   20.8784 C   0  0  0  0  0  0
  -23.9049  -10.4281   21.0435 C   0  0  0  0  0  0
  -24.3594   -9.4184   21.9202 C   0  0  0  0  0  0
  -23.6269   -8.2219   22.0756 C   0  0  0  0  0  0
  -22.4253   -8.0261   21.3545 C   0  0  0  0  0  0
  -21.9892   -9.0239   20.4649 C   0  0  0  0  0  0
  -22.7223  -10.2123   20.3073 C   0  0  0  0  0  0
  -21.6838   -6.0713   22.5278 C   0  0  0  0  0  0
  -21.4008   -6.5623   23.8211 C   0  0  0  0  0  0
  -21.3661   -5.6784   24.9181 C   0  0  0  0  0  0
  -21.6048   -4.3044   24.7240 C   0  0  0  0  0  0
  -21.8819   -3.8127   23.4363 C   0  0  0  0  0  0
  -21.9189   -4.6939   22.3411 C   0  0  0  0  0  0
  -22.7821  -13.5211   21.1872 C   0  0  0  0  0  0
  -22.1650   -4.2117   21.0990 F   0  0  0  0  0  0
  -21.5639   -3.4533   25.7762 F   0  0  0  0  0  0
  -29.9766  -13.5605   20.3302 N   0  0  0  0  0  0
  -26.2914  -12.9339   20.3258 N   0  0  0  0  0  0
  -25.9300  -11.6499   20.5801 N   0  0  0  0  0  0
  -22.0461  -12.8221   22.0435 N   0  0  0  0  0  0
  -25.4243  -15.1883   20.4093 N   0  0  0  0  0  0
  -31.8391  -14.8314   20.2784 O   0  0  0  0  0  0
  -21.6621   -6.8851   21.4237 O   0  0  0  0  0  0
  -22.3519  -14.5516   20.6705 O   0  0  0  0  0  0
  -24.6294  -31.8571   23.2011 C   0  0  0  0  0  0
  -25.9135  -32.4761   23.8350 C   0  0  1  0  0  0
  -27.2276  -27.3010   20.1275 C   0  0  0  0  0  0
  -25.5942  -33.8559   24.2284 N   0  0  0  0  0  0
  -23.4250  -30.4805   21.5424 C   0  0  2  0  0  0
  -24.8770  -28.9314   20.1076 C   0  0  0  0  0  0
  -22.7489  -29.4627   22.4919 C   0  0  0  0  0  0
  -18.0298  -28.1392   22.8496 C   0  0  0  0  0  0
  -24.1492  -36.7282   23.2633 C   0  0  0  0  0  0
  -25.9669  -30.7829   21.3744 C   0  0  0  0  0  0
  -26.0460  -29.4080   20.7172 C   0  0  0  0  0  0
  -27.2289  -28.6039   20.7196 C   0  0  0  0  0  0
  -26.0417  -26.8801   19.4941 C   0  0  0  0  0  0
  -24.8772  -27.6733   19.4847 C   0  0  0  0  0  0
  -23.6421  -29.8115   20.1589 C   0  0  0  0  0  0
  -25.4112  -36.3065   24.0329 C   0  0  1  0  0  0
  -20.5898  -28.3714   23.1270 C   0  0  2  0  0  0
  -20.6776  -26.9430   22.5421 C   0  0  0  0  0  0
  -19.5754  -26.6402   21.5219 C   0  0  0  0  0  0
  -18.1931  -26.7948   22.1615 C   0  0  0  0  0  0
  -19.1549  -28.8868   23.2884 C   0  0  0  0  0  0
  -18.9463  -30.1470   23.8908 C   0  0  0  0  0  0
  -17.6458  -30.6597   24.0577 C   0  0  0  0  0  0
  -25.9049  -34.9436   23.5106 C   0  0  0  0  0  0
  -16.5353  -29.9095   23.6331 C   0  0  0  0  0  0
  -16.7283  -28.6503   23.0372 C   0  0  0  0  0  0
  -26.4517  -31.6569   25.0723 C   0  0  0  0  0  0
  -25.3741  -31.3721   26.1450 C   0  0  0  0  0  0
  -27.0341  -30.2973   24.6193 C   0  0  0  0  0  0
  -27.6110  -32.4283   25.7462 C   0  0  0  0  0  0
  -27.5581  -37.1788   24.8470 C   0  0  0  0  0  0
  -21.4200  -29.3058   22.3648 N   0  0  0  0  0  0
  -26.4291  -37.3761   23.9414 N   0  0  0  0  0  0
  -24.6925  -31.0568   22.0968 N   0  0  0  0  0  0
  -23.4196  -28.8174   23.3019 O   0  0  0  0  0  0
  -28.2813  -26.3718   20.1769 O   0  0  0  0  0  0
  -26.5615  -34.8915   22.4670 O   0  0  0  0  0  0
  -23.5450  -32.1387   23.7323 O   0  0  0  0  0  0
  -28.7000  -18.1121   19.7903 C   0  0  0  0  0  0
  -30.7151  -18.0115   21.0700 C   0  0  0  0  0  0
  -29.7661  -17.2937   20.2917 C   0  0  0  0  0  0
  -29.6002  -20.2524   20.6892 C   0  0  0  0  0  0
  -28.6164  -19.5302   19.9610 C   0  0  0  0  0  0
  -30.6304  -19.4345   21.2563 C   0  0  0  0  0  0
  -30.3792  -16.6243   17.5599 C   0  0  0  0  0  0
  -28.3716  -23.9625   21.1430 C   0  0  0  0  0  0
  -29.7415  -15.8182   18.4328 C   0  0  0  0  0  0
  -28.1171  -25.3271   21.1099 C   0  0  0  0  0  0
  -28.9432  -22.8363   20.2086 C   0  0  0  0  0  0
  -29.6261  -21.6872   20.9169 N   0  0  0  0  0  0
  -29.8784  -15.8726   19.8352 N   0  0  0  0  0  0
  -27.5714  -20.1882   19.4000 F   0  0  0  0  0  0
  -31.5967  -20.0447   21.9870 F   0  0  0  0  0  0
  -31.4793  -12.5880   19.1551 H   0  0  0  0  0  0
  -30.4181  -11.5117   20.0298 H   0  0  0  0  0  0
  -29.7830  -11.5060   17.6428 H   0  0  0  0  0  0
  -29.6900  -13.2185   17.5699 H   0  0  0  0  0  0
  -27.8762  -11.2427   18.9639 H   0  0  0  0  0  0
  -27.3849  -12.4352   17.7978 H   0  0  0  0  0  0
  -27.5873  -14.2214   19.4058 H   0  0  0  0  0  0
  -28.7336  -12.2799   21.4736 H   0  0  0  0  0  0
  -28.4284  -13.9935   21.6938 H   0  0  0  0  0  0
  -25.2735   -9.5650   22.4783 H   0  0  0  0  0  0
  -23.9968   -7.4606   22.7469 H   0  0  0  0  0  0
  -21.0821   -8.8762   19.8958 H   0  0  0  0  0  0
  -22.3673  -10.9663   19.6186 H   0  0  0  0  0  0
  -21.1989   -7.6130   23.9708 H   0  0  0  0  0  0
  -21.1489   -6.0517   25.9086 H   0  0  0  0  0  0
  -22.0599   -2.7583   23.2885 H   0  0  0  0  0  0
  -22.4055  -11.9881   22.4847 H   0  0  0  0  0  0
  -21.1086  -13.1278   22.2642 H   0  0  0  0  0  0
  -24.6629  -15.8490   20.5189 H   0  0  0  0  0  0
  -26.2895  -15.6234   20.1161 H   0  0  0  0  0  0
  -26.7202  -32.5435   23.1095 H   0  0  0  0  0  0
  -25.0112  -33.9701   25.0445 H   0  0  0  0  0  0
  -22.7199  -31.3017   21.3955 H   0  0  0  0  0  0
  -23.3767  -35.9601   23.3275 H   0  0  0  0  0  0
  -24.3569  -36.8926   22.2049 H   0  0  0  0  0  0
  -23.7252  -37.6473   23.6677 H   0  0  0  0  0  0
  -26.0974  -31.5450   20.6049 H   0  0  0  0  0  0
  -26.8473  -30.8353   22.0031 H   0  0  0  0  0  0
  -28.1228  -28.9583   21.2123 H   0  0  0  0  0  0
  -26.0117  -25.9040   19.0308 H   0  0  0  0  0  0
  -23.9814  -27.3009   19.0071 H   0  0  0  0  0  0
  -23.7570  -30.5867   19.3999 H   0  0  0  0  0  0
  -22.7625  -29.2368   19.8627 H   0  0  0  0  0  0
  -25.1296  -36.1898   25.0821 H   0  0  0  0  0  0
  -21.0002  -28.3318   24.1387 H   0  0  0  0  0  0
  -20.5658  -26.2343   23.3636 H   0  0  0  0  0  0
  -21.6648  -26.7441   22.1227 H   0  0  0  0  0  0
  -19.6915  -25.6317   21.1246 H   0  0  0  0  0  0
  -19.6697  -27.3208   20.6744 H   0  0  0  0  0  0
  -17.4215  -26.6753   21.3997 H   0  0  0  0  0  0
  -18.0285  -26.0073   22.8981 H   0  0  0  0  0  0
  -19.7933  -30.7294   24.2287 H   0  0  0  0  0  0
  -17.5007  -31.6272   24.5191 H   0  0  0  0  0  0
  -15.5352  -30.3001   23.7647 H   0  0  0  0  0  0
  -15.8681  -28.0820   22.7091 H   0  0  0  0  0  0
  -24.6064  -30.6856   25.7857 H   0  0  0  0  0  0
  -24.8730  -32.2848   26.4671 H   0  0  0  0  0  0
  -25.8091  -30.9148   27.0345 H   0  0  0  0  0  0
  -26.2899  -29.6707   24.1255 H   0  0  0  0  0  0
  -27.4065  -29.7253   25.4704 H   0  0  0  0  0  0
  -27.8769  -30.4242   23.9393 H   0  0  0  0  0  0
  -27.2817  -33.3687   26.1891 H   0  0  0  0  0  0
  -28.3980  -32.6641   25.0284 H   0  0  0  0  0  0
  -28.0694  -31.8465   26.5469 H   0  0  0  0  0  0
  -28.2618  -38.0068   24.7486 H   0  0  0  0  0  0
  -28.1068  -36.2596   24.6337 H   0  0  0  0  0  0
  -27.2295  -37.1484   25.8877 H   0  0  0  0  0  0
  -20.9385  -29.8766   21.6839 H   0  0  0  0  0  0
  -26.0175  -38.2839   24.1408 H   0  0  0  0  0  0
  -27.9293  -17.6520   19.1898 H   0  0  0  0  0  0
  -31.5642  -17.4903   21.4858 H   0  0  0  0  0  0
  -30.2075  -16.5425   16.4957 H   0  0  0  0  0  0
  -31.0843  -17.3764   17.8855 H   0  0  0  0  0  0
  -28.0606  -23.5226   22.0796 H   0  0  0  0  0  0
  -29.0300  -15.0902   18.0881 H   0  0  0  0  0  0
  -27.6733  -25.7434   22.0056 H   0  0  0  0  0  0
  -29.6424  -23.2944   19.5065 H   0  0  0  0  0  0
  -28.1154  -22.4572   19.6104 H   0  0  0  0  0  0
  -30.4353  -21.9625   21.4679 H   0  0  0  0  0  0
  1 25  1  0  0  0
  1 30  2  0  0  0
  1 83  1  0  0  0
  2  3  1  0  0  0
  2 25  1  0  0  0
  2 86  1  0  0  0
  2 87  1  0  0  0
  3  4  1  0  0  0
  3 88  1  0  0  0
  3 89  1  0  0  0
  4  5  1  0  0  0
  4 90  1  0  0  0
  4 91  1  0  0  0
  5  6  1  0  0  0
  5 26  1  0  0  0
  5 92  1  0  0  0
  6 25  1  0  0  0
  6 93  1  0  0  0
  6 94  1  0  0  0
  7  8  2  0  0  0
  7 26  1  0  0  0
  7 29  1  0  0  0
  8  9  1  0  0  0
  8 22  1  0  0  0
  9 10  1  0  0  0
  9 27  2  0  0  0
 10 11  2  0  0  0
 10 15  1  0  0  0
 11 12  1  0  0  0
 11 95  1  0  0  0
 12 13  2  0  0  0
 12 96  1  0  0  0
 13 14  1  0  0  0
 13 31  1  0  0  0
 14 15  2  0  0  0
 14 97  1  0  0  0
 15 98  1  0  0  0
 16 17  2  0  0  0
 16 21  1  0  0  0
 16 31  1  0  0  0
 17 18  1  0  0  0
 17 99  1  0  0  0
 18 19  2  0  0  0
 18100  1  0  0  0
 19 20  1  0  0  0
 19 24  1  0  0  0
 20 21  2  0  0  0
 20101  1  0  0  0
 21 23  1  0  0  0
 22 28  1  0  0  0
 22 32  2  0  0  0
 26 27  1  0  0  0
 28102  1  0  0  0
 28103  1  0  0  0
 29104  1  0  0  0
 29105  1  0  0  0
 33 34  1  0  0  0
 33 66  1  0  0  0
 33 70  2  0  0  0
 34 36  1  0  0  0
 34 59  1  0  0  0
 34106  1  0  0  0
 35 44  2  0  0  0
 35 45  1  0  0  0
 35 68  1  0  0  0
 36 56  1  0  0  0
 36107  1  0  0  0
 37 39  1  0  0  0
 37 47  1  0  0  0
 37 66  1  0  0  0
 37108  1  0  0  0
 38 43  2  0  0  0
 38 46  1  0  0  0
 38 47  1  0  0  0
 39 64  1  0  0  0
 39 67  2  0  0  0
 40 52  1  0  0  0
 40 53  2  0  0  0
 40 58  1  0  0  0
 41109  1  0  0  0
 41110  1  0  0  0
 41111  1  0  0  0
 41 48  1  0  0  0
 42 43  1  0  0  0
 42 66  1  0  0  0
 42112  1  0  0  0
 42113  1  0  0  0
 43 44  1  0  0  0
 44114  1  0  0  0
 45 46  2  0  0  0
 45115  1  0  0  0
 46116  1  0  0  0
 47117  1  0  0  0
 47118  1  0  0  0
 48 56  1  0  0  0
 48 65  1  0  0  0
 48119  1  0  0  0
 49 50  1  0  0  0
 49 53  1  0  0  0
 49 64  1  0  0  0
 49120  1  0  0  0
 50 51  1  0  0  0
 50121  1  0  0  0
 50122  1  0  0  0
 51 52  1  0  0  0
 51123  1  0  0  0
 51124  1  0  0  0
 52125  1  0  0  0
 52126  1  0  0  0
 53 54  1  0  0  0
 54 55  2  0  0  0
 54127  1  0  0  0
 55 57  1  0  0  0
 55128  1  0  0  0
 56 69  2  0  0  0
 57 58  2  0  0  0
 57129  1  0  0  0
 58130  1  0  0  0
 59 60  1  0  0  0
 59 61  1  0  0  0
 59 62  1  0  0  0
 60131  1  0  0  0
 60132  1  0  0  0
 60133  1  0  0  0
 61134  1  0  0  0
 61135  1  0  0  0
 61136  1  0  0  0
 62137  1  0  0  0
 62138  1  0  0  0
 62139  1  0  0  0
 63 65  1  0  0  0
 63140  1  0  0  0
 63141  1  0  0  0
 63142  1  0  0  0
 64143  1  0  0  0
 65144  1  0  0  0
 68 80  1  0  0  0
 71 73  2  0  0  0
 71 75  1  0  0  0
 71145  1  0  0  0
 72 73  1  0  0  0
 72 76  2  0  0  0
 72146  1  0  0  0
 73 83  1  0  0  0
 74 75  2  0  0  0
 74 76  1  0  0  0
 74 82  1  0  0  0
 75 84  1  0  0  0
 76 85  1  0  0  0
 77 79  2  0  0  0
 77147  1  0  0  0
 77148  1  0  0  0
 78 80  2  0  0  0
 78 81  1  0  0  0
 78149  1  0  0  0
 79 83  1  0  0  0
 79150  1  0  0  0
 80151  1  0  0  0
 81 82  1  0  0  0
 81152  1  0  0  0
 81153  1  0  0  0
 82154  1  0  0  0
M  ISO  4   1 100  68 101  80 101  83 100
M  END
> <chiral flag>
0

> <version>
0

> <s_m_source_file>
/data/baiqing/PycharmProjects/Reinvent-master-3.2/result/LINK_invent/BTK/process_docking_weight1_custom_product_contain_oxygen_bond_distance_aromatic_linkinvent_7_9_3/rearranged_h_0115.sdf

> <i_m_source_file_index>
52

> <r_mmod_Potential_Energy-OPLS-2005>
513.557861328125

> <r_mmod_Stretch_Energy-OPLS-2005>
103.569984436035

> <r_mmod_Bend_Energy-OPLS-2005>
220.724090576172

> <r_mmod_Torsional_Energy-OPLS-2005>
343.899749755859

> <r_mmod_Improper_Torsional_Energy-OPLS-2005>
24.8402824401855

> <r_mmod_Van_der_Waal_Energy-OPLS-2005>
145.910980224609

> <r_mmod_Electrostatic_Energy-OPLS-2005>
-238.381301879883

> <r_mmod_Solvation_Energy-OPLS-2005>
-193.412811279297

> <b_mmod_Minimization_Converged-OPLS-2005>
0

> <r_mmod_RMS_Derivative-OPLS-2005>
1.70807075500488

$$$$
52
                    3D
 Structure written by MMmdl.
147155  0  0  1  0            999 V2000
  -30.5639  -14.7398   20.4869 C   0  0  0  0  0  0
  -30.4559  -12.4546   19.4615 C   0  0  0  0  0  0
  -29.5155  -12.5155   18.2335 C   0  0  0  0  0  0
  -28.0409  -12.3338   18.6487 C   0  0  0  0  0  0
  -27.6523  -13.2167   19.8642 C   0  0  2  0  0  0
  -28.7006  -13.0943   20.9932 C   0  0  0  0  0  0
  -25.2533  -13.8127   20.5655 C   0  0  0  0  0  0
  -24.1808  -13.0394   20.9154 C   0  0  0  0  0  0
  -24.6397  -11.6879   20.8737 C   0  0  0  0  0  0
  -23.9065  -10.4269   21.0410 C   0  0  0  0  0  0
  -24.3615   -9.4186   21.9188 C   0  0  0  0  0  0
  -23.6285   -8.2225   22.0759 C   0  0  0  0  0  0
  -22.4266   -8.0270   21.3547 C   0  0  0  0  0  0
  -21.9905   -9.0245   20.4651 C   0  0  0  0  0  0
  -22.7237  -10.2120   20.3060 C   0  0  0  0  0  0
  -21.6848   -6.0736   22.5278 C   0  0  0  0  0  0
  -21.4005   -6.5642   23.8211 C   0  0  0  0  0  0
  -21.3655   -5.6799   24.9178 C   0  0  0  0  0  0
  -21.6040   -4.3059   24.7232 C   0  0  0  0  0  0
  -21.8814   -3.8149   23.4353 C   0  0  0  0  0  0
  -21.9190   -4.6965   22.3409 C   0  0  0  0  0  0
  -22.7837  -13.5203   21.1836 C   0  0  0  0  0  0
  -22.1660   -4.2153   21.0987 F   0  0  0  0  0  0
  -21.5637   -3.4544   25.7743 F   0  0  0  0  0  0
  -30.0066  -13.4803   20.4294 N   0  0  0  0  0  0
  -26.2993  -12.9325   20.3348 N   0  0  0  0  0  0
  -25.9336  -11.6476   20.5782 N   0  0  0  0  0  0
  -22.0495  -12.8204   22.0415 N   0  0  0  0  0  0
  -25.4155  -15.1845   20.4085 N   0  0  0  0  0  0
  -31.7222  -14.9367   20.1038 O   0  0  0  0  0  0
  -21.6624   -6.8873   21.4238 O   0  0  0  0  0  0
  -22.3513  -14.5517   20.6708 O   0  0  0  0  0  0
  -24.6331  -31.8550   23.1979 C   0  0  0  0  0  0
  -25.9156  -32.4748   23.8329 C   0  0  1  0  0  0
  -27.2230  -27.2597   20.1257 C   0  0  0  0  0  0
  -25.5941  -33.8548   24.2255 N   0  0  0  0  0  0
  -23.4291  -30.4783   21.5428 C   0  0  2  0  0  0
  -24.8747  -28.9234   20.1130 C   0  0  0  0  0  0
  -22.7505  -29.4615   22.4924 C   0  0  0  0  0  0
  -18.0292  -28.1387   22.8489 C   0  0  0  0  0  0
  -24.1486  -36.7279   23.2644 C   0  0  0  0  0  0
  -25.9760  -30.7669   21.3781 C   0  0  0  0  0  0
  -26.0488  -29.3903   20.7176 C   0  0  0  0  0  0
  -27.2255  -28.5726   20.7099 C   0  0  0  0  0  0
  -26.0212  -26.8613   19.4957 C   0  0  0  0  0  0
  -24.8667  -27.6666   19.4916 C   0  0  0  0  0  0
  -23.6462  -29.8114   20.1597 C   0  0  0  0  0  0
  -25.4115  -36.3065   24.0329 C   0  0  1  0  0  0
  -20.5895  -28.3704   23.1263 C   0  0  2  0  0  0
  -20.6774  -26.9421   22.5403 C   0  0  0  0  0  0
  -19.5745  -26.6383   21.5211 C   0  0  0  0  0  0
  -18.1929  -26.7924   22.1632 C   0  0  0  0  0  0
  -19.1547  -28.8864   23.2868 C   0  0  0  0  0  0
  -18.9469  -30.1464   23.8885 C   0  0  0  0  0  0
  -17.6467  -30.6585   24.0567 C   0  0  0  0  0  0
  -25.9059  -34.9434   23.5097 C   0  0  0  0  0  0
  -16.5358  -29.9085   23.6334 C   0  0  0  0  0  0
  -16.7280  -28.6503   23.0357 C   0  0  0  0  0  0
  -26.4508  -31.6572   25.0726 C   0  0  0  0  0  0
  -25.3721  -31.3733   26.1443 C   0  0  0  0  0  0
  -27.0362  -30.2982   24.6231 C   0  0  0  0  0  0
  -27.6057  -32.4319   25.7502 C   0  0  0  0  0  0
  -27.5568  -37.1805   24.8475 C   0  0  0  0  0  0
  -21.4214  -29.3052   22.3652 N   0  0  0  0  0  0
  -26.4292  -37.3762   23.9400 N   0  0  0  0  0  0
  -24.6986  -31.0512   22.0958 N   0  0  0  0  0  0
  -23.4197  -28.8161   23.3033 O   0  0  0  0  0  0
  -28.3242  -26.3678   20.1759 O   0  0  0  0  0  0
  -26.5637  -34.8911   22.4669 O   0  0  0  0  0  0
  -23.5480  -32.1382   23.7268 O   0  0  0  0  0  0
  -28.2939  -19.2049   20.9319 C   0  0  0  0  0  0
  -28.3719  -17.7701   21.0568 C   0  0  0  0  0  0
  -29.4544  -19.8214   20.5168 C   0  0  0  0  0  0
  -29.5566  -17.1401   20.7480 C   0  0  0  0  0  0
  -28.9096  -22.2167   20.4185 C   0  0  0  0  0  0
  -29.2482  -23.7861   20.3385 C   0  0  0  0  0  0
  -28.0726  -24.8801   20.1249 C   0  0  0  0  0  0
  -29.7578  -21.2082   20.3344 N   0  0  0  0  0  0
  -29.6954  -15.7454   20.8622 N   0  0  0  0  0  0
  -27.3294  -17.0838   21.4625 F   0  0  0  0  0  0
  -30.6527  -18.4777   20.2641 S   0  0  0  0  0  0
  -31.4895  -12.6155   19.1516 H   0  0  0  0  0  0
  -30.4321  -11.4640   19.9185 H   0  0  0  0  0  0
  -29.7943  -11.7520   17.5063 H   0  0  0  0  0  0
  -29.6366  -13.4753   17.7284 H   0  0  0  0  0  0
  -27.8974  -11.2819   18.8988 H   0  0  0  0  0  0
  -27.3806  -12.5367   17.8047 H   0  0  0  0  0  0
  -27.6581  -14.2472   19.5085 H   0  0  0  0  0  0
  -28.7404  -12.0716   21.3714 H   0  0  0  0  0  0
  -28.4272  -13.7123   21.8496 H   0  0  0  0  0  0
  -25.2760   -9.5667   22.4766 H   0  0  0  0  0  0
  -23.9994   -7.4617   22.7476 H   0  0  0  0  0  0
  -21.0839   -8.8762   19.8959 H   0  0  0  0  0  0
  -22.3692  -10.9662   19.6177 H   0  0  0  0  0  0
  -21.1981   -7.6150   23.9718 H   0  0  0  0  0  0
  -21.1489   -6.0531   25.9083 H   0  0  0  0  0  0
  -22.0596   -2.7613   23.2853 H   0  0  0  0  0  0
  -22.4108  -11.9861   22.4799 H   0  0  0  0  0  0
  -21.1127  -13.1249   22.2650 H   0  0  0  0  0  0
  -24.6534  -15.8319   20.5712 H   0  0  0  0  0  0
  -26.2974  -15.6555   20.2483 H   0  0  0  0  0  0
  -26.7227  -32.5392   23.1072 H   0  0  0  0  0  0
  -25.0059  -33.9675   25.0381 H   0  0  0  0  0  0
  -22.7268  -31.3016   21.3961 H   0  0  0  0  0  0
  -23.3741  -35.9621   23.3328 H   0  0  0  0  0  0
  -24.3570  -36.8882   22.2055 H   0  0  0  0  0  0
  -23.7248  -37.6492   23.6656 H   0  0  0  0  0  0
  -26.1168  -31.5291   20.6104 H   0  0  0  0  0  0
  -26.8524  -30.8134   22.0129 H   0  0  0  0  0  0
  -28.1245  -28.9263   21.1950 H   0  0  0  0  0  0
  -25.9371  -25.9034   19.0069 H   0  0  0  0  0  0
  -23.9677  -27.3029   19.0136 H   0  0  0  0  0  0
  -23.7702  -30.5868   19.4029 H   0  0  0  0  0  0
  -22.7640  -29.2452   19.8565 H   0  0  0  0  0  0
  -25.1295  -36.1920   25.0824 H   0  0  0  0  0  0
  -20.9992  -28.3285   24.1386 H   0  0  0  0  0  0
  -20.5666  -26.2324   23.3616 H   0  0  0  0  0  0
  -21.6642  -26.7434   22.1204 H   0  0  0  0  0  0
  -19.6908  -25.6292   21.1244 H   0  0  0  0  0  0
  -19.6670  -27.3190   20.6738 H   0  0  0  0  0  0
  -17.4196  -26.6676   21.4040 H   0  0  0  0  0  0
  -18.0337  -26.0062   22.9027 H   0  0  0  0  0  0
  -19.7947  -30.7283   24.2244 H   0  0  0  0  0  0
  -17.5024  -31.6263   24.5171 H   0  0  0  0  0  0
  -15.5359  -30.2988   23.7653 H   0  0  0  0  0  0
  -15.8682  -28.0814   22.7082 H   0  0  0  0  0  0
  -24.5891  -30.7088   25.7769 H   0  0  0  0  0  0
  -24.8917  -32.2909   26.4852 H   0  0  0  0  0  0
  -25.8028  -30.8916   27.0232 H   0  0  0  0  0  0
  -26.2965  -29.6721   24.1231 H   0  0  0  0  0  0
  -27.4013  -29.7251   25.4765 H   0  0  0  0  0  0
  -27.8847  -30.4246   23.9504 H   0  0  0  0  0  0
  -27.2656  -33.3622   26.2066 H   0  0  0  0  0  0
  -28.3869  -32.6883   25.0332 H   0  0  0  0  0  0
  -28.0722  -31.8457   26.5431 H   0  0  0  0  0  0
  -28.2620  -38.0066   24.7470 H   0  0  0  0  0  0
  -28.1027  -36.2599   24.6365 H   0  0  0  0  0  0
  -27.2281  -37.1527   25.8878 H   0  0  0  0  0  0
  -20.9409  -29.8772   21.6842 H   0  0  0  0  0  0
  -26.0174  -38.2845   24.1368 H   0  0  0  0  0  0
  -27.3776  -19.7227   21.1736 H   0  0  0  0  0  0
  -27.8450  -22.0312   20.5885 H   0  0  0  0  0  0
  -29.9825  -23.9210   19.5446 H   0  0  0  0  0  0
  -29.7704  -24.0374   21.2614 H   0  0  0  0  0  0
  -27.2964  -24.6679   20.8614 H   0  0  0  0  0  0
  -27.6362  -24.6481   19.1544 H   0  0  0  0  0  0
  -28.8407  -15.3334   21.2056 H   0  0  0  0  0  0
  1 25  1  0  0  0
  1 30  2  0  0  0
  1 79  1  0  0  0
  2  3  1  0  0  0
  2 25  1  0  0  0
  2 82  1  0  0  0
  2 83  1  0  0  0
  3  4  1  0  0  0
  3 84  1  0  0  0
  3 85  1  0  0  0
  4  5  1  0  0  0
  4 86  1  0  0  0
  4 87  1  0  0  0
  5  6  1  0  0  0
  5 26  1  0  0  0
  5 88  1  0  0  0
  6 25  1  0  0  0
  6 89  1  0  0  0
  6 90  1  0  0  0
  7  8  2  0  0  0
  7 26  1  0  0  0
  7 29  1  0  0  0
  8  9  1  0  0  0
  8 22  1  0  0  0
  9 10  1  0  0  0
  9 27  2  0  0  0
 10 11  2  0  0  0
 10 15  1  0  0  0
 11 12  1  0  0  0
 11 91  1  0  0  0
 12 13  2  0  0  0
 12 92  1  0  0  0
 13 14  1  0  0  0
 13 31  1  0  0  0
 14 15  2  0  0  0
 14 93  1  0  0  0
 15 94  1  0  0  0
 16 17  2  0  0  0
 16 21  1  0  0  0
 16 31  1  0  0  0
 17 18  1  0  0  0
 17 95  1  0  0  0
 18 19  2  0  0  0
 18 96  1  0  0  0
 19 20  1  0  0  0
 19 24  1  0  0  0
 20 21  2  0  0  0
 20 97  1  0  0  0
 21 23  1  0  0  0
 22 28  1  0  0  0
 22 32  2  0  0  0
 26 27  1  0  0  0
 28 98  1  0  0  0
 28 99  1  0  0  0
 29100  1  0  0  0
 29101  1  0  0  0
 33 34  1  0  0  0
 33 66  1  0  0  0
 33 70  2  0  0  0
 34 36  1  0  0  0
 34 59  1  0  0  0
 34102  1  0  0  0
 35 44  2  0  0  0
 35 45  1  0  0  0
 35 68  1  0  0  0
 36 56  1  0  0  0
 36103  1  0  0  0
 37 39  1  0  0  0
 37 47  1  0  0  0
 37 66  1  0  0  0
 37104  1  0  0  0
 38 43  2  0  0  0
 38 46  1  0  0  0
 38 47  1  0  0  0
 39 64  1  0  0  0
 39 67  2  0  0  0
 40 52  1  0  0  0
 40 53  2  0  0  0
 40 58  1  0  0  0
 41105  1  0  0  0
 41106  1  0  0  0
 41107  1  0  0  0
 41 48  1  0  0  0
 42 43  1  0  0  0
 42 66  1  0  0  0
 42108  1  0  0  0
 42109  1  0  0  0
 43 44  1  0  0  0
 44110  1  0  0  0
 45 46  2  0  0  0
 45111  1  0  0  0
 46112  1  0  0  0
 47113  1  0  0  0
 47114  1  0  0  0
 48 56  1  0  0  0
 48 65  1  0  0  0
 48115  1  0  0  0
 49 50  1  0  0  0
 49 53  1  0  0  0
 49 64  1  0  0  0
 49116  1  0  0  0
 50 51  1  0  0  0
 50117  1  0  0  0
 50118  1  0  0  0
 51 52  1  0  0  0
 51119  1  0  0  0
 51120  1  0  0  0
 52121  1  0  0  0
 52122  1  0  0  0
 53 54  1  0  0  0
 54 55  2  0  0  0
 54123  1  0  0  0
 55 57  1  0  0  0
 55124  1  0  0  0
 56 69  2  0  0  0
 57 58  2  0  0  0
 57125  1  0  0  0
 58126  1  0  0  0
 59 60  1  0  0  0
 59 61  1  0  0  0
 59 62  1  0  0  0
 60127  1  0  0  0
 60128  1  0  0  0
 60129  1  0  0  0
 61130  1  0  0  0
 61131  1  0  0  0
 61132  1  0  0  0
 62133  1  0  0  0
 62134  1  0  0  0
 62135  1  0  0  0
 63 65  1  0  0  0
 63136  1  0  0  0
 63137  1  0  0  0
 63138  1  0  0  0
 64139  1  0  0  0
 65140  1  0  0  0
 68 77  1  0  0  0
 71 72  1  0  0  0
 71 73  2  0  0  0
 71141  1  0  0  0
 72 74  2  0  0  0
 72 80  1  0  0  0
 73 78  1  0  0  0
 73 81  1  0  0  0
 74 79  1  0  0  0
 74 81  1  0  0  0
 75 76  1  0  0  0
 75 78  2  0  0  0
 75142  1  0  0  0
 76 77  1  0  0  0
 76143  1  0  0  0
 76144  1  0  0  0
 77145  1  0  0  0
 77146  1  0  0  0
 79147  1  0  0  0
M  ISO  4   1 100  68 101  77 101  79 100
M  END
> <chiral flag>
0

> <version>
0

> <s_m_source_file>
/data/baiqing/PycharmProjects/Reinvent-master-3.2/result/LINK_invent/BTK/process_docking_weight1_custom_product_contain_oxygen_bond_distance_aromatic_linkinvent_7_9_3/rearranged_h_0115.sdf

> <i_m_source_file_index>
53

> <r_mmod_Potential_Energy-OPLS-2005>
114.315773010254

> <r_mmod_Stretch_Energy-OPLS-2005>
115.219680786133

> <r_mmod_Bend_Energy-OPLS-2005>
197.272018432617

> <r_mmod_Torsional_Energy-OPLS-2005>
201.4716796875

> <r_mmod_Improper_Torsional_Energy-OPLS-2005>
3.74331545829773

> <r_mmod_Van_der_Waal_Energy-OPLS-2005>
120.498062133789

> <r_mmod_Electrostatic_Energy-OPLS-2005>
-391.274688720703

> <r_mmod_Solvation_Energy-OPLS-2005>
-216.621765136719

> <b_mmod_Minimization_Converged-OPLS-2005>
0

> <r_mmod_RMS_Derivative-OPLS-2005>
1.23886525630951

$$$$
53
                    3D
 Structure written by MMmdl.
156164  0  0  1  0            999 V2000
  -30.7109  -14.5745   20.5171 C   0  0  0  0  0  0
  -30.4252  -12.3646   19.4374 C   0  0  0  0  0  0
  -29.4911  -12.4726   18.2136 C   0  0  0  0  0  0
  -28.0239  -12.2619   18.6395 C   0  0  0  0  0  0
  -27.6357  -13.1613   19.8343 C   0  0  2  0  0  0
  -28.6891  -13.0841   20.9695 C   0  0  0  0  0  0
  -25.2599  -13.8062   20.5733 C   0  0  0  0  0  0
  -24.1801  -13.0418   20.9231 C   0  0  0  0  0  0
  -24.6314  -11.6880   20.8778 C   0  0  0  0  0  0
  -23.8998  -10.4309   21.0462 C   0  0  0  0  0  0
  -24.3598   -9.4239   21.9211 C   0  0  0  0  0  0
  -23.6308   -8.2267   22.0772 C   0  0  0  0  0  0
  -22.4289   -8.0307   21.3555 C   0  0  0  0  0  0
  -21.9909   -9.0273   20.4634 C   0  0  0  0  0  0
  -22.7213  -10.2156   20.3067 C   0  0  0  0  0  0
  -21.6853   -6.0782   22.5307 C   0  0  0  0  0  0
  -21.3992   -6.5682   23.8246 C   0  0  0  0  0  0
  -21.3637   -5.6827   24.9191 C   0  0  0  0  0  0
  -21.6036   -4.3087   24.7235 C   0  0  0  0  0  0
  -21.8809   -3.8203   23.4356 C   0  0  0  0  0  0
  -21.9206   -4.7027   22.3420 C   0  0  0  0  0  0
  -22.7857  -13.5254   21.1880 C   0  0  0  0  0  0
  -22.1667   -4.2233   21.0995 F   0  0  0  0  0  0
  -21.5630   -3.4546   25.7722 F   0  0  0  0  0  0
  -30.0138  -13.3954   20.4050 N   0  0  0  0  0  0
  -26.2896  -12.9087   20.3247 N   0  0  0  0  0  0
  -25.9193  -11.6325   20.5768 N   0  0  0  0  0  0
  -22.0487  -12.8237   22.0411 N   0  0  0  0  0  0
  -25.4478  -15.1778   20.4239 N   0  0  0  0  0  0
  -31.8976  -14.6626   20.1896 O   0  0  0  0  0  0
  -21.6645   -6.8906   21.4265 O   0  0  0  0  0  0
  -22.3558  -14.5588   20.6768 O   0  0  0  0  0  0
  -24.6134  -31.8685   23.2106 C   0  0  0  0  0  0
  -25.9033  -32.4826   23.8397 C   0  0  1  0  0  0
  -27.2596  -27.4328   20.0852 C   0  0  0  0  0  0
  -25.5899  -33.8616   24.2347 N   0  0  0  0  0  0
  -23.4038  -30.4895   21.5484 C   0  0  2  0  0  0
  -24.8550  -28.9518   20.1190 C   0  0  0  0  0  0
  -22.7401  -29.4659   22.4972 C   0  0  0  0  0  0
  -18.0282  -28.1377   22.8481 C   0  0  0  0  0  0
  -24.1484  -36.7291   23.2635 C   0  0  0  0  0  0
  -25.9332  -30.8330   21.3645 C   0  0  0  0  0  0
  -26.0165  -29.4674   20.7078 C   0  0  0  0  0  0
  -27.2174  -28.7163   20.6853 C   0  0  0  0  0  0
  -26.0733  -26.9389   19.4898 C   0  0  0  0  0  0
  -24.8798  -27.6854   19.5097 C   0  0  0  0  0  0
  -23.6160  -29.8190   20.1655 C   0  0  0  0  0  0
  -25.4101  -36.3107   24.0354 C   0  0  1  0  0  0
  -20.5860  -28.3671   23.1290 C   0  0  2  0  0  0
  -20.6752  -26.9413   22.5395 C   0  0  0  0  0  0
  -19.5749  -26.6400   21.5172 C   0  0  0  0  0  0
  -18.1925  -26.7925   22.1590 C   0  0  0  0  0  0
  -19.1525  -28.8845   23.2882 C   0  0  0  0  0  0
  -18.9456  -30.1437   23.8920 C   0  0  0  0  0  0
  -17.6455  -30.6582   24.0564 C   0  0  0  0  0  0
  -25.9033  -34.9478   23.5155 C   0  0  0  0  0  0
  -16.5347  -29.9083   23.6321 C   0  0  0  0  0  0
  -16.7262  -28.6492   23.0352 C   0  0  0  0  0  0
  -26.4480  -31.6597   25.0720 C   0  0  0  0  0  0
  -25.3753  -31.3689   26.1483 C   0  0  0  0  0  0
  -27.0288  -30.3037   24.6071 C   0  0  0  0  0  0
  -27.6059  -32.4306   25.7466 C   0  0  0  0  0  0
  -27.5586  -37.1794   24.8460 C   0  0  0  0  0  0
  -21.4124  -29.3037   22.3697 N   0  0  0  0  0  0
  -26.4286  -37.3793   23.9428 N   0  0  0  0  0  0
  -24.6682  -31.0771   22.1007 N   0  0  0  0  0  0
  -23.4166  -28.8206   23.3021 O   0  0  0  0  0  0
  -28.4447  -26.7046   20.1053 O   0  0  0  0  0  0
  -26.5576  -34.8923   22.4706 O   0  0  0  0  0  0
  -23.5325  -32.1424   23.7494 O   0  0  0  0  0  0
  -30.3641  -18.3366   20.6148 C   0  0  0  0  0  0
  -31.6568  -18.3957   23.0716 C   0  0  0  0  0  0
  -30.5687  -17.1038   21.3012 C   0  0  0  0  0  0
  -31.2409  -17.1472   22.5542 C   0  0  0  0  0  0
  -30.7296  -19.5915   21.1486 C   0  0  0  0  0  0
  -31.3931  -19.6066   22.3997 C   0  0  0  0  0  0
  -29.9012  -15.8864   20.7199 C   0  0  0  0  0  0
  -29.4538  -22.9541   20.1355 C   0  0  0  0  0  0
  -29.6251  -24.4851   20.2827 C   0  0  0  0  0  0
  -30.3091  -22.0117   21.0150 C   0  0  0  0  0  0
  -28.3927  -25.2973   19.7894 C   0  0  0  0  0  0
  -28.7107  -16.0270   20.3050 N   0  0  0  0  0  0
  -31.4745  -16.0113   23.3444 N   0  0  0  0  0  0
  -28.6400  -22.4884   19.3302 O   0  0  0  0  0  0
  -30.3971  -20.7117   20.3996 O   0  0  0  0  0  0
  -31.7817  -20.7712   22.9731 F   0  0  0  0  0  0
  -31.4633  -12.4795   19.1217 H   0  0  0  0  0  0
  -30.3582  -11.3735   19.8919 H   0  0  0  0  0  0
  -29.7692  -11.7266   17.4674 H   0  0  0  0  0  0
  -29.6064  -13.4427   17.7325 H   0  0  0  0  0  0
  -27.9059  -11.2124   18.9134 H   0  0  0  0  0  0
  -27.3509  -12.4370   17.7967 H   0  0  0  0  0  0
  -27.5939  -14.1435   19.3867 H   0  0  0  0  0  0
  -28.6973  -12.0877   21.4143 H   0  0  0  0  0  0
  -28.4290  -13.7608   21.7874 H   0  0  0  0  0  0
  -25.2747   -9.5762   22.4731 H   0  0  0  0  0  0
  -24.0069   -7.4655   22.7460 H   0  0  0  0  0  0
  -21.0869   -8.8793   19.8904 H   0  0  0  0  0  0
  -22.3712  -10.9710   19.6175 H   0  0  0  0  0  0
  -21.1961   -7.6194   23.9775 H   0  0  0  0  0  0
  -21.1432   -6.0543   25.9096 H   0  0  0  0  0  0
  -22.0598   -2.7679   23.2829 H   0  0  0  0  0  0
  -22.4062  -11.9812   22.4685 H   0  0  0  0  0  0
  -21.1097  -13.1250   22.2620 H   0  0  0  0  0  0
  -24.7045  -15.8499   20.5780 H   0  0  0  0  0  0
  -26.3454  -15.6225   20.2520 H   0  0  0  0  0  0
  -26.7096  -32.5555   23.1158 H   0  0  0  0  0  0
  -25.0092  -33.9774   25.0523 H   0  0  0  0  0  0
  -22.6910  -31.3059   21.4060 H   0  0  0  0  0  0
  -23.3759  -35.9612   23.3305 H   0  0  0  0  0  0
  -24.3569  -36.8881   22.2048 H   0  0  0  0  0  0
  -23.7223  -37.6501   23.6619 H   0  0  0  0  0  0
  -26.0440  -31.6057   20.6001 H   0  0  0  0  0  0
  -26.8198  -30.8875   21.9845 H   0  0  0  0  0  0
  -28.1153  -29.1139   21.1374 H   0  0  0  0  0  0
  -26.0481  -25.9774   18.9975 H   0  0  0  0  0  0
  -23.9848  -27.2768   19.0606 H   0  0  0  0  0  0
  -23.7206  -30.5947   19.4035 H   0  0  0  0  0  0
  -22.7408  -29.2381   19.8713 H   0  0  0  0  0  0
  -25.1268  -36.1984   25.0845 H   0  0  0  0  0  0
  -20.9949  -28.3252   24.1403 H   0  0  0  0  0  0
  -20.5596  -26.2287   23.3579 H   0  0  0  0  0  0
  -21.6624  -26.7413   22.1227 H   0  0  0  0  0  0
  -19.6889  -25.6315   21.1189 H   0  0  0  0  0  0
  -19.6686  -27.3202   20.6708 H   0  0  0  0  0  0
  -17.4176  -26.6672   21.4010 H   0  0  0  0  0  0
  -18.0351  -26.0061   22.8994 H   0  0  0  0  0  0
  -19.7932  -30.7233   24.2303 H   0  0  0  0  0  0
  -17.5022  -31.6265   24.5168 H   0  0  0  0  0  0
  -15.5346  -30.2997   23.7642 H   0  0  0  0  0  0
  -15.8660  -28.0810   22.7082 H   0  0  0  0  0  0
  -24.5937  -30.7023   25.7841 H   0  0  0  0  0  0
  -24.8940  -32.2831   26.4957 H   0  0  0  0  0  0
  -25.8154  -30.8860   27.0219 H   0  0  0  0  0  0
  -26.2814  -29.6809   24.1147 H   0  0  0  0  0  0
  -27.4084  -29.7276   25.4519 H   0  0  0  0  0  0
  -27.8640  -30.4350   23.9184 H   0  0  0  0  0  0
  -27.2702  -33.3609   26.2055 H   0  0  0  0  0  0
  -28.3865  -32.6863   25.0290 H   0  0  0  0  0  0
  -28.0719  -31.8412   26.5371 H   0  0  0  0  0  0
  -28.2598  -38.0104   24.7544 H   0  0  0  0  0  0
  -28.1099  -36.2639   24.6241 H   0  0  0  0  0  0
  -27.2304  -37.1394   25.8863 H   0  0  0  0  0  0
  -20.9288  -29.8772   21.6922 H   0  0  0  0  0  0
  -26.0186  -38.2866   24.1465 H   0  0  0  0  0  0
  -29.8430  -18.3264   19.6655 H   0  0  0  0  0  0
  -32.1552  -18.4415   24.0275 H   0  0  0  0  0  0
  -30.5100  -24.7763   19.7153 H   0  0  0  0  0  0
  -29.8327  -24.7106   21.3286 H   0  0  0  0  0  0
  -29.8326  -21.9362   21.9939 H   0  0  0  0  0  0
  -31.3005  -22.4435   21.1515 H   0  0  0  0  0  0
  -27.5090  -24.8492   20.2404 H   0  0  0  0  0  0
  -28.3023  -25.1852   18.7049 H   0  0  0  0  0  0
  -28.4288  -15.1665   19.8574 H   0  0  0  0  0  0
  -31.7776  -16.1317   24.3069 H   0  0  0  0  0  0
  -30.9308  -15.1656   23.2220 H   0  0  0  0  0  0
  1 25  1  0  0  0
  1 30  2  0  0  0
  1 77  1  0  0  0
  2  3  1  0  0  0
  2 25  1  0  0  0
  2 87  1  0  0  0
  2 88  1  0  0  0
  3  4  1  0  0  0
  3 89  1  0  0  0
  3 90  1  0  0  0
  4  5  1  0  0  0
  4 91  1  0  0  0
  4 92  1  0  0  0
  5  6  1  0  0  0
  5 26  1  0  0  0
  5 93  1  0  0  0
  6 25  1  0  0  0
  6 94  1  0  0  0
  6 95  1  0  0  0
  7  8  2  0  0  0
  7 26  1  0  0  0
  7 29  1  0  0  0
  8  9  1  0  0  0
  8 22  1  0  0  0
  9 10  1  0  0  0
  9 27  2  0  0  0
 10 11  2  0  0  0
 10 15  1  0  0  0
 11 12  1  0  0  0
 11 96  1  0  0  0
 12 13  2  0  0  0
 12 97  1  0  0  0
 13 14  1  0  0  0
 13 31  1  0  0  0
 14 15  2  0  0  0
 14 98  1  0  0  0
 15 99  1  0  0  0
 16 17  2  0  0  0
 16 21  1  0  0  0
 16 31  1  0  0  0
 17 18  1  0  0  0
 17100  1  0  0  0
 18 19  2  0  0  0
 18101  1  0  0  0
 19 20  1  0  0  0
 19 24  1  0  0  0
 20 21  2  0  0  0
 20102  1  0  0  0
 21 23  1  0  0  0
 22 28  1  0  0  0
 22 32  2  0  0  0
 26 27  1  0  0  0
 28103  1  0  0  0
 28104  1  0  0  0
 29105  1  0  0  0
 29106  1  0  0  0
 33 34  1  0  0  0
 33 66  1  0  0  0
 33 70  2  0  0  0
 34 36  1  0  0  0
 34 59  1  0  0  0
 34107  1  0  0  0
 35 44  2  0  0  0
 35 45  1  0  0  0
 35 68  1  0  0  0
 36 56  1  0  0  0
 36108  1  0  0  0
 37 39  1  0  0  0
 37 47  1  0  0  0
 37 66  1  0  0  0
 37109  1  0  0  0
 38 43  2  0  0  0
 38 46  1  0  0  0
 38 47  1  0  0  0
 39 64  1  0  0  0
 39 67  2  0  0  0
 40 52  1  0  0  0
 40 53  2  0  0  0
 40 58  1  0  0  0
 41110  1  0  0  0
 41111  1  0  0  0
 41112  1  0  0  0
 41 48  1  0  0  0
 42 43  1  0  0  0
 42 66  1  0  0  0
 42113  1  0  0  0
 42114  1  0  0  0
 43 44  1  0  0  0
 44115  1  0  0  0
 45 46  2  0  0  0
 45116  1  0  0  0
 46117  1  0  0  0
 47118  1  0  0  0
 47119  1  0  0  0
 48 56  1  0  0  0
 48 65  1  0  0  0
 48120  1  0  0  0
 49 50  1  0  0  0
 49 53  1  0  0  0
 49 64  1  0  0  0
 49121  1  0  0  0
 50 51  1  0  0  0
 50122  1  0  0  0
 50123  1  0  0  0
 51 52  1  0  0  0
 51124  1  0  0  0
 51125  1  0  0  0
 52126  1  0  0  0
 52127  1  0  0  0
 53 54  1  0  0  0
 54 55  2  0  0  0
 54128  1  0  0  0
 55 57  1  0  0  0
 55129  1  0  0  0
 56 69  2  0  0  0
 57 58  2  0  0  0
 57130  1  0  0  0
 58131  1  0  0  0
 59 60  1  0  0  0
 59 61  1  0  0  0
 59 62  1  0  0  0
 60132  1  0  0  0
 60133  1  0  0  0
 60134  1  0  0  0
 61135  1  0  0  0
 61136  1  0  0  0
 61137  1  0  0  0
 62138  1  0  0  0
 62139  1  0  0  0
 62140  1  0  0  0
 63 65  1  0  0  0
 63141  1  0  0  0
 63142  1  0  0  0
 63143  1  0  0  0
 64144  1  0  0  0
 65145  1  0  0  0
 68 81  1  0  0  0
 71 73  2  0  0  0
 71 75  1  0  0  0
 71146  1  0  0  0
 72 74  2  0  0  0
 72 76  1  0  0  0
 72147  1  0  0  0
 73 74  1  0  0  0
 73 77  1  0  0  0
 74 83  1  0  0  0
 75 76  2  0  0  0
 75 85  1  0  0  0
 76 86  1  0  0  0
 77 82  2  0  0  0
 78 79  1  0  0  0
 78 80  1  0  0  0
 78 84  2  0  0  0
 79 81  1  0  0  0
 79148  1  0  0  0
 79149  1  0  0  0
 80 85  1  0  0  0
 80150  1  0  0  0
 80151  1  0  0  0
 81152  1  0  0  0
 81153  1  0  0  0
 82154  1  0  0  0
 83155  1  0  0  0
 83156  1  0  0  0
M  ISO  4   1 100  68 101  77 100  81 101
M  END
> <chiral flag>
0

> <version>
0

> <s_m_source_file>
/data/baiqing/PycharmProjects/Reinvent-master-3.2/result/LINK_invent/BTK/process_docking_weight1_custom_product_contain_oxygen_bond_distance_aromatic_linkinvent_7_9_3/rearranged_h_0115.sdf

> <i_m_source_file_index>
54

> <r_mmod_Potential_Energy-OPLS-2005>
182.439254760742

> <r_mmod_Stretch_Energy-OPLS-2005>
50.6502685546875

> <r_mmod_Bend_Energy-OPLS-2005>
129.759857177734

> <r_mmod_Torsional_Energy-OPLS-2005>
210.942321777344

> <r_mmod_Improper_Torsional_Energy-OPLS-2005>
11.666015625

> <r_mmod_Van_der_Waal_Energy-OPLS-2005>
173.279373168945

> <r_mmod_Electrostatic_Energy-OPLS-2005>
-200.239379882812

> <r_mmod_Solvation_Energy-OPLS-2005>
-222.782775878906

> <b_mmod_Minimization_Converged-OPLS-2005>
0

> <r_mmod_RMS_Derivative-OPLS-2005>
4.65485763549805

$$$$
54
                    3D
 Structure written by MMmdl.
167176  0  0  1  0            999 V2000
  -30.6236  -14.6191   20.4996 C   0  0  0  0  0  0
  -30.4427  -12.3767   19.4433 C   0  0  0  0  0  0
  -29.5103  -12.5017   18.2174 C   0  0  0  0  0  0
  -28.0306  -12.3447   18.6291 C   0  0  0  0  0  0
  -27.6564  -13.2096   19.8623 C   0  0  2  0  0  0
  -28.7027  -13.0495   20.9892 C   0  0  0  0  0  0
  -25.2583  -13.8139   20.5672 C   0  0  0  0  0  0
  -24.1846  -13.0426   20.9196 C   0  0  0  0  0  0
  -24.6392  -11.6893   20.8727 C   0  0  0  0  0  0
  -23.9048  -10.4290   21.0407 C   0  0  0  0  0  0
  -24.3608   -9.4208   21.9187 C   0  0  0  0  0  0
  -23.6296   -8.2238   22.0755 C   0  0  0  0  0  0
  -22.4279   -8.0272   21.3540 C   0  0  0  0  0  0
  -21.9902   -9.0242   20.4645 C   0  0  0  0  0  0
  -22.7223  -10.2130   20.3056 C   0  0  0  0  0  0
  -21.6844   -6.0736   22.5285 C   0  0  0  0  0  0
  -21.4013   -6.5645   23.8220 C   0  0  0  0  0  0
  -21.3656   -5.6790   24.9179 C   0  0  0  0  0  0
  -21.6047   -4.3053   24.7224 C   0  0  0  0  0  0
  -21.8815   -3.8150   23.4340 C   0  0  0  0  0  0
  -21.9199   -4.6967   22.3402 C   0  0  0  0  0  0
  -22.7871  -13.5238   21.1859 C   0  0  0  0  0  0
  -22.1661   -4.2162   21.0970 F   0  0  0  0  0  0
  -21.5630   -3.4524   25.7724 F   0  0  0  0  0  0
  -30.0219  -13.3910   20.4280 N   0  0  0  0  0  0
  -26.3000  -12.9307   20.3291 N   0  0  0  0  0  0
  -25.9319  -11.6476   20.5748 N   0  0  0  0  0  0
  -22.0498  -12.8228   22.0392 N   0  0  0  0  0  0
  -25.4276  -15.1851   20.4038 N   0  0  0  0  0  0
  -31.7883  -14.7933   20.1283 O   0  0  0  0  0  0
  -21.6640   -6.8873   21.4244 O   0  0  0  0  0  0
  -22.3561  -14.5548   20.6704 O   0  0  0  0  0  0
  -24.6239  -31.8594   23.2012 C   0  0  0  0  0  0
  -25.9071  -32.4785   23.8363 C   0  0  1  0  0  0
  -27.2448  -27.3222   20.1156 C   0  0  0  0  0  0
  -25.5894  -33.8593   24.2287 N   0  0  0  0  0  0
  -23.4222  -30.4775   21.5439 C   0  0  2  0  0  0
  -24.8733  -28.9321   20.1138 C   0  0  0  0  0  0
  -22.7479  -29.4594   22.4940 C   0  0  0  0  0  0
  -18.0276  -28.1390   22.8493 C   0  0  0  0  0  0
  -24.1485  -36.7272   23.2638 C   0  0  0  0  0  0
  -25.9632  -30.7877   21.3774 C   0  0  0  0  0  0
  -26.0407  -29.4147   20.7194 C   0  0  0  0  0  0
  -27.2254  -28.6201   20.7149 C   0  0  0  0  0  0
  -26.0527  -26.8939   19.4837 C   0  0  0  0  0  0
  -24.8813  -27.6757   19.4901 C   0  0  0  0  0  0
  -23.6399  -29.8089   20.1608 C   0  0  0  0  0  0
  -25.4120  -36.3091   24.0331 C   0  0  1  0  0  0
  -20.5880  -28.3676   23.1295 C   0  0  2  0  0  0
  -20.6775  -26.9402   22.5427 C   0  0  0  0  0  0
  -19.5759  -26.6388   21.5222 C   0  0  0  0  0  0
  -18.1925  -26.7942   22.1610 C   0  0  0  0  0  0
  -19.1533  -28.8849   23.2887 C   0  0  0  0  0  0
  -18.9460  -30.1450   23.8898 C   0  0  0  0  0  0
  -17.6467  -30.6594   24.0559 C   0  0  0  0  0  0
  -25.9054  -34.9460   23.5117 C   0  0  0  0  0  0
  -16.5352  -29.9091   23.6339 C   0  0  0  0  0  0
  -16.7265  -28.6504   23.0369 C   0  0  0  0  0  0
  -26.4488  -31.6593   25.0724 C   0  0  0  0  0  0
  -25.3730  -31.3745   26.1460 C   0  0  0  0  0  0
  -27.0325  -30.3018   24.6166 C   0  0  0  0  0  0
  -27.6073  -32.4323   25.7475 C   0  0  0  0  0  0
  -27.5599  -37.1784   24.8461 C   0  0  0  0  0  0
  -21.4186  -29.3027   22.3688 N   0  0  0  0  0  0
  -26.4294  -37.3788   23.9428 N   0  0  0  0  0  0
  -24.6885  -31.0591   22.0971 N   0  0  0  0  0  0
  -23.4199  -28.8144   23.3032 O   0  0  0  0  0  0
  -28.3779  -26.4882   20.1691 O   0  0  0  0  0  0
  -26.5614  -34.8921   22.4673 O   0  0  0  0  0  0
  -23.5394  -32.1396   23.7312 O   0  0  0  0  0  0
  -31.0058  -17.8750   20.4461 C   0  0  0  0  0  0
  -28.6511  -17.8336   20.9337 C   0  0  0  0  0  0
  -30.9759  -19.3067   20.4360 C   0  0  0  0  0  0
  -29.7719  -20.0409   20.6952 C   0  0  0  0  0  0
  -29.8480  -17.1021   20.7226 C   0  0  0  0  0  0
  -28.6050  -19.2566   20.9183 C   0  0  0  0  0  0
  -30.4090  -24.5198   20.9873 C   0  0  0  0  0  0
  -29.3215  -24.0338   20.3422 C   0  0  0  0  0  0
  -31.5101  -23.7030   21.5187 C   0  0  0  0  0  0
  -31.2092  -22.6211   22.5610 C   0  0  0  0  0  0
  -29.9195  -21.8249   22.3051 C   0  0  0  0  0  0
  -29.0674  -22.4915   20.0429 C   0  0  1  0  0  0
  -32.2904  -20.0186   20.1501 C   0  0  0  0  0  0
  -29.2992  -22.1749   18.5574 C   0  0  0  0  0  0
  -28.2191  -25.0452   19.8631 C   0  0  0  0  0  0
  -29.7634  -21.4710   20.8969 N   0  0  0  0  0  0
  -27.3972  -19.9002   21.1843 N   0  0  0  0  0  0
  -29.7843  -15.6451   20.8300 N   0  0  0  0  0  0
  -32.6822  -23.8929   21.1817 O   0  0  0  0  0  0
  -31.4832  -12.5038   19.1403 H   0  0  0  0  0  0
  -30.3755  -11.3773   19.8758 H   0  0  0  0  0  0
  -29.7708  -11.7510   17.4695 H   0  0  0  0  0  0
  -29.6586  -13.4709   17.7387 H   0  0  0  0  0  0
  -27.8622  -11.2917   18.8561 H   0  0  0  0  0  0
  -27.3772  -12.5801   17.7878 H   0  0  0  0  0  0
  -27.6790  -14.2473   19.5290 H   0  0  0  0  0  0
  -28.7079  -12.0240   21.3617 H   0  0  0  0  0  0
  -28.4509  -13.6717   21.8489 H   0  0  0  0  0  0
  -25.2758   -9.5692   22.4755 H   0  0  0  0  0  0
  -24.0020   -7.4621   22.7457 H   0  0  0  0  0  0
  -21.0843   -8.8742   19.8942 H   0  0  0  0  0  0
  -22.3674  -10.9660   19.6157 H   0  0  0  0  0  0
  -21.1990   -7.6150   23.9724 H   0  0  0  0  0  0
  -21.1486   -6.0517   25.9084 H   0  0  0  0  0  0
  -22.0596   -2.7616   23.2824 H   0  0  0  0  0  0
  -22.4107  -11.9895   22.4797 H   0  0  0  0  0  0
  -21.1110  -13.1261   22.2586 H   0  0  0  0  0  0
  -24.6463  -15.8268   20.4863 H   0  0  0  0  0  0
  -26.2525  -15.6147   20.0058 H   0  0  0  0  0  0
  -26.7130  -32.5472   23.1112 H   0  0  0  0  0  0
  -25.0080  -33.9772   25.0462 H   0  0  0  0  0  0
  -22.7164  -31.2974   21.3998 H   0  0  0  0  0  0
  -23.3787  -35.9558   23.3279 H   0  0  0  0  0  0
  -24.3603  -36.8908   22.2061 H   0  0  0  0  0  0
  -23.7189  -37.6441   23.6677 H   0  0  0  0  0  0
  -26.1037  -31.5518   20.6113 H   0  0  0  0  0  0
  -26.8396  -30.8331   22.0117 H   0  0  0  0  0  0
  -28.1179  -28.9871   21.2030 H   0  0  0  0  0  0
  -25.9938  -25.9381   18.9835 H   0  0  0  0  0  0
  -23.9877  -27.2977   19.0117 H   0  0  0  0  0  0
  -23.7592  -30.5828   19.4025 H   0  0  0  0  0  0
  -22.7622  -29.2329   19.8602 H   0  0  0  0  0  0
  -25.1312  -36.1941   25.0824 H   0  0  0  0  0  0
  -20.9983  -28.3238   24.1410 H   0  0  0  0  0  0
  -20.5677  -26.2287   23.3631 H   0  0  0  0  0  0
  -21.6650  -26.7445   22.1222 H   0  0  0  0  0  0
  -19.6928  -25.6297   21.1248 H   0  0  0  0  0  0
  -19.6707  -27.3209   20.6756 H   0  0  0  0  0  0
  -17.4229  -26.6696   21.3977 H   0  0  0  0  0  0
  -18.0283  -26.0084   22.9000 H   0  0  0  0  0  0
  -19.7938  -30.7253   24.2280 H   0  0  0  0  0  0
  -17.5033  -31.6280   24.5153 H   0  0  0  0  0  0
  -15.5356  -30.3005   23.7682 H   0  0  0  0  0  0
  -15.8656  -28.0824   22.7108 H   0  0  0  0  0  0
  -24.5873  -30.7135   25.7805 H   0  0  0  0  0  0
  -24.8953  -32.2910   26.4913 H   0  0  0  0  0  0
  -25.8042  -30.8901   27.0223 H   0  0  0  0  0  0
  -26.2881  -29.6767   24.1218 H   0  0  0  0  0  0
  -27.4070  -29.7280   25.4654 H   0  0  0  0  0  0
  -27.8742  -30.4335   23.9367 H   0  0  0  0  0  0
  -27.2719  -33.3658   26.2014 H   0  0  0  0  0  0
  -28.3881  -32.6817   25.0279 H   0  0  0  0  0  0
  -28.0737  -31.8459   26.5405 H   0  0  0  0  0  0
  -28.2589  -38.0110   24.7584 H   0  0  0  0  0  0
  -28.1117  -36.2653   24.6190 H   0  0  0  0  0  0
  -27.2335  -37.1314   25.8861 H   0  0  0  0  0  0
  -20.9369  -29.8745   21.6892 H   0  0  0  0  0  0
  -26.0169  -38.2844   24.1474 H   0  0  0  0  0  0
  -31.9464  -17.3757   20.2624 H   0  0  0  0  0  0
  -27.7399  -17.2901   21.1402 H   0  0  0  0  0  0
  -30.5109  -25.5834   21.1369 H   0  0  0  0  0  0
  -31.1686  -23.0776   23.5497 H   0  0  0  0  0  0
  -32.0518  -21.9306   22.5767 H   0  0  0  0  0  0
  -29.0585  -22.4158   22.6217 H   0  0  0  0  0  0
  -29.9052  -20.9383   22.9430 H   0  0  0  0  0  0
  -28.0024  -22.3567   20.2308 H   0  0  0  0  0  0
  -32.6857  -19.6942   19.1866 H   0  0  0  0  0  0
  -33.0303  -19.7782   20.9146 H   0  0  0  0  0  0
  -32.1887  -21.1010   20.1094 H   0  0  0  0  0  0
  -30.3606  -22.2087   18.3100 H   0  0  0  0  0  0
  -28.7810  -22.8741   17.9031 H   0  0  0  0  0  0
  -28.9289  -21.1807   18.3047 H   0  0  0  0  0  0
  -27.2892  -24.6860   20.3042 H   0  0  0  0  0  0
  -28.1248  -24.9462   18.7819 H   0  0  0  0  0  0
  -26.6986  -19.4001   21.7214 H   0  0  0  0  0  0
  -27.5113  -20.8656   21.4720 H   0  0  0  0  0  0
  -28.8781  -15.2951   21.0974 H   0  0  0  0  0  0
  1 25  1  0  0  0
  1 30  2  0  0  0
  1 88  1  0  0  0
  2  3  1  0  0  0
  2 25  1  0  0  0
  2 90  1  0  0  0
  2 91  1  0  0  0
  3  4  1  0  0  0
  3 92  1  0  0  0
  3 93  1  0  0  0
  4  5  1  0  0  0
  4 94  1  0  0  0
  4 95  1  0  0  0
  5  6  1  0  0  0
  5 26  1  0  0  0
  5 96  1  0  0  0
  6 25  1  0  0  0
  6 97  1  0  0  0
  6 98  1  0  0  0
  7  8  2  0  0  0
  7 26  1  0  0  0
  7 29  1  0  0  0
  8  9  1  0  0  0
  8 22  1  0  0  0
  9 10  1  0  0  0
  9 27  2  0  0  0
 10 11  2  0  0  0
 10 15  1  0  0  0
 11 12  1  0  0  0
 11 99  1  0  0  0
 12 13  2  0  0  0
 12100  1  0  0  0
 13 14  1  0  0  0
 13 31  1  0  0  0
 14 15  2  0  0  0
 14101  1  0  0  0
 15102  1  0  0  0
 16 17  2  0  0  0
 16 21  1  0  0  0
 16 31  1  0  0  0
 17 18  1  0  0  0
 17103  1  0  0  0
 18 19  2  0  0  0
 18104  1  0  0  0
 19 20  1  0  0  0
 19 24  1  0  0  0
 20 21  2  0  0  0
 20105  1  0  0  0
 21 23  1  0  0  0
 22 28  1  0  0  0
 22 32  2  0  0  0
 26 27  1  0  0  0
 28106  1  0  0  0
 28107  1  0  0  0
 29108  1  0  0  0
 29109  1  0  0  0
 33 34  1  0  0  0
 33 66  1  0  0  0
 33 70  2  0  0  0
 34 36  1  0  0  0
 34 59  1  0  0  0
 34110  1  0  0  0
 35 44  2  0  0  0
 35 45  1  0  0  0
 35 68  1  0  0  0
 36 56  1  0  0  0
 36111  1  0  0  0
 37 39  1  0  0  0
 37 47  1  0  0  0
 37 66  1  0  0  0
 37112  1  0  0  0
 38 43  2  0  0  0
 38 46  1  0  0  0
 38 47  1  0  0  0
 39 64  1  0  0  0
 39 67  2  0  0  0
 40 52  1  0  0  0
 40 53  2  0  0  0
 40 58  1  0  0  0
 41113  1  0  0  0
 41114  1  0  0  0
 41115  1  0  0  0
 41 48  1  0  0  0
 42 43  1  0  0  0
 42 66  1  0  0  0
 42116  1  0  0  0
 42117  1  0  0  0
 43 44  1  0  0  0
 44118  1  0  0  0
 45 46  2  0  0  0
 45119  1  0  0  0
 46120  1  0  0  0
 47121  1  0  0  0
 47122  1  0  0  0
 48 56  1  0  0  0
 48 65  1  0  0  0
 48123  1  0  0  0
 49 50  1  0  0  0
 49 53  1  0  0  0
 49 64  1  0  0  0
 49124  1  0  0  0
 50 51  1  0  0  0
 50125  1  0  0  0
 50126  1  0  0  0
 51 52  1  0  0  0
 51127  1  0  0  0
 51128  1  0  0  0
 52129  1  0  0  0
 52130  1  0  0  0
 53 54  1  0  0  0
 54 55  2  0  0  0
 54131  1  0  0  0
 55 57  1  0  0  0
 55132  1  0  0  0
 56 69  2  0  0  0
 57 58  2  0  0  0
 57133  1  0  0  0
 58134  1  0  0  0
 59 60  1  0  0  0
 59 61  1  0  0  0
 59 62  1  0  0  0
 60135  1  0  0  0
 60136  1  0  0  0
 60137  1  0  0  0
 61138  1  0  0  0
 61139  1  0  0  0
 61140  1  0  0  0
 62141  1  0  0  0
 62142  1  0  0  0
 62143  1  0  0  0
 63 65  1  0  0  0
 63144  1  0  0  0
 63145  1  0  0  0
 63146  1  0  0  0
 64147  1  0  0  0
 65148  1  0  0  0
 68 85  1  0  0  0
 71 73  2  0  0  0
 71 75  1  0  0  0
 71149  1  0  0  0
 72 75  2  0  0  0
 72 76  1  0  0  0
 72150  1  0  0  0
 73 74  1  0  0  0
 73 83  1  0  0  0
 74 76  2  0  0  0
 74 86  1  0  0  0
 75 88  1  0  0  0
 76 87  1  0  0  0
 77 78  2  0  0  0
 77 79  1  0  0  0
 77151  1  0  0  0
 78 82  1  0  0  0
 78 85  1  0  0  0
 79 80  1  0  0  0
 79 89  2  0  0  0
 80 81  1  0  0  0
 80152  1  0  0  0
 80153  1  0  0  0
 81 86  1  0  0  0
 81154  1  0  0  0
 81155  1  0  0  0
 82 84  1  0  0  0
 82 86  1  0  0  0
 82156  1  0  0  0
 83157  1  0  0  0
 83158  1  0  0  0
 83159  1  0  0  0
 84160  1  0  0  0
 84161  1  0  0  0
 84162  1  0  0  0
 85163  1  0  0  0
 85164  1  0  0  0
 87165  1  0  0  0
 87166  1  0  0  0
 88167  1  0  0  0
M  ISO  4   1 100  68 101  85 101  88 100
M  END
> <chiral flag>
0

> <version>
0

> <s_m_source_file>
/data/baiqing/PycharmProjects/Reinvent-master-3.2/result/LINK_invent/BTK/process_docking_weight1_custom_product_contain_oxygen_bond_distance_aromatic_linkinvent_7_9_3/rearranged_h_0115.sdf

> <i_m_source_file_index>
55

> <r_mmod_Potential_Energy-OPLS-2005>
21.4455013275146

> <r_mmod_Stretch_Energy-OPLS-2005>
85.5776138305664

> <r_mmod_Bend_Energy-OPLS-2005>
157.698577880859

> <r_mmod_Torsional_Energy-OPLS-2005>
248.205490112305

> <r_mmod_Improper_Torsional_Energy-OPLS-2005>
11.5485754013062

> <r_mmod_Van_der_Waal_Energy-OPLS-2005>
154.114547729492

> <r_mmod_Electrostatic_Energy-OPLS-2005>
-452.729278564453

> <r_mmod_Solvation_Energy-OPLS-2005>
-227.277847290039

> <b_mmod_Minimization_Converged-OPLS-2005>
0

> <r_mmod_RMS_Derivative-OPLS-2005>
2.74882388114929

$$$$
55
                    3D
 Structure written by MMmdl.
161169  0  0  1  0            999 V2000
  -30.6506  -14.7111   20.4253 C   0  0  0  0  0  0
  -30.4249  -12.4293   19.4576 C   0  0  0  0  0  0
  -29.5012  -12.4821   18.2237 C   0  0  0  0  0  0
  -28.0289  -12.3146   18.6471 C   0  0  0  0  0  0
  -27.6380  -13.2204   19.8462 C   0  0  2  0  0  0
  -28.6913  -13.1853   20.9729 C   0  0  0  0  0  0
  -25.2526  -13.8163   20.5735 C   0  0  0  0  0  0
  -24.1796  -13.0425   20.9213 C   0  0  0  0  0  0
  -24.6375  -11.6900   20.8758 C   0  0  0  0  0  0
  -23.9052  -10.4283   21.0413 C   0  0  0  0  0  0
  -24.3609   -9.4199   21.9187 C   0  0  0  0  0  0
  -23.6286   -8.2235   22.0754 C   0  0  0  0  0  0
  -22.4268   -8.0274   21.3544 C   0  0  0  0  0  0
  -21.9900   -9.0248   20.4647 C   0  0  0  0  0  0
  -22.7227  -10.2127   20.3058 C   0  0  0  0  0  0
  -21.6850   -6.0731   22.5279 C   0  0  0  0  0  0
  -21.4013   -6.5636   23.8212 C   0  0  0  0  0  0
  -21.3657   -5.6790   24.9174 C   0  0  0  0  0  0
  -21.6044   -4.3054   24.7223 C   0  0  0  0  0  0
  -21.8821   -3.8144   23.4345 C   0  0  0  0  0  0
  -21.9192   -4.6960   22.3402 C   0  0  0  0  0  0
  -22.7822  -13.5220   21.1867 C   0  0  0  0  0  0
  -22.1663   -4.2147   21.0980 F   0  0  0  0  0  0
  -21.5627   -3.4539   25.7737 F   0  0  0  0  0  0
  -29.9854  -13.5091   20.3644 N   0  0  0  0  0  0
  -26.2933  -12.9344   20.3318 N   0  0  0  0  0  0
  -25.9305  -11.6502   20.5785 N   0  0  0  0  0  0
  -22.0464  -12.8212   22.0421 N   0  0  0  0  0  0
  -25.4256  -15.1884   20.4202 N   0  0  0  0  0  0
  -31.8709  -14.7340   20.2409 O   0  0  0  0  0  0
  -21.6633   -6.8872   21.4240 O   0  0  0  0  0  0
  -22.3511  -14.5525   20.6713 O   0  0  0  0  0  0
  -24.6302  -31.8581   23.2022 C   0  0  0  0  0  0
  -25.9139  -32.4768   23.8351 C   0  0  1  0  0  0
  -27.2178  -27.2886   20.1006 C   0  0  0  0  0  0
  -25.5945  -33.8570   24.2275 N   0  0  0  0  0  0
  -23.4236  -30.4855   21.5465 C   0  0  2  0  0  0
  -24.8669  -28.9445   20.1069 C   0  0  0  0  0  0
  -22.7493  -29.4622   22.4922 C   0  0  0  0  0  0
  -18.0292  -28.1387   22.8481 C   0  0  0  0  0  0
  -24.1491  -36.7289   23.2637 C   0  0  0  0  0  0
  -25.9704  -30.7797   21.3779 C   0  0  0  0  0  0
  -26.0416  -29.4083   20.7114 C   0  0  0  0  0  0
  -27.2175  -28.5926   20.7003 C   0  0  0  0  0  0
  -26.0042  -26.8860   19.4891 C   0  0  0  0  0  0
  -24.8517  -27.6891   19.4884 C   0  0  0  0  0  0
  -23.6379  -29.8285   20.1595 C   0  0  0  0  0  0
  -25.4116  -36.3076   24.0325 C   0  0  1  0  0  0
  -20.5893  -28.3697   23.1270 C   0  0  2  0  0  0
  -20.6782  -26.9417   22.5403 C   0  0  0  0  0  0
  -19.5757  -26.6384   21.5208 C   0  0  0  0  0  0
  -18.1938  -26.7929   22.1622 C   0  0  0  0  0  0
  -19.1544  -28.8859   23.2871 C   0  0  0  0  0  0
  -18.9466  -30.1461   23.8889 C   0  0  0  0  0  0
  -17.6465  -30.6587   24.0564 C   0  0  0  0  0  0
  -25.9057  -34.9446   23.5098 C   0  0  0  0  0  0
  -16.5356  -29.9084   23.6333 C   0  0  0  0  0  0
  -16.7278  -28.6503   23.0350 C   0  0  0  0  0  0
  -26.4507  -31.6585   25.0732 C   0  0  0  0  0  0
  -25.3732  -31.3734   26.1454 C   0  0  0  0  0  0
  -27.0353  -30.3001   24.6213 C   0  0  0  0  0  0
  -27.6061  -32.4322   25.7508 C   0  0  0  0  0  0
  -27.5580  -37.1800   24.8463 C   0  0  0  0  0  0
  -21.4203  -29.3050   22.3666 N   0  0  0  0  0  0
  -26.4290  -37.3774   23.9408 N   0  0  0  0  0  0
  -24.6940  -31.0574   22.0987 N   0  0  0  0  0  0
  -23.4210  -28.8149   23.2996 O   0  0  0  0  0  0
  -28.3098  -26.3937   20.2038 O   0  0  0  0  0  0
  -26.5623  -34.8917   22.4664 O   0  0  0  0  0  0
  -23.5458  -32.1393   23.7338 O   0  0  0  0  0  0
  -28.3158  -18.8122   20.2933 C   0  0  0  0  0  0
  -30.1456  -20.9008   20.6429 C   0  0  0  0  0  0
  -29.6272  -18.4306   20.6817 C   0  0  0  0  0  0
  -30.5484  -19.5295   20.8521 C   0  0  0  0  0  0
  -27.9400  -20.1696   20.0681 C   0  0  0  0  0  0
  -28.8332  -21.2634   20.2415 C   0  0  0  0  0  0
  -33.8890  -20.1836   22.5023 C   0  0  0  0  0  0
  -28.6299  -16.3944   18.1895 C   0  0  0  0  0  0
  -32.5755  -20.2116   22.2133 C   0  0  0  0  0  0
  -29.7916  -16.1882   18.8357 C   0  0  0  0  0  0
  -31.9682  -19.2743   21.2477 C   0  0  0  0  0  0
  -29.9577  -16.9531   21.0837 C   0  0  0  0  0  0
  -28.3592  -25.0848   19.5721 C   0  0  0  0  0  0
  -28.9749  -23.8468   20.3605 C   0  0  0  0  0  0
  -26.6337  -20.4491   19.6763 N   0  0  0  0  0  0
  -29.9277  -15.8799   20.2004 N   0  0  0  0  0  0
  -32.6031  -18.3212   20.7852 O   0  0  0  0  0  0
  -30.2482  -16.7838   22.2736 O   0  0  0  0  0  0
  -27.9439  -24.8842   18.4257 O   0  0  0  0  0  0
  -28.3515  -22.5691   19.9583 O   0  0  0  0  0  0
  -31.4665  -12.5388   19.1504 H   0  0  0  0  0  0
  -30.3566  -11.4605   19.9549 H   0  0  0  0  0  0
  -29.7765  -11.7025   17.5123 H   0  0  0  0  0  0
  -29.6305  -13.4309   17.7009 H   0  0  0  0  0  0
  -27.8859  -11.2676   18.9169 H   0  0  0  0  0  0
  -27.3680  -12.5022   17.8004 H   0  0  0  0  0  0
  -27.6194  -14.2329   19.4559 H   0  0  0  0  0  0
  -28.7248  -12.2053   21.4508 H   0  0  0  0  0  0
  -28.4426  -13.9082   21.7521 H   0  0  0  0  0  0
  -25.2756   -9.5676   22.4758 H   0  0  0  0  0  0
  -23.9998   -7.4624   22.7468 H   0  0  0  0  0  0
  -21.0834   -8.8761   19.8951 H   0  0  0  0  0  0
  -22.3687  -10.9664   19.6165 H   0  0  0  0  0  0
  -21.2009   -7.6146   23.9714 H   0  0  0  0  0  0
  -21.1478   -6.0521   25.9076 H   0  0  0  0  0  0
  -22.0603   -2.7605   23.2847 H   0  0  0  0  0  0
  -22.4075  -11.9874   22.4814 H   0  0  0  0  0  0
  -21.1084  -13.1239   22.2630 H   0  0  0  0  0  0
  -24.6650  -15.8484   20.5402 H   0  0  0  0  0  0
  -26.2911  -15.6245   20.1360 H   0  0  0  0  0  0
  -26.7205  -32.5419   23.1092 H   0  0  0  0  0  0
  -25.0097  -33.9713   25.0424 H   0  0  0  0  0  0
  -22.7187  -31.3078   21.4069 H   0  0  0  0  0  0
  -23.3753  -35.9621   23.3296 H   0  0  0  0  0  0
  -24.3584  -36.8915   22.2053 H   0  0  0  0  0  0
  -23.7245  -37.6489   23.6664 H   0  0  0  0  0  0
  -26.1096  -31.5465   20.6146 H   0  0  0  0  0  0
  -26.8478  -30.8217   22.0116 H   0  0  0  0  0  0
  -28.1139  -28.9411   21.1935 H   0  0  0  0  0  0
  -25.8876  -25.9153   19.0348 H   0  0  0  0  0  0
  -23.9472  -27.3202   19.0246 H   0  0  0  0  0  0
  -23.7611  -30.6094   19.4081 H   0  0  0  0  0  0
  -22.7552  -29.2643   19.8525 H   0  0  0  0  0  0
  -25.1296  -36.1923   25.0817 H   0  0  0  0  0  0
  -20.9987  -28.3275   24.1391 H   0  0  0  0  0  0
  -20.5686  -26.2306   23.3606 H   0  0  0  0  0  0
  -21.6651  -26.7447   22.1196 H   0  0  0  0  0  0
  -19.6920  -25.6293   21.1245 H   0  0  0  0  0  0
  -19.6693  -27.3189   20.6734 H   0  0  0  0  0  0
  -17.4205  -26.6670   21.4028 H   0  0  0  0  0  0
  -18.0343  -26.0074   22.9022 H   0  0  0  0  0  0
  -19.7942  -30.7281   24.2250 H   0  0  0  0  0  0
  -17.5019  -31.6266   24.5165 H   0  0  0  0  0  0
  -15.5357  -30.2981   23.7665 H   0  0  0  0  0  0
  -15.8678  -28.0822   22.7066 H   0  0  0  0  0  0
  -24.5906  -30.7083   25.7786 H   0  0  0  0  0  0
  -24.8926  -32.2904   26.4871 H   0  0  0  0  0  0
  -25.8049  -30.8917   27.0236 H   0  0  0  0  0  0
  -26.2937  -29.6748   24.1227 H   0  0  0  0  0  0
  -27.4025  -29.7264   25.4733 H   0  0  0  0  0  0
  -27.8819  -30.4277   23.9463 H   0  0  0  0  0  0
  -27.2668  -33.3624   26.2079 H   0  0  0  0  0  0
  -28.3877  -32.6879   25.0341 H   0  0  0  0  0  0
  -28.0721  -31.8450   26.5432 H   0  0  0  0  0  0
  -28.2592  -38.0103   24.7515 H   0  0  0  0  0  0
  -28.1083  -36.2635   24.6280 H   0  0  0  0  0  0
  -27.2300  -37.1439   25.8866 H   0  0  0  0  0  0
  -20.9381  -29.8785   21.6888 H   0  0  0  0  0  0
  -26.0169  -38.2847   24.1411 H   0  0  0  0  0  0
  -27.5663  -18.0403   20.1995 H   0  0  0  0  0  0
  -30.8715  -21.6926   20.7595 H   0  0  0  0  0  0
  -34.3127  -20.8781   23.2130 H   0  0  0  0  0  0
  -34.5608  -19.4740   22.0393 H   0  0  0  0  0  0
  -28.6256  -16.6281   17.1342 H   0  0  0  0  0  0
  -27.6715  -16.3382   18.6814 H   0  0  0  0  0  0
  -31.9351  -20.9346   22.6966 H   0  0  0  0  0  0
  -30.7409  -16.2557   18.3186 H   0  0  0  0  0  0
  -28.8372  -23.9976   21.4310 H   0  0  0  0  0  0
  -30.0469  -23.8116   20.1682 H   0  0  0  0  0  0
  -26.1234  -19.7334   19.1703 H   0  0  0  0  0  0
  -26.4810  -21.3805   19.3011 H   0  0  0  0  0  0
  1 25  1  0  0  0
  1 30  2  0  0  0
  1 86  1  0  0  0
  2  3  1  0  0  0
  2 25  1  0  0  0
  2 91  1  0  0  0
  2 92  1  0  0  0
  3  4  1  0  0  0
  3 93  1  0  0  0
  3 94  1  0  0  0
  4  5  1  0  0  0
  4 95  1  0  0  0
  4 96  1  0  0  0
  5  6  1  0  0  0
  5 26  1  0  0  0
  5 97  1  0  0  0
  6 25  1  0  0  0
  6 98  1  0  0  0
  6 99  1  0  0  0
  7  8  2  0  0  0
  7 26  1  0  0  0
  7 29  1  0  0  0
  8  9  1  0  0  0
  8 22  1  0  0  0
  9 10  1  0  0  0
  9 27  2  0  0  0
 10 11  2  0  0  0
 10 15  1  0  0  0
 11 12  1  0  0  0
 11100  1  0  0  0
 12 13  2  0  0  0
 12101  1  0  0  0
 13 14  1  0  0  0
 13 31  1  0  0  0
 14 15  2  0  0  0
 14102  1  0  0  0
 15103  1  0  0  0
 16 17  2  0  0  0
 16 21  1  0  0  0
 16 31  1  0  0  0
 17 18  1  0  0  0
 17104  1  0  0  0
 18 19  2  0  0  0
 18105  1  0  0  0
 19 20  1  0  0  0
 19 24  1  0  0  0
 20 21  2  0  0  0
 20106  1  0  0  0
 21 23  1  0  0  0
 22 28  1  0  0  0
 22 32  2  0  0  0
 26 27  1  0  0  0
 28107  1  0  0  0
 28108  1  0  0  0
 29109  1  0  0  0
 29110  1  0  0  0
 33 34  1  0  0  0
 33 66  1  0  0  0
 33 70  2  0  0  0
 34 36  1  0  0  0
 34 59  1  0  0  0
 34111  1  0  0  0
 35 44  2  0  0  0
 35 45  1  0  0  0
 35 68  1  0  0  0
 36 56  1  0  0  0
 36112  1  0  0  0
 37 39  1  0  0  0
 37 47  1  0  0  0
 37 66  1  0  0  0
 37113  1  0  0  0
 38 43  2  0  0  0
 38 46  1  0  0  0
 38 47  1  0  0  0
 39 64  1  0  0  0
 39 67  2  0  0  0
 40 52  1  0  0  0
 40 53  2  0  0  0
 40 58  1  0  0  0
 41114  1  0  0  0
 41115  1  0  0  0
 41116  1  0  0  0
 41 48  1  0  0  0
 42 43  1  0  0  0
 42 66  1  0  0  0
 42117  1  0  0  0
 42118  1  0  0  0
 43 44  1  0  0  0
 44119  1  0  0  0
 45 46  2  0  0  0
 45120  1  0  0  0
 46121  1  0  0  0
 47122  1  0  0  0
 47123  1  0  0  0
 48 56  1  0  0  0
 48 65  1  0  0  0
 48124  1  0  0  0
 49 50  1  0  0  0
 49 53  1  0  0  0
 49 64  1  0  0  0
 49125  1  0  0  0
 50 51  1  0  0  0
 50126  1  0  0  0
 50127  1  0  0  0
 51 52  1  0  0  0
 51128  1  0  0  0
 51129  1  0  0  0
 52130  1  0  0  0
 52131  1  0  0  0
 53 54  1  0  0  0
 54 55  2  0  0  0
 54132  1  0  0  0
 55 57  1  0  0  0
 55133  1  0  0  0
 56 69  2  0  0  0
 57 58  2  0  0  0
 57134  1  0  0  0
 58135  1  0  0  0
 59 60  1  0  0  0
 59 61  1  0  0  0
 59 62  1  0  0  0
 60136  1  0  0  0
 60137  1  0  0  0
 60138  1  0  0  0
 61139  1  0  0  0
 61140  1  0  0  0
 61141  1  0  0  0
 62142  1  0  0  0
 62143  1  0  0  0
 62144  1  0  0  0
 63 65  1  0  0  0
 63145  1  0  0  0
 63146  1  0  0  0
 63147  1  0  0  0
 64148  1  0  0  0
 65149  1  0  0  0
 68 83  1  0  0  0
 71 73  2  0  0  0
 71 75  1  0  0  0
 71150  1  0  0  0
 72 74  2  0  0  0
 72 76  1  0  0  0
 72151  1  0  0  0
 73 74  1  0  0  0
 73 82  1  0  0  0
 74 81  1  0  0  0
 75 76  2  0  0  0
 75 85  1  0  0  0
 76 90  1  0  0  0
 77 79  2  0  0  0
 77152  1  0  0  0
 77153  1  0  0  0
 78 80  2  0  0  0
 78154  1  0  0  0
 78155  1  0  0  0
 79 81  1  0  0  0
 79156  1  0  0  0
 80 86  1  0  0  0
 80157  1  0  0  0
 81 87  2  0  0  0
 82 86  1  0  0  0
 82 88  2  0  0  0
 83 84  1  0  0  0
 83 89  2  0  0  0
 84 90  1  0  0  0
 84158  1  0  0  0
 84159  1  0  0  0
 85160  1  0  0  0
 85161  1  0  0  0
M  ISO  4   1 100  68 101  83 101  86 100
M  END
> <chiral flag>
0

> <version>
0

> <s_m_source_file>
/data/baiqing/PycharmProjects/Reinvent-master-3.2/result/LINK_invent/BTK/process_docking_weight1_custom_product_contain_oxygen_bond_distance_aromatic_linkinvent_7_9_3/rearranged_h_0115.sdf

> <i_m_source_file_index>
56

> <r_mmod_Potential_Energy-OPLS-2005>
272.8818359375

> <r_mmod_Stretch_Energy-OPLS-2005>
111.054344177246

> <r_mmod_Bend_Energy-OPLS-2005>
171.457672119141

> <r_mmod_Torsional_Energy-OPLS-2005>
381.566864013672

> <r_mmod_Improper_Torsional_Energy-OPLS-2005>
22.3552875518799

> <r_mmod_Van_der_Waal_Energy-OPLS-2005>
158.448852539062

> <r_mmod_Electrostatic_Energy-OPLS-2005>
-416.716156005859

> <r_mmod_Solvation_Energy-OPLS-2005>
-235.477752685547

> <b_mmod_Minimization_Converged-OPLS-2005>
0

> <r_mmod_RMS_Derivative-OPLS-2005>
0.489312142133713

$$$$
56
                    3D
 Structure written by MMmdl.
163171  0  0  1  0            999 V2000
  -30.7998  -14.2971   20.7344 C   0  0  0  0  0  0
  -30.4136  -12.2713   19.3838 C   0  0  0  0  0  0
  -29.4788  -12.5401   18.1913 C   0  0  0  0  0  0
  -28.0054  -12.3917   18.6080 C   0  0  0  0  0  0
  -27.6712  -13.1991   19.8893 C   0  0  2  0  0  0
  -28.7045  -12.9118   20.9991 C   0  0  0  0  0  0
  -25.2616  -13.8147   20.5701 C   0  0  0  0  0  0
  -24.1855  -13.0441   20.9173 C   0  0  0  0  0  0
  -24.6380  -11.6907   20.8727 C   0  0  0  0  0  0
  -23.9064  -10.4289   21.0394 C   0  0  0  0  0  0
  -24.3616   -9.4201   21.9175 C   0  0  0  0  0  0
  -23.6289   -8.2232   22.0753 C   0  0  0  0  0  0
  -22.4270   -8.0279   21.3544 C   0  0  0  0  0  0
  -21.9904   -9.0250   20.4648 C   0  0  0  0  0  0
  -22.7235  -10.2124   20.3052 C   0  0  0  0  0  0
  -21.6837   -6.0739   22.5282 C   0  0  0  0  0  0
  -21.4007   -6.5651   23.8215 C   0  0  0  0  0  0
  -21.3654   -5.6801   24.9170 C   0  0  0  0  0  0
  -21.6034   -4.3062   24.7219 C   0  0  0  0  0  0
  -21.8812   -3.8150   23.4344 C   0  0  0  0  0  0
  -21.9196   -4.6966   22.3403 C   0  0  0  0  0  0
  -22.7883  -13.5249   21.1856 C   0  0  0  0  0  0
  -22.1662   -4.2146   21.0975 F   0  0  0  0  0  0
  -21.5639   -3.4547   25.7733 F   0  0  0  0  0  0
  -30.0590  -13.1870   20.4758 N   0  0  0  0  0  0
  -26.3068  -12.9310   20.3433 N   0  0  0  0  0  0
  -25.9308  -11.6470   20.5776 N   0  0  0  0  0  0
  -22.0541  -12.8239   22.0432 N   0  0  0  0  0  0
  -25.4362  -15.1858   20.4130 N   0  0  0  0  0  0
  -31.7604  -14.6424   20.0348 O   0  0  0  0  0  0
  -21.6640   -6.8871   21.4241 O   0  0  0  0  0  0
  -22.3546  -14.5520   20.6670 O   0  0  0  0  0  0
  -24.6098  -31.8739   23.2148 C   0  0  0  0  0  0
  -25.9024  -32.4846   23.8417 C   0  0  1  0  0  0
  -27.2446  -27.4966   20.0580 C   0  0  0  0  0  0
  -25.5902  -33.8643   24.2352 N   0  0  0  0  0  0
  -23.3937  -30.4982   21.5555 C   0  0  2  0  0  0
  -24.8362  -28.9689   20.1191 C   0  0  0  0  0  0
  -22.7369  -29.4696   22.5024 C   0  0  0  0  0  0
  -18.0278  -28.1370   22.8501 C   0  0  0  0  0  0
  -24.1496  -36.7336   23.2631 C   0  0  0  0  0  0
  -25.9176  -30.8510   21.3617 C   0  0  0  0  0  0
  -25.9923  -29.4889   20.7121 C   0  0  0  0  0  0
  -27.1935  -28.7548   20.6893 C   0  0  0  0  0  0
  -26.0638  -26.9725   19.4758 C   0  0  0  0  0  0
  -24.8632  -27.7031   19.5095 C   0  0  0  0  0  0
  -23.5979  -29.8315   20.1694 C   0  0  0  0  0  0
  -25.4116  -36.3127   24.0331 C   0  0  1  0  0  0
  -20.5854  -28.3663   23.1329 C   0  0  2  0  0  0
  -20.6778  -26.9406   22.5414 C   0  0  0  0  0  0
  -19.5744  -26.6381   21.5226 C   0  0  0  0  0  0
  -18.1925  -26.7917   22.1637 C   0  0  0  0  0  0
  -19.1520  -28.8835   23.2915 C   0  0  0  0  0  0
  -18.9440  -30.1440   23.8925 C   0  0  0  0  0  0
  -17.6441  -30.6579   24.0566 C   0  0  0  0  0  0
  -25.9038  -34.9488   23.5140 C   0  0  0  0  0  0
  -16.5338  -29.9083   23.6308 C   0  0  0  0  0  0
  -16.7267  -28.6495   23.0342 C   0  0  0  0  0  0
  -26.4458  -31.6600   25.0727 C   0  0  0  0  0  0
  -25.3728  -31.3707   26.1473 C   0  0  0  0  0  0
  -27.0278  -30.3043   24.6076 C   0  0  0  0  0  0
  -27.6053  -32.4306   25.7489 C   0  0  0  0  0  0
  -27.5590  -37.1825   24.8466 C   0  0  0  0  0  0
  -21.4102  -29.3058   22.3762 N   0  0  0  0  0  0
  -26.4311  -37.3803   23.9399 N   0  0  0  0  0  0
  -24.6584  -31.0887   22.1022 N   0  0  0  0  0  0
  -23.4176  -28.8240   23.3039 O   0  0  0  0  0  0
  -28.4609  -26.8574   20.0288 O   0  0  0  0  0  0
  -26.5594  -34.8935   22.4698 O   0  0  0  0  0  0
  -23.5310  -32.1483   23.7580 O   0  0  0  0  0  0
  -29.8256  -17.4877   21.3853 C   0  0  0  0  0  0
  -30.0968  -16.3203   21.6040 C   0  0  0  0  0  0
  -29.0302  -19.1930   19.7922 C   0  0  0  0  0  0
  -28.8383  -20.5391   19.4408 C   0  0  0  0  0  0
  -29.8591  -19.8747   21.9885 C   0  0  0  0  0  0
  -29.5637  -18.8669   21.0536 C   0  0  0  0  0  0
  -29.1730  -21.5562   20.3552 C   0  0  0  0  0  0
  -29.6451  -21.2225   21.6489 C   0  0  0  0  0  0
  -30.5613  -15.2219   24.2530 C   0  0  0  0  0  0
  -30.6584  -14.5286   23.0997 C   0  0  0  0  0  0
  -30.0183  -23.5828   19.7817 C   0  0  0  0  0  0
  -28.5540  -23.9634   23.5447 C   0  0  0  0  0  0
  -29.9800  -25.0744   19.5223 C   0  0  0  0  0  0
  -28.7609  -22.4518   23.4231 C   0  0  0  0  0  0
  -28.5644  -25.6436   19.3051 C   0  0  0  0  0  0
  -28.9814  -22.8759   19.9855 N   0  0  0  0  0  0
  -30.4025  -15.0203   21.8028 N   0  0  0  0  0  0
  -29.8805  -22.2017   22.5780 O   0  0  0  0  0  0
  -31.4581  -12.3603   19.0796 H   0  0  0  0  0  0
  -30.2991  -11.2433   19.7273 H   0  0  0  0  0  0
  -29.7067  -11.8644   17.3663 H   0  0  0  0  0  0
  -29.6499  -13.5480   17.8093 H   0  0  0  0  0  0
  -27.8063  -11.3324   18.7735 H   0  0  0  0  0  0
  -27.3488  -12.6964   17.7927 H   0  0  0  0  0  0
  -27.7404  -14.2573   19.6336 H   0  0  0  0  0  0
  -28.6501  -11.8661   21.3054 H   0  0  0  0  0  0
  -28.4515  -13.4820   21.8926 H   0  0  0  0  0  0
  -25.2748   -9.5677   22.4759 H   0  0  0  0  0  0
  -24.0002   -7.4614   22.7458 H   0  0  0  0  0  0
  -21.0844   -8.8766   19.8936 H   0  0  0  0  0  0
  -22.3695  -10.9671   19.6180 H   0  0  0  0  0  0
  -21.1995   -7.6162   23.9705 H   0  0  0  0  0  0
  -21.1493   -6.0544   25.9070 H   0  0  0  0  0  0
  -22.0598   -2.7613   23.2853 H   0  0  0  0  0  0
  -22.4174  -11.9873   22.4745 H   0  0  0  0  0  0
  -21.1133  -13.1202   22.2630 H   0  0  0  0  0  0
  -24.6799  -15.8504   20.5355 H   0  0  0  0  0  0
  -26.3064  -15.6210   20.1323 H   0  0  0  0  0  0
  -26.7111  -32.5579   23.1200 H   0  0  0  0  0  0
  -25.0062  -33.9820   25.0501 H   0  0  0  0  0  0
  -22.6801  -31.3131   21.4213 H   0  0  0  0  0  0
  -23.3744  -35.9684   23.3313 H   0  0  0  0  0  0
  -24.3591  -36.8924   22.2041 H   0  0  0  0  0  0
  -23.7269  -37.6555   23.6636 H   0  0  0  0  0  0
  -26.0282  -31.6147   20.5897 H   0  0  0  0  0  0
  -26.8066  -30.9051   21.9776 H   0  0  0  0  0  0
  -28.0901  -29.1631   21.1359 H   0  0  0  0  0  0
  -26.0431  -26.0149   18.9764 H   0  0  0  0  0  0
  -23.9739  -27.2920   19.0516 H   0  0  0  0  0  0
  -23.7049  -30.6073   19.4102 H   0  0  0  0  0  0
  -22.7225  -29.2486   19.8758 H   0  0  0  0  0  0
  -25.1292  -36.2002   25.0824 H   0  0  0  0  0  0
  -20.9955  -28.3229   24.1442 H   0  0  0  0  0  0
  -20.5724  -26.2267   23.3602 H   0  0  0  0  0  0
  -21.6645  -26.7491   22.1174 H   0  0  0  0  0  0
  -19.6905  -25.6300   21.1238 H   0  0  0  0  0  0
  -19.6667  -27.3202   20.6765 H   0  0  0  0  0  0
  -17.4200  -26.6656   21.4037 H   0  0  0  0  0  0
  -18.0326  -26.0062   22.9033 H   0  0  0  0  0  0
  -19.7919  -30.7245   24.2301 H   0  0  0  0  0  0
  -17.5003  -31.6260   24.5167 H   0  0  0  0  0  0
  -15.5340  -30.2998   23.7616 H   0  0  0  0  0  0
  -15.8663  -28.0826   22.7042 H   0  0  0  0  0  0
  -24.5902  -30.7056   25.7800 H   0  0  0  0  0  0
  -24.8915  -32.2862   26.4924 H   0  0  0  0  0  0
  -25.8059  -30.8866   27.0231 H   0  0  0  0  0  0
  -26.2807  -29.6830   24.1115 H   0  0  0  0  0  0
  -27.4035  -29.7255   25.4523 H   0  0  0  0  0  0
  -27.8653  -30.4370   23.9224 H   0  0  0  0  0  0
  -27.2680  -33.3589   26.2117 H   0  0  0  0  0  0
  -28.3827  -32.6885   25.0286 H   0  0  0  0  0  0
  -28.0761  -31.8398   26.5354 H   0  0  0  0  0  0
  -28.2617  -38.0113   24.7492 H   0  0  0  0  0  0
  -28.1066  -36.2635   24.6308 H   0  0  0  0  0  0
  -27.2302  -37.1503   25.8869 H   0  0  0  0  0  0
  -20.9273  -29.8773   21.6972 H   0  0  0  0  0  0
  -26.0199  -38.2891   24.1363 H   0  0  0  0  0  0
  -28.7832  -18.4169   19.0803 H   0  0  0  0  0  0
  -28.4358  -20.7866   18.4683 H   0  0  0  0  0  0
  -30.2463  -19.6187   22.9649 H   0  0  0  0  0  0
  -30.2731  -16.2624   24.2941 H   0  0  0  0  0  0
  -30.7803  -14.7403   25.1959 H   0  0  0  0  0  0
  -30.9517  -13.4858   23.1158 H   0  0  0  0  0  0
  -31.0284  -23.1591   19.8105 H   0  0  0  0  0  0
  -27.7157  -24.1878   24.2035 H   0  0  0  0  0  0
  -28.3347  -24.4097   22.5748 H   0  0  0  0  0  0
  -29.4406  -24.4555   23.9443 H   0  0  0  0  0  0
  -30.6205  -25.3107   18.6711 H   0  0  0  0  0  0
  -30.4407  -25.5574   20.3846 H   0  0  0  0  0  0
  -27.8416  -21.9939   23.0458 H   0  0  0  0  0  0
  -28.9484  -22.0127   24.4027 H   0  0  0  0  0  0
  -27.7860  -24.9754   19.6706 H   0  0  0  0  0  0
  -28.3841  -25.8042   18.2404 H   0  0  0  0  0  0
  1 25  1  0  0  0
  1 30  2  0  0  0
  1 87  1  0  0  0
  2  3  1  0  0  0
  2 25  1  0  0  0
  2 89  1  0  0  0
  2 90  1  0  0  0
  3  4  1  0  0  0
  3 91  1  0  0  0
  3 92  1  0  0  0
  4  5  1  0  0  0
  4 93  1  0  0  0
  4 94  1  0  0  0
  5  6  1  0  0  0
  5 26  1  0  0  0
  5 95  1  0  0  0
  6 25  1  0  0  0
  6 96  1  0  0  0
  6 97  1  0  0  0
  7  8  2  0  0  0
  7 26  1  0  0  0
  7 29  1  0  0  0
  8  9  1  0  0  0
  8 22  1  0  0  0
  9 10  1  0  0  0
  9 27  2  0  0  0
 10 11  2  0  0  0
 10 15  1  0  0  0
 11 12  1  0  0  0
 11 98  1  0  0  0
 12 13  2  0  0  0
 12 99  1  0  0  0
 13 14  1  0  0  0
 13 31  1  0  0  0
 14 15  2  0  0  0
 14100  1  0  0  0
 15101  1  0  0  0
 16 17  2  0  0  0
 16 21  1  0  0  0
 16 31  1  0  0  0
 17 18  1  0  0  0
 17102  1  0  0  0
 18 19  2  0  0  0
 18103  1  0  0  0
 19 20  1  0  0  0
 19 24  1  0  0  0
 20 21  2  0  0  0
 20104  1  0  0  0
 21 23  1  0  0  0
 22 28  1  0  0  0
 22 32  2  0  0  0
 26 27  1  0  0  0
 28105  1  0  0  0
 28106  1  0  0  0
 29107  1  0  0  0
 29108  1  0  0  0
 33 34  1  0  0  0
 33 66  1  0  0  0
 33 70  2  0  0  0
 34 36  1  0  0  0
 34 59  1  0  0  0
 34109  1  0  0  0
 35 44  2  0  0  0
 35 45  1  0  0  0
 35 68  1  0  0  0
 36 56  1  0  0  0
 36110  1  0  0  0
 37 39  1  0  0  0
 37 47  1  0  0  0
 37 66  1  0  0  0
 37111  1  0  0  0
 38 43  2  0  0  0
 38 46  1  0  0  0
 38 47  1  0  0  0
 39 64  1  0  0  0
 39 67  2  0  0  0
 40 52  1  0  0  0
 40 53  2  0  0  0
 40 58  1  0  0  0
 41112  1  0  0  0
 41113  1  0  0  0
 41114  1  0  0  0
 41 48  1  0  0  0
 42 43  1  0  0  0
 42 66  1  0  0  0
 42115  1  0  0  0
 42116  1  0  0  0
 43 44  1  0  0  0
 44117  1  0  0  0
 45 46  2  0  0  0
 45118  1  0  0  0
 46119  1  0  0  0
 47120  1  0  0  0
 47121  1  0  0  0
 48 56  1  0  0  0
 48 65  1  0  0  0
 48122  1  0  0  0
 49 50  1  0  0  0
 49 53  1  0  0  0
 49 64  1  0  0  0
 49123  1  0  0  0
 50 51  1  0  0  0
 50124  1  0  0  0
 50125  1  0  0  0
 51 52  1  0  0  0
 51126  1  0  0  0
 51127  1  0  0  0
 52128  1  0  0  0
 52129  1  0  0  0
 53 54  1  0  0  0
 54 55  2  0  0  0
 54130  1  0  0  0
 55 57  1  0  0  0
 55131  1  0  0  0
 56 69  2  0  0  0
 57 58  2  0  0  0
 57132  1  0  0  0
 58133  1  0  0  0
 59 60  1  0  0  0
 59 61  1  0  0  0
 59 62  1  0  0  0
 60134  1  0  0  0
 60135  1  0  0  0
 60136  1  0  0  0
 61137  1  0  0  0
 61138  1  0  0  0
 61139  1  0  0  0
 62140  1  0  0  0
 62141  1  0  0  0
 62142  1  0  0  0
 63 65  1  0  0  0
 63143  1  0  0  0
 63144  1  0  0  0
 63145  1  0  0  0
 64146  1  0  0  0
 65147  1  0  0  0
 68 85  1  0  0  0
 71 72  3  0  0  0
 71 76  1  0  0  0
 72 87  1  0  0  0
 73 74  2  0  0  0
 73 76  1  0  0  0
 73148  1  0  0  0
 74 77  1  0  0  0
 74149  1  0  0  0
 75 76  2  0  0  0
 75 78  1  0  0  0
 75150  1  0  0  0
 77 78  2  0  0  0
 77 86  1  0  0  0
 78 88  1  0  0  0
 79 80  2  0  0  0
 79151  1  0  0  0
 79152  1  0  0  0
 80 87  1  0  0  0
 80153  1  0  0  0
 81 83  1  0  0  0
 81 86  2  0  0  0
 81154  1  0  0  0
 82 84  1  0  0  0
 82155  1  0  0  0
 82156  1  0  0  0
 82157  1  0  0  0
 83 85  1  0  0  0
 83158  1  0  0  0
 83159  1  0  0  0
 84 88  1  0  0  0
 84160  1  0  0  0
 84161  1  0  0  0
 85162  1  0  0  0
 85163  1  0  0  0
M  ISO  4   1 100  68 101  85 101  87 100
M  END
> <chiral flag>
0

> <version>
0

> <s_m_source_file>
/data/baiqing/PycharmProjects/Reinvent-master-3.2/result/LINK_invent/BTK/process_docking_weight1_custom_product_contain_oxygen_bond_distance_aromatic_linkinvent_7_9_3/rearranged_h_0115.sdf

> <i_m_source_file_index>
57

> <r_mmod_Potential_Energy-OPLS-2005>
92.2080230712891

> <r_mmod_Stretch_Energy-OPLS-2005>
32.3328742980957

> <r_mmod_Bend_Energy-OPLS-2005>
93.3593673706055

> <r_mmod_Torsional_Energy-OPLS-2005>
329.356140136719

> <r_mmod_Improper_Torsional_Energy-OPLS-2005>
2.47071242332458

> <r_mmod_Van_der_Waal_Energy-OPLS-2005>
176.306182861328

> <r_mmod_Electrostatic_Energy-OPLS-2005>
-352.069000244141

> <r_mmod_Solvation_Energy-OPLS-2005>
-199.046722412109

> <b_mmod_Minimization_Converged-OPLS-2005>
0

> <r_mmod_RMS_Derivative-OPLS-2005>
2.99014019966125

$$$$
57
                    3D
 Structure written by MMmdl.
156164  0  0  1  0            999 V2000
  -30.5182  -14.9613   20.4913 C   0  0  0  0  0  0
  -30.4519  -12.6151   19.4895 C   0  0  0  0  0  0
  -29.5232  -12.5539   18.2495 C   0  0  0  0  0  0
  -28.0524  -12.3361   18.6585 C   0  0  0  0  0  0
  -27.6353  -13.2400   19.8458 C   0  0  2  0  0  0
  -28.6773  -13.1811   20.9751 C   0  0  0  0  0  0
  -25.2489  -13.8191   20.5709 C   0  0  0  0  0  0
  -24.1787  -13.0439   20.9212 C   0  0  0  0  0  0
  -24.6384  -11.6918   20.8744 C   0  0  0  0  0  0
  -23.9064  -10.4293   21.0409 C   0  0  0  0  0  0
  -24.3616   -9.4203   21.9183 C   0  0  0  0  0  0
  -23.6294   -8.2239   22.0752 C   0  0  0  0  0  0
  -22.4279   -8.0271   21.3545 C   0  0  0  0  0  0
  -21.9905   -9.0246   20.4655 C   0  0  0  0  0  0
  -22.7236  -10.2126   20.3065 C   0  0  0  0  0  0
  -21.6853   -6.0730   22.5277 C   0  0  0  0  0  0
  -21.4012   -6.5632   23.8205 C   0  0  0  0  0  0
  -21.3668   -5.6785   24.9169 C   0  0  0  0  0  0
  -21.6047   -4.3050   24.7217 C   0  0  0  0  0  0
  -21.8818   -3.8139   23.4337 C   0  0  0  0  0  0
  -21.9186   -4.6958   22.3397 C   0  0  0  0  0  0
  -22.7809  -13.5218   21.1878 C   0  0  0  0  0  0
  -22.1659   -4.2142   21.0976 F   0  0  0  0  0  0
  -21.5636   -3.4537   25.7732 F   0  0  0  0  0  0
  -29.9485  -13.6783   20.4150 N   0  0  0  0  0  0
  -26.2905  -12.9412   20.3239 N   0  0  0  0  0  0
  -25.9312  -11.6550   20.5716 N   0  0  0  0  0  0
  -22.0453  -12.8232   22.0453 N   0  0  0  0  0  0
  -25.4150  -15.1925   20.4191 N   0  0  0  0  0  0
  -31.6705  -15.0764   20.0554 O   0  0  0  0  0  0
  -21.6640   -6.8877   21.4245 O   0  0  0  0  0  0
  -22.3491  -14.5516   20.6707 O   0  0  0  0  0  0
  -24.6441  -31.8413   23.1855 C   0  0  0  0  0  0
  -25.9208  -32.4676   23.8255 C   0  0  1  0  0  0
  -27.2297  -27.1289   20.1504 C   0  0  0  0  0  0
  -25.5951  -33.8487   24.2168 N   0  0  0  0  0  0
  -23.4489  -30.4578   21.5310 C   0  0  2  0  0  0
  -24.8998  -28.8779   20.1134 C   0  0  0  0  0  0
  -22.7563  -29.4533   22.4862 C   0  0  0  0  0  0
  -18.0298  -28.1393   22.8470 C   0  0  0  0  0  0
  -24.1490  -36.7237   23.2642 C   0  0  0  0  0  0
  -26.0048  -30.7124   21.3861 C   0  0  0  0  0  0
  -26.0772  -29.3225   20.7272 C   0  0  0  0  0  0
  -27.2425  -28.4658   20.7241 C   0  0  0  0  0  0
  -26.0218  -26.7810   19.5085 C   0  0  0  0  0  0
  -24.8849  -27.6202   19.4898 C   0  0  0  0  0  0
  -23.6757  -29.7802   20.1534 C   0  0  0  0  0  0
  -25.4125  -36.3015   24.0309 C   0  0  1  0  0  0
  -20.5912  -28.3715   23.1229 C   0  0  2  0  0  0
  -20.6782  -26.9420   22.5395 C   0  0  0  0  0  0
  -19.5759  -26.6380   21.5201 C   0  0  0  0  0  0
  -18.1941  -26.7927   22.1615 C   0  0  0  0  0  0
  -19.1559  -28.8875   23.2838 C   0  0  0  0  0  0
  -18.9475  -30.1475   23.8862 C   0  0  0  0  0  0
  -17.6473  -30.6594   24.0555 C   0  0  0  0  0  0
  -25.9080  -34.9393   23.5049 C   0  0  0  0  0  0
  -16.5362  -29.9085   23.6342 C   0  0  0  0  0  0
  -16.7285  -28.6503   23.0361 C   0  0  0  0  0  0
  -26.4526  -31.6559   25.0710 C   0  0  0  0  0  0
  -25.3710  -31.3761   26.1407 C   0  0  0  0  0  0
  -27.0400  -30.2945   24.6327 C   0  0  0  0  0  0
  -27.6052  -32.4336   25.7496 C   0  0  0  0  0  0
  -27.5568  -37.1773   24.8466 C   0  0  0  0  0  0
  -21.4256  -29.3036   22.3599 N   0  0  0  0  0  0
  -26.4283  -37.3733   23.9408 N   0  0  0  0  0  0
  -24.7189  -31.0265   22.0885 N   0  0  0  0  0  0
  -23.4192  -28.8091   23.3035 O   0  0  0  0  0  0
  -28.3021  -26.1614   20.2021 O   0  0  0  0  0  0
  -26.5672  -34.8897   22.4631 O   0  0  0  0  0  0
  -23.5558  -32.1294   23.7067 O   0  0  0  0  0  0
  -30.8839  -18.3728   20.1347 C   0  0  0  0  0  0
  -29.7611  -17.6044   20.5553 C   0  0  0  0  0  0
  -30.8695  -19.8280   19.9984 C   0  0  0  0  0  0
  -29.6951  -20.6354   20.2771 C   0  0  0  0  0  0
  -28.6287  -18.4981   20.7111 C   0  0  0  0  0  0
  -29.8412  -22.2476   20.2934 C   0  0  0  0  0  0
  -29.3644  -23.6006   20.2658 C   0  0  0  0  0  0
  -29.3415  -15.9554   22.3577 C   0  0  0  0  0  0
  -33.1591  -19.7860   19.2018 C   0  0  0  0  0  0
  -28.0900  -24.6110   20.1194 C   0  0  0  0  0  0
  -28.5840  -19.8863   20.5799 N   0  0  0  0  0  0
  -27.3931  -17.9667   21.0400 N   0  0  0  0  0  0
  -29.7895  -16.1067   20.9636 N   0  0  0  0  0  0
  -32.0127  -20.5159   19.6304 O   0  0  0  0  0  0
  -31.4765  -12.8047   19.1680 H   0  0  0  0  0  0
  -30.4857  -11.6476   19.9940 H   0  0  0  0  0  0
  -29.8436  -11.7571   17.5768 H   0  0  0  0  0  0
  -29.6095  -13.4835   17.6837 H   0  0  0  0  0  0
  -27.9414  -11.2877   18.9398 H   0  0  0  0  0  0
  -27.3910  -12.4957   17.8055 H   0  0  0  0  0  0
  -27.6197  -14.2619   19.4650 H   0  0  0  0  0  0
  -28.7842  -12.1573   21.3374 H   0  0  0  0  0  0
  -28.3295  -13.7344   21.8379 H   0  0  0  0  0  0
  -25.2761   -9.5670   22.4761 H   0  0  0  0  0  0
  -23.9997   -7.4620   22.7464 H   0  0  0  0  0  0
  -21.0834   -8.8776   19.8962 H   0  0  0  0  0  0
  -22.3695  -10.9670   19.6175 H   0  0  0  0  0  0
  -21.2008   -7.6140   23.9713 H   0  0  0  0  0  0
  -21.1500   -6.0514   25.9075 H   0  0  0  0  0  0
  -22.0590   -2.7602   23.2836 H   0  0  0  0  0  0
  -22.4077  -11.9923   22.4888 H   0  0  0  0  0  0
  -21.1072  -13.1269   22.2652 H   0  0  0  0  0  0
  -24.6393  -15.8384   20.5205 H   0  0  0  0  0  0
  -26.2628  -15.6482   20.1050 H   0  0  0  0  0  0
  -26.7272  -32.5272   23.0983 H   0  0  0  0  0  0
  -25.0070  -33.9606   25.0293 H   0  0  0  0  0  0
  -22.7517  -31.2830   21.3725 H   0  0  0  0  0  0
  -23.3761  -35.9561   23.3298 H   0  0  0  0  0  0
  -24.3569  -36.8878   22.2058 H   0  0  0  0  0  0
  -23.7244  -37.6426   23.6692 H   0  0  0  0  0  0
  -26.1663  -31.4688   20.6176 H   0  0  0  0  0  0
  -26.8719  -30.7581   22.0325 H   0  0  0  0  0  0
  -28.1428  -28.8065   21.2158 H   0  0  0  0  0  0
  -25.9312  -25.8195   19.0266 H   0  0  0  0  0  0
  -23.9852  -27.2728   19.0015 H   0  0  0  0  0  0
  -23.8098  -30.5506   19.3931 H   0  0  0  0  0  0
  -22.7923  -29.2179   19.8471 H   0  0  0  0  0  0
  -25.1320  -36.1827   25.0802 H   0  0  0  0  0  0
  -20.9997  -28.3307   24.1354 H   0  0  0  0  0  0
  -20.5656  -26.2337   23.3615 H   0  0  0  0  0  0
  -21.6651  -26.7415   22.1206 H   0  0  0  0  0  0
  -19.6922  -25.6285   21.1250 H   0  0  0  0  0  0
  -19.6700  -27.3175   20.6719 H   0  0  0  0  0  0
  -17.4204  -26.6658   21.4031 H   0  0  0  0  0  0
  -18.0354  -26.0084   22.9025 H   0  0  0  0  0  0
  -19.7958  -30.7296   24.2210 H   0  0  0  0  0  0
  -17.5035  -31.6273   24.5159 H   0  0  0  0  0  0
  -15.5365  -30.2974   23.7702 H   0  0  0  0  0  0
  -15.8679  -28.0816   22.7094 H   0  0  0  0  0  0
  -24.5894  -30.7105   25.7728 H   0  0  0  0  0  0
  -24.8901  -32.2952   26.4768 H   0  0  0  0  0  0
  -25.7995  -30.8974   27.0223 H   0  0  0  0  0  0
  -26.3032  -29.6660   24.1315 H   0  0  0  0  0  0
  -27.3968  -29.7260   25.4927 H   0  0  0  0  0  0
  -27.8959  -30.4166   23.9686 H   0  0  0  0  0  0
  -27.2639  -33.3656   26.2016 H   0  0  0  0  0  0
  -28.3896  -32.6866   25.0349 H   0  0  0  0  0  0
  -28.0690  -31.8502   26.5462 H   0  0  0  0  0  0
  -28.2581  -38.0069   24.7505 H   0  0  0  0  0  0
  -28.1064  -36.2599   24.6307 H   0  0  0  0  0  0
  -27.2281  -37.1433   25.8866 H   0  0  0  0  0  0
  -20.9471  -29.8732   21.6759 H   0  0  0  0  0  0
  -26.0138  -38.2794   24.1420 H   0  0  0  0  0  0
  -31.7974  -17.8216   19.9824 H   0  0  0  0  0  0
  -30.9024  -22.3854   20.4370 H   0  0  0  0  0  0
  -30.2081  -24.2690   20.3688 H   0  0  0  0  0  0
  -28.2633  -15.8125   22.4205 H   0  0  0  0  0  0
  -29.5814  -16.8456   22.9414 H   0  0  0  0  0  0
  -29.8237  -15.1287   22.8848 H   0  0  0  0  0  0
  -32.9317  -19.1488   18.3457 H   0  0  0  0  0  0
  -33.5802  -19.1771   20.0032 H   0  0  0  0  0  0
  -33.9361  -20.4835   18.8895 H   0  0  0  0  0  0
  -27.3575  -24.3269   20.8751 H   0  0  0  0  0  0
  -27.6376  -24.3816   19.1557 H   0  0  0  0  0  0
  -26.6900  -18.6054   21.3877 H   0  0  0  0  0  0
  -27.3892  -17.0601   21.4864 H   0  0  0  0  0  0
  1 25  1  0  0  0
  1 30  2  0  0  0
  1 83  1  0  0  0
  2  3  1  0  0  0
  2 25  1  0  0  0
  2 85  1  0  0  0
  2 86  1  0  0  0
  3  4  1  0  0  0
  3 87  1  0  0  0
  3 88  1  0  0  0
  4  5  1  0  0  0
  4 89  1  0  0  0
  4 90  1  0  0  0
  5  6  1  0  0  0
  5 26  1  0  0  0
  5 91  1  0  0  0
  6 25  1  0  0  0
  6 92  1  0  0  0
  6 93  1  0  0  0
  7  8  2  0  0  0
  7 26  1  0  0  0
  7 29  1  0  0  0
  8  9  1  0  0  0
  8 22  1  0  0  0
  9 10  1  0  0  0
  9 27  2  0  0  0
 10 11  2  0  0  0
 10 15  1  0  0  0
 11 12  1  0  0  0
 11 94  1  0  0  0
 12 13  2  0  0  0
 12 95  1  0  0  0
 13 14  1  0  0  0
 13 31  1  0  0  0
 14 15  2  0  0  0
 14 96  1  0  0  0
 15 97  1  0  0  0
 16 17  2  0  0  0
 16 21  1  0  0  0
 16 31  1  0  0  0
 17 18  1  0  0  0
 17 98  1  0  0  0
 18 19  2  0  0  0
 18 99  1  0  0  0
 19 20  1  0  0  0
 19 24  1  0  0  0
 20 21  2  0  0  0
 20100  1  0  0  0
 21 23  1  0  0  0
 22 28  1  0  0  0
 22 32  2  0  0  0
 26 27  1  0  0  0
 28101  1  0  0  0
 28102  1  0  0  0
 29103  1  0  0  0
 29104  1  0  0  0
 33 34  1  0  0  0
 33 66  1  0  0  0
 33 70  2  0  0  0
 34 36  1  0  0  0
 34 59  1  0  0  0
 34105  1  0  0  0
 35 44  2  0  0  0
 35 45  1  0  0  0
 35 68  1  0  0  0
 36 56  1  0  0  0
 36106  1  0  0  0
 37 39  1  0  0  0
 37 47  1  0  0  0
 37 66  1  0  0  0
 37107  1  0  0  0
 38 43  2  0  0  0
 38 46  1  0  0  0
 38 47  1  0  0  0
 39 64  1  0  0  0
 39 67  2  0  0  0
 40 52  1  0  0  0
 40 53  2  0  0  0
 40 58  1  0  0  0
 41108  1  0  0  0
 41109  1  0  0  0
 41110  1  0  0  0
 41 48  1  0  0  0
 42 43  1  0  0  0
 42 66  1  0  0  0
 42111  1  0  0  0
 42112  1  0  0  0
 43 44  1  0  0  0
 44113  1  0  0  0
 45 46  2  0  0  0
 45114  1  0  0  0
 46115  1  0  0  0
 47116  1  0  0  0
 47117  1  0  0  0
 48 56  1  0  0  0
 48 65  1  0  0  0
 48118  1  0  0  0
 49 50  1  0  0  0
 49 53  1  0  0  0
 49 64  1  0  0  0
 49119  1  0  0  0
 50 51  1  0  0  0
 50120  1  0  0  0
 50121  1  0  0  0
 51 52  1  0  0  0
 51122  1  0  0  0
 51123  1  0  0  0
 52124  1  0  0  0
 52125  1  0  0  0
 53 54  1  0  0  0
 54 55  2  0  0  0
 54126  1  0  0  0
 55 57  1  0  0  0
 55127  1  0  0  0
 56 69  2  0  0  0
 57 58  2  0  0  0
 57128  1  0  0  0
 58129  1  0  0  0
 59 60  1  0  0  0
 59 61  1  0  0  0
 59 62  1  0  0  0
 60130  1  0  0  0
 60131  1  0  0  0
 60132  1  0  0  0
 61133  1  0  0  0
 61134  1  0  0  0
 61135  1  0  0  0
 62136  1  0  0  0
 62137  1  0  0  0
 62138  1  0  0  0
 63 65  1  0  0  0
 63139  1  0  0  0
 63140  1  0  0  0
 63141  1  0  0  0
 64142  1  0  0  0
 65143  1  0  0  0
 68 80  1  0  0  0
 71 72  2  0  0  0
 71 73  1  0  0  0
 71144  1  0  0  0
 72 75  1  0  0  0
 72 83  1  0  0  0
 73 74  2  0  0  0
 73 84  1  0  0  0
 74 76  1  0  0  0
 74 81  1  0  0  0
 75 81  2  0  0  0
 75 82  1  0  0  0
 76 77  2  0  0  0
 76145  1  0  0  0
 77 80  1  0  0  0
 77146  1  0  0  0
 78 83  1  0  0  0
 78147  1  0  0  0
 78148  1  0  0  0
 78149  1  0  0  0
 79 84  1  0  0  0
 79150  1  0  0  0
 79151  1  0  0  0
 79152  1  0  0  0
 80153  1  0  0  0
 80154  1  0  0  0
 82155  1  0  0  0
 82156  1  0  0  0
M  ISO  4   1 100  68 101  80 101  83 100
M  END
> <chiral flag>
0

> <version>
0

> <s_m_source_file>
/data/baiqing/PycharmProjects/Reinvent-master-3.2/result/LINK_invent/BTK/process_docking_weight1_custom_product_contain_oxygen_bond_distance_aromatic_linkinvent_7_9_3/rearranged_h_0115.sdf

> <i_m_source_file_index>
58

> <r_mmod_Potential_Energy-OPLS-2005>
525.216918945312

> <r_mmod_Stretch_Energy-OPLS-2005>
259.4189453125

> <r_mmod_Bend_Energy-OPLS-2005>
394.940277099609

> <r_mmod_Torsional_Energy-OPLS-2005>
308.514587402344

> <r_mmod_Improper_Torsional_Energy-OPLS-2005>
7.93787050247192

> <r_mmod_Van_der_Waal_Energy-OPLS-2005>
154.715179443359

> <r_mmod_Electrostatic_Energy-OPLS-2005>
-586.990173339844

> <r_mmod_Solvation_Energy-OPLS-2005>
-204.882141113281

> <b_mmod_Minimization_Converged-OPLS-2005>
0

> <r_mmod_RMS_Derivative-OPLS-2005>
1.6096396446228

$$$$
58
                    3D
 Structure written by MMmdl.
151159  0  0  1  0            999 V2000
  -30.5905  -15.0846   20.4183 C   0  0  0  0  0  0
  -30.4172  -12.7138   19.4778 C   0  0  0  0  0  0
  -29.4934  -12.5605   18.2482 C   0  0  0  0  0  0
  -28.0445  -12.3118   18.6964 C   0  0  0  0  0  0
  -27.6183  -13.2616   19.8458 C   0  0  2  0  0  0
  -28.6810  -13.3335   20.9654 C   0  0  0  0  0  0
  -25.2299  -13.8129   20.5536 C   0  0  0  0  0  0
  -24.1686  -13.0368   20.9207 C   0  0  0  0  0  0
  -24.6384  -11.6892   20.8826 C   0  0  0  0  0  0
  -23.9067  -10.4261   21.0434 C   0  0  0  0  0  0
  -24.3621   -9.4176   21.9196 C   0  0  0  0  0  0
  -23.6292   -8.2213   22.0749 C   0  0  0  0  0  0
  -22.4274   -8.0261   21.3534 C   0  0  0  0  0  0
  -21.9913   -9.0231   20.4634 C   0  0  0  0  0  0
  -22.7252  -10.2111   20.3057 C   0  0  0  0  0  0
  -21.6866   -6.0710   22.5259 C   0  0  0  0  0  0
  -21.4017   -6.5620   23.8192 C   0  0  0  0  0  0
  -21.3654   -5.6785   24.9155 C   0  0  0  0  0  0
  -21.6058   -4.3046   24.7229 C   0  0  0  0  0  0
  -21.8822   -3.8132   23.4348 C   0  0  0  0  0  0
  -21.9194   -4.6934   22.3401 C   0  0  0  0  0  0
  -22.7713  -13.5141   21.1859 C   0  0  0  0  0  0
  -22.1659   -4.2118   21.0979 F   0  0  0  0  0  0
  -21.5641   -3.4539   25.7745 F   0  0  0  0  0  0
  -29.8981  -13.8550   20.3198 N   0  0  0  0  0  0
  -26.2839  -12.9460   20.3397 N   0  0  0  0  0  0
  -25.9355  -11.6583   20.5952 N   0  0  0  0  0  0
  -22.0411  -12.8141   22.0467 N   0  0  0  0  0  0
  -25.3745  -15.1765   20.3465 N   0  0  0  0  0  0
  -31.8049  -14.9613   20.2238 O   0  0  0  0  0  0
  -21.6643   -6.8850   21.4229 O   0  0  0  0  0  0
  -22.3384  -14.5446   20.6719 O   0  0  0  0  0  0
  -24.6525  -31.8348   23.1778 C   0  0  0  0  0  0
  -25.9259  -32.4634   23.8218 C   0  0  1  0  0  0
  -27.2161  -27.0348   20.2002 C   0  0  0  0  0  0
  -25.5967  -33.8450   24.2133 N   0  0  0  0  0  0
  -23.4628  -30.4494   21.5241 C   0  0  2  0  0  0
  -24.9116  -28.8417   20.1278 C   0  0  0  0  0  0
  -22.7619  -29.4509   22.4814 C   0  0  0  0  0  0
  -18.0331  -28.1392   22.8510 C   0  0  0  0  0  0
  -24.1494  -36.7226   23.2653 C   0  0  0  0  0  0
  -26.0236  -30.6757   21.3911 C   0  0  0  0  0  0
  -26.0930  -29.2723   20.7467 C   0  0  0  0  0  0
  -27.2475  -28.3893   20.7554 C   0  0  0  0  0  0
  -26.0082  -26.7168   19.5481 C   0  0  0  0  0  0
  -24.8861  -27.5789   19.5118 C   0  0  0  0  0  0
  -23.6981  -29.7636   20.1513 C   0  0  0  0  0  0
  -25.4132  -36.2996   24.0305 C   0  0  1  0  0  0
  -20.5952  -28.3739   23.1220 C   0  0  2  0  0  0
  -20.6792  -26.9426   22.5404 C   0  0  0  0  0  0
  -19.5754  -26.6405   21.5208 C   0  0  0  0  0  0
  -18.1945  -26.7956   22.1608 C   0  0  0  0  0  0
  -19.1598  -28.8882   23.2853 C   0  0  0  0  0  0
  -18.9524  -30.1488   23.8865 C   0  0  0  0  0  0
  -17.6525  -30.6613   24.0564 C   0  0  0  0  0  0
  -25.9091  -34.9372   23.5036 C   0  0  0  0  0  0
  -16.5403  -29.9116   23.6328 C   0  0  0  0  0  0
  -16.7319  -28.6518   23.0380 C   0  0  0  0  0  0
  -26.4542  -31.6545   25.0708 C   0  0  0  0  0  0
  -25.3700  -31.3756   26.1381 C   0  0  0  0  0  0
  -27.0438  -30.2930   24.6358 C   0  0  0  0  0  0
  -27.6060  -32.4340   25.7498 C   0  0  0  0  0  0
  -27.5566  -37.1783   24.8475 C   0  0  0  0  0  0
  -21.4290  -29.3096   22.3598 N   0  0  0  0  0  0
  -26.4281  -37.3720   23.9412 N   0  0  0  0  0  0
  -24.7334  -31.0110   22.0861 N   0  0  0  0  0  0
  -23.4209  -28.8041   23.2996 O   0  0  0  0  0  0
  -28.2785  -26.0354   20.1640 O   0  0  0  0  0  0
  -26.5683  -34.8891   22.4626 O   0  0  0  0  0  0
  -23.5624  -32.1268   23.6938 O   0  0  0  0  0  0
  -27.9183  -16.8339   21.2405 C   0  0  0  0  0  0
  -27.0479  -17.9110   21.5245 C   0  0  0  0  0  0
  -29.0497  -17.3874   20.7117 C   0  0  0  0  0  0
  -28.4832  -21.6881   19.8443 C   0  0  0  0  0  0
  -28.1210  -23.0986   19.9188 C   0  0  0  0  0  0
  -25.7286  -17.8774   22.2359 C   0  0  0  0  0  0
  -29.3742  -20.3838   20.4404 C   0  0  0  0  0  0
  -28.2619  -24.5461   20.7460 C   0  0  0  0  0  0
  -27.5287  -19.0703   21.1425 N   0  0  0  0  0  0
  -28.7788  -18.9002   20.6573 N   0  0  0  0  0  0
  -30.1496  -16.4817   20.4480 N   0  0  0  0  0  0
  -31.4373  -12.8725   19.1251 H   0  0  0  0  0  0
  -30.4577  -11.7812   20.0423 H   0  0  0  0  0  0
  -29.8365  -11.7438   17.6111 H   0  0  0  0  0  0
  -29.5398  -13.4668   17.6410 H   0  0  0  0  0  0
  -27.9820  -11.2789   19.0418 H   0  0  0  0  0  0
  -27.3575  -12.3887   17.8517 H   0  0  0  0  0  0
  -27.5636  -14.2537   19.3943 H   0  0  0  0  0  0
  -28.8397  -12.3406   21.3908 H   0  0  0  0  0  0
  -28.3864  -13.9429   21.8126 H   0  0  0  0  0  0
  -25.2761   -9.5668   22.4777 H   0  0  0  0  0  0
  -23.9990   -7.4619   22.7480 H   0  0  0  0  0  0
  -21.0836   -8.8772   19.8947 H   0  0  0  0  0  0
  -22.3710  -10.9651   19.6170 H   0  0  0  0  0  0
  -21.2005   -7.6131   23.9684 H   0  0  0  0  0  0
  -21.1478   -6.0515   25.9055 H   0  0  0  0  0  0
  -22.0608   -2.7587   23.2871 H   0  0  0  0  0  0
  -22.4064  -11.9804   22.4819 H   0  0  0  0  0  0
  -21.1029  -13.1129   22.2703 H   0  0  0  0  0  0
  -24.5870  -15.8124   20.3991 H   0  0  0  0  0  0
  -26.2292  -15.6262   20.0430 H   0  0  0  0  0  0
  -26.7332  -32.5196   23.0946 H   0  0  0  0  0  0
  -25.0046  -33.9535   25.0232 H   0  0  0  0  0  0
  -22.7719  -31.2777   21.3547 H   0  0  0  0  0  0
  -23.3755  -35.9562   23.3309 H   0  0  0  0  0  0
  -24.3578  -36.8865   22.2070 H   0  0  0  0  0  0
  -23.7248  -37.6419   23.6692 H   0  0  0  0  0  0
  -26.1905  -31.4160   20.6057 H   0  0  0  0  0  0
  -26.8911  -30.7351   22.0377 H   0  0  0  0  0  0
  -28.1527  -28.7205   21.2460 H   0  0  0  0  0  0
  -25.9202  -25.7503   19.0723 H   0  0  0  0  0  0
  -23.9863  -27.2404   19.0167 H   0  0  0  0  0  0
  -23.8532  -30.5285   19.3900 H   0  0  0  0  0  0
  -22.8103  -29.2120   19.8370 H   0  0  0  0  0  0
  -25.1339  -36.1809   25.0793 H   0  0  0  0  0  0
  -21.0038  -28.3342   24.1337 H   0  0  0  0  0  0
  -20.5694  -26.2338   23.3607 H   0  0  0  0  0  0
  -21.6641  -26.7404   22.1173 H   0  0  0  0  0  0
  -19.6881  -25.6321   21.1221 H   0  0  0  0  0  0
  -19.6731  -27.3187   20.6721 H   0  0  0  0  0  0
  -17.4201  -26.6738   21.4016 H   0  0  0  0  0  0
  -18.0321  -26.0097   22.8987 H   0  0  0  0  0  0
  -19.8011  -30.7299   24.2205 H   0  0  0  0  0  0
  -17.5071  -31.6297   24.5154 H   0  0  0  0  0  0
  -15.5410  -30.3011   23.7655 H   0  0  0  0  0  0
  -15.8716  -28.0815   22.7130 H   0  0  0  0  0  0
  -24.5879  -30.7110   25.7681 H   0  0  0  0  0  0
  -24.8882  -32.2941   26.4736 H   0  0  0  0  0  0
  -25.7953  -30.8955   27.0204 H   0  0  0  0  0  0
  -26.3084  -29.6613   24.1348 H   0  0  0  0  0  0
  -27.4009  -29.7270   25.4974 H   0  0  0  0  0  0
  -27.9003  -30.4161   23.9734 H   0  0  0  0  0  0
  -27.2643  -33.3667   26.2001 H   0  0  0  0  0  0
  -28.3898  -32.6862   25.0346 H   0  0  0  0  0  0
  -28.0689  -31.8514   26.5469 H   0  0  0  0  0  0
  -28.2607  -38.0059   24.7494 H   0  0  0  0  0  0
  -28.1042  -36.2589   24.6341 H   0  0  0  0  0  0
  -27.2286  -37.1480   25.8881 H   0  0  0  0  0  0
  -20.9521  -29.8869   21.6829 H   0  0  0  0  0  0
  -26.0132  -38.2789   24.1397 H   0  0  0  0  0  0
  -27.7243  -15.8084   21.4799 H   0  0  0  0  0  0
  -27.9649  -21.2621   18.9969 H   0  0  0  0  0  0
  -27.4098  -23.3140   19.1337 H   0  0  0  0  0  0
  -25.8314  -18.2703   23.2474 H   0  0  0  0  0  0
  -24.9791  -18.4764   21.7192 H   0  0  0  0  0  0
  -25.3473  -16.8622   22.3291 H   0  0  0  0  0  0
  -29.8083  -20.6959   21.3910 H   0  0  0  0  0  0
  -30.2205  -20.2665   19.7619 H   0  0  0  0  0  0
  -29.1574  -24.4481   21.3582 H   0  0  0  0  0  0
  -27.4458  -24.5376   21.4679 H   0  0  0  0  0  0
  -30.9870  -17.0260   20.3100 H   0  0  0  0  0  0
  1 25  1  0  0  0
  1 30  2  0  0  0
  1 81  1  0  0  0
  2  3  1  0  0  0
  2 25  1  0  0  0
  2 82  1  0  0  0
  2 83  1  0  0  0
  3  4  1  0  0  0
  3 84  1  0  0  0
  3 85  1  0  0  0
  4  5  1  0  0  0
  4 86  1  0  0  0
  4 87  1  0  0  0
  5  6  1  0  0  0
  5 26  1  0  0  0
  5 88  1  0  0  0
  6 25  1  0  0  0
  6 89  1  0  0  0
  6 90  1  0  0  0
  7  8  2  0  0  0
  7 26  1  0  0  0
  7 29  1  0  0  0
  8  9  1  0  0  0
  8 22  1  0  0  0
  9 10  1  0  0  0
  9 27  2  0  0  0
 10 11  2  0  0  0
 10 15  1  0  0  0
 11 12  1  0  0  0
 11 91  1  0  0  0
 12 13  2  0  0  0
 12 92  1  0  0  0
 13 14  1  0  0  0
 13 31  1  0  0  0
 14 15  2  0  0  0
 14 93  1  0  0  0
 15 94  1  0  0  0
 16 17  2  0  0  0
 16 21  1  0  0  0
 16 31  1  0  0  0
 17 18  1  0  0  0
 17 95  1  0  0  0
 18 19  2  0  0  0
 18 96  1  0  0  0
 19 20  1  0  0  0
 19 24  1  0  0  0
 20 21  2  0  0  0
 20 97  1  0  0  0
 21 23  1  0  0  0
 22 28  1  0  0  0
 22 32  2  0  0  0
 26 27  1  0  0  0
 28 98  1  0  0  0
 28 99  1  0  0  0
 29100  1  0  0  0
 29101  1  0  0  0
 33 34  1  0  0  0
 33 66  1  0  0  0
 33 70  2  0  0  0
 34 36  1  0  0  0
 34 59  1  0  0  0
 34102  1  0  0  0
 35 44  2  0  0  0
 35 45  1  0  0  0
 35 68  1  0  0  0
 36 56  1  0  0  0
 36103  1  0  0  0
 37 39  1  0  0  0
 37 47  1  0  0  0
 37 66  1  0  0  0
 37104  1  0  0  0
 38 43  2  0  0  0
 38 46  1  0  0  0
 38 47  1  0  0  0
 39 64  1  0  0  0
 39 67  2  0  0  0
 40 52  1  0  0  0
 40 53  2  0  0  0
 40 58  1  0  0  0
 41105  1  0  0  0
 41106  1  0  0  0
 41107  1  0  0  0
 41 48  1  0  0  0
 42 43  1  0  0  0
 42 66  1  0  0  0
 42108  1  0  0  0
 42109  1  0  0  0
 43 44  1  0  0  0
 44110  1  0  0  0
 45 46  2  0  0  0
 45111  1  0  0  0
 46112  1  0  0  0
 47113  1  0  0  0
 47114  1  0  0  0
 48 56  1  0  0  0
 48 65  1  0  0  0
 48115  1  0  0  0
 49 50  1  0  0  0
 49 53  1  0  0  0
 49 64  1  0  0  0
 49116  1  0  0  0
 50 51  1  0  0  0
 50117  1  0  0  0
 50118  1  0  0  0
 51 52  1  0  0  0
 51119  1  0  0  0
 51120  1  0  0  0
 52121  1  0  0  0
 52122  1  0  0  0
 53 54  1  0  0  0
 54 55  2  0  0  0
 54123  1  0  0  0
 55 57  1  0  0  0
 55124  1  0  0  0
 56 69  2  0  0  0
 57 58  2  0  0  0
 57125  1  0  0  0
 58126  1  0  0  0
 59 60  1  0  0  0
 59 61  1  0  0  0
 59 62  1  0  0  0
 60127  1  0  0  0
 60128  1  0  0  0
 60129  1  0  0  0
 61130  1  0  0  0
 61131  1  0  0  0
 61132  1  0  0  0
 62133  1  0  0  0
 62134  1  0  0  0
 62135  1  0  0  0
 63 65  1  0  0  0
 63136  1  0  0  0
 63137  1  0  0  0
 63138  1  0  0  0
 64139  1  0  0  0
 65140  1  0  0  0
 68 78  1  0  0  0
 71 72  1  0  0  0
 71 73  2  0  0  0
 71141  1  0  0  0
 72 76  1  0  0  0
 72 79  2  0  0  0
 73 80  1  0  0  0
 73 81  1  0  0  0
 74 75  2  0  0  0
 74 77  1  0  0  0
 74142  1  0  0  0
 75 78  1  0  0  0
 75143  1  0  0  0
 76144  1  0  0  0
 76145  1  0  0  0
 76146  1  0  0  0
 77 80  1  0  0  0
 77147  1  0  0  0
 77148  1  0  0  0
 78149  1  0  0  0
 78150  1  0  0  0
 79 80  1  0  0  0
 81151  1  0  0  0
M  ISO  4   1 100  68 101  78 101  81 100
M  END
> <chiral flag>
0

> <version>
0

> <s_m_source_file>
/data/baiqing/PycharmProjects/Reinvent-master-3.2/result/LINK_invent/BTK/process_docking_weight1_custom_product_contain_oxygen_bond_distance_aromatic_linkinvent_7_9_3/rearranged_h_0115.sdf

> <i_m_source_file_index>
59

> <r_mmod_Potential_Energy-OPLS-2005>
956.253723144531

> <r_mmod_Stretch_Energy-OPLS-2005>
378.836944580078

> <r_mmod_Bend_Energy-OPLS-2005>
562.174865722656

> <r_mmod_Torsional_Energy-OPLS-2005>
243.725982666016

> <r_mmod_Improper_Torsional_Energy-OPLS-2005>
8.02911758422852

> <r_mmod_Van_der_Waal_Energy-OPLS-2005>
111.854469299316

> <r_mmod_Electrostatic_Energy-OPLS-2005>
-431.716522216797

> <r_mmod_Solvation_Energy-OPLS-2005>
-199.940277099609

> <b_mmod_Minimization_Converged-OPLS-2005>
0

> <r_mmod_RMS_Derivative-OPLS-2005>
3.28482055664062

$$$$
59
                    3D
 Structure written by MMmdl.
162170  0  0  1  0            999 V2000
  -30.6841  -14.5918   20.6216 C   0  0  0  0  0  0
  -30.4290  -12.3962   19.4640 C   0  0  0  0  0  0
  -29.5060  -12.5380   18.2327 C   0  0  0  0  0  0
  -28.0282  -12.3676   18.6318 C   0  0  0  0  0  0
  -27.6558  -13.2177   19.8733 C   0  0  2  0  0  0
  -28.6879  -13.0327   21.0059 C   0  0  0  0  0  0
  -25.2549  -13.8159   20.5693 C   0  0  0  0  0  0
  -24.1817  -13.0442   20.9172 C   0  0  0  0  0  0
  -24.6379  -11.6903   20.8728 C   0  0  0  0  0  0
  -23.9064  -10.4293   21.0416 C   0  0  0  0  0  0
  -24.3621   -9.4199   21.9196 C   0  0  0  0  0  0
  -23.6300   -8.2239   22.0746 C   0  0  0  0  0  0
  -22.4282   -8.0285   21.3541 C   0  0  0  0  0  0
  -21.9913   -9.0256   20.4644 C   0  0  0  0  0  0
  -22.7234  -10.2146   20.3059 C   0  0  0  0  0  0
  -21.6841   -6.0738   22.5276 C   0  0  0  0  0  0
  -21.4019   -6.5643   23.8211 C   0  0  0  0  0  0
  -21.3657   -5.6791   24.9174 C   0  0  0  0  0  0
  -21.6043   -4.3055   24.7224 C   0  0  0  0  0  0
  -21.8817   -3.8145   23.4343 C   0  0  0  0  0  0
  -21.9197   -4.6964   22.3401 C   0  0  0  0  0  0
  -22.7843  -13.5228   21.1857 C   0  0  0  0  0  0
  -22.1660   -4.2150   21.0977 F   0  0  0  0  0  0
  -21.5630   -3.4539   25.7736 F   0  0  0  0  0  0
  -30.0190  -13.3924   20.4823 N   0  0  0  0  0  0
  -26.2986  -12.9358   20.3326 N   0  0  0  0  0  0
  -25.9307  -11.6513   20.5737 N   0  0  0  0  0  0
  -22.0499  -12.8226   22.0431 N   0  0  0  0  0  0
  -25.4278  -15.1886   20.4112 N   0  0  0  0  0  0
  -31.7422  -14.7991   20.0165 O   0  0  0  0  0  0
  -21.6635   -6.8892   21.4245 O   0  0  0  0  0  0
  -22.3511  -14.5533   20.6695 O   0  0  0  0  0  0
  -24.6290  -31.8613   23.2097 C   0  0  0  0  0  0
  -25.9136  -32.4755   23.8397 C   0  0  1  0  0  0
  -27.2061  -27.3019   20.1033 C   0  0  0  0  0  0
  -25.5996  -33.8565   24.2317 N   0  0  0  0  0  0
  -23.4213  -30.4903   21.5546 C   0  0  2  0  0  0
  -24.8610  -28.9569   20.1096 C   0  0  0  0  0  0
  -22.7464  -29.4655   22.4981 C   0  0  0  0  0  0
  -18.0297  -28.1365   22.8472 C   0  0  0  0  0  0
  -24.1482  -36.7262   23.2655 C   0  0  0  0  0  0
  -25.9680  -30.7861   21.3879 C   0  0  0  0  0  0
  -26.0355  -29.4189   20.7133 C   0  0  0  0  0  0
  -27.2127  -28.6059   20.6964 C   0  0  0  0  0  0
  -25.9921  -26.8987   19.4967 C   0  0  0  0  0  0
  -24.8425  -27.7033   19.4912 C   0  0  0  0  0  0
  -23.6321  -29.8401   20.1645 C   0  0  0  0  0  0
  -25.4104  -36.3049   24.0336 C   0  0  1  0  0  0
  -20.5889  -28.3680   23.1255 C   0  0  2  0  0  0
  -20.6791  -26.9416   22.5371 C   0  0  0  0  0  0
  -19.5757  -26.6381   21.5173 C   0  0  0  0  0  0
  -18.1951  -26.7933   22.1600 C   0  0  0  0  0  0
  -19.1544  -28.8834   23.2862 C   0  0  0  0  0  0
  -18.9474  -30.1438   23.8870 C   0  0  0  0  0  0
  -17.6474  -30.6584   24.0520 C   0  0  0  0  0  0
  -25.9044  -34.9423   23.5094 C   0  0  0  0  0  0
  -16.5368  -29.9046   23.6350 C   0  0  0  0  0  0
  -16.7282  -28.6461   23.0372 C   0  0  0  0  0  0
  -26.4545  -31.6592   25.0769 C   0  0  0  0  0  0
  -25.3784  -31.3698   26.1502 C   0  0  0  0  0  0
  -27.0437  -30.3010   24.6300 C   0  0  0  0  0  0
  -27.6109  -32.4392   25.7453 C   0  0  0  0  0  0
  -27.5581  -37.1755   24.8473 C   0  0  0  0  0  0
  -21.4186  -29.3065   22.3685 N   0  0  0  0  0  0
  -26.4290  -37.3751   23.9411 N   0  0  0  0  0  0
  -24.6916  -31.0597   22.1064 N   0  0  0  0  0  0
  -23.4190  -28.8220   23.3088 O   0  0  0  0  0  0
  -28.3178  -26.4323   20.1451 O   0  0  0  0  0  0
  -26.5564  -34.8885   22.4631 O   0  0  0  0  0  0
  -23.5451  -32.1437   23.7402 O   0  0  0  0  0  0
  -30.9797  -17.8620   20.5372 C   0  0  0  0  0  0
  -28.7631  -19.3695   21.3074 C   0  0  0  0  0  0
  -29.9459  -17.1551   21.2037 C   0  0  0  0  0  0
  -28.8053  -17.9565   21.5784 C   0  0  0  0  0  0
  -30.9348  -19.2635   20.2903 C   0  0  0  0  0  0
  -29.8284  -20.0653   20.6781 C   0  0  0  0  0  0
  -26.8001  -17.9755   23.1322 C   0  0  0  0  0  0
  -27.6731  -17.3479   22.3242 C   0  0  0  0  0  0
  -30.1420  -15.6735   21.6271 C   0  0  0  0  0  0
  -32.1317  -19.9170   19.6239 C   0  0  0  0  0  0
  -28.2168  -24.8858   18.2518 C   0  0  0  0  0  0
  -29.1336  -23.9168   20.4290 C   0  0  0  0  0  0
  -28.7676  -22.3581   20.3196 C   0  0  0  0  0  0
  -28.1424  -24.9928   19.7921 C   0  0  1  0  0  0
  -29.9238  -15.3452   22.8350 N   0  0  0  0  0  0
  -29.9120  -21.4637   20.4976 O   0  0  0  0  0  0
  -31.4720  -12.5104   19.1632 H   0  0  0  0  0  0
  -30.3555  -11.3896   19.8800 H   0  0  0  0  0  0
  -29.7740  -11.8038   17.4710 H   0  0  0  0  0  0
  -29.6517  -13.5205   17.7803 H   0  0  0  0  0  0
  -27.8592  -11.3110   18.8428 H   0  0  0  0  0  0
  -27.3766  -12.6160   17.7935 H   0  0  0  0  0  0
  -27.6896  -14.2632   19.5642 H   0  0  0  0  0  0
  -28.6947  -11.9951   21.3405 H   0  0  0  0  0  0
  -28.3794  -13.6060   21.8770 H   0  0  0  0  0  0
  -25.2783   -9.5667   22.4760 H   0  0  0  0  0  0
  -24.0003   -7.4626   22.7458 H   0  0  0  0  0  0
  -21.0836   -8.8773   19.8965 H   0  0  0  0  0  0
  -22.3688  -10.9682   19.6158 H   0  0  0  0  0  0
  -21.2005   -7.6152   23.9712 H   0  0  0  0  0  0
  -21.1484   -6.0528   25.9076 H   0  0  0  0  0  0
  -22.0604   -2.7610   23.2838 H   0  0  0  0  0  0
  -22.4134  -11.9878   22.4803 H   0  0  0  0  0  0
  -21.1124  -13.1249   22.2675 H   0  0  0  0  0  0
  -24.6735  -15.8523   20.5436 H   0  0  0  0  0  0
  -26.2875  -15.6282   20.1096 H   0  0  0  0  0  0
  -26.7217  -32.5369   23.1153 H   0  0  0  0  0  0
  -25.0213  -33.9713   25.0513 H   0  0  0  0  0  0
  -22.7183  -31.3149   21.4203 H   0  0  0  0  0  0
  -23.3754  -35.9593   23.3310 H   0  0  0  0  0  0
  -24.3586  -36.8881   22.2081 H   0  0  0  0  0  0
  -23.7234  -37.6451   23.6679 H   0  0  0  0  0  0
  -26.1194  -31.5646   20.6390 H   0  0  0  0  0  0
  -26.8367  -30.8128   22.0333 H   0  0  0  0  0  0
  -28.1124  -28.9528   21.1796 H   0  0  0  0  0  0
  -25.8751  -25.9375   19.0252 H   0  0  0  0  0  0
  -23.9384  -27.3441   19.0206 H   0  0  0  0  0  0
  -23.7460  -30.6179   19.4094 H   0  0  0  0  0  0
  -22.7476  -29.2753   19.8629 H   0  0  0  0  0  0
  -25.1280  -36.1911   25.0833 H   0  0  0  0  0  0
  -20.9928  -28.3250   24.1391 H   0  0  0  0  0  0
  -20.5730  -26.2277   23.3567 H   0  0  0  0  0  0
  -21.6650  -26.7519   22.1131 H   0  0  0  0  0  0
  -19.6901  -25.6280   21.1218 H   0  0  0  0  0  0
  -19.6647  -27.3137   20.6657 H   0  0  0  0  0  0
  -17.4213  -26.6662   21.4014 H   0  0  0  0  0  0
  -18.0361  -26.0086   22.8995 H   0  0  0  0  0  0
  -19.7957  -30.7236   24.2243 H   0  0  0  0  0  0
  -17.5051  -31.6277   24.5082 H   0  0  0  0  0  0
  -15.5361  -30.2923   23.7708 H   0  0  0  0  0  0
  -15.8698  -28.0734   22.7144 H   0  0  0  0  0  0
  -24.6094  -30.6847   25.7918 H   0  0  0  0  0  0
  -24.8790  -32.2811   26.4789 H   0  0  0  0  0  0
  -25.8181  -30.9075   27.0355 H   0  0  0  0  0  0
  -26.3032  -29.6654   24.1428 H   0  0  0  0  0  0
  -27.4243  -29.7365   25.4836 H   0  0  0  0  0  0
  -27.8864  -30.4309   23.9496 H   0  0  0  0  0  0
  -27.2746  -33.3747   26.1932 H   0  0  0  0  0  0
  -28.3889  -32.6896   25.0219 H   0  0  0  0  0  0
  -28.0841  -31.8621   26.5403 H   0  0  0  0  0  0
  -28.2603  -38.0055   24.7534 H   0  0  0  0  0  0
  -28.1070  -36.2580   24.6280 H   0  0  0  0  0  0
  -27.2301  -37.1396   25.8883 H   0  0  0  0  0  0
  -20.9408  -29.8734   21.6819 H   0  0  0  0  0  0
  -26.0159  -38.2811   24.1458 H   0  0  0  0  0  0
  -31.8734  -17.3261   20.2555 H   0  0  0  0  0  0
  -27.9056  -19.9424   21.6241 H   0  0  0  0  0  0
  -26.0109  -17.4103   23.6103 H   0  0  0  0  0  0
  -26.8418  -19.0348   23.3454 H   0  0  0  0  0  0
  -27.5170  -16.2848   22.1926 H   0  0  0  0  0  0
  -32.7519  -19.1815   19.1104 H   0  0  0  0  0  0
  -32.7496  -20.4191   20.3699 H   0  0  0  0  0  0
  -31.8115  -20.6571   18.8891 H   0  0  0  0  0  0
  -27.8944  -23.9064   17.8945 H   0  0  0  0  0  0
  -29.2350  -25.0382   17.9007 H   0  0  0  0  0  0
  -27.6033  -25.6301   17.7467 H   0  0  0  0  0  0
  -30.1157  -24.0733   19.9815 H   0  0  0  0  0  0
  -29.2637  -24.1414   21.4877 H   0  0  0  0  0  0
  -28.3530  -22.1444   19.3346 H   0  0  0  0  0  0
  -27.9749  -22.1265   21.0301 H   0  0  0  0  0  0
  -27.1611  -24.6755   20.1426 H   0  0  0  0  0  0
  -29.6176  -16.1471   23.3741 H   0  0  0  0  0  0
  1 25  1  0  0  0
  1 30  2  0  0  0
  1 79  1  0  0  0
  2  3  1  0  0  0
  2 25  1  0  0  0
  2 87  1  0  0  0
  2 88  1  0  0  0
  3  4  1  0  0  0
  3 89  1  0  0  0
  3 90  1  0  0  0
  4  5  1  0  0  0
  4 91  1  0  0  0
  4 92  1  0  0  0
  5  6  1  0  0  0
  5 26  1  0  0  0
  5 93  1  0  0  0
  6 25  1  0  0  0
  6 94  1  0  0  0
  6 95  1  0  0  0
  7  8  2  0  0  0
  7 26  1  0  0  0
  7 29  1  0  0  0
  8  9  1  0  0  0
  8 22  1  0  0  0
  9 10  1  0  0  0
  9 27  2  0  0  0
 10 11  2  0  0  0
 10 15  1  0  0  0
 11 12  1  0  0  0
 11 96  1  0  0  0
 12 13  2  0  0  0
 12 97  1  0  0  0
 13 14  1  0  0  0
 13 31  1  0  0  0
 14 15  2  0  0  0
 14 98  1  0  0  0
 15 99  1  0  0  0
 16 17  2  0  0  0
 16 21  1  0  0  0
 16 31  1  0  0  0
 17 18  1  0  0  0
 17100  1  0  0  0
 18 19  2  0  0  0
 18101  1  0  0  0
 19 20  1  0  0  0
 19 24  1  0  0  0
 20 21  2  0  0  0
 20102  1  0  0  0
 21 23  1  0  0  0
 22 28  1  0  0  0
 22 32  2  0  0  0
 26 27  1  0  0  0
 28103  1  0  0  0
 28104  1  0  0  0
 29105  1  0  0  0
 29106  1  0  0  0
 33 34  1  0  0  0
 33 66  1  0  0  0
 33 70  2  0  0  0
 34 36  1  0  0  0
 34 59  1  0  0  0
 34107  1  0  0  0
 35 44  2  0  0  0
 35 45  1  0  0  0
 35 68  1  0  0  0
 36 56  1  0  0  0
 36108  1  0  0  0
 37 39  1  0  0  0
 37 47  1  0  0  0
 37 66  1  0  0  0
 37109  1  0  0  0
 38 43  2  0  0  0
 38 46  1  0  0  0
 38 47  1  0  0  0
 39 64  1  0  0  0
 39 67  2  0  0  0
 40 52  1  0  0  0
 40 53  2  0  0  0
 40 58  1  0  0  0
 41110  1  0  0  0
 41111  1  0  0  0
 41112  1  0  0  0
 41 48  1  0  0  0
 42 43  1  0  0  0
 42 66  1  0  0  0
 42113  1  0  0  0
 42114  1  0  0  0
 43 44  1  0  0  0
 44115  1  0  0  0
 45 46  2  0  0  0
 45116  1  0  0  0
 46117  1  0  0  0
 47118  1  0  0  0
 47119  1  0  0  0
 48 56  1  0  0  0
 48 65  1  0  0  0
 48120  1  0  0  0
 49 50  1  0  0  0
 49 53  1  0  0  0
 49 64  1  0  0  0
 49121  1  0  0  0
 50 51  1  0  0  0
 50122  1  0  0  0
 50123  1  0  0  0
 51 52  1  0  0  0
 51124  1  0  0  0
 51125  1  0  0  0
 52126  1  0  0  0
 52127  1  0  0  0
 53 54  1  0  0  0
 54 55  2  0  0  0
 54128  1  0  0  0
 55 57  1  0  0  0
 55129  1  0  0  0
 56 69  2  0  0  0
 57 58  2  0  0  0
 57130  1  0  0  0
 58131  1  0  0  0
 59 60  1  0  0  0
 59 61  1  0  0  0
 59 62  1  0  0  0
 60132  1  0  0  0
 60133  1  0  0  0
 60134  1  0  0  0
 61135  1  0  0  0
 61136  1  0  0  0
 61137  1  0  0  0
 62138  1  0  0  0
 62139  1  0  0  0
 62140  1  0  0  0
 63 65  1  0  0  0
 63141  1  0  0  0
 63142  1  0  0  0
 63143  1  0  0  0
 64144  1  0  0  0
 65145  1  0  0  0
 68 84  1  0  0  0
 71 73  2  0  0  0
 71 75  1  0  0  0
 71146  1  0  0  0
 72 74  2  0  0  0
 72 76  1  0  0  0
 72147  1  0  0  0
 73 74  1  0  0  0
 73 79  1  0  0  0
 74 78  1  0  0  0
 75 76  2  0  0  0
 75 80  1  0  0  0
 76 86  1  0  0  0
 77 78  2  0  0  0
 77148  1  0  0  0
 77149  1  0  0  0
 78150  1  0  0  0
 79 85  2  0  0  0
 80151  1  0  0  0
 80152  1  0  0  0
 80153  1  0  0  0
 81154  1  0  0  0
 81155  1  0  0  0
 81156  1  0  0  0
 81 84  1  0  0  0
 82 83  1  0  0  0
 82 84  1  0  0  0
 82157  1  0  0  0
 82158  1  0  0  0
 83 86  1  0  0  0
 83159  1  0  0  0
 83160  1  0  0  0
 84161  1  0  0  0
 85162  1  0  0  0
M  ISO  4   1 100  68 101  79 100  84 101
M  END
> <chiral flag>
0

> <version>
0

> <s_m_source_file>
/data/baiqing/PycharmProjects/Reinvent-master-3.2/result/LINK_invent/BTK/process_docking_weight1_custom_product_contain_oxygen_bond_distance_aromatic_linkinvent_7_9_3/rearranged_h_0115.sdf

> <i_m_source_file_index>
60

> <r_mmod_Potential_Energy-OPLS-2005>
256.183044433594

> <r_mmod_Stretch_Energy-OPLS-2005>
99.8305816650391

> <r_mmod_Bend_Energy-OPLS-2005>
158.291931152344

> <r_mmod_Torsional_Energy-OPLS-2005>
220.24739074707

> <r_mmod_Improper_Torsional_Energy-OPLS-2005>
3.56761646270752

> <r_mmod_Van_der_Waal_Energy-OPLS-2005>
158.694396972656

> <r_mmod_Electrostatic_Energy-OPLS-2005>
-239.999694824219

> <r_mmod_Solvation_Energy-OPLS-2005>
-189.388854980469

> <b_mmod_Minimization_Converged-OPLS-2005>
0

> <r_mmod_RMS_Derivative-OPLS-2005>
3.95085167884827

$$$$
60
                    3D
 Structure written by MMmdl.
152160  0  0  1  0            999 V2000
  -30.6302  -14.7150   20.3593 C   0  0  0  0  0  0
  -30.4360  -12.4106   19.4531 C   0  0  0  0  0  0
  -29.5008  -12.4371   18.2234 C   0  0  0  0  0  0
  -28.0250  -12.2746   18.6475 C   0  0  0  0  0  0
  -27.6253  -13.1862   19.8375 C   0  0  2  0  0  0
  -28.6915  -13.1819   20.9553 C   0  0  0  0  0  0
  -25.2529  -13.8054   20.5757 C   0  0  0  0  0  0
  -24.1776  -13.0370   20.9261 C   0  0  0  0  0  0
  -24.6314  -11.6831   20.8816 C   0  0  0  0  0  0
  -23.8989  -10.4244   21.0457 C   0  0  0  0  0  0
  -24.3563   -9.4164   21.9219 C   0  0  0  0  0  0
  -23.6251   -8.2198   22.0766 C   0  0  0  0  0  0
  -22.4239   -8.0245   21.3547 C   0  0  0  0  0  0
  -21.9864   -9.0220   20.4656 C   0  0  0  0  0  0
  -22.7180  -10.2103   20.3083 C   0  0  0  0  0  0
  -21.6835   -6.0712   22.5282 C   0  0  0  0  0  0
  -21.4002   -6.5627   23.8212 C   0  0  0  0  0  0
  -21.3653   -5.6787   24.9179 C   0  0  0  0  0  0
  -21.6045   -4.3051   24.7237 C   0  0  0  0  0  0
  -21.8819   -3.8134   23.4361 C   0  0  0  0  0  0
  -21.9188   -4.6943   22.3411 C   0  0  0  0  0  0
  -22.7813  -13.5213   21.1884 C   0  0  0  0  0  0
  -22.1661   -4.2126   21.0991 F   0  0  0  0  0  0
  -21.5629   -3.4542   25.7755 F   0  0  0  0  0  0
  -30.0000  -13.4909   20.3569 N   0  0  0  0  0  0
  -26.2873  -12.9131   20.3339 N   0  0  0  0  0  0
  -25.9224  -11.6340   20.5844 N   0  0  0  0  0  0
  -22.0427  -12.8229   22.0432 N   0  0  0  0  0  0
  -25.4299  -15.1775   20.4167 N   0  0  0  0  0  0
  -31.8584  -14.8000   20.2985 O   0  0  0  0  0  0
  -21.6612   -6.8842   21.4237 O   0  0  0  0  0  0
  -22.3535  -14.5525   20.6712 O   0  0  0  0  0  0
  -24.6245  -31.8602   23.2013 C   0  0  0  0  0  0
  -25.9097  -32.4782   23.8342 C   0  0  1  0  0  0
  -27.2347  -27.3263   20.1143 C   0  0  0  0  0  0
  -25.5915  -33.8580   24.2274 N   0  0  0  0  0  0
  -23.4174  -30.4818   21.5440 C   0  0  2  0  0  0
  -24.8643  -28.9328   20.1133 C   0  0  0  0  0  0
  -22.7463  -29.4623   22.4946 C   0  0  0  0  0  0
  -18.0281  -28.1381   22.8489 C   0  0  0  0  0  0
  -24.1489  -36.7295   23.2639 C   0  0  0  0  0  0
  -25.9563  -30.7930   21.3699 C   0  0  0  0  0  0
  -26.0303  -29.4192   20.7148 C   0  0  0  0  0  0
  -27.2132  -28.6265   20.7057 C   0  0  0  0  0  0
  -26.0388  -26.8808   19.5041 C   0  0  0  0  0  0
  -24.8697  -27.6685   19.5024 C   0  0  0  0  0  0
  -23.6314  -29.8120   20.1603 C   0  0  0  0  0  0
  -25.4115  -36.3088   24.0330 C   0  0  1  0  0  0
  -20.5879  -28.3679   23.1293 C   0  0  2  0  0  0
  -20.6773  -26.9404   22.5414 C   0  0  0  0  0  0
  -19.5752  -26.6381   21.5213 C   0  0  0  0  0  0
  -18.1930  -26.7926   22.1622 C   0  0  0  0  0  0
  -19.1534  -28.8846   23.2888 C   0  0  0  0  0  0
  -18.9458  -30.1449   23.8904 C   0  0  0  0  0  0
  -17.6460  -30.6587   24.0560 C   0  0  0  0  0  0
  -25.9048  -34.9456   23.5106 C   0  0  0  0  0  0
  -16.5350  -29.9086   23.6329 C   0  0  0  0  0  0
  -16.7269  -28.6501   23.0354 C   0  0  0  0  0  0
  -26.4486  -31.6593   25.0713 C   0  0  0  0  0  0
  -25.3721  -31.3724   26.1442 C   0  0  0  0  0  0
  -27.0328  -30.3023   24.6154 C   0  0  0  0  0  0
  -27.6052  -32.4321   25.7479 C   0  0  0  0  0  0
  -27.5582  -37.1803   24.8465 C   0  0  0  0  0  0
  -21.4179  -29.3035   22.3689 N   0  0  0  0  0  0
  -26.4295  -37.3782   23.9407 N   0  0  0  0  0  0
  -24.6848  -31.0617   22.0958 N   0  0  0  0  0  0
  -23.4194  -28.8173   23.3029 O   0  0  0  0  0  0
  -28.4001  -26.5465   20.1666 O   0  0  0  0  0  0
  -26.5618  -34.8926   22.4673 O   0  0  0  0  0  0
  -23.5413  -32.1394   23.7353 O   0  0  0  0  0  0
  -29.1513  -17.7655   21.4418 C   0  0  0  0  0  0
  -28.9157  -19.1415   21.7247 C   0  0  0  0  0  0
  -29.8624  -17.3754   20.2812 C   0  0  0  0  0  0
  -29.3779  -20.1596   20.8577 C   0  0  0  0  0  0
  -30.3721  -18.4787   19.5253 C   0  0  0  0  0  0
  -29.0142  -22.5391   20.3600 C   0  0  0  0  0  0
  -29.8075  -15.9296   19.7608 C   0  0  0  0  0  0
  -28.6487  -24.0076   20.8112 C   0  0  0  0  0  0
  -28.4928  -25.1410   19.7092 C   0  0  0  0  0  0
  -30.1398  -19.7994   19.7934 N   0  0  0  0  0  0
  -29.1386  -15.7675   18.6954 N   0  0  0  0  0  0
  -29.0611  -21.5249   21.1724 N   0  0  0  0  0  0
  -31.1234  -18.2993   18.3698 N   0  0  0  0  0  0
  -31.4743  -12.5357   19.1406 H   0  0  0  0  0  0
  -30.3834  -11.4461   19.9606 H   0  0  0  0  0  0
  -29.7741  -11.6400   17.5309 H   0  0  0  0  0  0
  -29.6313  -13.3666   17.6700 H   0  0  0  0  0  0
  -27.8826  -11.2299   18.9261 H   0  0  0  0  0  0
  -27.3654  -12.4525   17.7978 H   0  0  0  0  0  0
  -27.5472  -14.1785   19.4253 H   0  0  0  0  0  0
  -28.7264  -12.2119   21.4529 H   0  0  0  0  0  0
  -28.4407  -13.9160   21.7229 H   0  0  0  0  0  0
  -25.2709   -9.5639   22.4796 H   0  0  0  0  0  0
  -23.9962   -7.4583   22.7478 H   0  0  0  0  0  0
  -21.0797   -8.8735   19.8960 H   0  0  0  0  0  0
  -22.3648  -10.9649   19.6196 H   0  0  0  0  0  0
  -21.1990   -7.6136   23.9706 H   0  0  0  0  0  0
  -21.1476   -6.0525   25.9080 H   0  0  0  0  0  0
  -22.0605   -2.7596   23.2875 H   0  0  0  0  0  0
  -22.4021  -11.9890   22.4836 H   0  0  0  0  0  0
  -21.1054  -13.1286   22.2632 H   0  0  0  0  0  0
  -24.6680  -15.8392   20.5191 H   0  0  0  0  0  0
  -26.2820  -15.6005   20.0692 H   0  0  0  0  0  0
  -26.7166  -32.5459   23.1093 H   0  0  0  0  0  0
  -25.0059  -33.9718   25.0416 H   0  0  0  0  0  0
  -22.7110  -31.3019   21.3995 H   0  0  0  0  0  0
  -23.3757  -35.9623   23.3306 H   0  0  0  0  0  0
  -24.3579  -36.8912   22.2053 H   0  0  0  0  0  0
  -23.7238  -37.6496   23.6658 H   0  0  0  0  0  0
  -26.0842  -31.5560   20.6008 H   0  0  0  0  0  0
  -26.8380  -30.8439   21.9971 H   0  0  0  0  0  0
  -28.1106  -29.0002   21.1787 H   0  0  0  0  0  0
  -25.9637  -25.9153   19.0318 H   0  0  0  0  0  0
  -23.9720  -27.2875   19.0356 H   0  0  0  0  0  0
  -23.7496  -30.5858   19.4010 H   0  0  0  0  0  0
  -22.7522  -29.2387   19.8602 H   0  0  0  0  0  0
  -25.1298  -36.1944   25.0824 H   0  0  0  0  0  0
  -20.9967  -28.3251   24.1416 H   0  0  0  0  0  0
  -20.5679  -26.2283   23.3607 H   0  0  0  0  0  0
  -21.6644  -26.7443   22.1206 H   0  0  0  0  0  0
  -19.6914  -25.6292   21.1242 H   0  0  0  0  0  0
  -19.6699  -27.3192   20.6744 H   0  0  0  0  0  0
  -17.4201  -26.6671   21.4022 H   0  0  0  0  0  0
  -18.0334  -26.0065   22.9016 H   0  0  0  0  0  0
  -19.7934  -30.7258   24.2287 H   0  0  0  0  0  0
  -17.5016  -31.6274   24.5150 H   0  0  0  0  0  0
  -15.5352  -30.2991   23.7653 H   0  0  0  0  0  0
  -15.8666  -28.0821   22.7074 H   0  0  0  0  0  0
  -24.5898  -30.7072   25.7770 H   0  0  0  0  0  0
  -24.8905  -32.2884   26.4873 H   0  0  0  0  0  0
  -25.8046  -30.8898   27.0216 H   0  0  0  0  0  0
  -26.2894  -29.6773   24.1191 H   0  0  0  0  0  0
  -27.4052  -29.7281   25.4650 H   0  0  0  0  0  0
  -27.8753  -30.4324   23.9357 H   0  0  0  0  0  0
  -27.2675  -33.3626   26.2056 H   0  0  0  0  0  0
  -28.3860  -32.6872   25.0301 H   0  0  0  0  0  0
  -28.0722  -31.8443   26.5392 H   0  0  0  0  0  0
  -28.2604  -38.0096   24.7516 H   0  0  0  0  0  0
  -28.1074  -36.2629   24.6292 H   0  0  0  0  0  0
  -27.2296  -37.1455   25.8867 H   0  0  0  0  0  0
  -20.9353  -29.8749   21.6894 H   0  0  0  0  0  0
  -26.0182  -38.2861   24.1407 H   0  0  0  0  0  0
  -28.7064  -17.0133   22.0772 H   0  0  0  0  0  0
  -28.3305  -19.4054   22.5956 H   0  0  0  0  0  0
  -29.2274  -22.4325   19.2929 H   0  0  0  0  0  0
  -29.4187  -24.3254   21.5135 H   0  0  0  0  0  0
  -27.7260  -23.9606   21.3892 H   0  0  0  0  0  0
  -27.7105  -24.8615   19.0092 H   0  0  0  0  0  0
  -29.3989  -25.1143   19.1032 H   0  0  0  0  0  0
  -28.6960  -16.6209   18.3788 H   0  0  0  0  0  0
  -31.2074  -19.0793   17.7300 H   0  0  0  0  0  0
  -31.0977  -17.3924   17.9183 H   0  0  0  0  0  0
  1 25  1  0  0  0
  1 30  2  0  0  0
  1 77  1  0  0  0
  2  3  1  0  0  0
  2 25  1  0  0  0
  2 84  1  0  0  0
  2 85  1  0  0  0
  3  4  1  0  0  0
  3 86  1  0  0  0
  3 87  1  0  0  0
  4  5  1  0  0  0
  4 88  1  0  0  0
  4 89  1  0  0  0
  5  6  1  0  0  0
  5 26  1  0  0  0
  5 90  1  0  0  0
  6 25  1  0  0  0
  6 91  1  0  0  0
  6 92  1  0  0  0
  7  8  2  0  0  0
  7 26  1  0  0  0
  7 29  1  0  0  0
  8  9  1  0  0  0
  8 22  1  0  0  0
  9 10  1  0  0  0
  9 27  2  0  0  0
 10 11  2  0  0  0
 10 15  1  0  0  0
 11 12  1  0  0  0
 11 93  1  0  0  0
 12 13  2  0  0  0
 12 94  1  0  0  0
 13 14  1  0  0  0
 13 31  1  0  0  0
 14 15  2  0  0  0
 14 95  1  0  0  0
 15 96  1  0  0  0
 16 17  2  0  0  0
 16 21  1  0  0  0
 16 31  1  0  0  0
 17 18  1  0  0  0
 17 97  1  0  0  0
 18 19  2  0  0  0
 18 98  1  0  0  0
 19 20  1  0  0  0
 19 24  1  0  0  0
 20 21  2  0  0  0
 20 99  1  0  0  0
 21 23  1  0  0  0
 22 28  1  0  0  0
 22 32  2  0  0  0
 26 27  1  0  0  0
 28100  1  0  0  0
 28101  1  0  0  0
 29102  1  0  0  0
 29103  1  0  0  0
 33 34  1  0  0  0
 33 66  1  0  0  0
 33 70  2  0  0  0
 34 36  1  0  0  0
 34 59  1  0  0  0
 34104  1  0  0  0
 35 44  2  0  0  0
 35 45  1  0  0  0
 35 68  1  0  0  0
 36 56  1  0  0  0
 36105  1  0  0  0
 37 39  1  0  0  0
 37 47  1  0  0  0
 37 66  1  0  0  0
 37106  1  0  0  0
 38 43  2  0  0  0
 38 46  1  0  0  0
 38 47  1  0  0  0
 39 64  1  0  0  0
 39 67  2  0  0  0
 40 52  1  0  0  0
 40 53  2  0  0  0
 40 58  1  0  0  0
 41107  1  0  0  0
 41108  1  0  0  0
 41109  1  0  0  0
 41 48  1  0  0  0
 42 43  1  0  0  0
 42 66  1  0  0  0
 42110  1  0  0  0
 42111  1  0  0  0
 43 44  1  0  0  0
 44112  1  0  0  0
 45 46  2  0  0  0
 45113  1  0  0  0
 46114  1  0  0  0
 47115  1  0  0  0
 47116  1  0  0  0
 48 56  1  0  0  0
 48 65  1  0  0  0
 48117  1  0  0  0
 49 50  1  0  0  0
 49 53  1  0  0  0
 49 64  1  0  0  0
 49118  1  0  0  0
 50 51  1  0  0  0
 50119  1  0  0  0
 50120  1  0  0  0
 51 52  1  0  0  0
 51121  1  0  0  0
 51122  1  0  0  0
 52123  1  0  0  0
 52124  1  0  0  0
 53 54  1  0  0  0
 54 55  2  0  0  0
 54125  1  0  0  0
 55 57  1  0  0  0
 55126  1  0  0  0
 56 69  2  0  0  0
 57 58  2  0  0  0
 57127  1  0  0  0
 58128  1  0  0  0
 59 60  1  0  0  0
 59 61  1  0  0  0
 59 62  1  0  0  0
 60129  1  0  0  0
 60130  1  0  0  0
 60131  1  0  0  0
 61132  1  0  0  0
 61133  1  0  0  0
 61134  1  0  0  0
 62135  1  0  0  0
 62136  1  0  0  0
 62137  1  0  0  0
 63 65  1  0  0  0
 63138  1  0  0  0
 63139  1  0  0  0
 63140  1  0  0  0
 64141  1  0  0  0
 65142  1  0  0  0
 68 79  1  0  0  0
 71 72  2  0  0  0
 71 73  1  0  0  0
 71143  1  0  0  0
 72 74  1  0  0  0
 72144  1  0  0  0
 73 75  2  0  0  0
 73 77  1  0  0  0
 74 80  2  0  0  0
 74 82  1  0  0  0
 75 80  1  0  0  0
 75 83  1  0  0  0
 76 78  1  0  0  0
 76 82  2  0  0  0
 76145  1  0  0  0
 77 81  2  0  0  0
 78 79  1  0  0  0
 78146  1  0  0  0
 78147  1  0  0  0
 79148  1  0  0  0
 79149  1  0  0  0
 81150  1  0  0  0
 83151  1  0  0  0
 83152  1  0  0  0
M  ISO  4   1 100  68 101  77 100  79 101
M  END
> <chiral flag>
0

> <version>
0

> <s_m_source_file>
/data/baiqing/PycharmProjects/Reinvent-master-3.2/result/LINK_invent/BTK/process_docking_weight1_custom_product_contain_oxygen_bond_distance_aromatic_linkinvent_7_9_3/rearranged_h_0115.sdf

> <i_m_source_file_index>
61

> <r_mmod_Potential_Energy-OPLS-2005>
67.9942855834961

> <r_mmod_Stretch_Energy-OPLS-2005>
85.5662994384766

> <r_mmod_Bend_Energy-OPLS-2005>
170.212219238281

> <r_mmod_Torsional_Energy-OPLS-2005>
257.061950683594

> <r_mmod_Improper_Torsional_Energy-OPLS-2005>
26.1791934967041

> <r_mmod_Van_der_Waal_Energy-OPLS-2005>
151.337951660156

> <r_mmod_Electrostatic_Energy-OPLS-2005>
-474.44482421875

> <r_mmod_Solvation_Energy-OPLS-2005>
-221.589996337891

> <b_mmod_Minimization_Converged-OPLS-2005>
0

> <r_mmod_RMS_Derivative-OPLS-2005>
0.499743580818176

$$$$
61
                    3D
 Structure written by MMmdl.
159168  0  0  1  0            999 V2000
  -30.5957  -14.7705   20.4429 C   0  0  0  0  0  0
  -30.4372  -12.4680   19.4727 C   0  0  0  0  0  0
  -29.5108  -12.5019   18.2364 C   0  0  0  0  0  0
  -28.0378  -12.3258   18.6528 C   0  0  0  0  0  0
  -27.6420  -13.2311   19.8493 C   0  0  2  0  0  0
  -28.6890  -13.1725   20.9833 C   0  0  0  0  0  0
  -25.2515  -13.8197   20.5701 C   0  0  0  0  0  0
  -24.1805  -13.0442   20.9212 C   0  0  0  0  0  0
  -24.6396  -11.6922   20.8756 C   0  0  0  0  0  0
  -23.9075  -10.4294   21.0408 C   0  0  0  0  0  0
  -24.3625   -9.4207   21.9184 C   0  0  0  0  0  0
  -23.6295   -8.2244   22.0757 C   0  0  0  0  0  0
  -22.4279   -8.0283   21.3546 C   0  0  0  0  0  0
  -21.9917   -9.0258   20.4648 C   0  0  0  0  0  0
  -22.7249  -10.2133   20.3054 C   0  0  0  0  0  0
  -21.6853   -6.0736   22.5278 C   0  0  0  0  0  0
  -21.4014   -6.5637   23.8207 C   0  0  0  0  0  0
  -21.3654   -5.6790   24.9170 C   0  0  0  0  0  0
  -21.6045   -4.3055   24.7222 C   0  0  0  0  0  0
  -21.8822   -3.8148   23.4344 C   0  0  0  0  0  0
  -21.9196   -4.6963   22.3401 C   0  0  0  0  0  0
  -22.7823  -13.5220   21.1868 C   0  0  0  0  0  0
  -22.1663   -4.2149   21.0978 F   0  0  0  0  0  0
  -21.5628   -3.4538   25.7735 F   0  0  0  0  0  0
  -29.9863  -13.5339   20.3985 N   0  0  0  0  0  0
  -26.2941  -12.9402   20.3283 N   0  0  0  0  0  0
  -25.9326  -11.6545   20.5766 N   0  0  0  0  0  0
  -22.0474  -12.8207   22.0425 N   0  0  0  0  0  0
  -25.4195  -15.1923   20.4101 N   0  0  0  0  0  0
  -31.7891  -14.8655   20.1390 O   0  0  0  0  0  0
  -21.6643   -6.8878   21.4237 O   0  0  0  0  0  0
  -22.3507  -14.5523   20.6710 O   0  0  0  0  0  0
  -24.6328  -31.8530   23.1974 C   0  0  0  0  0  0
  -25.9134  -32.4748   23.8334 C   0  0  1  0  0  0
  -27.2174  -27.2438   20.1353 C   0  0  0  0  0  0
  -25.5908  -33.8545   24.2247 N   0  0  0  0  0  0
  -23.4314  -30.4757   21.5389 C   0  0  2  0  0  0
  -24.8810  -28.9196   20.1097 C   0  0  0  0  0  0
  -22.7511  -29.4590   22.4882 C   0  0  0  0  0  0
  -18.0291  -28.1419   22.8499 C   0  0  0  0  0  0
  -24.1458  -36.7252   23.2646 C   0  0  0  0  0  0
  -25.9793  -30.7601   21.3806 C   0  0  0  0  0  0
  -26.0524  -29.3800   20.7255 C   0  0  0  0  0  0
  -27.2256  -28.5537   20.7286 C   0  0  0  0  0  0
  -26.0272  -26.8600   19.4805 C   0  0  0  0  0  0
  -24.8729  -27.6684   19.4752 C   0  0  0  0  0  0
  -23.6532  -29.8103   20.1551 C   0  0  0  0  0  0
  -25.4096  -36.3051   24.0332 C   0  0  1  0  0  0
  -20.5899  -28.3708   23.1260 C   0  0  2  0  0  0
  -20.6763  -26.9416   22.5406 C   0  0  0  0  0  0
  -19.5729  -26.6400   21.5214 C   0  0  0  0  0  0
  -18.1923  -26.7964   22.1642 C   0  0  0  0  0  0
  -19.1553  -28.8887   23.2877 C   0  0  0  0  0  0
  -18.9475  -30.1492   23.8894 C   0  0  0  0  0  0
  -17.6471  -30.6613   24.0581 C   0  0  0  0  0  0
  -25.9052  -34.9432   23.5100 C   0  0  0  0  0  0
  -16.5359  -29.9109   23.6356 C   0  0  0  0  0  0
  -16.7279  -28.6530   23.0377 C   0  0  0  0  0  0
  -26.4506  -31.6585   25.0728 C   0  0  0  0  0  0
  -25.3725  -31.3725   26.1441 C   0  0  0  0  0  0
  -27.0357  -30.3003   24.6221 C   0  0  0  0  0  0
  -27.6058  -32.4335   25.7504 C   0  0  0  0  0  0
  -27.5562  -37.1778   24.8480 C   0  0  0  0  0  0
  -21.4217  -29.3047   22.3636 N   0  0  0  0  0  0
  -26.4264  -37.3764   23.9434 N   0  0  0  0  0  0
  -24.7005  -31.0482   22.0953 N   0  0  0  0  0  0
  -23.4200  -28.8125   23.2990 O   0  0  0  0  0  0
  -28.2877  -26.3140   20.1659 O   0  0  0  0  0  0
  -26.5637  -34.8913   22.4672 O   0  0  0  0  0  0
  -23.5468  -32.1350   23.7258 O   0  0  0  0  0  0
  -31.1506  -19.3852   20.1210 C   0  0  0  0  0  0
  -31.2234  -17.9426   20.2342 C   0  0  0  0  0  0
  -29.9091  -19.9756   20.2722 C   0  0  0  0  0  0
  -30.0373  -17.2827   20.4806 C   0  0  0  0  0  0
  -28.7904  -23.7944   20.2540 C   0  0  0  0  0  0
  -28.0171  -24.9366   20.4653 C   0  0  0  0  0  0
  -28.2328  -22.1219   22.1181 C   0  0  0  0  0  0
  -30.1404  -23.7707   19.5775 C   0  0  0  0  0  0
  -30.7100  -22.3346   19.7391 C   0  0  0  0  0  0
  -28.4832  -22.2738   20.6024 C   0  0  2  0  0  0
  -27.5944  -20.1989   23.6788 C   0  0  0  0  0  0
  -27.1416  -21.1395   22.5482 C   0  0  0  0  0  0
  -29.6372  -21.4190   20.1449 N   0  0  0  0  0  0
  -29.7927  -15.8967   20.6272 N   0  0  0  0  0  0
  -28.8802  -22.7308   22.9755 O   0  0  0  0  0  0
  -28.7899  -18.5986   20.5769 S   0  0  0  0  0  0
  -31.4754  -12.6022   19.1640 H   0  0  0  0  0  0
  -30.3949  -11.4943   19.9631 H   0  0  0  0  0  0
  -29.7942  -11.7183   17.5318 H   0  0  0  0  0  0
  -29.6341  -13.4489   17.7082 H   0  0  0  0  0  0
  -27.8977  -11.2787   18.9240 H   0  0  0  0  0  0
  -27.3781  -12.5095   17.8037 H   0  0  0  0  0  0
  -27.6332  -14.2500   19.4623 H   0  0  0  0  0  0
  -28.7311  -12.1750   21.4232 H   0  0  0  0  0  0
  -28.4217  -13.8525   21.7933 H   0  0  0  0  0  0
  -25.2768   -9.5677   22.4761 H   0  0  0  0  0  0
  -24.0000   -7.4636   22.7480 H   0  0  0  0  0  0
  -21.0849   -8.8780   19.8954 H   0  0  0  0  0  0
  -22.3712  -10.9671   19.6165 H   0  0  0  0  0  0
  -21.2002   -7.6147   23.9708 H   0  0  0  0  0  0
  -21.1471   -6.0522   25.9070 H   0  0  0  0  0  0
  -22.0606   -2.7611   23.2845 H   0  0  0  0  0  0
  -22.4093  -11.9867   22.4809 H   0  0  0  0  0  0
  -21.1094  -13.1228   22.2637 H   0  0  0  0  0  0
  -24.6481  -15.8418   20.5164 H   0  0  0  0  0  0
  -26.2588  -15.6331   20.0573 H   0  0  0  0  0  0
  -26.7206  -32.5391   23.1082 H   0  0  0  0  0  0
  -25.0014  -33.9685   25.0363 H   0  0  0  0  0  0
  -22.7285  -31.2987   21.3938 H   0  0  0  0  0  0
  -23.3733  -35.9569   23.3312 H   0  0  0  0  0  0
  -24.3537  -36.8868   22.2059 H   0  0  0  0  0  0
  -23.7192  -37.6444   23.6670 H   0  0  0  0  0  0
  -26.1202  -31.5173   20.6082 H   0  0  0  0  0  0
  -26.8554  -30.8114   22.0150 H   0  0  0  0  0  0
  -28.1231  -28.8965   21.2237 H   0  0  0  0  0  0
  -25.9754  -25.9012   18.9845 H   0  0  0  0  0  0
  -23.9782  -27.3163   18.9803 H   0  0  0  0  0  0
  -23.7824  -30.5864   19.3998 H   0  0  0  0  0  0
  -22.7711  -29.2458   19.8472 H   0  0  0  0  0  0
  -25.1276  -36.1893   25.0826 H   0  0  0  0  0  0
  -21.0025  -28.3284   24.1369 H   0  0  0  0  0  0
  -20.5646  -26.2316   23.3614 H   0  0  0  0  0  0
  -21.6629  -26.7420   22.1213 H   0  0  0  0  0  0
  -19.6858  -25.6302   21.1262 H   0  0  0  0  0  0
  -19.6677  -27.3204   20.6743 H   0  0  0  0  0  0
  -17.4188  -26.6738   21.4049 H   0  0  0  0  0  0
  -18.0319  -26.0112   22.9047 H   0  0  0  0  0  0
  -19.7943  -30.7325   24.2256 H   0  0  0  0  0  0
  -17.5022  -31.6294   24.5175 H   0  0  0  0  0  0
  -15.5365  -30.3012   23.7673 H   0  0  0  0  0  0
  -15.8685  -28.0840   22.7103 H   0  0  0  0  0  0
  -24.5924  -30.7048   25.7770 H   0  0  0  0  0  0
  -24.8886  -32.2879   26.4847 H   0  0  0  0  0  0
  -25.8043  -30.8926   27.0228 H   0  0  0  0  0  0
  -26.2937  -29.6744   24.1251 H   0  0  0  0  0  0
  -27.4041  -29.7282   25.4747 H   0  0  0  0  0  0
  -27.8814  -30.4286   23.9460 H   0  0  0  0  0  0
  -27.2674  -33.3657   26.2040 H   0  0  0  0  0  0
  -28.3880  -32.6862   25.0334 H   0  0  0  0  0  0
  -28.0701  -31.8481   26.5449 H   0  0  0  0  0  0
  -28.2594  -38.0068   24.7531 H   0  0  0  0  0  0
  -28.1042  -36.2600   24.6295 H   0  0  0  0  0  0
  -27.2287  -37.1416   25.8887 H   0  0  0  0  0  0
  -20.9407  -29.8753   21.6826 H   0  0  0  0  0  0
  -26.0125  -38.2818   24.1486 H   0  0  0  0  0  0
  -32.0550  -19.9408   19.9200 H   0  0  0  0  0  0
  -32.1759  -17.4449   20.1196 H   0  0  0  0  0  0
  -27.0577  -24.8384   20.9548 H   0  0  0  0  0  0
  -30.8062  -24.5263   19.9952 H   0  0  0  0  0  0
  -29.9975  -24.0020   18.5208 H   0  0  0  0  0  0
  -31.4840  -22.3329   20.5087 H   0  0  0  0  0  0
  -31.1795  -22.0037   18.8109 H   0  0  0  0  0  0
  -27.5883  -21.9758   20.0548 H   0  0  0  0  0  0
  -26.8062  -19.4890   23.9294 H   0  0  0  0  0  0
  -27.8425  -20.7510   24.5872 H   0  0  0  0  0  0
  -28.4747  -19.6235   23.3889 H   0  0  0  0  0  0
  -26.8351  -20.5550   21.6818 H   0  0  0  0  0  0
  -26.2690  -21.7111   22.8654 H   0  0  0  0  0  0
  -28.8330  -15.6620   20.8314 H   0  0  0  0  0  0
  1 25  1  0  0  0
  1 30  2  0  0  0
  1 84  1  0  0  0
  2  3  1  0  0  0
  2 25  1  0  0  0
  2 87  1  0  0  0
  2 88  1  0  0  0
  3  4  1  0  0  0
  3 89  1  0  0  0
  3 90  1  0  0  0
  4  5  1  0  0  0
  4 91  1  0  0  0
  4 92  1  0  0  0
  5  6  1  0  0  0
  5 26  1  0  0  0
  5 93  1  0  0  0
  6 25  1  0  0  0
  6 94  1  0  0  0
  6 95  1  0  0  0
  7  8  2  0  0  0
  7 26  1  0  0  0
  7 29  1  0  0  0
  8  9  1  0  0  0
  8 22  1  0  0  0
  9 10  1  0  0  0
  9 27  2  0  0  0
 10 11  2  0  0  0
 10 15  1  0  0  0
 11 12  1  0  0  0
 11 96  1  0  0  0
 12 13  2  0  0  0
 12 97  1  0  0  0
 13 14  1  0  0  0
 13 31  1  0  0  0
 14 15  2  0  0  0
 14 98  1  0  0  0
 15 99  1  0  0  0
 16 17  2  0  0  0
 16 21  1  0  0  0
 16 31  1  0  0  0
 17 18  1  0  0  0
 17100  1  0  0  0
 18 19  2  0  0  0
 18101  1  0  0  0
 19 20  1  0  0  0
 19 24  1  0  0  0
 20 21  2  0  0  0
 20102  1  0  0  0
 21 23  1  0  0  0
 22 28  1  0  0  0
 22 32  2  0  0  0
 26 27  1  0  0  0
 28103  1  0  0  0
 28104  1  0  0  0
 29105  1  0  0  0
 29106  1  0  0  0
 33 34  1  0  0  0
 33 66  1  0  0  0
 33 70  2  0  0  0
 34 36  1  0  0  0
 34 59  1  0  0  0
 34107  1  0  0  0
 35 44  2  0  0  0
 35 45  1  0  0  0
 35 68  1  0  0  0
 36 56  1  0  0  0
 36108  1  0  0  0
 37 39  1  0  0  0
 37 47  1  0  0  0
 37 66  1  0  0  0
 37109  1  0  0  0
 38 43  2  0  0  0
 38 46  1  0  0  0
 38 47  1  0  0  0
 39 64  1  0  0  0
 39 67  2  0  0  0
 40 52  1  0  0  0
 40 53  2  0  0  0
 40 58  1  0  0  0
 41110  1  0  0  0
 41111  1  0  0  0
 41112  1  0  0  0
 41 48  1  0  0  0
 42 43  1  0  0  0
 42 66  1  0  0  0
 42113  1  0  0  0
 42114  1  0  0  0
 43 44  1  0  0  0
 44115  1  0  0  0
 45 46  2  0  0  0
 45116  1  0  0  0
 46117  1  0  0  0
 47118  1  0  0  0
 47119  1  0  0  0
 48 56  1  0  0  0
 48 65  1  0  0  0
 48120  1  0  0  0
 49 50  1  0  0  0
 49 53  1  0  0  0
 49 64  1  0  0  0
 49121  1  0  0  0
 50 51  1  0  0  0
 50122  1  0  0  0
 50123  1  0  0  0
 51 52  1  0  0  0
 51124  1  0  0  0
 51125  1  0  0  0
 52126  1  0  0  0
 52127  1  0  0  0
 53 54  1  0  0  0
 54 55  2  0  0  0
 54128  1  0  0  0
 55 57  1  0  0  0
 55129  1  0  0  0
 56 69  2  0  0  0
 57 58  2  0  0  0
 57130  1  0  0  0
 58131  1  0  0  0
 59 60  1  0  0  0
 59 61  1  0  0  0
 59 62  1  0  0  0
 60132  1  0  0  0
 60133  1  0  0  0
 60134  1  0  0  0
 61135  1  0  0  0
 61136  1  0  0  0
 61137  1  0  0  0
 62138  1  0  0  0
 62139  1  0  0  0
 62140  1  0  0  0
 63 65  1  0  0  0
 63141  1  0  0  0
 63142  1  0  0  0
 63143  1  0  0  0
 64144  1  0  0  0
 65145  1  0  0  0
 68 76  1  0  0  0
 71 72  1  0  0  0
 71 73  2  0  0  0
 71146  1  0  0  0
 72 74  2  0  0  0
 72147  1  0  0  0
 73 83  1  0  0  0
 73 86  1  0  0  0
 74 84  1  0  0  0
 74 86  1  0  0  0
 75 76  2  0  0  0
 75 78  1  0  0  0
 75 80  1  0  0  0
 76148  1  0  0  0
 77 82  1  0  0  0
 77 85  2  0  0  0
 77 80  1  0  0  0
 78 79  1  0  0  0
 78149  1  0  0  0
 78150  1  0  0  0
 79 83  1  0  0  0
 79151  1  0  0  0
 79152  1  0  0  0
 80 83  1  0  0  0
 80153  1  0  0  0
 81 82  1  0  0  0
 81154  1  0  0  0
 81155  1  0  0  0
 81156  1  0  0  0
 82157  1  0  0  0
 82158  1  0  0  0
 84159  1  0  0  0
M  ISO  4   1 100  68 101  76 101  84 100
M  END
> <chiral flag>
0

> <version>
0

> <s_m_source_file>
/data/baiqing/PycharmProjects/Reinvent-master-3.2/result/LINK_invent/BTK/process_docking_weight1_custom_product_contain_oxygen_bond_distance_aromatic_linkinvent_7_9_3/rearranged_h_0115.sdf

> <i_m_source_file_index>
62

> <r_mmod_Potential_Energy-OPLS-2005>
232.840057373047

> <r_mmod_Stretch_Energy-OPLS-2005>
119.724815368652

> <r_mmod_Bend_Energy-OPLS-2005>
203.126205444336

> <r_mmod_Torsional_Energy-OPLS-2005>
230.665145874023

> <r_mmod_Improper_Torsional_Energy-OPLS-2005>
5.19318056106567

> <r_mmod_Van_der_Waal_Energy-OPLS-2005>
109.150398254395

> <r_mmod_Electrostatic_Energy-OPLS-2005>
-304.033660888672

> <r_mmod_Solvation_Energy-OPLS-2005>
-229.436889648438

> <b_mmod_Minimization_Converged-OPLS-2005>
0

> <r_mmod_RMS_Derivative-OPLS-2005>
1.62190163135529

$$$$
62
                    3D
 Structure written by MMmdl.
157165  0  0  1  0            999 V2000
  -30.5663  -15.0866   20.3874 C   0  0  0  0  0  0
  -30.4212  -12.6837   19.5146 C   0  0  0  0  0  0
  -29.5178  -12.5403   18.2696 C   0  0  0  0  0  0
  -28.0605  -12.3034   18.6967 C   0  0  0  0  0  0
  -27.6153  -13.2692   19.8254 C   0  0  2  0  0  0
  -28.6564  -13.4030   20.9586 C   0  0  0  0  0  0
  -25.2405  -13.8258   20.5755 C   0  0  0  0  0  0
  -24.1748  -13.0449   20.9257 C   0  0  0  0  0  0
  -24.6395  -11.6942   20.8766 C   0  0  0  0  0  0
  -23.9089  -10.4299   21.0405 C   0  0  0  0  0  0
  -24.3635   -9.4212   21.9184 C   0  0  0  0  0  0
  -23.6306   -8.2247   22.0752 C   0  0  0  0  0  0
  -22.4287   -8.0286   21.3544 C   0  0  0  0  0  0
  -21.9927   -9.0261   20.4645 C   0  0  0  0  0  0
  -22.7259  -10.2138   20.3056 C   0  0  0  0  0  0
  -21.6856   -6.0739   22.5278 C   0  0  0  0  0  0
  -21.4016   -6.5641   23.8211 C   0  0  0  0  0  0
  -21.3660   -5.6794   24.9174 C   0  0  0  0  0  0
  -21.6045   -4.3057   24.7223 C   0  0  0  0  0  0
  -21.8819   -3.8148   23.4344 C   0  0  0  0  0  0
  -21.9195   -4.6966   22.3400 C   0  0  0  0  0  0
  -22.7764  -13.5203   21.1900 C   0  0  0  0  0  0
  -22.1663   -4.2152   21.0978 F   0  0  0  0  0  0
  -21.5629   -3.4540   25.7735 F   0  0  0  0  0  0
  -29.9120  -13.8385   20.3324 N   0  0  0  0  0  0
  -26.2832  -12.9525   20.3247 N   0  0  0  0  0  0
  -25.9333  -11.6633   20.5749 N   0  0  0  0  0  0
  -22.0419  -12.8183   22.0448 N   0  0  0  0  0  0
  -25.4059  -15.1990   20.4198 N   0  0  0  0  0  0
  -31.7805  -14.9847   20.1867 O   0  0  0  0  0  0
  -21.6647   -6.8885   21.4241 O   0  0  0  0  0  0
  -22.3443  -14.5506   20.6743 O   0  0  0  0  0  0
  -24.6533  -31.8356   23.1829 C   0  0  0  0  0  0
  -25.9263  -32.4652   23.8247 C   0  0  1  0  0  0
  -27.2069  -27.0378   20.1688 C   0  0  0  0  0  0
  -25.5979  -33.8462   24.2163 N   0  0  0  0  0  0
  -23.4626  -30.4532   21.5299 C   0  0  2  0  0  0
  -24.9156  -28.8712   20.1072 C   0  0  0  0  0  0
  -22.7624  -29.4496   22.4817 C   0  0  0  0  0  0
  -18.0317  -28.1408   22.8471 C   0  0  0  0  0  0
  -24.1490  -36.7228   23.2637 C   0  0  0  0  0  0
  -26.0262  -30.6759   21.4009 C   0  0  0  0  0  0
  -26.0957  -29.2779   20.7449 C   0  0  0  0  0  0
  -27.2407  -28.3761   20.7661 C   0  0  0  0  0  0
  -26.0133  -26.7783   19.4574 C   0  0  0  0  0  0
  -24.8931  -27.6369   19.4450 C   0  0  0  0  0  0
  -23.6964  -29.7837   20.1499 C   0  0  0  0  0  0
  -25.4126  -36.3006   24.0311 C   0  0  1  0  0  0
  -20.5937  -28.3742   23.1208 C   0  0  2  0  0  0
  -20.6793  -26.9433   22.5395 C   0  0  0  0  0  0
  -19.5766  -26.6383   21.5207 C   0  0  0  0  0  0
  -18.1953  -26.7943   22.1625 C   0  0  0  0  0  0
  -19.1577  -28.8895   23.2833 C   0  0  0  0  0  0
  -18.9487  -30.1484   23.8866 C   0  0  0  0  0  0
  -17.6479  -30.6599   24.0556 C   0  0  0  0  0  0
  -25.9086  -34.9385   23.5051 C   0  0  0  0  0  0
  -16.5372  -29.9083   23.6340 C   0  0  0  0  0  0
  -16.7301  -28.6505   23.0360 C   0  0  0  0  0  0
  -26.4557  -31.6546   25.0720 C   0  0  0  0  0  0
  -25.3715  -31.3757   26.1395 C   0  0  0  0  0  0
  -27.0430  -30.2924   24.6363 C   0  0  0  0  0  0
  -27.6080  -32.4319   25.7512 C   0  0  0  0  0  0
  -27.5580  -37.1765   24.8469 C   0  0  0  0  0  0
  -21.4305  -29.3047   22.3566 N   0  0  0  0  0  0
  -26.4286  -37.3727   23.9419 N   0  0  0  0  0  0
  -24.7343  -31.0117   22.0920 N   0  0  0  0  0  0
  -23.4219  -28.8045   23.3007 O   0  0  0  0  0  0
  -28.1634  -25.9235   20.2426 O   0  0  0  0  0  0
  -26.5674  -34.8896   22.4630 O   0  0  0  0  0  0
  -23.5625  -32.1282   23.6981 O   0  0  0  0  0  0
  -31.3175  -20.0385   20.0648 C   0  0  0  0  0  0
  -31.8525  -17.8799   20.0822 C   0  0  0  0  0  0
  -30.1249  -19.4001   20.2950 C   0  0  0  0  0  0
  -30.4919  -17.8686   20.3005 C   0  0  0  0  0  0
  -34.6113  -21.5130   18.4799 C   0  0  0  0  0  0
  -28.9876  -20.5609   20.4599 C   0  0  0  0  0  0
  -29.0146  -22.0168   20.3368 C   0  0  0  0  0  0
  -33.9601  -20.3390   18.4944 C   0  0  0  0  0  0
  -27.6499  -24.5561   20.5475 C   0  0  0  0  0  0
  -27.8985  -23.1144   20.5955 C   0  0  0  0  0  0
  -26.6495  -22.3787   21.0874 C   0  0  0  0  0  0
  -33.7456  -19.4922   19.7331 C   0  0  0  0  0  0
  -32.3477  -19.1488   19.9415 N   0  0  0  0  0  0
  -29.9192  -16.4032   20.4557 N   0  0  0  0  0  0
  -31.4536  -12.8205   19.1909 H   0  0  0  0  0  0
  -30.4223  -11.7633   20.1016 H   0  0  0  0  0  0
  -29.8635  -11.7190   17.6406 H   0  0  0  0  0  0
  -29.5831  -13.4440   17.6614 H   0  0  0  0  0  0
  -27.9879  -11.2731   19.0465 H   0  0  0  0  0  0
  -27.3927  -12.3816   17.8380 H   0  0  0  0  0  0
  -27.5462  -14.2473   19.3479 H   0  0  0  0  0  0
  -28.7806  -12.4640   21.4998 H   0  0  0  0  0  0
  -28.3311  -14.1451   21.6892 H   0  0  0  0  0  0
  -25.2775   -9.5688   22.4765 H   0  0  0  0  0  0
  -24.0014   -7.4637   22.7472 H   0  0  0  0  0  0
  -21.0858   -8.8781   19.8948 H   0  0  0  0  0  0
  -22.3716  -10.9679   19.6168 H   0  0  0  0  0  0
  -21.2008   -7.6151   23.9717 H   0  0  0  0  0  0
  -21.1483   -6.0523   25.9078 H   0  0  0  0  0  0
  -22.0598   -2.7611   23.2842 H   0  0  0  0  0  0
  -22.4051  -11.9855   22.4842 H   0  0  0  0  0  0
  -21.1028  -13.1183   22.2647 H   0  0  0  0  0  0
  -24.6383  -15.8516   20.5378 H   0  0  0  0  0  0
  -26.2540  -15.6412   20.0892 H   0  0  0  0  0  0
  -26.7323  -32.5230   23.0960 H   0  0  0  0  0  0
  -25.0110  -33.9561   25.0302 H   0  0  0  0  0  0
  -22.7700  -31.2823   21.3708 H   0  0  0  0  0  0
  -23.3764  -35.9546   23.3286 H   0  0  0  0  0  0
  -24.3562  -36.8874   22.2052 H   0  0  0  0  0  0
  -23.7231  -37.6413   23.6685 H   0  0  0  0  0  0
  -26.1929  -31.4235   20.6242 H   0  0  0  0  0  0
  -26.8916  -30.7296   22.0489 H   0  0  0  0  0  0
  -28.1286  -28.6737   21.3058 H   0  0  0  0  0  0
  -25.9112  -25.8345   18.9402 H   0  0  0  0  0  0
  -23.9997  -27.3237   18.9222 H   0  0  0  0  0  0
  -23.8410  -30.5596   19.3975 H   0  0  0  0  0  0
  -22.8091  -29.2320   19.8338 H   0  0  0  0  0  0
  -25.1306  -36.1825   25.0800 H   0  0  0  0  0  0
  -21.0030  -28.3342   24.1328 H   0  0  0  0  0  0
  -20.5675  -26.2358   23.3625 H   0  0  0  0  0  0
  -21.6658  -26.7419   22.1196 H   0  0  0  0  0  0
  -19.6926  -25.6284   21.1257 H   0  0  0  0  0  0
  -19.6703  -27.3177   20.6722 H   0  0  0  0  0  0
  -17.4212  -26.6684   21.4038 H   0  0  0  0  0  0
  -18.0365  -26.0097   22.9035 H   0  0  0  0  0  0
  -19.7961  -30.7312   24.2226 H   0  0  0  0  0  0
  -17.5029  -31.6276   24.5161 H   0  0  0  0  0  0
  -15.5370  -30.2970   23.7679 H   0  0  0  0  0  0
  -15.8706  -28.0806   22.7093 H   0  0  0  0  0  0
  -24.5928  -30.7065   25.7716 H   0  0  0  0  0  0
  -24.8867  -32.2938   26.4719 H   0  0  0  0  0  0
  -25.7981  -30.9007   27.0239 H   0  0  0  0  0  0
  -26.3071  -29.6631   24.1342 H   0  0  0  0  0  0
  -27.3977  -29.7245   25.4976 H   0  0  0  0  0  0
  -27.9012  -30.4130   23.9748 H   0  0  0  0  0  0
  -27.2680  -33.3654   26.2010 H   0  0  0  0  0  0
  -28.3941  -32.6815   25.0373 H   0  0  0  0  0  0
  -28.0693  -31.8488   26.5493 H   0  0  0  0  0  0
  -28.2571  -38.0087   24.7531 H   0  0  0  0  0  0
  -28.1105  -36.2612   24.6279 H   0  0  0  0  0  0
  -27.2297  -37.1384   25.8872 H   0  0  0  0  0  0
  -20.9542  -29.8752   21.6718 H   0  0  0  0  0  0
  -26.0149  -38.2790   24.1437 H   0  0  0  0  0  0
  -31.5595  -21.0883   19.9863 H   0  0  0  0  0  0
  -32.5861  -17.0939   20.0067 H   0  0  0  0  0  0
  -34.7336  -22.0709   17.5622 H   0  0  0  0  0  0
  -35.0336  -21.9347   19.3815 H   0  0  0  0  0  0
  -28.0373  -20.1348   20.7466 H   0  0  0  0  0  0
  -29.9571  -22.4479   20.0369 H   0  0  0  0  0  0
  -33.5548  -19.9437   17.5735 H   0  0  0  0  0  0
  -26.6546  -24.7767   20.8994 H   0  0  0  0  0  0
  -26.8654  -21.8699   22.0280 H   0  0  0  0  0  0
  -26.3438  -21.6282   20.3578 H   0  0  0  0  0  0
  -25.7700  -22.9986   21.2619 H   0  0  0  0  0  0
  -34.1117  -20.0116   20.6199 H   0  0  0  0  0  0
  -34.3326  -18.5780   19.6354 H   0  0  0  0  0  0
  -28.9191  -16.3515   20.5845 H   0  0  0  0  0  0
  1 25  1  0  0  0
  1 30  2  0  0  0
  1 84  1  0  0  0
  2  3  1  0  0  0
  2 25  1  0  0  0
  2 85  1  0  0  0
  2 86  1  0  0  0
  3  4  1  0  0  0
  3 87  1  0  0  0
  3 88  1  0  0  0
  4  5  1  0  0  0
  4 89  1  0  0  0
  4 90  1  0  0  0
  5  6  1  0  0  0
  5 26  1  0  0  0
  5 91  1  0  0  0
  6 25  1  0  0  0
  6 92  1  0  0  0
  6 93  1  0  0  0
  7  8  2  0  0  0
  7 26  1  0  0  0
  7 29  1  0  0  0
  8  9  1  0  0  0
  8 22  1  0  0  0
  9 10  1  0  0  0
  9 27  2  0  0  0
 10 11  2  0  0  0
 10 15  1  0  0  0
 11 12  1  0  0  0
 11 94  1  0  0  0
 12 13  2  0  0  0
 12 95  1  0  0  0
 13 14  1  0  0  0
 13 31  1  0  0  0
 14 15  2  0  0  0
 14 96  1  0  0  0
 15 97  1  0  0  0
 16 17  2  0  0  0
 16 21  1  0  0  0
 16 31  1  0  0  0
 17 18  1  0  0  0
 17 98  1  0  0  0
 18 19  2  0  0  0
 18 99  1  0  0  0
 19 20  1  0  0  0
 19 24  1  0  0  0
 20 21  2  0  0  0
 20100  1  0  0  0
 21 23  1  0  0  0
 22 28  1  0  0  0
 22 32  2  0  0  0
 26 27  1  0  0  0
 28101  1  0  0  0
 28102  1  0  0  0
 29103  1  0  0  0
 29104  1  0  0  0
 33 34  1  0  0  0
 33 66  1  0  0  0
 33 70  2  0  0  0
 34 36  1  0  0  0
 34 59  1  0  0  0
 34105  1  0  0  0
 35 44  2  0  0  0
 35 45  1  0  0  0
 35 68  1  0  0  0
 36 56  1  0  0  0
 36106  1  0  0  0
 37 39  1  0  0  0
 37 47  1  0  0  0
 37 66  1  0  0  0
 37107  1  0  0  0
 38 43  2  0  0  0
 38 46  1  0  0  0
 38 47  1  0  0  0
 39 64  1  0  0  0
 39 67  2  0  0  0
 40 52  1  0  0  0
 40 53  2  0  0  0
 40 58  1  0  0  0
 41108  1  0  0  0
 41109  1  0  0  0
 41110  1  0  0  0
 41 48  1  0  0  0
 42 43  1  0  0  0
 42 66  1  0  0  0
 42111  1  0  0  0
 42112  1  0  0  0
 43 44  1  0  0  0
 44113  1  0  0  0
 45 46  2  0  0  0
 45114  1  0  0  0
 46115  1  0  0  0
 47116  1  0  0  0
 47117  1  0  0  0
 48 56  1  0  0  0
 48 65  1  0  0  0
 48118  1  0  0  0
 49 50  1  0  0  0
 49 53  1  0  0  0
 49 64  1  0  0  0
 49119  1  0  0  0
 50 51  1  0  0  0
 50120  1  0  0  0
 50121  1  0  0  0
 51 52  1  0  0  0
 51122  1  0  0  0
 51123  1  0  0  0
 52124  1  0  0  0
 52125  1  0  0  0
 53 54  1  0  0  0
 54 55  2  0  0  0
 54126  1  0  0  0
 55 57  1  0  0  0
 55127  1  0  0  0
 56 69  2  0  0  0
 57 58  2  0  0  0
 57128  1  0  0  0
 58129  1  0  0  0
 59 60  1  0  0  0
 59 61  1  0  0  0
 59 62  1  0  0  0
 60130  1  0  0  0
 60131  1  0  0  0
 60132  1  0  0  0
 61133  1  0  0  0
 61134  1  0  0  0
 61135  1  0  0  0
 62136  1  0  0  0
 62137  1  0  0  0
 62138  1  0  0  0
 63 65  1  0  0  0
 63139  1  0  0  0
 63140  1  0  0  0
 63141  1  0  0  0
 64142  1  0  0  0
 65143  1  0  0  0
 68 79  1  0  0  0
 71 73  2  0  0  0
 71 83  1  0  0  0
 71144  1  0  0  0
 72 74  2  0  0  0
 72 83  1  0  0  0
 72145  1  0  0  0
 73 74  1  0  0  0
 73 76  1  0  0  0
 74 84  1  0  0  0
 75 78  2  0  0  0
 75146  1  0  0  0
 75147  1  0  0  0
 76 77  2  0  0  0
 76148  1  0  0  0
 77 80  1  0  0  0
 77149  1  0  0  0
 78 82  1  0  0  0
 78150  1  0  0  0
 79 80  2  0  0  0
 79151  1  0  0  0
 80 81  1  0  0  0
 81152  1  0  0  0
 81153  1  0  0  0
 81154  1  0  0  0
 82 83  1  0  0  0
 82155  1  0  0  0
 82156  1  0  0  0
 84157  1  0  0  0
M  ISO  4   1 100  68 101  79 101  84 100
M  END
> <chiral flag>
0

> <version>
0

> <s_m_source_file>
/data/baiqing/PycharmProjects/Reinvent-master-3.2/result/LINK_invent/BTK/process_docking_weight1_custom_product_contain_oxygen_bond_distance_aromatic_linkinvent_7_9_3/rearranged_h_0115.sdf

> <i_m_source_file_index>
63

> <r_mmod_Potential_Energy-OPLS-2005>
985.04296875

> <r_mmod_Stretch_Energy-OPLS-2005>
388.435485839844

> <r_mmod_Bend_Energy-OPLS-2005>
491.792266845703

> <r_mmod_Torsional_Energy-OPLS-2005>
218.444412231445

> <r_mmod_Improper_Torsional_Energy-OPLS-2005>
4.462890625

> <r_mmod_Van_der_Waal_Energy-OPLS-2005>
146.311325073242

> <r_mmod_Electrostatic_Energy-OPLS-2005>
-372.578887939453

> <r_mmod_Solvation_Energy-OPLS-2005>
-199.985336303711

> <b_mmod_Minimization_Converged-OPLS-2005>
0

> <r_mmod_RMS_Derivative-OPLS-2005>
0.838432967662811

$$$$
63
                    3D
 Structure written by MMmdl.
161169  0  0  1  0            999 V2000
  -30.7827  -14.4355   20.6031 C   0  0  0  0  0  0
  -30.4008  -12.3079   19.4137 C   0  0  0  0  0  0
  -29.4803  -12.4968   18.1960 C   0  0  0  0  0  0
  -28.0051  -12.3604   18.6179 C   0  0  0  0  0  0
  -27.6529  -13.2178   19.8642 C   0  0  2  0  0  0
  -28.7001  -13.0456   20.9868 C   0  0  0  0  0  0
  -25.2546  -13.8188   20.5686 C   0  0  0  0  0  0
  -24.1819  -13.0446   20.9193 C   0  0  0  0  0  0
  -24.6389  -11.6920   20.8747 C   0  0  0  0  0  0
  -23.9061  -10.4299   21.0409 C   0  0  0  0  0  0
  -24.3614   -9.4212   21.9183 C   0  0  0  0  0  0
  -23.6293   -8.2246   22.0754 C   0  0  0  0  0  0
  -22.4275   -8.0281   21.3540 C   0  0  0  0  0  0
  -21.9907   -9.0257   20.4644 C   0  0  0  0  0  0
  -22.7235  -10.2137   20.3055 C   0  0  0  0  0  0
  -21.6854   -6.0729   22.5278 C   0  0  0  0  0  0
  -21.4014   -6.5635   23.8209 C   0  0  0  0  0  0
  -21.3661   -5.6788   24.9175 C   0  0  0  0  0  0
  -21.6047   -4.3051   24.7228 C   0  0  0  0  0  0
  -21.8819   -3.8140   23.4349 C   0  0  0  0  0  0
  -21.9194   -4.6956   22.3402 C   0  0  0  0  0  0
  -22.7839  -13.5233   21.1847 C   0  0  0  0  0  0
  -22.1660   -4.2139   21.0980 F   0  0  0  0  0  0
  -21.5630   -3.4535   25.7741 F   0  0  0  0  0  0
  -30.0225  -13.3242   20.4093 N   0  0  0  0  0  0
  -26.2989  -12.9382   20.3355 N   0  0  0  0  0  0
  -25.9321  -11.6532   20.5783 N   0  0  0  0  0  0
  -22.0477  -12.8231   22.0406 N   0  0  0  0  0  0
  -25.4237  -15.1903   20.4077 N   0  0  0  0  0  0
  -31.9237  -14.5203   20.1393 O   0  0  0  0  0  0
  -21.6641   -6.8876   21.4238 O   0  0  0  0  0  0
  -22.3524  -14.5532   20.6684 O   0  0  0  0  0  0
  -24.6164  -31.8695   23.2133 C   0  0  0  0  0  0
  -25.9060  -32.4829   23.8420 C   0  0  1  0  0  0
  -27.2184  -27.4248   20.0879 C   0  0  0  0  0  0
  -25.5921  -33.8628   24.2347 N   0  0  0  0  0  0
  -23.4025  -30.4978   21.5552 C   0  0  2  0  0  0
  -24.8439  -28.9723   20.1128 C   0  0  0  0  0  0
  -22.7417  -29.4672   22.4993 C   0  0  0  0  0  0
  -18.0273  -28.1373   22.8488 C   0  0  0  0  0  0
  -24.1489  -36.7313   23.2635 C   0  0  0  0  0  0
  -25.9354  -30.8319   21.3695 C   0  0  0  0  0  0
  -26.0088  -29.4693   20.7102 C   0  0  0  0  0  0
  -27.2003  -28.7041   20.6940 C   0  0  0  0  0  0
  -26.0299  -26.9568   19.4732 C   0  0  0  0  0  0
  -24.8505  -27.7164   19.4907 C   0  0  0  0  0  0
  -23.6090  -29.8403   20.1665 C   0  0  0  0  0  0
  -25.4106  -36.3117   24.0341 C   0  0  1  0  0  0
  -20.5866  -28.3664   23.1318 C   0  0  2  0  0  0
  -20.6766  -26.9404   22.5416 C   0  0  0  0  0  0
  -19.5745  -26.6390   21.5208 C   0  0  0  0  0  0
  -18.1921  -26.7922   22.1615 C   0  0  0  0  0  0
  -19.1521  -28.8834   23.2900 C   0  0  0  0  0  0
  -18.9447  -30.1439   23.8911 C   0  0  0  0  0  0
  -17.6450  -30.6581   24.0563 C   0  0  0  0  0  0
  -25.9038  -34.9480   23.5136 C   0  0  0  0  0  0
  -16.5342  -29.9081   23.6326 C   0  0  0  0  0  0
  -16.7263  -28.6498   23.0349 C   0  0  0  0  0  0
  -26.4485  -31.6599   25.0742 C   0  0  0  0  0  0
  -25.3750  -31.3706   26.1491 C   0  0  0  0  0  0
  -27.0302  -30.3035   24.6120 C   0  0  0  0  0  0
  -27.6077  -32.4302   25.7488 C   0  0  0  0  0  0
  -27.5588  -37.1808   24.8459 C   0  0  0  0  0  0
  -21.4144  -29.3035   22.3730 N   0  0  0  0  0  0
  -26.4291  -37.3802   23.9418 N   0  0  0  0  0  0
  -24.6698  -31.0798   22.1038 N   0  0  0  0  0  0
  -23.4194  -28.8197   23.3017 O   0  0  0  0  0  0
  -28.3680  -26.6540   20.1198 O   0  0  0  0  0  0
  -26.5585  -34.8928   22.4688 O   0  0  0  0  0  0
  -23.5355  -32.1448   23.7529 O   0  0  0  0  0  0
  -29.1157  -19.9260   21.1787 C   0  0  0  0  0  0
  -29.2938  -18.5621   21.5362 C   0  0  0  0  0  0
  -30.5736  -17.9663   21.3313 C   0  0  0  0  0  0
  -30.2030  -20.6600   20.6722 C   0  0  0  0  0  0
  -31.6006  -18.8003   20.7971 C   0  0  0  0  0  0
  -26.8525  -18.0859   21.8753 C   0  0  0  0  0  0
  -28.1489  -17.8015   22.0818 C   0  0  0  0  0  0
  -30.8926  -16.5283   21.7101 C   0  0  0  0  0  0
  -29.3322  -24.3663   20.3750 C   0  0  0  0  0  0
  -33.9348  -19.1906   19.9797 C   0  0  0  0  0  0
  -29.0280  -22.8803   20.6427 C   0  0  0  0  0  0
  -28.1444  -25.2388   19.9502 C   0  0  0  0  0  0
  -31.4017  -20.0990   20.4803 N   0  0  0  0  0  0
  -32.9010  -18.3276   20.5398 N   0  0  0  0  0  0
  -30.1624  -22.0154   20.3329 N   0  0  0  0  0  0
  -30.1888  -15.5130   21.1612 N   0  0  0  0  0  0
  -31.8619  -16.3234   22.4516 O   0  0  0  0  0  0
  -30.4814  -24.8146   20.4707 O   0  0  0  0  0  0
  -31.4460  -12.3714   19.1058 H   0  0  0  0  0  0
  -30.2797  -11.3087   19.8349 H   0  0  0  0  0  0
  -29.7186  -11.7617   17.4259 H   0  0  0  0  0  0
  -29.6511  -13.4774   17.7485 H   0  0  0  0  0  0
  -27.8199  -11.3064   18.8297 H   0  0  0  0  0  0
  -27.3499  -12.6205   17.7856 H   0  0  0  0  0  0
  -27.6821  -14.2595   19.5441 H   0  0  0  0  0  0
  -28.6794  -12.0277   21.3792 H   0  0  0  0  0  0
  -28.4726  -13.6963   21.8323 H   0  0  0  0  0  0
  -25.2765   -9.5691   22.4749 H   0  0  0  0  0  0
  -24.0004   -7.4641   22.7478 H   0  0  0  0  0  0
  -21.0835   -8.8779   19.8955 H   0  0  0  0  0  0
  -22.3696  -10.9674   19.6161 H   0  0  0  0  0  0
  -21.2008   -7.6145   23.9707 H   0  0  0  0  0  0
  -21.1481   -6.0520   25.9075 H   0  0  0  0  0  0
  -22.0598   -2.7600   23.2849 H   0  0  0  0  0  0
  -22.4087  -11.9899   22.4812 H   0  0  0  0  0  0
  -21.1090  -13.1257   22.2591 H   0  0  0  0  0  0
  -24.6560  -15.8431   20.5188 H   0  0  0  0  0  0
  -26.2776  -15.6354   20.0979 H   0  0  0  0  0  0
  -26.7127  -32.5536   23.1178 H   0  0  0  0  0  0
  -25.0091  -33.9796   25.0506 H   0  0  0  0  0  0
  -22.6909  -31.3153   21.4225 H   0  0  0  0  0  0
  -23.3759  -35.9638   23.3290 H   0  0  0  0  0  0
  -24.3591  -36.8931   22.2051 H   0  0  0  0  0  0
  -23.7231  -37.6513   23.6647 H   0  0  0  0  0  0
  -26.0537  -31.6013   20.6052 H   0  0  0  0  0  0
  -26.8216  -30.8778   21.9908 H   0  0  0  0  0  0
  -28.0973  -29.0824   21.1643 H   0  0  0  0  0  0
  -25.9800  -26.0034   18.9683 H   0  0  0  0  0  0
  -23.9564  -27.3317   19.0194 H   0  0  0  0  0  0
  -23.7203  -30.6196   19.4117 H   0  0  0  0  0  0
  -22.7310  -29.2649   19.8678 H   0  0  0  0  0  0
  -25.1276  -36.1982   25.0831 H   0  0  0  0  0  0
  -20.9952  -28.3227   24.1440 H   0  0  0  0  0  0
  -20.5672  -26.2270   23.3597 H   0  0  0  0  0  0
  -21.6638  -26.7453   22.1209 H   0  0  0  0  0  0
  -19.6911  -25.6306   21.1228 H   0  0  0  0  0  0
  -19.6688  -27.3211   20.6747 H   0  0  0  0  0  0
  -17.4197  -26.6676   21.4010 H   0  0  0  0  0  0
  -18.0318  -26.0059   22.9004 H   0  0  0  0  0  0
  -19.7924  -30.7248   24.2291 H   0  0  0  0  0  0
  -17.5008  -31.6263   24.5162 H   0  0  0  0  0  0
  -15.5344  -30.2985   23.7647 H   0  0  0  0  0  0
  -15.8661  -28.0825   22.7054 H   0  0  0  0  0  0
  -24.5921  -30.7056   25.7828 H   0  0  0  0  0  0
  -24.8943  -32.2861   26.4950 H   0  0  0  0  0  0
  -25.8103  -30.8867   27.0242 H   0  0  0  0  0  0
  -26.2840  -29.6802   24.1180 H   0  0  0  0  0  0
  -27.4071  -29.7270   25.4578 H   0  0  0  0  0  0
  -27.8684  -30.4344   23.9270 H   0  0  0  0  0  0
  -27.2725  -33.3604   26.2088 H   0  0  0  0  0  0
  -28.3869  -32.6854   25.0292 H   0  0  0  0  0  0
  -28.0764  -31.8407   26.5377 H   0  0  0  0  0  0
  -28.2595  -38.0117   24.7534 H   0  0  0  0  0  0
  -28.1092  -36.2652   24.6239 H   0  0  0  0  0  0
  -27.2316  -37.1409   25.8864 H   0  0  0  0  0  0
  -20.9303  -29.8765   21.6961 H   0  0  0  0  0  0
  -26.0181  -38.2879   24.1431 H   0  0  0  0  0  0
  -28.1598  -20.4067   21.3277 H   0  0  0  0  0  0
  -26.0800  -17.4836   22.3308 H   0  0  0  0  0  0
  -26.5331  -18.9084   21.2524 H   0  0  0  0  0  0
  -28.3720  -16.9631   22.7262 H   0  0  0  0  0  0
  -34.8806  -18.6524   19.9110 H   0  0  0  0  0  0
  -34.0918  -20.0707   20.6048 H   0  0  0  0  0  0
  -33.6607  -19.5220   18.9772 H   0  0  0  0  0  0
  -28.1684  -22.5779   20.0438 H   0  0  0  0  0  0
  -28.7513  -22.7654   21.6910 H   0  0  0  0  0  0
  -27.2825  -24.9194   20.5378 H   0  0  0  0  0  0
  -27.9329  -25.0242   18.9025 H   0  0  0  0  0  0
  -33.1729  -17.4042   20.8675 H   0  0  0  0  0  0
  -31.0306  -22.4872   20.1008 H   0  0  0  0  0  0
  -29.2048  -15.6284   20.9877 H   0  0  0  0  0  0
  1 25  1  0  0  0
  1 30  2  0  0  0
  1 86  1  0  0  0
  2  3  1  0  0  0
  2 25  1  0  0  0
  2 89  1  0  0  0
  2 90  1  0  0  0
  3  4  1  0  0  0
  3 91  1  0  0  0
  3 92  1  0  0  0
  4  5  1  0  0  0
  4 93  1  0  0  0
  4 94  1  0  0  0
  5  6  1  0  0  0
  5 26  1  0  0  0
  5 95  1  0  0  0
  6 25  1  0  0  0
  6 96  1  0  0  0
  6 97  1  0  0  0
  7  8  2  0  0  0
  7 26  1  0  0  0
  7 29  1  0  0  0
  8  9  1  0  0  0
  8 22  1  0  0  0
  9 10  1  0  0  0
  9 27  2  0  0  0
 10 11  2  0  0  0
 10 15  1  0  0  0
 11 12  1  0  0  0
 11 98  1  0  0  0
 12 13  2  0  0  0
 12 99  1  0  0  0
 13 14  1  0  0  0
 13 31  1  0  0  0
 14 15  2  0  0  0
 14100  1  0  0  0
 15101  1  0  0  0
 16 17  2  0  0  0
 16 21  1  0  0  0
 16 31  1  0  0  0
 17 18  1  0  0  0
 17102  1  0  0  0
 18 19  2  0  0  0
 18103  1  0  0  0
 19 20  1  0  0  0
 19 24  1  0  0  0
 20 21  2  0  0  0
 20104  1  0  0  0
 21 23  1  0  0  0
 22 28  1  0  0  0
 22 32  2  0  0  0
 26 27  1  0  0  0
 28105  1  0  0  0
 28106  1  0  0  0
 29107  1  0  0  0
 29108  1  0  0  0
 33 34  1  0  0  0
 33 66  1  0  0  0
 33 70  2  0  0  0
 34 36  1  0  0  0
 34 59  1  0  0  0
 34109  1  0  0  0
 35 44  2  0  0  0
 35 45  1  0  0  0
 35 68  1  0  0  0
 36 56  1  0  0  0
 36110  1  0  0  0
 37 39  1  0  0  0
 37 47  1  0  0  0
 37 66  1  0  0  0
 37111  1  0  0  0
 38 43  2  0  0  0
 38 46  1  0  0  0
 38 47  1  0  0  0
 39 64  1  0  0  0
 39 67  2  0  0  0
 40 52  1  0  0  0
 40 53  2  0  0  0
 40 58  1  0  0  0
 41112  1  0  0  0
 41113  1  0  0  0
 41114  1  0  0  0
 41 48  1  0  0  0
 42 43  1  0  0  0
 42 66  1  0  0  0
 42115  1  0  0  0
 42116  1  0  0  0
 43 44  1  0  0  0
 44117  1  0  0  0
 45 46  2  0  0  0
 45118  1  0  0  0
 46119  1  0  0  0
 47120  1  0  0  0
 47121  1  0  0  0
 48 56  1  0  0  0
 48 65  1  0  0  0
 48122  1  0  0  0
 49 50  1  0  0  0
 49 53  1  0  0  0
 49 64  1  0  0  0
 49123  1  0  0  0
 50 51  1  0  0  0
 50124  1  0  0  0
 50125  1  0  0  0
 51 52  1  0  0  0
 51126  1  0  0  0
 51127  1  0  0  0
 52128  1  0  0  0
 52129  1  0  0  0
 53 54  1  0  0  0
 54 55  2  0  0  0
 54130  1  0  0  0
 55 57  1  0  0  0
 55131  1  0  0  0
 56 69  2  0  0  0
 57 58  2  0  0  0
 57132  1  0  0  0
 58133  1  0  0  0
 59 60  1  0  0  0
 59 61  1  0  0  0
 59 62  1  0  0  0
 60134  1  0  0  0
 60135  1  0  0  0
 60136  1  0  0  0
 61137  1  0  0  0
 61138  1  0  0  0
 61139  1  0  0  0
 62140  1  0  0  0
 62141  1  0  0  0
 62142  1  0  0  0
 63 65  1  0  0  0
 63143  1  0  0  0
 63144  1  0  0  0
 63145  1  0  0  0
 64146  1  0  0  0
 65147  1  0  0  0
 68 82  1  0  0  0
 71 72  2  0  0  0
 71 74  1  0  0  0
 71148  1  0  0  0
 72 73  1  0  0  0
 72 77  1  0  0  0
 73 75  2  0  0  0
 73 78  1  0  0  0
 74 83  2  0  0  0
 74 85  1  0  0  0
 75 83  1  0  0  0
 75 84  1  0  0  0
 76 77  2  0  0  0
 76149  1  0  0  0
 76150  1  0  0  0
 77151  1  0  0  0
 78 86  1  0  0  0
 78 87  2  0  0  0
 79 81  1  0  0  0
 79 82  1  0  0  0
 79 88  2  0  0  0
 80 84  1  0  0  0
 80152  1  0  0  0
 80153  1  0  0  0
 80154  1  0  0  0
 81 85  1  0  0  0
 81155  1  0  0  0
 81156  1  0  0  0
 82157  1  0  0  0
 82158  1  0  0  0
 84159  1  0  0  0
 85160  1  0  0  0
 86161  1  0  0  0
M  ISO  4   1 100  68 101  82 101  86 100
M  END
> <chiral flag>
0

> <version>
0

> <s_m_source_file>
/data/baiqing/PycharmProjects/Reinvent-master-3.2/result/LINK_invent/BTK/process_docking_weight1_custom_product_contain_oxygen_bond_distance_aromatic_linkinvent_7_9_3/rearranged_h_0115.sdf

> <i_m_source_file_index>
64

> <r_mmod_Potential_Energy-OPLS-2005>
-214.767562866211

> <r_mmod_Stretch_Energy-OPLS-2005>
40.5118637084961

> <r_mmod_Bend_Energy-OPLS-2005>
125.08659362793

> <r_mmod_Torsional_Energy-OPLS-2005>
258.432556152344

> <r_mmod_Improper_Torsional_Energy-OPLS-2005>
5.69159317016602

> <r_mmod_Van_der_Waal_Energy-OPLS-2005>
181.745880126953

> <r_mmod_Electrostatic_Energy-OPLS-2005>
-574.501403808594

> <r_mmod_Solvation_Energy-OPLS-2005>
-271.058563232422

> <b_mmod_Minimization_Converged-OPLS-2005>
0

> <r_mmod_RMS_Derivative-OPLS-2005>
0.741825819015503

$$$$
64
                    3D
 Structure written by MMmdl.
153161  0  0  1  0            999 V2000
  -30.6143  -14.6569   20.4974 C   0  0  0  0  0  0
  -30.4400  -12.4015   19.4559 C   0  0  0  0  0  0
  -29.5091  -12.5082   18.2267 C   0  0  0  0  0  0
  -28.0324  -12.3429   18.6386 C   0  0  0  0  0  0
  -27.6530  -13.2167   19.8634 C   0  0  2  0  0  0
  -28.6976  -13.0766   20.9940 C   0  0  0  0  0  0
  -25.2544  -13.8145   20.5646 C   0  0  0  0  0  0
  -24.1826  -13.0421   20.9200 C   0  0  0  0  0  0
  -24.6400  -11.6896   20.8753 C   0  0  0  0  0  0
  -23.9067  -10.4285   21.0415 C   0  0  0  0  0  0
  -24.3617   -9.4200   21.9192 C   0  0  0  0  0  0
  -23.6293   -8.2236   22.0756 C   0  0  0  0  0  0
  -22.4276   -8.0277   21.3545 C   0  0  0  0  0  0
  -21.9911   -9.0252   20.4649 C   0  0  0  0  0  0
  -22.7239  -10.2131   20.3062 C   0  0  0  0  0  0
  -21.6851   -6.0736   22.5280 C   0  0  0  0  0  0
  -21.4012   -6.5640   23.8214 C   0  0  0  0  0  0
  -21.3658   -5.6793   24.9176 C   0  0  0  0  0  0
  -21.6045   -4.3056   24.7227 C   0  0  0  0  0  0
  -21.8819   -3.8147   23.4348 C   0  0  0  0  0  0
  -21.9193   -4.6964   22.3403 C   0  0  0  0  0  0
  -22.7850  -13.5222   21.1859 C   0  0  0  0  0  0
  -22.1661   -4.2150   21.0981 F   0  0  0  0  0  0
  -21.5630   -3.4538   25.7740 F   0  0  0  0  0  0
  -30.0126  -13.4250   20.4320 N   0  0  0  0  0  0
  -26.2988  -12.9340   20.3313 N   0  0  0  0  0  0
  -25.9332  -11.6497   20.5774 N   0  0  0  0  0  0
  -22.0490  -12.8220   22.0418 N   0  0  0  0  0  0
  -25.4208  -15.1845   20.3944 N   0  0  0  0  0  0
  -31.7749  -14.8180   20.1082 O   0  0  0  0  0  0
  -21.6637   -6.8876   21.4242 O   0  0  0  0  0  0
  -22.3538  -14.5529   20.6705 O   0  0  0  0  0  0
  -24.6270  -31.8594   23.2022 C   0  0  0  0  0  0
  -25.9114  -32.4778   23.8356 C   0  0  1  0  0  0
  -27.2255  -27.3149   20.1154 C   0  0  0  0  0  0
  -25.5928  -33.8579   24.2284 N   0  0  0  0  0  0
  -23.4209  -30.4836   21.5453 C   0  0  2  0  0  0
  -24.8670  -28.9387   20.1112 C   0  0  0  0  0  0
  -22.7480  -29.4624   22.4934 C   0  0  0  0  0  0
  -18.0288  -28.1383   22.8491 C   0  0  0  0  0  0
  -24.1488  -36.7290   23.2640 C   0  0  0  0  0  0
  -25.9627  -30.7899   21.3730 C   0  0  0  0  0  0
  -26.0371  -29.4171   20.7142 C   0  0  0  0  0  0
  -27.2197  -28.6181   20.7041 C   0  0  0  0  0  0
  -26.0290  -26.8905   19.4911 C   0  0  0  0  0  0
  -24.8651  -27.6810   19.4909 C   0  0  0  0  0  0
  -23.6355  -29.8193   20.1605 C   0  0  0  0  0  0
  -25.4114  -36.3082   24.0330 C   0  0  1  0  0  0
  -20.5891  -28.3683   23.1284 C   0  0  2  0  0  0
  -20.6779  -26.9407   22.5408 C   0  0  0  0  0  0
  -19.5753  -26.6384   21.5211 C   0  0  0  0  0  0
  -18.1932  -26.7929   22.1623 C   0  0  0  0  0  0
  -19.1542  -28.8851   23.2884 C   0  0  0  0  0  0
  -18.9464  -30.1454   23.8899 C   0  0  0  0  0  0
  -17.6464  -30.6588   24.0563 C   0  0  0  0  0  0
  -25.9051  -34.9451   23.5107 C   0  0  0  0  0  0
  -16.5354  -29.9086   23.6332 C   0  0  0  0  0  0
  -16.7275  -28.6502   23.0358 C   0  0  0  0  0  0
  -26.4499  -31.6588   25.0725 C   0  0  0  0  0  0
  -25.3734  -31.3728   26.1453 C   0  0  0  0  0  0
  -27.0344  -30.3016   24.6174 C   0  0  0  0  0  0
  -27.6059  -32.4321   25.7496 C   0  0  0  0  0  0
  -27.5578  -37.1803   24.8468 C   0  0  0  0  0  0
  -21.4192  -29.3042   22.3679 N   0  0  0  0  0  0
  -26.4292  -37.3776   23.9409 N   0  0  0  0  0  0
  -24.6892  -31.0609   22.0971 N   0  0  0  0  0  0
  -23.4202  -28.8162   23.3013 O   0  0  0  0  0  0
  -28.3450  -26.4652   20.1629 O   0  0  0  0  0  0
  -26.5613  -34.8918   22.4669 O   0  0  0  0  0  0
  -23.5434  -32.1387   23.7354 O   0  0  0  0  0  0
  -30.9021  -19.2833   19.9368 C   0  0  0  0  0  0
  -30.9119  -17.8621   20.0712 C   0  0  0  0  0  0
  -28.8026  -19.4074   21.0777 C   0  0  0  0  0  0
  -28.8056  -17.9832   21.2306 C   0  0  0  0  0  0
  -29.8532  -20.1077   20.4287 C   0  0  0  0  0  0
  -29.8641  -17.1606   20.7246 C   0  0  0  0  0  0
  -29.0479  -22.4470   20.4355 C   0  0  0  0  0  0
  -27.6223  -17.3770   21.9697 C   0  0  0  0  0  0
  -29.3190  -24.0068   20.3993 C   0  0  0  0  0  0
  -28.1232  -24.9990   20.0570 C   0  0  0  0  0  0
  -29.9732  -21.5393   20.3009 N   0  0  0  0  0  0
  -29.8016  -15.6983   20.8750 N   0  0  0  0  0  0
  -31.4808  -12.5291   19.1534 H   0  0  0  0  0  0
  -30.3789  -11.4068   19.9002 H   0  0  0  0  0  0
  -29.7757  -11.7537   17.4852 H   0  0  0  0  0  0
  -29.6483  -13.4757   17.7419 H   0  0  0  0  0  0
  -27.8733  -11.2900   18.8745 H   0  0  0  0  0  0
  -27.3767  -12.5664   17.7962 H   0  0  0  0  0  0
  -27.6693  -14.2512   19.5198 H   0  0  0  0  0  0
  -28.7127  -12.0553   21.3771 H   0  0  0  0  0  0
  -28.4389  -13.7073   21.8458 H   0  0  0  0  0  0
  -25.2762   -9.5675   22.4768 H   0  0  0  0  0  0
  -24.0002   -7.4625   22.7471 H   0  0  0  0  0  0
  -21.0844   -8.8773   19.8951 H   0  0  0  0  0  0
  -22.3702  -10.9674   19.6173 H   0  0  0  0  0  0
  -21.2001   -7.6149   23.9718 H   0  0  0  0  0  0
  -21.1480   -6.0523   25.9079 H   0  0  0  0  0  0
  -22.0598   -2.7610   23.2847 H   0  0  0  0  0  0
  -22.4103  -11.9880   22.4807 H   0  0  0  0  0  0
  -21.1110  -13.1250   22.2624 H   0  0  0  0  0  0
  -24.6400  -15.8270   20.4712 H   0  0  0  0  0  0
  -26.2494  -15.6127   20.0028 H   0  0  0  0  0  0
  -26.7179  -32.5448   23.1104 H   0  0  0  0  0  0
  -25.0094  -33.9725   25.0441 H   0  0  0  0  0  0
  -22.7152  -31.3047   21.4029 H   0  0  0  0  0  0
  -23.3751  -35.9622   23.3306 H   0  0  0  0  0  0
  -24.3582  -36.8905   22.2054 H   0  0  0  0  0  0
  -23.7240  -37.6494   23.6656 H   0  0  0  0  0  0
  -26.0955  -31.5542   20.6059 H   0  0  0  0  0  0
  -26.8428  -30.8377   22.0027 H   0  0  0  0  0  0
  -28.1180  -28.9829   21.1826 H   0  0  0  0  0  0
  -25.9617  -25.9307   19.0023 H   0  0  0  0  0  0
  -23.9680  -27.3090   19.0150 H   0  0  0  0  0  0
  -23.7544  -30.5960   19.4040 H   0  0  0  0  0  0
  -22.7554  -29.2485   19.8588 H   0  0  0  0  0  0
  -25.1296  -36.1935   25.0823 H   0  0  0  0  0  0
  -20.9986  -28.3253   24.1403 H   0  0  0  0  0  0
  -20.5681  -26.2291   23.3608 H   0  0  0  0  0  0
  -21.6647  -26.7440   22.1198 H   0  0  0  0  0  0
  -19.6913  -25.6294   21.1241 H   0  0  0  0  0  0
  -19.6691  -27.3197   20.6743 H   0  0  0  0  0  0
  -17.4203  -26.6680   21.4023 H   0  0  0  0  0  0
  -18.0330  -26.0072   22.9021 H   0  0  0  0  0  0
  -19.7939  -30.7273   24.2266 H   0  0  0  0  0  0
  -17.5018  -31.6271   24.5161 H   0  0  0  0  0  0
  -15.5354  -30.2990   23.7657 H   0  0  0  0  0  0
  -15.8676  -28.0822   22.7072 H   0  0  0  0  0  0
  -24.5911  -30.7072   25.7786 H   0  0  0  0  0  0
  -24.8922  -32.2895   26.4873 H   0  0  0  0  0  0
  -25.8062  -30.8914   27.0231 H   0  0  0  0  0  0
  -26.2917  -29.6766   24.1202 H   0  0  0  0  0  0
  -27.4058  -29.7273   25.4672 H   0  0  0  0  0  0
  -27.8779  -30.4317   23.9389 H   0  0  0  0  0  0
  -27.2674  -33.3626   26.2070 H   0  0  0  0  0  0
  -28.3873  -32.6873   25.0324 H   0  0  0  0  0  0
  -28.0721  -31.8445   26.5417 H   0  0  0  0  0  0
  -28.2601  -38.0095   24.7509 H   0  0  0  0  0  0
  -28.1068  -36.2626   24.6301 H   0  0  0  0  0  0
  -27.2297  -37.1461   25.8871 H   0  0  0  0  0  0
  -20.9367  -29.8768   21.6896 H   0  0  0  0  0  0
  -26.0174  -38.2851   24.1407 H   0  0  0  0  0  0
  -31.7412  -19.7508   19.4407 H   0  0  0  0  0  0
  -31.7506  -17.3201   19.6592 H   0  0  0  0  0  0
  -27.9761  -19.9650   21.4954 H   0  0  0  0  0  0
  -28.0025  -22.1807   20.6119 H   0  0  0  0  0  0
  -27.4441  -17.9190   22.8989 H   0  0  0  0  0  0
  -27.7546  -16.3289   22.2330 H   0  0  0  0  0  0
  -26.7228  -17.4636   21.3611 H   0  0  0  0  0  0
  -30.1301  -24.1914   19.6953 H   0  0  0  0  0  0
  -29.7125  -24.2816   21.3774 H   0  0  0  0  0  0
  -27.2840  -24.7390   20.7045 H   0  0  0  0  0  0
  -27.8096  -24.7752   19.0369 H   0  0  0  0  0  0
  -28.9210  -15.3669   21.2356 H   0  0  0  0  0  0
  1 25  1  0  0  0
  1 30  2  0  0  0
  1 82  1  0  0  0
  2  3  1  0  0  0
  2 25  1  0  0  0
  2 83  1  0  0  0
  2 84  1  0  0  0
  3  4  1  0  0  0
  3 85  1  0  0  0
  3 86  1  0  0  0
  4  5  1  0  0  0
  4 87  1  0  0  0
  4 88  1  0  0  0
  5  6  1  0  0  0
  5 26  1  0  0  0
  5 89  1  0  0  0
  6 25  1  0  0  0
  6 90  1  0  0  0
  6 91  1  0  0  0
  7  8  2  0  0  0
  7 26  1  0  0  0
  7 29  1  0  0  0
  8  9  1  0  0  0
  8 22  1  0  0  0
  9 10  1  0  0  0
  9 27  2  0  0  0
 10 11  2  0  0  0
 10 15  1  0  0  0
 11 12  1  0  0  0
 11 92  1  0  0  0
 12 13  2  0  0  0
 12 93  1  0  0  0
 13 14  1  0  0  0
 13 31  1  0  0  0
 14 15  2  0  0  0
 14 94  1  0  0  0
 15 95  1  0  0  0
 16 17  2  0  0  0
 16 21  1  0  0  0
 16 31  1  0  0  0
 17 18  1  0  0  0
 17 96  1  0  0  0
 18 19  2  0  0  0
 18 97  1  0  0  0
 19 20  1  0  0  0
 19 24  1  0  0  0
 20 21  2  0  0  0
 20 98  1  0  0  0
 21 23  1  0  0  0
 22 28  1  0  0  0
 22 32  2  0  0  0
 26 27  1  0  0  0
 28 99  1  0  0  0
 28100  1  0  0  0
 29101  1  0  0  0
 29102  1  0  0  0
 33 34  1  0  0  0
 33 66  1  0  0  0
 33 70  2  0  0  0
 34 36  1  0  0  0
 34 59  1  0  0  0
 34103  1  0  0  0
 35 44  2  0  0  0
 35 45  1  0  0  0
 35 68  1  0  0  0
 36 56  1  0  0  0
 36104  1  0  0  0
 37 39  1  0  0  0
 37 47  1  0  0  0
 37 66  1  0  0  0
 37105  1  0  0  0
 38 43  2  0  0  0
 38 46  1  0  0  0
 38 47  1  0  0  0
 39 64  1  0  0  0
 39 67  2  0  0  0
 40 52  1  0  0  0
 40 53  2  0  0  0
 40 58  1  0  0  0
 41106  1  0  0  0
 41107  1  0  0  0
 41108  1  0  0  0
 41 48  1  0  0  0
 42 43  1  0  0  0
 42 66  1  0  0  0
 42109  1  0  0  0
 42110  1  0  0  0
 43 44  1  0  0  0
 44111  1  0  0  0
 45 46  2  0  0  0
 45112  1  0  0  0
 46113  1  0  0  0
 47114  1  0  0  0
 47115  1  0  0  0
 48 56  1  0  0  0
 48 65  1  0  0  0
 48116  1  0  0  0
 49 50  1  0  0  0
 49 53  1  0  0  0
 49 64  1  0  0  0
 49117  1  0  0  0
 50 51  1  0  0  0
 50118  1  0  0  0
 50119  1  0  0  0
 51 52  1  0  0  0
 51120  1  0  0  0
 51121  1  0  0  0
 52122  1  0  0  0
 52123  1  0  0  0
 53 54  1  0  0  0
 54 55  2  0  0  0
 54124  1  0  0  0
 55 57  1  0  0  0
 55125  1  0  0  0
 56 69  2  0  0  0
 57 58  2  0  0  0
 57126  1  0  0  0
 58127  1  0  0  0
 59 60  1  0  0  0
 59 61  1  0  0  0
 59 62  1  0  0  0
 60128  1  0  0  0
 60129  1  0  0  0
 60130  1  0  0  0
 61131  1  0  0  0
 61132  1  0  0  0
 61133  1  0  0  0
 62134  1  0  0  0
 62135  1  0  0  0
 62136  1  0  0  0
 63 65  1  0  0  0
 63137  1  0  0  0
 63138  1  0  0  0
 63139  1  0  0  0
 64140  1  0  0  0
 65141  1  0  0  0
 68 80  1  0  0  0
 71 72  2  0  0  0
 71 75  1  0  0  0
 71142  1  0  0  0
 72 76  1  0  0  0
 72143  1  0  0  0
 73 74  1  0  0  0
 73 75  2  0  0  0
 73144  1  0  0  0
 74 76  2  0  0  0
 74 78  1  0  0  0
 75 81  1  0  0  0
 76 82  1  0  0  0
 77 79  1  0  0  0
 77 81  2  0  0  0
 77145  1  0  0  0
 78146  1  0  0  0
 78147  1  0  0  0
 78148  1  0  0  0
 79 80  1  0  0  0
 79149  1  0  0  0
 79150  1  0  0  0
 80151  1  0  0  0
 80152  1  0  0  0
 82153  1  0  0  0
M  ISO  4   1 100  68 101  80 101  82 100
M  END
> <chiral flag>
0

> <version>
0

> <s_m_source_file>
/data/baiqing/PycharmProjects/Reinvent-master-3.2/result/LINK_invent/BTK/process_docking_weight1_custom_product_contain_oxygen_bond_distance_aromatic_linkinvent_7_9_3/rearranged_h_0115.sdf

> <i_m_source_file_index>
65

> <r_mmod_Potential_Energy-OPLS-2005>
15.7927408218384

> <r_mmod_Stretch_Energy-OPLS-2005>
84.4126586914062

> <r_mmod_Bend_Energy-OPLS-2005>
150.109741210938

> <r_mmod_Torsional_Energy-OPLS-2005>
209.56037902832

> <r_mmod_Improper_Torsional_Energy-OPLS-2005>
4.14524221420288

> <r_mmod_Van_der_Waal_Energy-OPLS-2005>
145.722717285156

> <r_mmod_Electrostatic_Energy-OPLS-2005>
-414.987640380859

> <r_mmod_Solvation_Energy-OPLS-2005>
-215.020568847656

> <b_mmod_Minimization_Converged-OPLS-2005>
0

> <r_mmod_RMS_Derivative-OPLS-2005>
0.491229653358459

$$$$
65
                    3D
 Structure written by MMmdl.
153161  0  0  1  0            999 V2000
  -30.5224  -14.8648   20.5153 C   0  0  0  0  0  0
  -30.4629  -12.5449   19.4876 C   0  0  0  0  0  0
  -29.5265  -12.5543   18.2521 C   0  0  0  0  0  0
  -28.0546  -12.3511   18.6669 C   0  0  0  0  0  0
  -27.6524  -13.2364   19.8742 C   0  0  2  0  0  0
  -28.6986  -13.1473   21.0068 C   0  0  0  0  0  0
  -25.2507  -13.8180   20.5681 C   0  0  0  0  0  0
  -24.1810  -13.0440   20.9215 C   0  0  0  0  0  0
  -24.6415  -11.6921   20.8722 C   0  0  0  0  0  0
  -23.9091  -10.4301   21.0362 C   0  0  0  0  0  0
  -24.3644   -9.4229   21.9142 C   0  0  0  0  0  0
  -23.6309   -8.2281   22.0750 C   0  0  0  0  0  0
  -22.4280   -8.0312   21.3555 C   0  0  0  0  0  0
  -21.9908   -9.0288   20.4657 C   0  0  0  0  0  0
  -22.7250  -10.2146   20.3040 C   0  0  0  0  0  0
  -21.6875   -6.0727   22.5247 C   0  0  0  0  0  0
  -21.4045   -6.5634   23.8179 C   0  0  0  0  0  0
  -21.3646   -5.6786   24.9141 C   0  0  0  0  0  0
  -21.6041   -4.3049   24.7197 C   0  0  0  0  0  0
  -21.8832   -3.8141   23.4322 C   0  0  0  0  0  0
  -21.9220   -4.6953   22.3381 C   0  0  0  0  0  0
  -22.7828  -13.5223   21.1847 C   0  0  0  0  0  0
  -22.1674   -4.2131   21.0957 F   0  0  0  0  0  0
  -21.5610   -3.4539   25.7712 F   0  0  0  0  0  0
  -29.9924  -13.5803   20.4482 N   0  0  0  0  0  0
  -26.2994  -12.9418   20.3366 N   0  0  0  0  0  0
  -25.9368  -11.6555   20.5778 N   0  0  0  0  0  0
  -22.0511  -12.8179   22.0381 N   0  0  0  0  0  0
  -25.4155  -15.1888   20.4033 N   0  0  0  0  0  0
  -31.6583  -15.0637   20.0650 O   0  0  0  0  0  0
  -21.6672   -6.8879   21.4223 O   0  0  0  0  0  0
  -22.3504  -14.5543   20.6706 O   0  0  0  0  0  0
  -24.6385  -31.8506   23.1927 C   0  0  0  0  0  0
  -25.9192  -32.4732   23.8309 C   0  0  1  0  0  0
  -27.2377  -27.1954   20.1616 C   0  0  0  0  0  0
  -25.5944  -33.8535   24.2236 N   0  0  0  0  0  0
  -23.4429  -30.4653   21.5365 C   0  0  2  0  0  0
  -24.8990  -28.8924   20.1313 C   0  0  0  0  0  0
  -22.7580  -29.4566   22.4914 C   0  0  0  0  0  0
  -18.0342  -28.1389   22.8469 C   0  0  0  0  0  0
  -24.1494  -36.7270   23.2645 C   0  0  0  0  0  0
  -25.9946  -30.7397   21.3872 C   0  0  0  0  0  0
  -26.0739  -29.3465   20.7511 C   0  0  0  0  0  0
  -27.2504  -28.5109   20.7588 C   0  0  0  0  0  0
  -26.0371  -26.8214   19.5274 C   0  0  0  0  0  0
  -24.8873  -27.6346   19.5105 C   0  0  0  0  0  0
  -23.6730  -29.7882   20.1593 C   0  0  0  0  0  0
  -25.4120  -36.3059   24.0336 C   0  0  1  0  0  0
  -20.5937  -28.3712   23.1251 C   0  0  2  0  0  0
  -20.6840  -26.9431   22.5392 C   0  0  0  0  0  0
  -19.5816  -26.6380   21.5218 C   0  0  0  0  0  0
  -18.1992  -26.7940   22.1614 C   0  0  0  0  0  0
  -19.1584  -28.8884   23.2855 C   0  0  0  0  0  0
  -18.9471  -30.1475   23.8892 C   0  0  0  0  0  0
  -17.6451  -30.6574   24.0546 C   0  0  0  0  0  0
  -25.9064  -34.9426   23.5094 C   0  0  0  0  0  0
  -16.5358  -29.9045   23.6297 C   0  0  0  0  0  0
  -16.7321  -28.6466   23.0326 C   0  0  0  0  0  0
  -26.4519  -31.6557   25.0713 C   0  0  0  0  0  0
  -25.3712  -31.3726   26.1406 C   0  0  0  0  0  0
  -27.0369  -30.2971   24.6218 C   0  0  0  0  0  0
  -27.6060  -32.4286   25.7486 C   0  0  0  0  0  0
  -27.5569  -37.1801   24.8477 C   0  0  0  0  0  0
  -21.4278  -29.3051   22.3663 N   0  0  0  0  0  0
  -26.4294  -37.3757   23.9404 N   0  0  0  0  0  0
  -24.7115  -31.0400   22.0944 N   0  0  0  0  0  0
  -23.4245  -28.8150   23.3075 O   0  0  0  0  0  0
  -28.2908  -26.2500   19.9802 O   0  0  0  0  0  0
  -26.5630  -34.8910   22.4654 O   0  0  0  0  0  0
  -23.5494  -32.1366   23.7143 O   0  0  0  0  0  0
  -27.7158  -19.7848   21.0005 C   0  0  0  0  0  0
  -29.8564  -18.6330   20.7314 C   0  0  0  0  0  0
  -27.8665  -17.3607   21.2807 C   0  0  0  0  0  0
  -29.0975  -19.9152   20.7865 C   0  0  0  0  0  0
  -27.1133  -18.5561   21.3156 C   0  0  0  0  0  0
  -29.2405  -17.2998   20.9476 C   0  0  0  0  0  0
  -29.5346  -21.4318   20.8629 C   0  0  0  0  0  0
  -28.8680  -22.6397   20.5565 C   0  0  0  0  0  0
  -29.1659  -24.0326   21.1322 C   0  0  0  0  0  0
  -28.8749  -25.4080   20.9688 C   0  0  0  0  0  0
  -25.6700  -18.5628   21.7343 C   0  0  0  0  0  0
  -25.3472  -17.7852   22.7595 N   0  0  0  0  0  0
  -29.7177  -15.8592   21.0963 N   0  0  0  0  0  0
  -24.8517  -19.3237   21.2183 O   0  0  0  0  0  0
  -31.4921  -12.7257   19.1725 H   0  0  0  0  0  0
  -30.4654  -11.5607   19.9572 H   0  0  0  0  0  0
  -29.8239  -11.7792   17.5443 H   0  0  0  0  0  0
  -29.6293  -13.5049   17.7227 H   0  0  0  0  0  0
  -27.9238  -11.2985   18.9250 H   0  0  0  0  0  0
  -27.3928  -12.5394   17.8213 H   0  0  0  0  0  0
  -27.6545  -14.2666   19.5164 H   0  0  0  0  0  0
  -28.7669  -12.1234   21.3804 H   0  0  0  0  0  0
  -28.4079  -13.7521   21.8668 H   0  0  0  0  0  0
  -25.2801   -9.5707   22.4683 H   0  0  0  0  0  0
  -24.0011   -7.4685   22.7488 H   0  0  0  0  0  0
  -21.0815   -8.8839   19.8985 H   0  0  0  0  0  0
  -22.3716  -10.9691   19.6155 H   0  0  0  0  0  0
  -21.2066   -7.6149   23.9654 H   0  0  0  0  0  0
  -21.1432   -6.0531   25.9021 H   0  0  0  0  0  0
  -22.0625   -2.7603   23.2836 H   0  0  0  0  0  0
  -22.4194  -11.9834   22.4714 H   0  0  0  0  0  0
  -21.1143  -13.1163   22.2654 H   0  0  0  0  0  0
  -24.6619  -15.8439   20.5764 H   0  0  0  0  0  0
  -26.2508  -15.6298   20.0459 H   0  0  0  0  0  0
  -26.7258  -32.5399   23.1038 H   0  0  0  0  0  0
  -25.0090  -33.9650   25.0384 H   0  0  0  0  0  0
  -22.7417  -31.2899   21.3792 H   0  0  0  0  0  0
  -23.3746  -35.9612   23.3326 H   0  0  0  0  0  0
  -24.3593  -36.8862   22.2052 H   0  0  0  0  0  0
  -23.7255  -37.6487   23.6645 H   0  0  0  0  0  0
  -26.1316  -31.4855   20.6018 H   0  0  0  0  0  0
  -26.8714  -30.8112   22.0154 H   0  0  0  0  0  0
  -28.1580  -28.8650   21.2272 H   0  0  0  0  0  0
  -25.9917  -25.8573   19.0433 H   0  0  0  0  0  0
  -23.9925  -27.2793   19.0188 H   0  0  0  0  0  0
  -23.8148  -30.5598   19.4010 H   0  0  0  0  0  0
  -22.7907  -29.2251   19.8471 H   0  0  0  0  0  0
  -25.1294  -36.1898   25.0827 H   0  0  0  0  0  0
  -21.0015  -28.3271   24.1380 H   0  0  0  0  0  0
  -20.5794  -26.2313   23.3599 H   0  0  0  0  0  0
  -21.6689  -26.7485   22.1151 H   0  0  0  0  0  0
  -19.6974  -25.6277   21.1256 H   0  0  0  0  0  0
  -19.6759  -27.3172   20.6733 H   0  0  0  0  0  0
  -17.4269  -26.6688   21.3987 H   0  0  0  0  0  0
  -18.0381  -26.0102   22.9023 H   0  0  0  0  0  0
  -19.7936  -30.7307   24.2245 H   0  0  0  0  0  0
  -17.4965  -31.6256   24.5143 H   0  0  0  0  0  0
  -15.5343  -30.2910   23.7622 H   0  0  0  0  0  0
  -15.8729  -28.0777   22.7001 H   0  0  0  0  0  0
  -24.5906  -30.7046   25.7732 H   0  0  0  0  0  0
  -24.8860  -32.2892   26.4774 H   0  0  0  0  0  0
  -25.8005  -30.8947   27.0218 H   0  0  0  0  0  0
  -26.2958  -29.6697   24.1225 H   0  0  0  0  0  0
  -27.4040  -29.7253   25.4749 H   0  0  0  0  0  0
  -27.8855  -30.4250   23.9490 H   0  0  0  0  0  0
  -27.2692  -33.3614   26.2026 H   0  0  0  0  0  0
  -28.3903  -32.6784   25.0324 H   0  0  0  0  0  0
  -28.0697  -31.8416   26.5422 H   0  0  0  0  0  0
  -28.2607  -38.0074   24.7467 H   0  0  0  0  0  0
  -28.1039  -36.2589   24.6365 H   0  0  0  0  0  0
  -27.2291  -37.1545   25.8890 H   0  0  0  0  0  0
  -20.9529  -29.8699   21.6769 H   0  0  0  0  0  0
  -26.0169  -38.2843   24.1349 H   0  0  0  0  0  0
  -27.1011  -20.6703   21.0793 H   0  0  0  0  0  0
  -30.9275  -18.6809   20.5942 H   0  0  0  0  0  0
  -27.3569  -16.4502   21.5578 H   0  0  0  0  0  0
  -30.4659  -21.5561   21.3980 H   0  0  0  0  0  0
  -27.9740  -22.5668   19.9555 H   0  0  0  0  0  0
  -29.7481  -23.9127   22.0360 H   0  0  0  0  0  0
  -29.2508  -26.0588   21.7482 H   0  0  0  0  0  0
  -26.0435  -17.2138   23.2111 H   0  0  0  0  0  0
  -24.4101  -17.8084   23.1310 H   0  0  0  0  0  0
  -28.9915  -15.3317   21.5553 H   0  0  0  0  0  0
  1 25  1  0  0  0
  1 30  2  0  0  0
  1 83  1  0  0  0
  2  3  1  0  0  0
  2 25  1  0  0  0
  2 85  1  0  0  0
  2 86  1  0  0  0
  3  4  1  0  0  0
  3 87  1  0  0  0
  3 88  1  0  0  0
  4  5  1  0  0  0
  4 89  1  0  0  0
  4 90  1  0  0  0
  5  6  1  0  0  0
  5 26  1  0  0  0
  5 91  1  0  0  0
  6 25  1  0  0  0
  6 92  1  0  0  0
  6 93  1  0  0  0
  7  8  2  0  0  0
  7 26  1  0  0  0
  7 29  1  0  0  0
  8  9  1  0  0  0
  8 22  1  0  0  0
  9 10  1  0  0  0
  9 27  2  0  0  0
 10 11  2  0  0  0
 10 15  1  0  0  0
 11 12  1  0  0  0
 11 94  1  0  0  0
 12 13  2  0  0  0
 12 95  1  0  0  0
 13 14  1  0  0  0
 13 31  1  0  0  0
 14 15  2  0  0  0
 14 96  1  0  0  0
 15 97  1  0  0  0
 16 17  2  0  0  0
 16 21  1  0  0  0
 16 31  1  0  0  0
 17 18  1  0  0  0
 17 98  1  0  0  0
 18 19  2  0  0  0
 18 99  1  0  0  0
 19 20  1  0  0  0
 19 24  1  0  0  0
 20 21  2  0  0  0
 20100  1  0  0  0
 21 23  1  0  0  0
 22 28  1  0  0  0
 22 32  2  0  0  0
 26 27  1  0  0  0
 28101  1  0  0  0
 28102  1  0  0  0
 29103  1  0  0  0
 29104  1  0  0  0
 33 34  1  0  0  0
 33 66  1  0  0  0
 33 70  2  0  0  0
 34 36  1  0  0  0
 34 59  1  0  0  0
 34105  1  0  0  0
 35 44  2  0  0  0
 35 45  1  0  0  0
 35 68  1  0  0  0
 36 56  1  0  0  0
 36106  1  0  0  0
 37 39  1  0  0  0
 37 47  1  0  0  0
 37 66  1  0  0  0
 37107  1  0  0  0
 38 43  2  0  0  0
 38 46  1  0  0  0
 38 47  1  0  0  0
 39 64  1  0  0  0
 39 67  2  0  0  0
 40 52  1  0  0  0
 40 53  2  0  0  0
 40 58  1  0  0  0
 41108  1  0  0  0
 41109  1  0  0  0
 41110  1  0  0  0
 41 48  1  0  0  0
 42 43  1  0  0  0
 42 66  1  0  0  0
 42111  1  0  0  0
 42112  1  0  0  0
 43 44  1  0  0  0
 44113  1  0  0  0
 45 46  2  0  0  0
 45114  1  0  0  0
 46115  1  0  0  0
 47116  1  0  0  0
 47117  1  0  0  0
 48 56  1  0  0  0
 48 65  1  0  0  0
 48118  1  0  0  0
 49 50  1  0  0  0
 49 53  1  0  0  0
 49 64  1  0  0  0
 49119  1  0  0  0
 50 51  1  0  0  0
 50120  1  0  0  0
 50121  1  0  0  0
 51 52  1  0  0  0
 51122  1  0  0  0
 51123  1  0  0  0
 52124  1  0  0  0
 52125  1  0  0  0
 53 54  1  0  0  0
 54 55  2  0  0  0
 54126  1  0  0  0
 55 57  1  0  0  0
 55127  1  0  0  0
 56 69  2  0  0  0
 57 58  2  0  0  0
 57128  1  0  0  0
 58129  1  0  0  0
 59 60  1  0  0  0
 59 61  1  0  0  0
 59 62  1  0  0  0
 60130  1  0  0  0
 60131  1  0  0  0
 60132  1  0  0  0
 61133  1  0  0  0
 61134  1  0  0  0
 61135  1  0  0  0
 62136  1  0  0  0
 62137  1  0  0  0
 62138  1  0  0  0
 63 65  1  0  0  0
 63139  1  0  0  0
 63140  1  0  0  0
 63141  1  0  0  0
 64142  1  0  0  0
 65143  1  0  0  0
 68 80  1  0  0  0
 71 74  2  0  0  0
 71 75  1  0  0  0
 71144  1  0  0  0
 72 74  1  0  0  0
 72 76  2  0  0  0
 72145  1  0  0  0
 73 75  2  0  0  0
 73 76  1  0  0  0
 73146  1  0  0  0
 74 77  1  0  0  0
 75 81  1  0  0  0
 76 83  1  0  0  0
 77 78  2  0  0  0
 77147  1  0  0  0
 78 79  1  0  0  0
 78148  1  0  0  0
 79 80  2  0  0  0
 79149  1  0  0  0
 80150  1  0  0  0
 81 82  1  0  0  0
 81 84  2  0  0  0
 82151  1  0  0  0
 82152  1  0  0  0
 83153  1  0  0  0
M  ISO  4   1 100  68 101  80 101  83 100
M  END
> <chiral flag>
0

> <version>
0

> <s_m_source_file>
/data/baiqing/PycharmProjects/Reinvent-master-3.2/result/LINK_invent/BTK/process_docking_weight1_custom_product_contain_oxygen_bond_distance_aromatic_linkinvent_7_9_3/rearranged_h_0115.sdf

> <i_m_source_file_index>
66

> <r_mmod_Potential_Energy-OPLS-2005>
345.976806640625

> <r_mmod_Stretch_Energy-OPLS-2005>
183.162902832031

> <r_mmod_Bend_Energy-OPLS-2005>
338.824188232422

> <r_mmod_Torsional_Energy-OPLS-2005>
288.456756591797

> <r_mmod_Improper_Torsional_Energy-OPLS-2005>
14.3945074081421

> <r_mmod_Van_der_Waal_Energy-OPLS-2005>
127.011344909668

> <r_mmod_Electrostatic_Energy-OPLS-2005>
-500.621215820312

> <r_mmod_Solvation_Energy-OPLS-2005>
-244.219833374023

> <b_mmod_Minimization_Converged-OPLS-2005>
0

> <r_mmod_RMS_Derivative-OPLS-2005>
4.26005697250366

$$$$
66
                    3D
 Structure written by MMmdl.
157165  0  0  1  0            999 V2000
  -30.7594  -14.4547   20.6043 C   0  0  0  0  0  0
  -30.4135  -12.3166   19.4120 C   0  0  0  0  0  0
  -29.4892  -12.5234   18.1987 C   0  0  0  0  0  0
  -28.0138  -12.3862   18.6170 C   0  0  0  0  0  0
  -27.6650  -13.2163   19.8825 C   0  0  2  0  0  0
  -28.7135  -13.0074   20.9995 C   0  0  0  0  0  0
  -25.2634  -13.8156   20.5770 C   0  0  0  0  0  0
  -24.1853  -13.0440   20.9186 C   0  0  0  0  0  0
  -24.6409  -11.6897   20.8722 C   0  0  0  0  0  0
  -23.9057  -10.4282   21.0379 C   0  0  0  0  0  0
  -24.3621   -9.4188   21.9148 C   0  0  0  0  0  0
  -23.6284   -8.2227   22.0736 C   0  0  0  0  0  0
  -22.4268   -8.0272   21.3529 C   0  0  0  0  0  0
  -21.9891   -9.0244   20.4635 C   0  0  0  0  0  0
  -22.7224  -10.2122   20.3034 C   0  0  0  0  0  0
  -21.6850   -6.0703   22.5278 C   0  0  0  0  0  0
  -21.4003   -6.5624   23.8201 C   0  0  0  0  0  0
  -21.3649   -5.6786   24.9172 C   0  0  0  0  0  0
  -21.6053   -4.3040   24.7234 C   0  0  0  0  0  0
  -21.8836   -3.8122   23.4354 C   0  0  0  0  0  0
  -21.9203   -4.6932   22.3409 C   0  0  0  0  0  0
  -22.7879  -13.5249   21.1831 C   0  0  0  0  0  0
  -22.1688   -4.2114   21.0982 F   0  0  0  0  0  0
  -21.5615   -3.4525   25.7752 F   0  0  0  0  0  0
  -30.0326  -13.3120   20.4342 N   0  0  0  0  0  0
  -26.3065  -12.9352   20.3421 N   0  0  0  0  0  0
  -25.9351  -11.6501   20.5779 N   0  0  0  0  0  0
  -22.0500  -12.8246   22.0370 N   0  0  0  0  0  0
  -25.4405  -15.1886   20.4327 N   0  0  0  0  0  0
  -31.8791  -14.5578   20.0972 O   0  0  0  0  0  0
  -21.6647   -6.8855   21.4235 O   0  0  0  0  0  0
  -22.3575  -14.5570   20.6675 O   0  0  0  0  0  0
  -24.6179  -31.8613   23.2021 C   0  0  0  0  0  0
  -25.9054  -32.4776   23.8329 C   0  0  1  0  0  0
  -27.2507  -27.3955   20.1180 C   0  0  0  0  0  0
  -25.5882  -33.8575   24.2270 N   0  0  0  0  0  0
  -23.4100  -30.4817   21.5435 C   0  0  2  0  0  0
  -24.8630  -28.9345   20.1231 C   0  0  0  0  0  0
  -22.7432  -29.4617   22.4944 C   0  0  0  0  0  0
  -18.0277  -28.1402   22.8474 C   0  0  0  0  0  0
  -24.1471  -36.7267   23.2634 C   0  0  0  0  0  0
  -25.9433  -30.8199   21.3607 C   0  0  0  0  0  0
  -26.0252  -29.4510   20.7085 C   0  0  0  0  0  0
  -27.2231  -28.6929   20.6931 C   0  0  0  0  0  0
  -26.0653  -26.8984   19.5314 C   0  0  0  0  0  0
  -24.8779  -27.6570   19.5367 C   0  0  0  0  0  0
  -23.6267  -29.8047   20.1625 C   0  0  0  0  0  0
  -25.4095  -36.3073   24.0336 C   0  0  1  0  0  0
  -20.5863  -28.3658   23.1310 C   0  0  2  0  0  0
  -20.6749  -26.9380   22.5441 C   0  0  0  0  0  0
  -19.5753  -26.6404   21.5196 C   0  0  0  0  0  0
  -18.1932  -26.7952   22.1610 C   0  0  0  0  0  0
  -19.1528  -28.8844   23.2901 C   0  0  0  0  0  0
  -18.9463  -30.1438   23.8936 C   0  0  0  0  0  0
  -17.6464  -30.6572   24.0608 C   0  0  0  0  0  0
  -25.9039  -34.9449   23.5112 C   0  0  0  0  0  0
  -16.5355  -29.9098   23.6332 C   0  0  0  0  0  0
  -16.7268  -28.6538   23.0308 C   0  0  0  0  0  0
  -26.4476  -31.6589   25.0678 C   0  0  0  0  0  0
  -25.3757  -31.3764   26.1455 C   0  0  0  0  0  0
  -27.0283  -30.2998   24.6135 C   0  0  0  0  0  0
  -27.6074  -32.4304   25.7408 C   0  0  0  0  0  0
  -27.5584  -37.1772   24.8452 C   0  0  0  0  0  0
  -21.4146  -29.2995   22.3679 N   0  0  0  0  0  0
  -26.4256  -37.3785   23.9450 N   0  0  0  0  0  0
  -24.6752  -31.0693   22.0946 N   0  0  0  0  0  0
  -23.4186  -28.8178   23.3022 O   0  0  0  0  0  0
  -28.4203  -26.6476   20.1462 O   0  0  0  0  0  0
  -26.5624  -34.8926   22.4686 O   0  0  0  0  0  0
  -23.5362  -32.1374   23.7389 O   0  0  0  0  0  0
  -29.8547  -20.3559   22.2761 C   0  0  0  0  0  0
  -28.8803  -19.6977   20.1756 C   0  0  0  0  0  0
  -30.0789  -18.0043   21.5227 C   0  0  0  0  0  0
  -30.3186  -19.0305   22.4976 C   0  0  0  0  0  0
  -29.1843  -20.7318   21.0888 C   0  0  0  0  0  0
  -29.3145  -18.3638   20.3827 C   0  0  0  0  0  0
  -29.7006  -23.0003   20.8570 C   0  0  0  0  0  0
  -30.7965  -16.6552   21.5652 C   0  0  0  0  0  0
  -29.6344  -24.5143   20.5778 C   0  0  0  0  0  0
  -30.3711  -17.8614   24.7732 C   0  0  0  0  0  0
  -31.0967  -18.7931   23.7932 C   0  0  0  0  0  0
  -28.3059  -25.1942   20.1524 C   0  0  0  0  0  0
  -28.8097  -22.0710   20.8011 N   0  0  0  0  0  0
  -30.1514  -15.5098   21.2059 N   0  0  0  0  0  0
  -31.9833  -16.6467   21.9136 O   0  0  0  0  0  0
  -30.6589  -25.2029   20.6796 O   0  0  0  0  0  0
  -29.0348  -17.4464   19.4241 F   0  0  0  0  0  0
  -31.4537  -12.3961   19.0961 H   0  0  0  0  0  0
  -30.3126  -11.3039   19.8055 H   0  0  0  0  0  0
  -29.7263  -11.8086   17.4091 H   0  0  0  0  0  0
  -29.6616  -13.5142   17.7755 H   0  0  0  0  0  0
  -27.8152  -11.3283   18.7971 H   0  0  0  0  0  0
  -27.3665  -12.6840   17.7925 H   0  0  0  0  0  0
  -27.7099  -14.2675   19.5951 H   0  0  0  0  0  0
  -28.7010  -11.9716   21.3411 H   0  0  0  0  0  0
  -28.4908  -13.6122   21.8793 H   0  0  0  0  0  0
  -25.2760   -9.5654   22.4736 H   0  0  0  0  0  0
  -23.9985   -7.4616   22.7469 H   0  0  0  0  0  0
  -21.0803   -8.8762   19.8965 H   0  0  0  0  0  0
  -22.3649  -10.9671   19.6162 H   0  0  0  0  0  0
  -21.1989   -7.6130   23.9693 H   0  0  0  0  0  0
  -21.1460   -6.0511   25.9076 H   0  0  0  0  0  0
  -22.0635   -2.7586   23.2886 H   0  0  0  0  0  0
  -22.4137  -11.9925   22.4780 H   0  0  0  0  0  0
  -21.1089  -13.1220   22.2501 H   0  0  0  0  0  0
  -24.6982  -15.8552   20.6155 H   0  0  0  0  0  0
  -26.2940  -15.6301   20.1131 H   0  0  0  0  0  0
  -26.7120  -32.5481   23.1079 H   0  0  0  0  0  0
  -25.0003  -33.9714   25.0400 H   0  0  0  0  0  0
  -22.7001  -31.2967   21.3905 H   0  0  0  0  0  0
  -23.3745  -35.9578   23.3265 H   0  0  0  0  0  0
  -24.3574  -36.8917   22.2055 H   0  0  0  0  0  0
  -23.7199  -37.6448   23.6681 H   0  0  0  0  0  0
  -26.0610  -31.5865   20.5925 H   0  0  0  0  0  0
  -26.8296  -30.8732   21.9832 H   0  0  0  0  0  0
  -28.1226  -29.0887   21.1457 H   0  0  0  0  0  0
  -26.0399  -25.9172   19.0770 H   0  0  0  0  0  0
  -23.9797  -27.2405   19.1015 H   0  0  0  0  0  0
  -23.7492  -30.5734   19.3986 H   0  0  0  0  0  0
  -22.7521  -29.2269   19.8587 H   0  0  0  0  0  0
  -25.1264  -36.1900   25.0821 H   0  0  0  0  0  0
  -20.9971  -28.3260   24.1420 H   0  0  0  0  0  0
  -20.5570  -26.2276   23.3633 H   0  0  0  0  0  0
  -21.6645  -26.7373   22.1293 H   0  0  0  0  0  0
  -19.6916  -25.6330   21.1182 H   0  0  0  0  0  0
  -19.6707  -27.3244   20.6762 H   0  0  0  0  0  0
  -17.4187  -26.6647   21.4040 H   0  0  0  0  0  0
  -18.0361  -26.0103   22.9031 H   0  0  0  0  0  0
  -19.7935  -30.7238   24.2351 H   0  0  0  0  0  0
  -17.5015  -31.6228   24.5258 H   0  0  0  0  0  0
  -15.5364  -30.2999   23.7666 H   0  0  0  0  0  0
  -15.8664  -28.0881   22.6986 H   0  0  0  0  0  0
  -24.5848  -30.7195   25.7827 H   0  0  0  0  0  0
  -24.9042  -32.2963   26.4940 H   0  0  0  0  0  0
  -25.8099  -30.8888   27.0197 H   0  0  0  0  0  0
  -26.2835  -29.6720   24.1235 H   0  0  0  0  0  0
  -27.4052  -29.7288   25.4638 H   0  0  0  0  0  0
  -27.8676  -30.4233   23.9278 H   0  0  0  0  0  0
  -27.2736  -33.3630   26.1967 H   0  0  0  0  0  0
  -28.3878  -32.6825   25.0214 H   0  0  0  0  0  0
  -28.0743  -31.8429   26.5326 H   0  0  0  0  0  0
  -28.2568  -38.0099   24.7540 H   0  0  0  0  0  0
  -28.1100  -36.2646   24.6176 H   0  0  0  0  0  0
  -27.2338  -37.1325   25.8858 H   0  0  0  0  0  0
  -20.9332  -29.8637   21.6804 H   0  0  0  0  0  0
  -26.0116  -38.2824   24.1561 H   0  0  0  0  0  0
  -30.0493  -21.1098   23.0273 H   0  0  0  0  0  0
  -28.3445  -19.9287   19.2688 H   0  0  0  0  0  0
  -30.7150  -22.6969   21.1407 H   0  0  0  0  0  0
  -30.8833  -17.8463   25.7360 H   0  0  0  0  0  0
  -30.3316  -16.8353   24.4089 H   0  0  0  0  0  0
  -29.3474  -18.1946   24.9488 H   0  0  0  0  0  0
  -31.2713  -19.7476   24.2902 H   0  0  0  0  0  0
  -32.0988  -18.4263   23.5791 H   0  0  0  0  0  0
  -27.5220  -24.8758   20.8396 H   0  0  0  0  0  0
  -28.0434  -24.8458   19.1532 H   0  0  0  0  0  0
  -29.1509  -15.4806   21.2873 H   0  0  0  0  0  0
  1 25  1  0  0  0
  1 30  2  0  0  0
  1 84  1  0  0  0
  2  3  1  0  0  0
  2 25  1  0  0  0
  2 88  1  0  0  0
  2 89  1  0  0  0
  3  4  1  0  0  0
  3 90  1  0  0  0
  3 91  1  0  0  0
  4  5  1  0  0  0
  4 92  1  0  0  0
  4 93  1  0  0  0
  5  6  1  0  0  0
  5 26  1  0  0  0
  5 94  1  0  0  0
  6 25  1  0  0  0
  6 95  1  0  0  0
  6 96  1  0  0  0
  7  8  2  0  0  0
  7 26  1  0  0  0
  7 29  1  0  0  0
  8  9  1  0  0  0
  8 22  1  0  0  0
  9 10  1  0  0  0
  9 27  2  0  0  0
 10 11  2  0  0  0
 10 15  1  0  0  0
 11 12  1  0  0  0
 11 97  1  0  0  0
 12 13  2  0  0  0
 12 98  1  0  0  0
 13 14  1  0  0  0
 13 31  1  0  0  0
 14 15  2  0  0  0
 14 99  1  0  0  0
 15100  1  0  0  0
 16 17  2  0  0  0
 16 21  1  0  0  0
 16 31  1  0  0  0
 17 18  1  0  0  0
 17101  1  0  0  0
 18 19  2  0  0  0
 18102  1  0  0  0
 19 20  1  0  0  0
 19 24  1  0  0  0
 20 21  2  0  0  0
 20103  1  0  0  0
 21 23  1  0  0  0
 22 28  1  0  0  0
 22 32  2  0  0  0
 26 27  1  0  0  0
 28104  1  0  0  0
 28105  1  0  0  0
 29106  1  0  0  0
 29107  1  0  0  0
 33 34  1  0  0  0
 33 66  1  0  0  0
 33 70  2  0  0  0
 34 36  1  0  0  0
 34 59  1  0  0  0
 34108  1  0  0  0
 35 44  2  0  0  0
 35 45  1  0  0  0
 35 68  1  0  0  0
 36 56  1  0  0  0
 36109  1  0  0  0
 37 39  1  0  0  0
 37 47  1  0  0  0
 37 66  1  0  0  0
 37110  1  0  0  0
 38 43  2  0  0  0
 38 46  1  0  0  0
 38 47  1  0  0  0
 39 64  1  0  0  0
 39 67  2  0  0  0
 40 52  1  0  0  0
 40 53  2  0  0  0
 40 58  1  0  0  0
 41111  1  0  0  0
 41112  1  0  0  0
 41113  1  0  0  0
 41 48  1  0  0  0
 42 43  1  0  0  0
 42 66  1  0  0  0
 42114  1  0  0  0
 42115  1  0  0  0
 43 44  1  0  0  0
 44116  1  0  0  0
 45 46  2  0  0  0
 45117  1  0  0  0
 46118  1  0  0  0
 47119  1  0  0  0
 47120  1  0  0  0
 48 56  1  0  0  0
 48 65  1  0  0  0
 48121  1  0  0  0
 49 50  1  0  0  0
 49 53  1  0  0  0
 49 64  1  0  0  0
 49122  1  0  0  0
 50 51  1  0  0  0
 50123  1  0  0  0
 50124  1  0  0  0
 51 52  1  0  0  0
 51125  1  0  0  0
 51126  1  0  0  0
 52127  1  0  0  0
 52128  1  0  0  0
 53 54  1  0  0  0
 54 55  2  0  0  0
 54129  1  0  0  0
 55 57  1  0  0  0
 55130  1  0  0  0
 56 69  2  0  0  0
 57 58  2  0  0  0
 57131  1  0  0  0
 58132  1  0  0  0
 59 60  1  0  0  0
 59 61  1  0  0  0
 59 62  1  0  0  0
 60133  1  0  0  0
 60134  1  0  0  0
 60135  1  0  0  0
 61136  1  0  0  0
 61137  1  0  0  0
 61138  1  0  0  0
 62139  1  0  0  0
 62140  1  0  0  0
 62141  1  0  0  0
 63 65  1  0  0  0
 63142  1  0  0  0
 63143  1  0  0  0
 63144  1  0  0  0
 64145  1  0  0  0
 65146  1  0  0  0
 68 82  1  0  0  0
 71 74  2  0  0  0
 71 75  1  0  0  0
 71147  1  0  0  0
 72 75  2  0  0  0
 72 76  1  0  0  0
 72148  1  0  0  0
 73 74  1  0  0  0
 73 76  2  0  0  0
 73 78  1  0  0  0
 74 81  1  0  0  0
 75 83  1  0  0  0
 76 87  1  0  0  0
 77 79  1  0  0  0
 77 83  2  0  0  0
 77149  1  0  0  0
 78 84  1  0  0  0
 78 85  2  0  0  0
 79 82  1  0  0  0
 79 86  2  0  0  0
 80 81  1  0  0  0
 80150  1  0  0  0
 80151  1  0  0  0
 80152  1  0  0  0
 81153  1  0  0  0
 81154  1  0  0  0
 82155  1  0  0  0
 82156  1  0  0  0
 84157  1  0  0  0
M  ISO  4   1 100  68 101  82 101  84 100
M  END
> <chiral flag>
0

> <version>
0

> <s_m_source_file>
/data/baiqing/PycharmProjects/Reinvent-master-3.2/result/LINK_invent/BTK/process_docking_weight1_custom_product_contain_oxygen_bond_distance_aromatic_linkinvent_7_9_3/rearranged_h_0115.sdf

> <i_m_source_file_index>
67

> <r_mmod_Potential_Energy-OPLS-2005>
28.6069660186768

> <r_mmod_Stretch_Energy-OPLS-2005>
54.1873245239258

> <r_mmod_Bend_Energy-OPLS-2005>
113.074836730957

> <r_mmod_Torsional_Energy-OPLS-2005>
251.501586914062

> <r_mmod_Improper_Torsional_Energy-OPLS-2005>
4.4410252571106

> <r_mmod_Van_der_Waal_Energy-OPLS-2005>
167.132537841797

> <r_mmod_Electrostatic_Energy-OPLS-2005>
-347.880249023438

> <r_mmod_Solvation_Energy-OPLS-2005>
-231.751327514648

> <b_mmod_Minimization_Converged-OPLS-2005>
0

> <r_mmod_RMS_Derivative-OPLS-2005>
4.08738994598389

$$$$
67
                    3D
 Structure written by MMmdl.
164173  0  0  1  0            999 V2000
  -30.5899  -14.6787   20.4916 C   0  0  0  0  0  0
  -30.4322  -12.4089   19.4613 C   0  0  0  0  0  0
  -29.4977  -12.4837   18.2312 C   0  0  0  0  0  0
  -28.0207  -12.3158   18.6466 C   0  0  0  0  0  0
  -27.6368  -13.2140   19.8534 C   0  0  2  0  0  0
  -28.6832  -13.1074   20.9827 C   0  0  0  0  0  0
  -25.2506  -13.8163   20.5715 C   0  0  0  0  0  0
  -24.1778  -13.0440   20.9243 C   0  0  0  0  0  0
  -24.6322  -11.6906   20.8734 C   0  0  0  0  0  0
  -23.8998  -10.4275   21.0382 C   0  0  0  0  0  0
  -24.3562   -9.4197   21.9167 C   0  0  0  0  0  0
  -23.6258   -8.2216   22.0727 C   0  0  0  0  0  0
  -22.4251   -8.0233   21.3512 C   0  0  0  0  0  0
  -21.9873   -9.0210   20.4636 C   0  0  0  0  0  0
  -22.7171  -10.2111   20.3054 C   0  0  0  0  0  0
  -21.6841   -6.0715   22.5266 C   0  0  0  0  0  0
  -21.4011   -6.5618   23.8199 C   0  0  0  0  0  0
  -21.3672   -5.6783   24.9163 C   0  0  0  0  0  0
  -21.6041   -4.3039   24.7222 C   0  0  0  0  0  0
  -21.8828   -3.8131   23.4345 C   0  0  0  0  0  0
  -21.9196   -4.6941   22.3384 C   0  0  0  0  0  0
  -22.7809  -13.5217   21.1938 C   0  0  0  0  0  0
  -22.1661   -4.2118   21.0972 F   0  0  0  0  0  0
  -21.5647   -3.4536   25.7747 F   0  0  0  0  0  0
  -29.9880  -13.4523   20.4028 N   0  0  0  0  0  0
  -26.2899  -12.9329   20.3316 N   0  0  0  0  0  0
  -25.9259  -11.6485   20.5806 N   0  0  0  0  0  0
  -22.0495  -12.8151   22.0490 N   0  0  0  0  0  0
  -25.4238  -15.1888   20.4045 N   0  0  0  0  0  0
  -31.7799  -14.8267   20.1984 O   0  0  0  0  0  0
  -21.6633   -6.8831   21.4209 O   0  0  0  0  0  0
  -22.3470  -14.5535   20.6825 O   0  0  0  0  0  0
  -24.6198  -31.8599   23.2134 C   0  0  0  0  0  0
  -25.9079  -32.4803   23.8400 C   0  0  1  0  0  0
  -27.2033  -27.3658   20.1067 C   0  0  0  0  0  0
  -25.5906  -33.8603   24.2349 N   0  0  0  0  0  0
  -23.4083  -30.4905   21.5545 C   0  0  2  0  0  0
  -24.8516  -28.9628   20.1086 C   0  0  0  0  0  0
  -22.7434  -29.4618   22.4955 C   0  0  0  0  0  0
  -18.0253  -28.1340   22.8518 C   0  0  0  0  0  0
  -24.1481  -36.7301   23.2636 C   0  0  0  0  0  0
  -25.9473  -30.8146   21.3685 C   0  0  0  0  0  0
  -26.0206  -29.4481   20.7070 C   0  0  0  0  0  0
  -27.2044  -28.6605   20.7029 C   0  0  0  0  0  0
  -26.0143  -26.9140   19.5010 C   0  0  0  0  0  0
  -24.8472  -27.7001   19.4926 C   0  0  0  0  0  0
  -23.6201  -29.8442   20.1621 C   0  0  0  0  0  0
  -25.4084  -36.3079   24.0357 C   0  0  1  0  0  0
  -20.5836  -28.3636   23.1295 C   0  0  2  0  0  0
  -20.6716  -26.9340   22.5423 C   0  0  0  0  0  0
  -19.5711  -26.6363   21.5187 C   0  0  0  0  0  0
  -18.1898  -26.7909   22.1604 C   0  0  0  0  0  0
  -19.1507  -28.8803   23.2923 C   0  0  0  0  0  0
  -18.9445  -30.1428   23.8927 C   0  0  0  0  0  0
  -17.6447  -30.6574   24.0546 C   0  0  0  0  0  0
  -25.9011  -34.9449   23.5149 C   0  0  0  0  0  0
  -16.5346  -29.9081   23.6308 C   0  0  0  0  0  0
  -16.7235  -28.6479   23.0348 C   0  0  0  0  0  0
  -26.4499  -31.6555   25.0737 C   0  0  0  0  0  0
  -25.3806  -31.3664   26.1533 C   0  0  0  0  0  0
  -27.0296  -30.2991   24.6087 C   0  0  0  0  0  0
  -27.6065  -32.4228   25.7510 C   0  0  0  0  0  0
  -27.5570  -37.1805   24.8474 C   0  0  0  0  0  0
  -21.4133  -29.3035   22.3735 N   0  0  0  0  0  0
  -26.4271  -37.3772   23.9428 N   0  0  0  0  0  0
  -24.6789  -31.0665   22.1055 N   0  0  0  0  0  0
  -23.4197  -28.8096   23.2971 O   0  0  0  0  0  0
  -28.3033  -26.5199   20.1984 O   0  0  0  0  0  0
  -26.5569  -34.8882   22.4708 O   0  0  0  0  0  0
  -23.5393  -32.1373   23.7513 O   0  0  0  0  0  0
  -30.2231  -19.8399   21.9521 C   0  0  0  0  0  0
  -29.0750  -18.1927   20.5647 C   0  0  0  0  0  0
  -29.2204  -19.5573   21.0031 C   0  0  0  0  0  0
  -31.0364  -18.8192   22.4937 C   0  0  0  0  0  0
  -29.9428  -17.1408   21.0270 C   0  0  0  0  0  0
  -30.9072  -17.4850   22.0176 C   0  0  0  0  0  0
  -28.4472  -24.1707   19.3838 C   0  0  0  0  0  0
  -31.8001  -20.1216   24.5213 C   0  0  0  0  0  0
  -31.9163  -19.0954   23.6583 C   0  0  0  0  0  0
  -28.4907  -25.5312   19.2447 C   0  0  0  0  0  0
  -28.2358  -20.6814   20.6588 C   0  0  0  0  0  0
  -28.7893  -23.2391   18.2570 C   0  0  0  0  0  0
  -28.1633  -23.2495   20.5835 C   0  0  0  0  0  0
  -29.3860  -22.0008   18.9425 C   0  0  0  0  0  0
  -31.1367  -15.9672   23.7820 C   0  0  0  0  0  0
  -28.7177  -21.8952   20.2413 N   0  0  0  0  0  0
  -29.7321  -15.7457   20.6258 N   0  0  0  0  0  0
  -27.0378  -20.5121   20.8958 O   0  0  0  0  0  0
  -31.6856  -16.5076   22.5868 O   0  0  0  0  0  0
  -31.4724  -12.5451   19.1666 H   0  0  0  0  0  0
  -30.3768  -11.4244   19.9328 H   0  0  0  0  0  0
  -29.7573  -11.7011   17.5196 H   0  0  0  0  0  0
  -29.6292  -13.4394   17.7231 H   0  0  0  0  0  0
  -27.8755  -11.2671   18.9124 H   0  0  0  0  0  0
  -27.3559  -12.5080   17.8024 H   0  0  0  0  0  0
  -27.6354  -14.2379   19.4784 H   0  0  0  0  0  0
  -28.7063  -12.0998   21.3969 H   0  0  0  0  0  0
  -28.4259  -13.7742   21.8099 H   0  0  0  0  0  0
  -25.2698   -9.5706   22.4769 H   0  0  0  0  0  0
  -23.9984   -7.4617   22.7450 H   0  0  0  0  0  0
  -21.0803   -8.8685   19.8960 H   0  0  0  0  0  0
  -22.3542  -10.9645   19.6184 H   0  0  0  0  0  0
  -21.1960   -7.6136   23.9670 H   0  0  0  0  0  0
  -21.1515   -6.0532   25.9063 H   0  0  0  0  0  0
  -22.0595   -2.7598   23.2856 H   0  0  0  0  0  0
  -22.4115  -11.9708   22.4718 H   0  0  0  0  0  0
  -21.1177  -13.1196   22.2898 H   0  0  0  0  0  0
  -24.6535  -15.8467   20.4754 H   0  0  0  0  0  0
  -26.2572  -15.6080   20.0131 H   0  0  0  0  0  0
  -26.7151  -32.5498   23.1140 H   0  0  0  0  0  0
  -25.0084  -33.9730   25.0521 H   0  0  0  0  0  0
  -22.7037  -31.3163   21.4253 H   0  0  0  0  0  0
  -23.3726  -35.9657   23.3289 H   0  0  0  0  0  0
  -24.3603  -36.8913   22.2056 H   0  0  0  0  0  0
  -23.7240  -37.6511   23.6652 H   0  0  0  0  0  0
  -26.0539  -31.5843   20.6004 H   0  0  0  0  0  0
  -26.8357  -30.8740   21.9829 H   0  0  0  0  0  0
  -28.1051  -29.0186   21.1837 H   0  0  0  0  0  0
  -25.9624  -25.9303   19.0582 H   0  0  0  0  0  0
  -23.9452  -27.3142   19.0392 H   0  0  0  0  0  0
  -23.7501  -30.6374   19.4259 H   0  0  0  0  0  0
  -22.7375  -29.2881   19.8447 H   0  0  0  0  0  0
  -25.1245  -36.1966   25.0859 H   0  0  0  0  0  0
  -20.9934  -28.3177   24.1395 H   0  0  0  0  0  0
  -20.5521  -26.2219   23.3595 H   0  0  0  0  0  0
  -21.6594  -26.7325   22.1235 H   0  0  0  0  0  0
  -19.6851  -25.6272   21.1200 H   0  0  0  0  0  0
  -19.6644  -27.3174   20.6719 H   0  0  0  0  0  0
  -17.4119  -26.6623   21.4048 H   0  0  0  0  0  0
  -18.0344  -26.0048   22.9016 H   0  0  0  0  0  0
  -19.7939  -30.7238   24.2284 H   0  0  0  0  0  0
  -17.5005  -31.6265   24.5145 H   0  0  0  0  0  0
  -15.5327  -30.2982   23.7644 H   0  0  0  0  0  0
  -15.8630  -28.0814   22.7033 H   0  0  0  0  0  0
  -24.6013  -30.6929   25.7956 H   0  0  0  0  0  0
  -24.8957  -32.2810   26.4960 H   0  0  0  0  0  0
  -25.8231  -30.8924   27.0313 H   0  0  0  0  0  0
  -26.2841  -29.6793   24.1102 H   0  0  0  0  0  0
  -27.4034  -29.7176   25.4516 H   0  0  0  0  0  0
  -27.8695  -30.4285   23.9248 H   0  0  0  0  0  0
  -27.2707  -33.3536   26.2099 H   0  0  0  0  0  0
  -28.3911  -32.6765   25.0365 H   0  0  0  0  0  0
  -28.0710  -31.8346   26.5431 H   0  0  0  0  0  0
  -28.2569  -38.0109   24.7477 H   0  0  0  0  0  0
  -28.1063  -36.2633   24.6324 H   0  0  0  0  0  0
  -27.2304  -37.1497   25.8879 H   0  0  0  0  0  0
  -20.9235  -29.8871   21.7078 H   0  0  0  0  0  0
  -26.0154  -38.2855   24.1450 H   0  0  0  0  0  0
  -30.3152  -20.8513   22.3290 H   0  0  0  0  0  0
  -28.2700  -17.9550   19.8790 H   0  0  0  0  0  0
  -32.4915  -20.2016   25.3459 H   0  0  0  0  0  0
  -31.0333  -20.8830   24.4463 H   0  0  0  0  0  0
  -32.7291  -18.3970   23.8250 H   0  0  0  0  0  0
  -28.7267  -25.9875   18.2909 H   0  0  0  0  0  0
  -29.4510  -23.6911   17.5171 H   0  0  0  0  0  0
  -27.8581  -22.9596   17.7599 H   0  0  0  0  0  0
  -27.0879  -23.2097   20.7687 H   0  0  0  0  0  0
  -28.6518  -23.6254   21.4824 H   0  0  0  0  0  0
  -29.2634  -21.1176   18.3128 H   0  0  0  0  0  0
  -30.4532  -22.1503   19.1091 H   0  0  0  0  0  0
  -30.7628  -16.7399   24.4559 H   0  0  0  0  0  0
  -31.9050  -15.4237   24.3302 H   0  0  0  0  0  0
  -30.3261  -15.2773   23.5597 H   0  0  0  0  0  0
  -28.7676  -15.4964   20.4801 H   0  0  0  0  0  0
  1 25  1  0  0  0
  1 30  2  0  0  0
  1 87  1  0  0  0
  2  3  1  0  0  0
  2 25  1  0  0  0
  2 90  1  0  0  0
  2 91  1  0  0  0
  3  4  1  0  0  0
  3 92  1  0  0  0
  3 93  1  0  0  0
  4  5  1  0  0  0
  4 94  1  0  0  0
  4 95  1  0  0  0
  5  6  1  0  0  0
  5 26  1  0  0  0
  5 96  1  0  0  0
  6 25  1  0  0  0
  6 97  1  0  0  0
  6 98  1  0  0  0
  7  8  2  0  0  0
  7 26  1  0  0  0
  7 29  1  0  0  0
  8  9  1  0  0  0
  8 22  1  0  0  0
  9 10  1  0  0  0
  9 27  2  0  0  0
 10 11  2  0  0  0
 10 15  1  0  0  0
 11 12  1  0  0  0
 11 99  1  0  0  0
 12 13  2  0  0  0
 12100  1  0  0  0
 13 14  1  0  0  0
 13 31  1  0  0  0
 14 15  2  0  0  0
 14101  1  0  0  0
 15102  1  0  0  0
 16 17  2  0  0  0
 16 21  1  0  0  0
 16 31  1  0  0  0
 17 18  1  0  0  0
 17103  1  0  0  0
 18 19  2  0  0  0
 18104  1  0  0  0
 19 20  1  0  0  0
 19 24  1  0  0  0
 20 21  2  0  0  0
 20105  1  0  0  0
 21 23  1  0  0  0
 22 28  1  0  0  0
 22 32  2  0  0  0
 26 27  1  0  0  0
 28106  1  0  0  0
 28107  1  0  0  0
 29108  1  0  0  0
 29109  1  0  0  0
 33 34  1  0  0  0
 33 66  1  0  0  0
 33 70  2  0  0  0
 34 36  1  0  0  0
 34 59  1  0  0  0
 34110  1  0  0  0
 35 44  2  0  0  0
 35 45  1  0  0  0
 35 68  1  0  0  0
 36 56  1  0  0  0
 36111  1  0  0  0
 37 39  1  0  0  0
 37 47  1  0  0  0
 37 66  1  0  0  0
 37112  1  0  0  0
 38 43  2  0  0  0
 38 46  1  0  0  0
 38 47  1  0  0  0
 39 64  1  0  0  0
 39 67  2  0  0  0
 40 52  1  0  0  0
 40 53  2  0  0  0
 40 58  1  0  0  0
 41113  1  0  0  0
 41114  1  0  0  0
 41115  1  0  0  0
 41 48  1  0  0  0
 42 43  1  0  0  0
 42 66  1  0  0  0
 42116  1  0  0  0
 42117  1  0  0  0
 43 44  1  0  0  0
 44118  1  0  0  0
 45 46  2  0  0  0
 45119  1  0  0  0
 46120  1  0  0  0
 47121  1  0  0  0
 47122  1  0  0  0
 48 56  1  0  0  0
 48 65  1  0  0  0
 48123  1  0  0  0
 49 50  1  0  0  0
 49 53  1  0  0  0
 49 64  1  0  0  0
 49124  1  0  0  0
 50 51  1  0  0  0
 50125  1  0  0  0
 50126  1  0  0  0
 51 52  1  0  0  0
 51127  1  0  0  0
 51128  1  0  0  0
 52129  1  0  0  0
 52130  1  0  0  0
 53 54  1  0  0  0
 54 55  2  0  0  0
 54131  1  0  0  0
 55 57  1  0  0  0
 55132  1  0  0  0
 56 69  2  0  0  0
 57 58  2  0  0  0
 57133  1  0  0  0
 58134  1  0  0  0
 59 60  1  0  0  0
 59 61  1  0  0  0
 59 62  1  0  0  0
 60135  1  0  0  0
 60136  1  0  0  0
 60137  1  0  0  0
 61138  1  0  0  0
 61139  1  0  0  0
 61140  1  0  0  0
 62141  1  0  0  0
 62142  1  0  0  0
 62143  1  0  0  0
 63 65  1  0  0  0
 63144  1  0  0  0
 63145  1  0  0  0
 63146  1  0  0  0
 64147  1  0  0  0
 65148  1  0  0  0
 68 80  1  0  0  0
 71 73  2  0  0  0
 71 74  1  0  0  0
 71149  1  0  0  0
 72 73  1  0  0  0
 72 75  2  0  0  0
 72150  1  0  0  0
 73 81  1  0  0  0
 74 76  2  0  0  0
 74 79  1  0  0  0
 75 76  1  0  0  0
 75 87  1  0  0  0
 76 89  1  0  0  0
 77 80  2  0  0  0
 77 82  1  0  0  0
 77 83  1  0  0  0
 78 79  2  0  0  0
 78151  1  0  0  0
 78152  1  0  0  0
 79153  1  0  0  0
 80154  1  0  0  0
 81 86  1  0  0  0
 81 88  2  0  0  0
 82 84  1  0  0  0
 82155  1  0  0  0
 82156  1  0  0  0
 83 86  1  0  0  0
 83157  1  0  0  0
 83158  1  0  0  0
 84 86  1  0  0  0
 84159  1  0  0  0
 84160  1  0  0  0
 85 89  1  0  0  0
 85161  1  0  0  0
 85162  1  0  0  0
 85163  1  0  0  0
 87164  1  0  0  0
M  ISO  4   1 100  68 101  80 101  87 100
M  END
> <chiral flag>
0

> <version>
0

> <s_m_source_file>
/data/baiqing/PycharmProjects/Reinvent-master-3.2/result/LINK_invent/BTK/process_docking_weight1_custom_product_contain_oxygen_bond_distance_aromatic_linkinvent_7_9_3/rearranged_h_0115.sdf

> <i_m_source_file_index>
68

> <r_mmod_Potential_Energy-OPLS-2005>
195.507614135742

> <r_mmod_Stretch_Energy-OPLS-2005>
68.4171295166016

> <r_mmod_Bend_Energy-OPLS-2005>
153.812774658203

> <r_mmod_Torsional_Energy-OPLS-2005>
372.672882080078

> <r_mmod_Improper_Torsional_Energy-OPLS-2005>
13.523365020752

> <r_mmod_Van_der_Waal_Energy-OPLS-2005>
142.756912231445

> <r_mmod_Electrostatic_Energy-OPLS-2005>
-381.585388183594

> <r_mmod_Solvation_Energy-OPLS-2005>
-228.936981201172

> <b_mmod_Minimization_Converged-OPLS-2005>
0

> <r_mmod_RMS_Derivative-OPLS-2005>
7.56704711914062

$$$$
68
                    3D
 Structure written by MMmdl.
152160  0  0  1  0            999 V2000
  -30.5678  -14.8945   20.4947 C   0  0  0  0  0  0
  -30.4453  -12.5595   19.5090 C   0  0  0  0  0  0
  -29.5235  -12.5443   18.2652 C   0  0  0  0  0  0
  -28.0542  -12.3286   18.6724 C   0  0  0  0  0  0
  -27.6413  -13.2384   19.8563 C   0  0  2  0  0  0
  -28.6783  -13.1946   20.9979 C   0  0  0  0  0  0
  -25.2498  -13.8205   20.5705 C   0  0  0  0  0  0
  -24.1792  -13.0441   20.9201 C   0  0  0  0  0  0
  -24.6389  -11.6920   20.8738 C   0  0  0  0  0  0
  -23.9067  -10.4295   21.0401 C   0  0  0  0  0  0
  -24.3613   -9.4211   21.9181 C   0  0  0  0  0  0
  -23.6284   -8.2250   22.0753 C   0  0  0  0  0  0
  -22.4271   -8.0281   21.3540 C   0  0  0  0  0  0
  -21.9903   -9.0256   20.4648 C   0  0  0  0  0  0
  -22.7234  -10.2137   20.3055 C   0  0  0  0  0  0
  -21.6856   -6.0728   22.5277 C   0  0  0  0  0  0
  -21.4014   -6.5630   23.8207 C   0  0  0  0  0  0
  -21.3661   -5.6787   24.9168 C   0  0  0  0  0  0
  -21.6046   -4.3051   24.7227 C   0  0  0  0  0  0
  -21.8815   -3.8138   23.4346 C   0  0  0  0  0  0
  -21.9189   -4.6954   22.3397 C   0  0  0  0  0  0
  -22.7812  -13.5222   21.1856 C   0  0  0  0  0  0
  -22.1656   -4.2137   21.0979 F   0  0  0  0  0  0
  -21.5630   -3.4536   25.7740 F   0  0  0  0  0  0
  -29.9746  -13.6267   20.4436 N   0  0  0  0  0  0
  -26.2928  -12.9422   20.3287 N   0  0  0  0  0  0
  -25.9325  -11.6558   20.5745 N   0  0  0  0  0  0
  -22.0464  -12.8226   22.0429 N   0  0  0  0  0  0
  -25.4171  -15.1931   20.4129 N   0  0  0  0  0  0
  -31.6893  -15.0173   19.9892 O   0  0  0  0  0  0
  -21.6639   -6.8874   21.4240 O   0  0  0  0  0  0
  -22.3495  -14.5522   20.6690 O   0  0  0  0  0  0
  -24.6417  -31.8463   23.1915 C   0  0  0  0  0  0
  -25.9195  -32.4709   23.8290 C   0  0  1  0  0  0
  -27.2166  -27.1535   20.1464 C   0  0  0  0  0  0
  -25.5949  -33.8518   24.2197 N   0  0  0  0  0  0
  -23.4441  -30.4678   21.5361 C   0  0  2  0  0  0
  -24.8955  -28.9040   20.1050 C   0  0  0  0  0  0
  -22.7561  -29.4551   22.4857 C   0  0  0  0  0  0
  -18.0303  -28.1399   22.8480 C   0  0  0  0  0  0
  -24.1490  -36.7264   23.2643 C   0  0  0  0  0  0
  -26.0006  -30.7230   21.3917 C   0  0  0  0  0  0
  -26.0705  -29.3376   20.7313 C   0  0  0  0  0  0
  -27.2301  -28.4769   20.7418 C   0  0  0  0  0  0
  -26.0224  -26.8343   19.4575 C   0  0  0  0  0  0
  -24.8846  -27.6650   19.4519 C   0  0  0  0  0  0
  -23.6693  -29.8009   20.1533 C   0  0  0  0  0  0
  -25.4122  -36.3046   24.0321 C   0  0  1  0  0  0
  -20.5915  -28.3721   23.1244 C   0  0  2  0  0  0
  -20.6792  -26.9423   22.5410 C   0  0  0  0  0  0
  -19.5759  -26.6376   21.5227 C   0  0  0  0  0  0
  -18.1934  -26.7938   22.1622 C   0  0  0  0  0  0
  -19.1562  -28.8878   23.2854 C   0  0  0  0  0  0
  -18.9479  -30.1476   23.8876 C   0  0  0  0  0  0
  -17.6478  -30.6598   24.0565 C   0  0  0  0  0  0
  -25.9070  -34.9418   23.5063 C   0  0  0  0  0  0
  -16.5366  -29.9090   23.6350 C   0  0  0  0  0  0
  -16.7288  -28.6511   23.0360 C   0  0  0  0  0  0
  -26.4519  -31.6580   25.0727 C   0  0  0  0  0  0
  -25.3694  -31.3771   26.1418 C   0  0  0  0  0  0
  -27.0386  -30.2980   24.6303 C   0  0  0  0  0  0
  -27.6047  -32.4366   25.7488 C   0  0  0  0  0  0
  -27.5580  -37.1784   24.8466 C   0  0  0  0  0  0
  -21.4255  -29.3057   22.3624 N   0  0  0  0  0  0
  -26.4287  -37.3757   23.9413 N   0  0  0  0  0  0
  -24.7149  -31.0331   22.0942 N   0  0  0  0  0  0
  -23.4209  -28.8084   23.2991 O   0  0  0  0  0  0
  -28.2551  -26.1579   20.2512 O   0  0  0  0  0  0
  -26.5649  -34.8915   22.4638 O   0  0  0  0  0  0
  -23.5543  -32.1330   23.7149 O   0  0  0  0  0  0
  -28.3955  -19.9539   21.1997 C   0  0  0  0  0  0
  -30.1668  -19.9128   19.6726 C   0  0  0  0  0  0
  -28.5718  -18.5301   21.4486 C   0  0  0  0  0  0
  -29.6164  -17.6998   20.8508 C   0  0  0  0  0  0
  -29.1693  -20.7384   20.2984 C   0  0  0  0  0  0
  -30.3931  -18.4952   19.9349 C   0  0  0  0  0  0
  -27.0595  -18.5473   23.4622 C   0  0  0  0  0  0
  -27.5858  -17.9409   22.3831 C   0  0  0  0  0  0
  -28.7175  -23.3114   20.4722 C   0  0  0  0  0  0
  -29.8928  -16.1553   21.3102 C   0  0  0  0  0  0
  -27.9659  -24.6753   19.8949 C   0  0  0  0  0  0
  -29.6178  -15.8747   22.5180 N   0  0  0  0  0  0
  -28.8080  -22.1200   19.8537 N   0  0  0  0  0  0
  -31.4117  -17.9002   19.2692 F   0  0  0  0  0  0
  -31.4804  -12.7096   19.1990 H   0  0  0  0  0  0
  -30.4343  -11.5883   20.0066 H   0  0  0  0  0  0
  -29.8374  -11.7628   17.5718 H   0  0  0  0  0  0
  -29.6199  -13.4892   17.7292 H   0  0  0  0  0  0
  -27.9402  -11.2817   18.9574 H   0  0  0  0  0  0
  -27.3934  -12.4858   17.8190 H   0  0  0  0  0  0
  -27.6288  -14.2562   19.4660 H   0  0  0  0  0  0
  -28.7532  -12.1886   21.4135 H   0  0  0  0  0  0
  -28.3456  -13.8215   21.8219 H   0  0  0  0  0  0
  -25.2757   -9.5691   22.4751 H   0  0  0  0  0  0
  -23.9991   -7.4648   22.7481 H   0  0  0  0  0  0
  -21.0830   -8.8777   19.8962 H   0  0  0  0  0  0
  -22.3686  -10.9672   19.6162 H   0  0  0  0  0  0
  -21.2008   -7.6142   23.9706 H   0  0  0  0  0  0
  -21.1486   -6.0518   25.9070 H   0  0  0  0  0  0
  -22.0589   -2.7600   23.2853 H   0  0  0  0  0  0
  -22.4089  -11.9902   22.4844 H   0  0  0  0  0  0
  -21.1081  -13.1253   22.2635 H   0  0  0  0  0  0
  -24.6462  -15.8423   20.5250 H   0  0  0  0  0  0
  -26.2618  -15.6363   20.0765 H   0  0  0  0  0  0
  -26.7249  -32.5318   23.1005 H   0  0  0  0  0  0
  -25.0114  -33.9637   25.0361 H   0  0  0  0  0  0
  -22.7458  -31.2942   21.3846 H   0  0  0  0  0  0
  -23.3765  -35.9584   23.3295 H   0  0  0  0  0  0
  -24.3578  -36.8903   22.2060 H   0  0  0  0  0  0
  -23.7230  -37.6451   23.6688 H   0  0  0  0  0  0
  -26.1580  -31.4766   20.6191 H   0  0  0  0  0  0
  -26.8719  -30.7698   22.0332 H   0  0  0  0  0  0
  -28.1184  -28.8004   21.2653 H   0  0  0  0  0  0
  -25.9225  -25.8996   18.9281 H   0  0  0  0  0  0
  -23.9922  -27.3341   18.9386 H   0  0  0  0  0  0
  -23.7988  -30.5781   19.3996 H   0  0  0  0  0  0
  -22.7856  -29.2395   19.8452 H   0  0  0  0  0  0
  -25.1302  -36.1877   25.0813 H   0  0  0  0  0  0
  -21.0012  -28.3313   24.1362 H   0  0  0  0  0  0
  -20.5715  -26.2326   23.3624 H   0  0  0  0  0  0
  -21.6654  -26.7443   22.1183 H   0  0  0  0  0  0
  -19.6928  -25.6282   21.1263 H   0  0  0  0  0  0
  -19.6708  -27.3182   20.6755 H   0  0  0  0  0  0
  -17.4213  -26.6710   21.4008 H   0  0  0  0  0  0
  -18.0318  -26.0079   22.9010 H   0  0  0  0  0  0
  -19.7951  -30.7306   24.2227 H   0  0  0  0  0  0
  -17.5023  -31.6278   24.5160 H   0  0  0  0  0  0
  -15.5365  -30.2979   23.7694 H   0  0  0  0  0  0
  -15.8682  -28.0827   22.7086 H   0  0  0  0  0  0
  -24.5885  -30.7107   25.7734 H   0  0  0  0  0  0
  -24.8868  -32.2958   26.4779 H   0  0  0  0  0  0
  -25.7965  -30.8984   27.0238 H   0  0  0  0  0  0
  -26.3007  -29.6701   24.1299 H   0  0  0  0  0  0
  -27.3995  -29.7287   25.4875 H   0  0  0  0  0  0
  -27.8910  -30.4228   23.9621 H   0  0  0  0  0  0
  -27.2646  -33.3711   26.1975 H   0  0  0  0  0  0
  -28.3883  -32.6872   25.0319 H   0  0  0  0  0  0
  -28.0684  -31.8556   26.5470 H   0  0  0  0  0  0
  -28.2581  -38.0095   24.7531 H   0  0  0  0  0  0
  -28.1088  -36.2628   24.6265 H   0  0  0  0  0  0
  -27.2301  -37.1398   25.8867 H   0  0  0  0  0  0
  -20.9473  -29.8772   21.6802 H   0  0  0  0  0  0
  -26.0157  -38.2823   24.1431 H   0  0  0  0  0  0
  -27.5626  -20.4564   21.6715 H   0  0  0  0  0  0
  -30.7962  -20.3746   18.9259 H   0  0  0  0  0  0
  -26.3280  -18.0408   24.0761 H   0  0  0  0  0  0
  -27.3441  -19.5465   23.7602 H   0  0  0  0  0  0
  -27.2382  -16.9428   22.1522 H   0  0  0  0  0  0
  -29.0950  -23.4334   21.4907 H   0  0  0  0  0  0
  -26.9282  -24.4955   20.1751 H   0  0  0  0  0  0
  -27.9857  -24.6127   18.8070 H   0  0  0  0  0  0
  -29.2338  -16.6824   22.9957 H   0  0  0  0  0  0
  1 25  1  0  0  0
  1 30  2  0  0  0
  1 80  1  0  0  0
  2  3  1  0  0  0
  2 25  1  0  0  0
  2 85  1  0  0  0
  2 86  1  0  0  0
  3  4  1  0  0  0
  3 87  1  0  0  0
  3 88  1  0  0  0
  4  5  1  0  0  0
  4 89  1  0  0  0
  4 90  1  0  0  0
  5  6  1  0  0  0
  5 26  1  0  0  0
  5 91  1  0  0  0
  6 25  1  0  0  0
  6 92  1  0  0  0
  6 93  1  0  0  0
  7  8  2  0  0  0
  7 26  1  0  0  0
  7 29  1  0  0  0
  8  9  1  0  0  0
  8 22  1  0  0  0
  9 10  1  0  0  0
  9 27  2  0  0  0
 10 11  2  0  0  0
 10 15  1  0  0  0
 11 12  1  0  0  0
 11 94  1  0  0  0
 12 13  2  0  0  0
 12 95  1  0  0  0
 13 14  1  0  0  0
 13 31  1  0  0  0
 14 15  2  0  0  0
 14 96  1  0  0  0
 15 97  1  0  0  0
 16 17  2  0  0  0
 16 21  1  0  0  0
 16 31  1  0  0  0
 17 18  1  0  0  0
 17 98  1  0  0  0
 18 19  2  0  0  0
 18 99  1  0  0  0
 19 20  1  0  0  0
 19 24  1  0  0  0
 20 21  2  0  0  0
 20100  1  0  0  0
 21 23  1  0  0  0
 22 28  1  0  0  0
 22 32  2  0  0  0
 26 27  1  0  0  0
 28101  1  0  0  0
 28102  1  0  0  0
 29103  1  0  0  0
 29104  1  0  0  0
 33 34  1  0  0  0
 33 66  1  0  0  0
 33 70  2  0  0  0
 34 36  1  0  0  0
 34 59  1  0  0  0
 34105  1  0  0  0
 35 44  2  0  0  0
 35 45  1  0  0  0
 35 68  1  0  0  0
 36 56  1  0  0  0
 36106  1  0  0  0
 37 39  1  0  0  0
 37 47  1  0  0  0
 37 66  1  0  0  0
 37107  1  0  0  0
 38 43  2  0  0  0
 38 46  1  0  0  0
 38 47  1  0  0  0
 39 64  1  0  0  0
 39 67  2  0  0  0
 40 52  1  0  0  0
 40 53  2  0  0  0
 40 58  1  0  0  0
 41108  1  0  0  0
 41109  1  0  0  0
 41110  1  0  0  0
 41 48  1  0  0  0
 42 43  1  0  0  0
 42 66  1  0  0  0
 42111  1  0  0  0
 42112  1  0  0  0
 43 44  1  0  0  0
 44113  1  0  0  0
 45 46  2  0  0  0
 45114  1  0  0  0
 46115  1  0  0  0
 47116  1  0  0  0
 47117  1  0  0  0
 48 56  1  0  0  0
 48 65  1  0  0  0
 48118  1  0  0  0
 49 50  1  0  0  0
 49 53  1  0  0  0
 49 64  1  0  0  0
 49119  1  0  0  0
 50 51  1  0  0  0
 50120  1  0  0  0
 50121  1  0  0  0
 51 52  1  0  0  0
 51122  1  0  0  0
 51123  1  0  0  0
 52124  1  0  0  0
 52125  1  0  0  0
 53 54  1  0  0  0
 54 55  2  0  0  0
 54126  1  0  0  0
 55 57  1  0  0  0
 55127  1  0  0  0
 56 69  2  0  0  0
 57 58  2  0  0  0
 57128  1  0  0  0
 58129  1  0  0  0
 59 60  1  0  0  0
 59 61  1  0  0  0
 59 62  1  0  0  0
 60130  1  0  0  0
 60131  1  0  0  0
 60132  1  0  0  0
 61133  1  0  0  0
 61134  1  0  0  0
 61135  1  0  0  0
 62136  1  0  0  0
 62137  1  0  0  0
 62138  1  0  0  0
 63 65  1  0  0  0
 63139  1  0  0  0
 63140  1  0  0  0
 63141  1  0  0  0
 64142  1  0  0  0
 65143  1  0  0  0
 68 81  1  0  0  0
 71 73  2  0  0  0
 71 75  1  0  0  0
 71144  1  0  0  0
 72 75  2  0  0  0
 72 76  1  0  0  0
 72145  1  0  0  0
 73 74  1  0  0  0
 73 78  1  0  0  0
 74 76  2  0  0  0
 74 80  1  0  0  0
 75 83  1  0  0  0
 76 84  1  0  0  0
 77 78  2  0  0  0
 77146  1  0  0  0
 77147  1  0  0  0
 78148  1  0  0  0
 79 81  1  0  0  0
 79 83  2  0  0  0
 79149  1  0  0  0
 80 82  2  0  0  0
 81150  1  0  0  0
 81151  1  0  0  0
 82152  1  0  0  0
M  ISO  4   1 100  68 101  80 100  81 101
M  END
> <chiral flag>
0

> <version>
0

> <s_m_source_file>
/data/baiqing/PycharmProjects/Reinvent-master-3.2/result/LINK_invent/BTK/process_docking_weight1_custom_product_contain_oxygen_bond_distance_aromatic_linkinvent_7_9_3/rearranged_h_0115.sdf

> <i_m_source_file_index>
69

> <r_mmod_Potential_Energy-OPLS-2005>
670.7353515625

> <r_mmod_Stretch_Energy-OPLS-2005>
245.509735107422

> <r_mmod_Bend_Energy-OPLS-2005>
275.660827636719

> <r_mmod_Torsional_Energy-OPLS-2005>
236.647216796875

> <r_mmod_Improper_Torsional_Energy-OPLS-2005>
6.48618698120117

> <r_mmod_Van_der_Waal_Energy-OPLS-2005>
151.774108886719

> <r_mmod_Electrostatic_Energy-OPLS-2005>
-208.863555908203

> <r_mmod_Solvation_Energy-OPLS-2005>
-203.537521362305

> <b_mmod_Minimization_Converged-OPLS-2005>
0

> <r_mmod_RMS_Derivative-OPLS-2005>
1.37496471405029

$$$$
69
                    3D
 Structure written by MMmdl.
161169  0  0  1  0            999 V2000
  -30.5946  -14.6708   20.4381 C   0  0  0  0  0  0
  -30.4445  -12.4000   19.4537 C   0  0  0  0  0  0
  -29.5133  -12.5184   18.2256 C   0  0  0  0  0  0
  -28.0350  -12.3431   18.6301 C   0  0  0  0  0  0
  -27.6520  -13.2035   19.8628 C   0  0  2  0  0  0
  -28.7020  -13.0862   20.9872 C   0  0  0  0  0  0
  -25.2599  -13.8110   20.5799 C   0  0  0  0  0  0
  -24.1819  -13.0397   20.9179 C   0  0  0  0  0  0
  -24.6372  -11.6865   20.8702 C   0  0  0  0  0  0
  -23.9032  -10.4273   21.0378 C   0  0  0  0  0  0
  -24.3592   -9.4201   21.9171 C   0  0  0  0  0  0
  -23.6278   -8.2234   22.0752 C   0  0  0  0  0  0
  -22.4262   -8.0268   21.3539 C   0  0  0  0  0  0
  -21.9884   -9.0234   20.4631 C   0  0  0  0  0  0
  -22.7201  -10.2116   20.3025 C   0  0  0  0  0  0
  -21.6843   -6.0722   22.5274 C   0  0  0  0  0  0
  -21.4002   -6.5632   23.8206 C   0  0  0  0  0  0
  -21.3665   -5.6790   24.9178 C   0  0  0  0  0  0
  -21.6046   -4.3044   24.7223 C   0  0  0  0  0  0
  -21.8825   -3.8136   23.4344 C   0  0  0  0  0  0
  -21.9194   -4.6953   22.3403 C   0  0  0  0  0  0
  -22.7848  -13.5215   21.1848 C   0  0  0  0  0  0
  -22.1669   -4.2137   21.0982 F   0  0  0  0  0  0
  -21.5640   -3.4530   25.7734 F   0  0  0  0  0  0
  -30.0218  -13.4237   20.4272 N   0  0  0  0  0  0
  -26.2996  -12.9258   20.3356 N   0  0  0  0  0  0
  -25.9294  -11.6420   20.5715 N   0  0  0  0  0  0
  -22.0472  -12.8223   22.0407 N   0  0  0  0  0  0
  -25.4355  -15.1832   20.4450 N   0  0  0  0  0  0
  -31.7838  -14.8021   20.1401 O   0  0  0  0  0  0
  -21.6621   -6.8866   21.4237 O   0  0  0  0  0  0
  -22.3546  -14.5527   20.6710 O   0  0  0  0  0  0
  -24.6217  -31.8613   23.2017 C   0  0  0  0  0  0
  -25.9065  -32.4803   23.8349 C   0  0  1  0  0  0
  -27.2391  -27.3473   20.1045 C   0  0  0  0  0  0
  -25.5889  -33.8599   24.2290 N   0  0  0  0  0  0
  -23.4134  -30.4821   21.5459 C   0  0  2  0  0  0
  -24.8620  -28.9367   20.1106 C   0  0  0  0  0  0
  -22.7438  -29.4621   22.4967 C   0  0  0  0  0  0
  -18.0268  -28.1375   22.8499 C   0  0  0  0  0  0
  -24.1471  -36.7315   23.2648 C   0  0  0  0  0  0
  -25.9478  -30.8034   21.3592 C   0  0  0  0  0  0
  -26.0250  -29.4270   20.7146 C   0  0  0  0  0  0
  -27.2093  -28.6394   20.7094 C   0  0  0  0  0  0
  -26.0470  -26.8982   19.4862 C   0  0  0  0  0  0
  -24.8733  -27.6773   19.4911 C   0  0  0  0  0  0
  -23.6240  -29.8082   20.1630 C   0  0  0  0  0  0
  -25.4094  -36.3103   24.0339 C   0  0  1  0  0  0
  -20.5868  -28.3659   23.1314 C   0  0  2  0  0  0
  -20.6749  -26.9384   22.5425 C   0  0  0  0  0  0
  -19.5735  -26.6365   21.5219 C   0  0  0  0  0  0
  -18.1911  -26.7922   22.1622 C   0  0  0  0  0  0
  -19.1525  -28.8829   23.2905 C   0  0  0  0  0  0
  -18.9454  -30.1440   23.8913 C   0  0  0  0  0  0
  -17.6452  -30.6589   24.0554 C   0  0  0  0  0  0
  -25.9027  -34.9471   23.5120 C   0  0  0  0  0  0
  -16.5341  -29.9083   23.6333 C   0  0  0  0  0  0
  -16.7257  -28.6500   23.0359 C   0  0  0  0  0  0
  -26.4462  -31.6594   25.0698 C   0  0  0  0  0  0
  -25.3712  -31.3705   26.1435 C   0  0  0  0  0  0
  -27.0279  -30.3038   24.6067 C   0  0  0  0  0  0
  -27.6030  -32.4302   25.7490 C   0  0  0  0  0  0
  -27.5573  -37.1810   24.8464 C   0  0  0  0  0  0
  -21.4152  -29.3025   22.3710 N   0  0  0  0  0  0
  -26.4279  -37.3791   23.9415 N   0  0  0  0  0  0
  -24.6810  -31.0641   22.0953 N   0  0  0  0  0  0
  -23.4187  -28.8160   23.3025 O   0  0  0  0  0  0
  -28.4064  -26.5757   20.1629 O   0  0  0  0  0  0
  -26.5609  -34.8931   22.4694 O   0  0  0  0  0  0
  -23.5385  -32.1386   23.7381 O   0  0  0  0  0  0
  -27.7840  -17.2719   19.0217 C   0  0  0  0  0  0
  -27.5854  -20.0181   19.2268 C   0  0  0  0  0  0
  -28.8275  -17.9422   19.7165 C   0  0  0  0  0  0
  -26.5724  -19.3145   18.5625 C   0  0  0  0  0  0
  -26.6857  -17.9220   18.4415 C   0  0  0  0  0  0
  -28.7361  -19.3994   19.7912 C   0  0  0  0  0  0
  -29.9148  -16.9636   20.1807 C   0  0  0  0  0  0
  -29.3411  -21.5610   20.7493 C   0  0  0  0  0  0
  -29.3222  -22.7074   19.9964 C   0  0  0  0  0  0
  -28.8886  -24.0674   20.5323 C   0  0  0  0  0  0
  -25.8385  -20.7513   16.6215 C   0  0  0  0  0  0
  -25.4261  -20.1059   17.9498 C   0  0  0  0  0  0
  -28.5247  -25.2406   19.5458 C   0  0  0  0  0  0
  -29.6544  -15.7294   20.5366 N   0  0  0  0  0  0
  -25.7503  -17.1760   17.7271 N   0  0  0  0  0  0
  -28.7812  -24.2740   21.7449 O   0  0  0  0  0  0
  -29.6917  -22.6639   18.7092 O   0  0  0  0  0  0
  -29.7039  -20.2704   20.3128 O   0  0  0  0  0  0
  -31.4869  -12.5241   19.1543 H   0  0  0  0  0  0
  -30.3767  -11.4051   19.8956 H   0  0  0  0  0  0
  -29.7860  -11.7770   17.4745 H   0  0  0  0  0  0
  -29.6508  -13.4943   17.7556 H   0  0  0  0  0  0
  -27.8759  -11.2875   18.8507 H   0  0  0  0  0  0
  -27.3828  -12.5814   17.7887 H   0  0  0  0  0  0
  -27.6549  -14.2298   19.5175 H   0  0  0  0  0  0
  -28.7148  -12.0778   21.4005 H   0  0  0  0  0  0
  -28.4500  -13.7466   21.8195 H   0  0  0  0  0  0
  -25.2739   -9.5700   22.4737 H   0  0  0  0  0  0
  -23.9990   -7.4631   22.7475 H   0  0  0  0  0  0
  -21.0817   -8.8739   19.8937 H   0  0  0  0  0  0
  -22.3662  -10.9654   19.6122 H   0  0  0  0  0  0
  -21.1975   -7.6135   23.9710 H   0  0  0  0  0  0
  -21.1494   -6.0513   25.9088 H   0  0  0  0  0  0
  -22.0601   -2.7592   23.2834 H   0  0  0  0  0  0
  -22.4050  -11.9863   22.4782 H   0  0  0  0  0  0
  -21.1086  -13.1259   22.2568 H   0  0  0  0  0  0
  -24.6832  -15.8464   20.5894 H   0  0  0  0  0  0
  -26.3247  -15.6297   20.2639 H   0  0  0  0  0  0
  -26.7139  -32.5486   23.1109 H   0  0  0  0  0  0
  -24.9975  -33.9741   25.0391 H   0  0  0  0  0  0
  -22.7062  -31.3018   21.4021 H   0  0  0  0  0  0
  -23.3730  -35.9654   23.3300 H   0  0  0  0  0  0
  -24.3559  -36.8944   22.2065 H   0  0  0  0  0  0
  -23.7217  -37.6513   23.6669 H   0  0  0  0  0  0
  -26.0466  -31.5555   20.5749 H   0  0  0  0  0  0
  -26.8413  -30.8793   21.9665 H   0  0  0  0  0  0
  -28.1017  -29.0130   21.1910 H   0  0  0  0  0  0
  -25.9742  -25.9389   19.0007 H   0  0  0  0  0  0
  -23.9777  -27.2991   19.0161 H   0  0  0  0  0  0
  -23.7240  -30.5785   19.3979 H   0  0  0  0  0  0
  -22.7479  -29.2241   19.8753 H   0  0  0  0  0  0
  -25.1272  -36.1963   25.0833 H   0  0  0  0  0  0
  -20.9968  -28.3215   24.1434 H   0  0  0  0  0  0
  -20.5616  -26.2267   23.3616 H   0  0  0  0  0  0
  -21.6619  -26.7389   22.1237 H   0  0  0  0  0  0
  -19.6878  -25.6273   21.1255 H   0  0  0  0  0  0
  -19.6694  -27.3171   20.6750 H   0  0  0  0  0  0
  -17.4183  -26.6694   21.4014 H   0  0  0  0  0  0
  -18.0289  -26.0058   22.9010 H   0  0  0  0  0  0
  -19.7921  -30.7249   24.2291 H   0  0  0  0  0  0
  -17.5004  -31.6278   24.5125 H   0  0  0  0  0  0
  -15.5343  -30.2990   23.7638 H   0  0  0  0  0  0
  -15.8656  -28.0812   22.7076 H   0  0  0  0  0  0
  -24.5907  -30.7032   25.7762 H   0  0  0  0  0  0
  -24.8873  -32.2858   26.4857 H   0  0  0  0  0  0
  -25.8049  -30.8895   27.0213 H   0  0  0  0  0  0
  -26.2815  -29.6823   24.1104 H   0  0  0  0  0  0
  -27.4035  -29.7245   25.4508 H   0  0  0  0  0  0
  -27.8654  -30.4357   23.9211 H   0  0  0  0  0  0
  -27.2649  -33.3601   26.2073 H   0  0  0  0  0  0
  -28.3862  -32.6854   25.0341 H   0  0  0  0  0  0
  -28.0669  -31.8409   26.5409 H   0  0  0  0  0  0
  -28.2590  -38.0105   24.7500 H   0  0  0  0  0  0
  -28.1062  -36.2634   24.6290 H   0  0  0  0  0  0
  -27.2296  -37.1457   25.8867 H   0  0  0  0  0  0
  -20.9299  -29.8780   21.6963 H   0  0  0  0  0  0
  -26.0165  -38.2871   24.1412 H   0  0  0  0  0  0
  -27.8468  -16.2091   18.8682 H   0  0  0  0  0  0
  -27.4530  -21.0880   19.2429 H   0  0  0  0  0  0
  -30.9437  -17.3279   20.1181 H   0  0  0  0  0  0
  -29.0550  -21.5500   21.7912 H   0  0  0  0  0  0
  -25.0096  -21.3000   16.1754 H   0  0  0  0  0  0
  -26.1629  -19.9948   15.9058 H   0  0  0  0  0  0
  -26.6615  -21.4524   16.7655 H   0  0  0  0  0  0
  -25.1230  -20.8815   18.6549 H   0  0  0  0  0  0
  -24.5451  -19.4781   17.8102 H   0  0  0  0  0  0
  -27.6529  -24.9340   18.9774 H   0  0  0  0  0  0
  -29.3296  -25.3082   18.8141 H   0  0  0  0  0  0
  -25.6843  -16.1745   17.8763 H   0  0  0  0  0  0
  -24.8675  -17.6028   17.4731 H   0  0  0  0  0  0
  -29.9511  -21.7688   18.5262 H   0  0  0  0  0  0
  1 25  1  0  0  0
  1 30  2  0  0  0
  1 84  1  0  0  0
  2  3  1  0  0  0
  2 25  1  0  0  0
  2 89  1  0  0  0
  2 90  1  0  0  0
  3  4  1  0  0  0
  3 91  1  0  0  0
  3 92  1  0  0  0
  4  5  1  0  0  0
  4 93  1  0  0  0
  4 94  1  0  0  0
  5  6  1  0  0  0
  5 26  1  0  0  0
  5 95  1  0  0  0
  6 25  1  0  0  0
  6 96  1  0  0  0
  6 97  1  0  0  0
  7  8  2  0  0  0
  7 26  1  0  0  0
  7 29  1  0  0  0
  8  9  1  0  0  0
  8 22  1  0  0  0
  9 10  1  0  0  0
  9 27  2  0  0  0
 10 11  2  0  0  0
 10 15  1  0  0  0
 11 12  1  0  0  0
 11 98  1  0  0  0
 12 13  2  0  0  0
 12 99  1  0  0  0
 13 14  1  0  0  0
 13 31  1  0  0  0
 14 15  2  0  0  0
 14100  1  0  0  0
 15101  1  0  0  0
 16 17  2  0  0  0
 16 21  1  0  0  0
 16 31  1  0  0  0
 17 18  1  0  0  0
 17102  1  0  0  0
 18 19  2  0  0  0
 18103  1  0  0  0
 19 20  1  0  0  0
 19 24  1  0  0  0
 20 21  2  0  0  0
 20104  1  0  0  0
 21 23  1  0  0  0
 22 28  1  0  0  0
 22 32  2  0  0  0
 26 27  1  0  0  0
 28105  1  0  0  0
 28106  1  0  0  0
 29107  1  0  0  0
 29108  1  0  0  0
 33 34  1  0  0  0
 33 66  1  0  0  0
 33 70  2  0  0  0
 34 36  1  0  0  0
 34 59  1  0  0  0
 34109  1  0  0  0
 35 44  2  0  0  0
 35 45  1  0  0  0
 35 68  1  0  0  0
 36 56  1  0  0  0
 36110  1  0  0  0
 37 39  1  0  0  0
 37 47  1  0  0  0
 37 66  1  0  0  0
 37111  1  0  0  0
 38 43  2  0  0  0
 38 46  1  0  0  0
 38 47  1  0  0  0
 39 64  1  0  0  0
 39 67  2  0  0  0
 40 52  1  0  0  0
 40 53  2  0  0  0
 40 58  1  0  0  0
 41112  1  0  0  0
 41113  1  0  0  0
 41114  1  0  0  0
 41 48  1  0  0  0
 42 43  1  0  0  0
 42 66  1  0  0  0
 42115  1  0  0  0
 42116  1  0  0  0
 43 44  1  0  0  0
 44117  1  0  0  0
 45 46  2  0  0  0
 45118  1  0  0  0
 46119  1  0  0  0
 47120  1  0  0  0
 47121  1  0  0  0
 48 56  1  0  0  0
 48 65  1  0  0  0
 48122  1  0  0  0
 49 50  1  0  0  0
 49 53  1  0  0  0
 49 64  1  0  0  0
 49123  1  0  0  0
 50 51  1  0  0  0
 50124  1  0  0  0
 50125  1  0  0  0
 51 52  1  0  0  0
 51126  1  0  0  0
 51127  1  0  0  0
 52128  1  0  0  0
 52129  1  0  0  0
 53 54  1  0  0  0
 54 55  2  0  0  0
 54130  1  0  0  0
 55 57  1  0  0  0
 55131  1  0  0  0
 56 69  2  0  0  0
 57 58  2  0  0  0
 57132  1  0  0  0
 58133  1  0  0  0
 59 60  1  0  0  0
 59 61  1  0  0  0
 59 62  1  0  0  0
 60134  1  0  0  0
 60135  1  0  0  0
 60136  1  0  0  0
 61137  1  0  0  0
 61138  1  0  0  0
 61139  1  0  0  0
 62140  1  0  0  0
 62141  1  0  0  0
 62142  1  0  0  0
 63 65  1  0  0  0
 63143  1  0  0  0
 63144  1  0  0  0
 63145  1  0  0  0
 64146  1  0  0  0
 65147  1  0  0  0
 68 83  1  0  0  0
 71 73  2  0  0  0
 71 75  1  0  0  0
 71148  1  0  0  0
 72 74  1  0  0  0
 72 76  2  0  0  0
 72149  1  0  0  0
 73 76  1  0  0  0
 73 77  1  0  0  0
 74 75  2  0  0  0
 74 82  1  0  0  0
 75 85  1  0  0  0
 76 88  1  0  0  0
 77 84  2  0  0  0
 77150  1  0  0  0
 78 79  2  0  0  0
 78 88  1  0  0  0
 78151  1  0  0  0
 79 80  1  0  0  0
 79 87  1  0  0  0
 80 83  1  0  0  0
 80 86  2  0  0  0
 81 82  1  0  0  0
 81152  1  0  0  0
 81153  1  0  0  0
 81154  1  0  0  0
 82155  1  0  0  0
 82156  1  0  0  0
 83157  1  0  0  0
 83158  1  0  0  0
 85159  1  0  0  0
 85160  1  0  0  0
 87161  1  0  0  0
M  ISO  4   1 100  68 101  83 101  84 100
M  END
> <chiral flag>
0

> <version>
0

> <s_m_source_file>
/data/baiqing/PycharmProjects/Reinvent-master-3.2/result/LINK_invent/BTK/process_docking_weight1_custom_product_contain_oxygen_bond_distance_aromatic_linkinvent_7_9_3/rearranged_h_0115.sdf

> <i_m_source_file_index>
70

> <r_mmod_Potential_Energy-OPLS-2005>
102.622001647949

> <r_mmod_Stretch_Energy-OPLS-2005>
86.5997314453125

> <r_mmod_Bend_Energy-OPLS-2005>
163.129776000977

> <r_mmod_Torsional_Energy-OPLS-2005>
201.411117553711

> <r_mmod_Improper_Torsional_Energy-OPLS-2005>
10.4038486480713

> <r_mmod_Van_der_Waal_Energy-OPLS-2005>
160.827926635742

> <r_mmod_Electrostatic_Energy-OPLS-2005>
-363.750946044922

> <r_mmod_Solvation_Energy-OPLS-2005>
-203.705230712891

> <b_mmod_Minimization_Converged-OPLS-2005>
0

> <r_mmod_RMS_Derivative-OPLS-2005>
2.46944546699524

$$$$
70
                    3D
 Structure written by MMmdl.
166174  0  0  1  0            999 V2000
  -30.7757  -14.3948   20.5527 C   0  0  0  0  0  0
  -30.3916  -12.2475   19.4299 C   0  0  0  0  0  0
  -29.4860  -12.4835   18.2066 C   0  0  0  0  0  0
  -28.0082  -12.3584   18.6195 C   0  0  0  0  0  0
  -27.6593  -13.2142   19.8675 C   0  0  2  0  0  0
  -28.7019  -13.0329   20.9951 C   0  0  0  0  0  0
  -25.2576  -13.8185   20.5690 C   0  0  0  0  0  0
  -24.1837  -13.0453   20.9178 C   0  0  0  0  0  0
  -24.6401  -11.6926   20.8738 C   0  0  0  0  0  0
  -23.9071  -10.4306   21.0404 C   0  0  0  0  0  0
  -24.3625   -9.4220   21.9186 C   0  0  0  0  0  0
  -23.6298   -8.2255   22.0755 C   0  0  0  0  0  0
  -22.4280   -8.0286   21.3543 C   0  0  0  0  0  0
  -21.9912   -9.0266   20.4654 C   0  0  0  0  0  0
  -22.7243  -10.2147   20.3059 C   0  0  0  0  0  0
  -21.6855   -6.0733   22.5278 C   0  0  0  0  0  0
  -21.4014   -6.5643   23.8209 C   0  0  0  0  0  0
  -21.3666   -5.6795   24.9173 C   0  0  0  0  0  0
  -21.6043   -4.3057   24.7225 C   0  0  0  0  0  0
  -21.8820   -3.8146   23.4349 C   0  0  0  0  0  0
  -21.9198   -4.6961   22.3404 C   0  0  0  0  0  0
  -22.7851  -13.5240   21.1853 C   0  0  0  0  0  0
  -22.1660   -4.2151   21.0978 F   0  0  0  0  0  0
  -21.5638   -3.4536   25.7733 F   0  0  0  0  0  0
  -30.0393  -13.2608   20.4361 N   0  0  0  0  0  0
  -26.3022  -12.9380   20.3363 N   0  0  0  0  0  0
  -25.9334  -11.6531   20.5790 N   0  0  0  0  0  0
  -22.0498  -12.8223   22.0408 N   0  0  0  0  0  0
  -25.4301  -15.1902   20.4107 N   0  0  0  0  0  0
  -31.9066  -14.4657   20.0646 O   0  0  0  0  0  0
  -21.6645   -6.8882   21.4240 O   0  0  0  0  0  0
  -22.3544  -14.5556   20.6716 O   0  0  0  0  0  0
  -24.6122  -31.8707   23.2130 C   0  0  0  0  0  0
  -25.9039  -32.4821   23.8413 C   0  0  1  0  0  0
  -27.2362  -27.4667   20.0785 C   0  0  0  0  0  0
  -25.5925  -33.8623   24.2360 N   0  0  0  0  0  0
  -23.3953  -30.4949   21.5538 C   0  0  2  0  0  0
  -24.8382  -28.9596   20.1194 C   0  0  0  0  0  0
  -22.7372  -29.4691   22.5031 C   0  0  0  0  0  0
  -18.0263  -28.1379   22.8485 C   0  0  0  0  0  0
  -24.1487  -36.7325   23.2628 C   0  0  0  0  0  0
  -25.9218  -30.8395   21.3644 C   0  0  0  0  0  0
  -25.9952  -29.4753   20.7151 C   0  0  0  0  0  0
  -27.1919  -28.7316   20.7001 C   0  0  0  0  0  0
  -26.0569  -26.9515   19.4892 C   0  0  0  0  0  0
  -24.8616  -27.6936   19.5103 C   0  0  0  0  0  0
  -23.5990  -29.8222   20.1703 C   0  0  0  0  0  0
  -25.4108  -36.3111   24.0341 C   0  0  1  0  0  0
  -20.5845  -28.3649   23.1339 C   0  0  2  0  0  0
  -20.6745  -26.9391   22.5424 C   0  0  0  0  0  0
  -19.5742  -26.6386   21.5209 C   0  0  0  0  0  0
  -18.1921  -26.7932   22.1605 C   0  0  0  0  0  0
  -19.1513  -28.8829   23.2908 C   0  0  0  0  0  0
  -18.9437  -30.1438   23.8907 C   0  0  0  0  0  0
  -17.6432  -30.6581   24.0556 C   0  0  0  0  0  0
  -25.9034  -34.9474   23.5142 C   0  0  0  0  0  0
  -16.5321  -29.9076   23.6330 C   0  0  0  0  0  0
  -16.7253  -28.6498   23.0340 C   0  0  0  0  0  0
  -26.4478  -31.6567   25.0717 C   0  0  0  0  0  0
  -25.3768  -31.3712   26.1486 C   0  0  0  0  0  0
  -27.0235  -30.2972   24.6099 C   0  0  0  0  0  0
  -27.6107  -32.4234   25.7457 C   0  0  0  0  0  0
  -27.5593  -37.1827   24.8464 C   0  0  0  0  0  0
  -21.4109  -29.3027   22.3748 N   0  0  0  0  0  0
  -26.4300  -37.3790   23.9403 N   0  0  0  0  0  0
  -24.6617  -31.0820   22.1024 N   0  0  0  0  0  0
  -23.4159  -28.8247   23.3072 O   0  0  0  0  0  0
  -28.4406  -26.8027   20.0764 O   0  0  0  0  0  0
  -26.5569  -34.8917   22.4688 O   0  0  0  0  0  0
  -23.5330  -32.1471   23.7548 O   0  0  0  0  0  0
  -32.2635  -21.5342   20.4294 C   0  0  0  0  0  0
  -31.9356  -22.9164   20.4414 C   0  0  0  0  0  0
  -30.6226  -23.2932   20.8108 C   0  0  0  0  0  0
  -31.2658  -20.5984   20.8407 C   0  0  0  0  0  0
  -29.7138  -22.2983   21.2117 C   0  0  0  0  0  0
  -31.4731  -19.1191   20.7963 C   0  0  0  0  0  0
  -33.6341  -21.0892   20.0359 C   0  0  0  0  0  0
  -32.9429  -24.0028   20.0640 C   0  0  0  0  0  0
  -34.0854  -21.3970   18.6132 C   0  0  0  0  0  0
  -27.4993  -21.6301   21.8860 C   0  0  0  0  0  0
  -30.1968  -15.6941   21.1550 C   0  0  0  0  0  0
  -31.1654  -16.8686   20.8503 C   0  0  0  0  0  0
  -28.5570  -25.5981   19.3314 C   0  0  0  0  0  0
  -30.0025  -25.1104   19.4548 C   0  0  0  0  0  0
  -30.0313  -20.9920   21.2339 N   0  0  0  0  0  0
  -30.6538  -18.1960   21.1460 N   0  0  0  0  0  0
  -34.3839  -20.4630   20.7861 O   0  0  0  0  0  0
  -30.2148  -24.6026   20.7722 O   0  0  0  0  0  0
  -28.4303  -22.6631   21.5655 O   0  0  0  0  0  0
  -31.4424  -12.2710   19.1366 H   0  0  0  0  0  0
  -30.2262  -11.2488   19.8368 H   0  0  0  0  0  0
  -29.7145  -11.7611   17.4219 H   0  0  0  0  0  0
  -29.6751  -13.4711   17.7825 H   0  0  0  0  0  0
  -27.8137  -11.3054   18.8267 H   0  0  0  0  0  0
  -27.3569  -12.6271   17.7870 H   0  0  0  0  0  0
  -27.6967  -14.2566   19.5503 H   0  0  0  0  0  0
  -28.6502  -12.0237   21.4056 H   0  0  0  0  0  0
  -28.4907  -13.7069   21.8262 H   0  0  0  0  0  0
  -25.2779   -9.5687   22.4751 H   0  0  0  0  0  0
  -24.0010   -7.4643   22.7471 H   0  0  0  0  0  0
  -21.0842   -8.8797   19.8961 H   0  0  0  0  0  0
  -22.3714  -10.9684   19.6163 H   0  0  0  0  0  0
  -21.1994   -7.6150   23.9713 H   0  0  0  0  0  0
  -21.1485   -6.0522   25.9076 H   0  0  0  0  0  0
  -22.0591   -2.7608   23.2844 H   0  0  0  0  0  0
  -22.4115  -11.9873   22.4774 H   0  0  0  0  0  0
  -21.1120  -13.1256   22.2637 H   0  0  0  0  0  0
  -24.6674  -15.8483   20.5293 H   0  0  0  0  0  0
  -26.2934  -15.6329   20.1197 H   0  0  0  0  0  0
  -26.7108  -32.5517   23.1176 H   0  0  0  0  0  0
  -25.0100  -33.9787   25.0521 H   0  0  0  0  0  0
  -22.6837  -31.3122   21.4152 H   0  0  0  0  0  0
  -23.3745  -35.9656   23.3264 H   0  0  0  0  0  0
  -24.3596  -36.8962   22.2049 H   0  0  0  0  0  0
  -23.7220  -37.6521   23.6649 H   0  0  0  0  0  0
  -26.0298  -31.6019   20.5928 H   0  0  0  0  0  0
  -26.8128  -30.8924   21.9773 H   0  0  0  0  0  0
  -28.0865  -29.1330   21.1557 H   0  0  0  0  0  0
  -26.0376  -25.9862   19.0054 H   0  0  0  0  0  0
  -23.9692  -27.2901   19.0514 H   0  0  0  0  0  0
  -23.6993  -30.5922   19.4052 H   0  0  0  0  0  0
  -22.7248  -29.2359   19.8822 H   0  0  0  0  0  0
  -25.1284  -36.1993   25.0835 H   0  0  0  0  0  0
  -20.9932  -28.3196   24.1460 H   0  0  0  0  0  0
  -20.5616  -26.2264   23.3604 H   0  0  0  0  0  0
  -21.6623  -26.7425   22.1227 H   0  0  0  0  0  0
  -19.6888  -25.6297   21.1240 H   0  0  0  0  0  0
  -19.6714  -27.3192   20.6740 H   0  0  0  0  0  0
  -17.4203  -26.6693   21.3995 H   0  0  0  0  0  0
  -18.0308  -26.0060   22.8985 H   0  0  0  0  0  0
  -19.7909  -30.7258   24.2275 H   0  0  0  0  0  0
  -17.4990  -31.6270   24.5156 H   0  0  0  0  0  0
  -15.5323  -30.2976   23.7661 H   0  0  0  0  0  0
  -15.8649  -28.0827   22.7046 H   0  0  0  0  0  0
  -24.5912  -30.7081   25.7843 H   0  0  0  0  0  0
  -24.8998  -32.2878   26.4961 H   0  0  0  0  0  0
  -25.8140  -30.8855   27.0218 H   0  0  0  0  0  0
  -26.2742  -29.6777   24.1148 H   0  0  0  0  0  0
  -27.3927  -29.7176   25.4574 H   0  0  0  0  0  0
  -27.8642  -30.4204   23.9271 H   0  0  0  0  0  0
  -27.2797  -33.3544   26.2076 H   0  0  0  0  0  0
  -28.3909  -32.6762   25.0262 H   0  0  0  0  0  0
  -28.0771  -31.8297   26.5331 H   0  0  0  0  0  0
  -28.2636  -38.0093   24.7440 H   0  0  0  0  0  0
  -28.1062  -36.2631   24.6360 H   0  0  0  0  0  0
  -27.2317  -37.1541   25.8866 H   0  0  0  0  0  0
  -20.9259  -29.8735   21.6965 H   0  0  0  0  0  0
  -26.0205  -38.2875   24.1367 H   0  0  0  0  0  0
  -32.4365  -18.8130   20.3797 H   0  0  0  0  0  0
  -33.9504  -23.7754   20.4111 H   0  0  0  0  0  0
  -32.6801  -24.9629   20.5072 H   0  0  0  0  0  0
  -32.9681  -24.1352   18.9821 H   0  0  0  0  0  0
  -33.2704  -21.8187   18.0263 H   0  0  0  0  0  0
  -34.4239  -20.4851   18.1218 H   0  0  0  0  0  0
  -34.9139  -22.1043   18.6258 H   0  0  0  0  0  0
  -26.5244  -22.0685   22.0970 H   0  0  0  0  0  0
  -27.8080  -21.0704   22.7707 H   0  0  0  0  0  0
  -27.3697  -20.9337   21.0559 H   0  0  0  0  0  0
  -29.2229  -15.8859   20.7056 H   0  0  0  0  0  0
  -30.0514  -15.5731   22.2286 H   0  0  0  0  0  0
  -31.4238  -16.8287   19.7857 H   0  0  0  0  0  0
  -32.0955  -16.6938   21.4011 H   0  0  0  0  0  0
  -27.8688  -24.8331   19.6929 H   0  0  0  0  0  0
  -28.3296  -25.7963   18.2826 H   0  0  0  0  0  0
  -30.6962  -25.9291   19.2591 H   0  0  0  0  0  0
  -30.1895  -24.3530   18.6899 H   0  0  0  0  0  0
  1 25  1  0  0  0
  1 30  2  0  0  0
  1 81  1  0  0  0
  2  3  1  0  0  0
  2 25  1  0  0  0
  2 90  1  0  0  0
  2 91  1  0  0  0
  3  4  1  0  0  0
  3 92  1  0  0  0
  3 93  1  0  0  0
  4  5  1  0  0  0
  4 94  1  0  0  0
  4 95  1  0  0  0
  5  6  1  0  0  0
  5 26  1  0  0  0
  5 96  1  0  0  0
  6 25  1  0  0  0
  6 97  1  0  0  0
  6 98  1  0  0  0
  7  8  2  0  0  0
  7 26  1  0  0  0
  7 29  1  0  0  0
  8  9  1  0  0  0
  8 22  1  0  0  0
  9 10  1  0  0  0
  9 27  2  0  0  0
 10 11  2  0  0  0
 10 15  1  0  0  0
 11 12  1  0  0  0
 11 99  1  0  0  0
 12 13  2  0  0  0
 12100  1  0  0  0
 13 14  1  0  0  0
 13 31  1  0  0  0
 14 15  2  0  0  0
 14101  1  0  0  0
 15102  1  0  0  0
 16 17  2  0  0  0
 16 21  1  0  0  0
 16 31  1  0  0  0
 17 18  1  0  0  0
 17103  1  0  0  0
 18 19  2  0  0  0
 18104  1  0  0  0
 19 20  1  0  0  0
 19 24  1  0  0  0
 20 21  2  0  0  0
 20105  1  0  0  0
 21 23  1  0  0  0
 22 28  1  0  0  0
 22 32  2  0  0  0
 26 27  1  0  0  0
 28106  1  0  0  0
 28107  1  0  0  0
 29108  1  0  0  0
 29109  1  0  0  0
 33 34  1  0  0  0
 33 66  1  0  0  0
 33 70  2  0  0  0
 34 36  1  0  0  0
 34 59  1  0  0  0
 34110  1  0  0  0
 35 44  2  0  0  0
 35 45  1  0  0  0
 35 68  1  0  0  0
 36 56  1  0  0  0
 36111  1  0  0  0
 37 39  1  0  0  0
 37 47  1  0  0  0
 37 66  1  0  0  0
 37112  1  0  0  0
 38 43  2  0  0  0
 38 46  1  0  0  0
 38 47  1  0  0  0
 39 64  1  0  0  0
 39 67  2  0  0  0
 40 52  1  0  0  0
 40 53  2  0  0  0
 40 58  1  0  0  0
 41113  1  0  0  0
 41114  1  0  0  0
 41115  1  0  0  0
 41 48  1  0  0  0
 42 43  1  0  0  0
 42 66  1  0  0  0
 42116  1  0  0  0
 42117  1  0  0  0
 43 44  1  0  0  0
 44118  1  0  0  0
 45 46  2  0  0  0
 45119  1  0  0  0
 46120  1  0  0  0
 47121  1  0  0  0
 47122  1  0  0  0
 48 56  1  0  0  0
 48 65  1  0  0  0
 48123  1  0  0  0
 49 50  1  0  0  0
 49 53  1  0  0  0
 49 64  1  0  0  0
 49124  1  0  0  0
 50 51  1  0  0  0
 50125  1  0  0  0
 50126  1  0  0  0
 51 52  1  0  0  0
 51127  1  0  0  0
 51128  1  0  0  0
 52129  1  0  0  0
 52130  1  0  0  0
 53 54  1  0  0  0
 54 55  2  0  0  0
 54131  1  0  0  0
 55 57  1  0  0  0
 55132  1  0  0  0
 56 69  2  0  0  0
 57 58  2  0  0  0
 57133  1  0  0  0
 58134  1  0  0  0
 59 60  1  0  0  0
 59 61  1  0  0  0
 59 62  1  0  0  0
 60135  1  0  0  0
 60136  1  0  0  0
 60137  1  0  0  0
 61138  1  0  0  0
 61139  1  0  0  0
 61140  1  0  0  0
 62141  1  0  0  0
 62142  1  0  0  0
 62143  1  0  0  0
 63 65  1  0  0  0
 63144  1  0  0  0
 63145  1  0  0  0
 63146  1  0  0  0
 64147  1  0  0  0
 65148  1  0  0  0
 68 83  1  0  0  0
 71 72  2  0  0  0
 71 74  1  0  0  0
 71 77  1  0  0  0
 72 73  1  0  0  0
 72 78  1  0  0  0
 73 75  2  0  0  0
 73 88  1  0  0  0
 74 76  1  0  0  0
 74 85  2  0  0  0
 75 85  1  0  0  0
 75 89  1  0  0  0
 76 86  2  0  0  0
 76149  1  0  0  0
 77 79  1  0  0  0
 77 87  2  0  0  0
 78150  1  0  0  0
 78151  1  0  0  0
 78152  1  0  0  0
 79153  1  0  0  0
 79154  1  0  0  0
 79155  1  0  0  0
 80 89  1  0  0  0
 80156  1  0  0  0
 80157  1  0  0  0
 80158  1  0  0  0
 81 82  1  0  0  0
 81159  1  0  0  0
 81160  1  0  0  0
 82 86  1  0  0  0
 82161  1  0  0  0
 82162  1  0  0  0
 83 84  1  0  0  0
 83163  1  0  0  0
 83164  1  0  0  0
 84 88  1  0  0  0
 84165  1  0  0  0
 84166  1  0  0  0
M  ISO  4   1 100  68 101  81 100  83 101
M  END
> <chiral flag>
0

> <version>
0

> <s_m_source_file>
/data/baiqing/PycharmProjects/Reinvent-master-3.2/result/LINK_invent/BTK/process_docking_weight1_custom_product_contain_oxygen_bond_distance_aromatic_linkinvent_7_9_3/rearranged_h_0115.sdf

> <i_m_source_file_index>
71

> <r_mmod_Potential_Energy-OPLS-2005>
-71.072868347168

> <r_mmod_Stretch_Energy-OPLS-2005>
38.3689193725586

> <r_mmod_Bend_Energy-OPLS-2005>
107.451148986816

> <r_mmod_Torsional_Energy-OPLS-2005>
225.095886230469

> <r_mmod_Improper_Torsional_Energy-OPLS-2005>
3.26835894584656

> <r_mmod_Van_der_Waal_Energy-OPLS-2005>
196.327865600586

> <r_mmod_Electrostatic_Energy-OPLS-2005>
-422.664367675781

> <r_mmod_Solvation_Energy-OPLS-2005>
-235.104827880859

> <b_mmod_Minimization_Converged-OPLS-2005>
0

> <r_mmod_RMS_Derivative-OPLS-2005>
1.96610510349274

$$$$
71
                    3D
 Structure written by MMmdl.
160168  0  0  1  0            999 V2000
  -30.5789  -14.6411   20.5911 C   0  0  0  0  0  0
  -30.4594  -12.4125   19.4479 C   0  0  0  0  0  0
  -29.5083  -12.5192   18.2262 C   0  0  0  0  0  0
  -28.0194  -12.3784   18.6207 C   0  0  0  0  0  0
  -27.6636  -13.1821   19.8970 C   0  0  2  0  0  0
  -28.7162  -12.9066   20.9942 C   0  0  0  0  0  0
  -25.2607  -13.8106   20.5830 C   0  0  0  0  0  0
  -24.1800  -13.0431   20.9218 C   0  0  0  0  0  0
  -24.6312  -11.6885   20.8735 C   0  0  0  0  0  0
  -23.8945  -10.4292   21.0390 C   0  0  0  0  0  0
  -24.3548   -9.4251   21.9164 C   0  0  0  0  0  0
  -23.6245   -8.2273   22.0741 C   0  0  0  0  0  0
  -22.4223   -8.0293   21.3556 C   0  0  0  0  0  0
  -21.9818   -9.0242   20.4651 C   0  0  0  0  0  0
  -22.7111  -10.2126   20.3054 C   0  0  0  0  0  0
  -21.6876   -6.0739   22.5293 C   0  0  0  0  0  0
  -21.4040   -6.5645   23.8229 C   0  0  0  0  0  0
  -21.3651   -5.6789   24.9192 C   0  0  0  0  0  0
  -21.6025   -4.3047   24.7228 C   0  0  0  0  0  0
  -21.8828   -3.8161   23.4343 C   0  0  0  0  0  0
  -21.9209   -4.6979   22.3409 C   0  0  0  0  0  0
  -22.7841  -13.5276   21.1918 C   0  0  0  0  0  0
  -22.1687   -4.2203   21.0971 F   0  0  0  0  0  0
  -21.5608   -3.4491   25.7711 F   0  0  0  0  0  0
  -30.0070  -13.3831   20.4712 N   0  0  0  0  0  0
  -26.3038  -12.9198   20.3533 N   0  0  0  0  0  0
  -25.9230  -11.6382   20.5784 N   0  0  0  0  0  0
  -22.0487  -12.8259   22.0460 N   0  0  0  0  0  0
  -25.4437  -15.1830   20.4382 N   0  0  0  0  0  0
  -31.7343  -14.8324   20.1865 O   0  0  0  0  0  0
  -21.6654   -6.8854   21.4228 O   0  0  0  0  0  0
  -22.3510  -14.5615   20.6822 O   0  0  0  0  0  0
  -24.6242  -31.8592   23.2010 C   0  0  0  0  0  0
  -25.9098  -32.4771   23.8329 C   0  0  1  0  0  0
  -27.2331  -27.3340   20.1083 C   0  0  0  0  0  0
  -25.5915  -33.8568   24.2268 N   0  0  0  0  0  0
  -23.4199  -30.4806   21.5454 C   0  0  2  0  0  0
  -24.8655  -28.9351   20.1115 C   0  0  0  0  0  0
  -22.7492  -29.4611   22.4959 C   0  0  0  0  0  0
  -18.0300  -28.1378   22.8485 C   0  0  0  0  0  0
  -24.1504  -36.7312   23.2640 C   0  0  0  0  0  0
  -25.9599  -30.7940   21.3713 C   0  0  0  0  0  0
  -26.0336  -29.4227   20.7117 C   0  0  0  0  0  0
  -27.2194  -28.6352   20.6946 C   0  0  0  0  0  0
  -26.0391  -26.8907   19.4933 C   0  0  0  0  0  0
  -24.8684  -27.6746   19.4939 C   0  0  0  0  0  0
  -23.6325  -29.8131   20.1612 C   0  0  0  0  0  0
  -25.4132  -36.3094   24.0331 C   0  0  1  0  0  0
  -20.5890  -28.3672   23.1295 C   0  0  2  0  0  0
  -20.6778  -26.9393   22.5415 C   0  0  0  0  0  0
  -19.5751  -26.6379   21.5217 C   0  0  0  0  0  0
  -18.1929  -26.7924   22.1617 C   0  0  0  0  0  0
  -19.1542  -28.8858   23.2877 C   0  0  0  0  0  0
  -18.9460  -30.1466   23.8863 C   0  0  0  0  0  0
  -17.6457  -30.6570   24.0569 C   0  0  0  0  0  0
  -25.9059  -34.9452   23.5115 C   0  0  0  0  0  0
  -16.5353  -29.9066   23.6332 C   0  0  0  0  0  0
  -16.7280  -28.6496   23.0326 C   0  0  0  0  0  0
  -26.4460  -31.6573   25.0701 C   0  0  0  0  0  0
  -25.3711  -31.3695   26.1448 C   0  0  0  0  0  0
  -27.0274  -30.2992   24.6145 C   0  0  0  0  0  0
  -27.6020  -32.4308   25.7462 C   0  0  0  0  0  0
  -27.5611  -37.1812   24.8457 C   0  0  0  0  0  0
  -21.4209  -29.3028   22.3704 N   0  0  0  0  0  0
  -26.4312  -37.3787   23.9411 N   0  0  0  0  0  0
  -24.6867  -31.0601   22.0963 N   0  0  0  0  0  0
  -23.4224  -28.8186   23.3063 O   0  0  0  0  0  0
  -28.3710  -26.5149   20.1517 O   0  0  0  0  0  0
  -26.5636  -34.8918   22.4690 O   0  0  0  0  0  0
  -23.5413  -32.1386   23.7359 O   0  0  0  0  0  0
  -30.1233  -19.5164   19.7232 C   0  0  0  0  0  0
  -29.9121  -19.5706   22.1083 C   0  0  0  0  0  0
  -30.0270  -17.3492   20.9693 C   0  0  0  0  0  0
  -30.1792  -18.0839   19.7456 C   0  0  0  0  0  0
  -29.9603  -20.2981   20.8972 C   0  0  0  0  0  0
  -29.9413  -18.1518   22.1475 C   0  0  0  0  0  0
  -29.2296  -22.5627   20.3547 C   0  0  0  0  0  0
  -29.6690  -15.8547   21.1061 C   0  0  0  0  0  0
  -29.9440  -17.0692   15.9931 C   0  0  0  0  0  0
  -30.4794  -17.3996   18.4169 C   0  0  0  0  0  0
  -29.4099  -24.1244   20.4303 C   0  0  0  0  0  0
  -29.3858  -17.5069   17.3502 C   0  0  0  0  0  0
  -28.1973  -25.0533   20.0064 C   0  0  0  0  0  0
  -28.5482  -15.6732   21.6774 N   0  0  0  0  0  0
  -30.0368  -21.7273   20.9343 N   0  0  0  0  0  0
  -29.8393  -17.5605   23.3658 F   0  0  0  0  0  0
  -31.4887  -12.5974   19.1401 H   0  0  0  0  0  0
  -30.4591  -11.4013   19.8558 H   0  0  0  0  0  0
  -29.7602  -11.7592   17.4864 H   0  0  0  0  0  0
  -29.6578  -13.4845   17.7492 H   0  0  0  0  0  0
  -27.8155  -11.3166   18.7776 H   0  0  0  0  0  0
  -27.3806  -12.6962   17.7951 H   0  0  0  0  0  0
  -27.7101  -14.2350   19.6248 H   0  0  0  0  0  0
  -28.7642  -11.8356   21.1953 H   0  0  0  0  0  0
  -28.4633  -13.3122   21.9693 H   0  0  0  0  0  0
  -25.2692   -9.5805   22.4702 H   0  0  0  0  0  0
  -24.0037   -7.4651   22.7398 H   0  0  0  0  0  0
  -21.0785   -8.8678   19.8895 H   0  0  0  0  0  0
  -22.3524  -10.9645   19.6164 H   0  0  0  0  0  0
  -21.2053   -7.6154   23.9733 H   0  0  0  0  0  0
  -21.1464   -6.0546   25.9084 H   0  0  0  0  0  0
  -22.0614   -2.7631   23.2854 H   0  0  0  0  0  0
  -22.4052  -11.9843   22.4762 H   0  0  0  0  0  0
  -21.1141  -13.1346   22.2729 H   0  0  0  0  0  0
  -24.7238  -15.8468   20.7010 H   0  0  0  0  0  0
  -26.3729  -15.5887   20.4251 H   0  0  0  0  0  0
  -26.7183  -32.5434   23.1083 H   0  0  0  0  0  0
  -25.0030  -33.9687   25.0395 H   0  0  0  0  0  0
  -22.7139  -31.2997   21.4018 H   0  0  0  0  0  0
  -23.3770  -35.9636   23.3263 H   0  0  0  0  0  0
  -24.3624  -36.8977   22.2071 H   0  0  0  0  0  0
  -23.7232  -37.6493   23.6685 H   0  0  0  0  0  0
  -26.0952  -31.5608   20.6070 H   0  0  0  0  0  0
  -26.8390  -30.8365   22.0035 H   0  0  0  0  0  0
  -28.1212  -29.0077   21.1593 H   0  0  0  0  0  0
  -25.9852  -25.9252   19.0117 H   0  0  0  0  0  0
  -23.9728  -27.2955   19.0195 H   0  0  0  0  0  0
  -23.7466  -30.5857   19.3999 H   0  0  0  0  0  0
  -22.7530  -29.2364   19.8638 H   0  0  0  0  0  0
  -25.1315  -36.1951   25.0816 H   0  0  0  0  0  0
  -20.9968  -28.3235   24.1422 H   0  0  0  0  0  0
  -20.5701  -26.2279   23.3612 H   0  0  0  0  0  0
  -21.6638  -26.7436   22.1195 H   0  0  0  0  0  0
  -19.6902  -25.6289   21.1241 H   0  0  0  0  0  0
  -19.6673  -27.3194   20.6761 H   0  0  0  0  0  0
  -17.4205  -26.6704   21.4003 H   0  0  0  0  0  0
  -18.0297  -26.0058   22.9001 H   0  0  0  0  0  0
  -19.7937  -30.7321   24.2173 H   0  0  0  0  0  0
  -17.4998  -31.6231   24.5199 H   0  0  0  0  0  0
  -15.5354  -30.2947   23.7654 H   0  0  0  0  0  0
  -15.8694  -28.0828   22.6993 H   0  0  0  0  0  0
  -24.5823  -30.7125   25.7769 H   0  0  0  0  0  0
  -24.8970  -32.2850   26.4989 H   0  0  0  0  0  0
  -25.8036  -30.8753   27.0160 H   0  0  0  0  0  0
  -26.2806  -29.6762   24.1209 H   0  0  0  0  0  0
  -27.4003  -29.7229   25.4626 H   0  0  0  0  0  0
  -27.8676  -30.4259   23.9319 H   0  0  0  0  0  0
  -27.2610  -33.3594   26.2050 H   0  0  0  0  0  0
  -28.3792  -32.6905   25.0265 H   0  0  0  0  0  0
  -28.0722  -31.8436   26.5356 H   0  0  0  0  0  0
  -28.2591  -38.0150   24.7562 H   0  0  0  0  0  0
  -28.1140  -36.2680   24.6199 H   0  0  0  0  0  0
  -27.2338  -37.1382   25.8860 H   0  0  0  0  0  0
  -20.9417  -29.8735   21.6881 H   0  0  0  0  0  0
  -26.0198  -38.2866   24.1402 H   0  0  0  0  0  0
  -30.2476  -20.0243   18.7763 H   0  0  0  0  0  0
  -29.8487  -20.1099   23.0433 H   0  0  0  0  0  0
  -28.3630  -22.2302   19.7740 H   0  0  0  0  0  0
  -29.2001  -17.1419   15.1979 H   0  0  0  0  0  0
  -30.2906  -16.0353   16.0399 H   0  0  0  0  0  0
  -30.7937  -17.6936   15.7059 H   0  0  0  0  0  0
  -30.7315  -16.3531   18.5366 H   0  0  0  0  0  0
  -31.3932  -17.8613   18.0406 H   0  0  0  0  0  0
  -30.2680  -24.3838   19.8083 H   0  0  0  0  0  0
  -29.6928  -24.3796   21.4484 H   0  0  0  0  0  0
  -28.5202  -16.8956   17.6208 H   0  0  0  0  0  0
  -29.0338  -18.5363   17.2692 H   0  0  0  0  0  0
  -27.3240  -24.7487   20.5851 H   0  0  0  0  0  0
  -27.9635  -24.8423   18.9630 H   0  0  0  0  0  0
  -28.1299  -16.5460   21.9691 H   0  0  0  0  0  0
  1 25  1  0  0  0
  1 30  2  0  0  0
  1 78  1  0  0  0
  2  3  1  0  0  0
  2 25  1  0  0  0
  2 87  1  0  0  0
  2 88  1  0  0  0
  3  4  1  0  0  0
  3 89  1  0  0  0
  3 90  1  0  0  0
  4  5  1  0  0  0
  4 91  1  0  0  0
  4 92  1  0  0  0
  5  6  1  0  0  0
  5 26  1  0  0  0
  5 93  1  0  0  0
  6 25  1  0  0  0
  6 94  1  0  0  0
  6 95  1  0  0  0
  7  8  2  0  0  0
  7 26  1  0  0  0
  7 29  1  0  0  0
  8  9  1  0  0  0
  8 22  1  0  0  0
  9 10  1  0  0  0
  9 27  2  0  0  0
 10 11  2  0  0  0
 10 15  1  0  0  0
 11 12  1  0  0  0
 11 96  1  0  0  0
 12 13  2  0  0  0
 12 97  1  0  0  0
 13 14  1  0  0  0
 13 31  1  0  0  0
 14 15  2  0  0  0
 14 98  1  0  0  0
 15 99  1  0  0  0
 16 17  2  0  0  0
 16 21  1  0  0  0
 16 31  1  0  0  0
 17 18  1  0  0  0
 17100  1  0  0  0
 18 19  2  0  0  0
 18101  1  0  0  0
 19 20  1  0  0  0
 19 24  1  0  0  0
 20 21  2  0  0  0
 20102  1  0  0  0
 21 23  1  0  0  0
 22 28  1  0  0  0
 22 32  2  0  0  0
 26 27  1  0  0  0
 28103  1  0  0  0
 28104  1  0  0  0
 29105  1  0  0  0
 29106  1  0  0  0
 33 34  1  0  0  0
 33 66  1  0  0  0
 33 70  2  0  0  0
 34 36  1  0  0  0
 34 59  1  0  0  0
 34107  1  0  0  0
 35 44  2  0  0  0
 35 45  1  0  0  0
 35 68  1  0  0  0
 36 56  1  0  0  0
 36108  1  0  0  0
 37 39  1  0  0  0
 37 47  1  0  0  0
 37 66  1  0  0  0
 37109  1  0  0  0
 38 43  2  0  0  0
 38 46  1  0  0  0
 38 47  1  0  0  0
 39 64  1  0  0  0
 39 67  2  0  0  0
 40 52  1  0  0  0
 40 53  2  0  0  0
 40 58  1  0  0  0
 41110  1  0  0  0
 41111  1  0  0  0
 41112  1  0  0  0
 41 48  1  0  0  0
 42 43  1  0  0  0
 42 66  1  0  0  0
 42113  1  0  0  0
 42114  1  0  0  0
 43 44  1  0  0  0
 44115  1  0  0  0
 45 46  2  0  0  0
 45116  1  0  0  0
 46117  1  0  0  0
 47118  1  0  0  0
 47119  1  0  0  0
 48 56  1  0  0  0
 48 65  1  0  0  0
 48120  1  0  0  0
 49 50  1  0  0  0
 49 53  1  0  0  0
 49 64  1  0  0  0
 49121  1  0  0  0
 50 51  1  0  0  0
 50122  1  0  0  0
 50123  1  0  0  0
 51 52  1  0  0  0
 51124  1  0  0  0
 51125  1  0  0  0
 52126  1  0  0  0
 52127  1  0  0  0
 53 54  1  0  0  0
 54 55  2  0  0  0
 54128  1  0  0  0
 55 57  1  0  0  0
 55129  1  0  0  0
 56 69  2  0  0  0
 57 58  2  0  0  0
 57130  1  0  0  0
 58131  1  0  0  0
 59 60  1  0  0  0
 59 61  1  0  0  0
 59 62  1  0  0  0
 60132  1  0  0  0
 60133  1  0  0  0
 60134  1  0  0  0
 61135  1  0  0  0
 61136  1  0  0  0
 61137  1  0  0  0
 62138  1  0  0  0
 62139  1  0  0  0
 62140  1  0  0  0
 63 65  1  0  0  0
 63141  1  0  0  0
 63142  1  0  0  0
 63143  1  0  0  0
 64144  1  0  0  0
 65145  1  0  0  0
 68 83  1  0  0  0
 71 74  2  0  0  0
 71 75  1  0  0  0
 71146  1  0  0  0
 72 75  2  0  0  0
 72 76  1  0  0  0
 72147  1  0  0  0
 73 74  1  0  0  0
 73 76  2  0  0  0
 73 78  1  0  0  0
 74 80  1  0  0  0
 75 85  1  0  0  0
 76 86  1  0  0  0
 77 81  1  0  0  0
 77 85  2  0  0  0
 77148  1  0  0  0
 78 84  2  0  0  0
 79 82  1  0  0  0
 79149  1  0  0  0
 79150  1  0  0  0
 79151  1  0  0  0
 80 82  1  0  0  0
 80152  1  0  0  0
 80153  1  0  0  0
 81 83  1  0  0  0
 81154  1  0  0  0
 81155  1  0  0  0
 82156  1  0  0  0
 82157  1  0  0  0
 83158  1  0  0  0
 83159  1  0  0  0
 84160  1  0  0  0
M  ISO  4   1 100  68 101  78 100  83 101
M  END
> <chiral flag>
0

> <version>
0

> <s_m_source_file>
/data/baiqing/PycharmProjects/Reinvent-master-3.2/result/LINK_invent/BTK/process_docking_weight1_custom_product_contain_oxygen_bond_distance_aromatic_linkinvent_7_9_3/rearranged_h_0115.sdf

> <i_m_source_file_index>
72

> <r_mmod_Potential_Energy-OPLS-2005>
277.794006347656

> <r_mmod_Stretch_Energy-OPLS-2005>
93.2193832397461

> <r_mmod_Bend_Energy-OPLS-2005>
163.008361816406

> <r_mmod_Torsional_Energy-OPLS-2005>
222.511703491211

> <r_mmod_Improper_Torsional_Energy-OPLS-2005>
7.34797477722168

> <r_mmod_Van_der_Waal_Energy-OPLS-2005>
164.417388916016

> <r_mmod_Electrostatic_Energy-OPLS-2005>
-226.774658203125

> <r_mmod_Solvation_Energy-OPLS-2005>
-190.966125488281

> <b_mmod_Minimization_Converged-OPLS-2005>
0

> <r_mmod_RMS_Derivative-OPLS-2005>
5.37033128738403

$$$$
72
                    3D
 Structure written by MMmdl.
158166  0  0  1  0            999 V2000
  -30.5403  -14.7417   20.4906 C   0  0  0  0  0  0
  -30.4588  -12.4580   19.4628 C   0  0  0  0  0  0
  -29.5140  -12.4659   18.2403 C   0  0  0  0  0  0
  -28.0507  -12.2639   18.6815 C   0  0  0  0  0  0
  -27.6448  -13.1960   19.8514 C   0  0  2  0  0  0
  -28.6836  -13.1294   20.9914 C   0  0  0  0  0  0
  -25.2566  -13.8148   20.5608 C   0  0  0  0  0  0
  -24.1847  -13.0448   20.9202 C   0  0  0  0  0  0
  -24.6370  -11.6912   20.8799 C   0  0  0  0  0  0
  -23.9051  -10.4310   21.0468 C   0  0  0  0  0  0
  -24.3600   -9.4209   21.9231 C   0  0  0  0  0  0
  -23.6289   -8.2235   22.0793 C   0  0  0  0  0  0
  -22.4286   -8.0276   21.3544 C   0  0  0  0  0  0
  -21.9896   -9.0265   20.4661 C   0  0  0  0  0  0
  -22.7222  -10.2140   20.3087 C   0  0  0  0  0  0
  -21.6839   -6.0747   22.5283 C   0  0  0  0  0  0
  -21.4005   -6.5653   23.8200 C   0  0  0  0  0  0
  -21.3661   -5.6777   24.9177 C   0  0  0  0  0  0
  -21.6052   -4.3047   24.7194 C   0  0  0  0  0  0
  -21.8830   -3.8154   23.4316 C   0  0  0  0  0  0
  -21.9198   -4.7005   22.3373 C   0  0  0  0  0  0
  -22.7854  -13.5303   21.1837 C   0  0  0  0  0  0
  -22.1673   -4.2164   21.0959 F   0  0  0  0  0  0
  -21.5639   -3.4522   25.7718 F   0  0  0  0  0  0
  -29.9780  -13.4931   20.4041 N   0  0  0  0  0  0
  -26.2935  -12.9228   20.3277 N   0  0  0  0  0  0
  -25.9274  -11.6437   20.5789 N   0  0  0  0  0  0
  -22.0462  -12.8286   22.0392 N   0  0  0  0  0  0
  -25.4374  -15.1830   20.3908 N   0  0  0  0  0  0
  -31.7302  -14.9156   20.2292 O   0  0  0  0  0  0
  -21.6644   -6.8889   21.4233 O   0  0  0  0  0  0
  -22.3604  -14.5621   20.6728 O   0  0  0  0  0  0
  -24.6315  -31.8543   23.1898 C   0  0  0  0  0  0
  -25.9130  -32.4758   23.8286 C   0  0  1  0  0  0
  -27.2830  -27.2051   20.1577 C   0  0  0  0  0  0
  -25.5902  -33.8550   24.2243 N   0  0  0  0  0  0
  -23.4290  -30.4719   21.5336 C   0  0  2  0  0  0
  -24.8892  -28.8749   20.1430 C   0  0  0  0  0  0
  -22.7516  -29.4563   22.4871 C   0  0  0  0  0  0
  -18.0306  -28.1344   22.8428 C   0  0  0  0  0  0
  -24.1487  -36.7328   23.2649 C   0  0  0  0  0  0
  -25.9723  -30.7522   21.3579 C   0  0  0  0  0  0
  -26.0638  -29.3488   20.7397 C   0  0  0  0  0  0
  -27.2575  -28.5324   20.7244 C   0  0  0  0  0  0
  -26.0671  -26.7892   19.5669 C   0  0  0  0  0  0
  -24.9021  -27.5986   19.5533 C   0  0  0  0  0  0
  -23.6619  -29.7889   20.1565 C   0  0  0  0  0  0
  -25.4103  -36.3064   24.0326 C   0  0  1  0  0  0
  -20.5907  -28.3632   23.1250 C   0  0  2  0  0  0
  -20.6776  -26.9360   22.5367 C   0  0  0  0  0  0
  -19.5764  -26.6341   21.5158 C   0  0  0  0  0  0
  -18.1942  -26.7882   22.1575 C   0  0  0  0  0  0
  -19.1547  -28.8809   23.2827 C   0  0  0  0  0  0
  -18.9489  -30.1406   23.8862 C   0  0  0  0  0  0
  -17.6507  -30.6534   24.0526 C   0  0  0  0  0  0
  -25.9026  -34.9446   23.5071 C   0  0  0  0  0  0
  -16.5399  -29.9062   23.6294 C   0  0  0  0  0  0
  -16.7300  -28.6483   23.0286 C   0  0  0  0  0  0
  -26.4479  -31.6602   25.0667 C   0  0  0  0  0  0
  -25.3734  -31.3768   26.1461 C   0  0  0  0  0  0
  -27.0310  -30.3035   24.6027 C   0  0  0  0  0  0
  -27.6027  -32.4335   25.7472 C   0  0  0  0  0  0
  -27.5566  -37.1812   24.8439 C   0  0  0  0  0  0
  -21.4241  -29.3019   22.3676 N   0  0  0  0  0  0
  -26.4265  -37.3771   23.9428 N   0  0  0  0  0  0
  -24.6980  -31.0470   22.0879 N   0  0  0  0  0  0
  -23.4208  -28.8096   23.2965 O   0  0  0  0  0  0
  -28.4744  -26.4253   19.9909 O   0  0  0  0  0  0
  -26.5612  -34.8936   22.4654 O   0  0  0  0  0  0
  -23.5453  -32.1346   23.7202 O   0  0  0  0  0  0
  -29.5902  -19.6877   22.5213 C   0  0  0  0  0  0
  -29.2852  -18.3830   20.5075 C   0  0  0  0  0  0
  -29.8923  -17.2230   22.5627 C   0  0  0  0  0  0
  -29.8687  -18.4783   23.2221 C   0  0  0  0  0  0
  -29.6898  -17.1472   21.1665 C   0  0  0  0  0  0
  -29.2340  -19.6926   21.1475 C   0  0  0  0  0  0
  -29.0060  -15.4840   24.0732 C   0  0  0  0  0  0
  -30.0285  -15.9816   23.3584 C   0  0  0  0  0  0
  -30.0461  -18.5259   24.7313 C   0  0  0  0  0  0
  -28.3203  -23.5894   20.2317 C   0  0  0  0  0  0
  -28.8742  -25.0709   20.5688 C   0  0  0  0  0  0
  -28.9317  -22.2782   21.0043 C   0  0  0  0  0  0
  -29.6284  -15.7935   20.5575 N   0  0  0  0  0  0
  -28.8081  -20.8825   20.4659 O   0  0  0  0  0  0
  -31.4879  -12.6479   19.1451 H   0  0  0  0  0  0
  -30.4709  -11.4801   19.9455 H   0  0  0  0  0  0
  -29.8000  -11.6734   17.5468 H   0  0  0  0  0  0
  -29.6148  -13.4036   17.6940 H   0  0  0  0  0  0
  -27.9580  -11.2265   19.0092 H   0  0  0  0  0  0
  -27.3715  -12.3787   17.8408 H   0  0  0  0  0  0
  -27.6395  -14.2052   19.4409 H   0  0  0  0  0  0
  -28.7263  -12.1386   21.4450 H   0  0  0  0  0  0
  -28.4086  -13.8127   21.7977 H   0  0  0  0  0  0
  -25.2729   -9.5701   22.4822 H   0  0  0  0  0  0
  -24.0010   -7.4627   22.7466 H   0  0  0  0  0  0
  -21.0851   -8.8794   19.8910 H   0  0  0  0  0  0
  -22.3712  -10.9724   19.6210 H   0  0  0  0  0  0
  -21.1980   -7.6133   23.9719 H   0  0  0  0  0  0
  -21.1481   -6.0496   25.9065 H   0  0  0  0  0  0
  -22.0610   -2.7610   23.2793 H   0  0  0  0  0  0
  -22.4004  -11.9926   22.4754 H   0  0  0  0  0  0
  -21.1098  -13.1402   22.2585 H   0  0  0  0  0  0
  -24.6653  -15.8371   20.4665 H   0  0  0  0  0  0
  -26.2718  -15.6057   20.0115 H   0  0  0  0  0  0
  -26.7193  -32.5429   23.1024 H   0  0  0  0  0  0
  -25.0078  -33.9667   25.0373 H   0  0  0  0  0  0
  -22.7213  -31.2865   21.3806 H   0  0  0  0  0  0
  -23.3732  -35.9675   23.3246 H   0  0  0  0  0  0
  -24.3602  -36.9022   22.2050 H   0  0  0  0  0  0
  -23.7270  -37.6517   23.6705 H   0  0  0  0  0  0
  -26.0646  -31.4911   20.5598 H   0  0  0  0  0  0
  -26.8666  -30.8655   21.9616 H   0  0  0  0  0  0
  -28.1546  -28.9270   21.1823 H   0  0  0  0  0  0
  -25.9996  -25.8100   19.1085 H   0  0  0  0  0  0
  -24.0056  -27.2304   19.0772 H   0  0  0  0  0  0
  -23.8064  -30.5708   19.4081 H   0  0  0  0  0  0
  -22.7650  -29.2573   19.8271 H   0  0  0  0  0  0
  -25.1274  -36.1895   25.0800 H   0  0  0  0  0  0
  -20.9993  -28.3237   24.1366 H   0  0  0  0  0  0
  -20.5667  -26.2261   23.3580 H   0  0  0  0  0  0
  -21.6658  -26.7378   22.1181 H   0  0  0  0  0  0
  -19.6946  -25.6246   21.1184 H   0  0  0  0  0  0
  -19.6724  -27.3141   20.6666 H   0  0  0  0  0  0
  -17.4217  -26.6577   21.3962 H   0  0  0  0  0  0
  -18.0364  -26.0012   22.8942 H   0  0  0  0  0  0
  -19.7988  -30.7149   24.2255 H   0  0  0  0  0  0
  -17.5091  -31.6214   24.5133 H   0  0  0  0  0  0
  -15.5391  -30.2960   23.7625 H   0  0  0  0  0  0
  -15.8681  -28.0816   22.7000 H   0  0  0  0  0  0
  -24.5912  -30.7047   25.7917 H   0  0  0  0  0  0
  -24.8899  -32.2918   26.4845 H   0  0  0  0  0  0
  -25.8113  -30.9044   27.0286 H   0  0  0  0  0  0
  -26.2790  -29.6796   24.1153 H   0  0  0  0  0  0
  -27.4182  -29.7254   25.4447 H   0  0  0  0  0  0
  -27.8565  -30.4399   23.9078 H   0  0  0  0  0  0
  -27.2653  -33.3735   26.1907 H   0  0  0  0  0  0
  -28.3943  -32.6801   25.0359 H   0  0  0  0  0  0
  -28.0578  -31.8553   26.5535 H   0  0  0  0  0  0
  -28.2530  -38.0165   24.7568 H   0  0  0  0  0  0
  -28.1138  -36.2693   24.6156 H   0  0  0  0  0  0
  -27.2314  -37.1324   25.8858 H   0  0  0  0  0  0
  -20.9394  -29.8893   21.6999 H   0  0  0  0  0  0
  -26.0116  -38.2826   24.1527 H   0  0  0  0  0  0
  -29.5907  -20.6127   23.0826 H   0  0  0  0  0  0
  -28.9698  -18.3250   19.4757 H   0  0  0  0  0  0
  -29.1016  -14.5800   24.6576 H   0  0  0  0  0  0
  -28.0484  -15.9853   24.0778 H   0  0  0  0  0  0
  -30.9824  -15.4763   23.3451 H   0  0  0  0  0  0
  -30.2513  -19.5288   25.0989 H   0  0  0  0  0  0
  -30.8543  -17.8686   25.0633 H   0  0  0  0  0  0
  -29.1226  -18.1736   25.2002 H   0  0  0  0  0  0
  -28.4056  -23.4304   19.1546 H   0  0  0  0  0  0
  -27.2641  -23.6575   20.4876 H   0  0  0  0  0  0
  -29.9380  -24.9573   20.2894 H   0  0  0  0  0  0
  -28.8661  -25.1785   21.6494 H   0  0  0  0  0  0
  -28.4926  -22.2791   22.0022 H   0  0  0  0  0  0
  -29.9962  -22.4476   21.1527 H   0  0  0  0  0  0
  -28.6869  -15.4457   20.4969 H   0  0  0  0  0  0
  1 25  1  0  0  0
  1 30  2  0  0  0
  1 83  1  0  0  0
  2  3  1  0  0  0
  2 25  1  0  0  0
  2 85  1  0  0  0
  2 86  1  0  0  0
  3  4  1  0  0  0
  3 87  1  0  0  0
  3 88  1  0  0  0
  4  5  1  0  0  0
  4 89  1  0  0  0
  4 90  1  0  0  0
  5  6  1  0  0  0
  5 26  1  0  0  0
  5 91  1  0  0  0
  6 25  1  0  0  0
  6 92  1  0  0  0
  6 93  1  0  0  0
  7  8  2  0  0  0
  7 26  1  0  0  0
  7 29  1  0  0  0
  8  9  1  0  0  0
  8 22  1  0  0  0
  9 10  1  0  0  0
  9 27  2  0  0  0
 10 11  2  0  0  0
 10 15  1  0  0  0
 11 12  1  0  0  0
 11 94  1  0  0  0
 12 13  2  0  0  0
 12 95  1  0  0  0
 13 14  1  0  0  0
 13 31  1  0  0  0
 14 15  2  0  0  0
 14 96  1  0  0  0
 15 97  1  0  0  0
 16 17  2  0  0  0
 16 21  1  0  0  0
 16 31  1  0  0  0
 17 18  1  0  0  0
 17 98  1  0  0  0
 18 19  2  0  0  0
 18 99  1  0  0  0
 19 20  1  0  0  0
 19 24  1  0  0  0
 20 21  2  0  0  0
 20100  1  0  0  0
 21 23  1  0  0  0
 22 28  1  0  0  0
 22 32  2  0  0  0
 26 27  1  0  0  0
 28101  1  0  0  0
 28102  1  0  0  0
 29103  1  0  0  0
 29104  1  0  0  0
 33 34  1  0  0  0
 33 66  1  0  0  0
 33 70  2  0  0  0
 34 36  1  0  0  0
 34 59  1  0  0  0
 34105  1  0  0  0
 35 44  2  0  0  0
 35 45  1  0  0  0
 35 68  1  0  0  0
 36 56  1  0  0  0
 36106  1  0  0  0
 37 39  1  0  0  0
 37 47  1  0  0  0
 37 66  1  0  0  0
 37107  1  0  0  0
 38 43  2  0  0  0
 38 46  1  0  0  0
 38 47  1  0  0  0
 39 64  1  0  0  0
 39 67  2  0  0  0
 40 52  1  0  0  0
 40 53  2  0  0  0
 40 58  1  0  0  0
 41108  1  0  0  0
 41109  1  0  0  0
 41110  1  0  0  0
 41 48  1  0  0  0
 42 43  1  0  0  0
 42 66  1  0  0  0
 42111  1  0  0  0
 42112  1  0  0  0
 43 44  1  0  0  0
 44113  1  0  0  0
 45 46  2  0  0  0
 45114  1  0  0  0
 46115  1  0  0  0
 47116  1  0  0  0
 47117  1  0  0  0
 48 56  1  0  0  0
 48 65  1  0  0  0
 48118  1  0  0  0
 49 50  1  0  0  0
 49 53  1  0  0  0
 49 64  1  0  0  0
 49119  1  0  0  0
 50 51  1  0  0  0
 50120  1  0  0  0
 50121  1  0  0  0
 51 52  1  0  0  0
 51122  1  0  0  0
 51123  1  0  0  0
 52124  1  0  0  0
 52125  1  0  0  0
 53 54  1  0  0  0
 54 55  2  0  0  0
 54126  1  0  0  0
 55 57  1  0  0  0
 55127  1  0  0  0
 56 69  2  0  0  0
 57 58  2  0  0  0
 57128  1  0  0  0
 58129  1  0  0  0
 59 60  1  0  0  0
 59 61  1  0  0  0
 59 62  1  0  0  0
 60130  1  0  0  0
 60131  1  0  0  0
 60132  1  0  0  0
 61133  1  0  0  0
 61134  1  0  0  0
 61135  1  0  0  0
 62136  1  0  0  0
 62137  1  0  0  0
 62138  1  0  0  0
 63 65  1  0  0  0
 63139  1  0  0  0
 63140  1  0  0  0
 63141  1  0  0  0
 64142  1  0  0  0
 65143  1  0  0  0
 68 81  1  0  0  0
 71 74  2  0  0  0
 71 76  1  0  0  0
 71144  1  0  0  0
 72 75  1  0  0  0
 72 76  2  0  0  0
 72145  1  0  0  0
 73 74  1  0  0  0
 73 75  2  0  0  0
 73 78  1  0  0  0
 74 79  1  0  0  0
 75 83  1  0  0  0
 76 84  1  0  0  0
 77 78  2  0  0  0
 77146  1  0  0  0
 77147  1  0  0  0
 78148  1  0  0  0
 79149  1  0  0  0
 79150  1  0  0  0
 79151  1  0  0  0
 80 81  1  0  0  0
 80 82  1  0  0  0
 80152  1  0  0  0
 80153  1  0  0  0
 81154  1  0  0  0
 81155  1  0  0  0
 82 84  1  0  0  0
 82156  1  0  0  0
 82157  1  0  0  0
 83158  1  0  0  0
M  ISO  4   1 100  68 101  81 101  83 100
M  END
> <chiral flag>
0

> <version>
0

> <s_m_source_file>
/data/baiqing/PycharmProjects/Reinvent-master-3.2/result/LINK_invent/BTK/process_docking_weight1_custom_product_contain_oxygen_bond_distance_aromatic_linkinvent_7_9_3/rearranged_h_0115.sdf

> <i_m_source_file_index>
73

> <r_mmod_Potential_Energy-OPLS-2005>
329.124603271484

> <r_mmod_Stretch_Energy-OPLS-2005>
148.076309204102

> <r_mmod_Bend_Energy-OPLS-2005>
228.4921875

> <r_mmod_Torsional_Energy-OPLS-2005>
300.090026855469

> <r_mmod_Improper_Torsional_Energy-OPLS-2005>
13.391185760498

> <r_mmod_Van_der_Waal_Energy-OPLS-2005>
134.777938842773

> <r_mmod_Electrostatic_Energy-OPLS-2005>
-382.619476318359

> <r_mmod_Solvation_Energy-OPLS-2005>
-208.579208374023

> <b_mmod_Minimization_Converged-OPLS-2005>
0

> <r_mmod_RMS_Derivative-OPLS-2005>
14.4527730941772

$$$$
73
                    3D
 Structure written by MMmdl.
155163  0  0  1  0            999 V2000
  -30.6254  -14.6523   20.5221 C   0  0  0  0  0  0
  -30.4419  -12.4036   19.4625 C   0  0  0  0  0  0
  -29.5124  -12.5146   18.2333 C   0  0  0  0  0  0
  -28.0353  -12.3497   18.6409 C   0  0  0  0  0  0
  -27.6571  -13.2182   19.8690 C   0  0  2  0  0  0
  -28.7003  -13.0720   21.0011 C   0  0  0  0  0  0
  -25.2569  -13.8184   20.5690 C   0  0  0  0  0  0
  -24.1839  -13.0446   20.9191 C   0  0  0  0  0  0
  -24.6405  -11.6913   20.8729 C   0  0  0  0  0  0
  -23.9073  -10.4292   21.0401 C   0  0  0  0  0  0
  -24.3621   -9.4208   21.9182 C   0  0  0  0  0  0
  -23.6294   -8.2245   22.0755 C   0  0  0  0  0  0
  -22.4271   -8.0286   21.3548 C   0  0  0  0  0  0
  -21.9909   -9.0261   20.4646 C   0  0  0  0  0  0
  -22.7240  -10.2136   20.3055 C   0  0  0  0  0  0
  -21.6853   -6.0734   22.5281 C   0  0  0  0  0  0
  -21.4015   -6.5639   23.8213 C   0  0  0  0  0  0
  -21.3658   -5.6795   24.9174 C   0  0  0  0  0  0
  -21.6045   -4.3059   24.7220 C   0  0  0  0  0  0
  -21.8820   -3.8148   23.4343 C   0  0  0  0  0  0
  -21.9194   -4.6964   22.3401 C   0  0  0  0  0  0
  -22.7856  -13.5233   21.1849 C   0  0  0  0  0  0
  -22.1661   -4.2150   21.0978 F   0  0  0  0  0  0
  -21.5628   -3.4545   25.7732 F   0  0  0  0  0  0
  -30.0180  -13.4230   20.4458 N   0  0  0  0  0  0
  -26.3005  -12.9360   20.3334 N   0  0  0  0  0  0
  -25.9338  -11.6512   20.5763 N   0  0  0  0  0  0
  -22.0499  -12.8227   22.0403 N   0  0  0  0  0  0
  -25.4296  -15.1903   20.4099 N   0  0  0  0  0  0
  -31.7685  -14.8239   20.0906 O   0  0  0  0  0  0
  -21.6641   -6.8874   21.4241 O   0  0  0  0  0  0
  -22.3539  -14.5538   20.6694 O   0  0  0  0  0  0
  -24.6263  -31.8577   23.1984 C   0  0  0  0  0  0
  -25.9108  -32.4772   23.8306 C   0  0  1  0  0  0
  -27.2305  -27.3079   20.1303 C   0  0  0  0  0  0
  -25.5906  -33.8565   24.2243 N   0  0  0  0  0  0
  -23.4209  -30.4801   21.5424 C   0  0  2  0  0  0
  -24.8687  -28.9308   20.1135 C   0  0  0  0  0  0
  -22.7476  -29.4605   22.4920 C   0  0  0  0  0  0
  -18.0277  -28.1383   22.8478 C   0  0  0  0  0  0
  -24.1497  -36.7288   23.2639 C   0  0  0  0  0  0
  -25.9612  -30.7873   21.3698 C   0  0  0  0  0  0
  -26.0378  -29.4125   20.7169 C   0  0  0  0  0  0
  -27.2212  -28.6134   20.7139 C   0  0  0  0  0  0
  -26.0384  -26.8802   19.5012 C   0  0  0  0  0  0
  -24.8727  -27.6711   19.4930 C   0  0  0  0  0  0
  -23.6354  -29.8100   20.1607 C   0  0  0  0  0  0
  -25.4123  -36.3078   24.0323 C   0  0  1  0  0  0
  -20.5882  -28.3687   23.1281 C   0  0  2  0  0  0
  -20.6778  -26.9410   22.5418 C   0  0  0  0  0  0
  -19.5749  -26.6386   21.5218 C   0  0  0  0  0  0
  -18.1926  -26.7926   22.1627 C   0  0  0  0  0  0
  -19.1533  -28.8843   23.2876 C   0  0  0  0  0  0
  -18.9463  -30.1445   23.8897 C   0  0  0  0  0  0
  -17.6465  -30.6590   24.0557 C   0  0  0  0  0  0
  -25.9048  -34.9451   23.5096 C   0  0  0  0  0  0
  -16.5348  -29.9091   23.6332 C   0  0  0  0  0  0
  -16.7265  -28.6503   23.0357 C   0  0  0  0  0  0
  -26.4493  -31.6578   25.0678 C   0  0  0  0  0  0
  -25.3704  -31.3736   26.1390 C   0  0  0  0  0  0
  -27.0345  -30.2997   24.6141 C   0  0  0  0  0  0
  -27.6051  -32.4310   25.7459 C   0  0  0  0  0  0
  -27.5581  -37.1802   24.8463 C   0  0  0  0  0  0
  -21.4185  -29.3037   22.3675 N   0  0  0  0  0  0
  -26.4299  -37.3776   23.9399 N   0  0  0  0  0  0
  -24.6882  -31.0592   22.0932 N   0  0  0  0  0  0
  -23.4194  -28.8160   23.3014 O   0  0  0  0  0  0
  -28.3536  -26.4630   20.1945 O   0  0  0  0  0  0
  -26.5640  -34.8929   22.4679 O   0  0  0  0  0  0
  -23.5437  -32.1362   23.7328 O   0  0  0  0  0  0
  -30.7785  -17.8684   20.0082 C   0  0  0  0  0  0
  -29.0053  -19.3790   21.5981 C   0  0  0  0  0  0
  -29.8688  -20.1006   20.7115 C   0  0  0  0  0  0
  -29.9180  -17.1468   20.8731 C   0  0  0  0  0  0
  -29.0174  -17.9383   21.6441 C   0  0  0  0  0  0
  -30.7479  -19.2944   19.9270 C   0  0  0  0  0  0
  -29.0853  -22.4442   20.5019 C   0  0  0  0  0  0
  -28.0904  -20.1619   22.5399 C   0  0  0  0  0  0
  -29.3243  -24.0127   20.5519 C   0  0  0  0  0  0
  -28.1599  -24.9933   20.0789 C   0  0  0  0  0  0
  -30.0144  -21.5441   20.6706 N   0  0  0  0  0  0
  -28.1231  -17.2672   22.4817 N   0  0  0  0  0  0
  -29.8537  -15.6813   20.9938 N   0  0  0  0  0  0
  -31.6080  -19.9048   19.0751 F   0  0  0  0  0  0
  -31.4829  -12.5307   19.1604 H   0  0  0  0  0  0
  -30.3828  -11.4067   19.9027 H   0  0  0  0  0  0
  -29.7807  -11.7637   17.4889 H   0  0  0  0  0  0
  -29.6534  -13.4850   17.7536 H   0  0  0  0  0  0
  -27.8722  -11.2946   18.8695 H   0  0  0  0  0  0
  -27.3827  -12.5816   17.7991 H   0  0  0  0  0  0
  -27.6771  -14.2552   19.5318 H   0  0  0  0  0  0
  -28.7121  -12.0491   21.3799 H   0  0  0  0  0  0
  -28.4364  -13.6973   21.8547 H   0  0  0  0  0  0
  -25.2764   -9.5684   22.4752 H   0  0  0  0  0  0
  -24.0004   -7.4635   22.7477 H   0  0  0  0  0  0
  -21.0842   -8.8779   19.8950 H   0  0  0  0  0  0
  -22.3704  -10.9675   19.6160 H   0  0  0  0  0  0
  -21.2012   -7.6144   23.9713 H   0  0  0  0  0  0
  -21.1478   -6.0524   25.9076 H   0  0  0  0  0  0
  -22.0600   -2.7612   23.2846 H   0  0  0  0  0  0
  -22.4115  -11.9888   22.4792 H   0  0  0  0  0  0
  -21.1114  -13.1246   22.2608 H   0  0  0  0  0  0
  -24.6598  -15.8416   20.5112 H   0  0  0  0  0  0
  -26.2718  -15.6259   20.0580 H   0  0  0  0  0  0
  -26.7178  -32.5468   23.1055 H   0  0  0  0  0  0
  -25.0030  -33.9688   25.0371 H   0  0  0  0  0  0
  -22.7141  -31.3001   21.3967 H   0  0  0  0  0  0
  -23.3753  -35.9628   23.3308 H   0  0  0  0  0  0
  -24.3579  -36.8900   22.2056 H   0  0  0  0  0  0
  -23.7258  -37.6493   23.6654 H   0  0  0  0  0  0
  -26.0927  -31.5445   20.5956 H   0  0  0  0  0  0
  -26.8431  -30.8400   21.9982 H   0  0  0  0  0  0
  -28.1180  -28.9752   21.1982 H   0  0  0  0  0  0
  -25.9816  -25.9140   19.0214 H   0  0  0  0  0  0
  -23.9770  -27.2953   19.0166 H   0  0  0  0  0  0
  -23.7493  -30.5802   19.3971 H   0  0  0  0  0  0
  -22.7563  -29.2344   19.8668 H   0  0  0  0  0  0
  -25.1312  -36.1934   25.0821 H   0  0  0  0  0  0
  -20.9968  -28.3279   24.1398 H   0  0  0  0  0  0
  -20.5688  -26.2295   23.3621 H   0  0  0  0  0  0
  -21.6648  -26.7451   22.1197 H   0  0  0  0  0  0
  -19.6921  -25.6302   21.1235 H   0  0  0  0  0  0
  -19.6690  -27.3206   20.6757 H   0  0  0  0  0  0
  -17.4200  -26.6656   21.4027 H   0  0  0  0  0  0
  -18.0320  -26.0067   22.9022 H   0  0  0  0  0  0
  -19.7942  -30.7256   24.2269 H   0  0  0  0  0  0
  -17.5027  -31.6278   24.5158 H   0  0  0  0  0  0
  -15.5351  -30.3003   23.7665 H   0  0  0  0  0  0
  -15.8658  -28.0836   22.7080 H   0  0  0  0  0  0
  -24.5877  -30.7094   25.7699 H   0  0  0  0  0  0
  -24.8891  -32.2916   26.4767 H   0  0  0  0  0  0
  -25.7985  -30.8926   27.0190 H   0  0  0  0  0  0
  -26.2925  -29.6730   24.1175 H   0  0  0  0  0  0
  -27.4051  -29.7275   25.4654 H   0  0  0  0  0  0
  -27.8784  -30.4268   23.9357 H   0  0  0  0  0  0
  -27.2649  -33.3607   26.2029 H   0  0  0  0  0  0
  -28.3861  -32.6869   25.0284 H   0  0  0  0  0  0
  -28.0710  -31.8429   26.5375 H   0  0  0  0  0  0
  -28.2617  -38.0091   24.7511 H   0  0  0  0  0  0
  -28.1070  -36.2616   24.6299 H   0  0  0  0  0  0
  -27.2284  -37.1462   25.8866 H   0  0  0  0  0  0
  -20.9365  -29.8743   21.6871 H   0  0  0  0  0  0
  -26.0182  -38.2852   24.1394 H   0  0  0  0  0  0
  -31.4789  -17.3370   19.3820 H   0  0  0  0  0  0
  -28.0442  -22.1624   20.3262 H   0  0  0  0  0  0
  -28.6606  -20.9171   23.0833 H   0  0  0  0  0  0
  -27.5973  -19.5545   23.2955 H   0  0  0  0  0  0
  -27.3080  -20.6622   21.9712 H   0  0  0  0  0  0
  -30.2179  -24.2372   19.9697 H   0  0  0  0  0  0
  -29.5743  -24.2669   21.5835 H   0  0  0  0  0  0
  -27.9480  -24.7672   19.0344 H   0  0  0  0  0  0
  -27.2637  -24.7204   20.6378 H   0  0  0  0  0  0
  -27.3770  -17.8365   22.8626 H   0  0  0  0  0  0
  -27.7604  -16.3766   22.1691 H   0  0  0  0  0  0
  -29.0272  -15.3630   21.4694 H   0  0  0  0  0  0
  1 25  1  0  0  0
  1 30  2  0  0  0
  1 83  1  0  0  0
  2  3  1  0  0  0
  2 25  1  0  0  0
  2 85  1  0  0  0
  2 86  1  0  0  0
  3  4  1  0  0  0
  3 87  1  0  0  0
  3 88  1  0  0  0
  4  5  1  0  0  0
  4 89  1  0  0  0
  4 90  1  0  0  0
  5  6  1  0  0  0
  5 26  1  0  0  0
  5 91  1  0  0  0
  6 25  1  0  0  0
  6 92  1  0  0  0
  6 93  1  0  0  0
  7  8  2  0  0  0
  7 26  1  0  0  0
  7 29  1  0  0  0
  8  9  1  0  0  0
  8 22  1  0  0  0
  9 10  1  0  0  0
  9 27  2  0  0  0
 10 11  2  0  0  0
 10 15  1  0  0  0
 11 12  1  0  0  0
 11 94  1  0  0  0
 12 13  2  0  0  0
 12 95  1  0  0  0
 13 14  1  0  0  0
 13 31  1  0  0  0
 14 15  2  0  0  0
 14 96  1  0  0  0
 15 97  1  0  0  0
 16 17  2  0  0  0
 16 21  1  0  0  0
 16 31  1  0  0  0
 17 18  1  0  0  0
 17 98  1  0  0  0
 18 19  2  0  0  0
 18 99  1  0  0  0
 19 20  1  0  0  0
 19 24  1  0  0  0
 20 21  2  0  0  0
 20100  1  0  0  0
 21 23  1  0  0  0
 22 28  1  0  0  0
 22 32  2  0  0  0
 26 27  1  0  0  0
 28101  1  0  0  0
 28102  1  0  0  0
 29103  1  0  0  0
 29104  1  0  0  0
 33 34  1  0  0  0
 33 66  1  0  0  0
 33 70  2  0  0  0
 34 36  1  0  0  0
 34 59  1  0  0  0
 34105  1  0  0  0
 35 44  2  0  0  0
 35 45  1  0  0  0
 35 68  1  0  0  0
 36 56  1  0  0  0
 36106  1  0  0  0
 37 39  1  0  0  0
 37 47  1  0  0  0
 37 66  1  0  0  0
 37107  1  0  0  0
 38 43  2  0  0  0
 38 46  1  0  0  0
 38 47  1  0  0  0
 39 64  1  0  0  0
 39 67  2  0  0  0
 40 52  1  0  0  0
 40 53  2  0  0  0
 40 58  1  0  0  0
 41108  1  0  0  0
 41109  1  0  0  0
 41110  1  0  0  0
 41 48  1  0  0  0
 42 43  1  0  0  0
 42 66  1  0  0  0
 42111  1  0  0  0
 42112  1  0  0  0
 43 44  1  0  0  0
 44113  1  0  0  0
 45 46  2  0  0  0
 45114  1  0  0  0
 46115  1  0  0  0
 47116  1  0  0  0
 47117  1  0  0  0
 48 56  1  0  0  0
 48 65  1  0  0  0
 48118  1  0  0  0
 49 50  1  0  0  0
 49 53  1  0  0  0
 49 64  1  0  0  0
 49119  1  0  0  0
 50 51  1  0  0  0
 50120  1  0  0  0
 50121  1  0  0  0
 51 52  1  0  0  0
 51122  1  0  0  0
 51123  1  0  0  0
 52124  1  0  0  0
 52125  1  0  0  0
 53 54  1  0  0  0
 54 55  2  0  0  0
 54126  1  0  0  0
 55 57  1  0  0  0
 55127  1  0  0  0
 56 69  2  0  0  0
 57 58  2  0  0  0
 57128  1  0  0  0
 58129  1  0  0  0
 59 60  1  0  0  0
 59 61  1  0  0  0
 59 62  1  0  0  0
 60130  1  0  0  0
 60131  1  0  0  0
 60132  1  0  0  0
 61133  1  0  0  0
 61134  1  0  0  0
 61135  1  0  0  0
 62136  1  0  0  0
 62137  1  0  0  0
 62138  1  0  0  0
 63 65  1  0  0  0
 63139  1  0  0  0
 63140  1  0  0  0
 63141  1  0  0  0
 64142  1  0  0  0
 65143  1  0  0  0
 68 80  1  0  0  0
 71 74  2  0  0  0
 71 76  1  0  0  0
 71144  1  0  0  0
 72 73  1  0  0  0
 72 75  2  0  0  0
 72 78  1  0  0  0
 73 76  2  0  0  0
 73 81  1  0  0  0
 74 75  1  0  0  0
 74 83  1  0  0  0
 75 82  1  0  0  0
 76 84  1  0  0  0
 77 79  1  0  0  0
 77 81  2  0  0  0
 77145  1  0  0  0
 78146  1  0  0  0
 78147  1  0  0  0
 78148  1  0  0  0
 79 80  1  0  0  0
 79149  1  0  0  0
 79150  1  0  0  0
 80151  1  0  0  0
 80152  1  0  0  0
 82153  1  0  0  0
 82154  1  0  0  0
 83155  1  0  0  0
M  ISO  4   1 100  68 101  80 101  83 100
M  END
> <chiral flag>
0

> <version>
0

> <s_m_source_file>
/data/baiqing/PycharmProjects/Reinvent-master-3.2/result/LINK_invent/BTK/process_docking_weight1_custom_product_contain_oxygen_bond_distance_aromatic_linkinvent_7_9_3/rearranged_h_0115.sdf

> <i_m_source_file_index>
74

> <r_mmod_Potential_Energy-OPLS-2005>
-26.6143932342529

> <r_mmod_Stretch_Energy-OPLS-2005>
90.2856597900391

> <r_mmod_Bend_Energy-OPLS-2005>
149.763656616211

> <r_mmod_Torsional_Energy-OPLS-2005>
228.376312255859

> <r_mmod_Improper_Torsional_Energy-OPLS-2005>
8.14027404785156

> <r_mmod_Van_der_Waal_Energy-OPLS-2005>
154.199920654297

> <r_mmod_Electrostatic_Energy-OPLS-2005>
-486.557495117188

> <r_mmod_Solvation_Energy-OPLS-2005>
-222.793014526367

> <b_mmod_Minimization_Converged-OPLS-2005>
0

> <r_mmod_RMS_Derivative-OPLS-2005>
2.56840872764587

$$$$
74
                    3D
 Structure written by MMmdl.
168176  0  0  1  0            999 V2000
  -30.1712  -13.9169   21.3107 C   0  0  0  0  0  0
  -30.5587  -12.2866   19.4124 C   0  0  0  0  0  0
  -29.7273  -12.0270   18.1184 C   0  0  0  0  0  0
  -28.2448  -11.8503   18.4671 C   0  0  0  0  0  0
  -27.8067  -13.1520   19.0161 C   0  0  2  0  0  0
  -28.8377  -13.8946   19.7271 C   0  0  0  0  0  0
  -25.8551  -14.6228   20.0622 C   0  0  0  0  0  0
  -24.1210  -13.7150   21.3272 C   0  0  0  0  0  0
  -24.6411  -11.9955   21.2630 C   0  0  0  0  0  0
  -23.8981  -10.6479   21.2823 C   0  0  0  0  0  0
  -24.3676   -9.5446   22.0451 C   0  0  0  0  0  0
  -23.6705   -8.3067   22.1076 C   0  0  0  0  0  0
  -22.4777   -8.1043   21.3734 C   0  0  0  0  0  0
  -22.0623   -9.1433   20.5151 C   0  0  0  0  0  0
  -22.7614  -10.3781   20.4635 C   0  0  0  0  0  0
  -21.7141   -6.1075   22.5127 C   0  0  0  0  0  0
  -21.4209   -6.5867   23.8101 C   0  0  0  0  0  0
  -21.3686   -5.6965   24.9036 C   0  0  0  0  0  0
  -21.6005   -4.3217   24.7082 C   0  0  0  0  0  0
  -21.8768   -3.8359   23.4185 C   0  0  0  0  0  0
  -21.9265   -4.7227   22.3264 C   0  0  0  0  0  0
  -22.6151  -13.8272   21.5880 C   0  0  0  0  0  0
  -22.1712   -4.2352   21.0866 F   0  0  0  0  0  0
  -21.5541   -3.4665   25.7580 F   0  0  0  0  0  0
  -29.7868  -13.0761   20.3873 N   0  0  0  0  0  0
  -26.7022  -13.1529   19.7846 N   0  0  0  0  0  0
  -26.0230  -11.8057   20.4713 N   0  0  0  0  0  0
  -22.0708  -12.8784   22.3294 N   0  0  0  0  0  0
  -26.3521  -15.7415   19.4329 N   0  0  0  0  0  0
  -31.2434  -14.5554   21.1038 O   0  0  0  0  0  0
  -21.7289   -6.9397   21.4113 O   0  0  0  0  0  0
  -21.8645  -14.6246   21.0527 O   0  0  0  0  0  0
  -24.6586  -31.8335   23.1855 C   0  0  0  0  0  0
  -25.9325  -32.4605   23.8237 C   0  0  1  0  0  0
  -26.9043  -26.8472   20.2728 C   0  0  0  0  0  0
  -25.6039  -33.8431   24.2130 N   0  0  0  0  0  0
  -23.4568  -30.4727   21.5351 C   0  0  2  0  0  0
  -24.8622  -28.8929   20.0805 C   0  0  0  0  0  0
  -22.7595  -29.4531   22.4745 C   0  0  0  0  0  0
  -18.0313  -28.1401   22.8466 C   0  0  0  0  0  0
  -24.1501  -36.7201   23.2643 C   0  0  0  0  0  0
  -26.0283  -30.6145   21.4294 C   0  0  0  0  0  0
  -26.0405  -29.2115   20.7673 C   0  0  0  0  0  0
  -27.0856  -28.1937   20.8527 C   0  0  0  0  0  0
  -25.8097  -26.7487   19.4125 C   0  0  0  0  0  0
  -24.7823  -27.6977   19.3636 C   0  0  0  0  0  0
  -23.6798  -29.8422   20.1377 C   0  0  0  0  0  0
  -25.4141  -36.2968   24.0296 C   0  0  1  0  0  0
  -20.5936  -28.3746   23.1175 C   0  0  2  0  0  0
  -20.6796  -26.9435   22.5382 C   0  0  0  0  0  0
  -19.5767  -26.6376   21.5200 C   0  0  0  0  0  0
  -18.1952  -26.7936   22.1619 C   0  0  0  0  0  0
  -19.1575  -28.8887   23.2820 C   0  0  0  0  0  0
  -18.9495  -30.1479   23.8853 C   0  0  0  0  0  0
  -17.6492  -30.6593   24.0558 C   0  0  0  0  0  0
  -25.9115  -34.9354   23.5017 C   0  0  0  0  0  0
  -16.5379  -29.9083   23.6347 C   0  0  0  0  0  0
  -16.7297  -28.6503   23.0363 C   0  0  0  0  0  0
  -26.4574  -31.6538   25.0755 C   0  0  0  0  0  0
  -25.3709  -31.3804   26.1416 C   0  0  0  0  0  0
  -27.0482  -30.2894   24.6537 C   0  0  0  0  0  0
  -27.6059  -32.4357   25.7555 C   0  0  0  0  0  0
  -27.5569  -37.1766   24.8465 C   0  0  0  0  0  0
  -21.4275  -29.3064   22.3511 N   0  0  0  0  0  0
  -26.4282  -37.3702   23.9402 N   0  0  0  0  0  0
  -24.7376  -31.0040   22.0996 N   0  0  0  0  0  0
  -23.4201  -28.8035   23.2896 O   0  0  0  0  0  0
  -27.5560  -25.5459   20.4868 O   0  0  0  0  0  0
  -26.5696  -34.8871   22.4596 O   0  0  0  0  0  0
  -23.5681  -32.1350   23.6966 O   0  0  0  0  0  0
  -23.6730  -14.6982   19.1115 C   0  0  0  0  0  0
  -25.7410  -15.2943   22.3556 C   0  0  0  0  0  0
  -24.4785  -13.2130   19.2979 C   0  0  0  0  0  0
  -26.1651  -13.6834   21.9282 C   0  0  0  0  0  0
  -23.8447  -16.0452   20.1374 C   0  0  0  0  0  0
  -24.7999  -16.3881   21.4727 C   0  0  0  0  0  0
  -24.1647  -12.5643   16.8930 C   0  0  0  0  0  0
  -24.4754  -12.2370   18.1593 C   0  0  0  0  0  0
  -27.6138  -12.8407   23.9161 C   0  0  0  0  0  0
  -22.1338  -17.1132   18.8249 C   0  0  0  0  0  0
  -26.8181  -22.3497   20.6986 C   0  0  0  0  0  0
  -25.8018  -20.9455   21.2599 C   0  0  0  0  0  0
  -26.6721  -24.1593   20.8151 C   0  0  0  0  0  0
  -25.7937  -19.1384   21.0223 C   0  0  0  0  0  0
  -27.7103  -13.2069   22.4301 C   0  0  2  0  0  0
  -29.1009  -14.0107   22.2657 N   0  0  0  0  0  0
  -23.1817  -17.1999   19.7780 O   0  0  0  0  0  0
  -24.9934  -17.8919   21.7512 O   0  0  0  0  0  0
  -31.5002  -12.7781   19.1624 H   0  0  0  0  0  0
  -30.8108  -11.3370   19.8871 H   0  0  0  0  0  0
  -30.0972  -11.1255   17.6284 H   0  0  0  0  0  0
  -29.8620  -12.8281   17.3873 H   0  0  0  0  0  0
  -28.1466  -11.0473   19.2006 H   0  0  0  0  0  0
  -27.6472  -11.5647   17.5996 H   0  0  0  0  0  0
  -27.5351  -13.7482   18.1422 H   0  0  0  0  0  0
  -28.4173  -14.7995   20.1795 H   0  0  0  0  0  0
  -29.4122  -14.4166   18.9531 H   0  0  0  0  0  0
  -25.2652   -9.6681   22.6348 H   0  0  0  0  0  0
  -24.0552   -7.5223   22.7438 H   0  0  0  0  0  0
  -21.1782   -9.0101   19.9069 H   0  0  0  0  0  0
  -22.3914  -11.1577   19.8129 H   0  0  0  0  0  0
  -21.2334   -7.6388   23.9681 H   0  0  0  0  0  0
  -21.1479   -6.0681   25.8940 H   0  0  0  0  0  0
  -22.0459   -2.7812   23.2634 H   0  0  0  0  0  0
  -22.6302  -12.1654   22.7706 H   0  0  0  0  0  0
  -21.0724  -12.8790   22.4780 H   0  0  0  0  0  0
  -25.8380  -16.6107   19.4075 H   0  0  0  0  0  0
  -27.1258  -15.7251   18.7839 H   0  0  0  0  0  0
  -26.7361  -32.5071   23.0907 H   0  0  0  0  0  0
  -25.0152  -33.9537   25.0254 H   0  0  0  0  0  0
  -22.7694  -31.3101   21.3977 H   0  0  0  0  0  0
  -23.3770  -35.9528   23.3288 H   0  0  0  0  0  0
  -24.3575  -36.8862   22.2062 H   0  0  0  0  0  0
  -23.7258  -37.6386   23.6708 H   0  0  0  0  0  0
  -26.2342  -31.3522   20.6532 H   0  0  0  0  0  0
  -26.8887  -30.6430   22.0863 H   0  0  0  0  0  0
  -27.9431  -28.3824   21.4813 H   0  0  0  0  0  0
  -25.6543  -25.8400   18.8503 H   0  0  0  0  0  0
  -23.8988  -27.4770   18.7815 H   0  0  0  0  0  0
  -23.8621  -30.6359   19.4131 H   0  0  0  0  0  0
  -22.7773  -29.3317   19.7954 H   0  0  0  0  0  0
  -25.1339  -36.1768   25.0788 H   0  0  0  0  0  0
  -21.0059  -28.3362   24.1286 H   0  0  0  0  0  0
  -20.5683  -26.2374   23.3623 H   0  0  0  0  0  0
  -21.6661  -26.7417   22.1187 H   0  0  0  0  0  0
  -19.6933  -25.6273   21.1264 H   0  0  0  0  0  0
  -19.6704  -27.3160   20.6708 H   0  0  0  0  0  0
  -17.4220  -26.6669   21.4027 H   0  0  0  0  0  0
  -18.0358  -26.0087   22.9025 H   0  0  0  0  0  0
  -19.7973  -30.7303   24.2204 H   0  0  0  0  0  0
  -17.5047  -31.6272   24.5167 H   0  0  0  0  0  0
  -15.5381  -30.2979   23.7690 H   0  0  0  0  0  0
  -15.8694  -28.0809   22.7108 H   0  0  0  0  0  0
  -24.5916  -30.7121   25.7739 H   0  0  0  0  0  0
  -24.8879  -32.3014   26.4690 H   0  0  0  0  0  0
  -25.7948  -30.9085   27.0291 H   0  0  0  0  0  0
  -26.3159  -29.6544   24.1545 H   0  0  0  0  0  0
  -27.3976  -29.7284   25.5217 H   0  0  0  0  0  0
  -27.9122  -30.4052   23.9993 H   0  0  0  0  0  0
  -27.2612  -33.3690   26.2026 H   0  0  0  0  0  0
  -28.3925  -32.6874   25.0426 H   0  0  0  0  0  0
  -28.0676  -31.8571   26.5572 H   0  0  0  0  0  0
  -28.2567  -38.0078   24.7502 H   0  0  0  0  0  0
  -28.1086  -36.2603   24.6309 H   0  0  0  0  0  0
  -27.2281  -37.1422   25.8866 H   0  0  0  0  0  0
  -20.9473  -29.8812   21.6723 H   0  0  0  0  0  0
  -26.0126  -38.2759   24.1408 H   0  0  0  0  0  0
  -23.0399  -14.7900   18.2445 H   0  0  0  0  0  0
  -26.3481  -15.7362   23.1323 H   0  0  0  0  0  0
  -24.1703  -11.8211   16.1082 H   0  0  0  0  0  0
  -23.9100  -13.5748   16.6067 H   0  0  0  0  0  0
  -24.7273  -11.2090   18.3786 H   0  0  0  0  0  0
  -26.8605  -12.0686   24.0783 H   0  0  0  0  0  0
  -27.3477  -13.7020   24.5284 H   0  0  0  0  0  0
  -28.5604  -12.4528   24.2927 H   0  0  0  0  0  0
  -21.4174  -16.3280   19.0724 H   0  0  0  0  0  0
  -22.5232  -16.9496   17.8199 H   0  0  0  0  0  0
  -21.5871  -18.0565   18.8087 H   0  0  0  0  0  0
  -26.9605  -22.1665   19.6329 H   0  0  0  0  0  0
  -27.7987  -22.1411   21.1265 H   0  0  0  0  0  0
  -24.7907  -21.2341   20.9719 H   0  0  0  0  0  0
  -25.7959  -21.0588   22.3449 H   0  0  0  0  0  0
  -26.4477  -24.3125   21.8704 H   0  0  0  0  0  0
  -25.7062  -24.3237   20.3431 H   0  0  0  0  0  0
  -26.8379  -18.8432   21.1321 H   0  0  0  0  0  0
  -25.6014  -18.9896   19.9596 H   0  0  0  0  0  0
  -27.9173  -12.2502   21.9576 H   0  0  0  0  0  0
  -29.2618  -14.7067   22.9783 H   0  0  0  0  0  0
  1 25  1  0  0  0
  1 30  2  0  0  0
  1 86  1  0  0  0
  2  3  1  0  0  0
  2 25  1  0  0  0
  2 89  1  0  0  0
  2 90  1  0  0  0
  3  4  1  0  0  0
  3 91  1  0  0  0
  3 92  1  0  0  0
  4  5  1  0  0  0
  4 93  1  0  0  0
  4 94  1  0  0  0
  5  6  1  0  0  0
  5 26  1  0  0  0
  5 95  1  0  0  0
  6 25  1  0  0  0
  6 96  1  0  0  0
  6 97  1  0  0  0
  7  8  2  0  0  0
  7 26  1  0  0  0
  7 29  1  0  0  0
  8  9  1  0  0  0
  8 22  1  0  0  0
  9 10  1  0  0  0
  9 27  2  0  0  0
 10 11  2  0  0  0
 10 15  1  0  0  0
 11 12  1  0  0  0
 11 98  1  0  0  0
 12 13  2  0  0  0
 12 99  1  0  0  0
 13 14  1  0  0  0
 13 31  1  0  0  0
 14 15  2  0  0  0
 14100  1  0  0  0
 15101  1  0  0  0
 16 17  2  0  0  0
 16 21  1  0  0  0
 16 31  1  0  0  0
 17 18  1  0  0  0
 17102  1  0  0  0
 18 19  2  0  0  0
 18103  1  0  0  0
 19 20  1  0  0  0
 19 24  1  0  0  0
 20 21  2  0  0  0
 20104  1  0  0  0
 21 23  1  0  0  0
 22 28  1  0  0  0
 22 32  2  0  0  0
 26 27  1  0  0  0
 28105  1  0  0  0
 28106  1  0  0  0
 29107  1  0  0  0
 29108  1  0  0  0
 33 34  1  0  0  0
 33 66  1  0  0  0
 33 70  2  0  0  0
 34 36  1  0  0  0
 34 59  1  0  0  0
 34109  1  0  0  0
 35 44  2  0  0  0
 35 45  1  0  0  0
 35 68  1  0  0  0
 36 56  1  0  0  0
 36110  1  0  0  0
 37 39  1  0  0  0
 37 47  1  0  0  0
 37 66  1  0  0  0
 37111  1  0  0  0
 38 43  2  0  0  0
 38 46  1  0  0  0
 38 47  1  0  0  0
 39 64  1  0  0  0
 39 67  2  0  0  0
 40 52  1  0  0  0
 40 53  2  0  0  0
 40 58  1  0  0  0
 41112  1  0  0  0
 41113  1  0  0  0
 41114  1  0  0  0
 41 48  1  0  0  0
 42 43  1  0  0  0
 42 66  1  0  0  0
 42115  1  0  0  0
 42116  1  0  0  0
 43 44  1  0  0  0
 44117  1  0  0  0
 45 46  2  0  0  0
 45118  1  0  0  0
 46119  1  0  0  0
 47120  1  0  0  0
 47121  1  0  0  0
 48 56  1  0  0  0
 48 65  1  0  0  0
 48122  1  0  0  0
 49 50  1  0  0  0
 49 53  1  0  0  0
 49 64  1  0  0  0
 49123  1  0  0  0
 50 51  1  0  0  0
 50124  1  0  0  0
 50125  1  0  0  0
 51 52  1  0  0  0
 51126  1  0  0  0
 51127  1  0  0  0
 52128  1  0  0  0
 52129  1  0  0  0
 53 54  1  0  0  0
 54 55  2  0  0  0
 54130  1  0  0  0
 55 57  1  0  0  0
 55131  1  0  0  0
 56 69  2  0  0  0
 57 58  2  0  0  0
 57132  1  0  0  0
 58133  1  0  0  0
 59 60  1  0  0  0
 59 61  1  0  0  0
 59 62  1  0  0  0
 60134  1  0  0  0
 60135  1  0  0  0
 60136  1  0  0  0
 61137  1  0  0  0
 61138  1  0  0  0
 61139  1  0  0  0
 62140  1  0  0  0
 62141  1  0  0  0
 62142  1  0  0  0
 63 65  1  0  0  0
 63143  1  0  0  0
 63144  1  0  0  0
 63145  1  0  0  0
 64146  1  0  0  0
 65147  1  0  0  0
 68 83  1  0  0  0
 71 73  2  0  0  0
 71 75  1  0  0  0
 71148  1  0  0  0
 72 74  2  0  0  0
 72 76  1  0  0  0
 72149  1  0  0  0
 73 74  1  0  0  0
 73 78  1  0  0  0
 74 85  1  0  0  0
 75 76  2  0  0  0
 75 87  1  0  0  0
 76 88  1  0  0  0
 77 78  2  0  0  0
 77150  1  0  0  0
 77151  1  0  0  0
 78152  1  0  0  0
 79153  1  0  0  0
 79154  1  0  0  0
 79155  1  0  0  0
 79 85  1  0  0  0
 80 87  1  0  0  0
 80156  1  0  0  0
 80157  1  0  0  0
 80158  1  0  0  0
 81 82  1  0  0  0
 81 83  1  0  0  0
 81159  1  0  0  0
 81160  1  0  0  0
 82 84  1  0  0  0
 82161  1  0  0  0
 82162  1  0  0  0
 83163  1  0  0  0
 83164  1  0  0  0
 84 88  1  0  0  0
 84165  1  0  0  0
 84166  1  0  0  0
 85 86  1  0  0  0
 85167  1  0  0  0
 86168  1  0  0  0
M  ISO  4   1 100  68 101  83 101  86 100
M  END
> <chiral flag>
0

> <version>
0

> <s_m_source_file>
/data/baiqing/PycharmProjects/Reinvent-master-3.2/result/LINK_invent/BTK/process_docking_weight1_custom_product_contain_oxygen_bond_distance_aromatic_linkinvent_7_9_3/rearranged_h_0115.sdf

> <i_m_source_file_index>
75

> <r_mmod_Potential_Energy-OPLS-2005>
16985.849609375

> <r_mmod_Stretch_Energy-OPLS-2005>
10596.3994140625

> <r_mmod_Bend_Energy-OPLS-2005>
802.830810546875

> <r_mmod_Torsional_Energy-OPLS-2005>
426.279205322266

> <r_mmod_Improper_Torsional_Energy-OPLS-2005>
50.8270835876465

> <r_mmod_Van_der_Waal_Energy-OPLS-2005>
4123.833984375

> <r_mmod_Electrostatic_Energy-OPLS-2005>
-433.665252685547

> <r_mmod_Solvation_Energy-OPLS-2005>
-201.922286987305

> <b_mmod_Minimization_Converged-OPLS-2005>
0

> <r_mmod_RMS_Derivative-OPLS-2005>
7.25257015228271

$$$$
75
                    3D
 Structure written by MMmdl.
157165  0  0  1  0            999 V2000
  -30.5522  -14.7754   20.4645 C   0  0  0  0  0  0
  -30.4470  -12.4743   19.4773 C   0  0  0  0  0  0
  -29.5382  -12.5703   18.2393 C   0  0  0  0  0  0
  -28.0527  -12.3885   18.6297 C   0  0  0  0  0  0
  -27.6483  -13.2357   19.8626 C   0  0  2  0  0  0
  -28.6920  -13.1175   20.9815 C   0  0  0  0  0  0
  -25.2536  -13.8083   20.5643 C   0  0  0  0  0  0
  -24.1917  -13.0470   20.9169 C   0  0  0  0  0  0
  -24.6454  -11.6882   20.8671 C   0  0  0  0  0  0
  -23.9127  -10.4295   21.0340 C   0  0  0  0  0  0
  -24.3664   -9.4197   21.9143 C   0  0  0  0  0  0
  -23.6299   -8.2285   22.0769 C   0  0  0  0  0  0
  -22.4284   -8.0287   21.3565 C   0  0  0  0  0  0
  -21.9913   -9.0267   20.4668 C   0  0  0  0  0  0
  -22.7273  -10.2103   20.3012 C   0  0  0  0  0  0
  -21.6829   -6.0766   22.5306 C   0  0  0  0  0  0
  -21.3985   -6.5651   23.8236 C   0  0  0  0  0  0
  -21.3668   -5.6783   24.9197 C   0  0  0  0  0  0
  -21.6067   -4.3055   24.7222 C   0  0  0  0  0  0
  -21.8834   -3.8172   23.4335 C   0  0  0  0  0  0
  -21.9181   -4.7010   22.3396 C   0  0  0  0  0  0
  -22.7886  -13.5168   21.1898 C   0  0  0  0  0  0
  -22.1657   -4.2180   21.0978 F   0  0  0  0  0  0
  -21.5630   -3.4533   25.7734 F   0  0  0  0  0  0
  -29.9804  -13.5231   20.4075 N   0  0  0  0  0  0
  -26.3022  -12.9384   20.3246 N   0  0  0  0  0  0
  -25.9394  -11.6524   20.5707 N   0  0  0  0  0  0
  -22.0574  -12.8198   22.0436 N   0  0  0  0  0  0
  -25.4094  -15.1799   20.3723 N   0  0  0  0  0  0
  -31.7591  -14.9017   20.2622 O   0  0  0  0  0  0
  -21.6647   -6.8902   21.4258 O   0  0  0  0  0  0
  -22.3559  -14.5539   20.6757 O   0  0  0  0  0  0
  -24.6518  -31.8365   23.1898 C   0  0  0  0  0  0
  -25.9272  -32.4645   23.8222 C   0  0  1  0  0  0
  -27.1787  -27.1527   20.0565 C   0  0  0  0  0  0
  -25.5901  -33.8463   24.2124 N   0  0  0  0  0  0
  -23.4443  -30.4551   21.5640 C   0  0  2  0  0  0
  -24.8762  -28.9121   20.1055 C   0  0  0  0  0  0
  -22.7539  -29.4306   22.4995 C   0  0  0  0  0  0
  -18.0141  -28.1569   22.8481 C   0  0  0  0  0  0
  -24.1521  -36.7260   23.2613 C   0  0  0  0  0  0
  -26.0005  -30.7234   21.3792 C   0  0  0  0  0  0
  -26.0744  -29.3352   20.6956 C   0  0  0  0  0  0
  -27.2446  -28.4716   20.6515 C   0  0  0  0  0  0
  -25.9407  -26.8285   19.4524 C   0  0  0  0  0  0
  -24.8224  -27.6686   19.4737 C   0  0  0  0  0  0
  -23.6733  -29.8234   20.1615 C   0  0  0  0  0  0
  -25.4144  -36.3005   24.0282 C   0  0  1  0  0  0
  -20.5769  -28.3595   23.1288 C   0  0  2  0  0  0
  -20.6596  -26.9272   22.5325 C   0  0  0  0  0  0
  -19.5272  -26.6339   21.5309 C   0  0  0  0  0  0
  -18.1501  -26.7916   22.2037 C   0  0  0  0  0  0
  -19.1425  -28.8940   23.2768 C   0  0  0  0  0  0
  -18.9516  -30.1653   23.8612 C   0  0  0  0  0  0
  -17.6604  -30.6888   24.0392 C   0  0  0  0  0  0
  -25.9063  -34.9350   23.5026 C   0  0  0  0  0  0
  -16.5325  -29.9510   23.6428 C   0  0  0  0  0  0
  -16.7169  -28.6894   23.0561 C   0  0  0  0  0  0
  -26.4648  -31.6568   25.0728 C   0  0  0  0  0  0
  -25.3739  -31.3717   26.1346 C   0  0  0  0  0  0
  -27.0456  -30.2955   24.6233 C   0  0  0  0  0  0
  -27.6125  -32.4387   25.7569 C   0  0  0  0  0  0
  -27.5575  -37.1777   24.8432 C   0  0  0  0  0  0
  -21.4252  -29.3020   22.3828 N   0  0  0  0  0  0
  -26.4271  -37.3738   23.9384 N   0  0  0  0  0  0
  -24.7213  -31.0129   22.1049 N   0  0  0  0  0  0
  -23.4216  -28.7683   23.2875 O   0  0  0  0  0  0
  -28.2095  -26.1612   20.0404 O   0  0  0  0  0  0
  -26.5705  -34.8860   22.4650 O   0  0  0  0  0  0
  -23.5660  -32.1277   23.7161 O   0  0  0  0  0  0
  -30.5914  -17.8963   21.6927 C   0  0  0  0  0  0
  -29.8399  -17.3640   20.5958 C   0  0  0  0  0  0
  -28.7330  -18.2757   20.2908 C   0  0  0  0  0  0
  -29.9309  -18.7363   22.6189 C   0  0  0  0  0  0
  -27.9640  -18.5291   21.4527 C   0  0  0  0  0  0
  -28.7966  -23.4321   19.8353 C   0  0  0  0  0  0
  -28.4645  -22.0765   19.9485 C   0  0  0  0  0  0
  -30.6511  -19.6905   23.5658 C   0  0  0  0  0  0
  -26.4991  -18.1324   21.5401 C   0  0  0  0  0  0
  -27.8027  -24.6832   19.9807 C   0  0  0  0  0  0
  -29.3893  -20.7707   19.9037 C   0  0  0  0  0  0
  -28.5839  -18.8577   22.6055 N   0  0  0  0  0  0
  -29.6905  -15.8766   20.4594 N   0  0  0  0  0  0
  -28.8586  -19.4352   19.4577 O   0  0  0  0  0  0
  -31.4939  -12.6038   19.2183 H   0  0  0  0  0  0
  -30.3929  -11.4846   19.9249 H   0  0  0  0  0  0
  -29.8419  -11.8292   17.4958 H   0  0  0  0  0  0
  -29.7081  -13.5527   17.7852 H   0  0  0  0  0  0
  -27.8884  -11.3303   18.8507 H   0  0  0  0  0  0
  -27.4336  -12.6406   17.7764 H   0  0  0  0  0  0
  -27.6544  -14.2659   19.5333 H   0  0  0  0  0  0
  -28.7231  -12.0965   21.3479 H   0  0  0  0  0  0
  -28.4318  -13.7110   21.8447 H   0  0  0  0  0  0
  -25.2811   -9.5691   22.4699 H   0  0  0  0  0  0
  -24.0023   -7.4677   22.7434 H   0  0  0  0  0  0
  -21.0915   -8.8822   19.8892 H   0  0  0  0  0  0
  -22.3821  -10.9679   19.6118 H   0  0  0  0  0  0
  -21.1951   -7.6147   23.9773 H   0  0  0  0  0  0
  -21.1473   -6.0487   25.9107 H   0  0  0  0  0  0
  -22.0586   -2.7621   23.2844 H   0  0  0  0  0  0
  -22.4121  -11.9715   22.4730 H   0  0  0  0  0  0
  -21.1143  -13.1224   22.2598 H   0  0  0  0  0  0
  -24.5679  -15.7444   20.3318 H   0  0  0  0  0  0
  -26.1386  -15.5049   19.7563 H   0  0  0  0  0  0
  -26.7315  -32.5267   23.0914 H   0  0  0  0  0  0
  -25.0008  -33.9637   25.0253 H   0  0  0  0  0  0
  -22.7409  -31.2835   21.3963 H   0  0  0  0  0  0
  -23.3745  -35.9624   23.3316 H   0  0  0  0  0  0
  -24.3578  -36.8948   22.1987 H   0  0  0  0  0  0
  -23.7286  -37.6439   23.6722 H   0  0  0  0  0  0
  -26.1615  -31.4959   20.6298 H   0  0  0  0  0  0
  -26.8688  -30.7685   22.0288 H   0  0  0  0  0  0
  -28.1634  -28.7846   21.1436 H   0  0  0  0  0  0
  -25.7801  -25.8950   18.9436 H   0  0  0  0  0  0
  -23.9032  -27.3420   19.0157 H   0  0  0  0  0  0
  -23.8295  -30.6139   19.4213 H   0  0  0  0  0  0
  -22.7937  -29.2881   19.8130 H   0  0  0  0  0  0
  -25.1371  -36.1821   25.0754 H   0  0  0  0  0  0
  -20.9978  -28.3008   24.1292 H   0  0  0  0  0  0
  -20.5800  -26.2261   23.3652 H   0  0  0  0  0  0
  -21.6335  -26.7312   22.1092 H   0  0  0  0  0  0
  -19.6074  -25.6190   21.1246 H   0  0  0  0  0  0
  -19.5754  -27.3081   20.6739 H   0  0  0  0  0  0
  -17.3267  -26.6359   21.4789 H   0  0  0  0  0  0
  -18.0331  -26.0423   22.9892 H   0  0  0  0  0  0
  -19.8118  -30.7604   24.1851 H   0  0  0  0  0  0
  -17.5141  -31.6674   24.4818 H   0  0  0  0  0  0
  -15.5509  -30.3431   23.8045 H   0  0  0  0  0  0
  -15.8479  -28.0979   22.7980 H   0  0  0  0  0  0
  -24.5938  -30.7182   25.7504 H   0  0  0  0  0  0
  -24.8943  -32.2863   26.4714 H   0  0  0  0  0  0
  -25.7899  -30.8764   27.0099 H   0  0  0  0  0  0
  -26.2966  -29.6691   24.1374 H   0  0  0  0  0  0
  -27.4188  -29.7321   25.4763 H   0  0  0  0  0  0
  -27.8861  -30.4191   23.9446 H   0  0  0  0  0  0
  -27.2677  -33.3724   26.2002 H   0  0  0  0  0  0
  -28.3990  -32.6909   25.0467 H   0  0  0  0  0  0
  -28.0707  -31.8597   26.5572 H   0  0  0  0  0  0
  -28.2591  -38.0093   24.7538 H   0  0  0  0  0  0
  -28.1127  -36.2603   24.6283 H   0  0  0  0  0  0
  -27.2301  -37.1439   25.8852 H   0  0  0  0  0  0
  -20.9433  -29.9293   21.7474 H   0  0  0  0  0  0
  -26.0157  -38.2826   24.1389 H   0  0  0  0  0  0
  -31.6604  -17.7485   21.7731 H   0  0  0  0  0  0
  -29.8375  -23.6569   19.6361 H   0  0  0  0  0  0
  -27.4281  -21.8363   20.1360 H   0  0  0  0  0  0
  -31.0161  -20.5460   23.0036 H   0  0  0  0  0  0
  -31.5024  -19.2340   24.0809 H   0  0  0  0  0  0
  -29.9545  -20.1060   24.3001 H   0  0  0  0  0  0
  -26.3185  -17.2725   22.1937 H   0  0  0  0  0  0
  -26.1306  -17.8538   20.5607 H   0  0  0  0  0  0
  -25.8378  -18.9307   21.8645 H   0  0  0  0  0  0
  -27.3024  -24.4737   20.9161 H   0  0  0  0  0  0
  -27.0902  -24.4496   19.1974 H   0  0  0  0  0  0
  -30.2424  -21.0087   19.2650 H   0  0  0  0  0  0
  -29.8079  -20.5976   20.8899 H   0  0  0  0  0  0
  -28.7311  -15.5930   20.3579 H   0  0  0  0  0  0
  1 25  1  0  0  0
  1 30  2  0  0  0
  1 83  1  0  0  0
  2  3  1  0  0  0
  2 25  1  0  0  0
  2 85  1  0  0  0
  2 86  1  0  0  0
  3  4  1  0  0  0
  3 87  1  0  0  0
  3 88  1  0  0  0
  4  5  1  0  0  0
  4 89  1  0  0  0
  4 90  1  0  0  0
  5  6  1  0  0  0
  5 26  1  0  0  0
  5 91  1  0  0  0
  6 25  1  0  0  0
  6 92  1  0  0  0
  6 93  1  0  0  0
  7  8  2  0  0  0
  7 26  1  0  0  0
  7 29  1  0  0  0
  8  9  1  0  0  0
  8 22  1  0  0  0
  9 10  1  0  0  0
  9 27  2  0  0  0
 10 11  2  0  0  0
 10 15  1  0  0  0
 11 12  1  0  0  0
 11 94  1  0  0  0
 12 13  2  0  0  0
 12 95  1  0  0  0
 13 14  1  0  0  0
 13 31  1  0  0  0
 14 15  2  0  0  0
 14 96  1  0  0  0
 15 97  1  0  0  0
 16 17  2  0  0  0
 16 21  1  0  0  0
 16 31  1  0  0  0
 17 18  1  0  0  0
 17 98  1  0  0  0
 18 19  2  0  0  0
 18 99  1  0  0  0
 19 20  1  0  0  0
 19 24  1  0  0  0
 20 21  2  0  0  0
 20100  1  0  0  0
 21 23  1  0  0  0
 22 28  1  0  0  0
 22 32  2  0  0  0
 26 27  1  0  0  0
 28101  1  0  0  0
 28102  1  0  0  0
 29103  1  0  0  0
 29104  1  0  0  0
 33 34  1  0  0  0
 33 66  1  0  0  0
 33 70  2  0  0  0
 34 36  1  0  0  0
 34 59  1  0  0  0
 34105  1  0  0  0
 35 44  2  0  0  0
 35 45  1  0  0  0
 35 68  1  0  0  0
 36 56  1  0  0  0
 36106  1  0  0  0
 37 39  1  0  0  0
 37 47  1  0  0  0
 37 66  1  0  0  0
 37107  1  0  0  0
 38 43  2  0  0  0
 38 46  1  0  0  0
 38 47  1  0  0  0
 39 64  1  0  0  0
 39 67  2  0  0  0
 40 52  1  0  0  0
 40 53  2  0  0  0
 40 58  1  0  0  0
 41108  1  0  0  0
 41109  1  0  0  0
 41110  1  0  0  0
 41 48  1  0  0  0
 42 43  1  0  0  0
 42 66  1  0  0  0
 42111  1  0  0  0
 42112  1  0  0  0
 43 44  1  0  0  0
 44113  1  0  0  0
 45 46  2  0  0  0
 45114  1  0  0  0
 46115  1  0  0  0
 47116  1  0  0  0
 47117  1  0  0  0
 48 56  1  0  0  0
 48 65  1  0  0  0
 48118  1  0  0  0
 49 50  1  0  0  0
 49 53  1  0  0  0
 49 64  1  0  0  0
 49119  1  0  0  0
 50 51  1  0  0  0
 50120  1  0  0  0
 50121  1  0  0  0
 51 52  1  0  0  0
 51122  1  0  0  0
 51123  1  0  0  0
 52124  1  0  0  0
 52125  1  0  0  0
 53 54  1  0  0  0
 54 55  2  0  0  0
 54126  1  0  0  0
 55 57  1  0  0  0
 55127  1  0  0  0
 56 69  2  0  0  0
 57 58  2  0  0  0
 57128  1  0  0  0
 58129  1  0  0  0
 59 60  1  0  0  0
 59 61  1  0  0  0
 59 62  1  0  0  0
 60130  1  0  0  0
 60131  1  0  0  0
 60132  1  0  0  0
 61133  1  0  0  0
 61134  1  0  0  0
 61135  1  0  0  0
 62136  1  0  0  0
 62137  1  0  0  0
 62138  1  0  0  0
 63 65  1  0  0  0
 63139  1  0  0  0
 63140  1  0  0  0
 63141  1  0  0  0
 64142  1  0  0  0
 65143  1  0  0  0
 68 80  1  0  0  0
 71 72  2  0  0  0
 71 74  1  0  0  0
 71144  1  0  0  0
 72 73  1  0  0  0
 72 83  1  0  0  0
 73 75  2  0  0  0
 73 84  1  0  0  0
 74 78  1  0  0  0
 74 82  2  0  0  0
 75 79  1  0  0  0
 75 82  1  0  0  0
 76 77  2  0  0  0
 76 80  1  0  0  0
 76145  1  0  0  0
 77 81  1  0  0  0
 77146  1  0  0  0
 78147  1  0  0  0
 78148  1  0  0  0
 78149  1  0  0  0
 79150  1  0  0  0
 79151  1  0  0  0
 79152  1  0  0  0
 80153  1  0  0  0
 80154  1  0  0  0
 81 84  1  0  0  0
 81155  1  0  0  0
 81156  1  0  0  0
 83157  1  0  0  0
M  ISO  4   1 100  68 101  80 101  83 100
M  END
> <chiral flag>
0

> <version>
0

> <s_m_source_file>
/data/baiqing/PycharmProjects/Reinvent-master-3.2/result/LINK_invent/BTK/process_docking_weight1_custom_product_contain_oxygen_bond_distance_aromatic_linkinvent_7_9_3/rearranged_h_0115.sdf

> <i_m_source_file_index>
76

> <r_mmod_Potential_Energy-OPLS-2005>
537.986572265625

> <r_mmod_Stretch_Energy-OPLS-2005>
166.144012451172

> <r_mmod_Bend_Energy-OPLS-2005>
229.705108642578

> <r_mmod_Torsional_Energy-OPLS-2005>
545.543640136719

> <r_mmod_Improper_Torsional_Energy-OPLS-2005>
41.5445137023926

> <r_mmod_Van_der_Waal_Energy-OPLS-2005>
151.186920166016

> <r_mmod_Electrostatic_Energy-OPLS-2005>
-514.899841308594

> <r_mmod_Solvation_Energy-OPLS-2005>
-220.031433105469

> <b_mmod_Minimization_Converged-OPLS-2005>
0

> <r_mmod_RMS_Derivative-OPLS-2005>
24.0914134979248

$$$$
76
                    3D
 Structure written by MMmdl.
155163  0  0  1  0            999 V2000
  -30.6964  -14.4942   20.4972 C   0  0  0  0  0  0
  -30.4149  -12.2981   19.4421 C   0  0  0  0  0  0
  -29.4977  -12.4881   18.2159 C   0  0  0  0  0  0
  -28.0175  -12.3549   18.6238 C   0  0  0  0  0  0
  -27.6569  -13.2116   19.8679 C   0  0  2  0  0  0
  -28.6980  -13.0344   20.9972 C   0  0  0  0  0  0
  -25.2575  -13.8175   20.5679 C   0  0  0  0  0  0
  -24.1833  -13.0444   20.9181 C   0  0  0  0  0  0
  -24.6393  -11.6913   20.8737 C   0  0  0  0  0  0
  -23.9060  -10.4295   21.0406 C   0  0  0  0  0  0
  -24.3613   -9.4211   21.9184 C   0  0  0  0  0  0
  -23.6291   -8.2246   22.0756 C   0  0  0  0  0  0
  -22.4275   -8.0282   21.3544 C   0  0  0  0  0  0
  -21.9909   -9.0254   20.4646 C   0  0  0  0  0  0
  -22.7233  -10.2136   20.3055 C   0  0  0  0  0  0
  -21.6853   -6.0736   22.5278 C   0  0  0  0  0  0
  -21.4014   -6.5641   23.8211 C   0  0  0  0  0  0
  -21.3661   -5.6793   24.9174 C   0  0  0  0  0  0
  -21.6044   -4.3056   24.7227 C   0  0  0  0  0  0
  -21.8820   -3.8148   23.4348 C   0  0  0  0  0  0
  -21.9193   -4.6964   22.3403 C   0  0  0  0  0  0
  -22.7856  -13.5242   21.1847 C   0  0  0  0  0  0
  -22.1662   -4.2149   21.0980 F   0  0  0  0  0  0
  -21.5628   -3.4538   25.7739 F   0  0  0  0  0  0
  -30.0285  -13.3113   20.4366 N   0  0  0  0  0  0
  -26.3003  -12.9350   20.3334 N   0  0  0  0  0  0
  -25.9319  -11.6508   20.5759 N   0  0  0  0  0  0
  -22.0499  -12.8228   22.0400 N   0  0  0  0  0  0
  -25.4292  -15.1893   20.4090 N   0  0  0  0  0  0
  -31.8776  -14.6004   20.1578 O   0  0  0  0  0  0
  -21.6640   -6.8880   21.4241 O   0  0  0  0  0  0
  -22.3541  -14.5549   20.6699 O   0  0  0  0  0  0
  -24.6151  -31.8672   23.2096 C   0  0  0  0  0  0
  -25.9041  -32.4821   23.8395 C   0  0  1  0  0  0
  -27.2313  -27.4311   20.1026 C   0  0  0  0  0  0
  -25.5895  -33.8621   24.2319 N   0  0  0  0  0  0
  -23.4038  -30.4908   21.5495 C   0  0  2  0  0  0
  -24.8526  -28.9590   20.1123 C   0  0  0  0  0  0
  -22.7414  -29.4651   22.4979 C   0  0  0  0  0  0
  -18.0271  -28.1379   22.8492 C   0  0  0  0  0  0
  -24.1488  -36.7319   23.2635 C   0  0  0  0  0  0
  -25.9330  -30.8336   21.3636 C   0  0  0  0  0  0
  -26.0133  -29.4681   20.7102 C   0  0  0  0  0  0
  -27.2096  -28.7120   20.7019 C   0  0  0  0  0  0
  -26.0570  -26.9404   19.4927 C   0  0  0  0  0  0
  -24.8693  -27.6948   19.4987 C   0  0  0  0  0  0
  -23.6138  -29.8247   20.1636 C   0  0  0  0  0  0
  -25.4111  -36.3109   24.0328 C   0  0  1  0  0  0
  -20.5860  -28.3666   23.1316 C   0  0  2  0  0  0
  -20.6759  -26.9404   22.5420 C   0  0  0  0  0  0
  -19.5741  -26.6387   21.5214 C   0  0  0  0  0  0
  -18.1918  -26.7927   22.1623 C   0  0  0  0  0  0
  -19.1521  -28.8840   23.2900 C   0  0  0  0  0  0
  -18.9450  -30.1448   23.8908 C   0  0  0  0  0  0
  -17.6454  -30.6589   24.0568 C   0  0  0  0  0  0
  -25.9037  -34.9475   23.5123 C   0  0  0  0  0  0
  -16.5343  -29.9095   23.6327 C   0  0  0  0  0  0
  -16.7259  -28.6510   23.0347 C   0  0  0  0  0  0
  -26.4467  -31.6599   25.0724 C   0  0  0  0  0  0
  -25.3737  -31.3701   26.1474 C   0  0  0  0  0  0
  -27.0299  -30.3043   24.6097 C   0  0  0  0  0  0
  -27.6039  -32.4321   25.7489 C   0  0  0  0  0  0
  -27.5580  -37.1815   24.8461 C   0  0  0  0  0  0
  -21.4140  -29.3032   22.3724 N   0  0  0  0  0  0
  -26.4294  -37.3798   23.9404 N   0  0  0  0  0  0
  -24.6687  -31.0776   22.0996 N   0  0  0  0  0  0
  -23.4183  -28.8188   23.3019 O   0  0  0  0  0  0
  -28.3614  -26.6419   20.1207 O   0  0  0  0  0  0
  -26.5603  -34.8924   22.4687 O   0  0  0  0  0  0
  -23.5342  -32.1421   23.7491 O   0  0  0  0  0  0
  -30.3844  -19.4529   18.9488 C   0  0  0  0  0  0
  -30.7895  -17.0583   18.9364 C   0  0  0  0  0  0
  -29.5582  -18.0706   20.7916 C   0  0  0  0  0  0
  -29.6870  -19.3659   20.1848 C   0  0  0  0  0  0
  -30.9323  -18.3166   18.3334 C   0  0  0  0  0  0
  -30.1168  -16.9062   20.1749 C   0  0  0  0  0  0
  -28.8450  -24.2785   20.3254 C   0  0  0  0  0  0
  -28.2060  -25.4053   20.7147 C   0  0  0  0  0  0
  -29.2588  -21.7211   20.4206 C   0  0  0  0  0  0
  -28.6051  -22.9715   20.9993 C   0  0  0  0  0  0
  -28.8052  -17.9121   22.1098 C   0  0  0  0  0  0
  -29.0910  -20.5001   20.8044 N   0  0  0  0  0  0
  -31.6033  -18.4357   17.1151 N   0  0  0  0  0  0
  -29.9417  -15.5899   20.7479 N   0  0  0  0  0  0
  -27.8816  -22.8828   22.0010 O   0  0  0  0  0  0
  -31.4629  -12.3745   19.1461 H   0  0  0  0  0  0
  -30.2950  -11.2975   19.8605 H   0  0  0  0  0  0
  -29.7400  -11.7539   17.4467 H   0  0  0  0  0  0
  -29.6700  -13.4687   17.7692 H   0  0  0  0  0  0
  -27.8280  -11.3012   18.8321 H   0  0  0  0  0  0
  -27.3710  -12.6179   17.7857 H   0  0  0  0  0  0
  -27.6888  -14.2526   19.5466 H   0  0  0  0  0  0
  -28.6688  -12.0162   21.3883 H   0  0  0  0  0  0
  -28.4725  -13.6861   21.8427 H   0  0  0  0  0  0
  -25.2762   -9.5689   22.4753 H   0  0  0  0  0  0
  -24.0004   -7.4641   22.7476 H   0  0  0  0  0  0
  -21.0843   -8.8772   19.8951 H   0  0  0  0  0  0
  -22.3692  -10.9675   19.6163 H   0  0  0  0  0  0
  -21.2006   -7.6150   23.9715 H   0  0  0  0  0  0
  -21.1482   -6.0524   25.9076 H   0  0  0  0  0  0
  -22.0599   -2.7610   23.2847 H   0  0  0  0  0  0
  -22.4123  -11.9887   22.4776 H   0  0  0  0  0  0
  -21.1119  -13.1252   22.2615 H   0  0  0  0  0  0
  -24.6606  -15.8428   20.5131 H   0  0  0  0  0  0
  -26.2775  -15.6270   20.0723 H   0  0  0  0  0  0
  -26.7115  -32.5535   23.1164 H   0  0  0  0  0  0
  -25.0041  -33.9789   25.0460 H   0  0  0  0  0  0
  -22.6921  -31.3072   21.4096 H   0  0  0  0  0  0
  -23.3744  -35.9659   23.3313 H   0  0  0  0  0  0
  -24.3568  -36.8931   22.2045 H   0  0  0  0  0  0
  -23.7252  -37.6531   23.6650 H   0  0  0  0  0  0
  -26.0442  -31.6000   20.5953 H   0  0  0  0  0  0
  -26.8209  -30.8880   21.9820 H   0  0  0  0  0  0
  -28.1057  -29.0949   21.1701 H   0  0  0  0  0  0
  -26.0606  -25.9662   19.0235 H   0  0  0  0  0  0
  -23.9782  -27.2972   19.0327 H   0  0  0  0  0  0
  -23.7202  -30.6001   19.4037 H   0  0  0  0  0  0
  -22.7387  -29.2432   19.8678 H   0  0  0  0  0  0
  -25.1287  -36.1973   25.0821 H   0  0  0  0  0  0
  -20.9945  -28.3233   24.1437 H   0  0  0  0  0  0
  -20.5666  -26.2273   23.3606 H   0  0  0  0  0  0
  -21.6632  -26.7446   22.1217 H   0  0  0  0  0  0
  -19.6908  -25.6302   21.1233 H   0  0  0  0  0  0
  -19.6686  -27.3201   20.6748 H   0  0  0  0  0  0
  -17.4193  -26.6678   21.4021 H   0  0  0  0  0  0
  -18.0314  -26.0063   22.9010 H   0  0  0  0  0  0
  -19.7928  -30.7259   24.2280 H   0  0  0  0  0  0
  -17.5014  -31.6265   24.5177 H   0  0  0  0  0  0
  -15.5349  -30.3006   23.7645 H   0  0  0  0  0  0
  -15.8656  -28.0841   22.7051 H   0  0  0  0  0  0
  -24.5915  -30.7040   25.7815 H   0  0  0  0  0  0
  -24.8922  -32.2856   26.4920 H   0  0  0  0  0  0
  -25.8101  -30.8878   27.0231 H   0  0  0  0  0  0
  -26.2843  -29.6808   24.1148 H   0  0  0  0  0  0
  -27.4069  -29.7271   25.4550 H   0  0  0  0  0  0
  -27.8676  -30.4363   23.9244 H   0  0  0  0  0  0
  -27.2650  -33.3607   26.2093 H   0  0  0  0  0  0
  -28.3834  -32.6907   25.0313 H   0  0  0  0  0  0
  -28.0719  -31.8431   26.5387 H   0  0  0  0  0  0
  -28.2604  -38.0106   24.7511 H   0  0  0  0  0  0
  -28.1070  -36.2639   24.6289 H   0  0  0  0  0  0
  -27.2295  -37.1471   25.8864 H   0  0  0  0  0  0
  -20.9297  -29.8773   21.6965 H   0  0  0  0  0  0
  -26.0180  -38.2875   24.1418 H   0  0  0  0  0  0
  -30.5033  -20.3877   18.4241 H   0  0  0  0  0  0
  -31.1933  -16.2009   18.4181 H   0  0  0  0  0  0
  -29.5421  -24.3059   19.5010 H   0  0  0  0  0  0
  -27.4992  -25.4291   21.5357 H   0  0  0  0  0  0
  -29.9310  -21.9500   19.5933 H   0  0  0  0  0  0
  -28.7781  -18.8308   22.6942 H   0  0  0  0  0  0
  -29.2747  -17.1614   22.7450 H   0  0  0  0  0  0
  -27.7774  -17.6040   21.9178 H   0  0  0  0  0  0
  -31.9264  -19.3506   16.8135 H   0  0  0  0  0  0
  -32.2125  -17.6815   16.8109 H   0  0  0  0  0  0
  -29.0563  -15.4150   21.1979 H   0  0  0  0  0  0
  1 25  1  0  0  0
  1 30  2  0  0  0
  1 84  1  0  0  0
  2  3  1  0  0  0
  2 25  1  0  0  0
  2 86  1  0  0  0
  2 87  1  0  0  0
  3  4  1  0  0  0
  3 88  1  0  0  0
  3 89  1  0  0  0
  4  5  1  0  0  0
  4 90  1  0  0  0
  4 91  1  0  0  0
  5  6  1  0  0  0
  5 26  1  0  0  0
  5 92  1  0  0  0
  6 25  1  0  0  0
  6 93  1  0  0  0
  6 94  1  0  0  0
  7  8  2  0  0  0
  7 26  1  0  0  0
  7 29  1  0  0  0
  8  9  1  0  0  0
  8 22  1  0  0  0
  9 10  1  0  0  0
  9 27  2  0  0  0
 10 11  2  0  0  0
 10 15  1  0  0  0
 11 12  1  0  0  0
 11 95  1  0  0  0
 12 13  2  0  0  0
 12 96  1  0  0  0
 13 14  1  0  0  0
 13 31  1  0  0  0
 14 15  2  0  0  0
 14 97  1  0  0  0
 15 98  1  0  0  0
 16 17  2  0  0  0
 16 21  1  0  0  0
 16 31  1  0  0  0
 17 18  1  0  0  0
 17 99  1  0  0  0
 18 19  2  0  0  0
 18100  1  0  0  0
 19 20  1  0  0  0
 19 24  1  0  0  0
 20 21  2  0  0  0
 20101  1  0  0  0
 21 23  1  0  0  0
 22 28  1  0  0  0
 22 32  2  0  0  0
 26 27  1  0  0  0
 28102  1  0  0  0
 28103  1  0  0  0
 29104  1  0  0  0
 29105  1  0  0  0
 33 34  1  0  0  0
 33 66  1  0  0  0
 33 70  2  0  0  0
 34 36  1  0  0  0
 34 59  1  0  0  0
 34106  1  0  0  0
 35 44  2  0  0  0
 35 45  1  0  0  0
 35 68  1  0  0  0
 36 56  1  0  0  0
 36107  1  0  0  0
 37 39  1  0  0  0
 37 47  1  0  0  0
 37 66  1  0  0  0
 37108  1  0  0  0
 38 43  2  0  0  0
 38 46  1  0  0  0
 38 47  1  0  0  0
 39 64  1  0  0  0
 39 67  2  0  0  0
 40 52  1  0  0  0
 40 53  2  0  0  0
 40 58  1  0  0  0
 41109  1  0  0  0
 41110  1  0  0  0
 41111  1  0  0  0
 41 48  1  0  0  0
 42 43  1  0  0  0
 42 66  1  0  0  0
 42112  1  0  0  0
 42113  1  0  0  0
 43 44  1  0  0  0
 44114  1  0  0  0
 45 46  2  0  0  0
 45115  1  0  0  0
 46116  1  0  0  0
 47117  1  0  0  0
 47118  1  0  0  0
 48 56  1  0  0  0
 48 65  1  0  0  0
 48119  1  0  0  0
 49 50  1  0  0  0
 49 53  1  0  0  0
 49 64  1  0  0  0
 49120  1  0  0  0
 50 51  1  0  0  0
 50121  1  0  0  0
 50122  1  0  0  0
 51 52  1  0  0  0
 51123  1  0  0  0
 51124  1  0  0  0
 52125  1  0  0  0
 52126  1  0  0  0
 53 54  1  0  0  0
 54 55  2  0  0  0
 54127  1  0  0  0
 55 57  1  0  0  0
 55128  1  0  0  0
 56 69  2  0  0  0
 57 58  2  0  0  0
 57129  1  0  0  0
 58130  1  0  0  0
 59 60  1  0  0  0
 59 61  1  0  0  0
 59 62  1  0  0  0
 60131  1  0  0  0
 60132  1  0  0  0
 60133  1  0  0  0
 61134  1  0  0  0
 61135  1  0  0  0
 61136  1  0  0  0
 62137  1  0  0  0
 62138  1  0  0  0
 62139  1  0  0  0
 63 65  1  0  0  0
 63140  1  0  0  0
 63141  1  0  0  0
 63142  1  0  0  0
 64143  1  0  0  0
 65144  1  0  0  0
 68 78  1  0  0  0
 71 74  2  0  0  0
 71 75  1  0  0  0
 71145  1  0  0  0
 72 75  2  0  0  0
 72 76  1  0  0  0
 72146  1  0  0  0
 73 74  1  0  0  0
 73 76  2  0  0  0
 73 81  1  0  0  0
 74 82  1  0  0  0
 75 83  1  0  0  0
 76 84  1  0  0  0
 77 78  2  0  0  0
 77 80  1  0  0  0
 77147  1  0  0  0
 78148  1  0  0  0
 79 80  1  0  0  0
 79 82  2  0  0  0
 79149  1  0  0  0
 80 85  2  0  0  0
 81150  1  0  0  0
 81151  1  0  0  0
 81152  1  0  0  0
 83153  1  0  0  0
 83154  1  0  0  0
 84155  1  0  0  0
M  ISO  4   1 100  68 101  78 101  84 100
M  END
> <chiral flag>
0

> <version>
0

> <s_m_source_file>
/data/baiqing/PycharmProjects/Reinvent-master-3.2/result/LINK_invent/BTK/process_docking_weight1_custom_product_contain_oxygen_bond_distance_aromatic_linkinvent_7_9_3/rearranged_h_0115.sdf

> <i_m_source_file_index>
77

> <r_mmod_Potential_Energy-OPLS-2005>
30.8050689697266

> <r_mmod_Stretch_Energy-OPLS-2005>
47.186408996582

> <r_mmod_Bend_Energy-OPLS-2005>
103.848335266113

> <r_mmod_Torsional_Energy-OPLS-2005>
234.059417724609

> <r_mmod_Improper_Torsional_Energy-OPLS-2005>
8.27270317077637

> <r_mmod_Van_der_Waal_Energy-OPLS-2005>
169.729156494141

> <r_mmod_Electrostatic_Energy-OPLS-2005>
-311.41455078125

> <r_mmod_Solvation_Energy-OPLS-2005>
-240.472152709961

> <b_mmod_Minimization_Converged-OPLS-2005>
0

> <r_mmod_RMS_Derivative-OPLS-2005>
0.637186527252197

$$$$
77
                    3D
 Structure written by MMmdl.
162170  0  0  1  0            999 V2000
  -30.7242  -14.4634   20.6127 C   0  0  0  0  0  0
  -30.4210  -12.3151   19.4320 C   0  0  0  0  0  0
  -29.4981  -12.5229   18.2125 C   0  0  0  0  0  0
  -28.0173  -12.3766   18.6151 C   0  0  0  0  0  0
  -27.6627  -13.2055   19.8775 C   0  0  2  0  0  0
  -28.6969  -12.9619   20.9972 C   0  0  0  0  0  0
  -25.2588  -13.8159   20.5670 C   0  0  0  0  0  0
  -24.1838  -13.0431   20.9162 C   0  0  0  0  0  0
  -24.6393  -11.6899   20.8722 C   0  0  0  0  0  0
  -23.9059  -10.4288   21.0399 C   0  0  0  0  0  0
  -24.3613   -9.4207   21.9178 C   0  0  0  0  0  0
  -23.6289   -8.2242   22.0752 C   0  0  0  0  0  0
  -22.4269   -8.0279   21.3544 C   0  0  0  0  0  0
  -21.9904   -9.0250   20.4644 C   0  0  0  0  0  0
  -22.7231  -10.2131   20.3050 C   0  0  0  0  0  0
  -21.6850   -6.0734   22.5280 C   0  0  0  0  0  0
  -21.4015   -6.5640   23.8215 C   0  0  0  0  0  0
  -21.3663   -5.6793   24.9177 C   0  0  0  0  0  0
  -21.6042   -4.3053   24.7224 C   0  0  0  0  0  0
  -21.8820   -3.8145   23.4345 C   0  0  0  0  0  0
  -21.9192   -4.6962   22.3401 C   0  0  0  0  0  0
  -22.7865  -13.5233   21.1840 C   0  0  0  0  0  0
  -22.1660   -4.2148   21.0977 F   0  0  0  0  0  0
  -21.5629   -3.4537   25.7737 F   0  0  0  0  0  0
  -30.0356  -13.2890   20.4701 N   0  0  0  0  0  0
  -26.3020  -12.9325   20.3345 N   0  0  0  0  0  0
  -25.9314  -11.6483   20.5730 N   0  0  0  0  0  0
  -22.0509  -12.8226   22.0403 N   0  0  0  0  0  0
  -25.4310  -15.1874   20.4097 N   0  0  0  0  0  0
  -31.7919  -14.6872   20.0314 O   0  0  0  0  0  0
  -21.6635   -6.8874   21.4240 O   0  0  0  0  0  0
  -22.3552  -14.5540   20.6693 O   0  0  0  0  0  0
  -24.6162  -31.8678   23.2110 C   0  0  0  0  0  0
  -25.9041  -32.4829   23.8409 C   0  0  1  0  0  0
  -27.2339  -27.4167   20.0691 C   0  0  0  0  0  0
  -25.5897  -33.8632   24.2325 N   0  0  0  0  0  0
  -23.4051  -30.4938   21.5529 C   0  0  2  0  0  0
  -24.8481  -28.9611   20.1150 C   0  0  0  0  0  0
  -22.7423  -29.4661   22.4986 C   0  0  0  0  0  0
  -18.0268  -28.1368   22.8490 C   0  0  0  0  0  0
  -24.1494  -36.7333   23.2635 C   0  0  0  0  0  0
  -25.9395  -30.8232   21.3705 C   0  0  0  0  0  0
  -26.0127  -29.4589   20.7108 C   0  0  0  0  0  0
  -27.2040  -28.6914   20.6902 C   0  0  0  0  0  0
  -26.0345  -26.9337   19.4924 C   0  0  0  0  0  0
  -24.8543  -27.6961   19.5095 C   0  0  0  0  0  0
  -23.6136  -29.8318   20.1663 C   0  0  0  0  0  0
  -25.4113  -36.3119   24.0331 C   0  0  1  0  0  0
  -20.5865  -28.3666   23.1305 C   0  0  2  0  0  0
  -20.6764  -26.9398   22.5407 C   0  0  0  0  0  0
  -19.5744  -26.6378   21.5202 C   0  0  0  0  0  0
  -18.1920  -26.7917   22.1614 C   0  0  0  0  0  0
  -19.1519  -28.8834   23.2891 C   0  0  0  0  0  0
  -18.9446  -30.1435   23.8900 C   0  0  0  0  0  0
  -17.6453  -30.6580   24.0552 C   0  0  0  0  0  0
  -25.9034  -34.9482   23.5122 C   0  0  0  0  0  0
  -16.5338  -29.9075   23.6327 C   0  0  0  0  0  0
  -16.7256  -28.6487   23.0356 C   0  0  0  0  0  0
  -26.4467  -31.6624   25.0750 C   0  0  0  0  0  0
  -25.3724  -31.3736   26.1496 C   0  0  0  0  0  0
  -27.0313  -30.3062   24.6164 C   0  0  0  0  0  0
  -27.6037  -32.4369   25.7500 C   0  0  0  0  0  0
  -27.5592  -37.1813   24.8454 C   0  0  0  0  0  0
  -21.4150  -29.3038   22.3719 N   0  0  0  0  0  0
  -26.4304  -37.3804   23.9398 N   0  0  0  0  0  0
  -24.6723  -31.0757   22.1028 N   0  0  0  0  0  0
  -23.4189  -28.8179   23.3013 O   0  0  0  0  0  0
  -28.4079  -26.6747   20.0938 O   0  0  0  0  0  0
  -26.5591  -34.8927   22.4680 O   0  0  0  0  0  0
  -23.5345  -32.1440   23.7483 O   0  0  0  0  0  0
  -29.3663  -20.2052   22.0183 C   0  0  0  0  0  0
  -30.0415  -21.5010   19.6249 C   0  0  0  0  0  0
  -28.9315  -21.5324   21.7862 C   0  0  0  0  0  0
  -30.1481  -19.5141   21.0679 C   0  0  0  0  0  0
  -29.2714  -22.2054   20.5849 C   0  0  0  0  0  0
  -30.4744  -20.1746   19.8625 C   0  0  0  0  0  0
  -30.1165  -15.5681   21.4839 C   0  0  0  0  0  0
  -28.1151  -22.2326   22.8604 C   0  0  0  0  0  0
  -29.3460  -26.4148   17.9181 C   0  0  0  0  0  0
  -30.6853  -18.1090   21.3828 C   0  0  0  0  0  0
  -29.8513  -16.9298   20.8117 C   0  0  0  0  0  0
  -29.5563  -24.5199   19.6076 C   0  0  0  0  0  0
  -28.6647  -25.6794   19.0795 C   0  0  1  0  0  0
  -29.8470  -15.4180   22.7159 N   0  0  0  0  0  0
  -28.8067  -23.5278   20.3876 N   0  0  0  0  0  0
  -31.2204  -19.5378   18.9276 F   0  0  0  0  0  0
  -31.4669  -12.4069   19.1344 H   0  0  0  0  0  0
  -30.3176  -11.2989   19.8162 H   0  0  0  0  0  0
  -29.7431  -11.8068   17.4268 H   0  0  0  0  0  0
  -29.6679  -13.5133   17.7872 H   0  0  0  0  0  0
  -27.8268  -11.3187   18.8014 H   0  0  0  0  0  0
  -27.3701  -12.6596   17.7843 H   0  0  0  0  0  0
  -27.7150  -14.2580   19.5977 H   0  0  0  0  0  0
  -28.6762  -11.9153   21.3050 H   0  0  0  0  0  0
  -28.4190  -13.5150   21.8911 H   0  0  0  0  0  0
  -25.2762   -9.5682   22.4750 H   0  0  0  0  0  0
  -23.9999   -7.4635   22.7475 H   0  0  0  0  0  0
  -21.0833   -8.8767   19.8951 H   0  0  0  0  0  0
  -22.3688  -10.9666   19.6156 H   0  0  0  0  0  0
  -21.2010   -7.6150   23.9717 H   0  0  0  0  0  0
  -21.1486   -6.0523   25.9081 H   0  0  0  0  0  0
  -22.0596   -2.7607   23.2844 H   0  0  0  0  0  0
  -22.4128  -11.9883   22.4778 H   0  0  0  0  0  0
  -21.1131  -13.1255   22.2616 H   0  0  0  0  0  0
  -24.6662  -15.8438   20.5238 H   0  0  0  0  0  0
  -26.2896  -15.6293   20.1066 H   0  0  0  0  0  0
  -26.7108  -32.5530   23.1167 H   0  0  0  0  0  0
  -25.0062  -33.9804   25.0485 H   0  0  0  0  0  0
  -22.6944  -31.3119   21.4164 H   0  0  0  0  0  0
  -23.3755  -35.9666   23.3294 H   0  0  0  0  0  0
  -24.3585  -36.8960   22.2051 H   0  0  0  0  0  0
  -23.7254  -37.6535   23.6668 H   0  0  0  0  0  0
  -26.0585  -31.5907   20.6046 H   0  0  0  0  0  0
  -26.8243  -30.8725   21.9938 H   0  0  0  0  0  0
  -28.1041  -29.0748   21.1497 H   0  0  0  0  0  0
  -25.9565  -25.9568   19.0453 H   0  0  0  0  0  0
  -23.9517  -27.2988   19.0650 H   0  0  0  0  0  0
  -23.7253  -30.6097   19.4099 H   0  0  0  0  0  0
  -22.7356  -29.2563   19.8676 H   0  0  0  0  0  0
  -25.1291  -36.1996   25.0826 H   0  0  0  0  0  0
  -20.9932  -28.3231   24.1437 H   0  0  0  0  0  0
  -20.5672  -26.2267   23.3596 H   0  0  0  0  0  0
  -21.6634  -26.7450   22.1196 H   0  0  0  0  0  0
  -19.6900  -25.6290   21.1229 H   0  0  0  0  0  0
  -19.6681  -27.3180   20.6725 H   0  0  0  0  0  0
  -17.4195  -26.6664   21.4011 H   0  0  0  0  0  0
  -18.0308  -26.0055   22.9001 H   0  0  0  0  0  0
  -19.7928  -30.7236   24.2285 H   0  0  0  0  0  0
  -17.5016  -31.6269   24.5136 H   0  0  0  0  0  0
  -15.5338  -30.2974   23.7667 H   0  0  0  0  0  0
  -15.8654  -28.0801   22.7087 H   0  0  0  0  0  0
  -24.5883  -30.7102   25.7833 H   0  0  0  0  0  0
  -24.8927  -32.2894   26.4961 H   0  0  0  0  0  0
  -25.8068  -30.8892   27.0250 H   0  0  0  0  0  0
  -26.2875  -29.6813   24.1209 H   0  0  0  0  0  0
  -27.4055  -29.7318   25.4650 H   0  0  0  0  0  0
  -27.8725  -30.4365   23.9350 H   0  0  0  0  0  0
  -27.2648  -33.3670   26.2081 H   0  0  0  0  0  0
  -28.3832  -32.6939   25.0313 H   0  0  0  0  0  0
  -28.0731  -31.8510   26.5412 H   0  0  0  0  0  0
  -28.2590  -38.0132   24.7531 H   0  0  0  0  0  0
  -28.1113  -36.2661   24.6255 H   0  0  0  0  0  0
  -27.2305  -37.1430   25.8855 H   0  0  0  0  0  0
  -20.9307  -29.8775   21.6959 H   0  0  0  0  0  0
  -26.0199  -38.2882   24.1413 H   0  0  0  0  0  0
  -29.1130  -19.7170   22.9493 H   0  0  0  0  0  0
  -30.3093  -21.9520   18.6824 H   0  0  0  0  0  0
  -27.9027  -21.5697   23.7003 H   0  0  0  0  0  0
  -27.1623  -22.5774   22.4582 H   0  0  0  0  0  0
  -28.6610  -23.0944   23.2456 H   0  0  0  0  0  0
  -29.5508  -25.7340   17.0909 H   0  0  0  0  0  0
  -30.2925  -26.8570   18.2286 H   0  0  0  0  0  0
  -28.7130  -27.2142   17.5324 H   0  0  0  0  0  0
  -30.7486  -18.0250   22.4688 H   0  0  0  0  0  0
  -31.7145  -18.0324   21.0301 H   0  0  0  0  0  0
  -28.7910  -17.1487   20.9432 H   0  0  0  0  0  0
  -30.0058  -16.8568   19.7338 H   0  0  0  0  0  0
  -30.3755  -24.9180   20.2071 H   0  0  0  0  0  0
  -30.0145  -24.0338   18.7470 H   0  0  0  0  0  0
  -27.7748  -25.2085   18.6742 H   0  0  0  0  0  0
  -29.4604  -16.2620   23.1205 H   0  0  0  0  0  0
  -28.2362  -23.9207   21.1306 H   0  0  0  0  0  0
  1 25  1  0  0  0
  1 30  2  0  0  0
  1 77  1  0  0  0
  2  3  1  0  0  0
  2 25  1  0  0  0
  2 87  1  0  0  0
  2 88  1  0  0  0
  3  4  1  0  0  0
  3 89  1  0  0  0
  3 90  1  0  0  0
  4  5  1  0  0  0
  4 91  1  0  0  0
  4 92  1  0  0  0
  5  6  1  0  0  0
  5 26  1  0  0  0
  5 93  1  0  0  0
  6 25  1  0  0  0
  6 94  1  0  0  0
  6 95  1  0  0  0
  7  8  2  0  0  0
  7 26  1  0  0  0
  7 29  1  0  0  0
  8  9  1  0  0  0
  8 22  1  0  0  0
  9 10  1  0  0  0
  9 27  2  0  0  0
 10 11  2  0  0  0
 10 15  1  0  0  0
 11 12  1  0  0  0
 11 96  1  0  0  0
 12 13  2  0  0  0
 12 97  1  0  0  0
 13 14  1  0  0  0
 13 31  1  0  0  0
 14 15  2  0  0  0
 14 98  1  0  0  0
 15 99  1  0  0  0
 16 17  2  0  0  0
 16 21  1  0  0  0
 16 31  1  0  0  0
 17 18  1  0  0  0
 17100  1  0  0  0
 18 19  2  0  0  0
 18101  1  0  0  0
 19 20  1  0  0  0
 19 24  1  0  0  0
 20 21  2  0  0  0
 20102  1  0  0  0
 21 23  1  0  0  0
 22 28  1  0  0  0
 22 32  2  0  0  0
 26 27  1  0  0  0
 28103  1  0  0  0
 28104  1  0  0  0
 29105  1  0  0  0
 29106  1  0  0  0
 33 34  1  0  0  0
 33 66  1  0  0  0
 33 70  2  0  0  0
 34 36  1  0  0  0
 34 59  1  0  0  0
 34107  1  0  0  0
 35 44  2  0  0  0
 35 45  1  0  0  0
 35 68  1  0  0  0
 36 56  1  0  0  0
 36108  1  0  0  0
 37 39  1  0  0  0
 37 47  1  0  0  0
 37 66  1  0  0  0
 37109  1  0  0  0
 38 43  2  0  0  0
 38 46  1  0  0  0
 38 47  1  0  0  0
 39 64  1  0  0  0
 39 67  2  0  0  0
 40 52  1  0  0  0
 40 53  2  0  0  0
 40 58  1  0  0  0
 41110  1  0  0  0
 41111  1  0  0  0
 41112  1  0  0  0
 41 48  1  0  0  0
 42 43  1  0  0  0
 42 66  1  0  0  0
 42113  1  0  0  0
 42114  1  0  0  0
 43 44  1  0  0  0
 44115  1  0  0  0
 45 46  2  0  0  0
 45116  1  0  0  0
 46117  1  0  0  0
 47118  1  0  0  0
 47119  1  0  0  0
 48 56  1  0  0  0
 48 65  1  0  0  0
 48120  1  0  0  0
 49 50  1  0  0  0
 49 53  1  0  0  0
 49 64  1  0  0  0
 49121  1  0  0  0
 50 51  1  0  0  0
 50122  1  0  0  0
 50123  1  0  0  0
 51 52  1  0  0  0
 51124  1  0  0  0
 51125  1  0  0  0
 52126  1  0  0  0
 52127  1  0  0  0
 53 54  1  0  0  0
 54 55  2  0  0  0
 54128  1  0  0  0
 55 57  1  0  0  0
 55129  1  0  0  0
 56 69  2  0  0  0
 57 58  2  0  0  0
 57130  1  0  0  0
 58131  1  0  0  0
 59 60  1  0  0  0
 59 61  1  0  0  0
 59 62  1  0  0  0
 60132  1  0  0  0
 60133  1  0  0  0
 60134  1  0  0  0
 61135  1  0  0  0
 61136  1  0  0  0
 61137  1  0  0  0
 62138  1  0  0  0
 62139  1  0  0  0
 62140  1  0  0  0
 63 65  1  0  0  0
 63141  1  0  0  0
 63142  1  0  0  0
 63143  1  0  0  0
 64144  1  0  0  0
 65145  1  0  0  0
 68 83  1  0  0  0
 71 73  2  0  0  0
 71 74  1  0  0  0
 71146  1  0  0  0
 72 75  2  0  0  0
 72 76  1  0  0  0
 72147  1  0  0  0
 73 75  1  0  0  0
 73 78  1  0  0  0
 74 76  2  0  0  0
 74 80  1  0  0  0
 75 85  1  0  0  0
 76 86  1  0  0  0
 77 81  1  0  0  0
 77 84  2  0  0  0
 78148  1  0  0  0
 78149  1  0  0  0
 78150  1  0  0  0
 79151  1  0  0  0
 79152  1  0  0  0
 79153  1  0  0  0
 79 83  1  0  0  0
 80 81  1  0  0  0
 80154  1  0  0  0
 80155  1  0  0  0
 81156  1  0  0  0
 81157  1  0  0  0
 82 83  1  0  0  0
 82 85  1  0  0  0
 82158  1  0  0  0
 82159  1  0  0  0
 83160  1  0  0  0
 84161  1  0  0  0
 85162  1  0  0  0
M  ISO  4   1 100  68 101  77 100  83 101
M  END
> <chiral flag>
0

> <version>
0

> <s_m_source_file>
/data/baiqing/PycharmProjects/Reinvent-master-3.2/result/LINK_invent/BTK/process_docking_weight1_custom_product_contain_oxygen_bond_distance_aromatic_linkinvent_7_9_3/rearranged_h_0115.sdf

> <i_m_source_file_index>
78

> <r_mmod_Potential_Energy-OPLS-2005>
37.0240249633789

> <r_mmod_Stretch_Energy-OPLS-2005>
45.0376853942871

> <r_mmod_Bend_Energy-OPLS-2005>
117.832611083984

> <r_mmod_Torsional_Energy-OPLS-2005>
199.334503173828

> <r_mmod_Improper_Torsional_Energy-OPLS-2005>
4.39381456375122

> <r_mmod_Van_der_Waal_Energy-OPLS-2005>
156.203598022461

> <r_mmod_Electrostatic_Energy-OPLS-2005>
-303.83642578125

> <r_mmod_Solvation_Energy-OPLS-2005>
-194.664901733398

> <b_mmod_Minimization_Converged-OPLS-2005>
0

> <r_mmod_RMS_Derivative-OPLS-2005>
1.10673391819

$$$$
78
                    3D
 Structure written by MMmdl.
155163  0  0  1  0            999 V2000
  -30.6207  -14.7661   20.5179 C   0  0  0  0  0  0
  -30.4419  -12.4756   19.4951 C   0  0  0  0  0  0
  -29.5196  -12.5281   18.2546 C   0  0  0  0  0  0
  -28.0461  -12.3403   18.6614 C   0  0  0  0  0  0
  -27.6473  -13.2349   19.8638 C   0  0  2  0  0  0
  -28.6910  -13.1571   21.0065 C   0  0  0  0  0  0
  -25.2336  -13.8072   20.5482 C   0  0  0  0  0  0
  -24.1730  -13.0329   20.9197 C   0  0  0  0  0  0
  -24.6398  -11.6851   20.8787 C   0  0  0  0  0  0
  -23.9080  -10.4239   21.0430 C   0  0  0  0  0  0
  -24.3618   -9.4159   21.9209 C   0  0  0  0  0  0
  -23.6280   -8.2206   22.0767 C   0  0  0  0  0  0
  -22.4266   -8.0258   21.3547 C   0  0  0  0  0  0
  -21.9910   -9.0232   20.4651 C   0  0  0  0  0  0
  -22.7250  -10.2102   20.3069 C   0  0  0  0  0  0
  -21.6843   -6.0721   22.5279 C   0  0  0  0  0  0
  -21.4006   -6.5628   23.8210 C   0  0  0  0  0  0
  -21.3658   -5.6784   24.9173 C   0  0  0  0  0  0
  -21.6044   -4.3047   24.7225 C   0  0  0  0  0  0
  -21.8818   -3.8136   23.4347 C   0  0  0  0  0  0
  -21.9191   -4.6951   22.3403 C   0  0  0  0  0  0
  -22.7754  -13.5129   21.1856 C   0  0  0  0  0  0
  -22.1664   -4.2141   21.0979 F   0  0  0  0  0  0
  -21.5631   -3.4529   25.7737 F   0  0  0  0  0  0
  -30.0082  -13.5247   20.4564 N   0  0  0  0  0  0
  -26.2927  -12.9395   20.3299 N   0  0  0  0  0  0
  -25.9354  -11.6533   20.5838 N   0  0  0  0  0  0
  -22.0418  -12.8157   22.0450 N   0  0  0  0  0  0
  -25.3548  -15.1731   20.3444 N   0  0  0  0  0  0
  -31.7201  -14.9306   19.9825 O   0  0  0  0  0  0
  -21.6625   -6.8860   21.4239 O   0  0  0  0  0  0
  -22.3440  -14.5441   20.6705 O   0  0  0  0  0  0
  -24.6334  -31.8524   23.1949 C   0  0  0  0  0  0
  -25.9146  -32.4738   23.8310 C   0  0  1  0  0  0
  -27.2317  -27.2404   20.1355 C   0  0  0  0  0  0
  -25.5931  -33.8540   24.2234 N   0  0  0  0  0  0
  -23.4328  -30.4729   21.5388 C   0  0  2  0  0  0
  -24.8834  -28.9150   20.1112 C   0  0  0  0  0  0
  -22.7519  -29.4587   22.4901 C   0  0  0  0  0  0
  -18.0297  -28.1393   22.8482 C   0  0  0  0  0  0
  -24.1491  -36.7274   23.2642 C   0  0  0  0  0  0
  -25.9800  -30.7602   21.3775 C   0  0  0  0  0  0
  -26.0558  -29.3802   20.7203 C   0  0  0  0  0  0
  -27.2315  -28.5572   20.7179 C   0  0  0  0  0  0
  -26.0327  -26.8496   19.4959 C   0  0  0  0  0  0
  -24.8788  -27.6587   19.4873 C   0  0  0  0  0  0
  -23.6535  -29.8030   20.1569 C   0  0  0  0  0  0
  -25.4119  -36.3057   24.0324 C   0  0  1  0  0  0
  -20.5901  -28.3704   23.1264 C   0  0  2  0  0  0
  -20.6780  -26.9419   22.5408 C   0  0  0  0  0  0
  -19.5754  -26.6386   21.5214 C   0  0  0  0  0  0
  -18.1936  -26.7934   22.1627 C   0  0  0  0  0  0
  -19.1550  -28.8868   23.2867 C   0  0  0  0  0  0
  -18.9468  -30.1468   23.8884 C   0  0  0  0  0  0
  -17.6466  -30.6592   24.0567 C   0  0  0  0  0  0
  -25.9056  -34.9428   23.5082 C   0  0  0  0  0  0
  -16.5358  -29.9086   23.6340 C   0  0  0  0  0  0
  -16.7283  -28.6508   23.0354 C   0  0  0  0  0  0
  -26.4504  -31.6572   25.0710 C   0  0  0  0  0  0
  -25.3718  -31.3732   26.1426 C   0  0  0  0  0  0
  -27.0363  -30.2987   24.6216 C   0  0  0  0  0  0
  -27.6054  -32.4319   25.7489 C   0  0  0  0  0  0
  -27.5579  -37.1793   24.8466 C   0  0  0  0  0  0
  -21.4222  -29.3043   22.3647 N   0  0  0  0  0  0
  -26.4290  -37.3761   23.9410 N   0  0  0  0  0  0
  -24.7012  -31.0470   22.0935 N   0  0  0  0  0  0
  -23.4205  -28.8137   23.3021 O   0  0  0  0  0  0
  -28.3278  -26.3361   20.2041 O   0  0  0  0  0  0
  -26.5640  -34.8910   22.4658 O   0  0  0  0  0  0
  -23.5475  -32.1352   23.7227 O   0  0  0  0  0  0
  -27.9609  -16.9426   20.9088 C   0  0  0  0  0  0
  -27.0936  -18.0395   20.8480 C   0  0  0  0  0  0
  -29.8418  -18.4611   20.7705 C   0  0  0  0  0  0
  -28.9672  -19.6517   20.7074 C   0  0  0  0  0  0
  -29.3529  -17.0784   20.8754 C   0  0  0  0  0  0
  -27.5678  -19.3597   20.7902 C   0  0  0  0  0  0
  -28.8270  -22.1379   20.2560 C   0  0  0  0  0  0
  -30.5122  -23.9845   19.6447 C   0  0  0  0  0  0
  -28.1017  -24.8450   20.0338 C   0  0  0  0  0  0
  -29.2118  -23.7044   20.4145 C   0  0  1  0  0  0
  -29.4485  -21.0515   20.7131 N   0  0  0  0  0  0
  -26.5853  -20.3400   20.9265 N   0  0  0  0  0  0
  -30.0214  -15.7917   21.2351 N   0  0  0  0  0  0
  -31.4831  -12.5997   19.1931 H   0  0  0  0  0  0
  -30.3908  -11.4926   19.9660 H   0  0  0  0  0  0
  -29.8090  -11.7600   17.5358 H   0  0  0  0  0  0
  -29.6427  -13.4850   17.7452 H   0  0  0  0  0  0
  -27.9069  -11.2902   18.9218 H   0  0  0  0  0  0
  -27.3901  -12.5312   17.8114 H   0  0  0  0  0  0
  -27.6455  -14.2579   19.4884 H   0  0  0  0  0  0
  -28.7244  -12.1499   21.4258 H   0  0  0  0  0  0
  -28.4028  -13.8097   21.8308 H   0  0  0  0  0  0
  -25.2758   -9.5634   22.4791 H   0  0  0  0  0  0
  -23.9978   -7.4596   22.7489 H   0  0  0  0  0  0
  -21.0844   -8.8755   19.8957 H   0  0  0  0  0  0
  -22.3715  -10.9643   19.6180 H   0  0  0  0  0  0
  -21.1992   -7.6136   23.9708 H   0  0  0  0  0  0
  -21.1486   -6.0515   25.9076 H   0  0  0  0  0  0
  -22.0600   -2.7599   23.2847 H   0  0  0  0  0  0
  -22.4040  -11.9830   22.4854 H   0  0  0  0  0  0
  -21.1046  -13.1205   22.2668 H   0  0  0  0  0  0
  -24.5405  -15.7746   20.3984 H   0  0  0  0  0  0
  -26.1390  -15.6098   19.8790 H   0  0  0  0  0  0
  -26.7219  -32.5385   23.1056 H   0  0  0  0  0  0
  -25.0068  -33.9667   25.0374 H   0  0  0  0  0  0
  -22.7304  -31.2956   21.3890 H   0  0  0  0  0  0
  -23.3749  -35.9611   23.3298 H   0  0  0  0  0  0
  -24.3583  -36.8900   22.2057 H   0  0  0  0  0  0
  -23.7242  -37.6473   23.6671 H   0  0  0  0  0  0
  -26.1207  -31.5203   20.6073 H   0  0  0  0  0  0
  -26.8558  -30.8108   22.0128 H   0  0  0  0  0  0
  -28.1275  -28.9091   21.2096 H   0  0  0  0  0  0
  -25.9557  -25.8895   19.0087 H   0  0  0  0  0  0
  -23.9821  -27.2958   19.0044 H   0  0  0  0  0  0
  -23.7782  -30.5762   19.3979 H   0  0  0  0  0  0
  -22.7719  -29.2351   19.8537 H   0  0  0  0  0  0
  -25.1300  -36.1902   25.0817 H   0  0  0  0  0  0
  -20.9998  -28.3282   24.1384 H   0  0  0  0  0  0
  -20.5681  -26.2313   23.3615 H   0  0  0  0  0  0
  -21.6649  -26.7441   22.1205 H   0  0  0  0  0  0
  -19.6911  -25.6295   21.1250 H   0  0  0  0  0  0
  -19.6687  -27.3193   20.6742 H   0  0  0  0  0  0
  -17.4207  -26.6685   21.4029 H   0  0  0  0  0  0
  -18.0333  -26.0077   22.9025 H   0  0  0  0  0  0
  -19.7942  -30.7295   24.2240 H   0  0  0  0  0  0
  -17.5019  -31.6271   24.5170 H   0  0  0  0  0  0
  -15.5356  -30.2984   23.7670 H   0  0  0  0  0  0
  -15.8684  -28.0828   22.7065 H   0  0  0  0  0  0
  -24.5901  -30.7070   25.7756 H   0  0  0  0  0  0
  -24.8899  -32.2901   26.4828 H   0  0  0  0  0  0
  -25.8026  -30.8929   27.0220 H   0  0  0  0  0  0
  -26.2959  -29.6719   24.1230 H   0  0  0  0  0  0
  -27.4028  -29.7266   25.4749 H   0  0  0  0  0  0
  -27.8840  -30.4255   23.9479 H   0  0  0  0  0  0
  -27.2664  -33.3630   26.2042 H   0  0  0  0  0  0
  -28.3879  -32.6857   25.0327 H   0  0  0  0  0  0
  -28.0706  -31.8456   26.5422 H   0  0  0  0  0  0
  -28.2594  -38.0094   24.7517 H   0  0  0  0  0  0
  -28.1075  -36.2621   24.6287 H   0  0  0  0  0  0
  -27.2297  -37.1440   25.8870 H   0  0  0  0  0  0
  -20.9413  -29.8757   21.6841 H   0  0  0  0  0  0
  -26.0158  -38.2832   24.1410 H   0  0  0  0  0  0
  -27.5421  -15.9674   21.0800 H   0  0  0  0  0  0
  -26.0323  -17.8505   20.9310 H   0  0  0  0  0  0
  -30.9093  -18.6225   20.8072 H   0  0  0  0  0  0
  -27.9133  -22.0353   19.6666 H   0  0  0  0  0  0
  -31.3106  -23.3058   19.9480 H   0  0  0  0  0  0
  -30.8623  -25.0006   19.8261 H   0  0  0  0  0  0
  -30.3676  -23.8701   18.5699 H   0  0  0  0  0  0
  -27.2039  -24.5944   20.6001 H   0  0  0  0  0  0
  -27.8440  -24.6875   18.9860 H   0  0  0  0  0  0
  -29.4336  -23.8434   21.4724 H   0  0  0  0  0  0
  -25.6843  -20.0308   21.2749 H   0  0  0  0  0  0
  -26.8874  -21.1864   21.3935 H   0  0  0  0  0  0
  -29.4456  -15.3160   21.9131 H   0  0  0  0  0  0
  1 25  1  0  0  0
  1 30  2  0  0  0
  1 83  1  0  0  0
  2  3  1  0  0  0
  2 25  1  0  0  0
  2 84  1  0  0  0
  2 85  1  0  0  0
  3  4  1  0  0  0
  3 86  1  0  0  0
  3 87  1  0  0  0
  4  5  1  0  0  0
  4 88  1  0  0  0
  4 89  1  0  0  0
  5  6  1  0  0  0
  5 26  1  0  0  0
  5 90  1  0  0  0
  6 25  1  0  0  0
  6 91  1  0  0  0
  6 92  1  0  0  0
  7  8  2  0  0  0
  7 26  1  0  0  0
  7 29  1  0  0  0
  8  9  1  0  0  0
  8 22  1  0  0  0
  9 10  1  0  0  0
  9 27  2  0  0  0
 10 11  2  0  0  0
 10 15  1  0  0  0
 11 12  1  0  0  0
 11 93  1  0  0  0
 12 13  2  0  0  0
 12 94  1  0  0  0
 13 14  1  0  0  0
 13 31  1  0  0  0
 14 15  2  0  0  0
 14 95  1  0  0  0
 15 96  1  0  0  0
 16 17  2  0  0  0
 16 21  1  0  0  0
 16 31  1  0  0  0
 17 18  1  0  0  0
 17 97  1  0  0  0
 18 19  2  0  0  0
 18 98  1  0  0  0
 19 20  1  0  0  0
 19 24  1  0  0  0
 20 21  2  0  0  0
 20 99  1  0  0  0
 21 23  1  0  0  0
 22 28  1  0  0  0
 22 32  2  0  0  0
 26 27  1  0  0  0
 28100  1  0  0  0
 28101  1  0  0  0
 29102  1  0  0  0
 29103  1  0  0  0
 33 34  1  0  0  0
 33 66  1  0  0  0
 33 70  2  0  0  0
 34 36  1  0  0  0
 34 59  1  0  0  0
 34104  1  0  0  0
 35 44  2  0  0  0
 35 45  1  0  0  0
 35 68  1  0  0  0
 36 56  1  0  0  0
 36105  1  0  0  0
 37 39  1  0  0  0
 37 47  1  0  0  0
 37 66  1  0  0  0
 37106  1  0  0  0
 38 43  2  0  0  0
 38 46  1  0  0  0
 38 47  1  0  0  0
 39 64  1  0  0  0
 39 67  2  0  0  0
 40 52  1  0  0  0
 40 53  2  0  0  0
 40 58  1  0  0  0
 41107  1  0  0  0
 41108  1  0  0  0
 41109  1  0  0  0
 41 48  1  0  0  0
 42 43  1  0  0  0
 42 66  1  0  0  0
 42110  1  0  0  0
 42111  1  0  0  0
 43 44  1  0  0  0
 44112  1  0  0  0
 45 46  2  0  0  0
 45113  1  0  0  0
 46114  1  0  0  0
 47115  1  0  0  0
 47116  1  0  0  0
 48 56  1  0  0  0
 48 65  1  0  0  0
 48117  1  0  0  0
 49 50  1  0  0  0
 49 53  1  0  0  0
 49 64  1  0  0  0
 49118  1  0  0  0
 50 51  1  0  0  0
 50119  1  0  0  0
 50120  1  0  0  0
 51 52  1  0  0  0
 51121  1  0  0  0
 51122  1  0  0  0
 52123  1  0  0  0
 52124  1  0  0  0
 53 54  1  0  0  0
 54 55  2  0  0  0
 54125  1  0  0  0
 55 57  1  0  0  0
 55126  1  0  0  0
 56 69  2  0  0  0
 57 58  2  0  0  0
 57127  1  0  0  0
 58128  1  0  0  0
 59 60  1  0  0  0
 59 61  1  0  0  0
 59 62  1  0  0  0
 60129  1  0  0  0
 60130  1  0  0  0
 60131  1  0  0  0
 61132  1  0  0  0
 61133  1  0  0  0
 61134  1  0  0  0
 62135  1  0  0  0
 62136  1  0  0  0
 62137  1  0  0  0
 63 65  1  0  0  0
 63138  1  0  0  0
 63139  1  0  0  0
 63140  1  0  0  0
 64141  1  0  0  0
 65142  1  0  0  0
 68 79  1  0  0  0
 71 72  2  0  0  0
 71 75  1  0  0  0
 71143  1  0  0  0
 72 76  1  0  0  0
 72144  1  0  0  0
 73 74  1  0  0  0
 73 75  2  0  0  0
 73145  1  0  0  0
 74 76  2  0  0  0
 74 81  1  0  0  0
 75 83  1  0  0  0
 76 82  1  0  0  0
 77 80  1  0  0  0
 77 81  2  0  0  0
 77146  1  0  0  0
 78147  1  0  0  0
 78148  1  0  0  0
 78149  1  0  0  0
 78 80  1  0  0  0
 79 80  1  0  0  0
 79150  1  0  0  0
 79151  1  0  0  0
 80152  1  0  0  0
 82153  1  0  0  0
 82154  1  0  0  0
 83155  1  0  0  0
M  ISO  4   1 100  68 101  79 101  83 100
M  END
> <chiral flag>
0

> <version>
0

> <s_m_source_file>
/data/baiqing/PycharmProjects/Reinvent-master-3.2/result/LINK_invent/BTK/process_docking_weight1_custom_product_contain_oxygen_bond_distance_aromatic_linkinvent_7_9_3/rearranged_h_0115.sdf

> <i_m_source_file_index>
79

> <r_mmod_Potential_Energy-OPLS-2005>
230.797210693359

> <r_mmod_Stretch_Energy-OPLS-2005>
159.154006958008

> <r_mmod_Bend_Energy-OPLS-2005>
213.106597900391

> <r_mmod_Torsional_Energy-OPLS-2005>
264.587310791016

> <r_mmod_Improper_Torsional_Energy-OPLS-2005>
14.9560203552246

> <r_mmod_Van_der_Waal_Energy-OPLS-2005>
152.462051391602

> <r_mmod_Electrostatic_Energy-OPLS-2005>
-448.042541503906

> <r_mmod_Solvation_Energy-OPLS-2005>
-222.224945068359

> <b_mmod_Minimization_Converged-OPLS-2005>
0

> <r_mmod_RMS_Derivative-OPLS-2005>
0.928593516349792

$$$$
79
                    3D
 Structure written by MMmdl.
159168  0  0  1  0            999 V2000
  -30.6958  -14.4189   20.5412 C   0  0  0  0  0  0
  -30.4273  -12.2528   19.4178 C   0  0  0  0  0  0
  -29.4923  -12.4451   18.2044 C   0  0  0  0  0  0
  -28.0086  -12.3576   18.6151 C   0  0  0  0  0  0
  -27.6692  -13.1929   19.8782 C   0  0  2  0  0  0
  -28.7093  -12.9452   20.9947 C   0  0  0  0  0  0
  -25.2646  -13.8144   20.5658 C   0  0  0  0  0  0
  -24.1868  -13.0443   20.9137 C   0  0  0  0  0  0
  -24.6387  -11.6895   20.8729 C   0  0  0  0  0  0
  -23.9050  -10.4275   21.0402 C   0  0  0  0  0  0
  -24.3598   -9.4183   21.9173 C   0  0  0  0  0  0
  -23.6275   -8.2215   22.0741 C   0  0  0  0  0  0
  -22.4264   -8.0249   21.3526 C   0  0  0  0  0  0
  -21.9898   -9.0230   20.4643 C   0  0  0  0  0  0
  -22.7230  -10.2104   20.3054 C   0  0  0  0  0  0
  -21.6841   -6.0716   22.5259 C   0  0  0  0  0  0
  -21.4026   -6.5630   23.8195 C   0  0  0  0  0  0
  -21.3667   -5.6780   24.9155 C   0  0  0  0  0  0
  -21.6040   -4.3038   24.7214 C   0  0  0  0  0  0
  -21.8832   -3.8139   23.4340 C   0  0  0  0  0  0
  -21.9198   -4.6952   22.3395 C   0  0  0  0  0  0
  -22.7896  -13.5257   21.1794 C   0  0  0  0  0  0
  -22.1663   -4.2136   21.0971 F   0  0  0  0  0  0
  -21.5628   -3.4521   25.7729 F   0  0  0  0  0  0
  -30.0473  -13.2313   20.4448 N   0  0  0  0  0  0
  -26.3069  -12.9286   20.3392 N   0  0  0  0  0  0
  -25.9317  -11.6459   20.5808 N   0  0  0  0  0  0
  -22.0547  -12.8247   22.0358 N   0  0  0  0  0  0
  -25.4445  -15.1856   20.4087 N   0  0  0  0  0  0
  -31.8437  -14.6137   20.1287 O   0  0  0  0  0  0
  -21.6641   -6.8844   21.4210 O   0  0  0  0  0  0
  -22.3559  -14.5549   20.6649 O   0  0  0  0  0  0
  -24.6089  -31.8724   23.2145 C   0  0  0  0  0  0
  -25.9004  -32.4852   23.8422 C   0  0  1  0  0  0
  -27.2416  -27.4997   20.0899 C   0  0  0  0  0  0
  -25.5885  -33.8646   24.2369 N   0  0  0  0  0  0
  -23.3951  -30.4934   21.5552 C   0  0  2  0  0  0
  -24.8420  -28.9629   20.1206 C   0  0  0  0  0  0
  -22.7381  -29.4668   22.5045 C   0  0  0  0  0  0
  -18.0268  -28.1379   22.8486 C   0  0  0  0  0  0
  -24.1486  -36.7325   23.2635 C   0  0  0  0  0  0
  -25.9138  -30.8585   21.3550 C   0  0  0  0  0  0
  -25.9959  -29.4947   20.7098 C   0  0  0  0  0  0
  -27.2011  -28.7689   20.6911 C   0  0  0  0  0  0
  -26.0772  -26.9607   19.5028 C   0  0  0  0  0  0
  -24.8732  -27.6930   19.5144 C   0  0  0  0  0  0
  -23.5991  -29.8220   20.1698 C   0  0  0  0  0  0
  -25.4104  -36.3137   24.0347 C   0  0  1  0  0  0
  -20.5839  -28.3648   23.1352 C   0  0  2  0  0  0
  -20.6763  -26.9400   22.5423 C   0  0  0  0  0  0
  -19.5750  -26.6395   21.5207 C   0  0  0  0  0  0
  -18.1922  -26.7936   22.1612 C   0  0  0  0  0  0
  -19.1508  -28.8835   23.2917 C   0  0  0  0  0  0
  -18.9447  -30.1443   23.8915 C   0  0  0  0  0  0
  -17.6450  -30.6585   24.0566 C   0  0  0  0  0  0
  -25.9015  -34.9493   23.5157 C   0  0  0  0  0  0
  -16.5337  -29.9089   23.6321 C   0  0  0  0  0  0
  -16.7260  -28.6511   23.0334 C   0  0  0  0  0  0
  -26.4458  -31.6604   25.0717 C   0  0  0  0  0  0
  -25.3749  -31.3670   26.1480 C   0  0  0  0  0  0
  -27.0273  -30.3069   24.6021 C   0  0  0  0  0  0
  -27.6063  -32.4300   25.7455 C   0  0  0  0  0  0
  -27.5587  -37.1817   24.8471 C   0  0  0  0  0  0
  -21.4111  -29.3021   22.3760 N   0  0  0  0  0  0
  -26.4303  -37.3813   23.9412 N   0  0  0  0  0  0
  -24.6577  -31.0879   22.1010 N   0  0  0  0  0  0
  -23.4173  -28.8213   23.3072 O   0  0  0  0  0  0
  -28.4209  -26.8121   20.0571 O   0  0  0  0  0  0
  -26.5571  -34.8934   22.4711 O   0  0  0  0  0  0
  -23.5297  -32.1450   23.7573 O   0  0  0  0  0  0
  -28.9357  -17.5862   20.8917 C   0  0  0  0  0  0
  -28.6728  -18.4708   19.8068 C   0  0  0  0  0  0
  -29.5908  -16.5444   20.2992 C   0  0  0  0  0  0
  -28.5201  -24.4807   20.2052 C   0  0  0  0  0  0
  -28.4584  -25.6755   20.8029 C   0  0  0  0  0  0
  -28.5823  -23.2532   20.9820 C   0  0  0  0  0  0
  -28.0722  -20.5741   18.4847 C   0  0  0  0  0  0
  -27.9278  -22.0375   18.8680 C   0  0  0  0  0  0
  -28.5498  -20.7884   20.8289 C   0  0  0  0  0  0
  -27.9679  -19.8069   19.8075 C   0  0  2  0  0  0
  -30.1974  -16.0761   17.7778 C   0  0  0  0  0  0
  -29.1259  -17.9864   18.6608 N   0  0  0  0  0  0
  -29.7044  -16.8065   18.9337 N   0  0  0  0  0  0
  -28.3668  -22.1273   20.2659 N   0  0  0  0  0  0
  -29.9328  -15.4220   20.9835 N   0  0  0  0  0  0
  -28.8457  -23.2153   22.1890 O   0  0  0  0  0  0
  -31.4706  -12.3517   19.1099 H   0  0  0  0  0  0
  -30.3314  -11.2418   19.8171 H   0  0  0  0  0  0
  -29.7090  -11.6936   17.4434 H   0  0  0  0  0  0
  -29.6906  -13.4011   17.7310 H   0  0  0  0  0  0
  -27.7860  -11.3068   18.7988 H   0  0  0  0  0  0
  -27.3699  -12.6622   17.7849 H   0  0  0  0  0  0
  -27.7266  -14.2424   19.5876 H   0  0  0  0  0  0
  -28.6677  -11.9085   21.3335 H   0  0  0  0  0  0
  -28.4822  -13.5439   21.8777 H   0  0  0  0  0  0
  -25.2742   -9.5647   22.4756 H   0  0  0  0  0  0
  -23.9966   -7.4602   22.7467 H   0  0  0  0  0  0
  -21.0823   -8.8772   19.8957 H   0  0  0  0  0  0
  -22.3693  -10.9641   19.6169 H   0  0  0  0  0  0
  -21.2029   -7.6134   23.9701 H   0  0  0  0  0  0
  -21.1477   -6.0496   25.9051 H   0  0  0  0  0  0
  -22.0619   -2.7605   23.2829 H   0  0  0  0  0  0
  -22.4203  -11.9918   22.4708 H   0  0  0  0  0  0
  -21.1186  -13.1280   22.2625 H   0  0  0  0  0  0
  -24.6850  -15.8473   20.5220 H   0  0  0  0  0  0
  -26.3060  -15.6217   20.1042 H   0  0  0  0  0  0
  -26.7069  -32.5609   23.1192 H   0  0  0  0  0  0
  -25.0080  -33.9809   25.0545 H   0  0  0  0  0  0
  -22.6823  -31.3083   21.4180 H   0  0  0  0  0  0
  -23.3751  -35.9655   23.3323 H   0  0  0  0  0  0
  -24.3574  -36.8909   22.2043 H   0  0  0  0  0  0
  -23.7228  -37.6540   23.6615 H   0  0  0  0  0  0
  -26.0097  -31.6229   20.5826 H   0  0  0  0  0  0
  -26.8070  -30.9209   21.9633 H   0  0  0  0  0  0
  -28.1000  -29.1774   21.1309 H   0  0  0  0  0  0
  -26.1079  -25.9887   19.0318 H   0  0  0  0  0  0
  -23.9854  -27.2814   19.0552 H   0  0  0  0  0  0
  -23.7020  -30.5953   19.4075 H   0  0  0  0  0  0
  -22.7268  -29.2344   19.8794 H   0  0  0  0  0  0
  -25.1277  -36.2016   25.0840 H   0  0  0  0  0  0
  -20.9932  -28.3208   24.1472 H   0  0  0  0  0  0
  -20.5681  -26.2249   23.3589 H   0  0  0  0  0  0
  -21.6642  -26.7468   22.1206 H   0  0  0  0  0  0
  -19.6917  -25.6314   21.1225 H   0  0  0  0  0  0
  -19.6705  -27.3215   20.6745 H   0  0  0  0  0  0
  -17.4198  -26.6681   21.4008 H   0  0  0  0  0  0
  -18.0330  -26.0071   22.9005 H   0  0  0  0  0  0
  -19.7913  -30.7259   24.2297 H   0  0  0  0  0  0
  -17.4998  -31.6267   24.5169 H   0  0  0  0  0  0
  -15.5338  -30.3000   23.7637 H   0  0  0  0  0  0
  -15.8654  -28.0843   22.7033 H   0  0  0  0  0  0
  -24.5924  -30.7019   25.7815 H   0  0  0  0  0  0
  -24.8930  -32.2812   26.4968 H   0  0  0  0  0  0
  -25.8125  -30.8815   27.0214 H   0  0  0  0  0  0
  -26.2791  -29.6844   24.1105 H   0  0  0  0  0  0
  -27.4127  -29.7277   25.4425 H   0  0  0  0  0  0
  -27.8584  -30.4437   23.9093 H   0  0  0  0  0  0
  -27.2716  -33.3587   26.2086 H   0  0  0  0  0  0
  -28.3824  -32.6879   25.0237 H   0  0  0  0  0  0
  -28.0782  -31.8391   26.5318 H   0  0  0  0  0  0
  -28.2624  -38.0096   24.7514 H   0  0  0  0  0  0
  -28.1062  -36.2634   24.6303 H   0  0  0  0  0  0
  -27.2303  -37.1483   25.8872 H   0  0  0  0  0  0
  -20.9271  -29.8722   21.6956 H   0  0  0  0  0  0
  -26.0210  -38.2902   24.1402 H   0  0  0  0  0  0
  -28.6702  -17.7009   21.9345 H   0  0  0  0  0  0
  -28.5307  -24.4822   19.1278 H   0  0  0  0  0  0
  -28.4361  -25.8581   21.8711 H   0  0  0  0  0  0
  -29.0688  -20.4591   18.0538 H   0  0  0  0  0  0
  -27.3544  -20.2438   17.7330 H   0  0  0  0  0  0
  -26.8895  -22.3637   18.7919 H   0  0  0  0  0  0
  -28.5290  -22.6360   18.1845 H   0  0  0  0  0  0
  -29.6214  -20.6247   20.9537 H   0  0  0  0  0  0
  -28.0747  -20.6739   21.8058 H   0  0  0  0  0  0
  -26.9102  -19.6593   20.0351 H   0  0  0  0  0  0
  -31.0170  -15.4093   18.0147 H   0  0  0  0  0  0
  -30.5640  -16.7774   17.0261 H   0  0  0  0  0  0
  -29.3764  -15.5153   17.3353 H   0  0  0  0  0  0
  -29.2352  -15.1369   21.6516 H   0  0  0  0  0  0
  1 25  1  0  0  0
  1 30  2  0  0  0
  1 85  1  0  0  0
  2  3  1  0  0  0
  2 25  1  0  0  0
  2 87  1  0  0  0
  2 88  1  0  0  0
  3  4  1  0  0  0
  3 89  1  0  0  0
  3 90  1  0  0  0
  4  5  1  0  0  0
  4 91  1  0  0  0
  4 92  1  0  0  0
  5  6  1  0  0  0
  5 26  1  0  0  0
  5 93  1  0  0  0
  6 25  1  0  0  0
  6 94  1  0  0  0
  6 95  1  0  0  0
  7  8  2  0  0  0
  7 26  1  0  0  0
  7 29  1  0  0  0
  8  9  1  0  0  0
  8 22  1  0  0  0
  9 10  1  0  0  0
  9 27  2  0  0  0
 10 11  2  0  0  0
 10 15  1  0  0  0
 11 12  1  0  0  0
 11 96  1  0  0  0
 12 13  2  0  0  0
 12 97  1  0  0  0
 13 14  1  0  0  0
 13 31  1  0  0  0
 14 15  2  0  0  0
 14 98  1  0  0  0
 15 99  1  0  0  0
 16 17  2  0  0  0
 16 21  1  0  0  0
 16 31  1  0  0  0
 17 18  1  0  0  0
 17100  1  0  0  0
 18 19  2  0  0  0
 18101  1  0  0  0
 19 20  1  0  0  0
 19 24  1  0  0  0
 20 21  2  0  0  0
 20102  1  0  0  0
 21 23  1  0  0  0
 22 28  1  0  0  0
 22 32  2  0  0  0
 26 27  1  0  0  0
 28103  1  0  0  0
 28104  1  0  0  0
 29105  1  0  0  0
 29106  1  0  0  0
 33 34  1  0  0  0
 33 66  1  0  0  0
 33 70  2  0  0  0
 34 36  1  0  0  0
 34 59  1  0  0  0
 34107  1  0  0  0
 35 44  2  0  0  0
 35 45  1  0  0  0
 35 68  1  0  0  0
 36 56  1  0  0  0
 36108  1  0  0  0
 37 39  1  0  0  0
 37 47  1  0  0  0
 37 66  1  0  0  0
 37109  1  0  0  0
 38 43  2  0  0  0
 38 46  1  0  0  0
 38 47  1  0  0  0
 39 64  1  0  0  0
 39 67  2  0  0  0
 40 52  1  0  0  0
 40 53  2  0  0  0
 40 58  1  0  0  0
 41110  1  0  0  0
 41111  1  0  0  0
 41112  1  0  0  0
 41 48  1  0  0  0
 42 43  1  0  0  0
 42 66  1  0  0  0
 42113  1  0  0  0
 42114  1  0  0  0
 43 44  1  0  0  0
 44115  1  0  0  0
 45 46  2  0  0  0
 45116  1  0  0  0
 46117  1  0  0  0
 47118  1  0  0  0
 47119  1  0  0  0
 48 56  1  0  0  0
 48 65  1  0  0  0
 48120  1  0  0  0
 49 50  1  0  0  0
 49 53  1  0  0  0
 49 64  1  0  0  0
 49121  1  0  0  0
 50 51  1  0  0  0
 50122  1  0  0  0
 50123  1  0  0  0
 51 52  1  0  0  0
 51124  1  0  0  0
 51125  1  0  0  0
 52126  1  0  0  0
 52127  1  0  0  0
 53 54  1  0  0  0
 54 55  2  0  0  0
 54128  1  0  0  0
 55 57  1  0  0  0
 55129  1  0  0  0
 56 69  2  0  0  0
 57 58  2  0  0  0
 57130  1  0  0  0
 58131  1  0  0  0
 59 60  1  0  0  0
 59 61  1  0  0  0
 59 62  1  0  0  0
 60132  1  0  0  0
 60133  1  0  0  0
 60134  1  0  0  0
 61135  1  0  0  0
 61136  1  0  0  0
 61137  1  0  0  0
 62138  1  0  0  0
 62139  1  0  0  0
 62140  1  0  0  0
 63 65  1  0  0  0
 63141  1  0  0  0
 63142  1  0  0  0
 63143  1  0  0  0
 64144  1  0  0  0
 65145  1  0  0  0
 68 75  1  0  0  0
 71 72  1  0  0  0
 71 73  2  0  0  0
 71146  1  0  0  0
 72 82  2  0  0  0
 72 80  1  0  0  0
 73 83  1  0  0  0
 73 85  1  0  0  0
 74 75  2  0  0  0
 74 76  1  0  0  0
 74147  1  0  0  0
 75148  1  0  0  0
 76 84  1  0  0  0
 76 86  2  0  0  0
 77 78  1  0  0  0
 77 80  1  0  0  0
 77149  1  0  0  0
 77150  1  0  0  0
 78 84  1  0  0  0
 78151  1  0  0  0
 78152  1  0  0  0
 79 80  1  0  0  0
 79 84  1  0  0  0
 79153  1  0  0  0
 79154  1  0  0  0
 80155  1  0  0  0
 81 83  1  0  0  0
 81156  1  0  0  0
 81157  1  0  0  0
 81158  1  0  0  0
 82 83  1  0  0  0
 85159  1  0  0  0
M  ISO  4   1 100  68 101  75 101  85 100
M  END
> <chiral flag>
0

> <version>
0

> <s_m_source_file>
/data/baiqing/PycharmProjects/Reinvent-master-3.2/result/LINK_invent/BTK/process_docking_weight1_custom_product_contain_oxygen_bond_distance_aromatic_linkinvent_7_9_3/rearranged_h_0115.sdf

> <i_m_source_file_index>
80

> <r_mmod_Potential_Energy-OPLS-2005>
-40.1856269836426

> <r_mmod_Stretch_Energy-OPLS-2005>
30.6554756164551

> <r_mmod_Bend_Energy-OPLS-2005>
132.980545043945

> <r_mmod_Torsional_Energy-OPLS-2005>
331.690185546875

> <r_mmod_Improper_Torsional_Energy-OPLS-2005>
6.33656978607178

> <r_mmod_Van_der_Waal_Energy-OPLS-2005>
142.385925292969

> <r_mmod_Electrostatic_Energy-OPLS-2005>
-456.103424072266

> <r_mmod_Solvation_Energy-OPLS-2005>
-239.103805541992

> <b_mmod_Minimization_Converged-OPLS-2005>
0

> <r_mmod_RMS_Derivative-OPLS-2005>
2.15784478187561

$$$$
80
                    3D
 Structure written by MMmdl.
163171  0  0  1  0            999 V2000
  -30.7438  -14.4926   20.5189 C   0  0  0  0  0  0
  -30.3896  -12.3026   19.4426 C   0  0  0  0  0  0
  -29.4908  -12.4943   18.2085 C   0  0  0  0  0  0
  -28.0112  -12.3512   18.6158 C   0  0  0  0  0  0
  -27.6460  -13.2186   19.8535 C   0  0  2  0  0  0
  -28.6868  -13.0697   20.9883 C   0  0  0  0  0  0
  -25.2500  -13.8217   20.5667 C   0  0  0  0  0  0
  -24.1790  -13.0467   20.9171 C   0  0  0  0  0  0
  -24.6377  -11.6940   20.8722 C   0  0  0  0  0  0
  -23.9055  -10.4325   21.0395 C   0  0  0  0  0  0
  -24.3633   -9.4251   21.9177 C   0  0  0  0  0  0
  -23.6331   -8.2270   22.0741 C   0  0  0  0  0  0
  -22.4303   -8.0316   21.3531 C   0  0  0  0  0  0
  -21.9926   -9.0280   20.4610 C   0  0  0  0  0  0
  -22.7232  -10.2173   20.3030 C   0  0  0  0  0  0
  -21.6865   -6.0779   22.5310 C   0  0  0  0  0  0
  -21.4027   -6.5655   23.8254 C   0  0  0  0  0  0
  -21.3664   -5.6774   24.9188 C   0  0  0  0  0  0
  -21.6037   -4.3043   24.7223 C   0  0  0  0  0  0
  -21.8807   -3.8170   23.4336 C   0  0  0  0  0  0
  -21.9195   -4.7004   22.3412 C   0  0  0  0  0  0
  -22.7812  -13.5252   21.1849 C   0  0  0  0  0  0
  -22.1648   -4.2196   21.0979 F   0  0  0  0  0  0
  -21.5629   -3.4521   25.7729 F   0  0  0  0  0  0
  -30.0144  -13.3432   20.4164 N   0  0  0  0  0  0
  -26.2925  -12.9405   20.3245 N   0  0  0  0  0  0
  -25.9302  -11.6562   20.5722 N   0  0  0  0  0  0
  -22.0466  -12.8263   22.0415 N   0  0  0  0  0  0
  -25.4190  -15.1956   20.4074 N   0  0  0  0  0  0
  -31.9142  -14.5271   20.1342 O   0  0  0  0  0  0
  -21.6638   -6.8939   21.4278 O   0  0  0  0  0  0
  -22.3518  -14.5593   20.6730 O   0  0  0  0  0  0
  -24.6131  -31.8687   23.2141 C   0  0  0  0  0  0
  -25.9034  -32.4840   23.8433 C   0  0  1  0  0  0
  -27.2055  -27.4116   20.1201 C   0  0  0  0  0  0
  -25.5911  -33.8637   24.2379 N   0  0  0  0  0  0
  -23.3995  -30.4949   21.5536 C   0  0  2  0  0  0
  -24.8460  -28.9654   20.1182 C   0  0  0  0  0  0
  -22.7385  -29.4649   22.4984 C   0  0  0  0  0  0
  -18.0263  -28.1391   22.8472 C   0  0  0  0  0  0
  -24.1483  -36.7298   23.2631 C   0  0  0  0  0  0
  -25.9295  -30.8339   21.3690 C   0  0  0  0  0  0
  -26.0073  -29.4651   20.7212 C   0  0  0  0  0  0
  -27.1955  -28.6944   20.7220 C   0  0  0  0  0  0
  -26.0386  -26.9485   19.4830 C   0  0  0  0  0  0
  -24.8560  -27.7079   19.4973 C   0  0  0  0  0  0
  -23.6122  -29.8361   20.1647 C   0  0  0  0  0  0
  -25.4101  -36.3112   24.0346 C   0  0  1  0  0  0
  -20.5841  -28.3662   23.1306 C   0  0  2  0  0  0
  -20.6751  -26.9404   22.5396 C   0  0  0  0  0  0
  -19.5741  -26.6392   21.5189 C   0  0  0  0  0  0
  -18.1923  -26.7932   22.1605 C   0  0  0  0  0  0
  -19.1505  -28.8842   23.2882 C   0  0  0  0  0  0
  -18.9446  -30.1443   23.8892 C   0  0  0  0  0  0
  -17.6451  -30.6594   24.0568 C   0  0  0  0  0  0
  -25.9030  -34.9473   23.5148 C   0  0  0  0  0  0
  -16.5342  -29.9103   23.6317 C   0  0  0  0  0  0
  -16.7253  -28.6523   23.0343 C   0  0  0  0  0  0
  -26.4486  -31.6569   25.0716 C   0  0  0  0  0  0
  -25.3774  -31.3640   26.1469 C   0  0  0  0  0  0
  -27.0268  -30.3004   24.6032 C   0  0  0  0  0  0
  -27.6081  -32.4268   25.7488 C   0  0  0  0  0  0
  -27.5592  -37.1797   24.8481 C   0  0  0  0  0  0
  -21.4118  -29.3029   22.3724 N   0  0  0  0  0  0
  -26.4301  -37.3795   23.9428 N   0  0  0  0  0  0
  -24.6661  -31.0784   22.1048 N   0  0  0  0  0  0
  -23.4159  -28.8168   23.3018 O   0  0  0  0  0  0
  -28.3359  -26.6252   20.1080 O   0  0  0  0  0  0
  -26.5588  -34.8905   22.4713 O   0  0  0  0  0  0
  -23.5321  -32.1482   23.7479 O   0  0  0  0  0  0
  -28.3679  -19.8465   21.8880 C   0  0  0  0  0  0
  -28.9275  -20.0284   19.5432 C   0  0  0  0  0  0
  -29.7303  -18.0846   20.8228 C   0  0  0  0  0  0
  -29.0729  -18.6206   21.9690 C   0  0  0  0  0  0
  -28.3072  -20.5759   20.6852 C   0  0  0  0  0  0
  -29.6429  -18.7975   19.5832 C   0  0  0  0  0  0
  -28.1605  -22.8969   20.8264 C   0  0  0  0  0  0
  -30.6275  -16.8648   20.9631 C   0  0  0  0  0  0
  -29.1423  -17.9171   23.3222 C   0  0  0  0  0  0
  -26.1452  -24.2728   21.5339 C   0  0  0  0  0  0
  -30.0205  -18.9280   17.1074 C   0  0  0  0  0  0
  -28.3576  -25.5027   21.0250 C   0  0  0  0  0  0
  -27.4494  -24.2625   20.6948 C   0  0  1  0  0  0
  -27.5793  -21.7782   20.5959 N   0  0  0  0  0  0
  -30.2667  -18.3191   18.4094 N   0  0  0  0  0  0
  -30.0721  -15.6303   20.8326 N   0  0  0  0  0  0
  -31.8262  -17.0732   21.1858 O   0  0  0  0  0  0
  -31.4375  -12.3385   19.1469 H   0  0  0  0  0  0
  -30.2417  -11.3096   19.8710 H   0  0  0  0  0  0
  -29.7456  -11.7597   17.4428 H   0  0  0  0  0  0
  -29.6672  -13.4793   17.7671 H   0  0  0  0  0  0
  -27.8396  -11.2990   18.8467 H   0  0  0  0  0  0
  -27.3565  -12.5899   17.7737 H   0  0  0  0  0  0
  -27.6651  -14.2551   19.5209 H   0  0  0  0  0  0
  -28.6576  -12.0553   21.3921 H   0  0  0  0  0  0
  -28.4510  -13.7301   21.8255 H   0  0  0  0  0  0
  -25.2809   -9.5761   22.4707 H   0  0  0  0  0  0
  -24.0066   -7.4683   22.7477 H   0  0  0  0  0  0
  -21.0849   -8.8802   19.8924 H   0  0  0  0  0  0
  -22.3711  -10.9715   19.6115 H   0  0  0  0  0  0
  -21.2007   -7.6159   23.9781 H   0  0  0  0  0  0
  -21.1479   -6.0488   25.9095 H   0  0  0  0  0  0
  -22.0578   -2.7653   23.2805 H   0  0  0  0  0  0
  -22.4067  -11.9909   22.4783 H   0  0  0  0  0  0
  -21.1099  -13.1320   22.2624 H   0  0  0  0  0  0
  -24.6461  -15.8455   20.4944 H   0  0  0  0  0  0
  -26.2627  -15.6416   20.0726 H   0  0  0  0  0  0
  -26.7082  -32.5583   23.1184 H   0  0  0  0  0  0
  -25.0131  -33.9833   25.0580 H   0  0  0  0  0  0
  -22.6877  -31.3102   21.4130 H   0  0  0  0  0  0
  -23.3767  -35.9612   23.3333 H   0  0  0  0  0  0
  -24.3576  -36.8873   22.2035 H   0  0  0  0  0  0
  -23.7198  -37.6498   23.6622 H   0  0  0  0  0  0
  -26.0389  -31.5996   20.5981 H   0  0  0  0  0  0
  -26.8187  -30.8952   21.9811 H   0  0  0  0  0  0
  -28.0912  -29.0734   21.1972 H   0  0  0  0  0  0
  -26.0237  -25.9942   18.9818 H   0  0  0  0  0  0
  -23.9694  -27.3224   19.0151 H   0  0  0  0  0  0
  -23.7344  -30.6173   19.4121 H   0  0  0  0  0  0
  -22.7334  -29.2659   19.8556 H   0  0  0  0  0  0
  -25.1253  -36.2009   25.0838 H   0  0  0  0  0  0
  -20.9919  -28.3269   24.1434 H   0  0  0  0  0  0
  -20.5617  -26.2294   23.3578 H   0  0  0  0  0  0
  -21.6638  -26.7448   22.1206 H   0  0  0  0  0  0
  -19.6909  -25.6296   21.1236 H   0  0  0  0  0  0
  -19.6708  -27.3191   20.6699 H   0  0  0  0  0  0
  -17.4170  -26.6646   21.4042 H   0  0  0  0  0  0
  -18.0370  -26.0087   22.9005 H   0  0  0  0  0  0
  -19.7924  -30.7251   24.2291 H   0  0  0  0  0  0
  -17.5013  -31.6274   24.5185 H   0  0  0  0  0  0
  -15.5346  -30.3023   23.7628 H   0  0  0  0  0  0
  -15.8643  -28.0843   22.7076 H   0  0  0  0  0  0
  -24.6004  -30.6914   25.7840 H   0  0  0  0  0  0
  -24.8864  -32.2734   26.4907 H   0  0  0  0  0  0
  -25.8132  -30.8862   27.0226 H   0  0  0  0  0  0
  -26.2772  -29.6807   24.1092 H   0  0  0  0  0  0
  -27.4063  -29.7196   25.4449 H   0  0  0  0  0  0
  -27.8614  -30.4352   23.9154 H   0  0  0  0  0  0
  -27.2767  -33.3593   26.2067 H   0  0  0  0  0  0
  -28.3905  -32.6760   25.0314 H   0  0  0  0  0  0
  -28.0735  -31.8361   26.5391 H   0  0  0  0  0  0
  -28.2601  -38.0094   24.7518 H   0  0  0  0  0  0
  -28.1079  -36.2612   24.6324 H   0  0  0  0  0  0
  -27.2297  -37.1474   25.8879 H   0  0  0  0  0  0
  -20.9296  -29.8798   21.6978 H   0  0  0  0  0  0
  -26.0200  -38.2873   24.1460 H   0  0  0  0  0  0
  -27.8752  -20.2380   22.7686 H   0  0  0  0  0  0
  -28.8421  -20.5875   18.6241 H   0  0  0  0  0  0
  -29.2134  -22.9470   21.1189 H   0  0  0  0  0  0
  -28.5592  -18.4393   24.0826 H   0  0  0  0  0  0
  -30.1750  -17.8657   23.6749 H   0  0  0  0  0  0
  -28.7486  -16.9006   23.2615 H   0  0  0  0  0  0
  -25.4406  -23.5140   21.1944 H   0  0  0  0  0  0
  -25.6241  -25.2262   21.4841 H   0  0  0  0  0  0
  -26.3437  -24.0736   22.5878 H   0  0  0  0  0  0
  -30.5696  -18.3856   16.3390 H   0  0  0  0  0  0
  -30.3606  -19.9636   17.0766 H   0  0  0  0  0  0
  -28.9619  -18.8840   16.8523 H   0  0  0  0  0  0
  -29.4030  -25.1899   21.0628 H   0  0  0  0  0  0
  -28.1386  -25.8672   22.0287 H   0  0  0  0  0  0
  -27.1833  -24.3341   19.6427 H   0  0  0  0  0  0
  -30.8221  -17.4642   18.4093 H   0  0  0  0  0  0
  -29.0686  -15.5840   20.8436 H   0  0  0  0  0  0
  1 25  1  0  0  0
  1 30  2  0  0  0
  1 86  1  0  0  0
  2  3  1  0  0  0
  2 25  1  0  0  0
  2 88  1  0  0  0
  2 89  1  0  0  0
  3  4  1  0  0  0
  3 90  1  0  0  0
  3 91  1  0  0  0
  4  5  1  0  0  0
  4 92  1  0  0  0
  4 93  1  0  0  0
  5  6  1  0  0  0
  5 26  1  0  0  0
  5 94  1  0  0  0
  6 25  1  0  0  0
  6 95  1  0  0  0
  6 96  1  0  0  0
  7  8  2  0  0  0
  7 26  1  0  0  0
  7 29  1  0  0  0
  8  9  1  0  0  0
  8 22  1  0  0  0
  9 10  1  0  0  0
  9 27  2  0  0  0
 10 11  2  0  0  0
 10 15  1  0  0  0
 11 12  1  0  0  0
 11 97  1  0  0  0
 12 13  2  0  0  0
 12 98  1  0  0  0
 13 14  1  0  0  0
 13 31  1  0  0  0
 14 15  2  0  0  0
 14 99  1  0  0  0
 15100  1  0  0  0
 16 17  2  0  0  0
 16 21  1  0  0  0
 16 31  1  0  0  0
 17 18  1  0  0  0
 17101  1  0  0  0
 18 19  2  0  0  0
 18102  1  0  0  0
 19 20  1  0  0  0
 19 24  1  0  0  0
 20 21  2  0  0  0
 20103  1  0  0  0
 21 23  1  0  0  0
 22 28  1  0  0  0
 22 32  2  0  0  0
 26 27  1  0  0  0
 28104  1  0  0  0
 28105  1  0  0  0
 29106  1  0  0  0
 29107  1  0  0  0
 33 34  1  0  0  0
 33 66  1  0  0  0
 33 70  2  0  0  0
 34 36  1  0  0  0
 34 59  1  0  0  0
 34108  1  0  0  0
 35 44  2  0  0  0
 35 45  1  0  0  0
 35 68  1  0  0  0
 36 56  1  0  0  0
 36109  1  0  0  0
 37 39  1  0  0  0
 37 47  1  0  0  0
 37 66  1  0  0  0
 37110  1  0  0  0
 38 43  2  0  0  0
 38 46  1  0  0  0
 38 47  1  0  0  0
 39 64  1  0  0  0
 39 67  2  0  0  0
 40 52  1  0  0  0
 40 53  2  0  0  0
 40 58  1  0  0  0
 41111  1  0  0  0
 41112  1  0  0  0
 41113  1  0  0  0
 41 48  1  0  0  0
 42 43  1  0  0  0
 42 66  1  0  0  0
 42114  1  0  0  0
 42115  1  0  0  0
 43 44  1  0  0  0
 44116  1  0  0  0
 45 46  2  0  0  0
 45117  1  0  0  0
 46118  1  0  0  0
 47119  1  0  0  0
 47120  1  0  0  0
 48 56  1  0  0  0
 48 65  1  0  0  0
 48121  1  0  0  0
 49 50  1  0  0  0
 49 53  1  0  0  0
 49 64  1  0  0  0
 49122  1  0  0  0
 50 51  1  0  0  0
 50123  1  0  0  0
 50124  1  0  0  0
 51 52  1  0  0  0
 51125  1  0  0  0
 51126  1  0  0  0
 52127  1  0  0  0
 52128  1  0  0  0
 53 54  1  0  0  0
 54 55  2  0  0  0
 54129  1  0  0  0
 55 57  1  0  0  0
 55130  1  0  0  0
 56 69  2  0  0  0
 57 58  2  0  0  0
 57131  1  0  0  0
 58132  1  0  0  0
 59 60  1  0  0  0
 59 61  1  0  0  0
 59 62  1  0  0  0
 60133  1  0  0  0
 60134  1  0  0  0
 60135  1  0  0  0
 61136  1  0  0  0
 61137  1  0  0  0
 61138  1  0  0  0
 62139  1  0  0  0
 62140  1  0  0  0
 62141  1  0  0  0
 63 65  1  0  0  0
 63142  1  0  0  0
 63143  1  0  0  0
 63144  1  0  0  0
 64145  1  0  0  0
 65146  1  0  0  0
 68 82  1  0  0  0
 71 74  2  0  0  0
 71 75  1  0  0  0
 71147  1  0  0  0
 72 75  2  0  0  0
 72 76  1  0  0  0
 72148  1  0  0  0
 73 74  1  0  0  0
 73 76  2  0  0  0
 73 78  1  0  0  0
 74 79  1  0  0  0
 75 84  1  0  0  0
 76 85  1  0  0  0
 77 83  1  0  0  0
 77 84  2  0  0  0
 77149  1  0  0  0
 78 86  1  0  0  0
 78 87  2  0  0  0
 79150  1  0  0  0
 79151  1  0  0  0
 79152  1  0  0  0
 80153  1  0  0  0
 80154  1  0  0  0
 80155  1  0  0  0
 80 83  1  0  0  0
 81 85  1  0  0  0
 81156  1  0  0  0
 81157  1  0  0  0
 81158  1  0  0  0
 82 83  1  0  0  0
 82159  1  0  0  0
 82160  1  0  0  0
 83161  1  0  0  0
 85162  1  0  0  0
 86163  1  0  0  0
M  ISO  4   1 100  68 101  82 101  86 100
M  END
> <chiral flag>
0

> <version>
0

> <s_m_source_file>
/data/baiqing/PycharmProjects/Reinvent-master-3.2/result/LINK_invent/BTK/process_docking_weight1_custom_product_contain_oxygen_bond_distance_aromatic_linkinvent_7_9_3/rearranged_h_0115.sdf

> <i_m_source_file_index>
81

> <r_mmod_Potential_Energy-OPLS-2005>
122.246597290039

> <r_mmod_Stretch_Energy-OPLS-2005>
49.517707824707

> <r_mmod_Bend_Energy-OPLS-2005>
119.108154296875

> <r_mmod_Torsional_Energy-OPLS-2005>
282.532684326172

> <r_mmod_Improper_Torsional_Energy-OPLS-2005>
6.26968383789062

> <r_mmod_Van_der_Waal_Energy-OPLS-2005>
162.094985961914

> <r_mmod_Electrostatic_Energy-OPLS-2005>
-289.672821044922

> <r_mmod_Solvation_Energy-OPLS-2005>
-231.226531982422

> <b_mmod_Minimization_Converged-OPLS-2005>
0

> <r_mmod_RMS_Derivative-OPLS-2005>
4.82882213592529

$$$$
81
                    3D
 Structure written by MMmdl.
168177  0  0  1  0            999 V2000
  -30.6432  -14.6654   20.5025 C   0  0  0  0  0  0
  -30.4374  -12.4132   19.4521 C   0  0  0  0  0  0
  -29.5095  -12.5241   18.2233 C   0  0  0  0  0  0
  -28.0321  -12.3562   18.6318 C   0  0  0  0  0  0
  -27.6463  -13.2249   19.8600 C   0  0  2  0  0  0
  -28.6986  -13.1006   20.9876 C   0  0  0  0  0  0
  -25.2326  -13.7980   20.5614 C   0  0  0  0  0  0
  -24.1710  -13.0245   20.9242 C   0  0  0  0  0  0
  -24.6390  -11.6781   20.8786 C   0  0  0  0  0  0
  -23.9086  -10.4187   21.0413 C   0  0  0  0  0  0
  -24.3620   -9.4116   21.9191 C   0  0  0  0  0  0
  -23.6279   -8.2172   22.0765 C   0  0  0  0  0  0
  -22.4259   -8.0239   21.3557 C   0  0  0  0  0  0
  -21.9899   -9.0208   20.4651 C   0  0  0  0  0  0
  -22.7257  -10.2069   20.3057 C   0  0  0  0  0  0
  -21.6837   -6.0716   22.5275 C   0  0  0  0  0  0
  -21.3993   -6.5616   23.8210 C   0  0  0  0  0  0
  -21.3649   -5.6773   24.9172 C   0  0  0  0  0  0
  -21.6048   -4.3039   24.7226 C   0  0  0  0  0  0
  -21.8823   -3.8139   23.4343 C   0  0  0  0  0  0
  -21.9183   -4.6949   22.3397 C   0  0  0  0  0  0
  -22.7745  -13.5065   21.1880 C   0  0  0  0  0  0
  -22.1658   -4.2146   21.0972 F   0  0  0  0  0  0
  -21.5635   -3.4522   25.7737 F   0  0  0  0  0  0
  -30.0155  -13.4458   20.4230 N   0  0  0  0  0  0
  -26.2915  -12.9314   20.3299 N   0  0  0  0  0  0
  -25.9333  -11.6459   20.5787 N   0  0  0  0  0  0
  -22.0383  -12.8115   22.0469 N   0  0  0  0  0  0
  -25.3506  -15.1635   20.3799 N   0  0  0  0  0  0
  -31.8045  -14.8092   20.1145 O   0  0  0  0  0  0
  -21.6612   -6.8852   21.4243 O   0  0  0  0  0  0
  -22.3452  -14.5390   20.6718 O   0  0  0  0  0  0
  -24.6296  -31.8607   23.1994 C   0  0  0  0  0  0
  -25.9132  -32.4799   23.8349 C   0  0  1  0  0  0
  -27.2447  -27.3092   20.1230 C   0  0  0  0  0  0
  -25.5943  -33.8592   24.2315 N   0  0  0  0  0  0
  -23.4257  -30.4801   21.5427 C   0  0  2  0  0  0
  -24.8788  -28.9340   20.1120 C   0  0  0  0  0  0
  -22.7505  -29.4609   22.4923 C   0  0  0  0  0  0
  -18.0292  -28.1407   22.8478 C   0  0  0  0  0  0
  -24.1479  -36.7269   23.2633 C   0  0  0  0  0  0
  -25.9688  -30.7883   21.3728 C   0  0  0  0  0  0
  -26.0466  -29.4114   20.7194 C   0  0  0  0  0  0
  -27.2306  -28.6115   20.7149 C   0  0  0  0  0  0
  -26.0490  -26.8888   19.4926 C   0  0  0  0  0  0
  -24.8833  -27.6777   19.4885 C   0  0  0  0  0  0
  -23.6443  -29.8122   20.1592 C   0  0  0  0  0  0
  -25.4106  -36.3088   24.0338 C   0  0  1  0  0  0
  -20.5898  -28.3709   23.1278 C   0  0  2  0  0  0
  -20.6791  -26.9424   22.5416 C   0  0  0  0  0  0
  -19.5764  -26.6395   21.5217 C   0  0  0  0  0  0
  -18.1935  -26.7953   22.1613 C   0  0  0  0  0  0
  -19.1549  -28.8871   23.2871 C   0  0  0  0  0  0
  -18.9465  -30.1456   23.8918 C   0  0  0  0  0  0
  -17.6465  -30.6594   24.0564 C   0  0  0  0  0  0
  -25.9046  -34.9465   23.5129 C   0  0  0  0  0  0
  -16.5365  -29.9088   23.6320 C   0  0  0  0  0  0
  -16.7276  -28.6504   23.0354 C   0  0  0  0  0  0
  -26.4499  -31.6599   25.0711 C   0  0  0  0  0  0
  -25.3729  -31.3767   26.1437 C   0  0  0  0  0  0
  -27.0295  -30.3014   24.6133 C   0  0  0  0  0  0
  -27.6101  -32.4287   25.7460 C   0  0  0  0  0  0
  -27.5579  -37.1779   24.8452 C   0  0  0  0  0  0
  -21.4216  -29.3043   22.3669 N   0  0  0  0  0  0
  -26.4284  -37.3788   23.9418 N   0  0  0  0  0  0
  -24.6933  -31.0598   22.0956 N   0  0  0  0  0  0
  -23.4210  -28.8144   23.3012 O   0  0  0  0  0  0
  -28.3685  -26.4577   20.1686 O   0  0  0  0  0  0
  -26.5581  -34.8937   22.4672 O   0  0  0  0  0  0
  -23.5448  -32.1407   23.7293 O   0  0  0  0  0  0
  -28.9018  -19.4015   20.3437 C   0  0  0  0  0  0
  -28.8373  -17.9850   20.4061 C   0  0  0  0  0  0
  -29.9801  -17.1926   20.7130 C   0  0  0  0  0  0
  -30.1048  -20.0815   20.5942 C   0  0  0  0  0  0
  -31.1541  -17.9528   20.9675 C   0  0  0  0  0  0
  -30.5949  -24.4166   20.1489 C   0  0  0  0  0  0
  -29.3319  -23.9927   20.3483 C   0  0  0  0  0  0
  -31.7478  -23.5059   20.2443 C   0  0  0  0  0  0
  -31.5459  -22.0749   20.7627 C   0  0  0  0  0  0
  -29.0401  -22.4715   20.6736 C   0  0  2  0  0  0
  -28.4487  -22.3447   22.0917 C   0  0  0  0  0  0
  -27.3355  -17.0785   18.6125 C   0  0  0  0  0  0
  -33.4272  -18.0546   21.7587 C   0  0  0  0  0  0
  -27.5003  -17.3542   20.1135 C   0  0  0  0  0  0
  -28.1259  -24.9881   20.1568 C   0  0  0  0  0  0
  -31.2030  -19.3287   20.8973 N   0  0  0  0  0  0
  -30.2042  -21.5237   20.5340 N   0  0  0  0  0  0
  -29.8494  -15.7271   20.8526 N   0  0  0  0  0  0
  -32.8851  -23.8645   19.9255 O   0  0  0  0  0  0
  -32.2899  -17.2902   21.3792 O   0  0  0  0  0  0
  -31.4784  -12.5336   19.1492 H   0  0  0  0  0  0
  -30.3689  -11.4217   19.9010 H   0  0  0  0  0  0
  -29.7781  -11.7774   17.4736 H   0  0  0  0  0  0
  -29.6487  -13.4961   17.7455 H   0  0  0  0  0  0
  -27.8692  -11.3029   18.8588 H   0  0  0  0  0  0
  -27.3834  -12.5893   17.7872 H   0  0  0  0  0  0
  -27.6492  -14.2573   19.5137 H   0  0  0  0  0  0
  -28.7167  -12.0837   21.3800 H   0  0  0  0  0  0
  -28.4423  -13.7409   21.8326 H   0  0  0  0  0  0
  -25.2769   -9.5578   22.4766 H   0  0  0  0  0  0
  -23.9990   -7.4552   22.7478 H   0  0  0  0  0  0
  -21.0838   -8.8722   19.8947 H   0  0  0  0  0  0
  -22.3734  -10.9603   19.6161 H   0  0  0  0  0  0
  -21.1966   -7.6118   23.9705 H   0  0  0  0  0  0
  -21.1474   -6.0503   25.9077 H   0  0  0  0  0  0
  -22.0614   -2.7602   23.2845 H   0  0  0  0  0  0
  -22.3961  -11.9775   22.4872 H   0  0  0  0  0  0
  -21.1016  -13.1178   22.2654 H   0  0  0  0  0  0
  -24.5297  -15.7571   20.4301 H   0  0  0  0  0  0
  -26.1165  -15.5890   19.8781 H   0  0  0  0  0  0
  -26.7200  -32.5488   23.1106 H   0  0  0  0  0  0
  -25.0170  -33.9735   25.0507 H   0  0  0  0  0  0
  -22.7199  -31.3005   21.3954 H   0  0  0  0  0  0
  -23.3788  -35.9548   23.3273 H   0  0  0  0  0  0
  -24.3583  -36.8906   22.2051 H   0  0  0  0  0  0
  -23.7178  -37.6446   23.6655 H   0  0  0  0  0  0
  -26.0946  -31.5463   20.5986 H   0  0  0  0  0  0
  -26.8516  -30.8496   21.9967 H   0  0  0  0  0  0
  -28.1259  -28.9733   21.2018 H   0  0  0  0  0  0
  -25.9819  -25.9340   18.9967 H   0  0  0  0  0  0
  -23.9928  -27.3058   19.0008 H   0  0  0  0  0  0
  -23.7642  -30.5878   19.4017 H   0  0  0  0  0  0
  -22.7679  -29.2380   19.8531 H   0  0  0  0  0  0
  -25.1284  -36.1952   25.0830 H   0  0  0  0  0  0
  -20.9987  -28.3312   24.1399 H   0  0  0  0  0  0
  -20.5700  -26.2319   23.3624 H   0  0  0  0  0  0
  -21.6664  -26.7461   22.1212 H   0  0  0  0  0  0
  -19.6926  -25.6303   21.1244 H   0  0  0  0  0  0
  -19.6714  -27.3211   20.6750 H   0  0  0  0  0  0
  -17.4215  -26.6709   21.4003 H   0  0  0  0  0  0
  -18.0311  -26.0105   22.9014 H   0  0  0  0  0  0
  -19.7938  -30.7248   24.2337 H   0  0  0  0  0  0
  -17.5016  -31.6283   24.5165 H   0  0  0  0  0  0
  -15.5358  -30.2990   23.7630 H   0  0  0  0  0  0
  -15.8674  -28.0793   22.7102 H   0  0  0  0  0  0
  -24.5886  -30.7131   25.7774 H   0  0  0  0  0  0
  -24.8931  -32.2949   26.4842 H   0  0  0  0  0  0
  -25.8039  -30.8954   27.0224 H   0  0  0  0  0  0
  -26.2829  -29.6801   24.1172 H   0  0  0  0  0  0
  -27.4023  -29.7238   25.4603 H   0  0  0  0  0  0
  -27.8706  -30.4303   23.9316 H   0  0  0  0  0  0
  -27.2794  -33.3642   26.1991 H   0  0  0  0  0  0
  -28.3936  -32.6748   25.0277 H   0  0  0  0  0  0
  -28.0731  -31.8416   26.5406 H   0  0  0  0  0  0
  -28.2584  -38.0088   24.7548 H   0  0  0  0  0  0
  -28.1092  -36.2632   24.6223 H   0  0  0  0  0  0
  -27.2301  -37.1375   25.8853 H   0  0  0  0  0  0
  -20.9409  -29.8770   21.6871 H   0  0  0  0  0  0
  -26.0180  -38.2853   24.1483 H   0  0  0  0  0  0
  -28.0052  -19.9510   20.0946 H   0  0  0  0  0  0
  -30.7928  -25.4444   19.8835 H   0  0  0  0  0  0
  -31.7790  -22.0486   21.8268 H   0  0  0  0  0  0
  -32.2859  -21.4529   20.2574 H   0  0  0  0  0  0
  -28.2853  -22.1582   19.9513 H   0  0  0  0  0  0
  -29.1501  -22.6969   22.8488 H   0  0  0  0  0  0
  -28.2045  -21.3104   22.3361 H   0  0  0  0  0  0
  -27.5261  -22.9145   22.2061 H   0  0  0  0  0  0
  -26.3524  -16.6742   18.3737 H   0  0  0  0  0  0
  -28.0868  -16.3748   18.2555 H   0  0  0  0  0  0
  -27.4475  -18.0003   18.0410 H   0  0  0  0  0  0
  -34.2131  -17.3794   22.0979 H   0  0  0  0  0  0
  -33.1934  -18.7310   22.5819 H   0  0  0  0  0  0
  -33.8231  -18.6282   20.9203 H   0  0  0  0  0  0
  -26.6989  -18.0076   20.4610 H   0  0  0  0  0  0
  -27.4207  -16.4546   20.7160 H   0  0  0  0  0  0
  -27.3857  -24.7750   20.9264 H   0  0  0  0  0  0
  -27.6849  -24.6995   19.2034 H   0  0  0  0  0  0
  -28.9162  -15.4200   21.0763 H   0  0  0  0  0  0
  1 25  1  0  0  0
  1 30  2  0  0  0
  1 88  1  0  0  0
  2  3  1  0  0  0
  2 25  1  0  0  0
  2 91  1  0  0  0
  2 92  1  0  0  0
  3  4  1  0  0  0
  3 93  1  0  0  0
  3 94  1  0  0  0
  4  5  1  0  0  0
  4 95  1  0  0  0
  4 96  1  0  0  0
  5  6  1  0  0  0
  5 26  1  0  0  0
  5 97  1  0  0  0
  6 25  1  0  0  0
  6 98  1  0  0  0
  6 99  1  0  0  0
  7  8  2  0  0  0
  7 26  1  0  0  0
  7 29  1  0  0  0
  8  9  1  0  0  0
  8 22  1  0  0  0
  9 10  1  0  0  0
  9 27  2  0  0  0
 10 11  2  0  0  0
 10 15  1  0  0  0
 11 12  1  0  0  0
 11100  1  0  0  0
 12 13  2  0  0  0
 12101  1  0  0  0
 13 14  1  0  0  0
 13 31  1  0  0  0
 14 15  2  0  0  0
 14102  1  0  0  0
 15103  1  0  0  0
 16 17  2  0  0  0
 16 21  1  0  0  0
 16 31  1  0  0  0
 17 18  1  0  0  0
 17104  1  0  0  0
 18 19  2  0  0  0
 18105  1  0  0  0
 19 20  1  0  0  0
 19 24  1  0  0  0
 20 21  2  0  0  0
 20106  1  0  0  0
 21 23  1  0  0  0
 22 28  1  0  0  0
 22 32  2  0  0  0
 26 27  1  0  0  0
 28107  1  0  0  0
 28108  1  0  0  0
 29109  1  0  0  0
 29110  1  0  0  0
 33 34  1  0  0  0
 33 66  1  0  0  0
 33 70  2  0  0  0
 34 36  1  0  0  0
 34 59  1  0  0  0
 34111  1  0  0  0
 35 44  2  0  0  0
 35 45  1  0  0  0
 35 68  1  0  0  0
 36 56  1  0  0  0
 36112  1  0  0  0
 37 39  1  0  0  0
 37 47  1  0  0  0
 37 66  1  0  0  0
 37113  1  0  0  0
 38 43  2  0  0  0
 38 46  1  0  0  0
 38 47  1  0  0  0
 39 64  1  0  0  0
 39 67  2  0  0  0
 40 52  1  0  0  0
 40 53  2  0  0  0
 40 58  1  0  0  0
 41114  1  0  0  0
 41115  1  0  0  0
 41116  1  0  0  0
 41 48  1  0  0  0
 42 43  1  0  0  0
 42 66  1  0  0  0
 42117  1  0  0  0
 42118  1  0  0  0
 43 44  1  0  0  0
 44119  1  0  0  0
 45 46  2  0  0  0
 45120  1  0  0  0
 46121  1  0  0  0
 47122  1  0  0  0
 47123  1  0  0  0
 48 56  1  0  0  0
 48 65  1  0  0  0
 48124  1  0  0  0
 49 50  1  0  0  0
 49 53  1  0  0  0
 49 64  1  0  0  0
 49125  1  0  0  0
 50 51  1  0  0  0
 50126  1  0  0  0
 50127  1  0  0  0
 51 52  1  0  0  0
 51128  1  0  0  0
 51129  1  0  0  0
 52130  1  0  0  0
 52131  1  0  0  0
 53 54  1  0  0  0
 54 55  2  0  0  0
 54132  1  0  0  0
 55 57  1  0  0  0
 55133  1  0  0  0
 56 69  2  0  0  0
 57 58  2  0  0  0
 57134  1  0  0  0
 58135  1  0  0  0
 59 60  1  0  0  0
 59 61  1  0  0  0
 59 62  1  0  0  0
 60136  1  0  0  0
 60137  1  0  0  0
 60138  1  0  0  0
 61139  1  0  0  0
 61140  1  0  0  0
 61141  1  0  0  0
 62142  1  0  0  0
 62143  1  0  0  0
 62144  1  0  0  0
 63 65  1  0  0  0
 63145  1  0  0  0
 63146  1  0  0  0
 63147  1  0  0  0
 64148  1  0  0  0
 65149  1  0  0  0
 68 85  1  0  0  0
 71 72  2  0  0  0
 71 74  1  0  0  0
 71150  1  0  0  0
 72 73  1  0  0  0
 72 84  1  0  0  0
 73 75  2  0  0  0
 73 88  1  0  0  0
 74 86  2  0  0  0
 74 87  1  0  0  0
 75 86  1  0  0  0
 75 90  1  0  0  0
 76 77  2  0  0  0
 76 78  1  0  0  0
 76151  1  0  0  0
 77 80  1  0  0  0
 77 85  1  0  0  0
 78 79  1  0  0  0
 78 89  2  0  0  0
 79 87  1  0  0  0
 79152  1  0  0  0
 79153  1  0  0  0
 80 81  1  0  0  0
 80 87  1  0  0  0
 80154  1  0  0  0
 81155  1  0  0  0
 81156  1  0  0  0
 81157  1  0  0  0
 82 84  1  0  0  0
 82158  1  0  0  0
 82159  1  0  0  0
 82160  1  0  0  0
 83 90  1  0  0  0
 83161  1  0  0  0
 83162  1  0  0  0
 83163  1  0  0  0
 84164  1  0  0  0
 84165  1  0  0  0
 85166  1  0  0  0
 85167  1  0  0  0
 88168  1  0  0  0
M  ISO  4   1 100  68 101  85 101  88 100
M  END
> <chiral flag>
0

> <version>
0

> <s_m_source_file>
/data/baiqing/PycharmProjects/Reinvent-master-3.2/result/LINK_invent/BTK/process_docking_weight1_custom_product_contain_oxygen_bond_distance_aromatic_linkinvent_7_9_3/rearranged_h_0115.sdf

> <i_m_source_file_index>
82

> <r_mmod_Potential_Energy-OPLS-2005>
-231.252731323242

> <r_mmod_Stretch_Energy-OPLS-2005>
93.1216888427734

> <r_mmod_Bend_Energy-OPLS-2005>
160.392227172852

> <r_mmod_Torsional_Energy-OPLS-2005>
202.725997924805

> <r_mmod_Improper_Torsional_Energy-OPLS-2005>
7.34602689743042

> <r_mmod_Van_der_Waal_Energy-OPLS-2005>
168.487335205078

> <r_mmod_Electrostatic_Energy-OPLS-2005>
-674.732299804688

> <r_mmod_Solvation_Energy-OPLS-2005>
-243.817810058594

> <b_mmod_Minimization_Converged-OPLS-2005>
0

> <r_mmod_RMS_Derivative-OPLS-2005>
2.76152491569519

$$$$
82
                    3D
 Structure written by MMmdl.
155163  0  0  1  0            999 V2000
  -30.6849  -14.4239   20.6348 C   0  0  0  0  0  0
  -30.4343  -12.2999   19.4039 C   0  0  0  0  0  0
  -29.4983  -12.5208   18.1969 C   0  0  0  0  0  0
  -28.0199  -12.3719   18.6091 C   0  0  0  0  0  0
  -27.6694  -13.1907   19.8800 C   0  0  2  0  0  0
  -28.7036  -12.9125   20.9903 C   0  0  0  0  0  0
  -25.2640  -13.8126   20.5643 C   0  0  0  0  0  0
  -24.1869  -13.0442   20.9129 C   0  0  0  0  0  0
  -24.6402  -11.6888   20.8720 C   0  0  0  0  0  0
  -23.9066  -10.4289   21.0420 C   0  0  0  0  0  0
  -24.3624   -9.4204   21.9197 C   0  0  0  0  0  0
  -23.6287   -8.2248   22.0769 C   0  0  0  0  0  0
  -22.4273   -8.0295   21.3552 C   0  0  0  0  0  0
  -21.9912   -9.0269   20.4656 C   0  0  0  0  0  0
  -22.7255  -10.2135   20.3060 C   0  0  0  0  0  0
  -21.6848   -6.0744   22.5281 C   0  0  0  0  0  0
  -21.4017   -6.5641   23.8219 C   0  0  0  0  0  0
  -21.3655   -5.6788   24.9175 C   0  0  0  0  0  0
  -21.6040   -4.3053   24.7226 C   0  0  0  0  0  0
  -21.8813   -3.8151   23.4348 C   0  0  0  0  0  0
  -21.9197   -4.6969   22.3407 C   0  0  0  0  0  0
  -22.7898  -13.5256   21.1783 C   0  0  0  0  0  0
  -22.1659   -4.2154   21.0986 F   0  0  0  0  0  0
  -21.5628   -3.4538   25.7739 F   0  0  0  0  0  0
  -30.0467  -13.2358   20.4685 N   0  0  0  0  0  0
  -26.3064  -12.9263   20.3344 N   0  0  0  0  0  0
  -25.9328  -11.6442   20.5752 N   0  0  0  0  0  0
  -22.0517  -12.8282   22.0341 N   0  0  0  0  0  0
  -25.4370  -15.1867   20.4112 N   0  0  0  0  0  0
  -31.7414  -14.7166   20.0624 O   0  0  0  0  0  0
  -21.6636   -6.8897   21.4248 O   0  0  0  0  0  0
  -22.3608  -14.5577   20.6634 O   0  0  0  0  0  0
  -24.6150  -31.8669   23.2106 C   0  0  0  0  0  0
  -25.9053  -32.4820   23.8383 C   0  0  1  0  0  0
  -27.2375  -27.4540   20.0784 C   0  0  0  0  0  0
  -25.5924  -33.8620   24.2342 N   0  0  0  0  0  0
  -23.3994  -30.4934   21.5492 C   0  0  2  0  0  0
  -24.8427  -28.9610   20.1139 C   0  0  0  0  0  0
  -22.7381  -29.4666   22.4971 C   0  0  0  0  0  0
  -18.0305  -28.1348   22.8444 C   0  0  0  0  0  0
  -24.1495  -36.7332   23.2642 C   0  0  0  0  0  0
  -25.9255  -30.8394   21.3571 C   0  0  0  0  0  0
  -26.0004  -29.4732   20.7090 C   0  0  0  0  0  0
  -27.1976  -28.7276   20.6860 C   0  0  0  0  0  0
  -26.0501  -26.9408   19.5004 C   0  0  0  0  0  0
  -24.8602  -27.6935   19.5111 C   0  0  0  0  0  0
  -23.6070  -29.8296   20.1629 C   0  0  0  0  0  0
  -25.4108  -36.3106   24.0340 C   0  0  1  0  0  0
  -20.5866  -28.3625   23.1337 C   0  0  2  0  0  0
  -20.6789  -26.9332   22.5481 C   0  0  0  0  0  0
  -19.5814  -26.6361   21.5184 C   0  0  0  0  0  0
  -18.1927  -26.7933   22.1470 C   0  0  0  0  0  0
  -19.1529  -28.8804   23.2913 C   0  0  0  0  0  0
  -18.9450  -30.1390   23.8997 C   0  0  0  0  0  0
  -17.6439  -30.6518   24.0623 C   0  0  0  0  0  0
  -25.9021  -34.9468   23.5132 C   0  0  0  0  0  0
  -16.5347  -29.9031   23.6319 C   0  0  0  0  0  0
  -16.7314  -28.6463   23.0321 C   0  0  0  0  0  0
  -26.4481  -31.6594   25.0698 C   0  0  0  0  0  0
  -25.3756  -31.3685   26.1452 C   0  0  0  0  0  0
  -27.0340  -30.3053   24.6051 C   0  0  0  0  0  0
  -27.6048  -32.4319   25.7455 C   0  0  0  0  0  0
  -27.5579  -37.1815   24.8462 C   0  0  0  0  0  0
  -21.4111  -29.3024   22.3750 N   0  0  0  0  0  0
  -26.4297  -37.3776   23.9407 N   0  0  0  0  0  0
  -24.6653  -31.0792   22.0996 N   0  0  0  0  0  0
  -23.4171  -28.8189   23.2975 O   0  0  0  0  0  0
  -28.4533  -26.8013   20.0476 O   0  0  0  0  0  0
  -26.5571  -34.8926   22.4693 O   0  0  0  0  0  0
  -23.5344  -32.1415   23.7508 O   0  0  0  0  0  0
  -29.0632  -18.6282   20.4054 C   0  0  0  0  0  0
  -29.4431  -17.2811   20.1375 C   0  0  0  0  0  0
  -29.0534  -18.9571   21.7322 C   0  0  0  0  0  0
  -29.7673  -16.5813   21.2887 C   0  0  0  0  0  0
  -27.7589  -22.2733   21.8914 C   0  0  0  0  0  0
  -28.6401  -20.2157   22.3933 C   0  0  0  0  0  0
  -29.4015  -16.7785   18.7234 C   0  0  0  0  0  0
  -27.4045  -23.3852   20.9264 C   0  0  0  0  0  0
  -28.3365  -24.6000   21.0697 C   0  0  0  0  0  0
  -28.5122  -25.4048   19.7694 C   0  0  0  0  0  0
  -28.2930  -21.1958   21.4759 N   0  0  0  0  0  0
  -30.0588  -15.2657   21.4729 N   0  0  0  0  0  0
  -28.6268  -20.2949   23.6250 O   0  0  0  0  0  0
  -29.5756  -17.6056   22.7004 S   0  0  0  0  0  0
  -31.4764  -12.4277   19.1037 H   0  0  0  0  0  0
  -30.3550  -11.2744   19.7672 H   0  0  0  0  0  0
  -29.7412  -11.8123   17.4030 H   0  0  0  0  0  0
  -29.6640  -13.5143   17.7793 H   0  0  0  0  0  0
  -27.8292  -11.3130   18.7907 H   0  0  0  0  0  0
  -27.3684  -12.6574   17.7811 H   0  0  0  0  0  0
  -27.7318  -14.2456   19.6170 H   0  0  0  0  0  0
  -28.6718  -11.8585   21.2660 H   0  0  0  0  0  0
  -28.4393  -13.4460   21.9040 H   0  0  0  0  0  0
  -25.2779   -9.5674   22.4768 H   0  0  0  0  0  0
  -23.9988   -7.4640   22.7500 H   0  0  0  0  0  0
  -21.0833   -8.8815   19.8969 H   0  0  0  0  0  0
  -22.3742  -10.9682   19.6165 H   0  0  0  0  0  0
  -21.2006   -7.6151   23.9722 H   0  0  0  0  0  0
  -21.1478   -6.0521   25.9075 H   0  0  0  0  0  0
  -22.0599   -2.7616   23.2850 H   0  0  0  0  0  0
  -22.4083  -11.9934   22.4759 H   0  0  0  0  0  0
  -21.1146  -13.1345   22.2512 H   0  0  0  0  0  0
  -24.6722  -15.8416   20.5338 H   0  0  0  0  0  0
  -26.3067  -15.6341   20.1500 H   0  0  0  0  0  0
  -26.7137  -32.5545   23.1153 H   0  0  0  0  0  0
  -25.0083  -33.9773   25.0495 H   0  0  0  0  0  0
  -22.6940  -31.3139   21.4066 H   0  0  0  0  0  0
  -23.3720  -35.9697   23.3305 H   0  0  0  0  0  0
  -24.3600  -36.8945   22.2060 H   0  0  0  0  0  0
  -23.7296  -37.6565   23.6643 H   0  0  0  0  0  0
  -26.0250  -31.6021   20.5851 H   0  0  0  0  0  0
  -26.8219  -30.9031   21.9607 H   0  0  0  0  0  0
  -28.0974  -29.1285   21.1312 H   0  0  0  0  0  0
  -26.0129  -25.9813   19.0111 H   0  0  0  0  0  0
  -23.9697  -27.2969   19.0429 H   0  0  0  0  0  0
  -23.7173  -30.6085   19.4083 H   0  0  0  0  0  0
  -22.7310  -29.2519   19.8662 H   0  0  0  0  0  0
  -25.1274  -36.1943   25.0822 H   0  0  0  0  0  0
  -20.9935  -28.3269   24.1464 H   0  0  0  0  0  0
  -20.5526  -26.2203   23.3662 H   0  0  0  0  0  0
  -21.6734  -26.7340   22.1385 H   0  0  0  0  0  0
  -19.6995  -25.6274   21.1185 H   0  0  0  0  0  0
  -19.6849  -27.3215   20.6742 H   0  0  0  0  0  0
  -17.4335  -26.6926   21.3721 H   0  0  0  0  0  0
  -18.0043  -25.9930   22.8660 H   0  0  0  0  0  0
  -19.7899  -30.7204   24.2474 H   0  0  0  0  0  0
  -17.4951  -31.6184   24.5224 H   0  0  0  0  0  0
  -15.5329  -30.2938   23.7560 H   0  0  0  0  0  0
  -15.8761  -28.0741   22.7005 H   0  0  0  0  0  0
  -24.5941  -30.7012   25.7791 H   0  0  0  0  0  0
  -24.8919  -32.2841   26.4864 H   0  0  0  0  0  0
  -25.8126  -30.8880   27.0220 H   0  0  0  0  0  0
  -26.2892  -29.6771   24.1145 H   0  0  0  0  0  0
  -27.4217  -29.7294   25.4471 H   0  0  0  0  0  0
  -27.8663  -30.4410   23.9137 H   0  0  0  0  0  0
  -27.2651  -33.3585   26.2083 H   0  0  0  0  0  0
  -28.3813  -32.6951   25.0263 H   0  0  0  0  0  0
  -28.0768  -31.8421   26.5320 H   0  0  0  0  0  0
  -28.2569  -38.0121   24.7482 H   0  0  0  0  0  0
  -28.1089  -36.2662   24.6278 H   0  0  0  0  0  0
  -27.2315  -37.1461   25.8864 H   0  0  0  0  0  0
  -20.9192  -29.8819   21.7091 H   0  0  0  0  0  0
  -26.0174  -38.2848   24.1389 H   0  0  0  0  0  0
  -28.7702  -19.3040   19.6163 H   0  0  0  0  0  0
  -27.5218  -22.4830   22.9398 H   0  0  0  0  0  0
  -28.5486  -17.2044   18.1914 H   0  0  0  0  0  0
  -29.2898  -15.7007   18.6580 H   0  0  0  0  0  0
  -30.2972  -17.0676   18.1712 H   0  0  0  0  0  0
  -26.3720  -23.6913   21.1015 H   0  0  0  0  0  0
  -27.4449  -22.9923   19.9096 H   0  0  0  0  0  0
  -29.3292  -24.2888   21.3991 H   0  0  0  0  0  0
  -27.9548  -25.2345   21.8703 H   0  0  0  0  0  0
  -27.8400  -25.0859   18.9756 H   0  0  0  0  0  0
  -29.5085  -25.1912   19.3718 H   0  0  0  0  0  0
  -29.4349  -14.8043   22.1188 H   0  0  0  0  0  0
  1 25  1  0  0  0
  1 30  2  0  0  0
  1 82  1  0  0  0
  2  3  1  0  0  0
  2 25  1  0  0  0
  2 85  1  0  0  0
  2 86  1  0  0  0
  3  4  1  0  0  0
  3 87  1  0  0  0
  3 88  1  0  0  0
  4  5  1  0  0  0
  4 89  1  0  0  0
  4 90  1  0  0  0
  5  6  1  0  0  0
  5 26  1  0  0  0
  5 91  1  0  0  0
  6 25  1  0  0  0
  6 92  1  0  0  0
  6 93  1  0  0  0
  7  8  2  0  0  0
  7 26  1  0  0  0
  7 29  1  0  0  0
  8  9  1  0  0  0
  8 22  1  0  0  0
  9 10  1  0  0  0
  9 27  2  0  0  0
 10 11  2  0  0  0
 10 15  1  0  0  0
 11 12  1  0  0  0
 11 94  1  0  0  0
 12 13  2  0  0  0
 12 95  1  0  0  0
 13 14  1  0  0  0
 13 31  1  0  0  0
 14 15  2  0  0  0
 14 96  1  0  0  0
 15 97  1  0  0  0
 16 17  2  0  0  0
 16 21  1  0  0  0
 16 31  1  0  0  0
 17 18  1  0  0  0
 17 98  1  0  0  0
 18 19  2  0  0  0
 18 99  1  0  0  0
 19 20  1  0  0  0
 19 24  1  0  0  0
 20 21  2  0  0  0
 20100  1  0  0  0
 21 23  1  0  0  0
 22 28  1  0  0  0
 22 32  2  0  0  0
 26 27  1  0  0  0
 28101  1  0  0  0
 28102  1  0  0  0
 29103  1  0  0  0
 29104  1  0  0  0
 33 34  1  0  0  0
 33 66  1  0  0  0
 33 70  2  0  0  0
 34 36  1  0  0  0
 34 59  1  0  0  0
 34105  1  0  0  0
 35 44  2  0  0  0
 35 45  1  0  0  0
 35 68  1  0  0  0
 36 56  1  0  0  0
 36106  1  0  0  0
 37 39  1  0  0  0
 37 47  1  0  0  0
 37 66  1  0  0  0
 37107  1  0  0  0
 38 43  2  0  0  0
 38 46  1  0  0  0
 38 47  1  0  0  0
 39 64  1  0  0  0
 39 67  2  0  0  0
 40 52  1  0  0  0
 40 53  2  0  0  0
 40 58  1  0  0  0
 41108  1  0  0  0
 41109  1  0  0  0
 41110  1  0  0  0
 41 48  1  0  0  0
 42 43  1  0  0  0
 42 66  1  0  0  0
 42111  1  0  0  0
 42112  1  0  0  0
 43 44  1  0  0  0
 44113  1  0  0  0
 45 46  2  0  0  0
 45114  1  0  0  0
 46115  1  0  0  0
 47116  1  0  0  0
 47117  1  0  0  0
 48 56  1  0  0  0
 48 65  1  0  0  0
 48118  1  0  0  0
 49 50  1  0  0  0
 49 53  1  0  0  0
 49 64  1  0  0  0
 49119  1  0  0  0
 50 51  1  0  0  0
 50120  1  0  0  0
 50121  1  0  0  0
 51 52  1  0  0  0
 51122  1  0  0  0
 51123  1  0  0  0
 52124  1  0  0  0
 52125  1  0  0  0
 53 54  1  0  0  0
 54 55  2  0  0  0
 54126  1  0  0  0
 55 57  1  0  0  0
 55127  1  0  0  0
 56 69  2  0  0  0
 57 58  2  0  0  0
 57128  1  0  0  0
 58129  1  0  0  0
 59 60  1  0  0  0
 59 61  1  0  0  0
 59 62  1  0  0  0
 60130  1  0  0  0
 60131  1  0  0  0
 60132  1  0  0  0
 61133  1  0  0  0
 61134  1  0  0  0
 61135  1  0  0  0
 62136  1  0  0  0
 62137  1  0  0  0
 62138  1  0  0  0
 63 65  1  0  0  0
 63139  1  0  0  0
 63140  1  0  0  0
 63141  1  0  0  0
 64142  1  0  0  0
 65143  1  0  0  0
 68 80  1  0  0  0
 71 72  1  0  0  0
 71 73  2  0  0  0
 71144  1  0  0  0
 72 74  2  0  0  0
 72 77  1  0  0  0
 73 76  1  0  0  0
 73 84  1  0  0  0
 74 82  1  0  0  0
 74 84  1  0  0  0
 75 78  1  0  0  0
 75 81  2  0  0  0
 75145  1  0  0  0
 76 81  1  0  0  0
 76 83  2  0  0  0
 77146  1  0  0  0
 77147  1  0  0  0
 77148  1  0  0  0
 78 79  1  0  0  0
 78149  1  0  0  0
 78150  1  0  0  0
 79 80  1  0  0  0
 79151  1  0  0  0
 79152  1  0  0  0
 80153  1  0  0  0
 80154  1  0  0  0
 82155  1  0  0  0
M  ISO  4   1 100  68 101  80 101  82 100
M  END
> <chiral flag>
0

> <version>
0

> <s_m_source_file>
/data/baiqing/PycharmProjects/Reinvent-master-3.2/result/LINK_invent/BTK/process_docking_weight1_custom_product_contain_oxygen_bond_distance_aromatic_linkinvent_7_9_3/rearranged_h_0115.sdf

> <i_m_source_file_index>
83

> <r_mmod_Potential_Energy-OPLS-2005>
-84.1618041992188

> <r_mmod_Stretch_Energy-OPLS-2005>
32.4817810058594

> <r_mmod_Bend_Energy-OPLS-2005>
119.873252868652

> <r_mmod_Torsional_Energy-OPLS-2005>
240.334838867188

> <r_mmod_Improper_Torsional_Energy-OPLS-2005>
4.25426959991455

> <r_mmod_Van_der_Waal_Energy-OPLS-2005>
142.148803710938

> <r_mmod_Electrostatic_Energy-OPLS-2005>
-424.717834472656

> <r_mmod_Solvation_Energy-OPLS-2005>
-208.485702514648

> <b_mmod_Minimization_Converged-OPLS-2005>
0

> <r_mmod_RMS_Derivative-OPLS-2005>
4.51275587081909

$$$$
83
                    3D
 Structure written by MMmdl.
157165  0  0  1  0            999 V2000
  -30.6315  -14.6156   20.3861 C   0  0  0  0  0  0
  -30.4447  -12.3242   19.4757 C   0  0  0  0  0  0
  -29.5181  -12.3283   18.2398 C   0  0  0  0  0  0
  -28.0232  -12.3054   18.6331 C   0  0  0  0  0  0
  -27.6543  -13.2058   19.8472 C   0  0  2  0  0  0
  -28.7031  -13.0873   20.9744 C   0  0  0  0  0  0
  -25.2584  -13.8158   20.5648 C   0  0  0  0  0  0
  -24.1840  -13.0435   20.9181 C   0  0  0  0  0  0
  -24.6404  -11.6907   20.8759 C   0  0  0  0  0  0
  -23.9055  -10.4294   21.0425 C   0  0  0  0  0  0
  -24.3607   -9.4201   21.9197 C   0  0  0  0  0  0
  -23.6282   -8.2237   22.0761 C   0  0  0  0  0  0
  -22.4273   -8.0279   21.3551 C   0  0  0  0  0  0
  -21.9901   -9.0259   20.4658 C   0  0  0  0  0  0
  -22.7229  -10.2144   20.3073 C   0  0  0  0  0  0
  -21.6856   -6.0736   22.5277 C   0  0  0  0  0  0
  -21.4016   -6.5626   23.8214 C   0  0  0  0  0  0
  -21.3652   -5.6777   24.9177 C   0  0  0  0  0  0
  -21.6058   -4.3043   24.7220 C   0  0  0  0  0  0
  -21.8812   -3.8142   23.4335 C   0  0  0  0  0  0
  -21.9186   -4.6962   22.3393 C   0  0  0  0  0  0
  -22.7858  -13.5244   21.1820 C   0  0  0  0  0  0
  -22.1641   -4.2141   21.0975 F   0  0  0  0  0  0
  -21.5641   -3.4525   25.7735 F   0  0  0  0  0  0
  -30.0145  -13.3962   20.3898 N   0  0  0  0  0  0
  -26.3004  -12.9314   20.3283 N   0  0  0  0  0  0
  -25.9331  -11.6489   20.5806 N   0  0  0  0  0  0
  -22.0471  -12.8278   22.0389 N   0  0  0  0  0  0
  -25.4285  -15.1876   20.4049 N   0  0  0  0  0  0
  -31.8222  -14.7412   20.0934 O   0  0  0  0  0  0
  -21.6630   -6.8884   21.4248 O   0  0  0  0  0  0
  -22.3570  -14.5544   20.6648 O   0  0  0  0  0  0
  -24.6190  -31.8633   23.2059 C   0  0  0  0  0  0
  -25.9065  -32.4800   23.8375 C   0  0  1  0  0  0
  -27.2328  -27.3857   20.0949 C   0  0  0  0  0  0
  -25.5916  -33.8603   24.2299 N   0  0  0  0  0  0
  -23.4117  -30.4855   21.5461 C   0  0  2  0  0  0
  -24.8607  -28.9504   20.1076 C   0  0  0  0  0  0
  -22.7454  -29.4617   22.4940 C   0  0  0  0  0  0
  -18.0287  -28.1376   22.8497 C   0  0  0  0  0  0
  -24.1500  -36.7305   23.2635 C   0  0  0  0  0  0
  -25.9458  -30.8135   21.3686 C   0  0  0  0  0  0
  -26.0239  -29.4456   20.7101 C   0  0  0  0  0  0
  -27.2124  -28.6690   20.7036 C   0  0  0  0  0  0
  -26.0457  -26.9135   19.4930 C   0  0  0  0  0  0
  -24.8680  -27.6860   19.4941 C   0  0  0  0  0  0
  -23.6247  -29.8214   20.1604 C   0  0  0  0  0  0
  -25.4124  -36.3091   24.0324 C   0  0  1  0  0  0
  -20.5885  -28.3669   23.1298 C   0  0  2  0  0  0
  -20.6787  -26.9402   22.5411 C   0  0  0  0  0  0
  -19.5764  -26.6374   21.5213 C   0  0  0  0  0  0
  -18.1935  -26.7927   22.1621 C   0  0  0  0  0  0
  -19.1540  -28.8840   23.2892 C   0  0  0  0  0  0
  -18.9467  -30.1442   23.8902 C   0  0  0  0  0  0
  -17.6472  -30.6587   24.0546 C   0  0  0  0  0  0
  -25.9051  -34.9459   23.5104 C   0  0  0  0  0  0
  -16.5358  -29.9082   23.6318 C   0  0  0  0  0  0
  -16.7274  -28.6495   23.0351 C   0  0  0  0  0  0
  -26.4481  -31.6589   25.0716 C   0  0  0  0  0  0
  -25.3718  -31.3713   26.1437 C   0  0  0  0  0  0
  -27.0311  -30.3028   24.6113 C   0  0  0  0  0  0
  -27.6047  -32.4310   25.7489 C   0  0  0  0  0  0
  -27.5586  -37.1805   24.8457 C   0  0  0  0  0  0
  -21.4176  -29.3022   22.3686 N   0  0  0  0  0  0
  -26.4298  -37.3784   23.9406 N   0  0  0  0  0  0
  -24.6768  -31.0700   22.0982 N   0  0  0  0  0  0
  -23.4210  -28.8148   23.2987 O   0  0  0  0  0  0
  -28.3518  -26.5660   20.1664 O   0  0  0  0  0  0
  -26.5607  -34.8914   22.4663 O   0  0  0  0  0  0
  -23.5364  -32.1394   23.7416 O   0  0  0  0  0  0
  -29.5388  -19.4227   18.3349 C   0  0  0  0  0  0
  -29.7107  -18.2195   20.4388 C   0  0  0  0  0  0
  -29.5770  -19.4653   19.7405 C   0  0  0  0  0  0
  -29.7669  -16.9868   18.3236 C   0  0  0  0  0  0
  -29.6316  -18.2174   17.6318 C   0  0  0  0  0  0
  -29.8219  -16.9605   19.7541 C   0  0  0  0  0  0
  -29.4599  -20.8175   20.3846 C   0  0  0  0  0  0
  -28.8519  -21.9054   19.8248 C   0  0  0  0  0  0
  -28.8725  -24.3701   19.1623 C   0  0  0  0  0  0
  -28.6382  -25.7124   19.1189 C   0  0  0  0  0  0
  -29.7822  -15.7036   17.5128 C   0  0  0  0  0  0
  -28.8274  -23.3663   20.3305 C   0  0  0  0  0  0
  -29.5568  -18.2819   16.2391 N   0  0  0  0  0  0
  -29.8131  -15.7031   20.5050 N   0  0  0  0  0  0
  -31.4878  -12.4248   19.1678 H   0  0  0  0  0  0
  -30.3841  -11.3618   19.9859 H   0  0  0  0  0  0
  -29.7353  -11.4457   17.6356 H   0  0  0  0  0  0
  -29.7463  -13.1518   17.5778 H   0  0  0  0  0  0
  -27.7892  -11.2656   18.8668 H   0  0  0  0  0  0
  -27.4018  -12.5585   17.7743 H   0  0  0  0  0  0
  -27.6644  -14.2335   19.4861 H   0  0  0  0  0  0
  -28.7056  -12.0798   21.3977 H   0  0  0  0  0  0
  -28.4696  -13.7595   21.8012 H   0  0  0  0  0  0
  -25.2766   -9.5668   22.4759 H   0  0  0  0  0  0
  -23.9981   -7.4644   22.7492 H   0  0  0  0  0  0
  -21.0826   -8.8792   19.8977 H   0  0  0  0  0  0
  -22.3696  -10.9681   19.6165 H   0  0  0  0  0  0
  -21.2002   -7.6145   23.9706 H   0  0  0  0  0  0
  -21.1488   -6.0516   25.9074 H   0  0  0  0  0  0
  -22.0605   -2.7597   23.2836 H   0  0  0  0  0  0
  -22.4052  -11.9923   22.4781 H   0  0  0  0  0  0
  -21.1107  -13.1375   22.2568 H   0  0  0  0  0  0
  -24.6554  -15.8353   20.5082 H   0  0  0  0  0  0
  -26.2732  -15.6343   20.0725 H   0  0  0  0  0  0
  -26.7130  -32.5504   23.1130 H   0  0  0  0  0  0
  -25.0069  -33.9766   25.0445 H   0  0  0  0  0  0
  -22.7013  -31.3018   21.4060 H   0  0  0  0  0  0
  -23.3753  -35.9648   23.3298 H   0  0  0  0  0  0
  -24.3581  -36.8924   22.2050 H   0  0  0  0  0  0
  -23.7268  -37.6515   23.6654 H   0  0  0  0  0  0
  -26.0665  -31.5828   20.6042 H   0  0  0  0  0  0
  -26.8316  -30.8638   21.9921 H   0  0  0  0  0  0
  -28.1072  -29.0374   21.1863 H   0  0  0  0  0  0
  -26.0129  -25.9294   19.0488 H   0  0  0  0  0  0
  -23.9715  -27.2966   19.0340 H   0  0  0  0  0  0
  -23.7375  -30.5976   19.4028 H   0  0  0  0  0  0
  -22.7496  -29.2432   19.8598 H   0  0  0  0  0  0
  -25.1301  -36.1939   25.0815 H   0  0  0  0  0  0
  -20.9984  -28.3240   24.1416 H   0  0  0  0  0  0
  -20.5711  -26.2272   23.3599 H   0  0  0  0  0  0
  -21.6647  -26.7452   22.1180 H   0  0  0  0  0  0
  -19.6920  -25.6278   21.1246 H   0  0  0  0  0  0
  -19.6702  -27.3178   20.6738 H   0  0  0  0  0  0
  -17.4211  -26.6682   21.4006 H   0  0  0  0  0  0
  -18.0326  -26.0059   22.9010 H   0  0  0  0  0  0
  -19.7933  -30.7253   24.2282 H   0  0  0  0  0  0
  -17.5018  -31.6271   24.5138 H   0  0  0  0  0  0
  -15.5352  -30.2990   23.7625 H   0  0  0  0  0  0
  -15.8678  -28.0805   22.7074 H   0  0  0  0  0  0
  -24.5887  -30.7084   25.7745 H   0  0  0  0  0  0
  -24.8914  -32.2879   26.4874 H   0  0  0  0  0  0
  -25.8029  -30.8863   27.0204 H   0  0  0  0  0  0
  -26.2862  -29.6802   24.1148 H   0  0  0  0  0  0
  -27.4053  -29.7255   25.4577 H   0  0  0  0  0  0
  -27.8712  -30.4344   23.9290 H   0  0  0  0  0  0
  -27.2668  -33.3604   26.2097 H   0  0  0  0  0  0
  -28.3854  -32.6890   25.0315 H   0  0  0  0  0  0
  -28.0732  -31.8418   26.5388 H   0  0  0  0  0  0
  -28.2580  -38.0124   24.7510 H   0  0  0  0  0  0
  -28.1097  -36.2642   24.6266 H   0  0  0  0  0  0
  -27.2289  -37.1437   25.8856 H   0  0  0  0  0  0
  -20.9346  -29.8740   21.6900 H   0  0  0  0  0  0
  -26.0169  -38.2855   24.1416 H   0  0  0  0  0  0
  -29.4506  -20.3384   17.7667 H   0  0  0  0  0  0
  -29.7120  -18.2275   21.5201 H   0  0  0  0  0  0
  -29.9569  -20.9278   21.3380 H   0  0  0  0  0  0
  -28.3111  -21.7634   18.8987 H   0  0  0  0  0  0
  -29.1283  -23.9187   18.2120 H   0  0  0  0  0  0
  -28.6852  -26.2558   18.1852 H   0  0  0  0  0  0
  -29.6864  -15.8310   16.4362 H   0  0  0  0  0  0
  -28.9340  -15.1005   17.8254 H   0  0  0  0  0  0
  -30.7218  -15.1725   17.6646 H   0  0  0  0  0  0
  -29.6737  -23.5357   20.9976 H   0  0  0  0  0  0
  -27.9131  -23.5384   20.9012 H   0  0  0  0  0  0
  -29.1687  -19.1144   15.8061 H   0  0  0  0  0  0
  -29.3261  -17.4356   15.7309 H   0  0  0  0  0  0
  -28.9250  -15.4895   20.9312 H   0  0  0  0  0  0
  1 25  1  0  0  0
  1 30  2  0  0  0
  1 84  1  0  0  0
  2  3  1  0  0  0
  2 25  1  0  0  0
  2 85  1  0  0  0
  2 86  1  0  0  0
  3  4  1  0  0  0
  3 87  1  0  0  0
  3 88  1  0  0  0
  4  5  1  0  0  0
  4 89  1  0  0  0
  4 90  1  0  0  0
  5  6  1  0  0  0
  5 26  1  0  0  0
  5 91  1  0  0  0
  6 25  1  0  0  0
  6 92  1  0  0  0
  6 93  1  0  0  0
  7  8  2  0  0  0
  7 26  1  0  0  0
  7 29  1  0  0  0
  8  9  1  0  0  0
  8 22  1  0  0  0
  9 10  1  0  0  0
  9 27  2  0  0  0
 10 11  2  0  0  0
 10 15  1  0  0  0
 11 12  1  0  0  0
 11 94  1  0  0  0
 12 13  2  0  0  0
 12 95  1  0  0  0
 13 14  1  0  0  0
 13 31  1  0  0  0
 14 15  2  0  0  0
 14 96  1  0  0  0
 15 97  1  0  0  0
 16 17  2  0  0  0
 16 21  1  0  0  0
 16 31  1  0  0  0
 17 18  1  0  0  0
 17 98  1  0  0  0
 18 19  2  0  0  0
 18 99  1  0  0  0
 19 20  1  0  0  0
 19 24  1  0  0  0
 20 21  2  0  0  0
 20100  1  0  0  0
 21 23  1  0  0  0
 22 28  1  0  0  0
 22 32  2  0  0  0
 26 27  1  0  0  0
 28101  1  0  0  0
 28102  1  0  0  0
 29103  1  0  0  0
 29104  1  0  0  0
 33 34  1  0  0  0
 33 66  1  0  0  0
 33 70  2  0  0  0
 34 36  1  0  0  0
 34 59  1  0  0  0
 34105  1  0  0  0
 35 44  2  0  0  0
 35 45  1  0  0  0
 35 68  1  0  0  0
 36 56  1  0  0  0
 36106  1  0  0  0
 37 39  1  0  0  0
 37 47  1  0  0  0
 37 66  1  0  0  0
 37107  1  0  0  0
 38 43  2  0  0  0
 38 46  1  0  0  0
 38 47  1  0  0  0
 39 64  1  0  0  0
 39 67  2  0  0  0
 40 52  1  0  0  0
 40 53  2  0  0  0
 40 58  1  0  0  0
 41108  1  0  0  0
 41109  1  0  0  0
 41110  1  0  0  0
 41 48  1  0  0  0
 42 43  1  0  0  0
 42 66  1  0  0  0
 42111  1  0  0  0
 42112  1  0  0  0
 43 44  1  0  0  0
 44113  1  0  0  0
 45 46  2  0  0  0
 45114  1  0  0  0
 46115  1  0  0  0
 47116  1  0  0  0
 47117  1  0  0  0
 48 56  1  0  0  0
 48 65  1  0  0  0
 48118  1  0  0  0
 49 50  1  0  0  0
 49 53  1  0  0  0
 49 64  1  0  0  0
 49119  1  0  0  0
 50 51  1  0  0  0
 50120  1  0  0  0
 50121  1  0  0  0
 51 52  1  0  0  0
 51122  1  0  0  0
 51123  1  0  0  0
 52124  1  0  0  0
 52125  1  0  0  0
 53 54  1  0  0  0
 54 55  2  0  0  0
 54126  1  0  0  0
 55 57  1  0  0  0
 55127  1  0  0  0
 56 69  2  0  0  0
 57 58  2  0  0  0
 57128  1  0  0  0
 58129  1  0  0  0
 59 60  1  0  0  0
 59 61  1  0  0  0
 59 62  1  0  0  0
 60130  1  0  0  0
 60131  1  0  0  0
 60132  1  0  0  0
 61133  1  0  0  0
 61134  1  0  0  0
 61135  1  0  0  0
 62136  1  0  0  0
 62137  1  0  0  0
 62138  1  0  0  0
 63 65  1  0  0  0
 63139  1  0  0  0
 63140  1  0  0  0
 63141  1  0  0  0
 64142  1  0  0  0
 65143  1  0  0  0
 68 80  1  0  0  0
 71 73  2  0  0  0
 71 75  1  0  0  0
 71144  1  0  0  0
 72 73  1  0  0  0
 72 76  2  0  0  0
 72145  1  0  0  0
 73 77  1  0  0  0
 74 75  2  0  0  0
 74 76  1  0  0  0
 74 81  1  0  0  0
 75 83  1  0  0  0
 76 84  1  0  0  0
 77 78  2  0  0  0
 77146  1  0  0  0
 78 82  1  0  0  0
 78147  1  0  0  0
 79 80  2  0  0  0
 79 82  1  0  0  0
 79148  1  0  0  0
 80149  1  0  0  0
 81150  1  0  0  0
 81151  1  0  0  0
 81152  1  0  0  0
 82153  1  0  0  0
 82154  1  0  0  0
 83155  1  0  0  0
 83156  1  0  0  0
 84157  1  0  0  0
M  ISO  4   1 100  68 101  80 101  84 100
M  END
> <chiral flag>
0

> <version>
0

> <s_m_source_file>
/data/baiqing/PycharmProjects/Reinvent-master-3.2/result/LINK_invent/BTK/process_docking_weight1_custom_product_contain_oxygen_bond_distance_aromatic_linkinvent_7_9_3/rearranged_h_0115.sdf

> <i_m_source_file_index>
84

> <r_mmod_Potential_Energy-OPLS-2005>
73.3558654785156

> <r_mmod_Stretch_Energy-OPLS-2005>
57.2860069274902

> <r_mmod_Bend_Energy-OPLS-2005>
119.462898254395

> <r_mmod_Torsional_Energy-OPLS-2005>
269.988800048828

> <r_mmod_Improper_Torsional_Energy-OPLS-2005>
10.8089237213135

> <r_mmod_Van_der_Waal_Energy-OPLS-2005>
156.384857177734

> <r_mmod_Electrostatic_Energy-OPLS-2005>
-371.846862792969

> <r_mmod_Solvation_Energy-OPLS-2005>
-214.104202270508

> <b_mmod_Minimization_Converged-OPLS-2005>
0

> <r_mmod_RMS_Derivative-OPLS-2005>
3.09705901145935

$$$$
84
                    3D
 Structure written by MMmdl.
153161  0  0  1  0            999 V2000
  -30.6143  -14.6569   20.4974 C   0  0  0  0  0  0
  -30.4400  -12.4015   19.4559 C   0  0  0  0  0  0
  -29.5091  -12.5082   18.2267 C   0  0  0  0  0  0
  -28.0324  -12.3429   18.6386 C   0  0  0  0  0  0
  -27.6530  -13.2167   19.8634 C   0  0  2  0  0  0
  -28.6976  -13.0766   20.9940 C   0  0  0  0  0  0
  -25.2544  -13.8145   20.5646 C   0  0  0  0  0  0
  -24.1826  -13.0421   20.9200 C   0  0  0  0  0  0
  -24.6400  -11.6896   20.8753 C   0  0  0  0  0  0
  -23.9067  -10.4285   21.0415 C   0  0  0  0  0  0
  -24.3617   -9.4200   21.9192 C   0  0  0  0  0  0
  -23.6293   -8.2236   22.0756 C   0  0  0  0  0  0
  -22.4276   -8.0277   21.3545 C   0  0  0  0  0  0
  -21.9911   -9.0252   20.4649 C   0  0  0  0  0  0
  -22.7239  -10.2131   20.3062 C   0  0  0  0  0  0
  -21.6851   -6.0736   22.5280 C   0  0  0  0  0  0
  -21.4012   -6.5640   23.8214 C   0  0  0  0  0  0
  -21.3658   -5.6793   24.9176 C   0  0  0  0  0  0
  -21.6045   -4.3056   24.7227 C   0  0  0  0  0  0
  -21.8819   -3.8147   23.4348 C   0  0  0  0  0  0
  -21.9193   -4.6964   22.3403 C   0  0  0  0  0  0
  -22.7850  -13.5222   21.1859 C   0  0  0  0  0  0
  -22.1661   -4.2150   21.0981 F   0  0  0  0  0  0
  -21.5630   -3.4538   25.7740 F   0  0  0  0  0  0
  -30.0126  -13.4250   20.4320 N   0  0  0  0  0  0
  -26.2988  -12.9340   20.3313 N   0  0  0  0  0  0
  -25.9332  -11.6497   20.5774 N   0  0  0  0  0  0
  -22.0490  -12.8220   22.0418 N   0  0  0  0  0  0
  -25.4208  -15.1845   20.3944 N   0  0  0  0  0  0
  -31.7749  -14.8180   20.1082 O   0  0  0  0  0  0
  -21.6637   -6.8876   21.4242 O   0  0  0  0  0  0
  -22.3538  -14.5529   20.6705 O   0  0  0  0  0  0
  -24.6270  -31.8594   23.2022 C   0  0  0  0  0  0
  -25.9114  -32.4778   23.8356 C   0  0  1  0  0  0
  -27.2255  -27.3149   20.1154 C   0  0  0  0  0  0
  -25.5928  -33.8579   24.2284 N   0  0  0  0  0  0
  -23.4209  -30.4836   21.5453 C   0  0  2  0  0  0
  -24.8670  -28.9387   20.1112 C   0  0  0  0  0  0
  -22.7480  -29.4624   22.4934 C   0  0  0  0  0  0
  -18.0288  -28.1383   22.8491 C   0  0  0  0  0  0
  -24.1488  -36.7290   23.2640 C   0  0  0  0  0  0
  -25.9627  -30.7899   21.3730 C   0  0  0  0  0  0
  -26.0371  -29.4171   20.7142 C   0  0  0  0  0  0
  -27.2197  -28.6181   20.7041 C   0  0  0  0  0  0
  -26.0290  -26.8905   19.4911 C   0  0  0  0  0  0
  -24.8651  -27.6810   19.4909 C   0  0  0  0  0  0
  -23.6355  -29.8193   20.1605 C   0  0  0  0  0  0
  -25.4114  -36.3082   24.0330 C   0  0  1  0  0  0
  -20.5891  -28.3683   23.1284 C   0  0  2  0  0  0
  -20.6779  -26.9407   22.5408 C   0  0  0  0  0  0
  -19.5753  -26.6384   21.5211 C   0  0  0  0  0  0
  -18.1932  -26.7929   22.1623 C   0  0  0  0  0  0
  -19.1542  -28.8851   23.2884 C   0  0  0  0  0  0
  -18.9464  -30.1454   23.8899 C   0  0  0  0  0  0
  -17.6464  -30.6588   24.0563 C   0  0  0  0  0  0
  -25.9051  -34.9451   23.5107 C   0  0  0  0  0  0
  -16.5354  -29.9086   23.6332 C   0  0  0  0  0  0
  -16.7275  -28.6502   23.0358 C   0  0  0  0  0  0
  -26.4499  -31.6588   25.0725 C   0  0  0  0  0  0
  -25.3734  -31.3728   26.1453 C   0  0  0  0  0  0
  -27.0344  -30.3016   24.6174 C   0  0  0  0  0  0
  -27.6059  -32.4321   25.7496 C   0  0  0  0  0  0
  -27.5578  -37.1803   24.8468 C   0  0  0  0  0  0
  -21.4192  -29.3042   22.3679 N   0  0  0  0  0  0
  -26.4292  -37.3776   23.9409 N   0  0  0  0  0  0
  -24.6892  -31.0609   22.0971 N   0  0  0  0  0  0
  -23.4202  -28.8162   23.3013 O   0  0  0  0  0  0
  -28.3450  -26.4652   20.1629 O   0  0  0  0  0  0
  -26.5613  -34.8918   22.4669 O   0  0  0  0  0  0
  -23.5434  -32.1387   23.7354 O   0  0  0  0  0  0
  -30.9021  -19.2833   19.9368 C   0  0  0  0  0  0
  -30.9119  -17.8621   20.0712 C   0  0  0  0  0  0
  -28.8026  -19.4074   21.0777 C   0  0  0  0  0  0
  -28.8056  -17.9832   21.2306 C   0  0  0  0  0  0
  -29.8532  -20.1077   20.4287 C   0  0  0  0  0  0
  -29.8641  -17.1606   20.7246 C   0  0  0  0  0  0
  -29.0479  -22.4470   20.4355 C   0  0  0  0  0  0
  -27.6223  -17.3770   21.9697 C   0  0  0  0  0  0
  -29.3190  -24.0068   20.3993 C   0  0  0  0  0  0
  -28.1232  -24.9990   20.0570 C   0  0  0  0  0  0
  -29.9732  -21.5393   20.3009 N   0  0  0  0  0  0
  -29.8016  -15.6983   20.8750 N   0  0  0  0  0  0
  -31.4808  -12.5291   19.1534 H   0  0  0  0  0  0
  -30.3789  -11.4068   19.9002 H   0  0  0  0  0  0
  -29.7757  -11.7537   17.4852 H   0  0  0  0  0  0
  -29.6483  -13.4757   17.7419 H   0  0  0  0  0  0
  -27.8733  -11.2900   18.8745 H   0  0  0  0  0  0
  -27.3767  -12.5664   17.7962 H   0  0  0  0  0  0
  -27.6693  -14.2512   19.5198 H   0  0  0  0  0  0
  -28.7127  -12.0553   21.3771 H   0  0  0  0  0  0
  -28.4389  -13.7073   21.8458 H   0  0  0  0  0  0
  -25.2762   -9.5675   22.4768 H   0  0  0  0  0  0
  -24.0002   -7.4625   22.7471 H   0  0  0  0  0  0
  -21.0844   -8.8773   19.8951 H   0  0  0  0  0  0
  -22.3702  -10.9674   19.6173 H   0  0  0  0  0  0
  -21.2001   -7.6149   23.9718 H   0  0  0  0  0  0
  -21.1480   -6.0523   25.9079 H   0  0  0  0  0  0
  -22.0598   -2.7610   23.2847 H   0  0  0  0  0  0
  -22.4103  -11.9880   22.4807 H   0  0  0  0  0  0
  -21.1110  -13.1250   22.2624 H   0  0  0  0  0  0
  -24.6400  -15.8270   20.4712 H   0  0  0  0  0  0
  -26.2494  -15.6127   20.0028 H   0  0  0  0  0  0
  -26.7179  -32.5448   23.1104 H   0  0  0  0  0  0
  -25.0094  -33.9725   25.0441 H   0  0  0  0  0  0
  -22.7152  -31.3047   21.4029 H   0  0  0  0  0  0
  -23.3751  -35.9622   23.3306 H   0  0  0  0  0  0
  -24.3582  -36.8905   22.2054 H   0  0  0  0  0  0
  -23.7240  -37.6494   23.6656 H   0  0  0  0  0  0
  -26.0955  -31.5542   20.6059 H   0  0  0  0  0  0
  -26.8428  -30.8377   22.0027 H   0  0  0  0  0  0
  -28.1180  -28.9829   21.1826 H   0  0  0  0  0  0
  -25.9617  -25.9307   19.0023 H   0  0  0  0  0  0
  -23.9680  -27.3090   19.0150 H   0  0  0  0  0  0
  -23.7544  -30.5960   19.4040 H   0  0  0  0  0  0
  -22.7554  -29.2485   19.8588 H   0  0  0  0  0  0
  -25.1296  -36.1935   25.0823 H   0  0  0  0  0  0
  -20.9986  -28.3253   24.1403 H   0  0  0  0  0  0
  -20.5681  -26.2291   23.3608 H   0  0  0  0  0  0
  -21.6647  -26.7440   22.1198 H   0  0  0  0  0  0
  -19.6913  -25.6294   21.1241 H   0  0  0  0  0  0
  -19.6691  -27.3197   20.6743 H   0  0  0  0  0  0
  -17.4203  -26.6680   21.4023 H   0  0  0  0  0  0
  -18.0330  -26.0072   22.9021 H   0  0  0  0  0  0
  -19.7939  -30.7273   24.2266 H   0  0  0  0  0  0
  -17.5018  -31.6271   24.5161 H   0  0  0  0  0  0
  -15.5354  -30.2990   23.7657 H   0  0  0  0  0  0
  -15.8676  -28.0822   22.7072 H   0  0  0  0  0  0
  -24.5911  -30.7072   25.7786 H   0  0  0  0  0  0
  -24.8922  -32.2895   26.4873 H   0  0  0  0  0  0
  -25.8062  -30.8914   27.0231 H   0  0  0  0  0  0
  -26.2917  -29.6766   24.1202 H   0  0  0  0  0  0
  -27.4058  -29.7273   25.4672 H   0  0  0  0  0  0
  -27.8779  -30.4317   23.9389 H   0  0  0  0  0  0
  -27.2674  -33.3626   26.2070 H   0  0  0  0  0  0
  -28.3873  -32.6873   25.0324 H   0  0  0  0  0  0
  -28.0721  -31.8445   26.5417 H   0  0  0  0  0  0
  -28.2601  -38.0095   24.7509 H   0  0  0  0  0  0
  -28.1068  -36.2626   24.6301 H   0  0  0  0  0  0
  -27.2297  -37.1461   25.8871 H   0  0  0  0  0  0
  -20.9367  -29.8768   21.6896 H   0  0  0  0  0  0
  -26.0174  -38.2851   24.1407 H   0  0  0  0  0  0
  -31.7412  -19.7508   19.4407 H   0  0  0  0  0  0
  -31.7506  -17.3201   19.6592 H   0  0  0  0  0  0
  -27.9761  -19.9650   21.4954 H   0  0  0  0  0  0
  -28.0025  -22.1807   20.6119 H   0  0  0  0  0  0
  -27.4441  -17.9190   22.8989 H   0  0  0  0  0  0
  -27.7546  -16.3289   22.2330 H   0  0  0  0  0  0
  -26.7228  -17.4636   21.3611 H   0  0  0  0  0  0
  -30.1301  -24.1914   19.6953 H   0  0  0  0  0  0
  -29.7125  -24.2816   21.3774 H   0  0  0  0  0  0
  -27.2840  -24.7390   20.7045 H   0  0  0  0  0  0
  -27.8096  -24.7752   19.0369 H   0  0  0  0  0  0
  -28.9210  -15.3669   21.2356 H   0  0  0  0  0  0
  1 25  1  0  0  0
  1 30  2  0  0  0
  1 82  1  0  0  0
  2  3  1  0  0  0
  2 25  1  0  0  0
  2 83  1  0  0  0
  2 84  1  0  0  0
  3  4  1  0  0  0
  3 85  1  0  0  0
  3 86  1  0  0  0
  4  5  1  0  0  0
  4 87  1  0  0  0
  4 88  1  0  0  0
  5  6  1  0  0  0
  5 26  1  0  0  0
  5 89  1  0  0  0
  6 25  1  0  0  0
  6 90  1  0  0  0
  6 91  1  0  0  0
  7  8  2  0  0  0
  7 26  1  0  0  0
  7 29  1  0  0  0
  8  9  1  0  0  0
  8 22  1  0  0  0
  9 10  1  0  0  0
  9 27  2  0  0  0
 10 11  2  0  0  0
 10 15  1  0  0  0
 11 12  1  0  0  0
 11 92  1  0  0  0
 12 13  2  0  0  0
 12 93  1  0  0  0
 13 14  1  0  0  0
 13 31  1  0  0  0
 14 15  2  0  0  0
 14 94  1  0  0  0
 15 95  1  0  0  0
 16 17  2  0  0  0
 16 21  1  0  0  0
 16 31  1  0  0  0
 17 18  1  0  0  0
 17 96  1  0  0  0
 18 19  2  0  0  0
 18 97  1  0  0  0
 19 20  1  0  0  0
 19 24  1  0  0  0
 20 21  2  0  0  0
 20 98  1  0  0  0
 21 23  1  0  0  0
 22 28  1  0  0  0
 22 32  2  0  0  0
 26 27  1  0  0  0
 28 99  1  0  0  0
 28100  1  0  0  0
 29101  1  0  0  0
 29102  1  0  0  0
 33 34  1  0  0  0
 33 66  1  0  0  0
 33 70  2  0  0  0
 34 36  1  0  0  0
 34 59  1  0  0  0
 34103  1  0  0  0
 35 44  2  0  0  0
 35 45  1  0  0  0
 35 68  1  0  0  0
 36 56  1  0  0  0
 36104  1  0  0  0
 37 39  1  0  0  0
 37 47  1  0  0  0
 37 66  1  0  0  0
 37105  1  0  0  0
 38 43  2  0  0  0
 38 46  1  0  0  0
 38 47  1  0  0  0
 39 64  1  0  0  0
 39 67  2  0  0  0
 40 52  1  0  0  0
 40 53  2  0  0  0
 40 58  1  0  0  0
 41106  1  0  0  0
 41107  1  0  0  0
 41108  1  0  0  0
 41 48  1  0  0  0
 42 43  1  0  0  0
 42 66  1  0  0  0
 42109  1  0  0  0
 42110  1  0  0  0
 43 44  1  0  0  0
 44111  1  0  0  0
 45 46  2  0  0  0
 45112  1  0  0  0
 46113  1  0  0  0
 47114  1  0  0  0
 47115  1  0  0  0
 48 56  1  0  0  0
 48 65  1  0  0  0
 48116  1  0  0  0
 49 50  1  0  0  0
 49 53  1  0  0  0
 49 64  1  0  0  0
 49117  1  0  0  0
 50 51  1  0  0  0
 50118  1  0  0  0
 50119  1  0  0  0
 51 52  1  0  0  0
 51120  1  0  0  0
 51121  1  0  0  0
 52122  1  0  0  0
 52123  1  0  0  0
 53 54  1  0  0  0
 54 55  2  0  0  0
 54124  1  0  0  0
 55 57  1  0  0  0
 55125  1  0  0  0
 56 69  2  0  0  0
 57 58  2  0  0  0
 57126  1  0  0  0
 58127  1  0  0  0
 59 60  1  0  0  0
 59 61  1  0  0  0
 59 62  1  0  0  0
 60128  1  0  0  0
 60129  1  0  0  0
 60130  1  0  0  0
 61131  1  0  0  0
 61132  1  0  0  0
 61133  1  0  0  0
 62134  1  0  0  0
 62135  1  0  0  0
 62136  1  0  0  0
 63 65  1  0  0  0
 63137  1  0  0  0
 63138  1  0  0  0
 63139  1  0  0  0
 64140  1  0  0  0
 65141  1  0  0  0
 68 80  1  0  0  0
 71 72  2  0  0  0
 71 75  1  0  0  0
 71142  1  0  0  0
 72 76  1  0  0  0
 72143  1  0  0  0
 73 74  1  0  0  0
 73 75  2  0  0  0
 73144  1  0  0  0
 74 76  2  0  0  0
 74 78  1  0  0  0
 75 81  1  0  0  0
 76 82  1  0  0  0
 77 79  1  0  0  0
 77 81  2  0  0  0
 77145  1  0  0  0
 78146  1  0  0  0
 78147  1  0  0  0
 78148  1  0  0  0
 79 80  1  0  0  0
 79149  1  0  0  0
 79150  1  0  0  0
 80151  1  0  0  0
 80152  1  0  0  0
 82153  1  0  0  0
M  ISO  4   1 100  68 101  80 101  82 100
M  END
> <chiral flag>
0

> <version>
0

> <s_m_source_file>
/data/baiqing/PycharmProjects/Reinvent-master-3.2/result/LINK_invent/BTK/process_docking_weight1_custom_product_contain_oxygen_bond_distance_aromatic_linkinvent_7_9_3/rearranged_h_0115.sdf

> <i_m_source_file_index>
85

> <r_mmod_Potential_Energy-OPLS-2005>
15.7927408218384

> <r_mmod_Stretch_Energy-OPLS-2005>
84.4126586914062

> <r_mmod_Bend_Energy-OPLS-2005>
150.109741210938

> <r_mmod_Torsional_Energy-OPLS-2005>
209.56037902832

> <r_mmod_Improper_Torsional_Energy-OPLS-2005>
4.14524221420288

> <r_mmod_Van_der_Waal_Energy-OPLS-2005>
145.722717285156

> <r_mmod_Electrostatic_Energy-OPLS-2005>
-414.987640380859

> <r_mmod_Solvation_Energy-OPLS-2005>
-215.020568847656

> <b_mmod_Minimization_Converged-OPLS-2005>
0

> <r_mmod_RMS_Derivative-OPLS-2005>
0.491229653358459

$$$$
85
                    3D
 Structure written by MMmdl.
152160  0  0  1  0            999 V2000
  -30.6707  -14.5528   20.6310 C   0  0  0  0  0  0
  -30.4393  -12.3787   19.4271 C   0  0  0  0  0  0
  -29.5018  -12.5363   18.2106 C   0  0  0  0  0  0
  -28.0255  -12.3669   18.6211 C   0  0  0  0  0  0
  -27.6621  -13.2068   19.8729 C   0  0  2  0  0  0
  -28.7007  -12.9859   20.9919 C   0  0  0  0  0  0
  -25.2596  -13.8151   20.5668 C   0  0  0  0  0  0
  -24.1841  -13.0432   20.9157 C   0  0  0  0  0  0
  -24.6392  -11.6897   20.8712 C   0  0  0  0  0  0
  -23.9056  -10.4287   21.0396 C   0  0  0  0  0  0
  -24.3608   -9.4206   21.9179 C   0  0  0  0  0  0
  -23.6283   -8.2243   22.0754 C   0  0  0  0  0  0
  -22.4265   -8.0278   21.3547 C   0  0  0  0  0  0
  -21.9897   -9.0251   20.4650 C   0  0  0  0  0  0
  -22.7226  -10.2128   20.3052 C   0  0  0  0  0  0
  -21.6851   -6.0729   22.5278 C   0  0  0  0  0  0
  -21.4016   -6.5635   23.8211 C   0  0  0  0  0  0
  -21.3661   -5.6789   24.9173 C   0  0  0  0  0  0
  -21.6043   -4.3052   24.7226 C   0  0  0  0  0  0
  -21.8820   -3.8142   23.4348 C   0  0  0  0  0  0
  -21.9193   -4.6957   22.3403 C   0  0  0  0  0  0
  -22.7866  -13.5238   21.1834 C   0  0  0  0  0  0
  -22.1661   -4.2143   21.0981 F   0  0  0  0  0  0
  -21.5630   -3.4537   25.7740 F   0  0  0  0  0  0
  -30.0286  -13.3518   20.4589 N   0  0  0  0  0  0
  -26.3025  -12.9315   20.3329 N   0  0  0  0  0  0
  -25.9318  -11.6474   20.5723 N   0  0  0  0  0  0
  -22.0508  -12.8236   22.0397 N   0  0  0  0  0  0
  -25.4344  -15.1869   20.4114 N   0  0  0  0  0  0
  -31.7254  -14.8046   20.0397 O   0  0  0  0  0  0
  -21.6635   -6.8871   21.4239 O   0  0  0  0  0  0
  -22.3551  -14.5548   20.6691 O   0  0  0  0  0  0
  -24.6225  -31.8632   23.2053 C   0  0  0  0  0  0
  -25.9088  -32.4798   23.8368 C   0  0  1  0  0  0
  -27.2294  -27.3604   20.1022 C   0  0  0  0  0  0
  -25.5914  -33.8596   24.2297 N   0  0  0  0  0  0
  -23.4136  -30.4872   21.5483 C   0  0  2  0  0  0
  -24.8584  -28.9464   20.1133 C   0  0  0  0  0  0
  -22.7454  -29.4641   22.4965 C   0  0  0  0  0  0
  -18.0282  -28.1383   22.8492 C   0  0  0  0  0  0
  -24.1487  -36.7303   23.2639 C   0  0  0  0  0  0
  -25.9510  -30.8067   21.3687 C   0  0  0  0  0  0
  -26.0259  -29.4372   20.7107 C   0  0  0  0  0  0
  -27.2140  -28.6556   20.6948 C   0  0  0  0  0  0
  -26.0350  -26.9072   19.4941 C   0  0  0  0  0  0
  -24.8623  -27.6846   19.4995 C   0  0  0  0  0  0
  -23.6249  -29.8224   20.1631 C   0  0  0  0  0  0
  -25.4110  -36.3096   24.0333 C   0  0  1  0  0  0
  -20.5879  -28.3680   23.1301 C   0  0  2  0  0  0
  -20.6772  -26.9409   22.5415 C   0  0  0  0  0  0
  -19.5747  -26.6387   21.5216 C   0  0  0  0  0  0
  -18.1927  -26.7928   22.1628 C   0  0  0  0  0  0
  -19.1533  -28.8848   23.2892 C   0  0  0  0  0  0
  -18.9457  -30.1451   23.8907 C   0  0  0  0  0  0
  -17.6457  -30.6587   24.0565 C   0  0  0  0  0  0
  -25.9044  -34.9464   23.5115 C   0  0  0  0  0  0
  -16.5349  -29.9087   23.6325 C   0  0  0  0  0  0
  -16.7270  -28.6504   23.0349 C   0  0  0  0  0  0
  -26.4485  -31.6597   25.0724 C   0  0  0  0  0  0
  -25.3729  -31.3724   26.1459 C   0  0  0  0  0  0
  -27.0322  -30.3029   24.6148 C   0  0  0  0  0  0
  -27.6054  -32.4325   25.7489 C   0  0  0  0  0  0
  -27.5580  -37.1805   24.8465 C   0  0  0  0  0  0
  -21.4173  -29.3040   22.3702 N   0  0  0  0  0  0
  -26.4293  -37.3786   23.9409 N   0  0  0  0  0  0
  -24.6812  -31.0678   22.0983 N   0  0  0  0  0  0
  -23.4197  -28.8182   23.3031 O   0  0  0  0  0  0
  -28.3758  -26.5626   20.1306 O   0  0  0  0  0  0
  -26.5613  -34.8925   22.4682 O   0  0  0  0  0  0
  -23.5398  -32.1412   23.7406 O   0  0  0  0  0  0
  -30.5511  -18.1413   19.4963 C   0  0  0  0  0  0
  -30.5761  -19.5075   19.0410 C   0  0  0  0  0  0
  -30.0187  -17.9952   20.7502 C   0  0  0  0  0  0
  -30.0628  -20.4432   19.9163 C   0  0  0  0  0  0
  -29.8417  -16.8189   21.5934 C   0  0  0  0  0  0
  -30.0566  -15.4658   21.6142 C   0  0  0  0  0  0
  -29.3220  -22.6976   20.3364 C   0  0  0  0  0  0
  -30.6251  -24.6538   19.2616 C   0  0  0  0  0  0
  -28.2215  -25.1100   19.9804 C   0  0  0  0  0  0
  -29.5150  -24.2577   20.2568 C   0  0  1  0  0  0
  -30.0867  -21.8348   19.7520 N   0  0  0  0  0  0
  -29.5019  -19.5819   21.3531 S   0  0  0  0  0  0
  -31.4786  -12.5125   19.1227 H   0  0  0  0  0  0
  -30.3793  -11.3648   19.8257 H   0  0  0  0  0  0
  -29.7604  -11.8103   17.4387 H   0  0  0  0  0  0
  -29.6455  -13.5218   17.7649 H   0  0  0  0  0  0
  -27.8554  -11.3091   18.8244 H   0  0  0  0  0  0
  -27.3699  -12.6259   17.7894 H   0  0  0  0  0  0
  -27.7066  -14.2559   19.5796 H   0  0  0  0  0  0
  -28.7058  -11.9393   21.2994 H   0  0  0  0  0  0
  -28.4029  -13.5346   21.8826 H   0  0  0  0  0  0
  -25.2755   -9.5683   22.4748 H   0  0  0  0  0  0
  -23.9996   -7.4634   22.7471 H   0  0  0  0  0  0
  -21.0829   -8.8767   19.8956 H   0  0  0  0  0  0
  -22.3686  -10.9663   19.6157 H   0  0  0  0  0  0
  -21.2008   -7.6143   23.9713 H   0  0  0  0  0  0
  -21.1484   -6.0519   25.9076 H   0  0  0  0  0  0
  -22.0599   -2.7604   23.2850 H   0  0  0  0  0  0
  -22.4118  -11.9895   22.4784 H   0  0  0  0  0  0
  -21.1134  -13.1277   22.2615 H   0  0  0  0  0  0
  -24.6767  -15.8502   20.5322 H   0  0  0  0  0  0
  -26.3031  -15.6245   20.1291 H   0  0  0  0  0  0
  -26.7160  -32.5481   23.1123 H   0  0  0  0  0  0
  -25.0051  -33.9744   25.0434 H   0  0  0  0  0  0
  -22.7055  -31.3066   21.4081 H   0  0  0  0  0  0
  -23.3747  -35.9638   23.3309 H   0  0  0  0  0  0
  -24.3580  -36.8914   22.2053 H   0  0  0  0  0  0
  -23.7242  -37.6509   23.6653 H   0  0  0  0  0  0
  -26.0760  -31.5725   20.6019 H   0  0  0  0  0  0
  -26.8339  -30.8557   21.9944 H   0  0  0  0  0  0
  -28.1133  -29.0318   21.1621 H   0  0  0  0  0  0
  -25.9793  -25.9444   19.0096 H   0  0  0  0  0  0
  -23.9655  -27.3017   19.0319 H   0  0  0  0  0  0
  -23.7404  -30.5991   19.4063 H   0  0  0  0  0  0
  -22.7454  -29.2498   19.8629 H   0  0  0  0  0  0
  -25.1288  -36.1956   25.0826 H   0  0  0  0  0  0
  -20.9969  -28.3250   24.1422 H   0  0  0  0  0  0
  -20.5681  -26.2287   23.3609 H   0  0  0  0  0  0
  -21.6642  -26.7449   22.1204 H   0  0  0  0  0  0
  -19.6908  -25.6300   21.1238 H   0  0  0  0  0  0
  -19.6682  -27.3204   20.6751 H   0  0  0  0  0  0
  -17.4197  -26.6677   21.4030 H   0  0  0  0  0  0
  -18.0326  -26.0069   22.9024 H   0  0  0  0  0  0
  -19.7932  -30.7265   24.2284 H   0  0  0  0  0  0
  -17.5012  -31.6267   24.5163 H   0  0  0  0  0  0
  -15.5350  -30.2992   23.7641 H   0  0  0  0  0  0
  -15.8670  -28.0826   22.7058 H   0  0  0  0  0  0
  -24.5900  -30.7076   25.7792 H   0  0  0  0  0  0
  -24.8919  -32.2884   26.4899 H   0  0  0  0  0  0
  -25.8059  -30.8893   27.0226 H   0  0  0  0  0  0
  -26.2882  -29.6789   24.1180 H   0  0  0  0  0  0
  -27.4047  -29.7275   25.4634 H   0  0  0  0  0  0
  -27.8740  -30.4334   23.9342 H   0  0  0  0  0  0
  -27.2671  -33.3620   26.2081 H   0  0  0  0  0  0
  -28.3850  -32.6894   25.0306 H   0  0  0  0  0  0
  -28.0736  -31.8441   26.5390 H   0  0  0  0  0  0
  -28.2604  -38.0097   24.7510 H   0  0  0  0  0  0
  -28.1069  -36.2629   24.6291 H   0  0  0  0  0  0
  -27.2299  -37.1458   25.8869 H   0  0  0  0  0  0
  -20.9346  -29.8765   21.6918 H   0  0  0  0  0  0
  -26.0179  -38.2864   24.1405 H   0  0  0  0  0  0
  -30.9421  -17.3315   18.8967 H   0  0  0  0  0  0
  -31.0022  -19.7581   18.0794 H   0  0  0  0  0  0
  -29.3772  -17.1251   22.5208 H   0  0  0  0  0  0
  -29.7472  -14.9946   22.5347 H   0  0  0  0  0  0
  -28.4904  -22.3875   20.9752 H   0  0  0  0  0  0
  -31.5734  -24.1737   19.5058 H   0  0  0  0  0  0
  -30.7970  -25.7303   19.2757 H   0  0  0  0  0  0
  -30.3613  -24.3755   18.2407 H   0  0  0  0  0  0
  -27.4343  -24.7745   20.6583 H   0  0  0  0  0  0
  -27.8845  -24.8863   18.9675 H   0  0  0  0  0  0
  -29.8613  -24.5524   21.2476 H   0  0  0  0  0  0
  1 25  1  0  0  0
  1 30  2  0  0  0
  1 76  1  0  0  0
  2  3  1  0  0  0
  2 25  1  0  0  0
  2 83  1  0  0  0
  2 84  1  0  0  0
  3  4  1  0  0  0
  3 85  1  0  0  0
  3 86  1  0  0  0
  4  5  1  0  0  0
  4 87  1  0  0  0
  4 88  1  0  0  0
  5  6  1  0  0  0
  5 26  1  0  0  0
  5 89  1  0  0  0
  6 25  1  0  0  0
  6 90  1  0  0  0
  6 91  1  0  0  0
  7  8  2  0  0  0
  7 26  1  0  0  0
  7 29  1  0  0  0
  8  9  1  0  0  0
  8 22  1  0  0  0
  9 10  1  0  0  0
  9 27  2  0  0  0
 10 11  2  0  0  0
 10 15  1  0  0  0
 11 12  1  0  0  0
 11 92  1  0  0  0
 12 13  2  0  0  0
 12 93  1  0  0  0
 13 14  1  0  0  0
 13 31  1  0  0  0
 14 15  2  0  0  0
 14 94  1  0  0  0
 15 95  1  0  0  0
 16 17  2  0  0  0
 16 21  1  0  0  0
 16 31  1  0  0  0
 17 18  1  0  0  0
 17 96  1  0  0  0
 18 19  2  0  0  0
 18 97  1  0  0  0
 19 20  1  0  0  0
 19 24  1  0  0  0
 20 21  2  0  0  0
 20 98  1  0  0  0
 21 23  1  0  0  0
 22 28  1  0  0  0
 22 32  2  0  0  0
 26 27  1  0  0  0
 28 99  1  0  0  0
 28100  1  0  0  0
 29101  1  0  0  0
 29102  1  0  0  0
 33 34  1  0  0  0
 33 66  1  0  0  0
 33 70  2  0  0  0
 34 36  1  0  0  0
 34 59  1  0  0  0
 34103  1  0  0  0
 35 44  2  0  0  0
 35 45  1  0  0  0
 35 68  1  0  0  0
 36 56  1  0  0  0
 36104  1  0  0  0
 37 39  1  0  0  0
 37 47  1  0  0  0
 37 66  1  0  0  0
 37105  1  0  0  0
 38 43  2  0  0  0
 38 46  1  0  0  0
 38 47  1  0  0  0
 39 64  1  0  0  0
 39 67  2  0  0  0
 40 52  1  0  0  0
 40 53  2  0  0  0
 40 58  1  0  0  0
 41106  1  0  0  0
 41107  1  0  0  0
 41108  1  0  0  0
 41 48  1  0  0  0
 42 43  1  0  0  0
 42 66  1  0  0  0
 42109  1  0  0  0
 42110  1  0  0  0
 43 44  1  0  0  0
 44111  1  0  0  0
 45 46  2  0  0  0
 45112  1  0  0  0
 46113  1  0  0  0
 47114  1  0  0  0
 47115  1  0  0  0
 48 56  1  0  0  0
 48 65  1  0  0  0
 48116  1  0  0  0
 49 50  1  0  0  0
 49 53  1  0  0  0
 49 64  1  0  0  0
 49117  1  0  0  0
 50 51  1  0  0  0
 50118  1  0  0  0
 50119  1  0  0  0
 51 52  1  0  0  0
 51120  1  0  0  0
 51121  1  0  0  0
 52122  1  0  0  0
 52123  1  0  0  0
 53 54  1  0  0  0
 54 55  2  0  0  0
 54124  1  0  0  0
 55 57  1  0  0  0
 55125  1  0  0  0
 56 69  2  0  0  0
 57 58  2  0  0  0
 57126  1  0  0  0
 58127  1  0  0  0
 59 60  1  0  0  0
 59 61  1  0  0  0
 59 62  1  0  0  0
 60128  1  0  0  0
 60129  1  0  0  0
 60130  1  0  0  0
 61131  1  0  0  0
 61132  1  0  0  0
 61133  1  0  0  0
 62134  1  0  0  0
 62135  1  0  0  0
 62136  1  0  0  0
 63 65  1  0  0  0
 63137  1  0  0  0
 63138  1  0  0  0
 63139  1  0  0  0
 64140  1  0  0  0
 65141  1  0  0  0
 68 79  1  0  0  0
 71 72  1  0  0  0
 71 73  2  0  0  0
 71142  1  0  0  0
 72 74  2  0  0  0
 72143  1  0  0  0
 73 75  1  0  0  0
 73 82  1  0  0  0
 74 81  1  0  0  0
 74 82  1  0  0  0
 75 76  2  0  0  0
 75144  1  0  0  0
 76145  1  0  0  0
 77 80  1  0  0  0
 77 81  2  0  0  0
 77146  1  0  0  0
 78147  1  0  0  0
 78148  1  0  0  0
 78149  1  0  0  0
 78 80  1  0  0  0
 79 80  1  0  0  0
 79150  1  0  0  0
 79151  1  0  0  0
 80152  1  0  0  0
M  ISO  4   1 100  68 101  76 100  79 101
M  END
> <chiral flag>
0

> <version>
0

> <s_m_source_file>
/data/baiqing/PycharmProjects/Reinvent-master-3.2/result/LINK_invent/BTK/process_docking_weight1_custom_product_contain_oxygen_bond_distance_aromatic_linkinvent_7_9_3/rearranged_h_0115.sdf

> <i_m_source_file_index>
86

> <r_mmod_Potential_Energy-OPLS-2005>
42.3481712341309

> <r_mmod_Stretch_Energy-OPLS-2005>
60.0907020568848

> <r_mmod_Bend_Energy-OPLS-2005>
161.808074951172

> <r_mmod_Torsional_Energy-OPLS-2005>
182.494705200195

> <r_mmod_Improper_Torsional_Energy-OPLS-2005>
2.57083630561829

> <r_mmod_Van_der_Waal_Energy-OPLS-2005>
130.785034179688

> <r_mmod_Electrostatic_Energy-OPLS-2005>
-323.744689941406

> <r_mmod_Solvation_Energy-OPLS-2005>
-198.932815551758

> <b_mmod_Minimization_Converged-OPLS-2005>
0

> <r_mmod_RMS_Derivative-OPLS-2005>
0.434150248765945

$$$$
86
                    3D
 Structure written by MMmdl.
166175  0  0  1  0            999 V2000
  -30.6431  -14.4957   20.6114 C   0  0  0  0  0  0
  -30.4447  -12.3487   19.4031 C   0  0  0  0  0  0
  -29.5050  -12.5365   18.1915 C   0  0  0  0  0  0
  -28.0263  -12.3738   18.6027 C   0  0  0  0  0  0
  -27.6659  -13.1994   19.8687 C   0  0  2  0  0  0
  -28.6989  -12.9374   20.9837 C   0  0  0  0  0  0
  -25.2662  -13.8125   20.5625 C   0  0  0  0  0  0
  -24.1886  -13.0418   20.9142 C   0  0  0  0  0  0
  -24.6421  -11.6900   20.8693 C   0  0  0  0  0  0
  -23.9106  -10.4296   21.0371 C   0  0  0  0  0  0
  -24.3646   -9.4234   21.9173 C   0  0  0  0  0  0
  -23.6318   -8.2274   22.0748 C   0  0  0  0  0  0
  -22.4314   -8.0314   21.3535 C   0  0  0  0  0  0
  -21.9939   -9.0294   20.4641 C   0  0  0  0  0  0
  -22.7270  -10.2169   20.3046 C   0  0  0  0  0  0
  -21.6850   -6.0778   22.5309 C   0  0  0  0  0  0
  -21.3998   -6.5660   23.8259 C   0  0  0  0  0  0
  -21.3644   -5.6798   24.9202 C   0  0  0  0  0  0
  -21.6056   -4.3073   24.7241 C   0  0  0  0  0  0
  -21.8809   -3.8181   23.4352 C   0  0  0  0  0  0
  -21.9203   -4.6999   22.3422 C   0  0  0  0  0  0
  -22.7936  -13.5274   21.1812 C   0  0  0  0  0  0
  -22.1670   -4.2180   21.0990 F   0  0  0  0  0  0
  -21.5625   -3.4550   25.7749 F   0  0  0  0  0  0
  -30.0290  -13.2898   20.4539 N   0  0  0  0  0  0
  -26.3058  -12.9268   20.3279 N   0  0  0  0  0  0
  -25.9336  -11.6443   20.5691 N   0  0  0  0  0  0
  -22.0530  -12.8277   22.0333 N   0  0  0  0  0  0
  -25.4389  -15.1816   20.4043 N   0  0  0  0  0  0
  -31.7746  -14.7161   20.1781 O   0  0  0  0  0  0
  -21.6643   -6.8922   21.4289 O   0  0  0  0  0  0
  -22.3662  -14.5597   20.6675 O   0  0  0  0  0  0
  -24.6103  -31.8695   23.2130 C   0  0  0  0  0  0
  -25.9006  -32.4833   23.8441 C   0  0  1  0  0  0
  -27.2515  -27.4531   20.0945 C   0  0  0  0  0  0
  -25.5887  -33.8640   24.2370 N   0  0  0  0  0  0
  -23.3997  -30.4904   21.5493 C   0  0  2  0  0  0
  -24.8515  -28.9611   20.1122 C   0  0  0  0  0  0
  -22.7403  -29.4612   22.4970 C   0  0  0  0  0  0
  -18.0254  -28.1382   22.8454 C   0  0  0  0  0  0
  -24.1449  -36.7292   23.2651 C   0  0  0  0  0  0
  -25.9261  -30.8436   21.3606 C   0  0  0  0  0  0
  -26.0058  -29.4766   20.7099 C   0  0  0  0  0  0
  -27.2019  -28.7293   20.6974 C   0  0  0  0  0  0
  -26.0700  -26.9405   19.5033 C   0  0  0  0  0  0
  -24.8775  -27.6915   19.5091 C   0  0  0  0  0  0
  -23.6113  -29.8226   20.1622 C   0  0  0  0  0  0
  -25.4076  -36.3119   24.0357 C   0  0  1  0  0  0
  -20.5849  -28.3630   23.1301 C   0  0  2  0  0  0
  -20.6744  -26.9368   22.5420 C   0  0  0  0  0  0
  -19.5728  -26.6369   21.5204 C   0  0  0  0  0  0
  -18.1886  -26.7919   22.1591 C   0  0  0  0  0  0
  -19.1518  -28.8820   23.2861 C   0  0  0  0  0  0
  -18.9460  -30.1424   23.8874 C   0  0  0  0  0  0
  -17.6479  -30.6586   24.0539 C   0  0  0  0  0  0
  -25.9029  -34.9485   23.5161 C   0  0  0  0  0  0
  -16.5352  -29.9103   23.6324 C   0  0  0  0  0  0
  -16.7244  -28.6525   23.0319 C   0  0  0  0  0  0
  -26.4469  -31.6640   25.0776 C   0  0  0  0  0  0
  -25.3763  -31.3715   26.1544 C   0  0  0  0  0  0
  -27.0370  -30.3115   24.6174 C   0  0  0  0  0  0
  -27.6056  -32.4396   25.7495 C   0  0  0  0  0  0
  -27.5557  -37.1777   24.8477 C   0  0  0  0  0  0
  -21.4135  -29.2977   22.3709 N   0  0  0  0  0  0
  -26.4265  -37.3797   23.9444 N   0  0  0  0  0  0
  -24.6633  -31.0826   22.0996 N   0  0  0  0  0  0
  -23.4214  -28.8129   23.2960 O   0  0  0  0  0  0
  -28.4736  -26.8105   20.1012 O   0  0  0  0  0  0
  -26.5580  -34.8909   22.4718 O   0  0  0  0  0  0
  -23.5284  -32.1447   23.7495 O   0  0  0  0  0  0
  -29.9804  -19.1890   20.6101 C   0  0  0  0  0  0
  -28.5240  -17.2219   21.9635 C   0  0  0  0  0  0
  -30.3433  -17.8258   20.4647 C   0  0  0  0  0  0
  -29.6392  -16.8100   21.1928 C   0  0  0  0  0  0
  -28.1557  -18.5777   22.0719 C   0  0  0  0  0  0
  -28.9025  -19.5816   21.4324 C   0  0  0  0  0  0
  -31.3588  -16.9754   18.3577 C   0  0  0  0  0  0
  -31.4487  -17.6195   19.5222 C   0  0  0  0  0  0
  -28.7799  -24.5004   20.8732 C   0  0  0  0  0  0
  -32.6623  -16.9117   17.6109 C   0  0  0  0  0  0
  -32.8437  -18.1459   19.7466 C   0  0  0  0  0  0
  -33.6316  -17.7346   18.4836 C   0  0  0  0  0  0
  -28.5158  -23.0166   20.5952 C   0  0  0  0  0  0
  -28.6120  -25.4514   19.6780 C   0  0  0  0  0  0
  -29.3170  -22.0030   21.4387 C   0  0  0  0  0  0
  -27.0486  -18.9570   22.8301 N   0  0  0  0  0  0
  -29.8797  -15.3923   21.2735 N   0  0  0  0  0  0
  -29.0931  -24.9096   21.9969 O   0  0  0  0  0  0
  -28.4626  -20.8766   21.6262 O   0  0  0  0  0  0
  -31.4771  -12.5167   19.0938 H   0  0  0  0  0  0
  -30.3986  -11.3252   19.7714 H   0  0  0  0  0  0
  -29.7567  -11.8258   17.4014 H   0  0  0  0  0  0
  -29.6545  -13.5300   17.7623 H   0  0  0  0  0  0
  -27.8552  -11.3132   18.7894 H   0  0  0  0  0  0
  -27.3745  -12.6416   17.7698 H   0  0  0  0  0  0
  -27.7185  -14.2539   19.5986 H   0  0  0  0  0  0
  -28.6884  -11.8813   21.2636 H   0  0  0  0  0  0
  -28.4320  -13.4683   21.8986 H   0  0  0  0  0  0
  -25.2786   -9.5714   22.4742 H   0  0  0  0  0  0
  -24.0029   -7.4664   22.7459 H   0  0  0  0  0  0
  -21.0861   -8.8827   19.8938 H   0  0  0  0  0  0
  -22.3733  -10.9709   19.6155 H   0  0  0  0  0  0
  -21.1957   -7.6158   23.9769 H   0  0  0  0  0  0
  -21.1462   -6.0513   25.9098 H   0  0  0  0  0  0
  -22.0585   -2.7638   23.2854 H   0  0  0  0  0  0
  -22.4114  -11.9972   22.4787 H   0  0  0  0  0  0
  -21.1138  -13.1326   22.2436 H   0  0  0  0  0  0
  -24.6772  -15.8407   20.5208 H   0  0  0  0  0  0
  -26.3060  -15.6203   20.1178 H   0  0  0  0  0  0
  -26.7067  -32.5546   23.1208 H   0  0  0  0  0  0
  -25.0047  -33.9843   25.0524 H   0  0  0  0  0  0
  -22.6846  -31.3040   21.4058 H   0  0  0  0  0  0
  -23.3733  -35.9607   23.3344 H   0  0  0  0  0  0
  -24.3527  -36.8891   22.2066 H   0  0  0  0  0  0
  -23.7184  -37.6488   23.6659 H   0  0  0  0  0  0
  -26.0347  -31.6136   20.5946 H   0  0  0  0  0  0
  -26.8156  -30.9034   21.9748 H   0  0  0  0  0  0
  -28.0982  -29.1245   21.1537 H   0  0  0  0  0  0
  -26.0353  -25.9774   19.0225 H   0  0  0  0  0  0
  -23.9876  -27.2901   19.0465 H   0  0  0  0  0  0
  -23.7114  -30.5998   19.4028 H   0  0  0  0  0  0
  -22.7387  -29.2398   19.8622 H   0  0  0  0  0  0
  -25.1241  -36.1982   25.0850 H   0  0  0  0  0  0
  -20.9911  -28.3188   24.1431 H   0  0  0  0  0  0
  -20.5609  -26.2235   23.3598 H   0  0  0  0  0  0
  -21.6599  -26.7390   22.1209 H   0  0  0  0  0  0
  -19.6893  -25.6283   21.1218 H   0  0  0  0  0  0
  -19.6683  -27.3163   20.6714 H   0  0  0  0  0  0
  -17.4166  -26.6643   21.3998 H   0  0  0  0  0  0
  -18.0274  -26.0091   22.9012 H   0  0  0  0  0  0
  -19.7940  -30.7212   24.2243 H   0  0  0  0  0  0
  -17.5047  -31.6251   24.5148 H   0  0  0  0  0  0
  -15.5344  -30.3003   23.7692 H   0  0  0  0  0  0
  -15.8626  -28.0862   22.7047 H   0  0  0  0  0  0
  -24.5879  -30.7145   25.7850 H   0  0  0  0  0  0
  -24.9005  -32.2861   26.5101 H   0  0  0  0  0  0
  -25.8109  -30.8775   27.0248 H   0  0  0  0  0  0
  -26.2919  -29.6749   24.1398 H   0  0  0  0  0  0
  -27.4364  -29.7467   25.4610 H   0  0  0  0  0  0
  -27.8626  -30.4485   23.9180 H   0  0  0  0  0  0
  -27.2708  -33.3689   26.2101 H   0  0  0  0  0  0
  -28.3800  -32.7012   25.0277 H   0  0  0  0  0  0
  -28.0827  -31.8560   26.5373 H   0  0  0  0  0  0
  -28.2573  -38.0068   24.7520 H   0  0  0  0  0  0
  -28.1036  -36.2609   24.6287 H   0  0  0  0  0  0
  -27.2289  -37.1415   25.8879 H   0  0  0  0  0  0
  -20.9325  -29.8767   21.6978 H   0  0  0  0  0  0
  -26.0156  -38.2860   24.1508 H   0  0  0  0  0  0
  -30.5229  -19.9285   20.0394 H   0  0  0  0  0  0
  -27.9282  -16.4820   22.4797 H   0  0  0  0  0  0
  -30.4582  -16.5107   17.9826 H   0  0  0  0  0  0
  -32.5714  -17.3285   16.6065 H   0  0  0  0  0  0
  -32.9856  -15.8732   17.5274 H   0  0  0  0  0  0
  -33.2542  -17.7121   20.6581 H   0  0  0  0  0  0
  -32.8370  -19.2293   19.8636 H   0  0  0  0  0  0
  -33.9643  -18.6192   17.9371 H   0  0  0  0  0  0
  -34.5250  -17.1640   18.7428 H   0  0  0  0  0  0
  -28.6656  -22.8150   19.5354 H   0  0  0  0  0  0
  -27.4571  -22.8679   20.7908 H   0  0  0  0  0  0
  -27.8235  -25.1035   19.0213 H   0  0  0  0  0  0
  -29.5280  -25.3881   19.0928 H   0  0  0  0  0  0
  -29.5616  -22.3829   22.4311 H   0  0  0  0  0  0
  -30.2661  -21.7864   20.9557 H   0  0  0  0  0  0
  -27.0043  -19.9383   23.0911 H   0  0  0  0  0  0
  -26.7019  -18.3281   23.5435 H   0  0  0  0  0  0
  -29.1461  -14.9137   21.7705 H   0  0  0  0  0  0
  1 25  1  0  0  0
  1 30  2  0  0  0
  1 87  1  0  0  0
  2  3  1  0  0  0
  2 25  1  0  0  0
  2 90  1  0  0  0
  2 91  1  0  0  0
  3  4  1  0  0  0
  3 92  1  0  0  0
  3 93  1  0  0  0
  4  5  1  0  0  0
  4 94  1  0  0  0
  4 95  1  0  0  0
  5  6  1  0  0  0
  5 26  1  0  0  0
  5 96  1  0  0  0
  6 25  1  0  0  0
  6 97  1  0  0  0
  6 98  1  0  0  0
  7  8  2  0  0  0
  7 26  1  0  0  0
  7 29  1  0  0  0
  8  9  1  0  0  0
  8 22  1  0  0  0
  9 10  1  0  0  0
  9 27  2  0  0  0
 10 11  2  0  0  0
 10 15  1  0  0  0
 11 12  1  0  0  0
 11 99  1  0  0  0
 12 13  2  0  0  0
 12100  1  0  0  0
 13 14  1  0  0  0
 13 31  1  0  0  0
 14 15  2  0  0  0
 14101  1  0  0  0
 15102  1  0  0  0
 16 17  2  0  0  0
 16 21  1  0  0  0
 16 31  1  0  0  0
 17 18  1  0  0  0
 17103  1  0  0  0
 18 19  2  0  0  0
 18104  1  0  0  0
 19 20  1  0  0  0
 19 24  1  0  0  0
 20 21  2  0  0  0
 20105  1  0  0  0
 21 23  1  0  0  0
 22 28  1  0  0  0
 22 32  2  0  0  0
 26 27  1  0  0  0
 28106  1  0  0  0
 28107  1  0  0  0
 29108  1  0  0  0
 29109  1  0  0  0
 33 34  1  0  0  0
 33 66  1  0  0  0
 33 70  2  0  0  0
 34 36  1  0  0  0
 34 59  1  0  0  0
 34110  1  0  0  0
 35 44  2  0  0  0
 35 45  1  0  0  0
 35 68  1  0  0  0
 36 56  1  0  0  0
 36111  1  0  0  0
 37 39  1  0  0  0
 37 47  1  0  0  0
 37 66  1  0  0  0
 37112  1  0  0  0
 38 43  2  0  0  0
 38 46  1  0  0  0
 38 47  1  0  0  0
 39 64  1  0  0  0
 39 67  2  0  0  0
 40 52  1  0  0  0
 40 53  2  0  0  0
 40 58  1  0  0  0
 41113  1  0  0  0
 41114  1  0  0  0
 41115  1  0  0  0
 41 48  1  0  0  0
 42 43  1  0  0  0
 42 66  1  0  0  0
 42116  1  0  0  0
 42117  1  0  0  0
 43 44  1  0  0  0
 44118  1  0  0  0
 45 46  2  0  0  0
 45119  1  0  0  0
 46120  1  0  0  0
 47121  1  0  0  0
 47122  1  0  0  0
 48 56  1  0  0  0
 48 65  1  0  0  0
 48123  1  0  0  0
 49 50  1  0  0  0
 49 53  1  0  0  0
 49 64  1  0  0  0
 49124  1  0  0  0
 50 51  1  0  0  0
 50125  1  0  0  0
 50126  1  0  0  0
 51 52  1  0  0  0
 51127  1  0  0  0
 51128  1  0  0  0
 52129  1  0  0  0
 52130  1  0  0  0
 53 54  1  0  0  0
 54 55  2  0  0  0
 54131  1  0  0  0
 55 57  1  0  0  0
 55132  1  0  0  0
 56 69  2  0  0  0
 57 58  2  0  0  0
 57133  1  0  0  0
 58134  1  0  0  0
 59 60  1  0  0  0
 59 61  1  0  0  0
 59 62  1  0  0  0
 60135  1  0  0  0
 60136  1  0  0  0
 60137  1  0  0  0
 61138  1  0  0  0
 61139  1  0  0  0
 61140  1  0  0  0
 62141  1  0  0  0
 62142  1  0  0  0
 62143  1  0  0  0
 63 65  1  0  0  0
 63144  1  0  0  0
 63145  1  0  0  0
 63146  1  0  0  0
 64147  1  0  0  0
 65148  1  0  0  0
 68 84  1  0  0  0
 71 73  2  0  0  0
 71 76  1  0  0  0
 71149  1  0  0  0
 72 74  2  0  0  0
 72 75  1  0  0  0
 72150  1  0  0  0
 73 74  1  0  0  0
 73 78  1  0  0  0
 74 87  1  0  0  0
 75 76  2  0  0  0
 75 86  1  0  0  0
 76 89  1  0  0  0
 77 78  2  0  0  0
 77 80  1  0  0  0
 77151  1  0  0  0
 78 81  1  0  0  0
 79 83  1  0  0  0
 79 84  1  0  0  0
 79 88  2  0  0  0
 80 82  1  0  0  0
 80152  1  0  0  0
 80153  1  0  0  0
 81 82  1  0  0  0
 81154  1  0  0  0
 81155  1  0  0  0
 82156  1  0  0  0
 82157  1  0  0  0
 83 85  1  0  0  0
 83158  1  0  0  0
 83159  1  0  0  0
 84160  1  0  0  0
 84161  1  0  0  0
 85 89  1  0  0  0
 85162  1  0  0  0
 85163  1  0  0  0
 86164  1  0  0  0
 86165  1  0  0  0
 87166  1  0  0  0
M  ISO  4   1 100  68 101  84 101  87 100
M  END
> <chiral flag>
0

> <version>
0

> <s_m_source_file>
/data/baiqing/PycharmProjects/Reinvent-master-3.2/result/LINK_invent/BTK/process_docking_weight1_custom_product_contain_oxygen_bond_distance_aromatic_linkinvent_7_9_3/rearranged_h_0115.sdf

> <i_m_source_file_index>
87

> <r_mmod_Potential_Energy-OPLS-2005>
57.6307411193848

> <r_mmod_Stretch_Energy-OPLS-2005>
39.9065818786621

> <r_mmod_Bend_Energy-OPLS-2005>
207.116134643555

> <r_mmod_Torsional_Energy-OPLS-2005>
261.444763183594

> <r_mmod_Improper_Torsional_Energy-OPLS-2005>
6.27964878082275

> <r_mmod_Van_der_Waal_Energy-OPLS-2005>
149.162979125977

> <r_mmod_Electrostatic_Energy-OPLS-2005>
-383.107940673828

> <r_mmod_Solvation_Energy-OPLS-2005>
-238.850616455078

> <b_mmod_Minimization_Converged-OPLS-2005>
0

> <r_mmod_RMS_Derivative-OPLS-2005>
5.04379510879517

$$$$
87
                    3D
 Structure written by MMmdl.
159167  0  0  1  0            999 V2000
  -30.6044  -14.7438   20.5998 C   0  0  0  0  0  0
  -30.4467  -12.4968   19.4655 C   0  0  0  0  0  0
  -29.5092  -12.5529   18.2369 C   0  0  0  0  0  0
  -28.0362  -12.3679   18.6484 C   0  0  0  0  0  0
  -27.6541  -13.2335   19.8787 C   0  0  2  0  0  0
  -28.7095  -13.0618   20.9953 C   0  0  0  0  0  0
  -25.2439  -13.8162   20.5499 C   0  0  0  0  0  0
  -24.1776  -13.0410   20.9083 C   0  0  0  0  0  0
  -24.6421  -11.6906   20.8764 C   0  0  0  0  0  0
  -23.9104  -10.4275   21.0429 C   0  0  0  0  0  0
  -24.3649   -9.4183   21.9199 C   0  0  0  0  0  0
  -23.6302   -8.2228   22.0765 C   0  0  0  0  0  0
  -22.4285   -8.0285   21.3541 C   0  0  0  0  0  0
  -21.9937   -9.0267   20.4649 C   0  0  0  0  0  0
  -22.7284  -10.2131   20.3062 C   0  0  0  0  0  0
  -21.6837   -6.0746   22.5288 C   0  0  0  0  0  0
  -21.4006   -6.5648   23.8225 C   0  0  0  0  0  0
  -21.3653   -5.6794   24.9178 C   0  0  0  0  0  0
  -21.6047   -4.3057   24.7226 C   0  0  0  0  0  0
  -21.8815   -3.8157   23.4340 C   0  0  0  0  0  0
  -21.9181   -4.6975   22.3401 C   0  0  0  0  0  0
  -22.7797  -13.5219   21.1727 C   0  0  0  0  0  0
  -22.1644   -4.2170   21.0973 F   0  0  0  0  0  0
  -21.5621   -3.4536   25.7728 F   0  0  0  0  0  0
  -29.9943  -13.5065   20.4582 N   0  0  0  0  0  0
  -26.3000  -12.9423   20.3425 N   0  0  0  0  0  0
  -25.9380  -11.6562   20.5871 N   0  0  0  0  0  0
  -22.0477  -12.8241   22.0331 N   0  0  0  0  0  0
  -25.3950  -15.1852   20.3557 N   0  0  0  0  0  0
  -31.6894  -14.9295   20.0314 O   0  0  0  0  0  0
  -21.6620   -6.8900   21.4254 O   0  0  0  0  0  0
  -22.3466  -14.5499   20.6547 O   0  0  0  0  0  0
  -24.6327  -31.8545   23.1957 C   0  0  0  0  0  0
  -25.9152  -32.4760   23.8302 C   0  0  1  0  0  0
  -27.2251  -27.2472   20.1236 C   0  0  0  0  0  0
  -25.5958  -33.8559   24.2245 N   0  0  0  0  0  0
  -23.4311  -30.4756   21.5411 C   0  0  2  0  0  0
  -24.8788  -28.9216   20.1147 C   0  0  0  0  0  0
  -22.7521  -29.4593   22.4915 C   0  0  0  0  0  0
  -18.0287  -28.1428   22.8477 C   0  0  0  0  0  0
  -24.1480  -36.7254   23.2632 C   0  0  0  0  0  0
  -25.9772  -30.7660   21.3746 C   0  0  0  0  0  0
  -26.0537  -29.3849   20.7193 C   0  0  0  0  0  0
  -27.2303  -28.5620   20.7090 C   0  0  0  0  0  0
  -26.0196  -26.8588   19.4930 C   0  0  0  0  0  0
  -24.8685  -27.6683   19.4910 C   0  0  0  0  0  0
  -23.6515  -29.8097   20.1587 C   0  0  0  0  0  0
  -25.4115  -36.3063   24.0324 C   0  0  1  0  0  0
  -20.5898  -28.3732   23.1274 C   0  0  2  0  0  0
  -20.6786  -26.9455   22.5405 C   0  0  0  0  0  0
  -19.5767  -26.6429   21.5198 C   0  0  0  0  0  0
  -18.1942  -26.7976   22.1612 C   0  0  0  0  0  0
  -19.1543  -28.8896   23.2876 C   0  0  0  0  0  0
  -18.9467  -30.1484   23.8918 C   0  0  0  0  0  0
  -17.6474  -30.6628   24.0565 C   0  0  0  0  0  0
  -25.9069  -34.9444   23.5092 C   0  0  0  0  0  0
  -16.5361  -29.9124   23.6330 C   0  0  0  0  0  0
  -16.7277  -28.6536   23.0358 C   0  0  0  0  0  0
  -26.4524  -31.6594   25.0682 C   0  0  0  0  0  0
  -25.3744  -31.3746   26.1395 C   0  0  0  0  0  0
  -27.0357  -30.3020   24.6145 C   0  0  0  0  0  0
  -27.6106  -32.4299   25.7449 C   0  0  0  0  0  0
  -27.5576  -37.1781   24.8479 C   0  0  0  0  0  0
  -21.4221  -29.3065   22.3660 N   0  0  0  0  0  0
  -26.4284  -37.3775   23.9425 N   0  0  0  0  0  0
  -24.6998  -31.0494   22.0944 N   0  0  0  0  0  0
  -23.4206  -28.8113   23.3003 O   0  0  0  0  0  0
  -28.3182  -26.3386   20.1667 O   0  0  0  0  0  0
  -26.5622  -34.8935   22.4646 O   0  0  0  0  0  0
  -23.5479  -32.1371   23.7254 O   0  0  0  0  0  0
  -29.6514  -18.4256   20.8014 C   0  0  0  0  0  0
  -27.5243  -19.5212   21.1557 C   0  0  0  0  0  0
  -29.1919  -17.1496   21.3715 C   0  0  0  0  0  0
  -27.8914  -17.2360   21.9962 C   0  0  0  0  0  0
  -28.8700  -19.6693   20.7631 C   0  0  0  0  0  0
  -27.0372  -18.3518   21.7525 C   0  0  0  0  0  0
  -28.2443  -16.6495   25.3563 C   0  0  0  0  0  0
  -27.3062  -16.8527   24.4148 C   0  0  0  0  0  0
  -28.7021  -22.1531   20.5213 C   0  0  0  0  0  0
  -30.0909  -15.8650   21.6447 C   0  0  0  0  0  0
  -27.4290  -16.2793   23.0647 C   0  0  0  0  0  0
  -29.1630  -23.6762   20.2700 C   0  0  0  0  0  0
  -28.0421  -24.8491   20.0986 C   0  0  0  0  0  0
  -30.5151  -15.7175   22.8316 N   0  0  0  0  0  0
  -29.3647  -21.0040   20.3829 N   0  0  0  0  0  0
  -25.6886  -18.3848   22.1369 N   0  0  0  0  0  0
  -27.1141  -15.1127   22.8616 O   0  0  0  0  0  0
  -31.4764  -12.6624   19.1487 H   0  0  0  0  0  0
  -30.4410  -11.5012   19.9113 H   0  0  0  0  0  0
  -29.7973  -11.7961   17.5058 H   0  0  0  0  0  0
  -29.6189  -13.5173   17.7408 H   0  0  0  0  0  0
  -27.8913  -11.3139   18.8866 H   0  0  0  0  0  0
  -27.3762  -12.5889   17.8078 H   0  0  0  0  0  0
  -27.6705  -14.2740   19.5500 H   0  0  0  0  0  0
  -28.7656  -12.0146   21.2947 H   0  0  0  0  0  0
  -28.4835  -13.5837   21.9084 H   0  0  0  0  0  0
  -25.2813   -9.5633   22.4741 H   0  0  0  0  0  0
  -23.9998   -7.4625   22.7498 H   0  0  0  0  0  0
  -21.0857   -8.8820   19.8957 H   0  0  0  0  0  0
  -22.3795  -10.9665   19.6140 H   0  0  0  0  0  0
  -21.2006   -7.6159   23.9739 H   0  0  0  0  0  0
  -21.1471   -6.0515   25.9084 H   0  0  0  0  0  0
  -22.0605   -2.7623   23.2830 H   0  0  0  0  0  0
  -22.4163  -11.9932   22.4700 H   0  0  0  0  0  0
  -21.1105  -13.1250   22.2582 H   0  0  0  0  0  0
  -24.6230  -15.8335   20.4537 H   0  0  0  0  0  0
  -26.2746  -15.6363   20.1451 H   0  0  0  0  0  0
  -26.7204  -32.5413   23.1027 H   0  0  0  0  0  0
  -25.0156  -33.9713   25.0425 H   0  0  0  0  0  0
  -22.7264  -31.2967   21.3946 H   0  0  0  0  0  0
  -23.3769  -35.9562   23.3290 H   0  0  0  0  0  0
  -24.3562  -36.8868   22.2050 H   0  0  0  0  0  0
  -23.7221  -37.6452   23.6639 H   0  0  0  0  0  0
  -26.1095  -31.5246   20.6018 H   0  0  0  0  0  0
  -26.8586  -30.8233   22.0012 H   0  0  0  0  0  0
  -28.1313  -28.9165   21.1905 H   0  0  0  0  0  0
  -25.9234  -25.9054   18.9986 H   0  0  0  0  0  0
  -23.9692  -27.3090   19.0092 H   0  0  0  0  0  0
  -23.7854  -30.5841   19.4033 H   0  0  0  0  0  0
  -22.7679  -29.2489   19.8482 H   0  0  0  0  0  0
  -25.1292  -36.1894   25.0817 H   0  0  0  0  0  0
  -20.9982  -28.3302   24.1400 H   0  0  0  0  0  0
  -20.5696  -26.2334   23.3605 H   0  0  0  0  0  0
  -21.6651  -26.7508   22.1188 H   0  0  0  0  0  0
  -19.6935  -25.6334   21.1238 H   0  0  0  0  0  0
  -19.6703  -27.3219   20.6713 H   0  0  0  0  0  0
  -17.4204  -26.6692   21.4024 H   0  0  0  0  0  0
  -18.0370  -26.0134   22.9035 H   0  0  0  0  0  0
  -19.7942  -30.7276   24.2321 H   0  0  0  0  0  0
  -17.5034  -31.6313   24.5164 H   0  0  0  0  0  0
  -15.5363  -30.3038   23.7684 H   0  0  0  0  0  0
  -15.8668  -28.0868   22.7100 H   0  0  0  0  0  0
  -24.5962  -30.7040   25.7720 H   0  0  0  0  0  0
  -24.8880  -32.2918   26.4733 H   0  0  0  0  0  0
  -25.8074  -30.9003   27.0217 H   0  0  0  0  0  0
  -26.2933  -29.6770   24.1176 H   0  0  0  0  0  0
  -27.4075  -29.7264   25.4628 H   0  0  0  0  0  0
  -27.8776  -30.4291   23.9339 H   0  0  0  0  0  0
  -27.2777  -33.3634   26.1995 H   0  0  0  0  0  0
  -28.3955  -32.6814   25.0296 H   0  0  0  0  0  0
  -28.0731  -31.8432   26.5399 H   0  0  0  0  0  0
  -28.2617  -38.0055   24.7533 H   0  0  0  0  0  0
  -28.1055  -36.2610   24.6295 H   0  0  0  0  0  0
  -27.2300  -37.1409   25.8880 H   0  0  0  0  0  0
  -20.9420  -29.8775   21.6852 H   0  0  0  0  0  0
  -26.0154  -38.2833   24.1467 H   0  0  0  0  0  0
  -30.6756  -18.4703   20.4563 H   0  0  0  0  0  0
  -26.8249  -20.3362   21.0709 H   0  0  0  0  0  0
  -28.1395  -17.0855   26.3381 H   0  0  0  0  0  0
  -29.1242  -16.0513   25.1730 H   0  0  0  0  0  0
  -26.4345  -17.4551   24.6270 H   0  0  0  0  0  0
  -27.6823  -22.1615   20.9070 H   0  0  0  0  0  0
  -29.8043  -23.9449   21.1098 H   0  0  0  0  0  0
  -29.8085  -23.6876   19.3922 H   0  0  0  0  0  0
  -27.2573  -24.6525   20.8302 H   0  0  0  0  0  0
  -27.5959  -24.6507   19.1251 H   0  0  0  0  0  0
  -30.2088  -16.4593   23.4473 H   0  0  0  0  0  0
  -25.1725  -17.5119   22.1812 H   0  0  0  0  0  0
  -25.1046  -19.1531   21.8213 H   0  0  0  0  0  0
  1 25  1  0  0  0
  1 30  2  0  0  0
  1 80  1  0  0  0
  2  3  1  0  0  0
  2 25  1  0  0  0
  2 88  1  0  0  0
  2 89  1  0  0  0
  3  4  1  0  0  0
  3 90  1  0  0  0
  3 91  1  0  0  0
  4  5  1  0  0  0
  4 92  1  0  0  0
  4 93  1  0  0  0
  5  6  1  0  0  0
  5 26  1  0  0  0
  5 94  1  0  0  0
  6 25  1  0  0  0
  6 95  1  0  0  0
  6 96  1  0  0  0
  7  8  2  0  0  0
  7 26  1  0  0  0
  7 29  1  0  0  0
  8  9  1  0  0  0
  8 22  1  0  0  0
  9 10  1  0  0  0
  9 27  2  0  0  0
 10 11  2  0  0  0
 10 15  1  0  0  0
 11 12  1  0  0  0
 11 97  1  0  0  0
 12 13  2  0  0  0
 12 98  1  0  0  0
 13 14  1  0  0  0
 13 31  1  0  0  0
 14 15  2  0  0  0
 14 99  1  0  0  0
 15100  1  0  0  0
 16 17  2  0  0  0
 16 21  1  0  0  0
 16 31  1  0  0  0
 17 18  1  0  0  0
 17101  1  0  0  0
 18 19  2  0  0  0
 18102  1  0  0  0
 19 20  1  0  0  0
 19 24  1  0  0  0
 20 21  2  0  0  0
 20103  1  0  0  0
 21 23  1  0  0  0
 22 28  1  0  0  0
 22 32  2  0  0  0
 26 27  1  0  0  0
 28104  1  0  0  0
 28105  1  0  0  0
 29106  1  0  0  0
 29107  1  0  0  0
 33 34  1  0  0  0
 33 66  1  0  0  0
 33 70  2  0  0  0
 34 36  1  0  0  0
 34 59  1  0  0  0
 34108  1  0  0  0
 35 44  2  0  0  0
 35 45  1  0  0  0
 35 68  1  0  0  0
 36 56  1  0  0  0
 36109  1  0  0  0
 37 39  1  0  0  0
 37 47  1  0  0  0
 37 66  1  0  0  0
 37110  1  0  0  0
 38 43  2  0  0  0
 38 46  1  0  0  0
 38 47  1  0  0  0
 39 64  1  0  0  0
 39 67  2  0  0  0
 40 52  1  0  0  0
 40 53  2  0  0  0
 40 58  1  0  0  0
 41111  1  0  0  0
 41112  1  0  0  0
 41113  1  0  0  0
 41 48  1  0  0  0
 42 43  1  0  0  0
 42 66  1  0  0  0
 42114  1  0  0  0
 42115  1  0  0  0
 43 44  1  0  0  0
 44116  1  0  0  0
 45 46  2  0  0  0
 45117  1  0  0  0
 46118  1  0  0  0
 47119  1  0  0  0
 47120  1  0  0  0
 48 56  1  0  0  0
 48 65  1  0  0  0
 48121  1  0  0  0
 49 50  1  0  0  0
 49 53  1  0  0  0
 49 64  1  0  0  0
 49122  1  0  0  0
 50 51  1  0  0  0
 50123  1  0  0  0
 50124  1  0  0  0
 51 52  1  0  0  0
 51125  1  0  0  0
 51126  1  0  0  0
 52127  1  0  0  0
 52128  1  0  0  0
 53 54  1  0  0  0
 54 55  2  0  0  0
 54129  1  0  0  0
 55 57  1  0  0  0
 55130  1  0  0  0
 56 69  2  0  0  0
 57 58  2  0  0  0
 57131  1  0  0  0
 58132  1  0  0  0
 59 60  1  0  0  0
 59 61  1  0  0  0
 59 62  1  0  0  0
 60133  1  0  0  0
 60134  1  0  0  0
 60135  1  0  0  0
 61136  1  0  0  0
 61137  1  0  0  0
 61138  1  0  0  0
 62139  1  0  0  0
 62140  1  0  0  0
 62141  1  0  0  0
 63 65  1  0  0  0
 63142  1  0  0  0
 63143  1  0  0  0
 63144  1  0  0  0
 64145  1  0  0  0
 65146  1  0  0  0
 68 83  1  0  0  0
 71 73  2  0  0  0
 71 75  1  0  0  0
 71147  1  0  0  0
 72 75  2  0  0  0
 72 76  1  0  0  0
 72148  1  0  0  0
 73 74  1  0  0  0
 73 80  1  0  0  0
 74 76  2  0  0  0
 74 81  1  0  0  0
 75 85  1  0  0  0
 76 86  1  0  0  0
 77 78  2  0  0  0
 77149  1  0  0  0
 77150  1  0  0  0
 78 81  1  0  0  0
 78151  1  0  0  0
 79 82  1  0  0  0
 79 85  2  0  0  0
 79152  1  0  0  0
 80 84  2  0  0  0
 81 87  2  0  0  0
 82 83  1  0  0  0
 82153  1  0  0  0
 82154  1  0  0  0
 83155  1  0  0  0
 83156  1  0  0  0
 84157  1  0  0  0
 86158  1  0  0  0
 86159  1  0  0  0
M  ISO  4   1 100  68 101  80 100  83 101
M  END
> <chiral flag>
0

> <version>
0

> <s_m_source_file>
/data/baiqing/PycharmProjects/Reinvent-master-3.2/result/LINK_invent/BTK/process_docking_weight1_custom_product_contain_oxygen_bond_distance_aromatic_linkinvent_7_9_3/rearranged_h_0115.sdf

> <i_m_source_file_index>
88

> <r_mmod_Potential_Energy-OPLS-2005>
535.581726074219

> <r_mmod_Stretch_Energy-OPLS-2005>
177.678161621094

> <r_mmod_Bend_Energy-OPLS-2005>
218.742324829102

> <r_mmod_Torsional_Energy-OPLS-2005>
306.231292724609

> <r_mmod_Improper_Torsional_Energy-OPLS-2005>
11.1949605941772

> <r_mmod_Van_der_Waal_Energy-OPLS-2005>
157.378143310547

> <r_mmod_Electrostatic_Energy-OPLS-2005>
-203.087768554688

> <r_mmod_Solvation_Energy-OPLS-2005>
-219.046035766602

> <b_mmod_Minimization_Converged-OPLS-2005>
0

> <r_mmod_RMS_Derivative-OPLS-2005>
3.08139228820801

$$$$
88
                    3D
 Structure written by MMmdl.
164172  0  0  1  0            999 V2000
  -30.6062  -14.5863   20.4548 C   0  0  0  0  0  0
  -30.4503  -12.3205   19.4671 C   0  0  0  0  0  0
  -29.5186  -12.3552   18.2339 C   0  0  0  0  0  0
  -28.0210  -12.3291   18.6288 C   0  0  0  0  0  0
  -27.6556  -13.1924   19.8726 C   0  0  2  0  0  0
  -28.7027  -13.0173   20.9939 C   0  0  0  0  0  0
  -25.2590  -13.8119   20.5735 C   0  0  0  0  0  0
  -24.1829  -13.0432   20.9222 C   0  0  0  0  0  0
  -24.6358  -11.6888   20.8798 C   0  0  0  0  0  0
  -23.9023  -10.4282   21.0446 C   0  0  0  0  0  0
  -24.3584   -9.4199   21.9219 C   0  0  0  0  0  0
  -23.6292   -8.2222   22.0759 C   0  0  0  0  0  0
  -22.4272   -8.0277   21.3556 C   0  0  0  0  0  0
  -21.9900   -9.0244   20.4661 C   0  0  0  0  0  0
  -22.7208  -10.2134   20.3078 C   0  0  0  0  0  0
  -21.6840   -6.0753   22.5279 C   0  0  0  0  0  0
  -21.4006   -6.5654   23.8214 C   0  0  0  0  0  0
  -21.3650   -5.6807   24.9169 C   0  0  0  0  0  0
  -21.6057   -4.3066   24.7214 C   0  0  0  0  0  0
  -21.8816   -3.8168   23.4323 C   0  0  0  0  0  0
  -21.9172   -4.6987   22.3389 C   0  0  0  0  0  0
  -22.7864  -13.5238   21.1873 C   0  0  0  0  0  0
  -22.1619   -4.2184   21.0958 F   0  0  0  0  0  0
  -21.5645   -3.4530   25.7710 F   0  0  0  0  0  0
  -30.0173  -13.3538   20.4242 N   0  0  0  0  0  0
  -26.2993  -12.9261   20.3400 N   0  0  0  0  0  0
  -25.9277  -11.6447   20.5852 N   0  0  0  0  0  0
  -22.0495  -12.8212   22.0392 N   0  0  0  0  0  0
  -25.4328  -15.1854   20.4162 N   0  0  0  0  0  0
  -31.7680  -14.7751   20.0817 O   0  0  0  0  0  0
  -21.6632   -6.8886   21.4242 O   0  0  0  0  0  0
  -22.3571  -14.5565   20.6732 O   0  0  0  0  0  0
  -24.6178  -31.8643   23.2059 C   0  0  0  0  0  0
  -25.9068  -32.4794   23.8351 C   0  0  1  0  0  0
  -27.2435  -27.4055   20.1128 C   0  0  0  0  0  0
  -25.5918  -33.8594   24.2284 N   0  0  0  0  0  0
  -23.4072  -30.4829   21.5478 C   0  0  2  0  0  0
  -24.8551  -28.9405   20.1159 C   0  0  0  0  0  0
  -22.7432  -29.4625   22.5000 C   0  0  0  0  0  0
  -18.0271  -28.1383   22.8518 C   0  0  0  0  0  0
  -24.1490  -36.7302   23.2652 C   0  0  0  0  0  0
  -25.9380  -30.8199   21.3646 C   0  0  0  0  0  0
  -26.0131  -29.4516   20.7127 C   0  0  0  0  0  0
  -27.2058  -28.6931   20.7023 C   0  0  0  0  0  0
  -26.0652  -26.9078   19.5118 C   0  0  0  0  0  0
  -24.8785  -27.6705   19.5099 C   0  0  0  0  0  0
  -23.6179  -29.8104   20.1636 C   0  0  0  0  0  0
  -25.4111  -36.3084   24.0339 C   0  0  1  0  0  0
  -20.5862  -28.3664   23.1352 C   0  0  2  0  0  0
  -20.6759  -26.9403   22.5441 C   0  0  0  0  0  0
  -19.5729  -26.6388   21.5250 C   0  0  0  0  0  0
  -18.1903  -26.7932   22.1644 C   0  0  0  0  0  0
  -19.1518  -28.8843   23.2926 C   0  0  0  0  0  0
  -18.9444  -30.1461   23.8914 C   0  0  0  0  0  0
  -17.6445  -30.6597   24.0574 C   0  0  0  0  0  0
  -25.9047  -34.9461   23.5106 C   0  0  0  0  0  0
  -16.5339  -29.9088   23.6352 C   0  0  0  0  0  0
  -16.7260  -28.6511   23.0366 C   0  0  0  0  0  0
  -26.4504  -31.6580   25.0694 C   0  0  0  0  0  0
  -25.3787  -31.3706   26.1458 C   0  0  0  0  0  0
  -27.0377  -30.3014   24.6111 C   0  0  0  0  0  0
  -27.6027  -32.4359   25.7480 C   0  0  0  0  0  0
  -27.5580  -37.1793   24.8482 C   0  0  0  0  0  0
  -21.4156  -29.3022   22.3758 N   0  0  0  0  0  0
  -26.4291  -37.3769   23.9431 N   0  0  0  0  0  0
  -24.6722  -31.0713   22.0970 N   0  0  0  0  0  0
  -23.4191  -28.8200   23.3073 O   0  0  0  0  0  0
  -28.4354  -26.7027   20.1633 O   0  0  0  0  0  0
  -26.5598  -34.8928   22.4664 O   0  0  0  0  0  0
  -23.5375  -32.1411   23.7447 O   0  0  0  0  0  0
  -28.9102  -18.3586   18.2753 C   0  0  0  0  0  0
  -29.6554  -18.1017   20.9424 C   0  0  0  0  0  0
  -29.2280  -17.0840   18.7788 C   0  0  0  0  0  0
  -29.6148  -16.9182   20.1425 C   0  0  0  0  0  0
  -28.9587  -19.5208   19.0699 C   0  0  0  0  0  0
  -29.3325  -19.4016   20.4344 C   0  0  0  0  0  0
  -30.1417  -16.0113   16.6734 C   0  0  0  0  0  0
  -28.2124  -20.8910   17.2111 C   0  0  0  0  0  0
  -29.0826  -15.9548   17.7785 C   0  0  0  0  0  0
  -28.1866  -24.2123   20.6795 C   0  0  0  0  0  0
  -29.0956  -22.9394   20.5916 C   0  0  0  0  0  0
  -28.5693  -25.3496   19.6805 C   0  0  0  0  0  0
  -28.5062  -21.6193   21.1937 C   0  0  0  0  0  0
  -29.7662  -15.6128   20.7657 N   0  0  0  0  0  0
  -28.6758  -20.7660   18.5502 O   0  0  0  0  0  0
  -29.4291  -20.5012   21.2884 O   0  0  0  0  0  0
  -31.4890  -12.4526   19.1593 H   0  0  0  0  0  0
  -30.4068  -11.3399   19.9447 H   0  0  0  0  0  0
  -29.7297  -11.4830   17.6144 H   0  0  0  0  0  0
  -29.7601  -13.1955   17.5912 H   0  0  0  0  0  0
  -27.7838  -11.2862   18.8420 H   0  0  0  0  0  0
  -27.3971  -12.6047   17.7773 H   0  0  0  0  0  0
  -27.6658  -14.2336   19.5699 H   0  0  0  0  0  0
  -28.7035  -11.9863   21.3538 H   0  0  0  0  0  0
  -28.4659  -13.6306   21.8656 H   0  0  0  0  0  0
  -25.2741   -9.5668   22.4768 H   0  0  0  0  0  0
  -24.0019   -7.4604   22.7450 H   0  0  0  0  0  0
  -21.0844   -8.8745   19.8976 H   0  0  0  0  0  0
  -22.3684  -10.9652   19.6159 H   0  0  0  0  0  0
  -21.1997   -7.6166   23.9716 H   0  0  0  0  0  0
  -21.1469   -6.0543   25.9072 H   0  0  0  0  0  0
  -22.0604   -2.7636   23.2823 H   0  0  0  0  0  0
  -22.4066  -11.9826   22.4724 H   0  0  0  0  0  0
  -21.1108  -13.1256   22.2572 H   0  0  0  0  0  0
  -24.6749  -15.8444   20.5584 H   0  0  0  0  0  0
  -26.2777  -15.6270   20.0789 H   0  0  0  0  0  0
  -26.7142  -32.5493   23.1111 H   0  0  0  0  0  0
  -25.0119  -33.9748   25.0459 H   0  0  0  0  0  0
  -22.6975  -31.3001   21.4042 H   0  0  0  0  0  0
  -23.3745  -35.9638   23.3322 H   0  0  0  0  0  0
  -24.3587  -36.8913   22.2065 H   0  0  0  0  0  0
  -23.7246  -37.6510   23.6669 H   0  0  0  0  0  0
  -26.0631  -31.5842   20.5954 H   0  0  0  0  0  0
  -26.8227  -30.8679   21.9892 H   0  0  0  0  0  0
  -28.1022  -29.0857   21.1624 H   0  0  0  0  0  0
  -26.0420  -25.9314   19.0506 H   0  0  0  0  0  0
  -23.9875  -27.2685   19.0473 H   0  0  0  0  0  0
  -23.7345  -30.5860   19.4059 H   0  0  0  0  0  0
  -22.7406  -29.2339   19.8641 H   0  0  0  0  0  0
  -25.1282  -36.1932   25.0822 H   0  0  0  0  0  0
  -20.9938  -28.3215   24.1481 H   0  0  0  0  0  0
  -20.5718  -26.2253   23.3619 H   0  0  0  0  0  0
  -21.6619  -26.7472   22.1204 H   0  0  0  0  0  0
  -19.6888  -25.6308   21.1266 H   0  0  0  0  0  0
  -19.6658  -27.3215   20.6802 H   0  0  0  0  0  0
  -17.4180  -26.6737   21.4029 H   0  0  0  0  0  0
  -18.0255  -26.0053   22.9014 H   0  0  0  0  0  0
  -19.7916  -30.7297   24.2261 H   0  0  0  0  0  0
  -17.4993  -31.6280   24.5173 H   0  0  0  0  0  0
  -15.5336  -30.2991   23.7682 H   0  0  0  0  0  0
  -15.8658  -28.0852   22.7053 H   0  0  0  0  0  0
  -24.5930  -30.7069   25.7832 H   0  0  0  0  0  0
  -24.9028  -32.2885   26.4917 H   0  0  0  0  0  0
  -25.8163  -30.8879   27.0205 H   0  0  0  0  0  0
  -26.2931  -29.6703   24.1238 H   0  0  0  0  0  0
  -27.4236  -29.7306   25.4573 H   0  0  0  0  0  0
  -27.8720  -30.4331   23.9212 H   0  0  0  0  0  0
  -27.2560  -33.3640   26.2044 H   0  0  0  0  0  0
  -28.3838  -32.6968   25.0326 H   0  0  0  0  0  0
  -28.0696  -31.8520   26.5422 H   0  0  0  0  0  0
  -28.2593  -38.0093   24.7516 H   0  0  0  0  0  0
  -28.1076  -36.2619   24.6310 H   0  0  0  0  0  0
  -27.2314  -37.1455   25.8890 H   0  0  0  0  0  0
  -20.9333  -29.8710   21.6945 H   0  0  0  0  0  0
  -26.0182  -38.2853   24.1397 H   0  0  0  0  0  0
  -28.6176  -18.4212   17.2383 H   0  0  0  0  0  0
  -29.9135  -18.0127   21.9877 H   0  0  0  0  0  0
  -30.0392  -15.1707   15.9874 H   0  0  0  0  0  0
  -31.1451  -15.9831   17.0959 H   0  0  0  0  0  0
  -30.0504  -16.9218   16.0810 H   0  0  0  0  0  0
  -28.0540  -21.9472   16.9924 H   0  0  0  0  0  0
  -27.2603  -20.3801   17.0629 H   0  0  0  0  0  0
  -28.9410  -20.5147   16.4922 H   0  0  0  0  0  0
  -28.0900  -16.0053   17.3284 H   0  0  0  0  0  0
  -29.1256  -15.0093   18.2816 H   0  0  0  0  0  0
  -28.2288  -24.5945   21.6993 H   0  0  0  0  0  0
  -27.1445  -23.9390   20.5131 H   0  0  0  0  0  0
  -30.0342  -23.1611   21.0997 H   0  0  0  0  0  0
  -29.3712  -22.7808   19.5505 H   0  0  0  0  0  0
  -28.0822  -25.2113   18.7151 H   0  0  0  0  0  0
  -29.6328  -25.2542   19.4619 H   0  0  0  0  0  0
  -27.5833  -21.3335   20.6873 H   0  0  0  0  0  0
  -28.2006  -21.8333   22.2178 H   0  0  0  0  0  0
  -28.9297  -15.2871   21.2262 H   0  0  0  0  0  0
  1 25  1  0  0  0
  1 30  2  0  0  0
  1 84  1  0  0  0
  2  3  1  0  0  0
  2 25  1  0  0  0
  2 87  1  0  0  0
  2 88  1  0  0  0
  3  4  1  0  0  0
  3 89  1  0  0  0
  3 90  1  0  0  0
  4  5  1  0  0  0
  4 91  1  0  0  0
  4 92  1  0  0  0
  5  6  1  0  0  0
  5 26  1  0  0  0
  5 93  1  0  0  0
  6 25  1  0  0  0
  6 94  1  0  0  0
  6 95  1  0  0  0
  7  8  2  0  0  0
  7 26  1  0  0  0
  7 29  1  0  0  0
  8  9  1  0  0  0
  8 22  1  0  0  0
  9 10  1  0  0  0
  9 27  2  0  0  0
 10 11  2  0  0  0
 10 15  1  0  0  0
 11 12  1  0  0  0
 11 96  1  0  0  0
 12 13  2  0  0  0
 12 97  1  0  0  0
 13 14  1  0  0  0
 13 31  1  0  0  0
 14 15  2  0  0  0
 14 98  1  0  0  0
 15 99  1  0  0  0
 16 17  2  0  0  0
 16 21  1  0  0  0
 16 31  1  0  0  0
 17 18  1  0  0  0
 17100  1  0  0  0
 18 19  2  0  0  0
 18101  1  0  0  0
 19 20  1  0  0  0
 19 24  1  0  0  0
 20 21  2  0  0  0
 20102  1  0  0  0
 21 23  1  0  0  0
 22 28  1  0  0  0
 22 32  2  0  0  0
 26 27  1  0  0  0
 28103  1  0  0  0
 28104  1  0  0  0
 29105  1  0  0  0
 29106  1  0  0  0
 33 34  1  0  0  0
 33 66  1  0  0  0
 33 70  2  0  0  0
 34 36  1  0  0  0
 34 59  1  0  0  0
 34107  1  0  0  0
 35 44  2  0  0  0
 35 45  1  0  0  0
 35 68  1  0  0  0
 36 56  1  0  0  0
 36108  1  0  0  0
 37 39  1  0  0  0
 37 47  1  0  0  0
 37 66  1  0  0  0
 37109  1  0  0  0
 38 43  2  0  0  0
 38 46  1  0  0  0
 38 47  1  0  0  0
 39 64  1  0  0  0
 39 67  2  0  0  0
 40 52  1  0  0  0
 40 53  2  0  0  0
 40 58  1  0  0  0
 41110  1  0  0  0
 41111  1  0  0  0
 41112  1  0  0  0
 41 48  1  0  0  0
 42 43  1  0  0  0
 42 66  1  0  0  0
 42113  1  0  0  0
 42114  1  0  0  0
 43 44  1  0  0  0
 44115  1  0  0  0
 45 46  2  0  0  0
 45116  1  0  0  0
 46117  1  0  0  0
 47118  1  0  0  0
 47119  1  0  0  0
 48 56  1  0  0  0
 48 65  1  0  0  0
 48120  1  0  0  0
 49 50  1  0  0  0
 49 53  1  0  0  0
 49 64  1  0  0  0
 49121  1  0  0  0
 50 51  1  0  0  0
 50122  1  0  0  0
 50123  1  0  0  0
 51 52  1  0  0  0
 51124  1  0  0  0
 51125  1  0  0  0
 52126  1  0  0  0
 52127  1  0  0  0
 53 54  1  0  0  0
 54 55  2  0  0  0
 54128  1  0  0  0
 55 57  1  0  0  0
 55129  1  0  0  0
 56 69  2  0  0  0
 57 58  2  0  0  0
 57130  1  0  0  0
 58131  1  0  0  0
 59 60  1  0  0  0
 59 61  1  0  0  0
 59 62  1  0  0  0
 60132  1  0  0  0
 60133  1  0  0  0
 60134  1  0  0  0
 61135  1  0  0  0
 61136  1  0  0  0
 61137  1  0  0  0
 62138  1  0  0  0
 62139  1  0  0  0
 62140  1  0  0  0
 63 65  1  0  0  0
 63141  1  0  0  0
 63142  1  0  0  0
 63143  1  0  0  0
 64144  1  0  0  0
 65145  1  0  0  0
 68 82  1  0  0  0
 71 73  2  0  0  0
 71 75  1  0  0  0
 71146  1  0  0  0
 72 74  2  0  0  0
 72 76  1  0  0  0
 72147  1  0  0  0
 73 74  1  0  0  0
 73 79  1  0  0  0
 74 84  1  0  0  0
 75 76  2  0  0  0
 75 85  1  0  0  0
 76 86  1  0  0  0
 77 79  1  0  0  0
 77148  1  0  0  0
 77149  1  0  0  0
 77150  1  0  0  0
 78 85  1  0  0  0
 78151  1  0  0  0
 78152  1  0  0  0
 78153  1  0  0  0
 79154  1  0  0  0
 79155  1  0  0  0
 80 81  1  0  0  0
 80 82  1  0  0  0
 80156  1  0  0  0
 80157  1  0  0  0
 81 83  1  0  0  0
 81158  1  0  0  0
 81159  1  0  0  0
 82160  1  0  0  0
 82161  1  0  0  0
 83 86  1  0  0  0
 83162  1  0  0  0
 83163  1  0  0  0
 84164  1  0  0  0
M  ISO  4   1 100  68 101  82 101  84 100
M  END
> <chiral flag>
0

> <version>
0

> <s_m_source_file>
/data/baiqing/PycharmProjects/Reinvent-master-3.2/result/LINK_invent/BTK/process_docking_weight1_custom_product_contain_oxygen_bond_distance_aromatic_linkinvent_7_9_3/rearranged_h_0115.sdf

> <i_m_source_file_index>
89

> <r_mmod_Potential_Energy-OPLS-2005>
60.2181015014648

> <r_mmod_Stretch_Energy-OPLS-2005>
54.6001014709473

> <r_mmod_Bend_Energy-OPLS-2005>
145.193542480469

> <r_mmod_Torsional_Energy-OPLS-2005>
260.885955810547

> <r_mmod_Improper_Torsional_Energy-OPLS-2005>
6.27104568481445

> <r_mmod_Van_der_Waal_Energy-OPLS-2005>
158.497985839844

> <r_mmod_Electrostatic_Energy-OPLS-2005>
-382.899505615234

> <r_mmod_Solvation_Energy-OPLS-2005>
-214.463714599609

> <b_mmod_Minimization_Converged-OPLS-2005>
0

> <r_mmod_RMS_Derivative-OPLS-2005>
2.50926756858826

$$$$
89
                    3D
 Structure written by MMmdl.
156164  0  0  1  0            999 V2000
  -30.6010  -14.7687   20.4820 C   0  0  0  0  0  0
  -30.4358  -12.4738   19.4987 C   0  0  0  0  0  0
  -29.5288  -12.5480   18.2504 C   0  0  0  0  0  0
  -28.0499  -12.3644   18.6448 C   0  0  0  0  0  0
  -27.6490  -13.2414   19.8625 C   0  0  2  0  0  0
  -28.6834  -13.1652   21.0059 C   0  0  0  0  0  0
  -25.2528  -13.8221   20.5681 C   0  0  0  0  0  0
  -24.1810  -13.0462   20.9178 C   0  0  0  0  0  0
  -24.6415  -11.6937   20.8715 C   0  0  0  0  0  0
  -23.9097  -10.4308   21.0384 C   0  0  0  0  0  0
  -24.3644   -9.4213   21.9160 C   0  0  0  0  0  0
  -23.6301   -8.2259   22.0746 C   0  0  0  0  0  0
  -22.4268   -8.0310   21.3551 C   0  0  0  0  0  0
  -21.9910   -9.0283   20.4637 C   0  0  0  0  0  0
  -22.7269  -10.2144   20.3032 C   0  0  0  0  0  0
  -21.6859   -6.0747   22.5273 C   0  0  0  0  0  0
  -21.4031   -6.5639   23.8207 C   0  0  0  0  0  0
  -21.3657   -5.6774   24.9155 C   0  0  0  0  0  0
  -21.6028   -4.3041   24.7190 C   0  0  0  0  0  0
  -21.8825   -3.8160   23.4313 C   0  0  0  0  0  0
  -21.9194   -4.6988   22.3373 C   0  0  0  0  0  0
  -22.7828  -13.5240   21.1856 C   0  0  0  0  0  0
  -22.1660   -4.2188   21.0949 F   0  0  0  0  0  0
  -21.5612   -3.4516   25.7696 F   0  0  0  0  0  0
  -29.9945  -13.5277   20.4484 N   0  0  0  0  0  0
  -26.2963  -12.9446   20.3269 N   0  0  0  0  0  0
  -25.9344  -11.6577   20.5696 N   0  0  0  0  0  0
  -22.0466  -12.8231   22.0408 N   0  0  0  0  0  0
  -25.4234  -15.1947   20.4175 N   0  0  0  0  0  0
  -31.7589  -14.8838   20.0658 O   0  0  0  0  0  0
  -21.6639   -6.8904   21.4238 O   0  0  0  0  0  0
  -22.3485  -14.5536   20.6707 O   0  0  0  0  0  0
  -24.6351  -31.8517   23.1981 C   0  0  0  0  0  0
  -25.9151  -32.4742   23.8340 C   0  0  1  0  0  0
  -27.2196  -27.2265   20.1529 C   0  0  0  0  0  0
  -25.5940  -33.8543   24.2258 N   0  0  0  0  0  0
  -23.4353  -30.4750   21.5400 C   0  0  2  0  0  0
  -24.8872  -28.9218   20.1046 C   0  0  0  0  0  0
  -22.7530  -29.4587   22.4885 C   0  0  0  0  0  0
  -18.0307  -28.1396   22.8485 C   0  0  0  0  0  0
  -24.1491  -36.7289   23.2634 C   0  0  0  0  0  0
  -25.9834  -30.7550   21.3863 C   0  0  0  0  0  0
  -26.0553  -29.3729   20.7331 C   0  0  0  0  0  0
  -27.2209  -28.5355   20.7529 C   0  0  0  0  0  0
  -26.0423  -26.8723   19.4554 C   0  0  0  0  0  0
  -24.8898  -27.6818   19.4480 C   0  0  0  0  0  0
  -23.6581  -29.8111   20.1541 C   0  0  0  0  0  0
  -25.4107  -36.3067   24.0327 C   0  0  1  0  0  0
  -20.5910  -28.3714   23.1257 C   0  0  2  0  0  0
  -20.6791  -26.9422   22.5414 C   0  0  0  0  0  0
  -19.5759  -26.6383   21.5221 C   0  0  0  0  0  0
  -18.1939  -26.7941   22.1631 C   0  0  0  0  0  0
  -19.1556  -28.8873   23.2876 C   0  0  0  0  0  0
  -18.9471  -30.1474   23.8893 C   0  0  0  0  0  0
  -17.6459  -30.6591   24.0561 C   0  0  0  0  0  0
  -25.9054  -34.9435   23.5100 C   0  0  0  0  0  0
  -16.5355  -29.9085   23.6323 C   0  0  0  0  0  0
  -16.7287  -28.6514   23.0332 C   0  0  0  0  0  0
  -26.4501  -31.6570   25.0742 C   0  0  0  0  0  0
  -25.3688  -31.3713   26.1441 C   0  0  0  0  0  0
  -27.0324  -30.2976   24.6245 C   0  0  0  0  0  0
  -27.6073  -32.4281   25.7490 C   0  0  0  0  0  0
  -27.5584  -37.1789   24.8447 C   0  0  0  0  0  0
  -21.4228  -29.3055   22.3634 N   0  0  0  0  0  0
  -26.4274  -37.3775   23.9418 N   0  0  0  0  0  0
  -24.7035  -31.0460   22.0975 N   0  0  0  0  0  0
  -23.4207  -28.8108   23.2992 O   0  0  0  0  0  0
  -28.2864  -26.2874   20.2283 O   0  0  0  0  0  0
  -26.5642  -34.8916   22.4683 O   0  0  0  0  0  0
  -23.5488  -32.1346   23.7255 O   0  0  0  0  0  0
  -29.5165  -17.2301   18.8352 C   0  0  0  0  0  0
  -29.1609  -19.6597   18.7812 C   0  0  0  0  0  0
  -29.6350  -18.5383   20.8814 C   0  0  0  0  0  0
  -29.2270  -18.4110   18.1170 C   0  0  0  0  0  0
  -29.7302  -17.2270   20.2312 C   0  0  0  0  0  0
  -29.3545  -19.7937   20.1749 C   0  0  0  0  0  0
  -28.2193  -19.1883   15.9558 C   0  0  0  0  0  0
  -28.9161  -18.2954   16.6820 C   0  0  0  0  0  0
  -28.0224  -24.8705   20.3077 C   0  0  0  0  0  0
  -28.8949  -23.7810   20.3297 C   0  0  0  0  0  0
  -30.3945  -23.9957   20.3449 C   0  0  0  0  0  0
  -28.4431  -22.2348   20.2921 C   0  0  0  0  0  0
  -29.8739  -15.8883   20.8856 N   0  0  0  0  0  0
  -29.3369  -21.1073   20.7663 O   0  0  0  0  0  0
  -31.4841  -12.5873   19.2127 H   0  0  0  0  0  0
  -30.3621  -11.4903   19.9646 H   0  0  0  0  0  0
  -29.8242  -11.7955   17.5173 H   0  0  0  0  0  0
  -29.6589  -13.5149   17.7587 H   0  0  0  0  0  0
  -27.8923  -11.3094   18.8745 H   0  0  0  0  0  0
  -27.4083  -12.5912   17.7942 H   0  0  0  0  0  0
  -27.6487  -14.2699   19.4997 H   0  0  0  0  0  0
  -28.7132  -12.1613   21.4313 H   0  0  0  0  0  0
  -28.4043  -13.8316   21.8236 H   0  0  0  0  0  0
  -25.2805   -9.5671   22.4725 H   0  0  0  0  0  0
  -24.0012   -7.4620   22.7429 H   0  0  0  0  0  0
  -21.0856   -8.8804   19.8923 H   0  0  0  0  0  0
  -22.3745  -10.9681   19.6125 H   0  0  0  0  0  0
  -21.2059   -7.6147   23.9731 H   0  0  0  0  0  0
  -21.1461   -6.0491   25.9054 H   0  0  0  0  0  0
  -22.0621   -2.7633   23.2787 H   0  0  0  0  0  0
  -22.4078  -11.9913   22.4833 H   0  0  0  0  0  0
  -21.1075  -13.1248   22.2591 H   0  0  0  0  0  0
  -24.6619  -15.8542   20.5358 H   0  0  0  0  0  0
  -26.2770  -15.6369   20.1035 H   0  0  0  0  0  0
  -26.7232  -32.5389   23.1092 H   0  0  0  0  0  0
  -25.0043  -33.9667   25.0376 H   0  0  0  0  0  0
  -22.7356  -31.3002   21.3938 H   0  0  0  0  0  0
  -23.3766  -35.9608   23.3254 H   0  0  0  0  0  0
  -24.3599  -36.8960   22.2061 H   0  0  0  0  0  0
  -23.7234  -37.6469   23.6693 H   0  0  0  0  0  0
  -26.1215  -31.5135   20.6143 H   0  0  0  0  0  0
  -26.8618  -30.8088   22.0177 H   0  0  0  0  0  0
  -28.1093  -28.8686   21.2704 H   0  0  0  0  0  0
  -25.9931  -25.9352   18.9214 H   0  0  0  0  0  0
  -24.0078  -27.3416   18.9234 H   0  0  0  0  0  0
  -23.7844  -30.5905   19.4018 H   0  0  0  0  0  0
  -22.7767  -29.2463   19.8459 H   0  0  0  0  0  0
  -25.1286  -36.1900   25.0816 H   0  0  0  0  0  0
  -21.0008  -28.3303   24.1369 H   0  0  0  0  0  0
  -20.5693  -26.2310   23.3618 H   0  0  0  0  0  0
  -21.6656  -26.7433   22.1204 H   0  0  0  0  0  0
  -19.6905  -25.6284   21.1268 H   0  0  0  0  0  0
  -19.6695  -27.3181   20.6741 H   0  0  0  0  0  0
  -17.4200  -26.6686   21.4042 H   0  0  0  0  0  0
  -18.0341  -26.0097   22.9041 H   0  0  0  0  0  0
  -19.7930  -30.7316   24.2253 H   0  0  0  0  0  0
  -17.4995  -31.6262   24.5170 H   0  0  0  0  0  0
  -15.5349  -30.2973   23.7652 H   0  0  0  0  0  0
  -15.8694  -28.0838   22.7015 H   0  0  0  0  0  0
  -24.5865  -30.7081   25.7748 H   0  0  0  0  0  0
  -24.8876  -32.2869   26.4893 H   0  0  0  0  0  0
  -25.7975  -30.8848   27.0212 H   0  0  0  0  0  0
  -26.2901  -29.6728   24.1271 H   0  0  0  0  0  0
  -27.3984  -29.7261   25.4791 H   0  0  0  0  0  0
  -27.8811  -30.4254   23.9513 H   0  0  0  0  0  0
  -27.2736  -33.3603   26.2069 H   0  0  0  0  0  0
  -28.3877  -32.6784   25.0283 H   0  0  0  0  0  0
  -28.0750  -31.8376   26.5388 H   0  0  0  0  0  0
  -28.2553  -38.0133   24.7570 H   0  0  0  0  0  0
  -28.1129  -36.2677   24.6165 H   0  0  0  0  0  0
  -27.2327  -37.1318   25.8852 H   0  0  0  0  0  0
  -20.9404  -29.8769   21.6839 H   0  0  0  0  0  0
  -26.0152  -38.2837   24.1451 H   0  0  0  0  0  0
  -29.5270  -16.2941   18.2966 H   0  0  0  0  0  0
  -29.0011  -20.5375   18.1762 H   0  0  0  0  0  0
  -29.7725  -18.5862   21.9532 H   0  0  0  0  0  0
  -28.0470  -19.0273   14.9020 H   0  0  0  0  0  0
  -27.7991  -20.0852   16.3855 H   0  0  0  0  0  0
  -29.2933  -17.4180   16.1736 H   0  0  0  0  0  0
  -26.9626  -24.6637   20.3423 H   0  0  0  0  0  0
  -30.6429  -25.0581   20.3657 H   0  0  0  0  0  0
  -30.8470  -23.5561   19.4557 H   0  0  0  0  0  0
  -30.8371  -23.5252   21.2227 H   0  0  0  0  0  0
  -28.1279  -22.0638   19.2667 H   0  0  0  0  0  0
  -27.5224  -22.1558   20.8706 H   0  0  0  0  0  0
  -29.1136  -15.6578   21.5092 H   0  0  0  0  0  0
  1 25  1  0  0  0
  1 30  2  0  0  0
  1 83  1  0  0  0
  2  3  1  0  0  0
  2 25  1  0  0  0
  2 85  1  0  0  0
  2 86  1  0  0  0
  3  4  1  0  0  0
  3 87  1  0  0  0
  3 88  1  0  0  0
  4  5  1  0  0  0
  4 89  1  0  0  0
  4 90  1  0  0  0
  5  6  1  0  0  0
  5 26  1  0  0  0
  5 91  1  0  0  0
  6 25  1  0  0  0
  6 92  1  0  0  0
  6 93  1  0  0  0
  7  8  2  0  0  0
  7 26  1  0  0  0
  7 29  1  0  0  0
  8  9  1  0  0  0
  8 22  1  0  0  0
  9 10  1  0  0  0
  9 27  2  0  0  0
 10 11  2  0  0  0
 10 15  1  0  0  0
 11 12  1  0  0  0
 11 94  1  0  0  0
 12 13  2  0  0  0
 12 95  1  0  0  0
 13 14  1  0  0  0
 13 31  1  0  0  0
 14 15  2  0  0  0
 14 96  1  0  0  0
 15 97  1  0  0  0
 16 17  2  0  0  0
 16 21  1  0  0  0
 16 31  1  0  0  0
 17 18  1  0  0  0
 17 98  1  0  0  0
 18 19  2  0  0  0
 18 99  1  0  0  0
 19 20  1  0  0  0
 19 24  1  0  0  0
 20 21  2  0  0  0
 20100  1  0  0  0
 21 23  1  0  0  0
 22 28  1  0  0  0
 22 32  2  0  0  0
 26 27  1  0  0  0
 28101  1  0  0  0
 28102  1  0  0  0
 29103  1  0  0  0
 29104  1  0  0  0
 33 34  1  0  0  0
 33 66  1  0  0  0
 33 70  2  0  0  0
 34 36  1  0  0  0
 34 59  1  0  0  0
 34105  1  0  0  0
 35 44  2  0  0  0
 35 45  1  0  0  0
 35 68  1  0  0  0
 36 56  1  0  0  0
 36106  1  0  0  0
 37 39  1  0  0  0
 37 47  1  0  0  0
 37 66  1  0  0  0
 37107  1  0  0  0
 38 43  2  0  0  0
 38 46  1  0  0  0
 38 47  1  0  0  0
 39 64  1  0  0  0
 39 67  2  0  0  0
 40 52  1  0  0  0
 40 53  2  0  0  0
 40 58  1  0  0  0
 41108  1  0  0  0
 41109  1  0  0  0
 41110  1  0  0  0
 41 48  1  0  0  0
 42 43  1  0  0  0
 42 66  1  0  0  0
 42111  1  0  0  0
 42112  1  0  0  0
 43 44  1  0  0  0
 44113  1  0  0  0
 45 46  2  0  0  0
 45114  1  0  0  0
 46115  1  0  0  0
 47116  1  0  0  0
 47117  1  0  0  0
 48 56  1  0  0  0
 48 65  1  0  0  0
 48118  1  0  0  0
 49 50  1  0  0  0
 49 53  1  0  0  0
 49 64  1  0  0  0
 49119  1  0  0  0
 50 51  1  0  0  0
 50120  1  0  0  0
 50121  1  0  0  0
 51 52  1  0  0  0
 51122  1  0  0  0
 51123  1  0  0  0
 52124  1  0  0  0
 52125  1  0  0  0
 53 54  1  0  0  0
 54 55  2  0  0  0
 54126  1  0  0  0
 55 57  1  0  0  0
 55127  1  0  0  0
 56 69  2  0  0  0
 57 58  2  0  0  0
 57128  1  0  0  0
 58129  1  0  0  0
 59 60  1  0  0  0
 59 61  1  0  0  0
 59 62  1  0  0  0
 60130  1  0  0  0
 60131  1  0  0  0
 60132  1  0  0  0
 61133  1  0  0  0
 61134  1  0  0  0
 61135  1  0  0  0
 62136  1  0  0  0
 62137  1  0  0  0
 62138  1  0  0  0
 63 65  1  0  0  0
 63139  1  0  0  0
 63140  1  0  0  0
 63141  1  0  0  0
 64142  1  0  0  0
 65143  1  0  0  0
 68 79  1  0  0  0
 71 74  2  0  0  0
 71 75  1  0  0  0
 71144  1  0  0  0
 72 74  1  0  0  0
 72 76  2  0  0  0
 72145  1  0  0  0
 73 75  2  0  0  0
 73 76  1  0  0  0
 73146  1  0  0  0
 74 78  1  0  0  0
 75 83  1  0  0  0
 76 84  1  0  0  0
 77 78  2  0  0  0
 77147  1  0  0  0
 77148  1  0  0  0
 78149  1  0  0  0
 79 80  2  0  0  0
 79150  1  0  0  0
 80 81  1  0  0  0
 80 82  1  0  0  0
 81151  1  0  0  0
 81152  1  0  0  0
 81153  1  0  0  0
 82 84  1  0  0  0
 82154  1  0  0  0
 82155  1  0  0  0
 83156  1  0  0  0
M  ISO  4   1 100  68 101  79 101  83 100
M  END
> <chiral flag>
0

> <version>
0

> <s_m_source_file>
/data/baiqing/PycharmProjects/Reinvent-master-3.2/result/LINK_invent/BTK/process_docking_weight1_custom_product_contain_oxygen_bond_distance_aromatic_linkinvent_7_9_3/rearranged_h_0115.sdf

> <i_m_source_file_index>
90

> <r_mmod_Potential_Energy-OPLS-2005>
277.812896728516

> <r_mmod_Stretch_Energy-OPLS-2005>
146.659164428711

> <r_mmod_Bend_Energy-OPLS-2005>
173.162841796875

> <r_mmod_Torsional_Energy-OPLS-2005>
258.295532226562

> <r_mmod_Improper_Torsional_Energy-OPLS-2005>
4.96651172637939

> <r_mmod_Van_der_Waal_Energy-OPLS-2005>
141.03581237793

> <r_mmod_Electrostatic_Energy-OPLS-2005>
-339.408996582031

> <r_mmod_Solvation_Energy-OPLS-2005>
-210.163391113281

> <b_mmod_Minimization_Converged-OPLS-2005>
0

> <r_mmod_RMS_Derivative-OPLS-2005>
3.25444865226746

$$$$
90
                    3D
 Structure written by MMmdl.
149157  0  0  1  0            999 V2000
  -30.5086  -15.0982   20.3999 C   0  0  0  0  0  0
  -30.4399  -12.6854   19.5310 C   0  0  0  0  0  0
  -29.5399  -12.5673   18.2793 C   0  0  0  0  0  0
  -28.0778  -12.3168   18.6943 C   0  0  0  0  0  0
  -27.6231  -13.2650   19.8334 C   0  0  2  0  0  0
  -28.6558  -13.3699   20.9760 C   0  0  0  0  0  0
  -25.2437  -13.8227   20.5713 C   0  0  0  0  0  0
  -24.1752  -13.0446   20.9217 C   0  0  0  0  0  0
  -24.6390  -11.6932   20.8734 C   0  0  0  0  0  0
  -23.9083  -10.4291   21.0386 C   0  0  0  0  0  0
  -24.3617   -9.4212   21.9179 C   0  0  0  0  0  0
  -23.6284   -8.2243   22.0757 C   0  0  0  0  0  0
  -22.4266   -8.0276   21.3545 C   0  0  0  0  0  0
  -21.9906   -9.0265   20.4667 C   0  0  0  0  0  0
  -22.7243  -10.2136   20.3055 C   0  0  0  0  0  0
  -21.6858   -6.0732   22.5275 C   0  0  0  0  0  0
  -21.4026   -6.5635   23.8204 C   0  0  0  0  0  0
  -21.3665   -5.6783   24.9161 C   0  0  0  0  0  0
  -21.6027   -4.3038   24.7210 C   0  0  0  0  0  0
  -21.8826   -3.8141   23.4335 C   0  0  0  0  0  0
  -21.9188   -4.6956   22.3391 C   0  0  0  0  0  0
  -22.7757  -13.5225   21.1854 C   0  0  0  0  0  0
  -22.1661   -4.2145   21.0967 F   0  0  0  0  0  0
  -21.5639   -3.4533   25.7735 F   0  0  0  0  0  0
  -29.9196  -13.8171   20.3720 N   0  0  0  0  0  0
  -26.2859  -12.9492   20.3203 N   0  0  0  0  0  0
  -25.9329  -11.6608   20.5685 N   0  0  0  0  0  0
  -22.0388  -12.8244   22.0410 N   0  0  0  0  0  0
  -25.4102  -15.1949   20.4124 N   0  0  0  0  0  0
  -31.7183  -15.0983   20.1387 O   0  0  0  0  0  0
  -21.6638   -6.8870   21.4233 O   0  0  0  0  0  0
  -22.3438  -14.5543   20.6723 O   0  0  0  0  0  0
  -24.6529  -31.8365   23.1808 C   0  0  0  0  0  0
  -25.9257  -32.4671   23.8235 C   0  0  1  0  0  0
  -27.2059  -27.0302   20.1778 C   0  0  0  0  0  0
  -25.5962  -33.8481   24.2168 N   0  0  0  0  0  0
  -23.4613  -30.4523   21.5306 C   0  0  2  0  0  0
  -24.9087  -28.8552   20.1177 C   0  0  0  0  0  0
  -22.7635  -29.4509   22.4873 C   0  0  0  0  0  0
  -18.0323  -28.1375   22.8497 C   0  0  0  0  0  0
  -24.1494  -36.7240   23.2643 C   0  0  0  0  0  0
  -26.0241  -30.6729   21.3962 C   0  0  0  0  0  0
  -26.0900  -29.2717   20.7451 C   0  0  0  0  0  0
  -27.2368  -28.3760   20.7557 C   0  0  0  0  0  0
  -26.0007  -26.7396   19.5013 C   0  0  0  0  0  0
  -24.8821  -27.6068   19.4790 C   0  0  0  0  0  0
  -23.6925  -29.7721   20.1547 C   0  0  0  0  0  0
  -25.4132  -36.3029   24.0317 C   0  0  1  0  0  0
  -20.5949  -28.3718   23.1245 C   0  0  2  0  0  0
  -20.6814  -26.9414   22.5415 C   0  0  0  0  0  0
  -19.5774  -26.6367   21.5235 C   0  0  0  0  0  0
  -18.1953  -26.7919   22.1639 C   0  0  0  0  0  0
  -19.1578  -28.8872   23.2857 C   0  0  0  0  0  0
  -18.9474  -30.1470   23.8879 C   0  0  0  0  0  0
  -17.6463  -30.6576   24.0556 C   0  0  0  0  0  0
  -25.9084  -34.9399   23.5057 C   0  0  0  0  0  0
  -16.5365  -29.9059   23.6328 C   0  0  0  0  0  0
  -16.7304  -28.6472   23.0373 C   0  0  0  0  0  0
  -26.4518  -31.6559   25.0724 C   0  0  0  0  0  0
  -25.3652  -31.3795   26.1390 C   0  0  0  0  0  0
  -27.0377  -30.2940   24.6358 C   0  0  0  0  0  0
  -27.6062  -32.4325   25.7503 C   0  0  0  0  0  0
  -27.5592  -37.1775   24.8460 C   0  0  0  0  0  0
  -21.4319  -29.3024   22.3609 N   0  0  0  0  0  0
  -26.4291  -37.3743   23.9419 N   0  0  0  0  0  0
  -24.7340  -31.0121   22.0899 N   0  0  0  0  0  0
  -23.4242  -28.8079   23.3070 O   0  0  0  0  0  0
  -28.2361  -25.9899   20.2093 O   0  0  0  0  0  0
  -26.5687  -34.8902   22.4644 O   0  0  0  0  0  0
  -23.5618  -32.1284   23.6955 O   0  0  0  0  0  0
  -29.1153  -19.0135   20.5368 C   0  0  0  0  0  0
  -29.4509  -20.3896   20.2772 C   0  0  0  0  0  0
  -30.0566  -17.8083   20.2939 C   0  0  0  0  0  0
  -30.8203  -20.5428   19.7588 C   0  0  0  0  0  0
  -28.8163  -23.3401   20.2702 C   0  0  0  0  0  0
  -27.9809  -24.5185   20.3666 C   0  0  0  0  0  0
  -28.5112  -21.7311   20.4923 C   0  0  0  0  0  0
  -32.9135  -19.5294   18.9915 C   0  0  0  0  0  0
  -31.2360  -18.0532   19.8099 N   0  0  0  0  0  0
  -31.5554  -19.3935   19.5399 N   0  0  0  0  0  0
  -29.7407  -16.3305   20.5342 N   0  0  0  0  0  0
  -31.3276  -21.6440   19.5226 O   0  0  0  0  0  0
  -27.3719  -21.4899   20.9036 O   0  0  0  0  0  0
  -31.4765  -12.8424   19.2273 H   0  0  0  0  0  0
  -30.4392  -11.7497   20.0950 H   0  0  0  0  0  0
  -29.8927  -11.7693   17.6268 H   0  0  0  0  0  0
  -29.6008  -13.4905   17.7000 H   0  0  0  0  0  0
  -28.0023  -11.2808   19.0281 H   0  0  0  0  0  0
  -27.4164  -12.4115   17.8347 H   0  0  0  0  0  0
  -27.5651  -14.2503   19.3704 H   0  0  0  0  0  0
  -28.7719  -12.4206   21.5006 H   0  0  0  0  0  0
  -28.3227  -14.0951   21.7206 H   0  0  0  0  0  0
  -25.2756   -9.5715   22.4754 H   0  0  0  0  0  0
  -24.0002   -7.4650   22.7491 H   0  0  0  0  0  0
  -21.0841   -8.8782   19.8969 H   0  0  0  0  0  0
  -22.3685  -10.9677   19.6162 H   0  0  0  0  0  0
  -21.2019   -7.6148   23.9710 H   0  0  0  0  0  0
  -21.1494   -6.0506   25.9064 H   0  0  0  0  0  0
  -22.0599   -2.7601   23.2824 H   0  0  0  0  0  0
  -22.3993  -11.9942   22.4847 H   0  0  0  0  0  0
  -21.1015  -13.1301   22.2607 H   0  0  0  0  0  0
  -24.6365  -15.8432   20.5152 H   0  0  0  0  0  0
  -26.2517  -15.6343   20.0624 H   0  0  0  0  0  0
  -26.7346  -32.5232   23.0976 H   0  0  0  0  0  0
  -25.0045  -33.9583   25.0279 H   0  0  0  0  0  0
  -22.7657  -31.2803   21.3702 H   0  0  0  0  0  0
  -23.3780  -35.9536   23.3265 H   0  0  0  0  0  0
  -24.3588  -36.8909   22.2061 H   0  0  0  0  0  0
  -23.7205  -37.6413   23.6696 H   0  0  0  0  0  0
  -26.1903  -31.4143   20.6147 H   0  0  0  0  0  0
  -26.8928  -30.7312   22.0393 H   0  0  0  0  0  0
  -28.1372  -28.6897   21.2645 H   0  0  0  0  0  0
  -25.8927  -25.7842   19.0078 H   0  0  0  0  0  0
  -23.9801  -27.2848   18.9772 H   0  0  0  0  0  0
  -23.8393  -30.5401   19.3950 H   0  0  0  0  0  0
  -22.8026  -29.2218   19.8468 H   0  0  0  0  0  0
  -25.1309  -36.1863   25.0804 H   0  0  0  0  0  0
  -21.0028  -28.3305   24.1376 H   0  0  0  0  0  0
  -20.5730  -26.2331   23.3642 H   0  0  0  0  0  0
  -21.6672  -26.7421   22.1207 H   0  0  0  0  0  0
  -19.6938  -25.6276   21.1281 H   0  0  0  0  0  0
  -19.6706  -27.3170   20.6756 H   0  0  0  0  0  0
  -17.4240  -26.6711   21.4021 H   0  0  0  0  0  0
  -18.0307  -26.0049   22.9010 H   0  0  0  0  0  0
  -19.7931  -30.7307   24.2245 H   0  0  0  0  0  0
  -17.4991  -31.6253   24.5148 H   0  0  0  0  0  0
  -15.5358  -30.2938   23.7637 H   0  0  0  0  0  0
  -15.8718  -28.0759   22.7110 H   0  0  0  0  0  0
  -24.5824  -30.7172   25.7683 H   0  0  0  0  0  0
  -24.8832  -32.2985   26.4729 H   0  0  0  0  0  0
  -25.7857  -30.8995   27.0236 H   0  0  0  0  0  0
  -26.2988  -29.6677   24.1349 H   0  0  0  0  0  0
  -27.3945  -29.7250   25.4955 H   0  0  0  0  0  0
  -27.8922  -30.4173   23.9710 H   0  0  0  0  0  0
  -27.2675  -33.3646   26.2036 H   0  0  0  0  0  0
  -28.3870  -32.6855   25.0324 H   0  0  0  0  0  0
  -28.0726  -31.8479   26.5444 H   0  0  0  0  0  0
  -28.2584  -38.0097   24.7544 H   0  0  0  0  0  0
  -28.1114  -36.2636   24.6227 H   0  0  0  0  0  0
  -27.2327  -37.1354   25.8863 H   0  0  0  0  0  0
  -20.9570  -29.8709   21.6739 H   0  0  0  0  0  0
  -26.0169  -38.2819   24.1398 H   0  0  0  0  0  0
  -28.1266  -18.8320   20.9330 H   0  0  0  0  0  0
  -29.8441  -23.5470   20.0224 H   0  0  0  0  0  0
  -26.9408  -24.3697   20.6224 H   0  0  0  0  0  0
  -33.6054  -19.8298   19.7804 H   0  0  0  0  0  0
  -32.9655  -20.2726   18.1918 H   0  0  0  0  0  0
  -33.2885  -18.5948   18.5678 H   0  0  0  0  0  0
  -28.7827  -16.1445   20.7828 H   0  0  0  0  0  0
  1 25  1  0  0  0
  1 30  2  0  0  0
  1 81  1  0  0  0
  2  3  1  0  0  0
  2 25  1  0  0  0
  2 84  1  0  0  0
  2 85  1  0  0  0
  3  4  1  0  0  0
  3 86  1  0  0  0
  3 87  1  0  0  0
  4  5  1  0  0  0
  4 88  1  0  0  0
  4 89  1  0  0  0
  5  6  1  0  0  0
  5 26  1  0  0  0
  5 90  1  0  0  0
  6 25  1  0  0  0
  6 91  1  0  0  0
  6 92  1  0  0  0
  7  8  2  0  0  0
  7 26  1  0  0  0
  7 29  1  0  0  0
  8  9  1  0  0  0
  8 22  1  0  0  0
  9 10  1  0  0  0
  9 27  2  0  0  0
 10 11  2  0  0  0
 10 15  1  0  0  0
 11 12  1  0  0  0
 11 93  1  0  0  0
 12 13  2  0  0  0
 12 94  1  0  0  0
 13 14  1  0  0  0
 13 31  1  0  0  0
 14 15  2  0  0  0
 14 95  1  0  0  0
 15 96  1  0  0  0
 16 17  2  0  0  0
 16 21  1  0  0  0
 16 31  1  0  0  0
 17 18  1  0  0  0
 17 97  1  0  0  0
 18 19  2  0  0  0
 18 98  1  0  0  0
 19 20  1  0  0  0
 19 24  1  0  0  0
 20 21  2  0  0  0
 20 99  1  0  0  0
 21 23  1  0  0  0
 22 28  1  0  0  0
 22 32  2  0  0  0
 26 27  1  0  0  0
 28100  1  0  0  0
 28101  1  0  0  0
 29102  1  0  0  0
 29103  1  0  0  0
 33 34  1  0  0  0
 33 66  1  0  0  0
 33 70  2  0  0  0
 34 36  1  0  0  0
 34 59  1  0  0  0
 34104  1  0  0  0
 35 44  2  0  0  0
 35 45  1  0  0  0
 35 68  1  0  0  0
 36 56  1  0  0  0
 36105  1  0  0  0
 37 39  1  0  0  0
 37 47  1  0  0  0
 37 66  1  0  0  0
 37106  1  0  0  0
 38 43  2  0  0  0
 38 46  1  0  0  0
 38 47  1  0  0  0
 39 64  1  0  0  0
 39 67  2  0  0  0
 40 52  1  0  0  0
 40 53  2  0  0  0
 40 58  1  0  0  0
 41107  1  0  0  0
 41108  1  0  0  0
 41109  1  0  0  0
 41 48  1  0  0  0
 42 43  1  0  0  0
 42 66  1  0  0  0
 42110  1  0  0  0
 42111  1  0  0  0
 43 44  1  0  0  0
 44112  1  0  0  0
 45 46  2  0  0  0
 45113  1  0  0  0
 46114  1  0  0  0
 47115  1  0  0  0
 47116  1  0  0  0
 48 56  1  0  0  0
 48 65  1  0  0  0
 48117  1  0  0  0
 49 50  1  0  0  0
 49 53  1  0  0  0
 49 64  1  0  0  0
 49118  1  0  0  0
 50 51  1  0  0  0
 50119  1  0  0  0
 50120  1  0  0  0
 51 52  1  0  0  0
 51121  1  0  0  0
 51122  1  0  0  0
 52123  1  0  0  0
 52124  1  0  0  0
 53 54  1  0  0  0
 54 55  2  0  0  0
 54125  1  0  0  0
 55 57  1  0  0  0
 55126  1  0  0  0
 56 69  2  0  0  0
 57 58  2  0  0  0
 57127  1  0  0  0
 58128  1  0  0  0
 59 60  1  0  0  0
 59 61  1  0  0  0
 59 62  1  0  0  0
 60129  1  0  0  0
 60130  1  0  0  0
 60131  1  0  0  0
 61132  1  0  0  0
 61133  1  0  0  0
 61134  1  0  0  0
 62135  1  0  0  0
 62136  1  0  0  0
 62137  1  0  0  0
 63 65  1  0  0  0
 63138  1  0  0  0
 63139  1  0  0  0
 63140  1  0  0  0
 64141  1  0  0  0
 65142  1  0  0  0
 68 76  1  0  0  0
 71 72  2  0  0  0
 71 73  1  0  0  0
 71143  1  0  0  0
 72 74  1  0  0  0
 72 77  1  0  0  0
 73 79  2  0  0  0
 73 81  1  0  0  0
 74 80  1  0  0  0
 74 82  2  0  0  0
 75 76  2  0  0  0
 75 77  1  0  0  0
 75144  1  0  0  0
 76145  1  0  0  0
 77 83  2  0  0  0
 78 80  1  0  0  0
 78146  1  0  0  0
 78147  1  0  0  0
 78148  1  0  0  0
 79 80  1  0  0  0
 81149  1  0  0  0
M  ISO  4   1 100  68 101  76 101  81 100
M  END
> <chiral flag>
0

> <version>
0

> <s_m_source_file>
/data/baiqing/PycharmProjects/Reinvent-master-3.2/result/LINK_invent/BTK/process_docking_weight1_custom_product_contain_oxygen_bond_distance_aromatic_linkinvent_7_9_3/rearranged_h_0115.sdf

> <i_m_source_file_index>
91

> <r_mmod_Potential_Energy-OPLS-2005>
657.159912109375

> <r_mmod_Stretch_Energy-OPLS-2005>
370.607330322266

> <r_mmod_Bend_Energy-OPLS-2005>
307.369445800781

> <r_mmod_Torsional_Energy-OPLS-2005>
213.289657592773

> <r_mmod_Improper_Torsional_Energy-OPLS-2005>
3.96017861366272

> <r_mmod_Van_der_Waal_Energy-OPLS-2005>
153.182357788086

> <r_mmod_Electrostatic_Energy-OPLS-2005>
-451.293792724609

> <r_mmod_Solvation_Energy-OPLS-2005>
-241.891387939453

> <b_mmod_Minimization_Converged-OPLS-2005>
0

> <r_mmod_RMS_Derivative-OPLS-2005>
3.65986275672913

$$$$
91
                    3D
 Structure written by MMmdl.
153161  0  0  1  0            999 V2000
  -30.5999  -14.8146   20.5209 C   0  0  0  0  0  0
  -30.4426  -12.5119   19.5084 C   0  0  0  0  0  0
  -29.5262  -12.5009   18.2628 C   0  0  0  0  0  0
  -28.0500  -12.3102   18.6647 C   0  0  0  0  0  0
  -27.6378  -13.2365   19.8405 C   0  0  2  0  0  0
  -28.6704  -13.2096   20.9895 C   0  0  0  0  0  0
  -25.2460  -13.8221   20.5622 C   0  0  0  0  0  0
  -24.1801  -13.0455   20.9197 C   0  0  0  0  0  0
  -24.6402  -11.6930   20.8747 C   0  0  0  0  0  0
  -23.9113  -10.4299   21.0449 C   0  0  0  0  0  0
  -24.3684   -9.4201   21.9188 C   0  0  0  0  0  0
  -23.6332   -8.2255   22.0790 C   0  0  0  0  0  0
  -22.4304   -8.0298   21.3599 C   0  0  0  0  0  0
  -21.9943   -9.0264   20.4707 C   0  0  0  0  0  0
  -22.7291  -10.2125   20.3105 C   0  0  0  0  0  0
  -21.6848   -6.0765   22.5291 C   0  0  0  0  0  0
  -21.3980   -6.5653   23.8211 C   0  0  0  0  0  0
  -21.3665   -5.6812   24.9172 C   0  0  0  0  0  0
  -21.6072   -4.3073   24.7231 C   0  0  0  0  0  0
  -21.8804   -3.8167   23.4344 C   0  0  0  0  0  0
  -21.9184   -4.6994   22.3401 C   0  0  0  0  0  0
  -22.7805  -13.5234   21.1857 C   0  0  0  0  0  0
  -22.1653   -4.2162   21.0992 F   0  0  0  0  0  0
  -21.5646   -3.4558   25.7751 F   0  0  0  0  0  0
  -29.9732  -13.5846   20.4231 N   0  0  0  0  0  0
  -26.2895  -12.9431   20.3177 N   0  0  0  0  0  0
  -25.9326  -11.6581   20.5767 N   0  0  0  0  0  0
  -22.0541  -12.8183   22.0447 N   0  0  0  0  0  0
  -25.4129  -15.1939   20.3977 N   0  0  0  0  0  0
  -31.7901  -14.9003   20.1957 O   0  0  0  0  0  0
  -21.6679   -6.8910   21.4268 O   0  0  0  0  0  0
  -22.3461  -14.5548   20.6752 O   0  0  0  0  0  0
  -24.6338  -31.8519   23.1955 C   0  0  0  0  0  0
  -25.9180  -32.4700   23.8260 C   0  0  1  0  0  0
  -27.1970  -27.2426   20.1261 C   0  0  0  0  0  0
  -25.6007  -33.8505   24.2210 N   0  0  0  0  0  0
  -23.4262  -30.4735   21.5461 C   0  0  2  0  0  0
  -24.8686  -28.9289   20.0914 C   0  0  0  0  0  0
  -22.7529  -29.4524   22.4954 C   0  0  0  0  0  0
  -18.0321  -28.1329   22.8533 C   0  0  0  0  0  0
  -24.1511  -36.7274   23.2627 C   0  0  0  0  0  0
  -25.9710  -30.7574   21.3768 C   0  0  0  0  0  0
  -26.0453  -29.3825   20.7114 C   0  0  0  0  0  0
  -27.2135  -28.5488   20.7264 C   0  0  0  0  0  0
  -26.0155  -26.8749   19.4501 C   0  0  0  0  0  0
  -24.8628  -27.6863   19.4432 C   0  0  0  0  0  0
  -23.6402  -29.8197   20.1543 C   0  0  0  0  0  0
  -25.4140  -36.3042   24.0310 C   0  0  1  0  0  0
  -20.5916  -28.3681   23.1284 C   0  0  2  0  0  0
  -20.6857  -26.9378   22.5421 C   0  0  0  0  0  0
  -19.5815  -26.6282   21.5243 C   0  0  0  0  0  0
  -18.1998  -26.7846   22.1704 C   0  0  0  0  0  0
  -19.1574  -28.8829   23.2896 C   0  0  0  0  0  0
  -18.9500  -30.1447   23.8859 C   0  0  0  0  0  0
  -17.6489  -30.6566   24.0528 C   0  0  0  0  0  0
  -25.9063  -34.9422   23.5065 C   0  0  0  0  0  0
  -16.5381  -29.9021   23.6376 C   0  0  0  0  0  0
  -16.7312  -28.6444   23.0433 C   0  0  0  0  0  0
  -26.4529  -31.6522   25.0646 C   0  0  0  0  0  0
  -25.3736  -31.3741   26.1360 C   0  0  0  0  0  0
  -27.0372  -30.2916   24.6169 C   0  0  0  0  0  0
  -27.6083  -32.4235   25.7459 C   0  0  0  0  0  0
  -27.5584  -37.1799   24.8457 C   0  0  0  0  0  0
  -21.4239  -29.2957   22.3615 N   0  0  0  0  0  0
  -26.4313  -37.3757   23.9384 N   0  0  0  0  0  0
  -24.6956  -31.0455   22.0977 N   0  0  0  0  0  0
  -23.4217  -28.8094   23.3094 O   0  0  0  0  0  0
  -28.1996  -26.2430   20.2185 O   0  0  0  0  0  0
  -26.5613  -34.8935   22.4589 O   0  0  0  0  0  0
  -23.5481  -32.1418   23.7228 O   0  0  0  0  0  0
  -31.2980  -17.9232   21.4750 C   0  0  0  0  0  0
  -29.1608  -18.4800   20.5536 C   0  0  0  0  0  0
  -30.1024  -17.4224   20.8957 C   0  0  0  0  0  0
  -31.5023  -19.3178   21.6580 C   0  0  0  0  0  0
  -29.4396  -19.9018   20.7333 C   0  0  0  0  0  0
  -28.0303  -23.6962   20.9865 C   0  0  0  0  0  0
  -27.7997  -25.0806   20.9466 C   0  0  0  0  0  0
  -32.7645  -19.8209   22.3476 C   0  0  0  0  0  0
  -28.4247  -21.0870   20.3811 C   0  0  0  0  0  0
  -30.6135  -20.2769   21.2878 N   0  0  0  0  0  0
  -29.8193  -15.9526   20.7755 N   0  0  0  0  0  0
  -28.8741  -22.5666   20.2953 N   0  3  0  0  0  0
  -31.4812  -12.6565   19.2089 H   0  0  0  0  0  0
  -30.4221  -11.5493   20.0221 H   0  0  0  0  0  0
  -29.8310  -11.7071   17.5835 H   0  0  0  0  0  0
  -29.6376  -13.4378   17.7160 H   0  0  0  0  0  0
  -27.9165  -11.2616   18.9445 H   0  0  0  0  0  0
  -27.3993  -12.4736   17.8063 H   0  0  0  0  0  0
  -27.6236  -14.2480   19.4298 H   0  0  0  0  0  0
  -28.7171  -12.2189   21.4408 H   0  0  0  0  0  0
  -28.3809  -13.8969   21.7843 H   0  0  0  0  0  0
  -25.2850   -9.5604   22.4718 H   0  0  0  0  0  0
  -24.0031   -7.4644   22.7476 H   0  0  0  0  0  0
  -21.0878   -8.8809   19.8990 H   0  0  0  0  0  0
  -22.3799  -10.9676   19.6186 H   0  0  0  0  0  0
  -21.1956   -7.6144   23.9700 H   0  0  0  0  0  0
  -21.1500   -6.0559   25.9078 H   0  0  0  0  0  0
  -22.0590   -2.7634   23.2860 H   0  0  0  0  0  0
  -22.4265  -11.9831   22.4699 H   0  0  0  0  0  0
  -21.1185  -13.1167   22.2909 H   0  0  0  0  0  0
  -24.6377  -15.8428   20.4930 H   0  0  0  0  0  0
  -26.2416  -15.6226   20.0060 H   0  0  0  0  0  0
  -26.7214  -32.5353   23.0963 H   0  0  0  0  0  0
  -25.0257  -33.9660   25.0426 H   0  0  0  0  0  0
  -22.7211  -31.2977   21.4106 H   0  0  0  0  0  0
  -23.3763  -35.9604   23.3253 H   0  0  0  0  0  0
  -24.3632  -36.8908   22.2048 H   0  0  0  0  0  0
  -23.7275  -37.6485   23.6648 H   0  0  0  0  0  0
  -26.1207  -31.5248   20.6154 H   0  0  0  0  0  0
  -26.8439  -30.7957   22.0152 H   0  0  0  0  0  0
  -28.0976  -28.8679   21.2621 H   0  0  0  0  0  0
  -25.9593  -25.9118   18.9642 H   0  0  0  0  0  0
  -23.9676  -27.3420   18.9429 H   0  0  0  0  0  0
  -23.7557  -30.6064   19.4087 H   0  0  0  0  0  0
  -22.7536  -29.2646   19.8430 H   0  0  0  0  0  0
  -25.1298  -36.1879   25.0798 H   0  0  0  0  0  0
  -20.9951  -28.3279   24.1414 H   0  0  0  0  0  0
  -20.5830  -26.2240   23.3614 H   0  0  0  0  0  0
  -21.6748  -26.7404   22.1268 H   0  0  0  0  0  0
  -19.6755  -27.2978   20.6698 H   0  0  0  0  0  0
  -19.6978  -25.6193   21.1251 H   0  0  0  0  0  0
  -17.4193  -26.6431   21.4227 H   0  0  0  0  0  0
  -18.0523  -26.0046   22.9188 H   0  0  0  0  0  0
  -19.7968  -30.7309   24.2203 H   0  0  0  0  0  0
  -17.5011  -31.6255   24.5111 H   0  0  0  0  0  0
  -15.5384  -30.2920   23.7673 H   0  0  0  0  0  0
  -15.8723  -28.0717   22.7174 H   0  0  0  0  0  0
  -24.5938  -30.7030   25.7722 H   0  0  0  0  0  0
  -24.8906  -32.2941   26.4666 H   0  0  0  0  0  0
  -25.8078  -30.9038   27.0186 H   0  0  0  0  0  0
  -26.2966  -29.6650   24.1193 H   0  0  0  0  0  0
  -27.4009  -29.7203   25.4722 H   0  0  0  0  0  0
  -27.8853  -30.4121   23.9427 H   0  0  0  0  0  0
  -27.2679  -33.3540   26.2022 H   0  0  0  0  0  0
  -28.3958  -32.6764   25.0334 H   0  0  0  0  0  0
  -28.0656  -31.8330   26.5417 H   0  0  0  0  0  0
  -28.2582  -38.0114   24.7475 H   0  0  0  0  0  0
  -28.1093  -36.2638   24.6275 H   0  0  0  0  0  0
  -27.2299  -37.1426   25.8865 H   0  0  0  0  0  0
  -20.9524  -29.8494   21.6595 H   0  0  0  0  0  0
  -26.0172  -38.2822   24.1361 H   0  0  0  0  0  0
  -32.0626  -17.2408   21.8145 H   0  0  0  0  0  0
  -28.1958  -18.2108   20.1463 H   0  0  0  0  0  0
  -27.4439  -23.2118   21.7534 H   0  0  0  0  0  0
  -27.0974  -25.4095   21.7008 H   0  0  0  0  0  0
  -33.6356  -19.2251   22.0698 H   0  0  0  0  0  0
  -32.6676  -19.7647   23.4326 H   0  0  0  0  0  0
  -32.9912  -20.8577   22.0992 H   0  0  0  0  0  0
  -27.5835  -21.0114   21.0678 H   0  0  0  0  0  0
  -27.9823  -20.8335   19.4163 H   0  0  0  0  0  0
  -28.8406  -15.7268   20.8622 H   0  0  0  0  0  0
  -29.8055  -22.5598   20.6841 H   0  0  0  0  0  0
  -28.9651  -22.7538   19.3138 H   0  0  0  0  0  0
  1 25  1  0  0  0
  1 30  2  0  0  0
  1 81  1  0  0  0
  2  3  1  0  0  0
  2 25  1  0  0  0
  2 83  1  0  0  0
  2 84  1  0  0  0
  3  4  1  0  0  0
  3 85  1  0  0  0
  3 86  1  0  0  0
  4  5  1  0  0  0
  4 87  1  0  0  0
  4 88  1  0  0  0
  5  6  1  0  0  0
  5 26  1  0  0  0
  5 89  1  0  0  0
  6 25  1  0  0  0
  6 90  1  0  0  0
  6 91  1  0  0  0
  7  8  2  0  0  0
  7 26  1  0  0  0
  7 29  1  0  0  0
  8  9  1  0  0  0
  8 22  1  0  0  0
  9 10  1  0  0  0
  9 27  2  0  0  0
 10 11  2  0  0  0
 10 15  1  0  0  0
 11 12  1  0  0  0
 11 92  1  0  0  0
 12 13  2  0  0  0
 12 93  1  0  0  0
 13 14  1  0  0  0
 13 31  1  0  0  0
 14 15  2  0  0  0
 14 94  1  0  0  0
 15 95  1  0  0  0
 16 17  2  0  0  0
 16 21  1  0  0  0
 16 31  1  0  0  0
 17 18  1  0  0  0
 17 96  1  0  0  0
 18 19  2  0  0  0
 18 97  1  0  0  0
 19 20  1  0  0  0
 19 24  1  0  0  0
 20 21  2  0  0  0
 20 98  1  0  0  0
 21 23  1  0  0  0
 22 28  1  0  0  0
 22 32  2  0  0  0
 26 27  1  0  0  0
 28 99  1  0  0  0
 28100  1  0  0  0
 29101  1  0  0  0
 29102  1  0  0  0
 33 34  1  0  0  0
 33 66  1  0  0  0
 33 70  2  0  0  0
 34 36  1  0  0  0
 34 59  1  0  0  0
 34103  1  0  0  0
 35 44  2  0  0  0
 35 45  1  0  0  0
 35 68  1  0  0  0
 36 56  1  0  0  0
 36104  1  0  0  0
 37 39  1  0  0  0
 37 47  1  0  0  0
 37 66  1  0  0  0
 37105  1  0  0  0
 38 43  2  0  0  0
 38 46  1  0  0  0
 38 47  1  0  0  0
 39 64  1  0  0  0
 39 67  2  0  0  0
 40 52  1  0  0  0
 40 53  2  0  0  0
 40 58  1  0  0  0
 41106  1  0  0  0
 41107  1  0  0  0
 41108  1  0  0  0
 41 48  1  0  0  0
 42 43  1  0  0  0
 42 66  1  0  0  0
 42109  1  0  0  0
 42110  1  0  0  0
 43 44  1  0  0  0
 44111  1  0  0  0
 45 46  2  0  0  0
 45112  1  0  0  0
 46113  1  0  0  0
 47114  1  0  0  0
 47115  1  0  0  0
 48 56  1  0  0  0
 48 65  1  0  0  0
 48116  1  0  0  0
 49 50  1  0  0  0
 49 53  1  0  0  0
 49 64  1  0  0  0
 49117  1  0  0  0
 50 51  1  0  0  0
 50118  1  0  0  0
 50119  1  0  0  0
 51 52  1  0  0  0
 51120  1  0  0  0
 51121  1  0  0  0
 52122  1  0  0  0
 52123  1  0  0  0
 53 54  1  0  0  0
 54 55  2  0  0  0
 54124  1  0  0  0
 55 57  1  0  0  0
 55125  1  0  0  0
 56 69  2  0  0  0
 57 58  2  0  0  0
 57126  1  0  0  0
 58127  1  0  0  0
 59 60  1  0  0  0
 59 61  1  0  0  0
 59 62  1  0  0  0
 60128  1  0  0  0
 60129  1  0  0  0
 60130  1  0  0  0
 61131  1  0  0  0
 61132  1  0  0  0
 61133  1  0  0  0
 62134  1  0  0  0
 62135  1  0  0  0
 62136  1  0  0  0
 63 65  1  0  0  0
 63137  1  0  0  0
 63138  1  0  0  0
 63139  1  0  0  0
 64140  1  0  0  0
 65141  1  0  0  0
 68 77  1  0  0  0
 71 73  2  0  0  0
 71 74  1  0  0  0
 71142  1  0  0  0
 72 73  1  0  0  0
 72 75  2  0  0  0
 72143  1  0  0  0
 73 81  1  0  0  0
 74 78  1  0  0  0
 74 80  2  0  0  0
 75 79  1  0  0  0
 75 80  1  0  0  0
 76 77  2  0  0  0
 76 82  1  0  0  0
 76144  1  0  0  0
 77145  1  0  0  0
 78146  1  0  0  0
 78147  1  0  0  0
 78148  1  0  0  0
 79 82  1  0  0  0
 79149  1  0  0  0
 79150  1  0  0  0
 81151  1  0  0  0
 82152  1  0  0  0
 82153  1  0  0  0
M  CHG  1  82   1
M  ISO  4   1 100  68 101  77 101  81 100
M  END
> <chiral flag>
0

> <version>
0

> <s_m_source_file>
/data/baiqing/PycharmProjects/Reinvent-master-3.2/result/LINK_invent/BTK/process_docking_weight1_custom_product_contain_oxygen_bond_distance_aromatic_linkinvent_7_9_3/rearranged_h_0115.sdf

> <i_m_source_file_index>
92

> <r_mmod_Potential_Energy-OPLS-2005>
-131.849960327148

> <r_mmod_Stretch_Energy-OPLS-2005>
135.414749145508

> <r_mmod_Bend_Energy-OPLS-2005>
240.745101928711

> <r_mmod_Torsional_Energy-OPLS-2005>
233.328231811523

> <r_mmod_Improper_Torsional_Energy-OPLS-2005>
5.58192920684814

> <r_mmod_Van_der_Waal_Energy-OPLS-2005>
137.022888183594

> <r_mmod_Electrostatic_Energy-OPLS-2005>
-529.503967285156

> <r_mmod_Solvation_Energy-OPLS-2005>
-477.621612548828

> <b_mmod_Minimization_Converged-OPLS-2005>
0

> <r_mmod_RMS_Derivative-OPLS-2005>
7.89186668395996

$$$$
92
                    3D
 Structure written by MMmdl.
149157  0  0  1  0            999 V2000
  -30.6791  -14.6603   20.5438 C   0  0  0  0  0  0
  -30.4299  -12.4071   19.4752 C   0  0  0  0  0  0
  -29.5149  -12.5038   18.2338 C   0  0  0  0  0  0
  -28.0332  -12.3612   18.6312 C   0  0  0  0  0  0
  -27.6546  -13.2287   19.8604 C   0  0  2  0  0  0
  -28.6945  -13.0983   20.9985 C   0  0  0  0  0  0
  -25.2568  -13.8181   20.5678 C   0  0  0  0  0  0
  -24.1854  -13.0460   20.9224 C   0  0  0  0  0  0
  -24.6419  -11.6906   20.8723 C   0  0  0  0  0  0
  -23.9087  -10.4280   21.0381 C   0  0  0  0  0  0
  -24.3626   -9.4191   21.9175 C   0  0  0  0  0  0
  -23.6273   -8.2248   22.0763 C   0  0  0  0  0  0
  -22.4268   -8.0277   21.3541 C   0  0  0  0  0  0
  -21.9901   -9.0264   20.4664 C   0  0  0  0  0  0
  -22.7249  -10.2124   20.3057 C   0  0  0  0  0  0
  -21.6856   -6.0709   22.5264 C   0  0  0  0  0  0
  -21.4034   -6.5624   23.8200 C   0  0  0  0  0  0
  -21.3657   -5.6785   24.9164 C   0  0  0  0  0  0
  -21.6032   -4.3044   24.7209 C   0  0  0  0  0  0
  -21.8834   -3.8118   23.4343 C   0  0  0  0  0  0
  -21.9201   -4.6931   22.3394 C   0  0  0  0  0  0
  -22.7873  -13.5244   21.1825 C   0  0  0  0  0  0
  -22.1674   -4.2107   21.0978 F   0  0  0  0  0  0
  -21.5596   -3.4535   25.7732 F   0  0  0  0  0  0
  -30.0185  -13.4484   20.4519 N   0  0  0  0  0  0
  -26.2994  -12.9402   20.3267 N   0  0  0  0  0  0
  -25.9347  -11.6537   20.5686 N   0  0  0  0  0  0
  -22.0503  -12.8283   22.0396 N   0  0  0  0  0  0
  -25.4231  -15.1899   20.4020 N   0  0  0  0  0  0
  -31.7631  -14.8282   19.9769 O   0  0  0  0  0  0
  -21.6650   -6.8849   21.4234 O   0  0  0  0  0  0
  -22.3582  -14.5539   20.6596 O   0  0  0  0  0  0
  -24.6332  -31.8567   23.1967 C   0  0  0  0  0  0
  -25.9176  -32.4729   23.8330 C   0  0  1  0  0  0
  -27.2061  -27.2603   20.1223 C   0  0  0  0  0  0
  -25.5979  -33.8534   24.2258 N   0  0  0  0  0  0
  -23.4280  -30.4834   21.5420 C   0  0  2  0  0  0
  -24.8658  -28.9308   20.1042 C   0  0  0  0  0  0
  -22.7529  -29.4612   22.4885 C   0  0  0  0  0  0
  -18.0321  -28.1389   22.8482 C   0  0  0  0  0  0
  -24.1490  -36.7247   23.2645 C   0  0  0  0  0  0
  -25.9753  -30.7646   21.3790 C   0  0  0  0  0  0
  -26.0424  -29.3941   20.7102 C   0  0  0  0  0  0
  -27.2151  -28.5730   20.7022 C   0  0  0  0  0  0
  -25.9992  -26.8552   19.5075 C   0  0  0  0  0  0
  -24.8498  -27.6671   19.4947 C   0  0  0  0  0  0
  -23.6448  -29.8285   20.1545 C   0  0  0  0  0  0
  -25.4117  -36.3035   24.0336 C   0  0  1  0  0  0
  -20.5911  -28.3703   23.1235 C   0  0  2  0  0  0
  -20.6792  -26.9421   22.5396 C   0  0  0  0  0  0
  -19.5750  -26.6382   21.5202 C   0  0  0  0  0  0
  -18.1941  -26.7926   22.1633 C   0  0  0  0  0  0
  -19.1568  -28.8879   23.2836 C   0  0  0  0  0  0
  -18.9491  -30.1475   23.8861 C   0  0  0  0  0  0
  -17.6482  -30.6583   24.0551 C   0  0  0  0  0  0
  -25.9075  -34.9422   23.5091 C   0  0  0  0  0  0
  -16.5375  -29.9081   23.6306 C   0  0  0  0  0  0
  -16.7301  -28.6490   23.0345 C   0  0  0  0  0  0
  -26.4548  -31.6553   25.0736 C   0  0  0  0  0  0
  -25.3781  -31.3724   26.1471 C   0  0  0  0  0  0
  -27.0411  -30.2969   24.6241 C   0  0  0  0  0  0
  -27.6082  -32.4332   25.7515 C   0  0  0  0  0  0
  -27.5562  -37.1770   24.8478 C   0  0  0  0  0  0
  -21.4239  -29.3041   22.3625 N   0  0  0  0  0  0
  -26.4280  -37.3742   23.9417 N   0  0  0  0  0  0
  -24.6976  -31.0538   22.0943 N   0  0  0  0  0  0
  -23.4226  -28.8173   23.3002 O   0  0  0  0  0  0
  -28.3084  -26.3755   20.1828 O   0  0  0  0  0  0
  -26.5628  -34.8905   22.4647 O   0  0  0  0  0  0
  -23.5473  -32.1415   23.7241 O   0  0  0  0  0  0
  -28.5949  -17.6255   20.2910 C   0  0  0  0  0  0
  -28.4480  -19.0571   20.1422 C   0  0  0  0  0  0
  -29.7828  -17.2060   20.8479 C   0  0  0  0  0  0
  -29.5167  -19.8321   20.5619 C   0  0  0  0  0  0
  -30.0973  -15.8373   21.4184 C   0  0  0  0  0  0
  -28.7384  -22.2473   20.4607 C   0  0  0  0  0  0
  -29.1469  -23.7982   20.4594 C   0  0  0  0  0  0
  -28.0927  -24.9067   19.9460 C   0  0  0  0  0  0
  -29.9198  -15.6557   22.6602 N   0  0  0  0  0  0
  -29.6717  -21.2287   20.5692 N   0  0  0  0  0  0
  -27.5360  -21.9818   20.4054 O   0  0  0  0  0  0
  -30.7643  -18.6722   21.1255 S   0  0  0  0  0  0
  -31.4750  -12.5070   19.1799 H   0  0  0  0  0  0
  -30.3460  -11.4160   19.9226 H   0  0  0  0  0  0
  -29.7749  -11.7310   17.5074 H   0  0  0  0  0  0
  -29.6788  -13.4605   17.7388 H   0  0  0  0  0  0
  -27.8514  -11.3077   18.8488 H   0  0  0  0  0  0
  -27.3967  -12.6128   17.7828 H   0  0  0  0  0  0
  -27.6672  -14.2618   19.5156 H   0  0  0  0  0  0
  -28.7105  -12.0810   21.3940 H   0  0  0  0  0  0
  -28.4007  -13.7288   21.8360 H   0  0  0  0  0  0
  -25.2782   -9.5656   22.4723 H   0  0  0  0  0  0
  -23.9929   -7.4658   22.7541 H   0  0  0  0  0  0
  -21.0791   -8.8847   19.9004 H   0  0  0  0  0  0
  -22.3737  -10.9670   19.6145 H   0  0  0  0  0  0
  -21.2071   -7.6147   23.9695 H   0  0  0  0  0  0
  -21.1451   -6.0507   25.9062 H   0  0  0  0  0  0
  -22.0609   -2.7587   23.2857 H   0  0  0  0  0  0
  -22.4110  -11.9956   22.4824 H   0  0  0  0  0  0
  -21.1118  -13.1337   22.2582 H   0  0  0  0  0  0
  -24.6443  -15.8328   20.4857 H   0  0  0  0  0  0
  -26.2222  -15.5989   19.9389 H   0  0  0  0  0  0
  -26.7253  -32.5345   23.1066 H   0  0  0  0  0  0
  -25.0139  -33.9702   25.0412 H   0  0  0  0  0  0
  -22.7186  -31.3020   21.4020 H   0  0  0  0  0  0
  -23.3738  -35.9583   23.3298 H   0  0  0  0  0  0
  -24.3577  -36.8879   22.2058 H   0  0  0  0  0  0
  -23.7273  -37.6466   23.6666 H   0  0  0  0  0  0
  -26.1312  -31.5291   20.6188 H   0  0  0  0  0  0
  -26.8458  -30.7934   22.0214 H   0  0  0  0  0  0
  -28.1149  -28.9234   21.1882 H   0  0  0  0  0  0
  -25.8984  -25.8802   19.0501 H   0  0  0  0  0  0
  -23.9461  -27.2932   19.0307 H   0  0  0  0  0  0
  -23.7880  -30.6195   19.4157 H   0  0  0  0  0  0
  -22.7522  -29.2852   19.8296 H   0  0  0  0  0  0
  -25.1279  -36.1854   25.0826 H   0  0  0  0  0  0
  -21.0010  -28.3302   24.1344 H   0  0  0  0  0  0
  -20.5680  -26.2338   23.3617 H   0  0  0  0  0  0
  -21.6659  -26.7437   22.1182 H   0  0  0  0  0  0
  -19.6911  -25.6296   21.1241 H   0  0  0  0  0  0
  -19.6655  -27.3186   20.6730 H   0  0  0  0  0  0
  -17.4193  -26.6675   21.4046 H   0  0  0  0  0  0
  -18.0344  -26.0087   22.9056 H   0  0  0  0  0  0
  -19.7978  -30.7299   24.2203 H   0  0  0  0  0  0
  -17.5047  -31.6262   24.5172 H   0  0  0  0  0  0
  -15.5375  -30.2969   23.7643 H   0  0  0  0  0  0
  -15.8710  -28.0788   22.7059 H   0  0  0  0  0  0
  -24.5954  -30.7074   25.7813 H   0  0  0  0  0  0
  -24.8993  -32.2897   26.4892 H   0  0  0  0  0  0
  -25.8130  -30.8922   27.0247 H   0  0  0  0  0  0
  -26.3020  -29.6696   24.1258 H   0  0  0  0  0  0
  -27.4081  -29.7254   25.4769 H   0  0  0  0  0  0
  -27.8882  -30.4220   23.9502 H   0  0  0  0  0  0
  -27.2676  -33.3637   26.2058 H   0  0  0  0  0  0
  -28.3914  -32.6905   25.0374 H   0  0  0  0  0  0
  -28.0736  -31.8513   26.5476 H   0  0  0  0  0  0
  -28.2574  -38.0072   24.7485 H   0  0  0  0  0  0
  -28.1074  -36.2590   24.6324 H   0  0  0  0  0  0
  -27.2287  -37.1449   25.8895 H   0  0  0  0  0  0
  -20.9434  -29.8772   21.6827 H   0  0  0  0  0  0
  -26.0128  -38.2802   24.1427 H   0  0  0  0  0  0
  -27.7812  -16.9575   20.0521 H   0  0  0  0  0  0
  -27.5267  -19.4677   19.7575 H   0  0  0  0  0  0
  -30.0738  -23.9123   19.8919 H   0  0  0  0  0  0
  -29.3824  -24.0524   21.4935 H   0  0  0  0  0  0
  -27.1304  -24.6232   20.3750 H   0  0  0  0  0  0
  -27.9932  -24.7808   18.8626 H   0  0  0  0  0  0
  -29.5686  -16.4983   23.1006 H   0  0  0  0  0  0
  -30.6239  -21.5435   20.7031 H   0  0  0  0  0  0
  1 25  1  0  0  0
  1 30  2  0  0  0
  1 75  1  0  0  0
  2  3  1  0  0  0
  2 25  1  0  0  0
  2 83  1  0  0  0
  2 84  1  0  0  0
  3  4  1  0  0  0
  3 85  1  0  0  0
  3 86  1  0  0  0
  4  5  1  0  0  0
  4 87  1  0  0  0
  4 88  1  0  0  0
  5  6  1  0  0  0
  5 26  1  0  0  0
  5 89  1  0  0  0
  6 25  1  0  0  0
  6 90  1  0  0  0
  6 91  1  0  0  0
  7  8  2  0  0  0
  7 26  1  0  0  0
  7 29  1  0  0  0
  8  9  1  0  0  0
  8 22  1  0  0  0
  9 10  1  0  0  0
  9 27  2  0  0  0
 10 11  2  0  0  0
 10 15  1  0  0  0
 11 12  1  0  0  0
 11 92  1  0  0  0
 12 13  2  0  0  0
 12 93  1  0  0  0
 13 14  1  0  0  0
 13 31  1  0  0  0
 14 15  2  0  0  0
 14 94  1  0  0  0
 15 95  1  0  0  0
 16 17  2  0  0  0
 16 21  1  0  0  0
 16 31  1  0  0  0
 17 18  1  0  0  0
 17 96  1  0  0  0
 18 19  2  0  0  0
 18 97  1  0  0  0
 19 20  1  0  0  0
 19 24  1  0  0  0
 20 21  2  0  0  0
 20 98  1  0  0  0
 21 23  1  0  0  0
 22 28  1  0  0  0
 22 32  2  0  0  0
 26 27  1  0  0  0
 28 99  1  0  0  0
 28100  1  0  0  0
 29101  1  0  0  0
 29102  1  0  0  0
 33 34  1  0  0  0
 33 66  1  0  0  0
 33 70  2  0  0  0
 34 36  1  0  0  0
 34 59  1  0  0  0
 34103  1  0  0  0
 35 44  2  0  0  0
 35 45  1  0  0  0
 35 68  1  0  0  0
 36 56  1  0  0  0
 36104  1  0  0  0
 37 39  1  0  0  0
 37 47  1  0  0  0
 37 66  1  0  0  0
 37105  1  0  0  0
 38 43  2  0  0  0
 38 46  1  0  0  0
 38 47  1  0  0  0
 39 64  1  0  0  0
 39 67  2  0  0  0
 40 52  1  0  0  0
 40 53  2  0  0  0
 40 58  1  0  0  0
 41106  1  0  0  0
 41107  1  0  0  0
 41108  1  0  0  0
 41 48  1  0  0  0
 42 43  1  0  0  0
 42 66  1  0  0  0
 42109  1  0  0  0
 42110  1  0  0  0
 43 44  1  0  0  0
 44111  1  0  0  0
 45 46  2  0  0  0
 45112  1  0  0  0
 46113  1  0  0  0
 47114  1  0  0  0
 47115  1  0  0  0
 48 56  1  0  0  0
 48 65  1  0  0  0
 48116  1  0  0  0
 49 50  1  0  0  0
 49 53  1  0  0  0
 49 64  1  0  0  0
 49117  1  0  0  0
 50 51  1  0  0  0
 50118  1  0  0  0
 50119  1  0  0  0
 51 52  1  0  0  0
 51120  1  0  0  0
 51121  1  0  0  0
 52122  1  0  0  0
 52123  1  0  0  0
 53 54  1  0  0  0
 54 55  2  0  0  0
 54124  1  0  0  0
 55 57  1  0  0  0
 55125  1  0  0  0
 56 69  2  0  0  0
 57 58  2  0  0  0
 57126  1  0  0  0
 58127  1  0  0  0
 59 60  1  0  0  0
 59 61  1  0  0  0
 59 62  1  0  0  0
 60128  1  0  0  0
 60129  1  0  0  0
 60130  1  0  0  0
 61131  1  0  0  0
 61132  1  0  0  0
 61133  1  0  0  0
 62134  1  0  0  0
 62135  1  0  0  0
 62136  1  0  0  0
 63 65  1  0  0  0
 63137  1  0  0  0
 63138  1  0  0  0
 63139  1  0  0  0
 64140  1  0  0  0
 65141  1  0  0  0
 68 78  1  0  0  0
 71 72  1  0  0  0
 71 73  2  0  0  0
 71142  1  0  0  0
 72 74  2  0  0  0
 72143  1  0  0  0
 73 75  1  0  0  0
 73 82  1  0  0  0
 74 80  1  0  0  0
 74 82  1  0  0  0
 75 79  2  0  0  0
 76 77  1  0  0  0
 76 80  1  0  0  0
 76 81  2  0  0  0
 77 78  1  0  0  0
 77144  1  0  0  0
 77145  1  0  0  0
 78146  1  0  0  0
 78147  1  0  0  0
 79148  1  0  0  0
 80149  1  0  0  0
M  ISO  4   1 100  68 101  75 100  78 101
M  END
> <chiral flag>
0

> <version>
0

> <s_m_source_file>
/data/baiqing/PycharmProjects/Reinvent-master-3.2/result/LINK_invent/BTK/process_docking_weight1_custom_product_contain_oxygen_bond_distance_aromatic_linkinvent_7_9_3/rearranged_h_0115.sdf

> <i_m_source_file_index>
93

> <r_mmod_Potential_Energy-OPLS-2005>
194.15380859375

> <r_mmod_Stretch_Energy-OPLS-2005>
108.292022705078

> <r_mmod_Bend_Energy-OPLS-2005>
165.196136474609

> <r_mmod_Torsional_Energy-OPLS-2005>
233.138412475586

> <r_mmod_Improper_Torsional_Energy-OPLS-2005>
4.84274530410767

> <r_mmod_Van_der_Waal_Energy-OPLS-2005>
119.851768493652

> <r_mmod_Electrostatic_Energy-OPLS-2005>
-278.031646728516

> <r_mmod_Solvation_Energy-OPLS-2005>
-225.261764526367

> <b_mmod_Minimization_Converged-OPLS-2005>
0

> <r_mmod_RMS_Derivative-OPLS-2005>
5.60594081878662

$$$$
93
                    3D
 Structure written by MMmdl.
158167  0  0  1  0            999 V2000
  -30.5976  -14.7064   20.4699 C   0  0  0  0  0  0
  -30.4339  -12.4278   19.4797 C   0  0  0  0  0  0
  -29.5142  -12.5154   18.2387 C   0  0  0  0  0  0
  -28.0365  -12.3449   18.6421 C   0  0  0  0  0  0
  -27.6477  -13.2259   19.8600 C   0  0  2  0  0  0
  -28.6868  -13.1161   20.9997 C   0  0  0  0  0  0
  -25.2560  -13.8206   20.5742 C   0  0  0  0  0  0
  -24.1818  -13.0445   20.9191 C   0  0  0  0  0  0
  -24.6378  -11.6918   20.8697 C   0  0  0  0  0  0
  -23.9053  -10.4296   21.0364 C   0  0  0  0  0  0
  -24.3608   -9.4231   21.9161 C   0  0  0  0  0  0
  -23.6294   -8.2262   22.0754 C   0  0  0  0  0  0
  -22.4277   -8.0271   21.3543 C   0  0  0  0  0  0
  -21.9890   -9.0245   20.4655 C   0  0  0  0  0  0
  -22.7209  -10.2132   20.3042 C   0  0  0  0  0  0
  -21.6870   -6.0710   22.5268 C   0  0  0  0  0  0
  -21.4032   -6.5638   23.8190 C   0  0  0  0  0  0
  -21.3665   -5.6795   24.9159 C   0  0  0  0  0  0
  -21.6047   -4.3055   24.7220 C   0  0  0  0  0  0
  -21.8830   -3.8130   23.4351 C   0  0  0  0  0  0
  -21.9207   -4.6938   22.3395 C   0  0  0  0  0  0
  -22.7849  -13.5231   21.1879 C   0  0  0  0  0  0
  -22.1664   -4.2110   21.0978 F   0  0  0  0  0  0
  -21.5624   -3.4554   25.7747 F   0  0  0  0  0  0
  -29.9980  -13.4689   20.4381 N   0  0  0  0  0  0
  -26.2956  -12.9382   20.3274 N   0  0  0  0  0  0
  -25.9304  -11.6525   20.5683 N   0  0  0  0  0  0
  -22.0518  -12.8202   22.0446 N   0  0  0  0  0  0
  -25.4347  -15.1941   20.4353 N   0  0  0  0  0  0
  -31.7638  -14.8350   20.0785 O   0  0  0  0  0  0
  -21.6668   -6.8852   21.4219 O   0  0  0  0  0  0
  -22.3511  -14.5533   20.6749 O   0  0  0  0  0  0
  -24.6295  -31.8585   23.2001 C   0  0  0  0  0  0
  -25.9135  -32.4757   23.8341 C   0  0  1  0  0  0
  -27.2110  -27.2849   20.1251 C   0  0  0  0  0  0
  -25.5929  -33.8559   24.2262 N   0  0  0  0  0  0
  -23.4258  -30.4814   21.5427 C   0  0  2  0  0  0
  -24.8734  -28.9344   20.1079 C   0  0  0  0  0  0
  -22.7510  -29.4595   22.4902 C   0  0  0  0  0  0
  -18.0306  -28.1380   22.8503 C   0  0  0  0  0  0
  -24.1491  -36.7283   23.2640 C   0  0  0  0  0  0
  -25.9706  -30.7766   21.3787 C   0  0  0  0  0  0
  -26.0445  -29.4020   20.7196 C   0  0  0  0  0  0
  -27.2224  -28.5888   20.7182 C   0  0  0  0  0  0
  -26.0223  -26.8814   19.4853 C   0  0  0  0  0  0
  -24.8647  -27.6794   19.4812 C   0  0  0  0  0  0
  -23.6462  -29.8242   20.1548 C   0  0  0  0  0  0
  -25.4113  -36.3064   24.0333 C   0  0  1  0  0  0
  -20.5913  -28.3686   23.1281 C   0  0  2  0  0  0
  -20.6777  -26.9395   22.5426 C   0  0  0  0  0  0
  -19.5746  -26.6378   21.5227 C   0  0  0  0  0  0
  -18.1935  -26.7925   22.1645 C   0  0  0  0  0  0
  -19.1562  -28.8848   23.2892 C   0  0  0  0  0  0
  -18.9475  -30.1451   23.8911 C   0  0  0  0  0  0
  -17.6472  -30.6576   24.0570 C   0  0  0  0  0  0
  -25.9065  -34.9439   23.5100 C   0  0  0  0  0  0
  -16.5364  -29.9086   23.6316 C   0  0  0  0  0  0
  -16.7293  -28.6501   23.0343 C   0  0  0  0  0  0
  -26.4510  -31.6567   25.0717 C   0  0  0  0  0  0
  -25.3750  -31.3724   26.1454 C   0  0  0  0  0  0
  -27.0342  -30.2976   24.6187 C   0  0  0  0  0  0
  -27.6073  -32.4287   25.7486 C   0  0  0  0  0  0
  -27.5578  -37.1792   24.8468 C   0  0  0  0  0  0
  -21.4213  -29.3044   22.3678 N   0  0  0  0  0  0
  -26.4285  -37.3762   23.9418 N   0  0  0  0  0  0
  -24.6937  -31.0571   22.0971 N   0  0  0  0  0  0
  -23.4217  -28.8129   23.2987 O   0  0  0  0  0  0
  -28.2646  -26.3547   20.1559 O   0  0  0  0  0  0
  -26.5628  -34.8908   22.4663 O   0  0  0  0  0  0
  -23.5450  -32.1389   23.7318 O   0  0  0  0  0  0
  -27.6193  -22.5395   21.0404 C   0  0  0  0  0  0
  -27.9885  -21.1686   20.8597 C   0  0  0  0  0  0
  -29.5494  -23.2517   19.8285 C   0  0  0  0  0  0
  -30.0093  -17.3940   18.8714 C   0  0  0  0  0  0
  -29.9485  -21.8756   19.6600 C   0  0  0  0  0  0
  -28.3788  -23.6342   20.5344 C   0  0  0  0  0  0
  -29.1587  -20.7755   20.1573 C   0  0  0  0  0  0
  -29.7244  -18.7256   18.6727 C   0  0  0  0  0  0
  -29.8121  -17.1582   20.2571 C   0  0  0  0  0  0
  -31.6861  -22.3573   17.9224 C   0  0  0  0  0  0
  -31.1960  -21.6065   18.9238 C   0  0  0  0  0  0
  -29.6475  -19.4295   17.3539 C   0  0  0  0  0  0
  -27.9732  -25.1199   20.9427 C   0  0  0  0  0  0
  -29.4576  -18.3271   20.8667 N   0  0  0  0  0  0
  -29.4650  -19.3419   19.9031 N   0  0  0  0  0  0
  -29.8328  -15.8000   20.8274 N   0  0  0  0  0  0
  -31.4776  -12.5527   19.1845 H   0  0  0  0  0  0
  -30.3717  -11.4401   19.9397 H   0  0  0  0  0  0
  -29.7917  -11.7539   17.5085 H   0  0  0  0  0  0
  -29.6451  -13.4800   17.7448 H   0  0  0  0  0  0
  -27.8821  -11.2919   18.8813 H   0  0  0  0  0  0
  -27.3836  -12.5631   17.7948 H   0  0  0  0  0  0
  -27.6558  -14.2572   19.5046 H   0  0  0  0  0  0
  -28.7107  -12.1016   21.4007 H   0  0  0  0  0  0
  -28.4244  -13.7620   21.8388 H   0  0  0  0  0  0
  -25.2759   -9.5728   22.4712 H   0  0  0  0  0  0
  -24.0009   -7.4682   22.7502 H   0  0  0  0  0  0
  -21.0803   -8.8767   19.8990 H   0  0  0  0  0  0
  -22.3653  -10.9661   19.6146 H   0  0  0  0  0  0
  -21.2036   -7.6152   23.9690 H   0  0  0  0  0  0
  -21.1465   -6.0525   25.9062 H   0  0  0  0  0  0
  -22.0603   -2.7587   23.2867 H   0  0  0  0  0  0
  -22.4117  -11.9842   22.4799 H   0  0  0  0  0  0
  -21.1141  -13.1206   22.2673 H   0  0  0  0  0  0
  -24.6944  -15.8621   20.6210 H   0  0  0  0  0  0
  -26.3094  -15.6384   20.1872 H   0  0  0  0  0  0
  -26.7200  -32.5409   23.1087 H   0  0  0  0  0  0
  -25.0067  -33.9696   25.0396 H   0  0  0  0  0  0
  -22.7200  -31.3026   21.4015 H   0  0  0  0  0  0
  -23.3741  -35.9626   23.3295 H   0  0  0  0  0  0
  -24.3580  -36.8908   22.2055 H   0  0  0  0  0  0
  -23.7257  -37.6489   23.6667 H   0  0  0  0  0  0
  -26.1108  -31.5381   20.6107 H   0  0  0  0  0  0
  -26.8485  -30.8226   22.0112 H   0  0  0  0  0  0
  -28.1178  -28.9385   21.2111 H   0  0  0  0  0  0
  -25.9819  -25.9117   19.0111 H   0  0  0  0  0  0
  -23.9695  -27.3153   18.9945 H   0  0  0  0  0  0
  -23.7801  -30.6091   19.4089 H   0  0  0  0  0  0
  -22.7622  -29.2683   19.8377 H   0  0  0  0  0  0
  -25.1285  -36.1911   25.0824 H   0  0  0  0  0  0
  -21.0007  -28.3253   24.1400 H   0  0  0  0  0  0
  -20.5662  -26.2286   23.3634 H   0  0  0  0  0  0
  -21.6642  -26.7393   22.1225 H   0  0  0  0  0  0
  -19.6890  -25.6291   21.1249 H   0  0  0  0  0  0
  -19.6674  -27.3201   20.6768 H   0  0  0  0  0  0
  -17.4195  -26.6682   21.4059 H   0  0  0  0  0  0
  -18.0317  -26.0069   22.9040 H   0  0  0  0  0  0
  -19.7944  -30.7274   24.2279 H   0  0  0  0  0  0
  -17.5020  -31.6251   24.5181 H   0  0  0  0  0  0
  -15.5365  -30.2992   23.7626 H   0  0  0  0  0  0
  -15.8693  -28.0835   22.7028 H   0  0  0  0  0  0
  -24.5906  -30.7087   25.7792 H   0  0  0  0  0  0
  -24.8975  -32.2908   26.4883 H   0  0  0  0  0  0
  -25.8087  -30.8894   27.0223 H   0  0  0  0  0  0
  -26.2914  -29.6721   24.1219 H   0  0  0  0  0  0
  -27.4035  -29.7229   25.4692 H   0  0  0  0  0  0
  -27.8793  -30.4228   23.9412 H   0  0  0  0  0  0
  -27.2691  -33.3586   26.2064 H   0  0  0  0  0  0
  -28.3898  -32.6838   25.0327 H   0  0  0  0  0  0
  -28.0728  -31.8406   26.5407 H   0  0  0  0  0  0
  -28.2589  -38.0094   24.7488 H   0  0  0  0  0  0
  -28.1074  -36.2612   24.6306 H   0  0  0  0  0  0
  -27.2296  -37.1461   25.8874 H   0  0  0  0  0  0
  -20.9381  -29.8809   21.6935 H   0  0  0  0  0  0
  -26.0156  -38.2834   24.1405 H   0  0  0  0  0  0
  -26.7239  -22.7495   21.6100 H   0  0  0  0  0  0
  -27.3471  -20.3988   21.2640 H   0  0  0  0  0  0
  -30.1807  -24.0424   19.4495 H   0  0  0  0  0  0
  -30.2533  -16.6718   18.1061 H   0  0  0  0  0  0
  -32.6179  -22.0977   17.4420 H   0  0  0  0  0  0
  -31.1682  -23.2324   17.5545 H   0  0  0  0  0  0
  -31.7608  -20.7400   19.2392 H   0  0  0  0  0  0
  -29.1369  -18.8086   16.6185 H   0  0  0  0  0  0
  -30.6427  -19.6441   16.9656 H   0  0  0  0  0  0
  -29.0935  -20.3655   17.4202 H   0  0  0  0  0  0
  -28.4496  -25.2836   21.9097 H   0  0  0  0  0  0
  -26.9093  -25.0775   21.1789 H   0  0  0  0  0  0
  -29.0249  -15.5694   21.3827 H   0  0  0  0  0  0
  1 25  1  0  0  0
  1 30  2  0  0  0
  1 86  1  0  0  0
  2  3  1  0  0  0
  2 25  1  0  0  0
  2 87  1  0  0  0
  2 88  1  0  0  0
  3  4  1  0  0  0
  3 89  1  0  0  0
  3 90  1  0  0  0
  4  5  1  0  0  0
  4 91  1  0  0  0
  4 92  1  0  0  0
  5  6  1  0  0  0
  5 26  1  0  0  0
  5 93  1  0  0  0
  6 25  1  0  0  0
  6 94  1  0  0  0
  6 95  1  0  0  0
  7  8  2  0  0  0
  7 26  1  0  0  0
  7 29  1  0  0  0
  8  9  1  0  0  0
  8 22  1  0  0  0
  9 10  1  0  0  0
  9 27  2  0  0  0
 10 11  2  0  0  0
 10 15  1  0  0  0
 11 12  1  0  0  0
 11 96  1  0  0  0
 12 13  2  0  0  0
 12 97  1  0  0  0
 13 14  1  0  0  0
 13 31  1  0  0  0
 14 15  2  0  0  0
 14 98  1  0  0  0
 15 99  1  0  0  0
 16 17  2  0  0  0
 16 21  1  0  0  0
 16 31  1  0  0  0
 17 18  1  0  0  0
 17100  1  0  0  0
 18 19  2  0  0  0
 18101  1  0  0  0
 19 20  1  0  0  0
 19 24  1  0  0  0
 20 21  2  0  0  0
 20102  1  0  0  0
 21 23  1  0  0  0
 22 28  1  0  0  0
 22 32  2  0  0  0
 26 27  1  0  0  0
 28103  1  0  0  0
 28104  1  0  0  0
 29105  1  0  0  0
 29106  1  0  0  0
 33 34  1  0  0  0
 33 66  1  0  0  0
 33 70  2  0  0  0
 34 36  1  0  0  0
 34 59  1  0  0  0
 34107  1  0  0  0
 35 44  2  0  0  0
 35 45  1  0  0  0
 35 68  1  0  0  0
 36 56  1  0  0  0
 36108  1  0  0  0
 37 39  1  0  0  0
 37 47  1  0  0  0
 37 66  1  0  0  0
 37109  1  0  0  0
 38 43  2  0  0  0
 38 46  1  0  0  0
 38 47  1  0  0  0
 39 64  1  0  0  0
 39 67  2  0  0  0
 40 52  1  0  0  0
 40 53  2  0  0  0
 40 58  1  0  0  0
 41110  1  0  0  0
 41111  1  0  0  0
 41112  1  0  0  0
 41 48  1  0  0  0
 42 43  1  0  0  0
 42 66  1  0  0  0
 42113  1  0  0  0
 42114  1  0  0  0
 43 44  1  0  0  0
 44115  1  0  0  0
 45 46  2  0  0  0
 45116  1  0  0  0
 46117  1  0  0  0
 47118  1  0  0  0
 47119  1  0  0  0
 48 56  1  0  0  0
 48 65  1  0  0  0
 48120  1  0  0  0
 49 50  1  0  0  0
 49 53  1  0  0  0
 49 64  1  0  0  0
 49121  1  0  0  0
 50 51  1  0  0  0
 50122  1  0  0  0
 50123  1  0  0  0
 51 52  1  0  0  0
 51124  1  0  0  0
 51125  1  0  0  0
 52126  1  0  0  0
 52127  1  0  0  0
 53 54  1  0  0  0
 54 55  2  0  0  0
 54128  1  0  0  0
 55 57  1  0  0  0
 55129  1  0  0  0
 56 69  2  0  0  0
 57 58  2  0  0  0
 57130  1  0  0  0
 58131  1  0  0  0
 59 60  1  0  0  0
 59 61  1  0  0  0
 59 62  1  0  0  0
 60132  1  0  0  0
 60133  1  0  0  0
 60134  1  0  0  0
 61135  1  0  0  0
 61136  1  0  0  0
 61137  1  0  0  0
 62138  1  0  0  0
 62139  1  0  0  0
 62140  1  0  0  0
 63 65  1  0  0  0
 63141  1  0  0  0
 63142  1  0  0  0
 63143  1  0  0  0
 64144  1  0  0  0
 65145  1  0  0  0
 68 83  1  0  0  0
 71 72  2  0  0  0
 71 76  1  0  0  0
 71146  1  0  0  0
 72 77  1  0  0  0
 72147  1  0  0  0
 73 75  1  0  0  0
 73 76  2  0  0  0
 73148  1  0  0  0
 74 78  2  0  0  0
 74 79  1  0  0  0
 74149  1  0  0  0
 75 77  2  0  0  0
 75 81  1  0  0  0
 76 83  1  0  0  0
 77 85  1  0  0  0
 78 82  1  0  0  0
 78 85  1  0  0  0
 79 84  2  0  0  0
 79 86  1  0  0  0
 80 81  2  0  0  0
 80150  1  0  0  0
 80151  1  0  0  0
 81152  1  0  0  0
 82153  1  0  0  0
 82154  1  0  0  0
 82155  1  0  0  0
 83156  1  0  0  0
 83157  1  0  0  0
 84 85  1  0  0  0
 86158  1  0  0  0
M  ISO  4   1 100  68 101  83 101  86 100
M  END
> <chiral flag>
0

> <version>
0

> <s_m_source_file>
/data/baiqing/PycharmProjects/Reinvent-master-3.2/result/LINK_invent/BTK/process_docking_weight1_custom_product_contain_oxygen_bond_distance_aromatic_linkinvent_7_9_3/rearranged_h_0115.sdf

> <i_m_source_file_index>
94

> <r_mmod_Potential_Energy-OPLS-2005>
176.129302978516

> <r_mmod_Stretch_Energy-OPLS-2005>
102.572982788086

> <r_mmod_Bend_Energy-OPLS-2005>
155.671249389648

> <r_mmod_Torsional_Energy-OPLS-2005>
291.961700439453

> <r_mmod_Improper_Torsional_Energy-OPLS-2005>
5.65199899673462

> <r_mmod_Van_der_Waal_Energy-OPLS-2005>
137.869338989258

> <r_mmod_Electrostatic_Energy-OPLS-2005>
-379.339782714844

> <r_mmod_Solvation_Energy-OPLS-2005>
-212.32096862793

> <b_mmod_Minimization_Converged-OPLS-2005>
0

> <r_mmod_RMS_Derivative-OPLS-2005>
3.1662745475769

$$$$
94
                    3D
 Structure written by MMmdl.
151159  0  0  1  0            999 V2000
  -30.4866  -15.0961   20.3997 C   0  0  0  0  0  0
  -30.4422  -12.6893   19.5131 C   0  0  0  0  0  0
  -29.5282  -12.5537   18.2710 C   0  0  0  0  0  0
  -28.0687  -12.3090   18.6935 C   0  0  0  0  0  0
  -27.6219  -13.2591   19.8337 C   0  0  2  0  0  0
  -28.6605  -13.3483   20.9722 C   0  0  0  0  0  0
  -25.2412  -13.8205   20.5695 C   0  0  0  0  0  0
  -24.1758  -13.0424   20.9255 C   0  0  0  0  0  0
  -24.6396  -11.6919   20.8779 C   0  0  0  0  0  0
  -23.9084  -10.4290   21.0423 C   0  0  0  0  0  0
  -24.3633   -9.4199   21.9193 C   0  0  0  0  0  0
  -23.6301   -8.2237   22.0757 C   0  0  0  0  0  0
  -22.4281   -8.0286   21.3548 C   0  0  0  0  0  0
  -21.9927   -9.0257   20.4646 C   0  0  0  0  0  0
  -22.7261  -10.2133   20.3062 C   0  0  0  0  0  0
  -21.6851   -6.0744   22.5280 C   0  0  0  0  0  0
  -21.4014   -6.5645   23.8214 C   0  0  0  0  0  0
  -21.3655   -5.6795   24.9174 C   0  0  0  0  0  0
  -21.6042   -4.3058   24.7219 C   0  0  0  0  0  0
  -21.8818   -3.8153   23.4340 C   0  0  0  0  0  0
  -21.9193   -4.6973   22.3402 C   0  0  0  0  0  0
  -22.7777  -13.5194   21.1892 C   0  0  0  0  0  0
  -22.1663   -4.2163   21.0978 F   0  0  0  0  0  0
  -21.5622   -3.4540   25.7729 F   0  0  0  0  0  0
  -29.9188  -13.8071   20.3650 N   0  0  0  0  0  0
  -26.2849  -12.9466   20.3227 N   0  0  0  0  0  0
  -25.9330  -11.6587   20.5747 N   0  0  0  0  0  0
  -22.0425  -12.8188   22.0450 N   0  0  0  0  0  0
  -25.4014  -15.1922   20.4024 N   0  0  0  0  0  0
  -31.6968  -15.1294   20.1451 O   0  0  0  0  0  0
  -21.6639   -6.8886   21.4241 O   0  0  0  0  0  0
  -22.3465  -14.5494   20.6718 O   0  0  0  0  0  0
  -24.6535  -31.8340   23.1773 C   0  0  0  0  0  0
  -25.9256  -32.4640   23.8209 C   0  0  1  0  0  0
  -27.2206  -27.0342   20.1647 C   0  0  0  0  0  0
  -25.5967  -33.8447   24.2122 N   0  0  0  0  0  0
  -23.4628  -30.4493   21.5258 C   0  0  2  0  0  0
  -24.9148  -28.8584   20.1085 C   0  0  0  0  0  0
  -22.7621  -29.4492   22.4815 C   0  0  0  0  0  0
  -18.0314  -28.1389   22.8484 C   0  0  0  0  0  0
  -24.1484  -36.7216   23.2647 C   0  0  0  0  0  0
  -26.0259  -30.6755   21.3904 C   0  0  0  0  0  0
  -26.0961  -29.2765   20.7333 C   0  0  0  0  0  0
  -27.2475  -28.3838   20.7397 C   0  0  0  0  0  0
  -26.0096  -26.7452   19.4967 C   0  0  0  0  0  0
  -24.8903  -27.6092   19.4714 C   0  0  0  0  0  0
  -23.6944  -29.7712   20.1484 C   0  0  0  0  0  0
  -25.4119  -36.2992   24.0315 C   0  0  1  0  0  0
  -20.5942  -28.3722   23.1209 C   0  0  2  0  0  0
  -20.6786  -26.9412   22.5404 C   0  0  0  0  0  0
  -19.5756  -26.6370   21.5213 C   0  0  0  0  0  0
  -18.1940  -26.7927   22.1630 C   0  0  0  0  0  0
  -19.1579  -28.8874   23.2832 C   0  0  0  0  0  0
  -18.9499  -30.1475   23.8853 C   0  0  0  0  0  0
  -17.6492  -30.6589   24.0556 C   0  0  0  0  0  0
  -25.9092  -34.9383   23.5035 C   0  0  0  0  0  0
  -16.5376  -29.9083   23.6346 C   0  0  0  0  0  0
  -16.7297  -28.6498   23.0367 C   0  0  0  0  0  0
  -26.4530  -31.6545   25.0693 C   0  0  0  0  0  0
  -25.3691  -31.3779   26.1376 C   0  0  0  0  0  0
  -27.0406  -30.2929   24.6345 C   0  0  0  0  0  0
  -27.6027  -32.4348   25.7487 C   0  0  0  0  0  0
  -27.5564  -37.1757   24.8465 C   0  0  0  0  0  0
  -21.4303  -29.3035   22.3566 N   0  0  0  0  0  0
  -26.4260  -37.3730   23.9433 N   0  0  0  0  0  0
  -24.7350  -31.0105   22.0857 N   0  0  0  0  0  0
  -23.4224  -28.8061   23.3012 O   0  0  0  0  0  0
  -28.2416  -25.9793   20.2368 O   0  0  0  0  0  0
  -26.5687  -34.8910   22.4625 O   0  0  0  0  0  0
  -23.5628  -32.1262   23.6936 O   0  0  0  0  0  0
  -28.7853  -18.7899   20.4947 C   0  0  0  0  0  0
  -29.3619  -20.1718   20.3334 C   0  0  0  0  0  0
  -29.7883  -17.7625   20.4308 C   0  0  0  0  0  0
  -28.5964  -21.6370   20.2982 C   0  0  0  0  0  0
  -28.8935  -23.0522   20.2078 C   0  0  0  0  0  0
  -27.3171  -18.5406   20.7028 C   0  0  0  0  0  0
  -32.3096  -18.1198   20.1526 C   0  0  0  0  0  0
  -27.9008  -24.4213   20.0866 C   0  0  0  0  0  0
  -30.6760  -19.9232   20.2080 N   0  0  0  0  0  0
  -30.9308  -18.5500   20.2627 N   0  0  0  0  0  0
  -29.6742  -16.2940   20.5282 N   0  0  0  0  0  0
  -31.4676  -12.8735   19.1904 H   0  0  0  0  0  0
  -30.4734  -11.7547   20.0753 H   0  0  0  0  0  0
  -29.8753  -11.7411   17.6312 H   0  0  0  0  0  0
  -29.5881  -13.4636   17.6708 H   0  0  0  0  0  0
  -27.9955  -11.2744   19.0302 H   0  0  0  0  0  0
  -27.4007  -12.4002   17.8358 H   0  0  0  0  0  0
  -27.5651  -14.2476   19.3771 H   0  0  0  0  0  0
  -28.7830  -12.3869   21.4741 H   0  0  0  0  0  0
  -28.3290  -14.0546   21.7346 H   0  0  0  0  0  0
  -25.2773   -9.5669   22.4776 H   0  0  0  0  0  0
  -24.0006   -7.4622   22.7473 H   0  0  0  0  0  0
  -21.0861   -8.8778   19.8946 H   0  0  0  0  0  0
  -22.3723  -10.9675   19.6176 H   0  0  0  0  0  0
  -21.2010   -7.6156   23.9722 H   0  0  0  0  0  0
  -21.1473   -6.0524   25.9076 H   0  0  0  0  0  0
  -22.0600   -2.7620   23.2831 H   0  0  0  0  0  0
  -22.4053  -11.9861   22.4848 H   0  0  0  0  0  0
  -21.1037  -13.1203   22.2649 H   0  0  0  0  0  0
  -24.6085  -15.8218   20.4646 H   0  0  0  0  0  0
  -26.2064  -15.6130   19.9599 H   0  0  0  0  0  0
  -26.7325  -32.5197   23.0929 H   0  0  0  0  0  0
  -25.0071  -33.9541   25.0243 H   0  0  0  0  0  0
  -22.7712  -31.2780   21.3619 H   0  0  0  0  0  0
  -23.3759  -35.9532   23.3286 H   0  0  0  0  0  0
  -24.3580  -36.8877   22.2068 H   0  0  0  0  0  0
  -23.7222  -37.6398   23.6702 H   0  0  0  0  0  0
  -26.1941  -31.4245   20.6150 H   0  0  0  0  0  0
  -26.8917  -30.7266   22.0387 H   0  0  0  0  0  0
  -28.1446  -28.7031   21.2517 H   0  0  0  0  0  0
  -25.8862  -25.7931   19.0044 H   0  0  0  0  0  0
  -23.9922  -27.2830   18.9658 H   0  0  0  0  0  0
  -23.8351  -30.5420   19.3896 H   0  0  0  0  0  0
  -22.8068  -29.2164   19.8380 H   0  0  0  0  0  0
  -25.1313  -36.1780   25.0805 H   0  0  0  0  0  0
  -21.0033  -28.3297   24.1329 H   0  0  0  0  0  0
  -20.5640  -26.2341   23.3637 H   0  0  0  0  0  0
  -21.6651  -26.7379   22.1217 H   0  0  0  0  0  0
  -19.6918  -25.6278   21.1245 H   0  0  0  0  0  0
  -19.6685  -27.3174   20.6736 H   0  0  0  0  0  0
  -17.4209  -26.6675   21.4029 H   0  0  0  0  0  0
  -18.0337  -26.0070   22.9032 H   0  0  0  0  0  0
  -19.7981  -30.7303   24.2184 H   0  0  0  0  0  0
  -17.5055  -31.6264   24.5171 H   0  0  0  0  0  0
  -15.5377  -30.2973   23.7699 H   0  0  0  0  0  0
  -15.8698  -28.0809   22.7095 H   0  0  0  0  0  0
  -24.5872  -30.7119   25.7711 H   0  0  0  0  0  0
  -24.8873  -32.2975   26.4709 H   0  0  0  0  0  0
  -25.7959  -30.9020   27.0214 H   0  0  0  0  0  0
  -26.3050  -29.6633   24.1322 H   0  0  0  0  0  0
  -27.3953  -29.7255   25.4957 H   0  0  0  0  0  0
  -27.8988  -30.4147   23.9733 H   0  0  0  0  0  0
  -27.2589  -33.3687   26.1953 H   0  0  0  0  0  0
  -28.3886  -32.6855   25.0347 H   0  0  0  0  0  0
  -28.0634  -31.8546   26.5490 H   0  0  0  0  0  0
  -28.2545  -38.0089   24.7559 H   0  0  0  0  0  0
  -28.1090  -36.2622   24.6215 H   0  0  0  0  0  0
  -27.2306  -37.1322   25.8873 H   0  0  0  0  0  0
  -20.9515  -29.8747   21.6741 H   0  0  0  0  0  0
  -26.0100  -38.2779   24.1479 H   0  0  0  0  0  0
  -27.5282  -21.4762   20.3299 H   0  0  0  0  0  0
  -29.9439  -23.3009   20.1632 H   0  0  0  0  0  0
  -26.7066  -19.1105   20.0023 H   0  0  0  0  0  0
  -27.0019  -18.8277   21.7059 H   0  0  0  0  0  0
  -27.0532  -17.4926   20.5730 H   0  0  0  0  0  0
  -32.4558  -17.5940   19.2091 H   0  0  0  0  0  0
  -32.5542  -17.4531   20.9790 H   0  0  0  0  0  0
  -32.9884  -18.9721   20.1898 H   0  0  0  0  0  0
  -27.0477  -24.2275   20.7370 H   0  0  0  0  0  0
  -27.5074  -24.3301   19.0748 H   0  0  0  0  0  0
  -28.7227  -16.0180   20.7066 H   0  0  0  0  0  0
  1 25  1  0  0  0
  1 30  2  0  0  0
  1 81  1  0  0  0
  2  3  1  0  0  0
  2 25  1  0  0  0
  2 82  1  0  0  0
  2 83  1  0  0  0
  3  4  1  0  0  0
  3 84  1  0  0  0
  3 85  1  0  0  0
  4  5  1  0  0  0
  4 86  1  0  0  0
  4 87  1  0  0  0
  5  6  1  0  0  0
  5 26  1  0  0  0
  5 88  1  0  0  0
  6 25  1  0  0  0
  6 89  1  0  0  0
  6 90  1  0  0  0
  7  8  2  0  0  0
  7 26  1  0  0  0
  7 29  1  0  0  0
  8  9  1  0  0  0
  8 22  1  0  0  0
  9 10  1  0  0  0
  9 27  2  0  0  0
 10 11  2  0  0  0
 10 15  1  0  0  0
 11 12  1  0  0  0
 11 91  1  0  0  0
 12 13  2  0  0  0
 12 92  1  0  0  0
 13 14  1  0  0  0
 13 31  1  0  0  0
 14 15  2  0  0  0
 14 93  1  0  0  0
 15 94  1  0  0  0
 16 17  2  0  0  0
 16 21  1  0  0  0
 16 31  1  0  0  0
 17 18  1  0  0  0
 17 95  1  0  0  0
 18 19  2  0  0  0
 18 96  1  0  0  0
 19 20  1  0  0  0
 19 24  1  0  0  0
 20 21  2  0  0  0
 20 97  1  0  0  0
 21 23  1  0  0  0
 22 28  1  0  0  0
 22 32  2  0  0  0
 26 27  1  0  0  0
 28 98  1  0  0  0
 28 99  1  0  0  0
 29100  1  0  0  0
 29101  1  0  0  0
 33 34  1  0  0  0
 33 66  1  0  0  0
 33 70  2  0  0  0
 34 36  1  0  0  0
 34 59  1  0  0  0
 34102  1  0  0  0
 35 44  2  0  0  0
 35 45  1  0  0  0
 35 68  1  0  0  0
 36 56  1  0  0  0
 36103  1  0  0  0
 37 39  1  0  0  0
 37 47  1  0  0  0
 37 66  1  0  0  0
 37104  1  0  0  0
 38 43  2  0  0  0
 38 46  1  0  0  0
 38 47  1  0  0  0
 39 64  1  0  0  0
 39 67  2  0  0  0
 40 52  1  0  0  0
 40 53  2  0  0  0
 40 58  1  0  0  0
 41105  1  0  0  0
 41106  1  0  0  0
 41107  1  0  0  0
 41 48  1  0  0  0
 42 43  1  0  0  0
 42 66  1  0  0  0
 42108  1  0  0  0
 42109  1  0  0  0
 43 44  1  0  0  0
 44110  1  0  0  0
 45 46  2  0  0  0
 45111  1  0  0  0
 46112  1  0  0  0
 47113  1  0  0  0
 47114  1  0  0  0
 48 56  1  0  0  0
 48 65  1  0  0  0
 48115  1  0  0  0
 49 50  1  0  0  0
 49 53  1  0  0  0
 49 64  1  0  0  0
 49116  1  0  0  0
 50 51  1  0  0  0
 50117  1  0  0  0
 50118  1  0  0  0
 51 52  1  0  0  0
 51119  1  0  0  0
 51120  1  0  0  0
 52121  1  0  0  0
 52122  1  0  0  0
 53 54  1  0  0  0
 54 55  2  0  0  0
 54123  1  0  0  0
 55 57  1  0  0  0
 55124  1  0  0  0
 56 69  2  0  0  0
 57 58  2  0  0  0
 57125  1  0  0  0
 58126  1  0  0  0
 59 60  1  0  0  0
 59 61  1  0  0  0
 59 62  1  0  0  0
 60127  1  0  0  0
 60128  1  0  0  0
 60129  1  0  0  0
 61130  1  0  0  0
 61131  1  0  0  0
 61132  1  0  0  0
 62133  1  0  0  0
 62134  1  0  0  0
 62135  1  0  0  0
 63 65  1  0  0  0
 63136  1  0  0  0
 63137  1  0  0  0
 63138  1  0  0  0
 64139  1  0  0  0
 65140  1  0  0  0
 68 78  1  0  0  0
 71 72  1  0  0  0
 71 73  2  0  0  0
 71 76  1  0  0  0
 72 74  1  0  0  0
 72 79  2  0  0  0
 73 80  1  0  0  0
 73 81  1  0  0  0
 74 75  2  0  0  0
 74141  1  0  0  0
 75 78  1  0  0  0
 75142  1  0  0  0
 76143  1  0  0  0
 76144  1  0  0  0
 76145  1  0  0  0
 77 80  1  0  0  0
 77146  1  0  0  0
 77147  1  0  0  0
 77148  1  0  0  0
 78149  1  0  0  0
 78150  1  0  0  0
 79 80  1  0  0  0
 81151  1  0  0  0
M  ISO  4   1 100  68 101  78 101  81 100
M  END
> <chiral flag>
0

> <version>
0

> <s_m_source_file>
/data/baiqing/PycharmProjects/Reinvent-master-3.2/result/LINK_invent/BTK/process_docking_weight1_custom_product_contain_oxygen_bond_distance_aromatic_linkinvent_7_9_3/rearranged_h_0115.sdf

> <i_m_source_file_index>
95

> <r_mmod_Potential_Energy-OPLS-2005>
625.084167480469

> <r_mmod_Stretch_Energy-OPLS-2005>
350.668670654297

> <r_mmod_Bend_Energy-OPLS-2005>
317.905212402344

> <r_mmod_Torsional_Energy-OPLS-2005>
207.662628173828

> <r_mmod_Improper_Torsional_Energy-OPLS-2005>
4.97643947601318

> <r_mmod_Van_der_Waal_Energy-OPLS-2005>
106.844543457031

> <r_mmod_Electrostatic_Energy-OPLS-2005>
-447.536865234375

> <r_mmod_Solvation_Energy-OPLS-2005>
-219.074813842773

> <b_mmod_Minimization_Converged-OPLS-2005>
0

> <r_mmod_RMS_Derivative-OPLS-2005>
1.42151820659637

$$$$
95
                    3D
 Structure written by MMmdl.
163171  0  0  1  0            999 V2000
  -30.6914  -14.5376   20.5110 C   0  0  0  0  0  0
  -30.4211  -12.3347   19.4289 C   0  0  0  0  0  0
  -29.4962  -12.5011   18.2045 C   0  0  0  0  0  0
  -28.0122  -12.3776   18.6111 C   0  0  0  0  0  0
  -27.6553  -13.2219   19.8655 C   0  0  2  0  0  0
  -28.7055  -13.0361   20.9847 C   0  0  0  0  0  0
  -25.2565  -13.8197   20.5703 C   0  0  0  0  0  0
  -24.1839  -13.0438   20.9197 C   0  0  0  0  0  0
  -24.6422  -11.6915   20.8758 C   0  0  0  0  0  0
  -23.9092  -10.4295   21.0402 C   0  0  0  0  0  0
  -24.3628   -9.4206   21.9185 C   0  0  0  0  0  0
  -23.6299   -8.2241   22.0755 C   0  0  0  0  0  0
  -22.4280   -8.0290   21.3536 C   0  0  0  0  0  0
  -21.9922   -9.0267   20.4640 C   0  0  0  0  0  0
  -22.7262  -10.2141   20.3053 C   0  0  0  0  0  0
  -21.6869   -6.0732   22.5262 C   0  0  0  0  0  0
  -21.4030   -6.5637   23.8193 C   0  0  0  0  0  0
  -21.3657   -5.6793   24.9159 C   0  0  0  0  0  0
  -21.6040   -4.3053   24.7220 C   0  0  0  0  0  0
  -21.8825   -3.8143   23.4345 C   0  0  0  0  0  0
  -21.9194   -4.6958   22.3397 C   0  0  0  0  0  0
  -22.7854  -13.5218   21.1849 C   0  0  0  0  0  0
  -22.1657   -4.2145   21.0977 F   0  0  0  0  0  0
  -21.5624   -3.4529   25.7729 F   0  0  0  0  0  0
  -30.0226  -13.3510   20.4177 N   0  0  0  0  0  0
  -26.3016  -12.9394   20.3357 N   0  0  0  0  0  0
  -25.9352  -11.6535   20.5774 N   0  0  0  0  0  0
  -22.0504  -12.8202   22.0415 N   0  0  0  0  0  0
  -25.4214  -15.1927   20.4073 N   0  0  0  0  0  0
  -31.8677  -14.6241   20.1460 O   0  0  0  0  0  0
  -21.6644   -6.8882   21.4226 O   0  0  0  0  0  0
  -22.3516  -14.5519   20.6723 O   0  0  0  0  0  0
  -24.6208  -31.8641   23.2051 C   0  0  0  0  0  0
  -25.9080  -32.4805   23.8375 C   0  0  1  0  0  0
  -27.2267  -27.3869   20.0984 C   0  0  0  0  0  0
  -25.5897  -33.8598   24.2308 N   0  0  0  0  0  0
  -23.4108  -30.4851   21.5494 C   0  0  2  0  0  0
  -24.8551  -28.9426   20.1186 C   0  0  0  0  0  0
  -22.7453  -29.4659   22.4997 C   0  0  0  0  0  0
  -18.0299  -28.1355   22.8520 C   0  0  0  0  0  0
  -24.1480  -36.7320   23.2637 C   0  0  0  0  0  0
  -25.9441  -30.8155   21.3630 C   0  0  0  0  0  0
  -26.0209  -29.4466   20.7096 C   0  0  0  0  0  0
  -27.2134  -28.6769   20.6892 C   0  0  0  0  0  0
  -26.0431  -26.9078   19.4983 C   0  0  0  0  0  0
  -24.8627  -27.6749   19.5093 C   0  0  0  0  0  0
  -23.6202  -29.8145   20.1657 C   0  0  0  0  0  0
  -25.4103  -36.3107   24.0332 C   0  0  1  0  0  0
  -20.5896  -28.3674   23.1309 C   0  0  2  0  0  0
  -20.6796  -26.9411   22.5411 C   0  0  0  0  0  0
  -19.5766  -26.6378   21.5228 C   0  0  0  0  0  0
  -18.1944  -26.7908   22.1644 C   0  0  0  0  0  0
  -19.1544  -28.8833   23.2913 C   0  0  0  0  0  0
  -18.9452  -30.1450   23.8911 C   0  0  0  0  0  0
  -17.6451  -30.6580   24.0552 C   0  0  0  0  0  0
  -25.9030  -34.9467   23.5115 C   0  0  0  0  0  0
  -16.5356  -29.9065   23.6318 C   0  0  0  0  0  0
  -16.7287  -28.6476   23.0356 C   0  0  0  0  0  0
  -26.4477  -31.6587   25.0723 C   0  0  0  0  0  0
  -25.3748  -31.3686   26.1469 C   0  0  0  0  0  0
  -27.0287  -30.3027   24.6116 C   0  0  0  0  0  0
  -27.6045  -32.4307   25.7491 C   0  0  0  0  0  0
  -27.5574  -37.1812   24.8461 C   0  0  0  0  0  0
  -21.4168  -29.3067   22.3734 N   0  0  0  0  0  0
  -26.4294  -37.3793   23.9393 N   0  0  0  0  0  0
  -24.6783  -31.0707   22.0979 N   0  0  0  0  0  0
  -23.4197  -28.8209   23.3063 O   0  0  0  0  0  0
  -28.3688  -26.6028   20.0878 O   0  0  0  0  0  0
  -26.5610  -34.8930   22.4686 O   0  0  0  0  0  0
  -23.5395  -32.1388   23.7434 O   0  0  0  0  0  0
  -29.2986  -19.2176   20.3295 C   0  0  0  0  0  0
  -27.4395  -20.1392   21.5726 C   0  0  0  0  0  0
  -29.2710  -18.0164   21.1014 C   0  0  0  0  0  0
  -28.3499  -17.9481   22.1895 C   0  0  0  0  0  0
  -28.4403  -20.3194   20.5898 C   0  0  0  0  0  0
  -27.3803  -18.9678   22.3643 C   0  0  0  0  0  0
  -28.3496  -22.6774   20.3994 C   0  0  0  0  0  0
  -28.3992  -16.8662   23.2133 C   0  0  0  0  0  0
  -30.3144  -16.9367   20.8209 C   0  0  0  0  0  0
  -29.0990  -17.1667   24.5691 C   0  0  0  0  0  0
  -29.6221  -18.5779   24.8291 C   0  0  0  0  0  0
  -25.1858  -19.4493   23.1950 C   0  0  0  0  0  0
  -28.4949  -24.0495   19.7040 C   0  0  0  0  0  0
  -28.2419  -25.2676   20.6540 C   0  0  0  0  0  0
  -28.5972  -21.5301   19.8615 N   0  0  0  0  0  0
  -29.9383  -15.6263   20.8274 N   0  0  0  0  0  0
  -27.9261  -15.7458   23.0021 O   0  0  0  0  0  0
  -31.4574  -17.3291   20.5636 O   0  0  0  0  0  0
  -29.2538  -16.2814   25.4198 O   0  0  0  0  0  0
  -26.4400  -18.8046   23.3608 O   0  0  0  0  0  0
  -31.4635  -12.4291   19.1205 H   0  0  0  0  0  0
  -30.3234  -11.3336   19.8533 H   0  0  0  0  0  0
  -29.7350  -11.7567   17.4450 H   0  0  0  0  0  0
  -29.6669  -13.4733   17.7387 H   0  0  0  0  0  0
  -27.8061  -11.3248   18.8059 H   0  0  0  0  0  0
  -27.3712  -12.6626   17.7754 H   0  0  0  0  0  0
  -27.6809  -14.2667   19.5556 H   0  0  0  0  0  0
  -28.6961  -12.0088   21.3503 H   0  0  0  0  0  0
  -28.4798  -13.6479   21.8540 H   0  0  0  0  0  0
  -25.2764   -9.5680   22.4766 H   0  0  0  0  0  0
  -23.9997   -7.4633   22.7484 H   0  0  0  0  0  0
  -21.0844   -8.8796   19.8952 H   0  0  0  0  0  0
  -22.3716  -10.9682   19.6169 H   0  0  0  0  0  0
  -21.2039   -7.6147   23.9701 H   0  0  0  0  0  0
  -21.1468   -6.0519   25.9060 H   0  0  0  0  0  0
  -22.0614   -2.7605   23.2841 H   0  0  0  0  0  0
  -22.4104  -11.9837   22.4774 H   0  0  0  0  0  0
  -21.1121  -13.1219   22.2621 H   0  0  0  0  0  0
  -24.6518  -15.8413   20.5271 H   0  0  0  0  0  0
  -26.2682  -15.6346   20.0751 H   0  0  0  0  0  0
  -26.7156  -32.5512   23.1139 H   0  0  0  0  0  0
  -25.0011  -33.9733   25.0433 H   0  0  0  0  0  0
  -22.7016  -31.3031   21.4052 H   0  0  0  0  0  0
  -23.3739  -35.9659   23.3327 H   0  0  0  0  0  0
  -24.3569  -36.8914   22.2043 H   0  0  0  0  0  0
  -23.7240  -37.6531   23.6651 H   0  0  0  0  0  0
  -26.0597  -31.5781   20.5920 H   0  0  0  0  0  0
  -26.8320  -30.8709   21.9813 H   0  0  0  0  0  0
  -28.1175  -29.0567   21.1438 H   0  0  0  0  0  0
  -26.0304  -25.9381   19.0228 H   0  0  0  0  0  0
  -23.9631  -27.2843   19.0525 H   0  0  0  0  0  0
  -23.7301  -30.5876   19.4019 H   0  0  0  0  0  0
  -22.7430  -29.2332   19.8735 H   0  0  0  0  0  0
  -25.1280  -36.1966   25.0830 H   0  0  0  0  0  0
  -21.0009  -28.3214   24.1426 H   0  0  0  0  0  0
  -20.5720  -26.2272   23.3585 H   0  0  0  0  0  0
  -21.6657  -26.7459   22.1169 H   0  0  0  0  0  0
  -19.6940  -25.6306   21.1217 H   0  0  0  0  0  0
  -19.6681  -27.3218   20.6778 H   0  0  0  0  0  0
  -17.4223  -26.6696   21.4029 H   0  0  0  0  0  0
  -18.0326  -26.0043   22.9007 H   0  0  0  0  0  0
  -19.7926  -30.7279   24.2275 H   0  0  0  0  0  0
  -17.4986  -31.6258   24.5145 H   0  0  0  0  0  0
  -15.5342  -30.2946   23.7642 H   0  0  0  0  0  0
  -15.8700  -28.0792   22.7061 H   0  0  0  0  0  0
  -24.5909  -30.7047   25.7811 H   0  0  0  0  0  0
  -24.8960  -32.2834   26.4962 H   0  0  0  0  0  0
  -25.8100  -30.8814   27.0200 H   0  0  0  0  0  0
  -26.2803  -29.6796   24.1201 H   0  0  0  0  0  0
  -27.4051  -29.7260   25.4569 H   0  0  0  0  0  0
  -27.8656  -30.4323   23.9258 H   0  0  0  0  0  0
  -27.2670  -33.3587   26.2116 H   0  0  0  0  0  0
  -28.3846  -32.6894   25.0324 H   0  0  0  0  0  0
  -28.0734  -31.8401   26.5366 H   0  0  0  0  0  0
  -28.2608  -38.0093   24.7497 H   0  0  0  0  0  0
  -28.1054  -36.2624   24.6310 H   0  0  0  0  0  0
  -27.2292  -37.1491   25.8865 H   0  0  0  0  0  0
  -20.9320  -29.8795   21.6954 H   0  0  0  0  0  0
  -26.0186  -38.2874   24.1389 H   0  0  0  0  0  0
  -30.0305  -19.3105   19.5399 H   0  0  0  0  0  0
  -26.7349  -20.9348   21.7547 H   0  0  0  0  0  0
  -28.0188  -22.7614   21.4383 H   0  0  0  0  0  0
  -30.1518  -18.6179   25.7790 H   0  0  0  0  0  0
  -28.8060  -19.2978   24.8665 H   0  0  0  0  0  0
  -30.3166  -18.8790   24.0443 H   0  0  0  0  0  0
  -24.4805  -19.0416   23.9191 H   0  0  0  0  0  0
  -24.7749  -19.2744   22.1981 H   0  0  0  0  0  0
  -25.2531  -20.5214   23.3778 H   0  0  0  0  0  0
  -27.8021  -24.0857   18.8628 H   0  0  0  0  0  0
  -29.4991  -24.1081   19.2848 H   0  0  0  0  0  0
  -28.9663  -25.2163   21.4697 H   0  0  0  0  0  0
  -27.2683  -25.1411   21.1303 H   0  0  0  0  0  0
  -28.9721  -15.4408   21.0424 H   0  0  0  0  0  0
  1 25  1  0  0  0
  1 30  2  0  0  0
  1 86  1  0  0  0
  2  3  1  0  0  0
  2 25  1  0  0  0
  2 91  1  0  0  0
  2 92  1  0  0  0
  3  4  1  0  0  0
  3 93  1  0  0  0
  3 94  1  0  0  0
  4  5  1  0  0  0
  4 95  1  0  0  0
  4 96  1  0  0  0
  5  6  1  0  0  0
  5 26  1  0  0  0
  5 97  1  0  0  0
  6 25  1  0  0  0
  6 98  1  0  0  0
  6 99  1  0  0  0
  7  8  2  0  0  0
  7 26  1  0  0  0
  7 29  1  0  0  0
  8  9  1  0  0  0
  8 22  1  0  0  0
  9 10  1  0  0  0
  9 27  2  0  0  0
 10 11  2  0  0  0
 10 15  1  0  0  0
 11 12  1  0  0  0
 11100  1  0  0  0
 12 13  2  0  0  0
 12101  1  0  0  0
 13 14  1  0  0  0
 13 31  1  0  0  0
 14 15  2  0  0  0
 14102  1  0  0  0
 15103  1  0  0  0
 16 17  2  0  0  0
 16 21  1  0  0  0
 16 31  1  0  0  0
 17 18  1  0  0  0
 17104  1  0  0  0
 18 19  2  0  0  0
 18105  1  0  0  0
 19 20  1  0  0  0
 19 24  1  0  0  0
 20 21  2  0  0  0
 20106  1  0  0  0
 21 23  1  0  0  0
 22 28  1  0  0  0
 22 32  2  0  0  0
 26 27  1  0  0  0
 28107  1  0  0  0
 28108  1  0  0  0
 29109  1  0  0  0
 29110  1  0  0  0
 33 34  1  0  0  0
 33 66  1  0  0  0
 33 70  2  0  0  0
 34 36  1  0  0  0
 34 59  1  0  0  0
 34111  1  0  0  0
 35 44  2  0  0  0
 35 45  1  0  0  0
 35 68  1  0  0  0
 36 56  1  0  0  0
 36112  1  0  0  0
 37 39  1  0  0  0
 37 47  1  0  0  0
 37 66  1  0  0  0
 37113  1  0  0  0
 38 43  2  0  0  0
 38 46  1  0  0  0
 38 47  1  0  0  0
 39 64  1  0  0  0
 39 67  2  0  0  0
 40 52  1  0  0  0
 40 53  2  0  0  0
 40 58  1  0  0  0
 41114  1  0  0  0
 41115  1  0  0  0
 41116  1  0  0  0
 41 48  1  0  0  0
 42 43  1  0  0  0
 42 66  1  0  0  0
 42117  1  0  0  0
 42118  1  0  0  0
 43 44  1  0  0  0
 44119  1  0  0  0
 45 46  2  0  0  0
 45120  1  0  0  0
 46121  1  0  0  0
 47122  1  0  0  0
 47123  1  0  0  0
 48 56  1  0  0  0
 48 65  1  0  0  0
 48124  1  0  0  0
 49 50  1  0  0  0
 49 53  1  0  0  0
 49 64  1  0  0  0
 49125  1  0  0  0
 50 51  1  0  0  0
 50126  1  0  0  0
 50127  1  0  0  0
 51 52  1  0  0  0
 51128  1  0  0  0
 51129  1  0  0  0
 52130  1  0  0  0
 52131  1  0  0  0
 53 54  1  0  0  0
 54 55  2  0  0  0
 54132  1  0  0  0
 55 57  1  0  0  0
 55133  1  0  0  0
 56 69  2  0  0  0
 57 58  2  0  0  0
 57134  1  0  0  0
 58135  1  0  0  0
 59 60  1  0  0  0
 59 61  1  0  0  0
 59 62  1  0  0  0
 60136  1  0  0  0
 60137  1  0  0  0
 60138  1  0  0  0
 61139  1  0  0  0
 61140  1  0  0  0
 61141  1  0  0  0
 62142  1  0  0  0
 62143  1  0  0  0
 62144  1  0  0  0
 63 65  1  0  0  0
 63145  1  0  0  0
 63146  1  0  0  0
 63147  1  0  0  0
 64148  1  0  0  0
 65149  1  0  0  0
 68 84  1  0  0  0
 71 73  2  0  0  0
 71 75  1  0  0  0
 71150  1  0  0  0
 72 75  2  0  0  0
 72 76  1  0  0  0
 72151  1  0  0  0
 73 74  1  0  0  0
 73 79  1  0  0  0
 74 76  2  0  0  0
 74 78  1  0  0  0
 75 85  1  0  0  0
 76 90  1  0  0  0
 77 83  1  0  0  0
 77 85  2  0  0  0
 77152  1  0  0  0
 78 80  1  0  0  0
 78 87  2  0  0  0
 79 86  1  0  0  0
 79 88  2  0  0  0
 80 81  1  0  0  0
 80 89  2  0  0  0
 81153  1  0  0  0
 81154  1  0  0  0
 81155  1  0  0  0
 82 90  1  0  0  0
 82156  1  0  0  0
 82157  1  0  0  0
 82158  1  0  0  0
 83 84  1  0  0  0
 83159  1  0  0  0
 83160  1  0  0  0
 84161  1  0  0  0
 84162  1  0  0  0
 86163  1  0  0  0
M  ISO  4   1 100  68 101  84 101  86 100
M  END
> <chiral flag>
0

> <version>
0

> <s_m_source_file>
/data/baiqing/PycharmProjects/Reinvent-master-3.2/result/LINK_invent/BTK/process_docking_weight1_custom_product_contain_oxygen_bond_distance_aromatic_linkinvent_7_9_3/rearranged_h_0115.sdf

> <i_m_source_file_index>
96

> <r_mmod_Potential_Energy-OPLS-2005>
-69.7551040649414

> <r_mmod_Stretch_Energy-OPLS-2005>
55.1561660766602

> <r_mmod_Bend_Energy-OPLS-2005>
115.941757202148

> <r_mmod_Torsional_Energy-OPLS-2005>
278.431793212891

> <r_mmod_Improper_Torsional_Energy-OPLS-2005>
5.32629585266113

> <r_mmod_Van_der_Waal_Energy-OPLS-2005>
165.048385620117

> <r_mmod_Electrostatic_Energy-OPLS-2005>
-474.730651855469

> <r_mmod_Solvation_Energy-OPLS-2005>
-239.022872924805

> <b_mmod_Minimization_Converged-OPLS-2005>
0

> <r_mmod_RMS_Derivative-OPLS-2005>
3.49659419059753

$$$$
96
                    3D
 Structure written by MMmdl.
152160  0  0  1  0            999 V2000
  -30.6641  -14.5635   20.4615 C   0  0  0  0  0  0
  -30.4309  -12.3238   19.4579 C   0  0  0  0  0  0
  -29.5019  -12.4137   18.2270 C   0  0  0  0  0  0
  -28.0172  -12.3266   18.6352 C   0  0  0  0  0  0
  -27.6534  -13.2116   19.8583 C   0  0  2  0  0  0
  -28.6985  -13.0678   20.9871 C   0  0  0  0  0  0
  -25.2572  -13.8173   20.5702 C   0  0  0  0  0  0
  -24.1831  -13.0443   20.9218 C   0  0  0  0  0  0
  -24.6385  -11.6912   20.8771 C   0  0  0  0  0  0
  -23.9051  -10.4293   21.0424 C   0  0  0  0  0  0
  -24.3604   -9.4205   21.9193 C   0  0  0  0  0  0
  -23.6285   -8.2234   22.0749 C   0  0  0  0  0  0
  -22.4265   -8.0278   21.3541 C   0  0  0  0  0  0
  -21.9904   -9.0255   20.4644 C   0  0  0  0  0  0
  -22.7230  -10.2136   20.3064 C   0  0  0  0  0  0
  -21.6850   -6.0731   22.5272 C   0  0  0  0  0  0
  -21.4008   -6.5633   23.8203 C   0  0  0  0  0  0
  -21.3660   -5.6789   24.9168 C   0  0  0  0  0  0
  -21.6046   -4.3050   24.7218 C   0  0  0  0  0  0
  -21.8822   -3.8145   23.4339 C   0  0  0  0  0  0
  -21.9194   -4.6959   22.3393 C   0  0  0  0  0  0
  -22.7851  -13.5239   21.1876 C   0  0  0  0  0  0
  -22.1665   -4.2147   21.0972 F   0  0  0  0  0  0
  -21.5640   -3.4535   25.7734 F   0  0  0  0  0  0
  -30.0190  -13.3641   20.4158 N   0  0  0  0  0  0
  -26.2996  -12.9345   20.3339 N   0  0  0  0  0  0
  -25.9315  -11.6508   20.5807 N   0  0  0  0  0  0
  -22.0489  -12.8217   22.0428 N   0  0  0  0  0  0
  -25.4300  -15.1881   20.4062 N   0  0  0  0  0  0
  -31.8516  -14.6859   20.1553 O   0  0  0  0  0  0
  -21.6632   -6.8873   21.4233 O   0  0  0  0  0  0
  -22.3541  -14.5547   20.6731 O   0  0  0  0  0  0
  -24.6189  -31.8651   23.2075 C   0  0  0  0  0  0
  -25.9065  -32.4808   23.8388 C   0  0  1  0  0  0
  -27.2292  -27.3930   20.1146 C   0  0  0  0  0  0
  -25.5913  -33.8606   24.2318 N   0  0  0  0  0  0
  -23.4115  -30.4878   21.5473 C   0  0  2  0  0  0
  -24.8618  -28.9554   20.1076 C   0  0  0  0  0  0
  -22.7449  -29.4633   22.4948 C   0  0  0  0  0  0
  -18.0283  -28.1381   22.8488 C   0  0  0  0  0  0
  -24.1490  -36.7302   23.2638 C   0  0  0  0  0  0
  -25.9451  -30.8193   21.3692 C   0  0  0  0  0  0
  -26.0243  -29.4525   20.7122 C   0  0  0  0  0  0
  -27.2142  -28.6791   20.7133 C   0  0  0  0  0  0
  -26.0544  -26.9310   19.4826 C   0  0  0  0  0  0
  -24.8747  -27.6970   19.4841 C   0  0  0  0  0  0
  -23.6244  -29.8244   20.1607 C   0  0  0  0  0  0
  -25.4110  -36.3102   24.0339 C   0  0  1  0  0  0
  -20.5877  -28.3673   23.1300 C   0  0  2  0  0  0
  -20.6771  -26.9401   22.5414 C   0  0  0  0  0  0
  -19.5751  -26.6388   21.5210 C   0  0  0  0  0  0
  -18.1929  -26.7928   22.1617 C   0  0  0  0  0  0
  -19.1531  -28.8844   23.2894 C   0  0  0  0  0  0
  -18.9456  -30.1447   23.8910 C   0  0  0  0  0  0
  -17.6458  -30.6583   24.0564 C   0  0  0  0  0  0
  -25.9040  -34.9468   23.5124 C   0  0  0  0  0  0
  -16.5350  -29.9085   23.6326 C   0  0  0  0  0  0
  -16.7270  -28.6500   23.0346 C   0  0  0  0  0  0
  -26.4487  -31.6593   25.0722 C   0  0  0  0  0  0
  -25.3753  -31.3707   26.1472 C   0  0  0  0  0  0
  -27.0314  -30.3025   24.6120 C   0  0  0  0  0  0
  -27.6065  -32.4317   25.7480 C   0  0  0  0  0  0
  -27.5581  -37.1807   24.8467 C   0  0  0  0  0  0
  -21.4166  -29.3034   22.3701 N   0  0  0  0  0  0
  -26.4296  -37.3787   23.9408 N   0  0  0  0  0  0
  -24.6763  -31.0727   22.0991 N   0  0  0  0  0  0
  -23.4201  -28.8167   23.3001 O   0  0  0  0  0  0
  -28.3281  -26.5487   20.1795 O   0  0  0  0  0  0
  -26.5597  -34.8925   22.4683 O   0  0  0  0  0  0
  -23.5368  -32.1415   23.7443 O   0  0  0  0  0  0
  -28.7989  -24.1959   20.8350 C   0  0  0  0  0  0
  -29.7990  -18.1707   20.7496 C   0  0  0  0  0  0
  -30.3637  -19.4528   18.7832 C   0  0  0  0  0  0
  -29.9195  -19.4463   20.1197 C   0  0  0  0  0  0
  -30.0637  -16.9704   20.0193 C   0  0  0  0  0  0
  -30.4103  -17.1353   18.6468 C   0  0  0  0  0  0
  -29.3929  -23.0353   21.0980 C   0  0  0  0  0  0
  -28.0955  -25.3203   20.7949 C   0  0  0  0  0  0
  -29.2271  -21.8555   20.2400 C   0  0  0  0  0  0
  -30.4671  -15.9994   17.6436 C   0  0  0  0  0  0
  -30.5914  -18.3381   18.0693 N   0  0  0  0  0  0
  -29.6765  -20.6985   20.8008 N   0  0  0  0  0  0
  -29.8786  -15.6613   20.6256 N   0  0  0  0  0  0
  -28.7136  -21.8753   19.1173 O   0  0  0  0  0  0
  -31.4742  -12.4280   19.1521 H   0  0  0  0  0  0
  -30.3529  -11.3398   19.9233 H   0  0  0  0  0  0
  -29.7299  -11.6025   17.5340 H   0  0  0  0  0  0
  -29.6908  -13.3258   17.6714 H   0  0  0  0  0  0
  -27.8137  -11.2807   18.8693 H   0  0  0  0  0  0
  -27.3754  -12.5719   17.7878 H   0  0  0  0  0  0
  -27.6743  -14.2437   19.5091 H   0  0  0  0  0  0
  -28.6882  -12.0545   21.3911 H   0  0  0  0  0  0
  -28.4661  -13.7286   21.8240 H   0  0  0  0  0  0
  -25.2744   -9.5678   22.4773 H   0  0  0  0  0  0
  -23.9995   -7.4607   22.7447 H   0  0  0  0  0  0
  -21.0846   -8.8777   19.8936 H   0  0  0  0  0  0
  -22.3694  -10.9677   19.6175 H   0  0  0  0  0  0
  -21.1997   -7.6139   23.9706 H   0  0  0  0  0  0
  -21.1483   -6.0517   25.9071 H   0  0  0  0  0  0
  -22.0605   -2.7607   23.2835 H   0  0  0  0  0  0
  -22.4093  -11.9861   22.4796 H   0  0  0  0  0  0
  -21.1113  -13.1252   22.2650 H   0  0  0  0  0  0
  -24.6619  -15.8442   20.4987 H   0  0  0  0  0  0
  -26.2763  -15.6179   20.0551 H   0  0  0  0  0  0
  -26.7126  -32.5514   23.1146 H   0  0  0  0  0  0
  -25.0088  -33.9764   25.0481 H   0  0  0  0  0  0
  -22.7013  -31.3053   21.4075 H   0  0  0  0  0  0
  -23.3750  -35.9640   23.3323 H   0  0  0  0  0  0
  -24.3580  -36.8892   22.2049 H   0  0  0  0  0  0
  -23.7247  -37.6517   23.6636 H   0  0  0  0  0  0
  -26.0677  -31.5869   20.6043 H   0  0  0  0  0  0
  -26.8282  -30.8686   21.9939 H   0  0  0  0  0  0
  -28.1043  -29.0473   21.2041 H   0  0  0  0  0  0
  -26.0451  -25.9571   19.0137 H   0  0  0  0  0  0
  -23.9836  -27.3101   19.0093 H   0  0  0  0  0  0
  -23.7367  -30.6024   19.4049 H   0  0  0  0  0  0
  -22.7481  -29.2478   19.8596 H   0  0  0  0  0  0
  -25.1287  -36.1969   25.0834 H   0  0  0  0  0  0
  -20.9974  -28.3246   24.1420 H   0  0  0  0  0  0
  -20.5682  -26.2274   23.3603 H   0  0  0  0  0  0
  -21.6642  -26.7445   22.1204 H   0  0  0  0  0  0
  -19.6917  -25.6306   21.1223 H   0  0  0  0  0  0
  -19.6693  -27.3211   20.6749 H   0  0  0  0  0  0
  -17.4201  -26.6679   21.4015 H   0  0  0  0  0  0
  -18.0326  -26.0067   22.9010 H   0  0  0  0  0  0
  -19.7931  -30.7256   24.2288 H   0  0  0  0  0  0
  -17.5011  -31.6259   24.5169 H   0  0  0  0  0  0
  -15.5349  -30.2986   23.7646 H   0  0  0  0  0  0
  -15.8667  -28.0822   22.7052 H   0  0  0  0  0  0
  -24.5919  -30.7063   25.7812 H   0  0  0  0  0  0
  -24.8956  -32.2864   26.4937 H   0  0  0  0  0  0
  -25.8109  -30.8864   27.0221 H   0  0  0  0  0  0
  -26.2855  -29.6783   24.1185 H   0  0  0  0  0  0
  -27.4078  -29.7267   25.4586 H   0  0  0  0  0  0
  -27.8702  -30.4323   23.9277 H   0  0  0  0  0  0
  -27.2682  -33.3600   26.2097 H   0  0  0  0  0  0
  -28.3851  -32.6908   25.0293 H   0  0  0  0  0  0
  -28.0768  -31.8425   26.5364 H   0  0  0  0  0  0
  -28.2617  -38.0086   24.7498 H   0  0  0  0  0  0
  -28.1058  -36.2619   24.6315 H   0  0  0  0  0  0
  -27.2298  -37.1489   25.8871 H   0  0  0  0  0  0
  -20.9335  -29.8747   21.6910 H   0  0  0  0  0  0
  -26.0188  -38.2869   24.1400 H   0  0  0  0  0  0
  -29.4872  -18.1117   21.7824 H   0  0  0  0  0  0
  -30.5519  -20.3745   18.2534 H   0  0  0  0  0  0
  -30.0299  -22.9556   21.9667 H   0  0  0  0  0  0
  -27.1585  -25.3471   21.3375 H   0  0  0  0  0  0
  -31.3156  -15.3388   17.8084 H   0  0  0  0  0  0
  -30.5537  -16.3706   16.6219 H   0  0  0  0  0  0
  -29.5365  -15.4400   17.6996 H   0  0  0  0  0  0
  -29.9041  -20.7309   21.7858 H   0  0  0  0  0  0
  -28.9827  -15.4920   21.0597 H   0  0  0  0  0  0
  1 25  1  0  0  0
  1 30  2  0  0  0
  1 83  1  0  0  0
  2  3  1  0  0  0
  2 25  1  0  0  0
  2 85  1  0  0  0
  2 86  1  0  0  0
  3  4  1  0  0  0
  3 87  1  0  0  0
  3 88  1  0  0  0
  4  5  1  0  0  0
  4 89  1  0  0  0
  4 90  1  0  0  0
  5  6  1  0  0  0
  5 26  1  0  0  0
  5 91  1  0  0  0
  6 25  1  0  0  0
  6 92  1  0  0  0
  6 93  1  0  0  0
  7  8  2  0  0  0
  7 26  1  0  0  0
  7 29  1  0  0  0
  8  9  1  0  0  0
  8 22  1  0  0  0
  9 10  1  0  0  0
  9 27  2  0  0  0
 10 11  2  0  0  0
 10 15  1  0  0  0
 11 12  1  0  0  0
 11 94  1  0  0  0
 12 13  2  0  0  0
 12 95  1  0  0  0
 13 14  1  0  0  0
 13 31  1  0  0  0
 14 15  2  0  0  0
 14 96  1  0  0  0
 15 97  1  0  0  0
 16 17  2  0  0  0
 16 21  1  0  0  0
 16 31  1  0  0  0
 17 18  1  0  0  0
 17 98  1  0  0  0
 18 19  2  0  0  0
 18 99  1  0  0  0
 19 20  1  0  0  0
 19 24  1  0  0  0
 20 21  2  0  0  0
 20100  1  0  0  0
 21 23  1  0  0  0
 22 28  1  0  0  0
 22 32  2  0  0  0
 26 27  1  0  0  0
 28101  1  0  0  0
 28102  1  0  0  0
 29103  1  0  0  0
 29104  1  0  0  0
 33 34  1  0  0  0
 33 66  1  0  0  0
 33 70  2  0  0  0
 34 36  1  0  0  0
 34 59  1  0  0  0
 34105  1  0  0  0
 35 44  2  0  0  0
 35 45  1  0  0  0
 35 68  1  0  0  0
 36 56  1  0  0  0
 36106  1  0  0  0
 37 39  1  0  0  0
 37 47  1  0  0  0
 37 66  1  0  0  0
 37107  1  0  0  0
 38 43  2  0  0  0
 38 46  1  0  0  0
 38 47  1  0  0  0
 39 64  1  0  0  0
 39 67  2  0  0  0
 40 52  1  0  0  0
 40 53  2  0  0  0
 40 58  1  0  0  0
 41108  1  0  0  0
 41109  1  0  0  0
 41110  1  0  0  0
 41 48  1  0  0  0
 42 43  1  0  0  0
 42 66  1  0  0  0
 42111  1  0  0  0
 42112  1  0  0  0
 43 44  1  0  0  0
 44113  1  0  0  0
 45 46  2  0  0  0
 45114  1  0  0  0
 46115  1  0  0  0
 47116  1  0  0  0
 47117  1  0  0  0
 48 56  1  0  0  0
 48 65  1  0  0  0
 48118  1  0  0  0
 49 50  1  0  0  0
 49 53  1  0  0  0
 49 64  1  0  0  0
 49119  1  0  0  0
 50 51  1  0  0  0
 50120  1  0  0  0
 50121  1  0  0  0
 51 52  1  0  0  0
 51122  1  0  0  0
 51123  1  0  0  0
 52124  1  0  0  0
 52125  1  0  0  0
 53 54  1  0  0  0
 54 55  2  0  0  0
 54126  1  0  0  0
 55 57  1  0  0  0
 55127  1  0  0  0
 56 69  2  0  0  0
 57 58  2  0  0  0
 57128  1  0  0  0
 58129  1  0  0  0
 59 60  1  0  0  0
 59 61  1  0  0  0
 59 62  1  0  0  0
 60130  1  0  0  0
 60131  1  0  0  0
 60132  1  0  0  0
 61133  1  0  0  0
 61134  1  0  0  0
 61135  1  0  0  0
 62136  1  0  0  0
 62137  1  0  0  0
 62138  1  0  0  0
 63 65  1  0  0  0
 63139  1  0  0  0
 63140  1  0  0  0
 63141  1  0  0  0
 64142  1  0  0  0
 65143  1  0  0  0
 68 78  1  0  0  0
 71 77  2  0  0  0
 71 78  2  0  0  0
 72 74  2  0  0  0
 72 75  1  0  0  0
 72144  1  0  0  0
 73 74  1  0  0  0
 73 81  2  0  0  0
 73145  1  0  0  0
 74 82  1  0  0  0
 75 76  2  0  0  0
 75 83  1  0  0  0
 76 80  1  0  0  0
 76 81  1  0  0  0
 77 79  1  0  0  0
 77146  1  0  0  0
 78147  1  0  0  0
 79 82  1  0  0  0
 79 84  2  0  0  0
 80148  1  0  0  0
 80149  1  0  0  0
 80150  1  0  0  0
 82151  1  0  0  0
 83152  1  0  0  0
M  ISO  4   1 100  68 101  78 101  83 100
M  END
> <chiral flag>
0

> <version>
0

> <s_m_source_file>
/data/baiqing/PycharmProjects/Reinvent-master-3.2/result/LINK_invent/BTK/process_docking_weight1_custom_product_contain_oxygen_bond_distance_aromatic_linkinvent_7_9_3/rearranged_h_0115.sdf

> <i_m_source_file_index>
97

> <r_mmod_Potential_Energy-OPLS-2005>
-297.037445068359

> <r_mmod_Stretch_Energy-OPLS-2005>
50.1461296081543

> <r_mmod_Bend_Energy-OPLS-2005>
106.837821960449

> <r_mmod_Torsional_Energy-OPLS-2005>
177.784393310547

> <r_mmod_Improper_Torsional_Energy-OPLS-2005>
6.88538980484009

> <r_mmod_Van_der_Waal_Energy-OPLS-2005>
163.073593139648

> <r_mmod_Electrostatic_Energy-OPLS-2005>
-589.361206054688

> <r_mmod_Solvation_Energy-OPLS-2005>
-246.433135986328

> <b_mmod_Minimization_Converged-OPLS-2005>
0

> <r_mmod_RMS_Derivative-OPLS-2005>
1.17651152610779

$$$$
