0
                    3D
 Structure written by MMmdl.
151159  0  0  1  0            999 V2000
  -30.6962  -14.4835   20.5867 C   0  0  0  0  0  0
  -30.4212  -12.3206   19.4196 C   0  0  0  0  0  0
  -29.4909  -12.5049   18.2043 C   0  0  0  0  0  0
  -28.0134  -12.3638   18.6196 C   0  0  0  0  0  0
  -27.6581  -13.2072   19.8729 C   0  0  2  0  0  0
  -28.6988  -12.9944   20.9935 C   0  0  0  0  0  0
  -25.2578  -13.8163   20.5685 C   0  0  0  0  0  0
  -24.1829  -13.0438   20.9180 C   0  0  0  0  0  0
  -24.6381  -11.6908   20.8736 C   0  0  0  0  0  0
  -23.9048  -10.4296   21.0403 C   0  0  0  0  0  0
  -24.3603   -9.4215   21.9183 C   0  0  0  0  0  0
  -23.6284   -8.2245   22.0749 C   0  0  0  0  0  0
  -22.4269   -8.0277   21.3533 C   0  0  0  0  0  0
  -21.9903   -9.0251   20.4639 C   0  0  0  0  0  0
  -22.7222  -10.2137   20.3049 C   0  0  0  0  0  0
  -21.6845   -6.0731   22.5274 C   0  0  0  0  0  0
  -21.4010   -6.5635   23.8210 C   0  0  0  0  0  0
  -21.3667   -5.6790   24.9176 C   0  0  0  0  0  0
  -21.6041   -4.3048   24.7230 C   0  0  0  0  0  0
  -21.8821   -3.8145   23.4350 C   0  0  0  0  0  0
  -21.9191   -4.6959   22.3403 C   0  0  0  0  0  0
  -22.7854  -13.5241   21.1847 C   0  0  0  0  0  0
  -22.1664   -4.2145   21.0980 F   0  0  0  0  0  0
  -21.5633   -3.4532   25.7746 F   0  0  0  0  0  0
  -30.0247  -13.3086   20.4365 N   0  0  0  0  0  0
  -26.3000  -12.9329   20.3354 N   0  0  0  0  0  0
  -25.9303  -11.6491   20.5755 N   0  0  0  0  0  0
  -22.0501  -12.8231   22.0411 N   0  0  0  0  0  0
  -25.4319  -15.1881   20.4114 N   0  0  0  0  0  0
  -31.8221  -14.6691   20.1160 O   0  0  0  0  0  0
  -21.6631   -6.8873   21.4233 O   0  0  0  0  0  0
  -22.3544  -14.5547   20.6697 O   0  0  0  0  0  0
  -24.6172  -31.8648   23.2083 C   0  0  0  0  0  0
  -25.9061  -32.4802   23.8376 C   0  0  1  0  0  0
  -27.2319  -27.4046   20.0852 C   0  0  0  0  0  0
  -25.5911  -33.8596   24.2308 N   0  0  0  0  0  0
  -23.4053  -30.4891   21.5506 C   0  0  2  0  0  0
  -24.8482  -28.9514   20.1130 C   0  0  0  0  0  0
  -22.7412  -29.4645   22.4985 C   0  0  0  0  0  0
  -18.0262  -28.1375   22.8494 C   0  0  0  0  0  0
  -24.1483  -36.7304   23.2641 C   0  0  0  0  0  0
  -25.9370  -30.8205   21.3649 C   0  0  0  0  0  0
  -26.0104  -29.4530   20.7103 C   0  0  0  0  0  0
  -27.2015  -28.6865   20.6927 C   0  0  0  0  0  0
  -26.0405  -26.9182   19.4970 C   0  0  0  0  0  0
  -24.8596  -27.6851   19.5056 C   0  0  0  0  0  0
  -23.6125  -29.8223   20.1644 C   0  0  0  0  0  0
  -25.4107  -36.3094   24.0332 C   0  0  1  0  0  0
  -20.5853  -28.3662   23.1308 C   0  0  2  0  0  0
  -20.6751  -26.9398   22.5406 C   0  0  0  0  0  0
  -19.5731  -26.6377   21.5203 C   0  0  0  0  0  0
  -18.1910  -26.7923   22.1618 C   0  0  0  0  0  0
  -19.1513  -28.8837   23.2898 C   0  0  0  0  0  0
  -18.9447  -30.1447   23.8902 C   0  0  0  0  0  0
  -17.6450  -30.6588   24.0561 C   0  0  0  0  0  0
  -25.9039  -34.9462   23.5117 C   0  0  0  0  0  0
  -16.5342  -29.9088   23.6325 C   0  0  0  0  0  0
  -16.7251  -28.6502   23.0354 C   0  0  0  0  0  0
  -26.4487  -31.6595   25.0713 C   0  0  0  0  0  0
  -25.3749  -31.3684   26.1452 C   0  0  0  0  0  0
  -27.0348  -30.3046   24.6103 C   0  0  0  0  0  0
  -27.6042  -32.4332   25.7493 C   0  0  0  0  0  0
  -27.5579  -37.1806   24.8464 C   0  0  0  0  0  0
  -21.4134  -29.3036   22.3723 N   0  0  0  0  0  0
  -26.4292  -37.3779   23.9410 N   0  0  0  0  0  0
  -24.6719  -31.0726   22.0999 N   0  0  0  0  0  0
  -23.4178  -28.8174   23.3025 O   0  0  0  0  0  0
  -28.4202  -26.6897   20.0942 O   0  0  0  0  0  0
  -26.5597  -34.8918   22.4675 O   0  0  0  0  0  0
  -23.5359  -32.1415   23.7467 O   0  0  0  0  0  0
  -29.2646  -18.2631   19.9063 C   0  0  0  0  0  0
  -28.8275  -19.6228   19.7425 C   0  0  0  0  0  0
  -29.8947  -18.0251   21.1046 C   0  0  0  0  0  0
  -29.1035  -20.4243   20.8248 C   0  0  0  0  0  0
  -28.4185  -24.2172   20.4953 C   0  0  0  0  0  0
  -30.5726  -16.7741   21.6290 C   0  0  0  0  0  0
  -28.6016  -22.7612   19.9814 C   0  0  0  0  0  0
  -28.5190  -25.3805   19.4755 C   0  0  0  0  0  0
  -28.8310  -21.7829   21.0609 N   0  0  0  0  0  0
  -30.0203  -15.4767   21.2003 N   0  0  0  0  0  0
  -28.2261  -24.4326   21.6982 O   0  0  0  0  0  0
  -29.9117  -19.4921   22.0660 S   0  0  0  0  0  0
  -31.4641  -12.4276   19.1141 H   0  0  0  0  0  0
  -30.3316  -11.3103   19.8232 H   0  0  0  0  0  0
  -29.7323  -11.7760   17.4295 H   0  0  0  0  0  0
  -29.6547  -13.4881   17.7605 H   0  0  0  0  0  0
  -27.8258  -11.3087   18.8204 H   0  0  0  0  0  0
  -27.3605  -12.6336   17.7889 H   0  0  0  0  0  0
  -27.7016  -14.2544   19.5737 H   0  0  0  0  0  0
  -28.6813  -11.9586   21.3355 H   0  0  0  0  0  0
  -28.4554  -13.5928   21.8726 H   0  0  0  0  0  0
  -25.2749   -9.5691   22.4762 H   0  0  0  0  0  0
  -23.9994   -7.4642   22.7473 H   0  0  0  0  0  0
  -21.0835   -8.8766   19.8948 H   0  0  0  0  0  0
  -22.3674  -10.9671   19.6161 H   0  0  0  0  0  0
  -21.2000   -7.6144   23.9709 H   0  0  0  0  0  0
  -21.1484   -6.0520   25.9077 H   0  0  0  0  0  0
  -22.0596   -2.7603   23.2849 H   0  0  0  0  0  0
  -22.4113  -11.9879   22.4783 H   0  0  0  0  0  0
  -21.1123  -13.1255   22.2633 H   0  0  0  0  0  0
  -24.6685  -15.8467   20.5229 H   0  0  0  0  0  0
  -26.2904  -15.6267   20.1029 H   0  0  0  0  0  0
  -26.7129  -32.5503   23.1132 H   0  0  0  0  0  0
  -25.0079  -33.9744   25.0469 H   0  0  0  0  0  0
  -22.6953  -31.3073   21.4125 H   0  0  0  0  0  0
  -23.3735  -35.9647   23.3293 H   0  0  0  0  0  0
  -24.3579  -36.8927   22.2057 H   0  0  0  0  0  0
  -23.7245  -37.6504   23.6675 H   0  0  0  0  0  0
  -26.0526  -31.5855   20.5959 H   0  0  0  0  0  0
  -26.8246  -30.8741   21.9837 H   0  0  0  0  0  0
  -28.1006  -29.0729   21.1530 H   0  0  0  0  0  0
  -25.9836  -25.9464   19.0324 H   0  0  0  0  0  0
  -23.9623  -27.2924   19.0475 H   0  0  0  0  0  0
  -23.7224  -30.5969   19.4043 H   0  0  0  0  0  0
  -22.7349  -29.2432   19.8696 H   0  0  0  0  0  0
  -25.1284  -36.1969   25.0828 H   0  0  0  0  0  0
  -20.9950  -28.3238   24.1425 H   0  0  0  0  0  0
  -20.5646  -26.2268   23.3587 H   0  0  0  0  0  0
  -21.6629  -26.7435   22.1218 H   0  0  0  0  0  0
  -19.6883  -25.6286   21.1233 H   0  0  0  0  0  0
  -19.6680  -27.3177   20.6731 H   0  0  0  0  0  0
  -17.4182  -26.6667   21.4014 H   0  0  0  0  0  0
  -18.0311  -26.0067   22.9016 H   0  0  0  0  0  0
  -19.7930  -30.7254   24.2280 H   0  0  0  0  0  0
  -17.5013  -31.6272   24.5164 H   0  0  0  0  0  0
  -15.5341  -30.2993   23.7649 H   0  0  0  0  0  0
  -15.8645  -28.0822   22.7077 H   0  0  0  0  0  0
  -24.5935  -30.7021   25.7779 H   0  0  0  0  0  0
  -24.8922  -32.2830   26.4901 H   0  0  0  0  0  0
  -25.8099  -30.8852   27.0210 H   0  0  0  0  0  0
  -26.2905  -29.6771   24.1182 H   0  0  0  0  0  0
  -27.4158  -29.7319   25.4572 H   0  0  0  0  0  0
  -27.8715  -30.4365   23.9234 H   0  0  0  0  0  0
  -27.2652  -33.3633   26.2065 H   0  0  0  0  0  0
  -28.3853  -32.6886   25.0324 H   0  0  0  0  0  0
  -28.0707  -31.8468   26.5417 H   0  0  0  0  0  0
  -28.2586  -38.0116   24.7541 H   0  0  0  0  0  0
  -28.1087  -36.2647   24.6267 H   0  0  0  0  0  0
  -27.2296  -37.1430   25.8866 H   0  0  0  0  0  0
  -20.9290  -29.8779   21.6960 H   0  0  0  0  0  0
  -26.0173  -38.2853   24.1421 H   0  0  0  0  0  0
  -29.1210  -17.5214   19.1331 H   0  0  0  0  0  0
  -28.3265  -19.9503   18.8427 H   0  0  0  0  0  0
  -30.5259  -16.7826   22.7182 H   0  0  0  0  0  0
  -31.6371  -16.8330   21.3962 H   0  0  0  0  0  0
  -29.4401  -22.7434   19.2841 H   0  0  0  0  0  0
  -27.7108  -22.4820   19.4170 H   0  0  0  0  0  0
  -27.8267  -25.2325   18.6497 H   0  0  0  0  0  0
  -29.5102  -25.3171   19.0274 H   0  0  0  0  0  0
  -29.0469  -22.2119   21.9598 H   0  0  0  0  0  0
  -29.0867  -15.2557   21.5112 H   0  0  0  0  0  0
  1 25  1  0  0  0
  1 30  2  0  0  0
  1 80  1  0  0  0
  2  3  1  0  0  0
  2 25  1  0  0  0
  2 83  1  0  0  0
  2 84  1  0  0  0
  3  4  1  0  0  0
  3 85  1  0  0  0
  3 86  1  0  0  0
  4  5  1  0  0  0
  4 87  1  0  0  0
  4 88  1  0  0  0
  5  6  1  0  0  0
  5 26  1  0  0  0
  5 89  1  0  0  0
  6 25  1  0  0  0
  6 90  1  0  0  0
  6 91  1  0  0  0
  7  8  2  0  0  0
  7 26  1  0  0  0
  7 29  1  0  0  0
  8  9  1  0  0  0
  8 22  1  0  0  0
  9 10  1  0  0  0
  9 27  2  0  0  0
 10 11  2  0  0  0
 10 15  1  0  0  0
 11 12  1  0  0  0
 11 92  1  0  0  0
 12 13  2  0  0  0
 12 93  1  0  0  0
 13 14  1  0  0  0
 13 31  1  0  0  0
 14 15  2  0  0  0
 14 94  1  0  0  0
 15 95  1  0  0  0
 16 17  2  0  0  0
 16 21  1  0  0  0
 16 31  1  0  0  0
 17 18  1  0  0  0
 17 96  1  0  0  0
 18 19  2  0  0  0
 18 97  1  0  0  0
 19 20  1  0  0  0
 19 24  1  0  0  0
 20 21  2  0  0  0
 20 98  1  0  0  0
 21 23  1  0  0  0
 22 28  1  0  0  0
 22 32  2  0  0  0
 26 27  1  0  0  0
 28 99  1  0  0  0
 28100  1  0  0  0
 29101  1  0  0  0
 29102  1  0  0  0
 33 34  1  0  0  0
 33 66  1  0  0  0
 33 70  2  0  0  0
 34 36  1  0  0  0
 34 59  1  0  0  0
 34103  1  0  0  0
 35 44  2  0  0  0
 35 45  1  0  0  0
 35 68  1  0  0  0
 36 56  1  0  0  0
 36104  1  0  0  0
 37 39  1  0  0  0
 37 47  1  0  0  0
 37 66  1  0  0  0
 37105  1  0  0  0
 38 43  2  0  0  0
 38 46  1  0  0  0
 38 47  1  0  0  0
 39 64  1  0  0  0
 39 67  2  0  0  0
 40 52  1  0  0  0
 40 53  2  0  0  0
 40 58  1  0  0  0
 41106  1  0  0  0
 41107  1  0  0  0
 41108  1  0  0  0
 41 48  1  0  0  0
 42 43  1  0  0  0
 42 66  1  0  0  0
 42109  1  0  0  0
 42110  1  0  0  0
 43 44  1  0  0  0
 44111  1  0  0  0
 45 46  2  0  0  0
 45112  1  0  0  0
 46113  1  0  0  0
 47114  1  0  0  0
 47115  1  0  0  0
 48 56  1  0  0  0
 48 65  1  0  0  0
 48116  1  0  0  0
 49 50  1  0  0  0
 49 53  1  0  0  0
 49 64  1  0  0  0
 49117  1  0  0  0
 50 51  1  0  0  0
 50118  1  0  0  0
 50119  1  0  0  0
 51 52  1  0  0  0
 51120  1  0  0  0
 51121  1  0  0  0
 52122  1  0  0  0
 52123  1  0  0  0
 53 54  1  0  0  0
 54 55  2  0  0  0
 54124  1  0  0  0
 55 57  1  0  0  0
 55125  1  0  0  0
 56 69  2  0  0  0
 57 58  2  0  0  0
 57126  1  0  0  0
 58127  1  0  0  0
 59 60  1  0  0  0
 59 61  1  0  0  0
 59 62  1  0  0  0
 60128  1  0  0  0
 60129  1  0  0  0
 60130  1  0  0  0
 61131  1  0  0  0
 61132  1  0  0  0
 61133  1  0  0  0
 62134  1  0  0  0
 62135  1  0  0  0
 62136  1  0  0  0
 63 65  1  0  0  0
 63137  1  0  0  0
 63138  1  0  0  0
 63139  1  0  0  0
 64140  1  0  0  0
 65141  1  0  0  0
 68 78  1  0  0  0
 71 72  1  0  0  0
 71 73  2  0  0  0
 71142  1  0  0  0
 72 74  2  0  0  0
 72143  1  0  0  0
 73 76  1  0  0  0
 73 82  1  0  0  0
 74 79  1  0  0  0
 74 82  1  0  0  0
 75 77  1  0  0  0
 75 78  1  0  0  0
 75 81  2  0  0  0
 76 80  1  0  0  0
 76144  1  0  0  0
 76145  1  0  0  0
 77 79  1  0  0  0
 77146  1  0  0  0
 77147  1  0  0  0
 78148  1  0  0  0
 78149  1  0  0  0
 79150  1  0  0  0
 80151  1  0  0  0
M  ISO  4   1 100  68 101  78 101  80 100
M  END
> <chiral flag>
0

> <version>
0

> <s_m_source_file>
/data/baiqing/PycharmProjects/Reinvent-master-3.2/result/LINK_invent/BTK/process_docking_weight1_custom_product_contain_oxygen_bond_distance_aromatic_linkinvent_7_9_3/rearranged_h_0155.sdf

> <i_m_source_file_index>
1

> <r_mmod_Potential_Energy-OPLS-2005>
-101.929763793945

> <r_mmod_Stretch_Energy-OPLS-2005>
40.5326766967773

> <r_mmod_Bend_Energy-OPLS-2005>
113.752723693848

> <r_mmod_Torsional_Energy-OPLS-2005>
185.059936523438

> <r_mmod_Improper_Torsional_Energy-OPLS-2005>
3.43772840499878

> <r_mmod_Van_der_Waal_Energy-OPLS-2005>
127.950897216797

> <r_mmod_Electrostatic_Energy-OPLS-2005>
-340.560241699219

> <r_mmod_Solvation_Energy-OPLS-2005>
-246.962966918945

> <b_mmod_Minimization_Converged-OPLS-2005>
0

> <r_mmod_RMS_Derivative-OPLS-2005>
1.32801675796509

$$$$
1
                    3D
 Structure written by MMmdl.
150159  0  0  1  0            999 V2000
  -30.6076  -14.8139   20.4567 C   0  0  0  0  0  0
  -30.4405  -12.4988   19.4965 C   0  0  0  0  0  0
  -29.5264  -12.5370   18.2491 C   0  0  0  0  0  0
  -28.0506  -12.3496   18.6518 C   0  0  0  0  0  0
  -27.6464  -13.2411   19.8557 C   0  0  2  0  0  0
  -28.6909  -13.1985   20.9944 C   0  0  0  0  0  0
  -25.2530  -13.8206   20.5682 C   0  0  0  0  0  0
  -24.1820  -13.0448   20.9209 C   0  0  0  0  0  0
  -24.6403  -11.6929   20.8732 C   0  0  0  0  0  0
  -23.9057  -10.4315   21.0391 C   0  0  0  0  0  0
  -24.3602   -9.4239   21.9171 C   0  0  0  0  0  0
  -23.6283   -8.2261   22.0740 C   0  0  0  0  0  0
  -22.4271   -8.0287   21.3537 C   0  0  0  0  0  0
  -21.9892   -9.0259   20.4646 C   0  0  0  0  0  0
  -22.7218  -10.2150   20.3055 C   0  0  0  0  0  0
  -21.6854   -6.0738   22.5287 C   0  0  0  0  0  0
  -21.4016   -6.5639   23.8220 C   0  0  0  0  0  0
  -21.3665   -5.6789   24.9179 C   0  0  0  0  0  0
  -21.6053   -4.3052   24.7236 C   0  0  0  0  0  0
  -21.8812   -3.8149   23.4351 C   0  0  0  0  0  0
  -21.9180   -4.6963   22.3407 C   0  0  0  0  0  0
  -22.7837  -13.5257   21.1836 C   0  0  0  0  0  0
  -22.1643   -4.2146   21.0981 F   0  0  0  0  0  0
  -21.5632   -3.4528   25.7746 F   0  0  0  0  0  0
  -29.9905  -13.5727   20.4190 N   0  0  0  0  0  0
  -26.2978  -12.9431   20.3302 N   0  0  0  0  0  0
  -25.9351  -11.6576   20.5746 N   0  0  0  0  0  0
  -22.0433  -12.8300   22.0405 N   0  0  0  0  0  0
  -25.4234  -15.1912   20.4034 N   0  0  0  0  0  0
  -31.7896  -14.8951   20.1062 O   0  0  0  0  0  0
  -21.6636   -6.8875   21.4242 O   0  0  0  0  0  0
  -22.3552  -14.5548   20.6636 O   0  0  0  0  0  0
  -24.6399  -31.8500   23.1936 C   0  0  0  0  0  0
  -25.9198  -32.4721   23.8303 C   0  0  1  0  0  0
  -27.2355  -27.1933   20.1231 C   0  0  0  0  0  0
  -25.5984  -33.8524   24.2232 N   0  0  0  0  0  0
  -23.4414  -30.4699   21.5401 C   0  0  2  0  0  0
  -24.8915  -28.9088   20.1115 C   0  0  0  0  0  0
  -22.7560  -29.4578   22.4920 C   0  0  0  0  0  0
  -18.0290  -28.1397   22.8472 C   0  0  0  0  0  0
  -24.1499  -36.7255   23.2631 C   0  0  0  0  0  0
  -25.9933  -30.7381   21.3859 C   0  0  0  0  0  0
  -26.0673  -29.3554   20.7257 C   0  0  0  0  0  0
  -27.2353  -28.5111   20.7206 C   0  0  0  0  0  0
  -26.0243  -26.8402   19.4748 C   0  0  0  0  0  0
  -24.8810  -27.6627   19.4734 C   0  0  0  0  0  0
  -23.6645  -29.8012   20.1583 C   0  0  0  0  0  0
  -25.4120  -36.3044   24.0322 C   0  0  1  0  0  0
  -20.5906  -28.3713   23.1260 C   0  0  2  0  0  0
  -20.6779  -26.9417   22.5432 C   0  0  0  0  0  0
  -19.5778  -26.6376   21.5220 C   0  0  0  0  0  0
  -18.1942  -26.7946   22.1593 C   0  0  0  0  0  0
  -19.1548  -28.8876   23.2861 C   0  0  0  0  0  0
  -18.9458  -30.1466   23.8901 C   0  0  0  0  0  0
  -17.6454  -30.6596   24.0547 C   0  0  0  0  0  0
  -25.9079  -34.9416   23.5079 C   0  0  0  0  0  0
  -16.5345  -29.9079   23.6337 C   0  0  0  0  0  0
  -16.7270  -28.6490   23.0372 C   0  0  0  0  0  0
  -26.4511  -31.6575   25.0730 C   0  0  0  0  0  0
  -25.3705  -31.3798   26.1449 C   0  0  0  0  0  0
  -27.0287  -30.2942   24.6295 C   0  0  0  0  0  0
  -27.6122  -32.4264   25.7475 C   0  0  0  0  0  0
  -27.5600  -37.1758   24.8427 C   0  0  0  0  0  0
  -21.4255  -29.3045   22.3648 N   0  0  0  0  0  0
  -26.4276  -37.3770   23.9424 N   0  0  0  0  0  0
  -24.7113  -31.0398   22.0952 N   0  0  0  0  0  0
  -23.4218  -28.8143   23.3068 O   0  0  0  0  0  0
  -28.3280  -26.2611   20.1881 O   0  0  0  0  0  0
  -26.5649  -34.8911   22.4649 O   0  0  0  0  0  0
  -23.5530  -32.1365   23.7176 O   0  0  0  0  0  0
  -29.3808  -18.5213   20.8951 C   0  0  0  0  0  0
  -29.8656  -19.8107   20.3329 C   0  0  0  0  0  0
  -30.0473  -17.3416   20.4672 C   0  0  0  0  0  0
  -28.9053  -23.6985   20.2829 C   0  0  0  0  0  0
  -28.2056  -24.8475   19.8723 C   0  0  0  0  0  0
  -30.0549  -23.5827   21.2628 C   0  0  0  0  0  0
  -28.6827  -22.1912   19.8394 C   0  0  0  0  0  0
  -30.4998  -22.0776   21.2801 C   0  0  0  0  0  0
  -30.8584  -19.6270   19.4859 N   0  0  0  0  0  0
  -29.4748  -21.2096   20.6721 N   0  0  0  0  0  0
  -29.8526  -15.9584   20.7474 N   0  0  0  0  0  0
  -31.2477  -17.9693   19.3602 S   0  0  0  0  0  0
  -31.4832  -12.6228   19.1987 H   0  0  0  0  0  0
  -30.3881  -11.5244   19.9854 H   0  0  0  0  0  0
  -29.8279  -11.7668   17.5379 H   0  0  0  0  0  0
  -29.6516  -13.4926   17.7341 H   0  0  0  0  0  0
  -27.9054  -11.2986   18.9012 H   0  0  0  0  0  0
  -27.3988  -12.5552   17.8006 H   0  0  0  0  0  0
  -27.6340  -14.2631   19.4776 H   0  0  0  0  0  0
  -28.7412  -12.2023   21.4373 H   0  0  0  0  0  0
  -28.4093  -13.8777   21.8002 H   0  0  0  0  0  0
  -25.2726   -9.5724   22.4770 H   0  0  0  0  0  0
  -23.9997   -7.4649   22.7448 H   0  0  0  0  0  0
  -21.0821   -8.8765   19.8964 H   0  0  0  0  0  0
  -22.3637  -10.9682   19.6177 H   0  0  0  0  0  0
  -21.2023   -7.6147   23.9742 H   0  0  0  0  0  0
  -21.1491   -6.0504   25.9082 H   0  0  0  0  0  0
  -22.0597   -2.7609   23.2847 H   0  0  0  0  0  0
  -22.3950  -11.9967   22.4890 H   0  0  0  0  0  0
  -21.1056  -13.1417   22.2522 H   0  0  0  0  0  0
  -24.6498  -15.8434   20.4838 H   0  0  0  0  0  0
  -26.2681  -15.6233   20.0512 H   0  0  0  0  0  0
  -26.7270  -32.5343   23.1048 H   0  0  0  0  0  0
  -25.0140  -33.9655   25.0383 H   0  0  0  0  0  0
  -22.7413  -31.2945   21.3878 H   0  0  0  0  0  0
  -23.3800  -35.9546   23.3215 H   0  0  0  0  0  0
  -24.3620  -36.8949   22.2061 H   0  0  0  0  0  0
  -23.7191  -37.6407   23.6704 H   0  0  0  0  0  0
  -26.1405  -31.4981   20.6180 H   0  0  0  0  0  0
  -26.8672  -30.7887   22.0239 H   0  0  0  0  0  0
  -28.1319  -28.8517   21.2202 H   0  0  0  0  0  0
  -25.9022  -25.8995   18.9678 H   0  0  0  0  0  0
  -23.9849  -27.3208   18.9738 H   0  0  0  0  0  0
  -23.7888  -30.5751   19.3995 H   0  0  0  0  0  0
  -22.7827  -29.2338   19.8556 H   0  0  0  0  0  0
  -25.1304  -36.1861   25.0820 H   0  0  0  0  0  0
  -20.9988  -28.3280   24.1387 H   0  0  0  0  0  0
  -20.5632  -26.2332   23.3654 H   0  0  0  0  0  0
  -21.6652  -26.7413   22.1251 H   0  0  0  0  0  0
  -19.6945  -25.6279   21.1278 H   0  0  0  0  0  0
  -19.6750  -27.3167   20.6743 H   0  0  0  0  0  0
  -17.4242  -26.6722   21.3967 H   0  0  0  0  0  0
  -18.0295  -26.0071   22.8961 H   0  0  0  0  0  0
  -19.7927  -30.7275   24.2297 H   0  0  0  0  0  0
  -17.4999  -31.6294   24.5109 H   0  0  0  0  0  0
  -15.5343  -30.2979   23.7682 H   0  0  0  0  0  0
  -15.8661  -28.0800   22.7133 H   0  0  0  0  0  0
  -24.6000  -30.6979   25.7840 H   0  0  0  0  0  0
  -24.8752  -32.2960   26.4666 H   0  0  0  0  0  0
  -25.8026  -30.9200   27.0343 H   0  0  0  0  0  0
  -26.2855  -29.6739   24.1275 H   0  0  0  0  0  0
  -27.3812  -29.7199   25.4869 H   0  0  0  0  0  0
  -27.8829  -30.4126   23.9632 H   0  0  0  0  0  0
  -27.2834  -33.3617   26.2009 H   0  0  0  0  0  0
  -28.3963  -32.6693   25.0294 H   0  0  0  0  0  0
  -28.0750  -31.8373   26.5404 H   0  0  0  0  0  0
  -28.2541  -38.0129   24.7591 H   0  0  0  0  0  0
  -28.1169  -36.2676   24.6083 H   0  0  0  0  0  0
  -27.2359  -37.1192   25.8833 H   0  0  0  0  0  0
  -20.9484  -29.8730   21.6797 H   0  0  0  0  0  0
  -26.0142  -38.2820   24.1513 H   0  0  0  0  0  0
  -28.5711  -18.5201   21.6121 H   0  0  0  0  0  0
  -27.4540  -24.6792   19.1187 H   0  0  0  0  0  0
  -29.7264  -23.8994   22.2538 H   0  0  0  0  0  0
  -30.8870  -24.2264   20.9727 H   0  0  0  0  0  0
  -28.9723  -22.0824   18.7919 H   0  0  0  0  0  0
  -27.6213  -21.9510   19.9057 H   0  0  0  0  0  0
  -30.7239  -21.7530   22.2977 H   0  0  0  0  0  0
  -31.4298  -21.9723   20.7153 H   0  0  0  0  0  0
  -28.9551  -15.7368   21.1495 H   0  0  0  0  0  0
  1 25  1  0  0  0
  1 30  2  0  0  0
  1 81  1  0  0  0
  2  3  1  0  0  0
  2 25  1  0  0  0
  2 83  1  0  0  0
  2 84  1  0  0  0
  3  4  1  0  0  0
  3 85  1  0  0  0
  3 86  1  0  0  0
  4  5  1  0  0  0
  4 87  1  0  0  0
  4 88  1  0  0  0
  5  6  1  0  0  0
  5 26  1  0  0  0
  5 89  1  0  0  0
  6 25  1  0  0  0
  6 90  1  0  0  0
  6 91  1  0  0  0
  7  8  2  0  0  0
  7 26  1  0  0  0
  7 29  1  0  0  0
  8  9  1  0  0  0
  8 22  1  0  0  0
  9 10  1  0  0  0
  9 27  2  0  0  0
 10 11  2  0  0  0
 10 15  1  0  0  0
 11 12  1  0  0  0
 11 92  1  0  0  0
 12 13  2  0  0  0
 12 93  1  0  0  0
 13 14  1  0  0  0
 13 31  1  0  0  0
 14 15  2  0  0  0
 14 94  1  0  0  0
 15 95  1  0  0  0
 16 17  2  0  0  0
 16 21  1  0  0  0
 16 31  1  0  0  0
 17 18  1  0  0  0
 17 96  1  0  0  0
 18 19  2  0  0  0
 18 97  1  0  0  0
 19 20  1  0  0  0
 19 24  1  0  0  0
 20 21  2  0  0  0
 20 98  1  0  0  0
 21 23  1  0  0  0
 22 28  1  0  0  0
 22 32  2  0  0  0
 26 27  1  0  0  0
 28 99  1  0  0  0
 28100  1  0  0  0
 29101  1  0  0  0
 29102  1  0  0  0
 33 34  1  0  0  0
 33 66  1  0  0  0
 33 70  2  0  0  0
 34 36  1  0  0  0
 34 59  1  0  0  0
 34103  1  0  0  0
 35 44  2  0  0  0
 35 45  1  0  0  0
 35 68  1  0  0  0
 36 56  1  0  0  0
 36104  1  0  0  0
 37 39  1  0  0  0
 37 47  1  0  0  0
 37 66  1  0  0  0
 37105  1  0  0  0
 38 43  2  0  0  0
 38 46  1  0  0  0
 38 47  1  0  0  0
 39 64  1  0  0  0
 39 67  2  0  0  0
 40 52  1  0  0  0
 40 53  2  0  0  0
 40 58  1  0  0  0
 41106  1  0  0  0
 41107  1  0  0  0
 41108  1  0  0  0
 41 48  1  0  0  0
 42 43  1  0  0  0
 42 66  1  0  0  0
 42109  1  0  0  0
 42110  1  0  0  0
 43 44  1  0  0  0
 44111  1  0  0  0
 45 46  2  0  0  0
 45112  1  0  0  0
 46113  1  0  0  0
 47114  1  0  0  0
 47115  1  0  0  0
 48 56  1  0  0  0
 48 65  1  0  0  0
 48116  1  0  0  0
 49 50  1  0  0  0
 49 53  1  0  0  0
 49 64  1  0  0  0
 49117  1  0  0  0
 50 51  1  0  0  0
 50118  1  0  0  0
 50119  1  0  0  0
 51 52  1  0  0  0
 51120  1  0  0  0
 51121  1  0  0  0
 52122  1  0  0  0
 52123  1  0  0  0
 53 54  1  0  0  0
 54 55  2  0  0  0
 54124  1  0  0  0
 55 57  1  0  0  0
 55125  1  0  0  0
 56 69  2  0  0  0
 57 58  2  0  0  0
 57126  1  0  0  0
 58127  1  0  0  0
 59 60  1  0  0  0
 59 61  1  0  0  0
 59 62  1  0  0  0
 60128  1  0  0  0
 60129  1  0  0  0
 60130  1  0  0  0
 61131  1  0  0  0
 61132  1  0  0  0
 61133  1  0  0  0
 62134  1  0  0  0
 62135  1  0  0  0
 62136  1  0  0  0
 63 65  1  0  0  0
 63137  1  0  0  0
 63138  1  0  0  0
 63139  1  0  0  0
 64140  1  0  0  0
 65141  1  0  0  0
 68 75  1  0  0  0
 71 72  1  0  0  0
 71 73  2  0  0  0
 71142  1  0  0  0
 72 79  2  0  0  0
 72 80  1  0  0  0
 73 81  1  0  0  0
 73 82  1  0  0  0
 74 75  2  0  0  0
 74 76  1  0  0  0
 74 77  1  0  0  0
 75143  1  0  0  0
 76 78  1  0  0  0
 76144  1  0  0  0
 76145  1  0  0  0
 77 80  1  0  0  0
 77146  1  0  0  0
 77147  1  0  0  0
 78 80  1  0  0  0
 78148  1  0  0  0
 78149  1  0  0  0
 79 82  1  0  0  0
 81150  1  0  0  0
M  ISO  4   1 100  68 101  75 101  81 100
M  END
> <chiral flag>
0

> <version>
0

> <s_m_source_file>
/data/baiqing/PycharmProjects/Reinvent-master-3.2/result/LINK_invent/BTK/process_docking_weight1_custom_product_contain_oxygen_bond_distance_aromatic_linkinvent_7_9_3/rearranged_h_0155.sdf

> <i_m_source_file_index>
2

> <r_mmod_Potential_Energy-OPLS-2005>
221.390914916992

> <r_mmod_Stretch_Energy-OPLS-2005>
148.053359985352

> <r_mmod_Bend_Energy-OPLS-2005>
211.06559753418

> <r_mmod_Torsional_Energy-OPLS-2005>
253.09309387207

> <r_mmod_Improper_Torsional_Energy-OPLS-2005>
7.94288492202759

> <r_mmod_Van_der_Waal_Energy-OPLS-2005>
117.34952545166

> <r_mmod_Electrostatic_Energy-OPLS-2005>
-400.181640625

> <r_mmod_Solvation_Energy-OPLS-2005>
-236.591400146484

> <b_mmod_Minimization_Converged-OPLS-2005>
0

> <r_mmod_RMS_Derivative-OPLS-2005>
3.19397044181824

$$$$
2
                    3D
 Structure written by MMmdl.
163172  0  0  1  0            999 V2000
  -30.5294  -14.9041   20.4834 C   0  0  0  0  0  0
  -30.4552  -12.5626   19.5106 C   0  0  0  0  0  0
  -29.5338  -12.5402   18.2667 C   0  0  0  0  0  0
  -28.0628  -12.3315   18.6744 C   0  0  0  0  0  0
  -27.6448  -13.2405   19.8585 C   0  0  2  0  0  0
  -28.6830  -13.2040   21.0038 C   0  0  0  0  0  0
  -25.2404  -13.8106   20.5542 C   0  0  0  0  0  0
  -24.1758  -13.0366   20.9184 C   0  0  0  0  0  0
  -24.6400  -11.6874   20.8756 C   0  0  0  0  0  0
  -23.9077  -10.4260   21.0413 C   0  0  0  0  0  0
  -24.3614   -9.4185   21.9198 C   0  0  0  0  0  0
  -23.6283   -8.2228   22.0760 C   0  0  0  0  0  0
  -22.4270   -8.0271   21.3544 C   0  0  0  0  0  0
  -21.9900   -9.0247   20.4656 C   0  0  0  0  0  0
  -22.7237  -10.2127   20.3066 C   0  0  0  0  0  0
  -21.6843   -6.0725   22.5273 C   0  0  0  0  0  0
  -21.4004   -6.5627   23.8213 C   0  0  0  0  0  0
  -21.3657   -5.6778   24.9168 C   0  0  0  0  0  0
  -21.6037   -4.3038   24.7220 C   0  0  0  0  0  0
  -21.8824   -3.8138   23.4334 C   0  0  0  0  0  0
  -21.9196   -4.6953   22.3399 C   0  0  0  0  0  0
  -22.7782  -13.5188   21.1832 C   0  0  0  0  0  0
  -22.1670   -4.2146   21.0977 F   0  0  0  0  0  0
  -21.5631   -3.4526   25.7726 F   0  0  0  0  0  0
  -29.9774  -13.6244   20.4435 N   0  0  0  0  0  0
  -26.2932  -12.9398   20.3260 N   0  0  0  0  0  0
  -25.9354  -11.6533   20.5776 N   0  0  0  0  0  0
  -22.0426  -12.8235   22.0419 N   0  0  0  0  0  0
  -25.3830  -15.1777   20.3644 N   0  0  0  0  0  0
  -31.6580  -15.0631   20.0048 O   0  0  0  0  0  0
  -21.6628   -6.8869   21.4243 O   0  0  0  0  0  0
  -22.3487  -14.5515   20.6691 O   0  0  0  0  0  0
  -24.6385  -31.8467   23.1862 C   0  0  0  0  0  0
  -25.9179  -32.4706   23.8247 C   0  0  1  0  0  0
  -27.2301  -27.1743   20.1617 C   0  0  0  0  0  0
  -25.5939  -33.8508   24.2177 N   0  0  0  0  0  0
  -23.4378  -30.4610   21.5332 C   0  0  2  0  0  0
  -24.8846  -28.8757   20.1184 C   0  0  0  0  0  0
  -22.7535  -29.4545   22.4902 C   0  0  0  0  0  0
  -18.0287  -28.1396   22.8470 C   0  0  0  0  0  0
  -24.1492  -36.7258   23.2638 C   0  0  0  0  0  0
  -25.9863  -30.7338   21.3712 C   0  0  0  0  0  0
  -26.0564  -29.3422   20.7247 C   0  0  0  0  0  0
  -27.2251  -28.5084   20.7222 C   0  0  0  0  0  0
  -26.0310  -26.7778   19.5346 C   0  0  0  0  0  0
  -24.8819  -27.6065   19.5104 C   0  0  0  0  0  0
  -23.6590  -29.7761   20.1558 C   0  0  0  0  0  0
  -25.4114  -36.3029   24.0320 C   0  0  1  0  0  0
  -20.5896  -28.3705   23.1272 C   0  0  2  0  0  0
  -20.6774  -26.9422   22.5412 C   0  0  0  0  0  0
  -19.5750  -26.6391   21.5211 C   0  0  0  0  0  0
  -18.1933  -26.7937   22.1617 C   0  0  0  0  0  0
  -19.1547  -28.8870   23.2857 C   0  0  0  0  0  0
  -18.9460  -30.1469   23.8869 C   0  0  0  0  0  0
  -17.6459  -30.6592   24.0563 C   0  0  0  0  0  0
  -25.9065  -34.9413   23.5058 C   0  0  0  0  0  0
  -16.5346  -29.9083   23.6341 C   0  0  0  0  0  0
  -16.7275  -28.6511   23.0345 C   0  0  0  0  0  0
  -26.4511  -31.6569   25.0683 C   0  0  0  0  0  0
  -25.3711  -31.3770   26.1402 C   0  0  0  0  0  0
  -27.0366  -30.2969   24.6231 C   0  0  0  0  0  0
  -27.6048  -32.4332   25.7464 C   0  0  0  0  0  0
  -27.5578  -37.1765   24.8447 C   0  0  0  0  0  0
  -21.4235  -29.3035   22.3659 N   0  0  0  0  0  0
  -26.4264  -37.3755   23.9433 N   0  0  0  0  0  0
  -24.7073  -31.0358   22.0858 N   0  0  0  0  0  0
  -23.4209  -28.8116   23.3047 O   0  0  0  0  0  0
  -28.3918  -26.3438   20.1865 O   0  0  0  0  0  0
  -26.5657  -34.8929   22.4641 O   0  0  0  0  0  0
  -23.5518  -32.1314   23.7124 O   0  0  0  0  0  0
  -26.9342  -18.3379   20.8959 C   0  0  0  0  0  0
  -27.4135  -19.6247   20.6110 C   0  0  0  0  0  0
  -27.8009  -17.2365   21.0101 C   0  0  0  0  0  0
  -29.6763  -18.6909   20.5380 C   0  0  0  0  0  0
  -28.7880  -19.8930   20.4729 C   0  0  0  0  0  0
  -29.1899  -17.3045   20.7849 C   0  0  0  0  0  0
  -28.6529  -22.4128   21.5434 C   0  0  0  0  0  0
  -28.4959  -22.2812   19.0848 C   0  0  0  0  0  0
  -28.8043  -24.0215   21.4930 C   0  0  0  0  0  0
  -27.8372  -23.7580   19.2627 C   0  0  0  0  0  0
  -29.1158  -21.4953   20.3332 C   0  0  2  0  0  0
  -28.6435  -24.8095   20.1223 C   0  0  2  0  0  0
  -30.0471  -24.8873   19.4615 C   0  0  0  0  0  0
  -29.8262  -15.9528   21.1089 N   0  0  0  0  0  0
  -30.9541  -25.8366   20.1424 N   0  3  0  0  0  0
  -31.4877  -12.7313   19.2011 H   0  0  0  0  0  0
  -30.4555  -11.5915   20.0092 H   0  0  0  0  0  0
  -29.8501  -11.7540   17.5792 H   0  0  0  0  0  0
  -29.6356  -13.4799   17.7216 H   0  0  0  0  0  0
  -27.9473  -11.2856   18.9592 H   0  0  0  0  0  0
  -27.4061  -12.4902   17.8178 H   0  0  0  0  0  0
  -27.6299  -14.2585   19.4686 H   0  0  0  0  0  0
  -28.7537  -12.2034   21.4326 H   0  0  0  0  0  0
  -28.3708  -13.8572   21.8193 H   0  0  0  0  0  0
  -25.2751   -9.5662   22.4784 H   0  0  0  0  0  0
  -23.9985   -7.4610   22.7474 H   0  0  0  0  0  0
  -21.0823   -8.8765   19.8961 H   0  0  0  0  0  0
  -22.3685  -10.9667   19.6181 H   0  0  0  0  0  0
  -21.1992   -7.6131   23.9709 H   0  0  0  0  0  0
  -21.1474   -6.0506   25.9079 H   0  0  0  0  0  0
  -22.0611   -2.7600   23.2827 H   0  0  0  0  0  0
  -22.4031  -11.9914   22.4849 H   0  0  0  0  0  0
  -21.1059  -13.1317   22.2615 H   0  0  0  0  0  0
  -24.5904  -15.8066   20.4359 H   0  0  0  0  0  0
  -26.2002  -15.6103   19.9543 H   0  0  0  0  0  0
  -26.7250  -32.5327   23.0981 H   0  0  0  0  0  0
  -25.0057  -33.9622   25.0306 H   0  0  0  0  0  0
  -22.7350  -31.2823   21.3767 H   0  0  0  0  0  0
  -23.3767  -35.9570   23.3240 H   0  0  0  0  0  0
  -24.3587  -36.8951   22.2061 H   0  0  0  0  0  0
  -23.7231  -37.6437   23.6709 H   0  0  0  0  0  0
  -26.1278  -31.4825   20.5901 H   0  0  0  0  0  0
  -26.8628  -30.7920   22.0054 H   0  0  0  0  0  0
  -28.1292  -28.8721   21.1903 H   0  0  0  0  0  0
  -25.9685  -25.8087   19.0631 H   0  0  0  0  0  0
  -23.9840  -27.2439   19.0294 H   0  0  0  0  0  0
  -23.7864  -30.5430   19.3903 H   0  0  0  0  0  0
  -22.7749  -29.2106   19.8566 H   0  0  0  0  0  0
  -25.1297  -36.1827   25.0806 H   0  0  0  0  0  0
  -20.9970  -28.3288   24.1401 H   0  0  0  0  0  0
  -20.5685  -26.2311   23.3618 H   0  0  0  0  0  0
  -21.6642  -26.7457   22.1203 H   0  0  0  0  0  0
  -19.6914  -25.6304   21.1241 H   0  0  0  0  0  0
  -19.6693  -27.3205   20.6747 H   0  0  0  0  0  0
  -17.4208  -26.6681   21.4018 H   0  0  0  0  0  0
  -18.0330  -26.0088   22.9020 H   0  0  0  0  0  0
  -19.7935  -30.7296   24.2231 H   0  0  0  0  0  0
  -17.5008  -31.6270   24.5172 H   0  0  0  0  0  0
  -15.5343  -30.2963   23.7703 H   0  0  0  0  0  0
  -15.8673  -28.0832   22.7050 H   0  0  0  0  0  0
  -24.5858  -30.7150   25.7741 H   0  0  0  0  0  0
  -24.8934  -32.2962   26.4808 H   0  0  0  0  0  0
  -25.8000  -30.8954   27.0199 H   0  0  0  0  0  0
  -26.2968  -29.6696   24.1245 H   0  0  0  0  0  0
  -27.4006  -29.7269   25.4791 H   0  0  0  0  0  0
  -27.8862  -30.4227   23.9513 H   0  0  0  0  0  0
  -27.2641  -33.3642   26.2018 H   0  0  0  0  0  0
  -28.3865  -32.6888   25.0295 H   0  0  0  0  0  0
  -28.0714  -31.8475   26.5400 H   0  0  0  0  0  0
  -28.2537  -38.0124   24.7581 H   0  0  0  0  0  0
  -28.1134  -36.2659   24.6137 H   0  0  0  0  0  0
  -27.2323  -37.1256   25.8856 H   0  0  0  0  0  0
  -20.9440  -29.8718   21.6815 H   0  0  0  0  0  0
  -26.0116  -38.2812   24.1479 H   0  0  0  0  0  0
  -25.8771  -18.2020   21.0754 H   0  0  0  0  0  0
  -26.6995  -20.4345   20.5533 H   0  0  0  0  0  0
  -27.3706  -16.3014   21.3270 H   0  0  0  0  0  0
  -30.7422  -18.8444   20.4501 H   0  0  0  0  0  0
  -27.5890  -22.2239   21.6908 H   0  0  0  0  0  0
  -29.1241  -22.0479   22.4566 H   0  0  0  0  0  0
  -29.2788  -22.3474   18.3273 H   0  0  0  0  0  0
  -27.7414  -21.6483   18.6193 H   0  0  0  0  0  0
  -29.7577  -24.2807   21.9518 H   0  0  0  0  0  0
  -28.0624  -24.4281   22.1823 H   0  0  0  0  0  0
  -26.8579  -23.6340   19.7269 H   0  0  0  0  0  0
  -27.6308  -24.1706   18.2750 H   0  0  0  0  0  0
  -30.2027  -21.5736   20.2677 H   0  0  0  0  0  0
  -29.9498  -25.1960   18.4192 H   0  0  0  0  0  0
  -30.5403  -23.9158   19.4521 H   0  0  0  0  0  0
  -29.1970  -15.4661   21.7297 H   0  0  0  0  0  0
  -30.5976  -26.7703   20.0343 H   0  0  0  0  0  0
  -31.8793  -25.7938   19.7533 H   0  0  0  0  0  0
  -31.0100  -25.6378   21.1254 H   0  0  0  0  0  0
  1 25  1  0  0  0
  1 30  2  0  0  0
  1 84  1  0  0  0
  2  3  1  0  0  0
  2 25  1  0  0  0
  2 86  1  0  0  0
  2 87  1  0  0  0
  3  4  1  0  0  0
  3 88  1  0  0  0
  3 89  1  0  0  0
  4  5  1  0  0  0
  4 90  1  0  0  0
  4 91  1  0  0  0
  5  6  1  0  0  0
  5 26  1  0  0  0
  5 92  1  0  0  0
  6 25  1  0  0  0
  6 93  1  0  0  0
  6 94  1  0  0  0
  7  8  2  0  0  0
  7 26  1  0  0  0
  7 29  1  0  0  0
  8  9  1  0  0  0
  8 22  1  0  0  0
  9 10  1  0  0  0
  9 27  2  0  0  0
 10 11  2  0  0  0
 10 15  1  0  0  0
 11 12  1  0  0  0
 11 95  1  0  0  0
 12 13  2  0  0  0
 12 96  1  0  0  0
 13 14  1  0  0  0
 13 31  1  0  0  0
 14 15  2  0  0  0
 14 97  1  0  0  0
 15 98  1  0  0  0
 16 17  2  0  0  0
 16 21  1  0  0  0
 16 31  1  0  0  0
 17 18  1  0  0  0
 17 99  1  0  0  0
 18 19  2  0  0  0
 18100  1  0  0  0
 19 20  1  0  0  0
 19 24  1  0  0  0
 20 21  2  0  0  0
 20101  1  0  0  0
 21 23  1  0  0  0
 22 28  1  0  0  0
 22 32  2  0  0  0
 26 27  1  0  0  0
 28102  1  0  0  0
 28103  1  0  0  0
 29104  1  0  0  0
 29105  1  0  0  0
 33 34  1  0  0  0
 33 66  1  0  0  0
 33 70  2  0  0  0
 34 36  1  0  0  0
 34 59  1  0  0  0
 34106  1  0  0  0
 35 44  2  0  0  0
 35 45  1  0  0  0
 35 68  1  0  0  0
 36 56  1  0  0  0
 36107  1  0  0  0
 37 39  1  0  0  0
 37 47  1  0  0  0
 37 66  1  0  0  0
 37108  1  0  0  0
 38 43  2  0  0  0
 38 46  1  0  0  0
 38 47  1  0  0  0
 39 64  1  0  0  0
 39 67  2  0  0  0
 40 52  1  0  0  0
 40 53  2  0  0  0
 40 58  1  0  0  0
 41109  1  0  0  0
 41110  1  0  0  0
 41111  1  0  0  0
 41 48  1  0  0  0
 42 43  1  0  0  0
 42 66  1  0  0  0
 42112  1  0  0  0
 42113  1  0  0  0
 43 44  1  0  0  0
 44114  1  0  0  0
 45 46  2  0  0  0
 45115  1  0  0  0
 46116  1  0  0  0
 47117  1  0  0  0
 47118  1  0  0  0
 48 56  1  0  0  0
 48 65  1  0  0  0
 48119  1  0  0  0
 49 50  1  0  0  0
 49 53  1  0  0  0
 49 64  1  0  0  0
 49120  1  0  0  0
 50 51  1  0  0  0
 50121  1  0  0  0
 50122  1  0  0  0
 51 52  1  0  0  0
 51123  1  0  0  0
 51124  1  0  0  0
 52125  1  0  0  0
 52126  1  0  0  0
 53 54  1  0  0  0
 54 55  2  0  0  0
 54127  1  0  0  0
 55 57  1  0  0  0
 55128  1  0  0  0
 56 69  2  0  0  0
 57 58  2  0  0  0
 57129  1  0  0  0
 58130  1  0  0  0
 59 60  1  0  0  0
 59 61  1  0  0  0
 59 62  1  0  0  0
 60131  1  0  0  0
 60132  1  0  0  0
 60133  1  0  0  0
 61134  1  0  0  0
 61135  1  0  0  0
 61136  1  0  0  0
 62137  1  0  0  0
 62138  1  0  0  0
 62139  1  0  0  0
 63 65  1  0  0  0
 63140  1  0  0  0
 63141  1  0  0  0
 63142  1  0  0  0
 64143  1  0  0  0
 65144  1  0  0  0
 68 82  1  0  0  0
 71 72  2  0  0  0
 71 73  1  0  0  0
 71145  1  0  0  0
 72 75  1  0  0  0
 72146  1  0  0  0
 73 76  2  0  0  0
 73147  1  0  0  0
 74 75  2  0  0  0
 74 76  1  0  0  0
 74148  1  0  0  0
 75 81  1  0  0  0
 76 84  1  0  0  0
 77 79  1  0  0  0
 77 81  1  0  0  0
 77149  1  0  0  0
 77150  1  0  0  0
 78 80  1  0  0  0
 78 81  1  0  0  0
 78151  1  0  0  0
 78152  1  0  0  0
 79 82  1  0  0  0
 79153  1  0  0  0
 79154  1  0  0  0
 80 82  1  0  0  0
 80155  1  0  0  0
 80156  1  0  0  0
 81157  1  0  0  0
 82 83  1  0  0  0
 83 85  1  0  0  0
 83158  1  0  0  0
 83159  1  0  0  0
 84160  1  0  0  0
 85161  1  0  0  0
 85162  1  0  0  0
 85163  1  0  0  0
M  CHG  1  85   1
M  ISO  4   1 100  68 101  82 101  84 100
M  END
> <chiral flag>
0

> <version>
0

> <s_m_source_file>
/data/baiqing/PycharmProjects/Reinvent-master-3.2/result/LINK_invent/BTK/process_docking_weight1_custom_product_contain_oxygen_bond_distance_aromatic_linkinvent_7_9_3/rearranged_h_0155.sdf

> <i_m_source_file_index>
3

> <r_mmod_Potential_Energy-OPLS-2005>
355.798400878906

> <r_mmod_Stretch_Energy-OPLS-2005>
212.455429077148

> <r_mmod_Bend_Energy-OPLS-2005>
349.447204589844

> <r_mmod_Torsional_Energy-OPLS-2005>
306.805145263672

> <r_mmod_Improper_Torsional_Energy-OPLS-2005>
8.2605037689209

> <r_mmod_Van_der_Waal_Energy-OPLS-2005>
136.916595458984

> <r_mmod_Electrostatic_Energy-OPLS-2005>
-353.095092773438

> <r_mmod_Solvation_Energy-OPLS-2005>
-454.925750732422

> <b_mmod_Minimization_Converged-OPLS-2005>
0

> <r_mmod_RMS_Derivative-OPLS-2005>
2.92256665229797

$$$$
3
                    3D
 Structure written by MMmdl.
155164  0  0  1  0            999 V2000
  -30.7125  -14.5529   20.5391 C   0  0  0  0  0  0
  -30.4158  -12.3484   19.4398 C   0  0  0  0  0  0
  -29.5002  -12.5147   18.2112 C   0  0  0  0  0  0
  -28.0150  -12.3896   18.6104 C   0  0  0  0  0  0
  -27.6538  -13.2302   19.8626 C   0  0  2  0  0  0
  -28.6998  -13.0526   20.9853 C   0  0  0  0  0  0
  -25.2528  -13.8204   20.5674 C   0  0  0  0  0  0
  -24.1823  -13.0431   20.9204 C   0  0  0  0  0  0
  -24.6418  -11.6913   20.8746 C   0  0  0  0  0  0
  -23.9098  -10.4280   21.0399 C   0  0  0  0  0  0
  -24.3641   -9.4205   21.9191 C   0  0  0  0  0  0
  -23.6327   -8.2223   22.0750 C   0  0  0  0  0  0
  -22.4293   -8.0271   21.3567 C   0  0  0  0  0  0
  -21.9956   -9.0244   20.4638 C   0  0  0  0  0  0
  -22.7272  -10.2126   20.3045 C   0  0  0  0  0  0
  -21.6842   -6.0755   22.5308 C   0  0  0  0  0  0
  -21.3983   -6.5660   23.8247 C   0  0  0  0  0  0
  -21.3666   -5.6797   24.9206 C   0  0  0  0  0  0
  -21.6050   -4.3060   24.7235 C   0  0  0  0  0  0
  -21.8813   -3.8164   23.4352 C   0  0  0  0  0  0
  -21.9166   -4.6982   22.3425 C   0  0  0  0  0  0
  -22.7827  -13.5190   21.1902 C   0  0  0  0  0  0
  -22.1634   -4.2159   21.1000 F   0  0  0  0  0  0
  -21.5674   -3.4546   25.7759 F   0  0  0  0  0  0
  -30.0213  -13.3737   20.4271 N   0  0  0  0  0  0
  -26.2991  -12.9406   20.3291 N   0  0  0  0  0  0
  -25.9354  -11.6538   20.5720 N   0  0  0  0  0  0
  -22.0475  -12.8168   22.0427 N   0  0  0  0  0  0
  -25.4200  -15.1926   20.4135 N   0  0  0  0  0  0
  -31.8557  -14.6607   20.0831 O   0  0  0  0  0  0
  -21.6640   -6.8886   21.4261 O   0  0  0  0  0  0
  -22.3485  -14.5496   20.6758 O   0  0  0  0  0  0
  -24.6214  -31.8661   23.2041 C   0  0  0  0  0  0
  -25.9086  -32.4797   23.8375 C   0  0  1  0  0  0
  -27.2306  -27.3824   20.0968 C   0  0  0  0  0  0
  -25.5915  -33.8595   24.2297 N   0  0  0  0  0  0
  -23.4096  -30.4885   21.5482 C   0  0  2  0  0  0
  -24.8502  -28.9486   20.1133 C   0  0  0  0  0  0
  -22.7435  -29.4662   22.5000 C   0  0  0  0  0  0
  -18.0277  -28.1406   22.8510 C   0  0  0  0  0  0
  -24.1490  -36.7307   23.2644 C   0  0  0  0  0  0
  -25.9419  -30.8159   21.3597 C   0  0  0  0  0  0
  -26.0150  -29.4449   20.7104 C   0  0  0  0  0  0
  -27.2016  -28.6693   20.7013 C   0  0  0  0  0  0
  -26.0311  -26.9064   19.5121 C   0  0  0  0  0  0
  -24.8556  -27.6800   19.5131 C   0  0  0  0  0  0
  -23.6157  -29.8210   20.1639 C   0  0  0  0  0  0
  -25.4116  -36.3099   24.0342 C   0  0  1  0  0  0
  -20.5877  -28.3700   23.1313 C   0  0  2  0  0  0
  -20.6781  -26.9432   22.5420 C   0  0  0  0  0  0
  -19.5747  -26.6415   21.5236 C   0  0  0  0  0  0
  -18.1925  -26.7960   22.1638 C   0  0  0  0  0  0
  -19.1528  -28.8868   23.2920 C   0  0  0  0  0  0
  -18.9444  -30.1468   23.8939 C   0  0  0  0  0  0
  -17.6444  -30.6603   24.0583 C   0  0  0  0  0  0
  -25.9057  -34.9459   23.5121 C   0  0  0  0  0  0
  -16.5341  -29.9108   23.6329 C   0  0  0  0  0  0
  -16.7261  -28.6527   23.0356 C   0  0  0  0  0  0
  -26.4473  -31.6582   25.0715 C   0  0  0  0  0  0
  -25.3700  -31.3667   26.1426 C   0  0  0  0  0  0
  -27.0314  -30.3036   24.6091 C   0  0  0  0  0  0
  -27.6069  -32.4274   25.7489 C   0  0  0  0  0  0
  -27.5579  -37.1811   24.8466 C   0  0  0  0  0  0
  -21.4171  -29.3064   22.3712 N   0  0  0  0  0  0
  -26.4293  -37.3790   23.9409 N   0  0  0  0  0  0
  -24.6767  -31.0728   22.0952 N   0  0  0  0  0  0
  -23.4192  -28.8224   23.3068 O   0  0  0  0  0  0
  -28.4071  -26.6411   20.1327 O   0  0  0  0  0  0
  -26.5630  -34.8927   22.4683 O   0  0  0  0  0  0
  -23.5392  -32.1428   23.7403 O   0  0  0  0  0  0
  -29.1205  -20.6194   20.2835 C   0  0  0  0  0  0
  -31.2067  -21.6832   20.2075 C   0  0  0  0  0  0
  -29.8550  -21.8389   20.0563 C   0  0  0  0  0  0
  -29.9283  -19.5398   20.6136 C   0  0  0  0  0  0
  -28.8531  -24.1485   20.2076 C   0  0  0  0  0  0
  -29.7719  -17.6019   22.3276 C   0  0  0  0  0  0
  -29.6583  -16.0663   22.2188 C   0  0  0  0  0  0
  -30.2038  -16.9620   20.0960 C   0  0  0  0  0  0
  -29.5269  -18.0943   20.9065 C   0  0  2  0  0  0
  -28.5800  -25.4243   19.3523 C   0  0  0  0  0  0
  -30.0047  -15.6877   20.8386 N   0  0  0  0  0  0
  -29.2989  -23.0569   19.5378 N   0  0  0  0  0  0
  -28.6463  -24.1484   21.4252 O   0  0  0  0  0  0
  -31.6042  -20.0491   20.6873 S   0  0  0  0  0  0
  -31.4628  -12.4284   19.1400 H   0  0  0  0  0  0
  -30.3074  -11.3447   19.8588 H   0  0  0  0  0  0
  -29.7459  -11.7677   17.4542 H   0  0  0  0  0  0
  -29.6777  -13.4869   17.7498 H   0  0  0  0  0  0
  -27.8085  -11.3358   18.7981 H   0  0  0  0  0  0
  -27.3732  -12.6735   17.7745 H   0  0  0  0  0  0
  -27.6780  -14.2769   19.5547 H   0  0  0  0  0  0
  -28.6901  -12.0275   21.3558 H   0  0  0  0  0  0
  -28.4546  -13.6713   21.8448 H   0  0  0  0  0  0
  -25.2775   -9.5696   22.4785 H   0  0  0  0  0  0
  -24.0059   -7.4591   22.7437 H   0  0  0  0  0  0
  -21.0912   -8.8745   19.8913 H   0  0  0  0  0  0
  -22.3738  -10.9677   19.6160 H   0  0  0  0  0  0
  -21.1945   -7.6165   23.9773 H   0  0  0  0  0  0
  -21.1524   -6.0516   25.9116 H   0  0  0  0  0  0
  -22.0586   -2.7617   23.2848 H   0  0  0  0  0  0
  -22.4057  -11.9796   22.4807 H   0  0  0  0  0  0
  -21.1060  -13.1148   22.2592 H   0  0  0  0  0  0
  -24.6553  -15.8473   20.5370 H   0  0  0  0  0  0
  -26.2877  -15.6412   20.1451 H   0  0  0  0  0  0
  -26.7167  -32.5496   23.1152 H   0  0  0  0  0  0
  -25.0054  -33.9756   25.0433 H   0  0  0  0  0  0
  -22.7021  -31.3083   21.4091 H   0  0  0  0  0  0
  -23.3757  -35.9633   23.3284 H   0  0  0  0  0  0
  -24.3612  -36.8939   22.2065 H   0  0  0  0  0  0
  -23.7207  -37.6492   23.6662 H   0  0  0  0  0  0
  -26.0546  -31.5734   20.5842 H   0  0  0  0  0  0
  -26.8315  -30.8742   21.9740 H   0  0  0  0  0  0
  -28.0980  -29.0514   21.1695 H   0  0  0  0  0  0
  -25.9524  -25.9264   19.0705 H   0  0  0  0  0  0
  -23.9573  -27.2851   19.0612 H   0  0  0  0  0  0
  -23.7232  -30.5945   19.4027 H   0  0  0  0  0  0
  -22.7388  -29.2415   19.8710 H   0  0  0  0  0  0
  -25.1290  -36.1968   25.0828 H   0  0  0  0  0  0
  -20.9983  -28.3268   24.1432 H   0  0  0  0  0  0
  -20.5714  -26.2314   23.3622 H   0  0  0  0  0  0
  -21.6638  -26.7507   22.1169 H   0  0  0  0  0  0
  -19.6902  -25.6333   21.1254 H   0  0  0  0  0  0
  -19.6683  -27.3245   20.6785 H   0  0  0  0  0  0
  -17.4207  -26.6736   21.4022 H   0  0  0  0  0  0
  -18.0301  -26.0094   22.9014 H   0  0  0  0  0  0
  -19.7916  -30.7282   24.2333 H   0  0  0  0  0  0
  -17.4991  -31.6284   24.5178 H   0  0  0  0  0  0
  -15.5337  -30.3024   23.7627 H   0  0  0  0  0  0
  -15.8665  -28.0851   22.7057 H   0  0  0  0  0  0
  -24.5915  -30.6993   25.7691 H   0  0  0  0  0  0
  -24.8836  -32.2801   26.4863 H   0  0  0  0  0  0
  -25.8008  -30.8810   27.0193 H   0  0  0  0  0  0
  -26.2856  -29.6801   24.1144 H   0  0  0  0  0  0
  -27.4088  -29.7268   25.4543 H   0  0  0  0  0  0
  -27.8688  -30.4373   23.9242 H   0  0  0  0  0  0
  -27.2739  -33.3606   26.2056 H   0  0  0  0  0  0
  -28.3901  -32.6773   25.0309 H   0  0  0  0  0  0
  -28.0716  -31.8379   26.5407 H   0  0  0  0  0  0
  -28.2577  -38.0127   24.7539 H   0  0  0  0  0  0
  -28.1088  -36.2660   24.6257 H   0  0  0  0  0  0
  -27.2311  -37.1400   25.8871 H   0  0  0  0  0  0
  -20.9332  -29.8775   21.6932 H   0  0  0  0  0  0
  -26.0181  -38.2866   24.1401 H   0  0  0  0  0  0
  -28.0463  -20.5696   20.1738 H   0  0  0  0  0  0
  -31.9991  -22.4079   20.0500 H   0  0  0  0  0  0
  -30.7815  -17.8693   22.6491 H   0  0  0  0  0  0
  -29.0793  -18.0329   23.0514 H   0  0  0  0  0  0
  -28.6301  -15.7712   22.4264 H   0  0  0  0  0  0
  -30.2999  -15.5764   22.9535 H   0  0  0  0  0  0
  -31.2741  -17.1581   20.0082 H   0  0  0  0  0  0
  -29.8043  -16.9073   19.0840 H   0  0  0  0  0  0
  -28.4537  -18.0146   20.7230 H   0  0  0  0  0  0
  -27.7961  -25.2131   18.6319 H   0  0  0  0  0  0
  -29.4655  -25.5863   18.7384 H   0  0  0  0  0  0
  -29.4115  -23.1985   18.5414 H   0  0  0  0  0  0
  1 25  1  0  0  0
  1 30  2  0  0  0
  1 81  1  0  0  0
  2  3  1  0  0  0
  2 25  1  0  0  0
  2 85  1  0  0  0
  2 86  1  0  0  0
  3  4  1  0  0  0
  3 87  1  0  0  0
  3 88  1  0  0  0
  4  5  1  0  0  0
  4 89  1  0  0  0
  4 90  1  0  0  0
  5  6  1  0  0  0
  5 26  1  0  0  0
  5 91  1  0  0  0
  6 25  1  0  0  0
  6 92  1  0  0  0
  6 93  1  0  0  0
  7  8  2  0  0  0
  7 26  1  0  0  0
  7 29  1  0  0  0
  8  9  1  0  0  0
  8 22  1  0  0  0
  9 10  1  0  0  0
  9 27  2  0  0  0
 10 11  2  0  0  0
 10 15  1  0  0  0
 11 12  1  0  0  0
 11 94  1  0  0  0
 12 13  2  0  0  0
 12 95  1  0  0  0
 13 14  1  0  0  0
 13 31  1  0  0  0
 14 15  2  0  0  0
 14 96  1  0  0  0
 15 97  1  0  0  0
 16 17  2  0  0  0
 16 21  1  0  0  0
 16 31  1  0  0  0
 17 18  1  0  0  0
 17 98  1  0  0  0
 18 19  2  0  0  0
 18 99  1  0  0  0
 19 20  1  0  0  0
 19 24  1  0  0  0
 20 21  2  0  0  0
 20100  1  0  0  0
 21 23  1  0  0  0
 22 28  1  0  0  0
 22 32  2  0  0  0
 26 27  1  0  0  0
 28101  1  0  0  0
 28102  1  0  0  0
 29103  1  0  0  0
 29104  1  0  0  0
 33 34  1  0  0  0
 33 66  1  0  0  0
 33 70  2  0  0  0
 34 36  1  0  0  0
 34 59  1  0  0  0
 34105  1  0  0  0
 35 44  2  0  0  0
 35 45  1  0  0  0
 35 68  1  0  0  0
 36 56  1  0  0  0
 36106  1  0  0  0
 37 39  1  0  0  0
 37 47  1  0  0  0
 37 66  1  0  0  0
 37107  1  0  0  0
 38 43  2  0  0  0
 38 46  1  0  0  0
 38 47  1  0  0  0
 39 64  1  0  0  0
 39 67  2  0  0  0
 40 52  1  0  0  0
 40 53  2  0  0  0
 40 58  1  0  0  0
 41108  1  0  0  0
 41109  1  0  0  0
 41110  1  0  0  0
 41 48  1  0  0  0
 42 43  1  0  0  0
 42 66  1  0  0  0
 42111  1  0  0  0
 42112  1  0  0  0
 43 44  1  0  0  0
 44113  1  0  0  0
 45 46  2  0  0  0
 45114  1  0  0  0
 46115  1  0  0  0
 47116  1  0  0  0
 47117  1  0  0  0
 48 56  1  0  0  0
 48 65  1  0  0  0
 48118  1  0  0  0
 49 50  1  0  0  0
 49 53  1  0  0  0
 49 64  1  0  0  0
 49119  1  0  0  0
 50 51  1  0  0  0
 50120  1  0  0  0
 50121  1  0  0  0
 51 52  1  0  0  0
 51122  1  0  0  0
 51123  1  0  0  0
 52124  1  0  0  0
 52125  1  0  0  0
 53 54  1  0  0  0
 54 55  2  0  0  0
 54126  1  0  0  0
 55 57  1  0  0  0
 55127  1  0  0  0
 56 69  2  0  0  0
 57 58  2  0  0  0
 57128  1  0  0  0
 58129  1  0  0  0
 59 60  1  0  0  0
 59 61  1  0  0  0
 59 62  1  0  0  0
 60130  1  0  0  0
 60131  1  0  0  0
 60132  1  0  0  0
 61133  1  0  0  0
 61134  1  0  0  0
 61135  1  0  0  0
 62136  1  0  0  0
 62137  1  0  0  0
 62138  1  0  0  0
 63 65  1  0  0  0
 63139  1  0  0  0
 63140  1  0  0  0
 63141  1  0  0  0
 64142  1  0  0  0
 65143  1  0  0  0
 68 80  1  0  0  0
 71 73  1  0  0  0
 71 74  2  0  0  0
 71144  1  0  0  0
 72 73  2  0  0  0
 72 84  1  0  0  0
 72145  1  0  0  0
 73 82  1  0  0  0
 74 84  1  0  0  0
 74 79  1  0  0  0
 75 80  1  0  0  0
 75 82  1  0  0  0
 75 83  2  0  0  0
 76 77  1  0  0  0
 76 79  1  0  0  0
 76146  1  0  0  0
 76147  1  0  0  0
 77 81  1  0  0  0
 77148  1  0  0  0
 77149  1  0  0  0
 78 79  1  0  0  0
 78 81  1  0  0  0
 78150  1  0  0  0
 78151  1  0  0  0
 79152  1  0  0  0
 80153  1  0  0  0
 80154  1  0  0  0
 82155  1  0  0  0
M  ISO  4   1 100  68 101  80 101  81 100
M  END
> <chiral flag>
0

> <version>
0

> <s_m_source_file>
/data/baiqing/PycharmProjects/Reinvent-master-3.2/result/LINK_invent/BTK/process_docking_weight1_custom_product_contain_oxygen_bond_distance_aromatic_linkinvent_7_9_3/rearranged_h_0155.sdf

> <i_m_source_file_index>
4

> <r_mmod_Potential_Energy-OPLS-2005>
145.117050170898

> <r_mmod_Stretch_Energy-OPLS-2005>
50.7772598266602

> <r_mmod_Bend_Energy-OPLS-2005>
151.118118286133

> <r_mmod_Torsional_Energy-OPLS-2005>
325.651123046875

> <r_mmod_Improper_Torsional_Energy-OPLS-2005>
13.2436761856079

> <r_mmod_Van_der_Waal_Energy-OPLS-2005>
119.563568115234

> <r_mmod_Electrostatic_Energy-OPLS-2005>
-299.596374511719

> <r_mmod_Solvation_Energy-OPLS-2005>
-239.709548950195

> <b_mmod_Minimization_Converged-OPLS-2005>
0

> <r_mmod_RMS_Derivative-OPLS-2005>
3.77190923690796

$$$$
4
                    3D
 Structure written by MMmdl.
158167  0  0  1  0            999 V2000
  -30.6133  -14.7569   20.4588 C   0  0  0  0  0  0
  -30.4361  -12.4722   19.4628 C   0  0  0  0  0  0
  -29.5049  -12.4897   18.2317 C   0  0  0  0  0  0
  -28.0335  -12.3127   18.6541 C   0  0  0  0  0  0
  -27.6367  -13.2280   19.8426 C   0  0  2  0  0  0
  -28.6848  -13.1809   20.9731 C   0  0  0  0  0  0
  -25.2499  -13.8178   20.5711 C   0  0  0  0  0  0
  -24.1791  -13.0441   20.9215 C   0  0  0  0  0  0
  -24.6378  -11.6910   20.8776 C   0  0  0  0  0  0
  -23.9053  -10.4288   21.0418 C   0  0  0  0  0  0
  -24.3611   -9.4207   21.9181 C   0  0  0  0  0  0
  -23.6297   -8.2234   22.0748 C   0  0  0  0  0  0
  -22.4275   -8.0270   21.3537 C   0  0  0  0  0  0
  -21.9903   -9.0246   20.4641 C   0  0  0  0  0  0
  -22.7228  -10.2133   20.3060 C   0  0  0  0  0  0
  -21.6840   -6.0739   22.5286 C   0  0  0  0  0  0
  -21.4008   -6.5644   23.8217 C   0  0  0  0  0  0
  -21.3656   -5.6798   24.9174 C   0  0  0  0  0  0
  -21.6038   -4.3060   24.7225 C   0  0  0  0  0  0
  -21.8827   -3.8155   23.4342 C   0  0  0  0  0  0
  -21.9198   -4.6973   22.3401 C   0  0  0  0  0  0
  -22.7817  -13.5220   21.1878 C   0  0  0  0  0  0
  -22.1667   -4.2161   21.0983 F   0  0  0  0  0  0
  -21.5626   -3.4543   25.7737 F   0  0  0  0  0  0
  -29.9770  -13.5398   20.3760 N   0  0  0  0  0  0
  -26.2920  -12.9389   20.3269 N   0  0  0  0  0  0
  -25.9301  -11.6533   20.5756 N   0  0  0  0  0  0
  -22.0472  -12.8200   22.0442 N   0  0  0  0  0  0
  -25.4195  -15.1905   20.4106 N   0  0  0  0  0  0
  -31.8203  -14.8368   20.2151 O   0  0  0  0  0  0
  -21.6638   -6.8874   21.4240 O   0  0  0  0  0  0
  -22.3505  -14.5538   20.6738 O   0  0  0  0  0  0
  -24.6308  -31.8554   23.2008 C   0  0  0  0  0  0
  -25.9132  -32.4765   23.8342 C   0  0  1  0  0  0
  -27.2164  -27.2606   20.0979 C   0  0  0  0  0  0
  -25.5938  -33.8569   24.2288 N   0  0  0  0  0  0
  -23.4276  -30.4822   21.5454 C   0  0  2  0  0  0
  -24.8723  -28.9354   20.1106 C   0  0  0  0  0  0
  -22.7506  -29.4614   22.4904 C   0  0  0  0  0  0
  -18.0289  -28.1379   22.8484 C   0  0  0  0  0  0
  -24.1475  -36.7280   23.2647 C   0  0  0  0  0  0
  -25.9755  -30.7666   21.3847 C   0  0  0  0  0  0
  -26.0457  -29.3914   20.7215 C   0  0  0  0  0  0
  -27.2175  -28.5647   20.7074 C   0  0  0  0  0  0
  -26.0128  -26.8804   19.4607 C   0  0  0  0  0  0
  -24.8618  -27.6884   19.4751 C   0  0  0  0  0  0
  -23.6458  -29.8239   20.1595 C   0  0  0  0  0  0
  -25.4099  -36.3074   24.0331 C   0  0  1  0  0  0
  -20.5899  -28.3687   23.1251 C   0  0  2  0  0  0
  -20.6758  -26.9392   22.5398 C   0  0  0  0  0  0
  -19.5730  -26.6365   21.5206 C   0  0  0  0  0  0
  -18.1913  -26.7908   22.1629 C   0  0  0  0  0  0
  -19.1551  -28.8841   23.2876 C   0  0  0  0  0  0
  -18.9468  -30.1447   23.8888 C   0  0  0  0  0  0
  -17.6478  -30.6572   24.0554 C   0  0  0  0  0  0
  -25.9040  -34.9447   23.5115 C   0  0  0  0  0  0
  -16.5365  -29.9081   23.6341 C   0  0  0  0  0  0
  -16.7282  -28.6504   23.0348 C   0  0  0  0  0  0
  -26.4484  -31.6588   25.0744 C   0  0  0  0  0  0
  -25.3701  -31.3764   26.1471 C   0  0  0  0  0  0
  -27.0328  -30.2991   24.6266 C   0  0  0  0  0  0
  -27.6041  -32.4339   25.7507 C   0  0  0  0  0  0
  -27.5577  -37.1785   24.8466 C   0  0  0  0  0  0
  -21.4202  -29.3048   22.3646 N   0  0  0  0  0  0
  -26.4271  -37.3774   23.9424 N   0  0  0  0  0  0
  -24.6979  -31.0520   22.1004 N   0  0  0  0  0  0
  -23.4210  -28.8115   23.2962 O   0  0  0  0  0  0
  -28.3289  -26.3833   20.1562 O   0  0  0  0  0  0
  -26.5607  -34.8920   22.4686 O   0  0  0  0  0  0
  -23.5462  -32.1374   23.7317 O   0  0  0  0  0  0
  -29.4715  -19.9236   20.0917 C   0  0  0  0  0  0
  -28.5259  -21.0330   22.1024 C   0  0  0  0  0  0
  -29.5558  -18.6962   20.8568 C   0  0  0  0  0  0
  -29.2425  -18.7510   22.2489 C   0  0  0  0  0  0
  -28.7009  -19.8659   22.8978 C   0  0  0  0  0  0
  -28.9423  -21.1381   20.7311 C   0  0  0  0  0  0
  -28.6785  -23.7597   20.5327 C   0  0  0  0  0  0
  -29.9190  -17.4439   22.5703 C   0  0  0  0  0  0
  -30.3200  -17.2987   21.0206 C   0  0  1  0  0  0
  -28.3509  -19.8498   24.3761 C   0  0  0  0  0  0
  -28.3391  -24.9899   19.5644 C   0  0  0  0  0  0
  -28.8060  -22.4580   20.0438 N   0  0  0  0  0  0
  -29.8498  -15.9039   20.6219 N   0  0  0  0  0  0
  -26.9860  -19.3533   24.5891 N   0  3  0  0  0  0
  -28.8422  -24.0186   21.7286 O   0  0  0  0  0  0
  -31.4702  -12.6186   19.1481 H   0  0  0  0  0  0
  -30.4057  -11.5054   19.9671 H   0  0  0  0  0  0
  -29.7901  -11.7005   17.5352 H   0  0  0  0  0  0
  -29.6196  -13.4310   17.6924 H   0  0  0  0  0  0
  -27.8973  -11.2674   18.9349 H   0  0  0  0  0  0
  -27.3705  -12.4848   17.8059 H   0  0  0  0  0  0
  -27.6217  -14.2433   19.4454 H   0  0  0  0  0  0
  -28.7303  -12.1877   21.4206 H   0  0  0  0  0  0
  -28.4158  -13.8696   21.7771 H   0  0  0  0  0  0
  -25.2754   -9.5686   22.4753 H   0  0  0  0  0  0
  -24.0020   -7.4615   22.7451 H   0  0  0  0  0  0
  -21.0836   -8.8754   19.8932 H   0  0  0  0  0  0
  -22.3674  -10.9674   19.6174 H   0  0  0  0  0  0
  -21.1989   -7.6154   23.9721 H   0  0  0  0  0  0
  -21.1465   -6.0525   25.9080 H   0  0  0  0  0  0
  -22.0605   -2.7619   23.2844 H   0  0  0  0  0  0
  -22.4123  -11.9855   22.4808 H   0  0  0  0  0  0
  -21.1083  -13.1200   22.2660 H   0  0  0  0  0  0
  -24.6413  -15.8356   20.4916 H   0  0  0  0  0  0
  -26.2558  -15.6246   20.0452 H   0  0  0  0  0  0
  -26.7205  -32.5392   23.1079 H   0  0  0  0  0  0
  -25.0025  -33.9696   25.0392 H   0  0  0  0  0  0
  -22.7247  -31.3066   21.4043 H   0  0  0  0  0  0
  -23.3736  -35.9610   23.3290 H   0  0  0  0  0  0
  -24.3552  -36.8926   22.2060 H   0  0  0  0  0  0
  -23.7218  -37.6481   23.6664 H   0  0  0  0  0  0
  -26.1191  -31.5292   20.6179 H   0  0  0  0  0  0
  -26.8520  -30.8121   22.0169 H   0  0  0  0  0  0
  -28.1149  -28.9130   21.1984 H   0  0  0  0  0  0
  -25.8918  -25.9449   18.9427 H   0  0  0  0  0  0
  -23.9631  -27.3396   18.9848 H   0  0  0  0  0  0
  -23.7742  -30.6079   19.4114 H   0  0  0  0  0  0
  -22.7628  -29.2658   19.8423 H   0  0  0  0  0  0
  -25.1274  -36.1917   25.0805 H   0  0  0  0  0  0
  -21.0005  -28.3254   24.1376 H   0  0  0  0  0  0
  -20.5634  -26.2288   23.3604 H   0  0  0  0  0  0
  -21.6616  -26.7368   22.1211 H   0  0  0  0  0  0
  -19.6876  -25.6283   21.1227 H   0  0  0  0  0  0
  -19.6666  -27.3173   20.6733 H   0  0  0  0  0  0
  -17.4175  -26.6665   21.4037 H   0  0  0  0  0  0
  -18.0320  -26.0043   22.9018 H   0  0  0  0  0  0
  -19.7945  -30.7249   24.2245 H   0  0  0  0  0  0
  -17.5033  -31.6237   24.5160 H   0  0  0  0  0  0
  -15.5364  -30.2981   23.7640 H   0  0  0  0  0  0
  -15.8677  -28.0809   22.7075 H   0  0  0  0  0  0
  -24.5894  -30.7079   25.7825 H   0  0  0  0  0  0
  -24.8852  -32.2940   26.4821 H   0  0  0  0  0  0
  -25.8009  -30.9018   27.0300 H   0  0  0  0  0  0
  -26.2920  -29.6741   24.1275 H   0  0  0  0  0  0
  -27.3963  -29.7258   25.4809 H   0  0  0  0  0  0
  -27.8818  -30.4235   23.9543 H   0  0  0  0  0  0
  -27.2652  -33.3658   26.2036 H   0  0  0  0  0  0
  -28.3860  -32.6875   25.0339 H   0  0  0  0  0  0
  -28.0690  -31.8502   26.5467 H   0  0  0  0  0  0
  -28.2577  -38.0107   24.7534 H   0  0  0  0  0  0
  -28.1093  -36.2629   24.6245 H   0  0  0  0  0  0
  -27.2296  -37.1392   25.8877 H   0  0  0  0  0  0
  -20.9375  -29.8846   21.6926 H   0  0  0  0  0  0
  -26.0152  -38.2841   24.1468 H   0  0  0  0  0  0
  -29.8595  -19.9617   19.0810 H   0  0  0  0  0  0
  -28.0975  -21.8922   22.5960 H   0  0  0  0  0  0
  -29.2121  -16.6988   22.9371 H   0  0  0  0  0  0
  -30.7651  -17.5688   23.2453 H   0  0  0  0  0  0
  -31.3909  -17.4528   20.8714 H   0  0  0  0  0  0
  -28.4487  -20.8527   24.7944 H   0  0  0  0  0  0
  -29.0562  -19.2157   24.9129 H   0  0  0  0  0  0
  -27.4227  -24.7064   19.0579 H   0  0  0  0  0  0
  -29.0941  -24.9947   18.7780 H   0  0  0  0  0  0
  -28.7793  -22.4105   19.0349 H   0  0  0  0  0  0
  -28.8519  -15.7667   20.6476 H   0  0  0  0  0  0
  -26.3277  -19.9182   24.0851 H   0  0  0  0  0  0
  -26.7624  -19.3884   25.5670 H   0  0  0  0  0  0
  -26.9092  -18.4032   24.2776 H   0  0  0  0  0  0
  1 25  1  0  0  0
  1 30  2  0  0  0
  1 83  1  0  0  0
  2  3  1  0  0  0
  2 25  1  0  0  0
  2 86  1  0  0  0
  2 87  1  0  0  0
  3  4  1  0  0  0
  3 88  1  0  0  0
  3 89  1  0  0  0
  4  5  1  0  0  0
  4 90  1  0  0  0
  4 91  1  0  0  0
  5  6  1  0  0  0
  5 26  1  0  0  0
  5 92  1  0  0  0
  6 25  1  0  0  0
  6 93  1  0  0  0
  6 94  1  0  0  0
  7  8  2  0  0  0
  7 26  1  0  0  0
  7 29  1  0  0  0
  8  9  1  0  0  0
  8 22  1  0  0  0
  9 10  1  0  0  0
  9 27  2  0  0  0
 10 11  2  0  0  0
 10 15  1  0  0  0
 11 12  1  0  0  0
 11 95  1  0  0  0
 12 13  2  0  0  0
 12 96  1  0  0  0
 13 14  1  0  0  0
 13 31  1  0  0  0
 14 15  2  0  0  0
 14 97  1  0  0  0
 15 98  1  0  0  0
 16 17  2  0  0  0
 16 21  1  0  0  0
 16 31  1  0  0  0
 17 18  1  0  0  0
 17 99  1  0  0  0
 18 19  2  0  0  0
 18100  1  0  0  0
 19 20  1  0  0  0
 19 24  1  0  0  0
 20 21  2  0  0  0
 20101  1  0  0  0
 21 23  1  0  0  0
 22 28  1  0  0  0
 22 32  2  0  0  0
 26 27  1  0  0  0
 28102  1  0  0  0
 28103  1  0  0  0
 29104  1  0  0  0
 29105  1  0  0  0
 33 34  1  0  0  0
 33 66  1  0  0  0
 33 70  2  0  0  0
 34 36  1  0  0  0
 34 59  1  0  0  0
 34106  1  0  0  0
 35 44  2  0  0  0
 35 45  1  0  0  0
 35 68  1  0  0  0
 36 56  1  0  0  0
 36107  1  0  0  0
 37 39  1  0  0  0
 37 47  1  0  0  0
 37 66  1  0  0  0
 37108  1  0  0  0
 38 43  2  0  0  0
 38 46  1  0  0  0
 38 47  1  0  0  0
 39 64  1  0  0  0
 39 67  2  0  0  0
 40 52  1  0  0  0
 40 53  2  0  0  0
 40 58  1  0  0  0
 41109  1  0  0  0
 41110  1  0  0  0
 41111  1  0  0  0
 41 48  1  0  0  0
 42 43  1  0  0  0
 42 66  1  0  0  0
 42112  1  0  0  0
 42113  1  0  0  0
 43 44  1  0  0  0
 44114  1  0  0  0
 45 46  2  0  0  0
 45115  1  0  0  0
 46116  1  0  0  0
 47117  1  0  0  0
 47118  1  0  0  0
 48 56  1  0  0  0
 48 65  1  0  0  0
 48119  1  0  0  0
 49 50  1  0  0  0
 49 53  1  0  0  0
 49 64  1  0  0  0
 49120  1  0  0  0
 50 51  1  0  0  0
 50121  1  0  0  0
 50122  1  0  0  0
 51 52  1  0  0  0
 51123  1  0  0  0
 51124  1  0  0  0
 52125  1  0  0  0
 52126  1  0  0  0
 53 54  1  0  0  0
 54 55  2  0  0  0
 54127  1  0  0  0
 55 57  1  0  0  0
 55128  1  0  0  0
 56 69  2  0  0  0
 57 58  2  0  0  0
 57129  1  0  0  0
 58130  1  0  0  0
 59 60  1  0  0  0
 59 61  1  0  0  0
 59 62  1  0  0  0
 60131  1  0  0  0
 60132  1  0  0  0
 60133  1  0  0  0
 61134  1  0  0  0
 61135  1  0  0  0
 61136  1  0  0  0
 62137  1  0  0  0
 62138  1  0  0  0
 62139  1  0  0  0
 63 65  1  0  0  0
 63140  1  0  0  0
 63141  1  0  0  0
 63142  1  0  0  0
 64143  1  0  0  0
 65144  1  0  0  0
 68 81  1  0  0  0
 71 73  2  0  0  0
 71 76  1  0  0  0
 71145  1  0  0  0
 72 75  1  0  0  0
 72 76  2  0  0  0
 72146  1  0  0  0
 73 74  1  0  0  0
 73 79  1  0  0  0
 74 75  2  0  0  0
 74 78  1  0  0  0
 75 80  1  0  0  0
 76 82  1  0  0  0
 77 81  1  0  0  0
 77 82  1  0  0  0
 77 85  2  0  0  0
 78 79  1  0  0  0
 78147  1  0  0  0
 78148  1  0  0  0
 79 83  1  0  0  0
 79149  1  0  0  0
 80 84  1  0  0  0
 80150  1  0  0  0
 80151  1  0  0  0
 81152  1  0  0  0
 81153  1  0  0  0
 82154  1  0  0  0
 83155  1  0  0  0
 84156  1  0  0  0
 84157  1  0  0  0
 84158  1  0  0  0
M  CHG  1  84   1
M  ISO  4   1 100  68 101  81 101  83 100
M  END
> <chiral flag>
0

> <version>
0

> <s_m_source_file>
/data/baiqing/PycharmProjects/Reinvent-master-3.2/result/LINK_invent/BTK/process_docking_weight1_custom_product_contain_oxygen_bond_distance_aromatic_linkinvent_7_9_3/rearranged_h_0155.sdf

> <i_m_source_file_index>
5

> <r_mmod_Potential_Energy-OPLS-2005>
202.249588012695

> <r_mmod_Stretch_Energy-OPLS-2005>
143.941162109375

> <r_mmod_Bend_Energy-OPLS-2005>
530.172241210938

> <r_mmod_Torsional_Energy-OPLS-2005>
245.263092041016

> <r_mmod_Improper_Torsional_Energy-OPLS-2005>
13.8153982162476

> <r_mmod_Van_der_Waal_Energy-OPLS-2005>
138.211242675781

> <r_mmod_Electrostatic_Energy-OPLS-2005>
-415.489929199219

> <r_mmod_Solvation_Energy-OPLS-2005>
-543.7470703125

> <b_mmod_Minimization_Converged-OPLS-2005>
0

> <r_mmod_RMS_Derivative-OPLS-2005>
3.50242233276367

$$$$
5
                    3D
 Structure written by MMmdl.
157166  0  0  1  0            999 V2000
  -30.6215  -14.6175   20.5273 C   0  0  0  0  0  0
  -30.4417  -12.3826   19.4529 C   0  0  0  0  0  0
  -29.5085  -12.5081   18.2261 C   0  0  0  0  0  0
  -28.0306  -12.3512   18.6362 C   0  0  0  0  0  0
  -27.6563  -13.2128   19.8703 C   0  0  2  0  0  0
  -28.6991  -13.0451   21.0000 C   0  0  0  0  0  0
  -25.2554  -13.8161   20.5693 C   0  0  0  0  0  0
  -24.1820  -13.0426   20.9190 C   0  0  0  0  0  0
  -24.6394  -11.6896   20.8751 C   0  0  0  0  0  0
  -23.9064  -10.4282   21.0416 C   0  0  0  0  0  0
  -24.3613   -9.4203   21.9197 C   0  0  0  0  0  0
  -23.6282   -8.2243   22.0763 C   0  0  0  0  0  0
  -22.4261   -8.0288   21.3562 C   0  0  0  0  0  0
  -21.9901   -9.0265   20.4663 C   0  0  0  0  0  0
  -22.7234  -10.2136   20.3073 C   0  0  0  0  0  0
  -21.6851   -6.0737   22.5288 C   0  0  0  0  0  0
  -21.4007   -6.5639   23.8222 C   0  0  0  0  0  0
  -21.3659   -5.6797   24.9185 C   0  0  0  0  0  0
  -21.6049   -4.3061   24.7234 C   0  0  0  0  0  0
  -21.8812   -3.8149   23.4352 C   0  0  0  0  0  0
  -21.9181   -4.6962   22.3406 C   0  0  0  0  0  0
  -22.7848  -13.5232   21.1864 C   0  0  0  0  0  0
  -22.1661   -4.2150   21.0987 F   0  0  0  0  0  0
  -21.5626   -3.4545   25.7743 F   0  0  0  0  0  0
  -30.0194  -13.3908   20.4452 N   0  0  0  0  0  0
  -26.2995  -12.9337   20.3352 N   0  0  0  0  0  0
  -25.9319  -11.6496   20.5771 N   0  0  0  0  0  0
  -22.0486  -12.8239   22.0422 N   0  0  0  0  0  0
  -25.4231  -15.1884   20.4109 N   0  0  0  0  0  0
  -31.7669  -14.8092   20.1031 O   0  0  0  0  0  0
  -21.6629   -6.8887   21.4253 O   0  0  0  0  0  0
  -22.3542  -14.5555   20.6724 O   0  0  0  0  0  0
  -24.6245  -31.8616   23.2042 C   0  0  0  0  0  0
  -25.9099  -32.4789   23.8363 C   0  0  1  0  0  0
  -27.2280  -27.3379   20.1115 C   0  0  0  0  0  0
  -25.5919  -33.8590   24.2281 N   0  0  0  0  0  0
  -23.4169  -30.4863   21.5474 C   0  0  2  0  0  0
  -24.8614  -28.9417   20.1166 C   0  0  0  0  0  0
  -22.7464  -29.4632   22.4947 C   0  0  0  0  0  0
  -18.0287  -28.1390   22.8486 C   0  0  0  0  0  0
  -24.1488  -36.7295   23.2638 C   0  0  0  0  0  0
  -25.9577  -30.7978   21.3729 C   0  0  0  0  0  0
  -26.0311  -29.4272   20.7143 C   0  0  0  0  0  0
  -27.2173  -28.6388   20.6983 C   0  0  0  0  0  0
  -26.0312  -26.8988   19.4965 C   0  0  0  0  0  0
  -24.8623  -27.6814   19.5014 C   0  0  0  0  0  0
  -23.6309  -29.8221   20.1634 C   0  0  0  0  0  0
  -25.4113  -36.3088   24.0331 C   0  0  1  0  0  0
  -20.5886  -28.3689   23.1283 C   0  0  2  0  0  0
  -20.6774  -26.9414   22.5405 C   0  0  0  0  0  0
  -19.5747  -26.6390   21.5208 C   0  0  0  0  0  0
  -18.1931  -26.7931   22.1625 C   0  0  0  0  0  0
  -19.1540  -28.8854   23.2883 C   0  0  0  0  0  0
  -18.9465  -30.1455   23.8904 C   0  0  0  0  0  0
  -17.6465  -30.6587   24.0569 C   0  0  0  0  0  0
  -25.9054  -34.9460   23.5109 C   0  0  0  0  0  0
  -16.5354  -29.9092   23.6329 C   0  0  0  0  0  0
  -16.7275  -28.6508   23.0348 C   0  0  0  0  0  0
  -26.4486  -31.6603   25.0731 C   0  0  0  0  0  0
  -25.3727  -31.3744   26.1466 C   0  0  0  0  0  0
  -27.0327  -30.3028   24.6180 C   0  0  0  0  0  0
  -27.6044  -32.4348   25.7491 C   0  0  0  0  0  0
  -27.5581  -37.1801   24.8466 C   0  0  0  0  0  0
  -21.4182  -29.3046   22.3680 N   0  0  0  0  0  0
  -26.4286  -37.3786   23.9417 N   0  0  0  0  0  0
  -24.6849  -31.0650   22.0981 N   0  0  0  0  0  0
  -23.4186  -28.8173   23.3026 O   0  0  0  0  0  0
  -28.3682  -26.5245   20.1297 O   0  0  0  0  0  0
  -26.5624  -34.8919   22.4675 O   0  0  0  0  0  0
  -23.5412  -32.1408   23.7379 O   0  0  0  0  0  0
  -30.6179  -18.0354   20.9276 C   0  0  0  0  0  0
  -29.0112  -19.2310   19.7100 C   0  0  0  0  0  0
  -30.1950  -19.3268   20.3885 C   0  0  0  0  0  0
  -29.7874  -16.9629   20.6245 C   0  0  0  0  0  0
  -29.4942  -24.1958   20.1040 C   0  0  0  0  0  0
  -31.0702  -20.5531   20.4542 C   0  0  0  0  0  0
  -29.4197  -22.6197   20.3423 C   0  0  0  0  0  0
  -31.7781  -24.0227   19.5862 C   0  0  0  0  0  0
  -31.8923  -22.8876   20.6108 C   0  0  0  0  0  0
  -28.1962  -25.0572   20.2369 C   0  0  0  0  0  0
  -30.5717  -24.8001   19.7798 N   0  0  0  0  0  0
  -30.7675  -21.9223   20.4458 N   0  0  0  0  0  0
  -29.8345  -15.6314   20.9945 N   0  0  0  0  0  0
  -32.3669  -20.1953   20.5013 N   0  3  0  0  0  0
  -28.4094  -17.5814   19.7265 S   0  0  0  0  0  0
  -31.4833  -12.5125   19.1529 H   0  0  0  0  0  0
  -30.3816  -11.3823   19.8857 H   0  0  0  0  0  0
  -29.7664  -11.7603   17.4757 H   0  0  0  0  0  0
  -29.6551  -13.4800   17.7520 H   0  0  0  0  0  0
  -27.8622  -11.2970   18.8594 H   0  0  0  0  0  0
  -27.3766  -12.5926   17.7969 H   0  0  0  0  0  0
  -27.6804  -14.2516   19.5411 H   0  0  0  0  0  0
  -28.7029  -12.0158   21.3629 H   0  0  0  0  0  0
  -28.4423  -13.6560   21.8666 H   0  0  0  0  0  0
  -25.2762   -9.5658   22.4765 H   0  0  0  0  0  0
  -23.9994   -7.4621   22.7466 H   0  0  0  0  0  0
  -21.0840   -8.8784   19.8963 H   0  0  0  0  0  0
  -22.3711  -10.9676   19.6179 H   0  0  0  0  0  0
  -21.2012   -7.6146   23.9725 H   0  0  0  0  0  0
  -21.1490   -6.0532   25.9093 H   0  0  0  0  0  0
  -22.0586   -2.7608   23.2854 H   0  0  0  0  0  0
  -22.4094  -11.9892   22.4805 H   0  0  0  0  0  0
  -21.1113  -13.1287   22.2642 H   0  0  0  0  0  0
  -24.6483  -15.8342   20.5190 H   0  0  0  0  0  0
  -26.2656  -15.6345   20.0710 H   0  0  0  0  0  0
  -26.7167  -32.5462   23.1111 H   0  0  0  0  0  0
  -25.0064  -33.9749   25.0419 H   0  0  0  0  0  0
  -22.7102  -31.3068   21.4057 H   0  0  0  0  0  0
  -23.3752  -35.9626   23.3303 H   0  0  0  0  0  0
  -24.3574  -36.8914   22.2053 H   0  0  0  0  0  0
  -23.7240  -37.6494   23.6659 H   0  0  0  0  0  0
  -26.0915  -31.5632   20.6070 H   0  0  0  0  0  0
  -26.8365  -30.8410   22.0045 H   0  0  0  0  0  0
  -28.1173  -29.0149   21.1637 H   0  0  0  0  0  0
  -25.9684  -25.9478   18.9930 H   0  0  0  0  0  0
  -23.9664  -27.3036   19.0281 H   0  0  0  0  0  0
  -23.7540  -30.5995   19.4087 H   0  0  0  0  0  0
  -22.7501  -29.2548   19.8576 H   0  0  0  0  0  0
  -25.1290  -36.1940   25.0823 H   0  0  0  0  0  0
  -20.9971  -28.3265   24.1404 H   0  0  0  0  0  0
  -20.5668  -26.2304   23.3606 H   0  0  0  0  0  0
  -21.6647  -26.7446   22.1204 H   0  0  0  0  0  0
  -19.6911  -25.6301   21.1238 H   0  0  0  0  0  0
  -19.6677  -27.3198   20.6734 H   0  0  0  0  0  0
  -17.4194  -26.6669   21.4038 H   0  0  0  0  0  0
  -18.0336  -26.0075   22.9021 H   0  0  0  0  0  0
  -19.7945  -30.7270   24.2271 H   0  0  0  0  0  0
  -17.5025  -31.6269   24.5174 H   0  0  0  0  0  0
  -15.5354  -30.3002   23.7652 H   0  0  0  0  0  0
  -15.8673  -28.0836   22.7054 H   0  0  0  0  0  0
  -24.5884  -30.7110   25.7801 H   0  0  0  0  0  0
  -24.8937  -32.2915   26.4911 H   0  0  0  0  0  0
  -25.8055  -30.8906   27.0233 H   0  0  0  0  0  0
  -26.2895  -29.6781   24.1208 H   0  0  0  0  0  0
  -27.4031  -29.7284   25.4681 H   0  0  0  0  0  0
  -27.8763  -30.4317   23.9394 H   0  0  0  0  0  0
  -27.2646  -33.3650   26.2062 H   0  0  0  0  0  0
  -28.3845  -32.6919   25.0311 H   0  0  0  0  0  0
  -28.0723  -31.8489   26.5413 H   0  0  0  0  0  0
  -28.2599  -38.0098   24.7520 H   0  0  0  0  0  0
  -28.1074  -36.2631   24.6279 H   0  0  0  0  0  0
  -27.2305  -37.1440   25.8870 H   0  0  0  0  0  0
  -20.9355  -29.8759   21.6886 H   0  0  0  0  0  0
  -26.0169  -38.2858   24.1419 H   0  0  0  0  0  0
  -31.5239  -17.9301   21.5073 H   0  0  0  0  0  0
  -28.4610  -19.9930   19.1765 H   0  0  0  0  0  0
  -28.8616  -22.1834   19.5160 H   0  0  0  0  0  0
  -28.8531  -22.4257   21.2521 H   0  0  0  0  0  0
  -31.8198  -23.6283   18.5692 H   0  0  0  0  0  0
  -32.6447  -24.6772   19.6873 H   0  0  0  0  0  0
  -31.8760  -23.2799   21.6285 H   0  0  0  0  0  0
  -32.8821  -22.4589   20.4772 H   0  0  0  0  0  0
  -27.7338  -24.8355   21.1994 H   0  0  0  0  0  0
  -27.5192  -24.6788   19.4751 H   0  0  0  0  0  0
  -28.9490  -15.2685   21.3160 H   0  0  0  0  0  0
  -32.6136  -19.2201   20.4355 H   0  0  0  0  0  0
  -33.1144  -20.8696   20.5302 H   0  0  0  0  0  0
  1 25  1  0  0  0
  1 30  2  0  0  0
  1 83  1  0  0  0
  2  3  1  0  0  0
  2 25  1  0  0  0
  2 86  1  0  0  0
  2 87  1  0  0  0
  3  4  1  0  0  0
  3 88  1  0  0  0
  3 89  1  0  0  0
  4  5  1  0  0  0
  4 90  1  0  0  0
  4 91  1  0  0  0
  5  6  1  0  0  0
  5 26  1  0  0  0
  5 92  1  0  0  0
  6 25  1  0  0  0
  6 93  1  0  0  0
  6 94  1  0  0  0
  7  8  2  0  0  0
  7 26  1  0  0  0
  7 29  1  0  0  0
  8  9  1  0  0  0
  8 22  1  0  0  0
  9 10  1  0  0  0
  9 27  2  0  0  0
 10 11  2  0  0  0
 10 15  1  0  0  0
 11 12  1  0  0  0
 11 95  1  0  0  0
 12 13  2  0  0  0
 12 96  1  0  0  0
 13 14  1  0  0  0
 13 31  1  0  0  0
 14 15  2  0  0  0
 14 97  1  0  0  0
 15 98  1  0  0  0
 16 17  2  0  0  0
 16 21  1  0  0  0
 16 31  1  0  0  0
 17 18  1  0  0  0
 17 99  1  0  0  0
 18 19  2  0  0  0
 18100  1  0  0  0
 19 20  1  0  0  0
 19 24  1  0  0  0
 20 21  2  0  0  0
 20101  1  0  0  0
 21 23  1  0  0  0
 22 28  1  0  0  0
 22 32  2  0  0  0
 26 27  1  0  0  0
 28102  1  0  0  0
 28103  1  0  0  0
 29104  1  0  0  0
 29105  1  0  0  0
 33 34  1  0  0  0
 33 66  1  0  0  0
 33 70  2  0  0  0
 34 36  1  0  0  0
 34 59  1  0  0  0
 34106  1  0  0  0
 35 44  2  0  0  0
 35 45  1  0  0  0
 35 68  1  0  0  0
 36 56  1  0  0  0
 36107  1  0  0  0
 37 39  1  0  0  0
 37 47  1  0  0  0
 37 66  1  0  0  0
 37108  1  0  0  0
 38 43  2  0  0  0
 38 46  1  0  0  0
 38 47  1  0  0  0
 39 64  1  0  0  0
 39 67  2  0  0  0
 40 52  1  0  0  0
 40 53  2  0  0  0
 40 58  1  0  0  0
 41109  1  0  0  0
 41110  1  0  0  0
 41111  1  0  0  0
 41 48  1  0  0  0
 42 43  1  0  0  0
 42 66  1  0  0  0
 42112  1  0  0  0
 42113  1  0  0  0
 43 44  1  0  0  0
 44114  1  0  0  0
 45 46  2  0  0  0
 45115  1  0  0  0
 46116  1  0  0  0
 47117  1  0  0  0
 47118  1  0  0  0
 48 56  1  0  0  0
 48 65  1  0  0  0
 48119  1  0  0  0
 49 50  1  0  0  0
 49 53  1  0  0  0
 49 64  1  0  0  0
 49120  1  0  0  0
 50 51  1  0  0  0
 50121  1  0  0  0
 50122  1  0  0  0
 51 52  1  0  0  0
 51123  1  0  0  0
 51124  1  0  0  0
 52125  1  0  0  0
 52126  1  0  0  0
 53 54  1  0  0  0
 54 55  2  0  0  0
 54127  1  0  0  0
 55 57  1  0  0  0
 55128  1  0  0  0
 56 69  2  0  0  0
 57 58  2  0  0  0
 57129  1  0  0  0
 58130  1  0  0  0
 59 60  1  0  0  0
 59 61  1  0  0  0
 59 62  1  0  0  0
 60131  1  0  0  0
 60132  1  0  0  0
 60133  1  0  0  0
 61134  1  0  0  0
 61135  1  0  0  0
 61136  1  0  0  0
 62137  1  0  0  0
 62138  1  0  0  0
 62139  1  0  0  0
 63 65  1  0  0  0
 63140  1  0  0  0
 63141  1  0  0  0
 63142  1  0  0  0
 64143  1  0  0  0
 65144  1  0  0  0
 68 80  1  0  0  0
 71 73  1  0  0  0
 71 74  2  0  0  0
 71145  1  0  0  0
 72 73  2  0  0  0
 72 85  1  0  0  0
 72146  1  0  0  0
 73 76  1  0  0  0
 74 83  1  0  0  0
 74 85  1  0  0  0
 75 77  1  0  0  0
 75 80  1  0  0  0
 75 81  2  0  0  0
 76 82  1  0  0  0
 76 84  2  0  0  0
 77 82  1  0  0  0
 77147  1  0  0  0
 77148  1  0  0  0
 78 79  1  0  0  0
 78 81  1  0  0  0
 78149  1  0  0  0
 78150  1  0  0  0
 79 82  1  0  0  0
 79151  1  0  0  0
 79152  1  0  0  0
 80153  1  0  0  0
 80154  1  0  0  0
 83155  1  0  0  0
 84156  1  0  0  0
 84157  1  0  0  0
M  CHG  1  84   1
M  ISO  4   1 100  68 101  80 101  83 100
M  END
> <chiral flag>
0

> <version>
0

> <s_m_source_file>
/data/baiqing/PycharmProjects/Reinvent-master-3.2/result/LINK_invent/BTK/process_docking_weight1_custom_product_contain_oxygen_bond_distance_aromatic_linkinvent_7_9_3/rearranged_h_0155.sdf

> <i_m_source_file_index>
6

> <r_mmod_Potential_Energy-OPLS-2005>
-120.328407287598

> <r_mmod_Stretch_Energy-OPLS-2005>
82.2277526855469

> <r_mmod_Bend_Energy-OPLS-2005>
158.186187744141

> <r_mmod_Torsional_Energy-OPLS-2005>
240.699234008789

> <r_mmod_Improper_Torsional_Energy-OPLS-2005>
6.03337478637695

> <r_mmod_Van_der_Waal_Energy-OPLS-2005>
153.721130371094

> <r_mmod_Electrostatic_Energy-OPLS-2005>
-299.513885498047

> <r_mmod_Solvation_Energy-OPLS-2005>
-500.93115234375

> <b_mmod_Minimization_Converged-OPLS-2005>
0

> <r_mmod_RMS_Derivative-OPLS-2005>
1.99127805233002

$$$$
6
                    3D
 Structure written by MMmdl.
155164  0  0  1  0            999 V2000
  -30.6468  -14.6984   20.4633 C   0  0  0  0  0  0
  -30.4210  -12.4262   19.4675 C   0  0  0  0  0  0
  -29.5030  -12.4987   18.2295 C   0  0  0  0  0  0
  -28.0288  -12.3343   18.6449 C   0  0  0  0  0  0
  -27.6403  -13.2337   19.8498 C   0  0  2  0  0  0
  -28.6850  -13.1670   20.9838 C   0  0  0  0  0  0
  -25.2511  -13.8212   20.5713 C   0  0  0  0  0  0
  -24.1798  -13.0451   20.9203 C   0  0  0  0  0  0
  -24.6392  -11.6928   20.8746 C   0  0  0  0  0  0
  -23.9072  -10.4300   21.0406 C   0  0  0  0  0  0
  -24.3623   -9.4213   21.9182 C   0  0  0  0  0  0
  -23.6298   -8.2248   22.0753 C   0  0  0  0  0  0
  -22.4279   -8.0285   21.3544 C   0  0  0  0  0  0
  -21.9915   -9.0259   20.4646 C   0  0  0  0  0  0
  -22.7244  -10.2139   20.3056 C   0  0  0  0  0  0
  -21.6855   -6.0738   22.5280 C   0  0  0  0  0  0
  -21.4017   -6.5641   23.8213 C   0  0  0  0  0  0
  -21.3660   -5.6794   24.9175 C   0  0  0  0  0  0
  -21.6044   -4.3057   24.7226 C   0  0  0  0  0  0
  -21.8819   -3.8149   23.4346 C   0  0  0  0  0  0
  -21.9194   -4.6965   22.3403 C   0  0  0  0  0  0
  -22.7819  -13.5227   21.1864 C   0  0  0  0  0  0
  -22.1661   -4.2151   21.0980 F   0  0  0  0  0  0
  -21.5628   -3.4540   25.7738 F   0  0  0  0  0  0
  -29.9867  -13.4949   20.3941 N   0  0  0  0  0  0
  -26.2934  -12.9421   20.3296 N   0  0  0  0  0  0
  -25.9323  -11.6560   20.5760 N   0  0  0  0  0  0
  -22.0472  -12.8212   22.0422 N   0  0  0  0  0  0
  -25.4228  -15.1936   20.4167 N   0  0  0  0  0  0
  -31.8439  -14.7518   20.1617 O   0  0  0  0  0  0
  -21.6643   -6.8882   21.4241 O   0  0  0  0  0  0
  -22.3498  -14.5531   20.6712 O   0  0  0  0  0  0
  -24.6293  -31.8568   23.1995 C   0  0  0  0  0  0
  -25.9128  -32.4760   23.8334 C   0  0  1  0  0  0
  -27.2207  -27.2827   20.1114 C   0  0  0  0  0  0
  -25.5933  -33.8563   24.2260 N   0  0  0  0  0  0
  -23.4238  -30.4804   21.5431 C   0  0  2  0  0  0
  -24.8684  -28.9303   20.1084 C   0  0  0  0  0  0
  -22.7488  -29.4611   22.4921 C   0  0  0  0  0  0
  -18.0289  -28.1387   22.8486 C   0  0  0  0  0  0
  -24.1490  -36.7285   23.2638 C   0  0  0  0  0  0
  -25.9681  -30.7752   21.3758 C   0  0  0  0  0  0
  -26.0387  -29.4002   20.7156 C   0  0  0  0  0  0
  -27.2134  -28.5863   20.7100 C   0  0  0  0  0  0
  -26.0176  -26.8662   19.4964 C   0  0  0  0  0  0
  -24.8615  -27.6702   19.4922 C   0  0  0  0  0  0
  -23.6392  -29.8156   20.1581 C   0  0  0  0  0  0
  -25.4116  -36.3073   24.0326 C   0  0  1  0  0  0
  -20.5891  -28.3695   23.1277 C   0  0  2  0  0  0
  -20.6777  -26.9414   22.5413 C   0  0  0  0  0  0
  -19.5754  -26.6385   21.5214 C   0  0  0  0  0  0
  -18.1933  -26.7930   22.1623 C   0  0  0  0  0  0
  -19.1542  -28.8857   23.2876 C   0  0  0  0  0  0
  -18.9463  -30.1458   23.8895 C   0  0  0  0  0  0
  -17.6463  -30.6588   24.0563 C   0  0  0  0  0  0
  -25.9058  -34.9444   23.5095 C   0  0  0  0  0  0
  -16.5354  -29.9086   23.6331 C   0  0  0  0  0  0
  -16.7276  -28.6503   23.0352 C   0  0  0  0  0  0
  -26.4499  -31.6583   25.0720 C   0  0  0  0  0  0
  -25.3724  -31.3732   26.1442 C   0  0  0  0  0  0
  -27.0346  -30.3000   24.6201 C   0  0  0  0  0  0
  -27.6055  -32.4322   25.7492 C   0  0  0  0  0  0
  -27.5584  -37.1792   24.8459 C   0  0  0  0  0  0
  -21.4198  -29.3043   22.3665 N   0  0  0  0  0  0
  -26.4288  -37.3775   23.9415 N   0  0  0  0  0  0
  -24.6929  -31.0551   22.0959 N   0  0  0  0  0  0
  -23.4199  -28.8154   23.3013 O   0  0  0  0  0  0
  -28.3422  -26.4307   20.1905 O   0  0  0  0  0  0
  -26.5630  -34.8918   22.4665 O   0  0  0  0  0  0
  -23.5449  -32.1384   23.7305 O   0  0  0  0  0  0
  -29.8872  -19.1728   18.3549 C   0  0  0  0  0  0
  -29.6355  -20.5657   18.4177 C   0  0  0  0  0  0
  -28.9737  -20.3558   20.7263 C   0  0  0  0  0  0
  -29.6873  -18.3260   19.4668 C   0  0  0  0  0  0
  -29.2325  -18.9276   20.6581 C   0  0  0  0  0  0
  -29.1684  -21.2157   19.5878 C   0  0  0  0  0  0
  -28.5778  -23.7560   20.1849 C   0  0  0  0  0  0
  -29.0003  -17.9574   21.8182 C   0  0  0  0  0  0
  -29.9420  -16.7892   19.3290 C   0  0  0  0  0  0
  -29.8769  -16.6485   21.7914 C   0  0  0  0  0  0
  -28.4655  -25.1580   19.4180 C   0  0  0  0  0  0
  -29.9071  -15.8766   20.5225 N   0  0  0  0  0  0
  -28.9350  -22.6668   19.4216 N   0  0  0  0  0  0
  -28.3529  -23.6771   21.3956 O   0  0  0  0  0  0
  -31.4648  -12.5296   19.1662 H   0  0  0  0  0  0
  -30.3450  -11.4504   19.9500 H   0  0  0  0  0  0
  -29.7768  -11.7264   17.5093 H   0  0  0  0  0  0
  -29.6393  -13.4549   17.7216 H   0  0  0  0  0  0
  -27.8783  -11.2857   18.9041 H   0  0  0  0  0  0
  -27.3723  -12.5336   17.7972 H   0  0  0  0  0  0
  -27.6360  -14.2566   19.4725 H   0  0  0  0  0  0
  -28.7086  -12.1755   21.4384 H   0  0  0  0  0  0
  -28.4305  -13.8682   21.7801 H   0  0  0  0  0  0
  -25.2769   -9.5690   22.4756 H   0  0  0  0  0  0
  -24.0009   -7.4640   22.7472 H   0  0  0  0  0  0
  -21.0847   -8.8778   19.8952 H   0  0  0  0  0  0
  -22.3700  -10.9678   19.6167 H   0  0  0  0  0  0
  -21.2010   -7.6150   23.9716 H   0  0  0  0  0  0
  -21.1482   -6.0525   25.9078 H   0  0  0  0  0  0
  -22.0597   -2.7611   23.2847 H   0  0  0  0  0  0
  -22.4096  -11.9877   22.4809 H   0  0  0  0  0  0
  -21.1089  -13.1230   22.2633 H   0  0  0  0  0  0
  -24.6620  -15.8530   20.5391 H   0  0  0  0  0  0
  -26.2868  -15.6346   20.1274 H   0  0  0  0  0  0
  -26.7192  -32.5413   23.1073 H   0  0  0  0  0  0
  -25.0074  -33.9702   25.0401 H   0  0  0  0  0  0
  -22.7193  -31.3023   21.3994 H   0  0  0  0  0  0
  -23.3759  -35.9608   23.3284 H   0  0  0  0  0  0
  -24.3583  -36.8925   22.2056 H   0  0  0  0  0  0
  -23.7233  -37.6476   23.6673 H   0  0  0  0  0  0
  -26.1060  -31.5380   20.6082 H   0  0  0  0  0  0
  -26.8462  -30.8215   22.0083 H   0  0  0  0  0  0
  -28.1105  -28.9417   21.1975 H   0  0  0  0  0  0
  -25.9150  -25.8923   19.0464 H   0  0  0  0  0  0
  -23.9590  -27.2987   19.0263 H   0  0  0  0  0  0
  -23.7621  -30.5926   19.4027 H   0  0  0  0  0  0
  -22.7572  -29.2490   19.8542 H   0  0  0  0  0  0
  -25.1294  -36.1917   25.0817 H   0  0  0  0  0  0
  -20.9983  -28.3274   24.1398 H   0  0  0  0  0  0
  -20.5678  -26.2305   23.3615 H   0  0  0  0  0  0
  -21.6645  -26.7441   22.1209 H   0  0  0  0  0  0
  -19.6917  -25.6295   21.1245 H   0  0  0  0  0  0
  -19.6693  -27.3192   20.6741 H   0  0  0  0  0  0
  -17.4204  -26.6680   21.4023 H   0  0  0  0  0  0
  -18.0328  -26.0071   22.9018 H   0  0  0  0  0  0
  -19.7939  -30.7274   24.2265 H   0  0  0  0  0  0
  -17.5017  -31.6267   24.5167 H   0  0  0  0  0  0
  -15.5354  -30.2987   23.7657 H   0  0  0  0  0  0
  -15.8675  -28.0821   22.7070 H   0  0  0  0  0  0
  -24.5900  -30.7080   25.7771 H   0  0  0  0  0  0
  -24.8915  -32.2902   26.4857 H   0  0  0  0  0  0
  -25.8042  -30.8917   27.0225 H   0  0  0  0  0  0
  -26.2927  -29.6745   24.1222 H   0  0  0  0  0  0
  -27.4026  -29.7265   25.4719 H   0  0  0  0  0  0
  -27.8804  -30.4273   23.9441 H   0  0  0  0  0  0
  -27.2662  -33.3622   26.2066 H   0  0  0  0  0  0
  -28.3866  -32.6884   25.0322 H   0  0  0  0  0  0
  -28.0723  -31.8452   26.5411 H   0  0  0  0  0  0
  -28.2580  -38.0111   24.7540 H   0  0  0  0  0  0
  -28.1104  -36.2645   24.6239 H   0  0  0  0  0  0
  -27.2309  -37.1383   25.8862 H   0  0  0  0  0  0
  -20.9380  -29.8763   21.6870 H   0  0  0  0  0  0
  -26.0165  -38.2844   24.1439 H   0  0  0  0  0  0
  -30.2328  -18.7493   17.4218 H   0  0  0  0  0  0
  -29.8047  -21.1437   17.5195 H   0  0  0  0  0  0
  -28.6098  -20.7835   21.6503 H   0  0  0  0  0  0
  -27.9452  -17.6802   21.8073 H   0  0  0  0  0  0
  -29.1644  -18.4850   22.7588 H   0  0  0  0  0  0
  -30.9029  -16.6876   18.8207 H   0  0  0  0  0  0
  -29.2048  -16.4060   18.6222 H   0  0  0  0  0  0
  -29.5559  -15.9908   22.6006 H   0  0  0  0  0  0
  -30.9066  -16.9256   22.0248 H   0  0  0  0  0  0
  -27.7342  -25.0615   18.6199 H   0  0  0  0  0  0
  -29.4078  -25.2635   18.8799 H   0  0  0  0  0  0
  -29.0896  -22.9635   18.4679 H   0  0  0  0  0  0
  1 25  1  0  0  0
  1 30  2  0  0  0
  1 82  1  0  0  0
  2  3  1  0  0  0
  2 25  1  0  0  0
  2 85  1  0  0  0
  2 86  1  0  0  0
  3  4  1  0  0  0
  3 87  1  0  0  0
  3 88  1  0  0  0
  4  5  1  0  0  0
  4 89  1  0  0  0
  4 90  1  0  0  0
  5  6  1  0  0  0
  5 26  1  0  0  0
  5 91  1  0  0  0
  6 25  1  0  0  0
  6 92  1  0  0  0
  6 93  1  0  0  0
  7  8  2  0  0  0
  7 26  1  0  0  0
  7 29  1  0  0  0
  8  9  1  0  0  0
  8 22  1  0  0  0
  9 10  1  0  0  0
  9 27  2  0  0  0
 10 11  2  0  0  0
 10 15  1  0  0  0
 11 12  1  0  0  0
 11 94  1  0  0  0
 12 13  2  0  0  0
 12 95  1  0  0  0
 13 14  1  0  0  0
 13 31  1  0  0  0
 14 15  2  0  0  0
 14 96  1  0  0  0
 15 97  1  0  0  0
 16 17  2  0  0  0
 16 21  1  0  0  0
 16 31  1  0  0  0
 17 18  1  0  0  0
 17 98  1  0  0  0
 18 19  2  0  0  0
 18 99  1  0  0  0
 19 20  1  0  0  0
 19 24  1  0  0  0
 20 21  2  0  0  0
 20100  1  0  0  0
 21 23  1  0  0  0
 22 28  1  0  0  0
 22 32  2  0  0  0
 26 27  1  0  0  0
 28101  1  0  0  0
 28102  1  0  0  0
 29103  1  0  0  0
 29104  1  0  0  0
 33 34  1  0  0  0
 33 66  1  0  0  0
 33 70  2  0  0  0
 34 36  1  0  0  0
 34 59  1  0  0  0
 34105  1  0  0  0
 35 44  2  0  0  0
 35 45  1  0  0  0
 35 68  1  0  0  0
 36 56  1  0  0  0
 36106  1  0  0  0
 37 39  1  0  0  0
 37 47  1  0  0  0
 37 66  1  0  0  0
 37107  1  0  0  0
 38 43  2  0  0  0
 38 46  1  0  0  0
 38 47  1  0  0  0
 39 64  1  0  0  0
 39 67  2  0  0  0
 40 52  1  0  0  0
 40 53  2  0  0  0
 40 58  1  0  0  0
 41108  1  0  0  0
 41109  1  0  0  0
 41110  1  0  0  0
 41 48  1  0  0  0
 42 43  1  0  0  0
 42 66  1  0  0  0
 42111  1  0  0  0
 42112  1  0  0  0
 43 44  1  0  0  0
 44113  1  0  0  0
 45 46  2  0  0  0
 45114  1  0  0  0
 46115  1  0  0  0
 47116  1  0  0  0
 47117  1  0  0  0
 48 56  1  0  0  0
 48 65  1  0  0  0
 48118  1  0  0  0
 49 50  1  0  0  0
 49 53  1  0  0  0
 49 64  1  0  0  0
 49119  1  0  0  0
 50 51  1  0  0  0
 50120  1  0  0  0
 50121  1  0  0  0
 51 52  1  0  0  0
 51122  1  0  0  0
 51123  1  0  0  0
 52124  1  0  0  0
 52125  1  0  0  0
 53 54  1  0  0  0
 54 55  2  0  0  0
 54126  1  0  0  0
 55 57  1  0  0  0
 55127  1  0  0  0
 56 69  2  0  0  0
 57 58  2  0  0  0
 57128  1  0  0  0
 58129  1  0  0  0
 59 60  1  0  0  0
 59 61  1  0  0  0
 59 62  1  0  0  0
 60130  1  0  0  0
 60131  1  0  0  0
 60132  1  0  0  0
 61133  1  0  0  0
 61134  1  0  0  0
 61135  1  0  0  0
 62136  1  0  0  0
 62137  1  0  0  0
 62138  1  0  0  0
 63 65  1  0  0  0
 63139  1  0  0  0
 63140  1  0  0  0
 63141  1  0  0  0
 64142  1  0  0  0
 65143  1  0  0  0
 68 81  1  0  0  0
 71 72  2  0  0  0
 71 74  1  0  0  0
 71144  1  0  0  0
 72 76  1  0  0  0
 72145  1  0  0  0
 73 75  1  0  0  0
 73 76  2  0  0  0
 73146  1  0  0  0
 74 75  2  0  0  0
 74 79  1  0  0  0
 75 78  1  0  0  0
 76 83  1  0  0  0
 77 81  1  0  0  0
 77 83  1  0  0  0
 77 84  2  0  0  0
 78 80  1  0  0  0
 78147  1  0  0  0
 78148  1  0  0  0
 79 82  1  0  0  0
 79149  1  0  0  0
 79150  1  0  0  0
 80 82  1  0  0  0
 80151  1  0  0  0
 80152  1  0  0  0
 81153  1  0  0  0
 81154  1  0  0  0
 83155  1  0  0  0
M  ISO  4   1 100  68 101  81 101  82 100
M  END
> <chiral flag>
0

> <version>
0

> <s_m_source_file>
/data/baiqing/PycharmProjects/Reinvent-master-3.2/result/LINK_invent/BTK/process_docking_weight1_custom_product_contain_oxygen_bond_distance_aromatic_linkinvent_7_9_3/rearranged_h_0155.sdf

> <i_m_source_file_index>
7

> <r_mmod_Potential_Energy-OPLS-2005>
263.008850097656

> <r_mmod_Stretch_Energy-OPLS-2005>
100.241989135742

> <r_mmod_Bend_Energy-OPLS-2005>
198.604354858398

> <r_mmod_Torsional_Energy-OPLS-2005>
296.746307373047

> <r_mmod_Improper_Torsional_Energy-OPLS-2005>
12.5064258575439

> <r_mmod_Van_der_Waal_Energy-OPLS-2005>
138.70182800293

> <r_mmod_Electrostatic_Energy-OPLS-2005>
-319.001342773438

> <r_mmod_Solvation_Energy-OPLS-2005>
-234.829406738281

> <b_mmod_Minimization_Converged-OPLS-2005>
0

> <r_mmod_RMS_Derivative-OPLS-2005>
0.158099845051765

$$$$
7
                    3D
 Structure written by MMmdl.
156165  0  0  1  0            999 V2000
  -30.6260  -14.8233   20.4476 C   0  0  0  0  0  0
  -30.4227  -12.5102   19.4851 C   0  0  0  0  0  0
  -29.5061  -12.5079   18.2433 C   0  0  0  0  0  0
  -28.0371  -12.3217   18.6634 C   0  0  0  0  0  0
  -27.6325  -13.2440   19.8446 C   0  0  2  0  0  0
  -28.6784  -13.2341   20.9798 C   0  0  0  0  0  0
  -25.2470  -13.8225   20.5711 C   0  0  0  0  0  0
  -24.1782  -13.0452   20.9230 C   0  0  0  0  0  0
  -24.6395  -11.6936   20.8771 C   0  0  0  0  0  0
  -23.9083  -10.4301   21.0414 C   0  0  0  0  0  0
  -24.3630   -9.4211   21.9188 C   0  0  0  0  0  0
  -23.6301   -8.2248   22.0756 C   0  0  0  0  0  0
  -22.4280   -8.0290   21.3547 C   0  0  0  0  0  0
  -21.9924   -9.0266   20.4647 C   0  0  0  0  0  0
  -22.7259  -10.2143   20.3059 C   0  0  0  0  0  0
  -21.6855   -6.0744   22.5279 C   0  0  0  0  0  0
  -21.4016   -6.5644   23.8214 C   0  0  0  0  0  0
  -21.3659   -5.6793   24.9174 C   0  0  0  0  0  0
  -21.6042   -4.3056   24.7222 C   0  0  0  0  0  0
  -21.8820   -3.8152   23.4340 C   0  0  0  0  0  0
  -21.9194   -4.6971   22.3399 C   0  0  0  0  0  0
  -22.7800  -13.5221   21.1874 C   0  0  0  0  0  0
  -22.1662   -4.2159   21.0975 F   0  0  0  0  0  0
  -21.5628   -3.4536   25.7732 F   0  0  0  0  0  0
  -29.9616  -13.6087   20.3760 N   0  0  0  0  0  0
  -26.2898  -12.9455   20.3289 N   0  0  0  0  0  0
  -25.9329  -11.6585   20.5784 N   0  0  0  0  0  0
  -22.0455  -12.8204   22.0430 N   0  0  0  0  0  0
  -25.4133  -15.1946   20.4094 N   0  0  0  0  0  0
  -31.8265  -14.8248   20.1510 O   0  0  0  0  0  0
  -21.6642   -6.8887   21.4241 O   0  0  0  0  0  0
  -22.3482  -14.5523   20.6719 O   0  0  0  0  0  0
  -24.6359  -31.8515   23.1957 C   0  0  0  0  0  0
  -25.9168  -32.4732   23.8317 C   0  0  1  0  0  0
  -27.2063  -27.2044   20.1530 C   0  0  0  0  0  0
  -25.5945  -33.8534   24.2235 N   0  0  0  0  0  0
  -23.4361  -30.4725   21.5399 C   0  0  2  0  0  0
  -24.8847  -28.9131   20.1105 C   0  0  0  0  0  0
  -22.7536  -29.4572   22.4894 C   0  0  0  0  0  0
  -18.0299  -28.1385   22.8474 C   0  0  0  0  0  0
  -24.1490  -36.7271   23.2640 C   0  0  0  0  0  0
  -25.9865  -30.7462   21.3866 C   0  0  0  0  0  0
  -26.0578  -29.3624   20.7325 C   0  0  0  0  0  0
  -27.2241  -28.5208   20.7427 C   0  0  0  0  0  0
  -26.0272  -26.8563   19.4632 C   0  0  0  0  0  0
  -24.8773  -27.6696   19.4614 C   0  0  0  0  0  0
  -23.6589  -29.8074   20.1563 C   0  0  0  0  0  0
  -25.4118  -36.3054   24.0319 C   0  0  1  0  0  0
  -20.5907  -28.3703   23.1250 C   0  0  2  0  0  0
  -20.6785  -26.9414   22.5403 C   0  0  0  0  0  0
  -19.5759  -26.6378   21.5208 C   0  0  0  0  0  0
  -18.1941  -26.7925   22.1620 C   0  0  0  0  0  0
  -19.1553  -28.8862   23.2854 C   0  0  0  0  0  0
  -18.9476  -30.1459   23.8876 C   0  0  0  0  0  0
  -17.6473  -30.6587   24.0556 C   0  0  0  0  0  0
  -25.9065  -34.9424   23.5081 C   0  0  0  0  0  0
  -16.5364  -29.9083   23.6329 C   0  0  0  0  0  0
  -16.7286  -28.6501   23.0350 C   0  0  0  0  0  0
  -26.4518  -31.6572   25.0726 C   0  0  0  0  0  0
  -25.3718  -31.3737   26.1431 C   0  0  0  0  0  0
  -27.0380  -30.2978   24.6256 C   0  0  0  0  0  0
  -27.6063  -32.4324   25.7502 C   0  0  0  0  0  0
  -27.5577  -37.1788   24.8463 C   0  0  0  0  0  0
  -21.4237  -29.3043   22.3638 N   0  0  0  0  0  0
  -26.4288  -37.3759   23.9407 N   0  0  0  0  0  0
  -24.7055  -31.0428   22.0964 N   0  0  0  0  0  0
  -23.4209  -28.8115   23.3019 O   0  0  0  0  0  0
  -28.2633  -26.2468   20.1722 O   0  0  0  0  0  0
  -26.5645  -34.8909   22.4656 O   0  0  0  0  0  0
  -23.5496  -32.1364   23.7216 O   0  0  0  0  0  0
  -29.7005  -20.0146   19.8758 C   0  0  0  0  0  0
  -29.7480  -18.5551   20.1327 C   0  0  0  0  0  0
  -28.9851  -18.1682   21.1583 C   0  0  0  0  0  0
  -28.8876  -20.7550   20.7572 C   0  0  0  0  0  0
  -30.4128  -17.2658   19.6042 C   0  0  0  0  0  0
  -29.0163  -16.6618   21.4261 C   0  0  0  0  0  0
  -26.7056  -24.5900   21.3466 C   0  0  0  0  0  0
  -29.0111  -25.1284   22.1065 C   0  0  0  0  0  0
  -28.7013  -23.4615   20.1724 C   0  0  0  0  0  0
  -28.1484  -24.8735   20.8590 C   0  0  0  0  0  0
  -29.9310  -16.0530   20.4003 N   0  0  0  0  0  0
  -28.5434  -22.1693   20.9858 N   0  0  0  0  0  0
  -28.1766  -19.5598   21.8921 S   0  0  0  0  0  0
  -31.4620  -12.6259   19.1744 H   0  0  0  0  0  0
  -30.3770  -11.5513   20.0040 H   0  0  0  0  0  0
  -29.8020  -11.7149   17.5549 H   0  0  0  0  0  0
  -29.6180  -13.4466   17.6984 H   0  0  0  0  0  0
  -27.9118  -11.2775   18.9537 H   0  0  0  0  0  0
  -27.3747  -12.4811   17.8120 H   0  0  0  0  0  0
  -27.6101  -14.2551   19.4368 H   0  0  0  0  0  0
  -28.7397  -12.2508   21.4484 H   0  0  0  0  0  0
  -28.4017  -13.9326   21.7696 H   0  0  0  0  0  0
  -25.2773   -9.5686   22.4769 H   0  0  0  0  0  0
  -24.0010   -7.4636   22.7472 H   0  0  0  0  0  0
  -21.0860   -8.8789   19.8945 H   0  0  0  0  0  0
  -22.3720  -10.9687   19.6171 H   0  0  0  0  0  0
  -21.2009   -7.6152   23.9722 H   0  0  0  0  0  0
  -21.1477   -6.0520   25.9078 H   0  0  0  0  0  0
  -22.0599   -2.7616   23.2836 H   0  0  0  0  0  0
  -22.4086  -11.9871   22.4819 H   0  0  0  0  0  0
  -21.1070  -13.1217   22.2635 H   0  0  0  0  0  0
  -24.6411  -15.8442   20.5115 H   0  0  0  0  0  0
  -26.2535  -15.6329   20.0551 H   0  0  0  0  0  0
  -26.7233  -32.5366   23.1055 H   0  0  0  0  0  0
  -25.0069  -33.9659   25.0364 H   0  0  0  0  0  0
  -22.7343  -31.2957   21.3912 H   0  0  0  0  0  0
  -23.3756  -35.9599   23.3293 H   0  0  0  0  0  0
  -24.3580  -36.8915   22.2057 H   0  0  0  0  0  0
  -23.7242  -37.6461   23.6681 H   0  0  0  0  0  0
  -26.1327  -31.5022   20.6141 H   0  0  0  0  0  0
  -26.8605  -30.7968   22.0239 H   0  0  0  0  0  0
  -28.1210  -28.8557   21.2444 H   0  0  0  0  0  0
  -25.9807  -25.9107   18.9434 H   0  0  0  0  0  0
  -23.9861  -27.3263   18.9541 H   0  0  0  0  0  0
  -23.7905  -30.5843   19.4022 H   0  0  0  0  0  0
  -22.7750  -29.2465   19.8476 H   0  0  0  0  0  0
  -25.1301  -36.1893   25.0811 H   0  0  0  0  0  0
  -20.9992  -28.3289   24.1373 H   0  0  0  0  0  0
  -20.5682  -26.2317   23.3613 H   0  0  0  0  0  0
  -21.6654  -26.7430   22.1202 H   0  0  0  0  0  0
  -19.6921  -25.6286   21.1247 H   0  0  0  0  0  0
  -19.6695  -27.3175   20.6725 H   0  0  0  0  0  0
  -17.4209  -26.6665   21.4025 H   0  0  0  0  0  0
  -18.0342  -26.0072   22.9018 H   0  0  0  0  0  0
  -19.7953  -30.7274   24.2245 H   0  0  0  0  0  0
  -17.5031  -31.6264   24.5164 H   0  0  0  0  0  0
  -15.5362  -30.2979   23.7664 H   0  0  0  0  0  0
  -15.8687  -28.0815   22.7073 H   0  0  0  0  0  0
  -24.5901  -30.7083   25.7749 H   0  0  0  0  0  0
  -24.8896  -32.2908   26.4819 H   0  0  0  0  0  0
  -25.8010  -30.8933   27.0233 H   0  0  0  0  0  0
  -26.2984  -29.6704   24.1267 H   0  0  0  0  0  0
  -27.4027  -29.7266   25.4804 H   0  0  0  0  0  0
  -27.8877  -30.4235   23.9543 H   0  0  0  0  0  0
  -27.2674  -33.3646   26.2033 H   0  0  0  0  0  0
  -28.3893  -32.6852   25.0341 H   0  0  0  0  0  0
  -28.0708  -31.8478   26.5452 H   0  0  0  0  0  0
  -28.2585  -38.0096   24.7523 H   0  0  0  0  0  0
  -28.1088  -36.2624   24.6281 H   0  0  0  0  0  0
  -27.2296  -37.1428   25.8868 H   0  0  0  0  0  0
  -20.9436  -29.8774   21.6840 H   0  0  0  0  0  0
  -26.0162  -38.2828   24.1419 H   0  0  0  0  0  0
  -30.2765  -20.4562   19.0750 H   0  0  0  0  0  0
  -31.4987  -17.3503   19.6675 H   0  0  0  0  0  0
  -30.1706  -17.1130   18.5517 H   0  0  0  0  0  0
  -28.0164  -16.2381   21.3387 H   0  0  0  0  0  0
  -29.3836  -16.4544   22.4321 H   0  0  0  0  0  0
  -26.6716  -23.7547   22.0446 H   0  0  0  0  0  0
  -26.0468  -24.3251   20.5208 H   0  0  0  0  0  0
  -26.2708  -25.4361   21.8792 H   0  0  0  0  0  0
  -29.0017  -24.2790   22.7900 H   0  0  0  0  0  0
  -28.6600  -25.9983   22.6633 H   0  0  0  0  0  0
  -30.0497  -25.3126   21.8312 H   0  0  0  0  0  0
  -29.7566  -23.5789   19.9223 H   0  0  0  0  0  0
  -28.1878  -23.3161   19.2209 H   0  0  0  0  0  0
  -27.9817  -22.3176   21.8196 H   0  0  0  0  0  0
  1 25  1  0  0  0
  1 30  2  0  0  0
  1 81  1  0  0  0
  2  3  1  0  0  0
  2 25  1  0  0  0
  2 84  1  0  0  0
  2 85  1  0  0  0
  3  4  1  0  0  0
  3 86  1  0  0  0
  3 87  1  0  0  0
  4  5  1  0  0  0
  4 88  1  0  0  0
  4 89  1  0  0  0
  5  6  1  0  0  0
  5 26  1  0  0  0
  5 90  1  0  0  0
  6 25  1  0  0  0
  6 91  1  0  0  0
  6 92  1  0  0  0
  7  8  2  0  0  0
  7 26  1  0  0  0
  7 29  1  0  0  0
  8  9  1  0  0  0
  8 22  1  0  0  0
  9 10  1  0  0  0
  9 27  2  0  0  0
 10 11  2  0  0  0
 10 15  1  0  0  0
 11 12  1  0  0  0
 11 93  1  0  0  0
 12 13  2  0  0  0
 12 94  1  0  0  0
 13 14  1  0  0  0
 13 31  1  0  0  0
 14 15  2  0  0  0
 14 95  1  0  0  0
 15 96  1  0  0  0
 16 17  2  0  0  0
 16 21  1  0  0  0
 16 31  1  0  0  0
 17 18  1  0  0  0
 17 97  1  0  0  0
 18 19  2  0  0  0
 18 98  1  0  0  0
 19 20  1  0  0  0
 19 24  1  0  0  0
 20 21  2  0  0  0
 20 99  1  0  0  0
 21 23  1  0  0  0
 22 28  1  0  0  0
 22 32  2  0  0  0
 26 27  1  0  0  0
 28100  1  0  0  0
 28101  1  0  0  0
 29102  1  0  0  0
 29103  1  0  0  0
 33 34  1  0  0  0
 33 66  1  0  0  0
 33 70  2  0  0  0
 34 36  1  0  0  0
 34 59  1  0  0  0
 34104  1  0  0  0
 35 44  2  0  0  0
 35 45  1  0  0  0
 35 68  1  0  0  0
 36 56  1  0  0  0
 36105  1  0  0  0
 37 39  1  0  0  0
 37 47  1  0  0  0
 37 66  1  0  0  0
 37106  1  0  0  0
 38 43  2  0  0  0
 38 46  1  0  0  0
 38 47  1  0  0  0
 39 64  1  0  0  0
 39 67  2  0  0  0
 40 52  1  0  0  0
 40 53  2  0  0  0
 40 58  1  0  0  0
 41107  1  0  0  0
 41108  1  0  0  0
 41109  1  0  0  0
 41 48  1  0  0  0
 42 43  1  0  0  0
 42 66  1  0  0  0
 42110  1  0  0  0
 42111  1  0  0  0
 43 44  1  0  0  0
 44112  1  0  0  0
 45 46  2  0  0  0
 45113  1  0  0  0
 46114  1  0  0  0
 47115  1  0  0  0
 47116  1  0  0  0
 48 56  1  0  0  0
 48 65  1  0  0  0
 48117  1  0  0  0
 49 50  1  0  0  0
 49 53  1  0  0  0
 49 64  1  0  0  0
 49118  1  0  0  0
 50 51  1  0  0  0
 50119  1  0  0  0
 50120  1  0  0  0
 51 52  1  0  0  0
 51121  1  0  0  0
 51122  1  0  0  0
 52123  1  0  0  0
 52124  1  0  0  0
 53 54  1  0  0  0
 54 55  2  0  0  0
 54125  1  0  0  0
 55 57  1  0  0  0
 55126  1  0  0  0
 56 69  2  0  0  0
 57 58  2  0  0  0
 57127  1  0  0  0
 58128  1  0  0  0
 59 60  1  0  0  0
 59 61  1  0  0  0
 59 62  1  0  0  0
 60129  1  0  0  0
 60130  1  0  0  0
 60131  1  0  0  0
 61132  1  0  0  0
 61133  1  0  0  0
 61134  1  0  0  0
 62135  1  0  0  0
 62136  1  0  0  0
 62137  1  0  0  0
 63 65  1  0  0  0
 63138  1  0  0  0
 63139  1  0  0  0
 63140  1  0  0  0
 64141  1  0  0  0
 65142  1  0  0  0
 68 80  1  0  0  0
 71 72  1  0  0  0
 71 74  2  0  0  0
 71143  1  0  0  0
 72 73  2  0  0  0
 72 75  1  0  0  0
 73 76  1  0  0  0
 73 83  1  0  0  0
 74 82  1  0  0  0
 74 83  1  0  0  0
 75 81  1  0  0  0
 75144  1  0  0  0
 75145  1  0  0  0
 76 81  1  0  0  0
 76146  1  0  0  0
 76147  1  0  0  0
 77148  1  0  0  0
 77149  1  0  0  0
 77150  1  0  0  0
 77 80  1  0  0  0
 78 80  1  0  0  0
 78151  1  0  0  0
 78152  1  0  0  0
 78153  1  0  0  0
 79 80  1  0  0  0
 79 82  1  0  0  0
 79154  1  0  0  0
 79155  1  0  0  0
 82156  1  0  0  0
M  ISO  4   1 100  68 101  80 101  81 100
M  END
> <chiral flag>
0

> <version>
0

> <s_m_source_file>
/data/baiqing/PycharmProjects/Reinvent-master-3.2/result/LINK_invent/BTK/process_docking_weight1_custom_product_contain_oxygen_bond_distance_aromatic_linkinvent_7_9_3/rearranged_h_0155.sdf

> <i_m_source_file_index>
8

> <r_mmod_Potential_Energy-OPLS-2005>
434.578765869141

> <r_mmod_Stretch_Energy-OPLS-2005>
164.740585327148

> <r_mmod_Bend_Energy-OPLS-2005>
297.587677001953

> <r_mmod_Torsional_Energy-OPLS-2005>
285.210388183594

> <r_mmod_Improper_Torsional_Energy-OPLS-2005>
15.3713817596436

> <r_mmod_Van_der_Waal_Energy-OPLS-2005>
113.34593963623

> <r_mmod_Electrostatic_Energy-OPLS-2005>
-364.231964111328

> <r_mmod_Solvation_Energy-OPLS-2005>
-202.840667724609

> <b_mmod_Minimization_Converged-OPLS-2005>
0

> <r_mmod_RMS_Derivative-OPLS-2005>
0.703089892864227

$$$$
8
                    3D
 Structure written by MMmdl.
165174  0  0  1  0            999 V2000
  -30.6986  -14.5204   20.5579 C   0  0  0  0  0  0
  -30.4392  -12.3313   19.4430 C   0  0  0  0  0  0
  -29.5123  -12.4960   18.2188 C   0  0  0  0  0  0
  -28.0344  -12.3519   18.6259 C   0  0  0  0  0  0
  -27.6654  -13.1887   19.8779 C   0  0  2  0  0  0
  -28.7121  -13.0142   21.0035 C   0  0  0  0  0  0
  -25.2614  -13.8101   20.5664 C   0  0  0  0  0  0
  -24.1862  -13.0404   20.9150 C   0  0  0  0  0  0
  -24.6398  -11.6871   20.8740 C   0  0  0  0  0  0
  -23.9050  -10.4275   21.0419 C   0  0  0  0  0  0
  -24.3607   -9.4203   21.9186 C   0  0  0  0  0  0
  -23.6271   -8.2249   22.0734 C   0  0  0  0  0  0
  -22.4258   -8.0303   21.3532 C   0  0  0  0  0  0
  -21.9887   -9.0273   20.4639 C   0  0  0  0  0  0
  -22.7227  -10.2144   20.3059 C   0  0  0  0  0  0
  -21.6860   -6.0727   22.5259 C   0  0  0  0  0  0
  -21.4017   -6.5613   23.8200 C   0  0  0  0  0  0
  -21.3647   -5.6774   24.9145 C   0  0  0  0  0  0
  -21.6041   -4.3034   24.7196 C   0  0  0  0  0  0
  -21.8838   -3.8126   23.4323 C   0  0  0  0  0  0
  -21.9184   -4.6945   22.3383 C   0  0  0  0  0  0
  -22.7890  -13.5228   21.1812 C   0  0  0  0  0  0
  -22.1663   -4.2135   21.0952 F   0  0  0  0  0  0
  -21.5609   -3.4507   25.7707 F   0  0  0  0  0  0
  -30.0420  -13.3281   20.4529 N   0  0  0  0  0  0
  -26.3048  -12.9242   20.3366 N   0  0  0  0  0  0
  -25.9328  -11.6421   20.5781 N   0  0  0  0  0  0
  -22.0503  -12.8268   22.0400 N   0  0  0  0  0  0
  -25.4339  -15.1824   20.4122 N   0  0  0  0  0  0
  -31.8186  -14.7095   20.0784 O   0  0  0  0  0  0
  -21.6634   -6.8893   21.4243 O   0  0  0  0  0  0
  -22.3614  -14.5537   20.6650 O   0  0  0  0  0  0
  -24.6214  -31.8658   23.2109 C   0  0  0  0  0  0
  -25.9081  -32.4812   23.8420 C   0  0  1  0  0  0
  -27.2393  -27.4036   20.0711 C   0  0  0  0  0  0
  -25.5905  -33.8606   24.2347 N   0  0  0  0  0  0
  -23.4092  -30.4931   21.5529 C   0  0  2  0  0  0
  -24.8519  -28.9597   20.1148 C   0  0  0  0  0  0
  -22.7440  -29.4648   22.4976 C   0  0  0  0  0  0
  -18.0285  -28.1380   22.8482 C   0  0  0  0  0  0
  -24.1474  -36.7305   23.2636 C   0  0  0  0  0  0
  -25.9457  -30.8175   21.3723 C   0  0  0  0  0  0
  -26.0174  -29.4518   20.7135 C   0  0  0  0  0  0
  -27.2071  -28.6804   20.6922 C   0  0  0  0  0  0
  -26.0439  -26.9468   19.4564 C   0  0  0  0  0  0
  -24.8623  -27.7073   19.4861 C   0  0  0  0  0  0
  -23.6183  -29.8314   20.1665 C   0  0  0  0  0  0
  -25.4084  -36.3102   24.0351 C   0  0  1  0  0  0
  -20.5874  -28.3670   23.1292 C   0  0  2  0  0  0
  -20.6760  -26.9402   22.5399 C   0  0  0  0  0  0
  -19.5736  -26.6378   21.5191 C   0  0  0  0  0  0
  -18.1920  -26.7931   22.1610 C   0  0  0  0  0  0
  -19.1535  -28.8842   23.2888 C   0  0  0  0  0  0
  -18.9467  -30.1431   23.8930 C   0  0  0  0  0  0
  -17.6464  -30.6577   24.0563 C   0  0  0  0  0  0
  -25.9015  -34.9466   23.5143 C   0  0  0  0  0  0
  -16.5353  -29.9073   23.6311 C   0  0  0  0  0  0
  -16.7269  -28.6479   23.0353 C   0  0  0  0  0  0
  -26.4483  -31.6601   25.0768 C   0  0  0  0  0  0
  -25.3755  -31.3730   26.1536 C   0  0  0  0  0  0
  -27.0306  -30.3041   24.6163 C   0  0  0  0  0  0
  -27.6085  -32.4316   25.7480 C   0  0  0  0  0  0
  -27.5574  -37.1795   24.8456 C   0  0  0  0  0  0
  -21.4167  -29.3031   22.3707 N   0  0  0  0  0  0
  -26.4266  -37.3794   23.9430 N   0  0  0  0  0  0
  -24.6774  -31.0739   22.1024 N   0  0  0  0  0  0
  -23.4189  -28.8162   23.3015 O   0  0  0  0  0  0
  -28.4281  -26.6749   20.0959 O   0  0  0  0  0  0
  -26.5580  -34.8923   22.4708 O   0  0  0  0  0  0
  -23.5400  -32.1412   23.7486 O   0  0  0  0  0  0
  -29.2442  -19.3316   19.3262 C   0  0  0  0  0  0
  -30.6611  -17.9353   20.7595 C   0  0  0  0  0  0
  -28.6620  -17.0098   19.7197 C   0  0  0  0  0  0
  -30.3581  -19.2018   20.1790 C   0  0  0  0  0  0
  -28.3811  -18.2474   19.1120 C   0  0  0  0  0  0
  -29.8115  -16.8161   20.5212 C   0  0  0  0  0  0
  -31.1878  -20.4055   20.3827 C   0  0  0  0  0  0
  -30.7297  -24.0483   19.9885 C   0  0  0  0  0  0
  -28.5429  -22.9094   20.3940 C   0  0  0  0  0  0
  -31.4420  -22.9064   20.7652 C   0  0  0  0  0  0
  -29.2746  -21.8183   21.1990 C   0  0  0  0  0  0
  -29.2618  -24.2812   20.4270 C   0  0  0  0  0  0
  -28.4957  -25.3294   19.5523 C   0  0  0  0  0  0
  -30.6680  -21.6314   20.7124 N   0  0  0  0  0  0
  -27.2534  -18.4119   18.3105 N   0  0  0  0  0  0
  -30.0039  -15.5269   21.1275 N   0  0  0  0  0  0
  -32.4963  -20.2787   20.1761 N   0  3  0  0  0  0
  -29.2469  -24.7061   21.6930 F   0  0  0  0  0  0
  -31.4836  -12.4316   19.1424 H   0  0  0  0  0  0
  -30.3519  -11.3293   19.8644 H   0  0  0  0  0  0
  -29.7604  -11.7569   17.4556 H   0  0  0  0  0  0
  -29.6855  -13.4695   17.7592 H   0  0  0  0  0  0
  -27.8435  -11.2958   18.8160 H   0  0  0  0  0  0
  -27.3966  -12.6306   17.7876 H   0  0  0  0  0  0
  -27.6896  -14.2180   19.5560 H   0  0  0  0  0  0
  -28.6992  -11.9875   21.3701 H   0  0  0  0  0  0
  -28.4678  -13.6343   21.8683 H   0  0  0  0  0  0
  -25.2754   -9.5625   22.4770 H   0  0  0  0  0  0
  -23.9943   -7.4616   22.7436 H   0  0  0  0  0  0
  -21.0799   -8.8822   19.8949 H   0  0  0  0  0  0
  -22.3705  -10.9688   19.6164 H   0  0  0  0  0  0
  -21.2054   -7.6138   23.9696 H   0  0  0  0  0  0
  -21.1433   -6.0496   25.9050 H   0  0  0  0  0  0
  -22.0641   -2.7585   23.2839 H   0  0  0  0  0  0
  -22.4056  -11.9919   22.4813 H   0  0  0  0  0  0
  -21.1138  -13.1378   22.2578 H   0  0  0  0  0  0
  -24.6747  -15.8464   20.5358 H   0  0  0  0  0  0
  -26.2826  -15.6248   20.0960 H   0  0  0  0  0  0
  -26.7163  -32.5511   23.1188 H   0  0  0  0  0  0
  -25.0081  -33.9754   25.0515 H   0  0  0  0  0  0
  -22.7000  -31.3127   21.4159 H   0  0  0  0  0  0
  -23.3735  -35.9635   23.3284 H   0  0  0  0  0  0
  -24.3580  -36.8929   22.2052 H   0  0  0  0  0  0
  -23.7220  -37.6506   23.6659 H   0  0  0  0  0  0
  -26.0715  -31.5840   20.6065 H   0  0  0  0  0  0
  -26.8298  -30.8656   21.9955 H   0  0  0  0  0  0
  -28.1081  -29.0606   21.1535 H   0  0  0  0  0  0
  -25.9650  -26.0169   18.9178 H   0  0  0  0  0  0
  -23.9689  -27.3303   19.0058 H   0  0  0  0  0  0
  -23.7313  -30.6086   19.4105 H   0  0  0  0  0  0
  -22.7404  -29.2586   19.8655 H   0  0  0  0  0  0
  -25.1250  -36.1963   25.0842 H   0  0  0  0  0  0
  -20.9975  -28.3242   24.1406 H   0  0  0  0  0  0
  -20.5605  -26.2298   23.3594 H   0  0  0  0  0  0
  -21.6645  -26.7390   22.1239 H   0  0  0  0  0  0
  -19.6888  -25.6286   21.1212 H   0  0  0  0  0  0
  -19.6662  -27.3183   20.6714 H   0  0  0  0  0  0
  -17.4185  -26.6688   21.4016 H   0  0  0  0  0  0
  -18.0304  -26.0055   22.8979 H   0  0  0  0  0  0
  -19.7939  -30.7228   24.2343 H   0  0  0  0  0  0
  -17.5013  -31.6268   24.5144 H   0  0  0  0  0  0
  -15.5353  -30.2982   23.7602 H   0  0  0  0  0  0
  -15.8670  -28.0772   22.7096 H   0  0  0  0  0  0
  -24.5911  -30.7079   25.7900 H   0  0  0  0  0  0
  -24.8974  -32.2904   26.4990 H   0  0  0  0  0  0
  -25.8129  -30.8908   27.0291 H   0  0  0  0  0  0
  -26.2852  -29.6793   24.1237 H   0  0  0  0  0  0
  -27.4089  -29.7285   25.4617 H   0  0  0  0  0  0
  -27.8681  -30.4352   23.9310 H   0  0  0  0  0  0
  -27.2744  -33.3610   26.2099 H   0  0  0  0  0  0
  -28.3838  -32.6887   25.0250 H   0  0  0  0  0  0
  -28.0819  -31.8430   26.5348 H   0  0  0  0  0  0
  -28.2596  -38.0090   24.7530 H   0  0  0  0  0  0
  -28.1074  -36.2641   24.6226 H   0  0  0  0  0  0
  -27.2336  -37.1382   25.8871 H   0  0  0  0  0  0
  -20.9336  -29.8811   21.6975 H   0  0  0  0  0  0
  -26.0158  -38.2868   24.1461 H   0  0  0  0  0  0
  -29.0432  -20.2849   18.8563 H   0  0  0  0  0  0
  -31.5265  -17.8320   21.4003 H   0  0  0  0  0  0
  -27.9719  -16.2072   19.5540 H   0  0  0  0  0  0
  -30.7649  -23.8147   18.9238 H   0  0  0  0  0  0
  -31.2961  -24.9727   20.1082 H   0  0  0  0  0  0
  -27.5352  -23.0210   20.7936 H   0  0  0  0  0  0
  -28.4175  -22.5765   19.3632 H   0  0  0  0  0  0
  -31.5634  -23.1991   21.8103 H   0  0  0  0  0  0
  -32.4518  -22.7911   20.3682 H   0  0  0  0  0  0
  -28.6835  -20.9035   21.1933 H   0  0  0  0  0  0
  -29.3156  -22.1115   22.2494 H   0  0  0  0  0  0
  -27.5171  -24.8933   19.3923 H   0  0  0  0  0  0
  -28.9419  -25.3861   18.5581 H   0  0  0  0  0  0
  -27.1933  -19.2311   17.7125 H   0  0  0  0  0  0
  -26.8004  -17.5980   17.9068 H   0  0  0  0  0  0
  -29.1905  -15.1735   21.6043 H   0  0  0  0  0  0
  -32.8470  -19.3927   19.8373 H   0  0  0  0  0  0
  -33.1464  -21.0351   20.3018 H   0  0  0  0  0  0
  1 25  1  0  0  0
  1 30  2  0  0  0
  1 86  1  0  0  0
  2  3  1  0  0  0
  2 25  1  0  0  0
  2 89  1  0  0  0
  2 90  1  0  0  0
  3  4  1  0  0  0
  3 91  1  0  0  0
  3 92  1  0  0  0
  4  5  1  0  0  0
  4 93  1  0  0  0
  4 94  1  0  0  0
  5  6  1  0  0  0
  5 26  1  0  0  0
  5 95  1  0  0  0
  6 25  1  0  0  0
  6 96  1  0  0  0
  6 97  1  0  0  0
  7  8  2  0  0  0
  7 26  1  0  0  0
  7 29  1  0  0  0
  8  9  1  0  0  0
  8 22  1  0  0  0
  9 10  1  0  0  0
  9 27  2  0  0  0
 10 11  2  0  0  0
 10 15  1  0  0  0
 11 12  1  0  0  0
 11 98  1  0  0  0
 12 13  2  0  0  0
 12 99  1  0  0  0
 13 14  1  0  0  0
 13 31  1  0  0  0
 14 15  2  0  0  0
 14100  1  0  0  0
 15101  1  0  0  0
 16 17  2  0  0  0
 16 21  1  0  0  0
 16 31  1  0  0  0
 17 18  1  0  0  0
 17102  1  0  0  0
 18 19  2  0  0  0
 18103  1  0  0  0
 19 20  1  0  0  0
 19 24  1  0  0  0
 20 21  2  0  0  0
 20104  1  0  0  0
 21 23  1  0  0  0
 22 28  1  0  0  0
 22 32  2  0  0  0
 26 27  1  0  0  0
 28105  1  0  0  0
 28106  1  0  0  0
 29107  1  0  0  0
 29108  1  0  0  0
 33 34  1  0  0  0
 33 66  1  0  0  0
 33 70  2  0  0  0
 34 36  1  0  0  0
 34 59  1  0  0  0
 34109  1  0  0  0
 35 44  2  0  0  0
 35 45  1  0  0  0
 35 68  1  0  0  0
 36 56  1  0  0  0
 36110  1  0  0  0
 37 39  1  0  0  0
 37 47  1  0  0  0
 37 66  1  0  0  0
 37111  1  0  0  0
 38 43  2  0  0  0
 38 46  1  0  0  0
 38 47  1  0  0  0
 39 64  1  0  0  0
 39 67  2  0  0  0
 40 52  1  0  0  0
 40 53  2  0  0  0
 40 58  1  0  0  0
 41112  1  0  0  0
 41113  1  0  0  0
 41114  1  0  0  0
 41 48  1  0  0  0
 42 43  1  0  0  0
 42 66  1  0  0  0
 42115  1  0  0  0
 42116  1  0  0  0
 43 44  1  0  0  0
 44117  1  0  0  0
 45 46  2  0  0  0
 45118  1  0  0  0
 46119  1  0  0  0
 47120  1  0  0  0
 47121  1  0  0  0
 48 56  1  0  0  0
 48 65  1  0  0  0
 48122  1  0  0  0
 49 50  1  0  0  0
 49 53  1  0  0  0
 49 64  1  0  0  0
 49123  1  0  0  0
 50 51  1  0  0  0
 50124  1  0  0  0
 50125  1  0  0  0
 51 52  1  0  0  0
 51126  1  0  0  0
 51127  1  0  0  0
 52128  1  0  0  0
 52129  1  0  0  0
 53 54  1  0  0  0
 54 55  2  0  0  0
 54130  1  0  0  0
 55 57  1  0  0  0
 55131  1  0  0  0
 56 69  2  0  0  0
 57 58  2  0  0  0
 57132  1  0  0  0
 58133  1  0  0  0
 59 60  1  0  0  0
 59 61  1  0  0  0
 59 62  1  0  0  0
 60134  1  0  0  0
 60135  1  0  0  0
 60136  1  0  0  0
 61137  1  0  0  0
 61138  1  0  0  0
 61139  1  0  0  0
 62140  1  0  0  0
 62141  1  0  0  0
 62142  1  0  0  0
 63 65  1  0  0  0
 63143  1  0  0  0
 63144  1  0  0  0
 63145  1  0  0  0
 64146  1  0  0  0
 65147  1  0  0  0
 68 83  1  0  0  0
 71 74  2  0  0  0
 71 75  1  0  0  0
 71148  1  0  0  0
 72 74  1  0  0  0
 72 76  2  0  0  0
 72149  1  0  0  0
 73 75  2  0  0  0
 73 76  1  0  0  0
 73150  1  0  0  0
 74 77  1  0  0  0
 75 85  1  0  0  0
 76 86  1  0  0  0
 77 84  1  0  0  0
 77 87  2  0  0  0
 78 80  1  0  0  0
 78 82  1  0  0  0
 78151  1  0  0  0
 78152  1  0  0  0
 79 81  1  0  0  0
 79 82  1  0  0  0
 79153  1  0  0  0
 79154  1  0  0  0
 80 84  1  0  0  0
 80155  1  0  0  0
 80156  1  0  0  0
 81 84  1  0  0  0
 81157  1  0  0  0
 81158  1  0  0  0
 82 83  1  0  0  0
 82 88  1  0  0  0
 83159  1  0  0  0
 83160  1  0  0  0
 85161  1  0  0  0
 85162  1  0  0  0
 86163  1  0  0  0
 87164  1  0  0  0
 87165  1  0  0  0
M  CHG  1  87   1
M  ISO  4   1 100  68 101  83 101  86 100
M  END
> <chiral flag>
0

> <version>
0

> <s_m_source_file>
/data/baiqing/PycharmProjects/Reinvent-master-3.2/result/LINK_invent/BTK/process_docking_weight1_custom_product_contain_oxygen_bond_distance_aromatic_linkinvent_7_9_3/rearranged_h_0155.sdf

> <i_m_source_file_index>
9

> <r_mmod_Potential_Energy-OPLS-2005>
-161.798110961914

> <r_mmod_Stretch_Energy-OPLS-2005>
49.2571182250977

> <r_mmod_Bend_Energy-OPLS-2005>
126.830642700195

> <r_mmod_Torsional_Energy-OPLS-2005>
293.174682617188

> <r_mmod_Improper_Torsional_Energy-OPLS-2005>
9.24878120422363

> <r_mmod_Van_der_Waal_Energy-OPLS-2005>
167.879028320312

> <r_mmod_Electrostatic_Energy-OPLS-2005>
-412.800842285156

> <r_mmod_Solvation_Energy-OPLS-2005>
-414.228942871094

> <b_mmod_Minimization_Converged-OPLS-2005>
0

> <r_mmod_RMS_Derivative-OPLS-2005>
4.03902244567871

$$$$
9
                    3D
 Structure written by MMmdl.
151159  0  0  1  0            999 V2000
  -30.6227  -14.7432   20.4721 C   0  0  0  0  0  0
  -30.4299  -12.4569   19.4775 C   0  0  0  0  0  0
  -29.5111  -12.5113   18.2374 C   0  0  0  0  0  0
  -28.0357  -12.3360   18.6470 C   0  0  0  0  0  0
  -27.6403  -13.2336   19.8506 C   0  0  2  0  0  0
  -28.6842  -13.1705   20.9876 C   0  0  0  0  0  0
  -25.2482  -13.8183   20.5668 C   0  0  0  0  0  0
  -24.1789  -13.0433   20.9226 C   0  0  0  0  0  0
  -24.6376  -11.6914   20.8747 C   0  0  0  0  0  0
  -23.9049  -10.4293   21.0405 C   0  0  0  0  0  0
  -24.3604   -9.4210   21.9178 C   0  0  0  0  0  0
  -23.6292   -8.2238   22.0742 C   0  0  0  0  0  0
  -22.4276   -8.0266   21.3534 C   0  0  0  0  0  0
  -21.9904   -9.0236   20.4634 C   0  0  0  0  0  0
  -22.7221  -10.2128   20.3049 C   0  0  0  0  0  0
  -21.6856   -6.0722   22.5275 C   0  0  0  0  0  0
  -21.4008   -6.5630   23.8207 C   0  0  0  0  0  0
  -21.3666   -5.6787   24.9171 C   0  0  0  0  0  0
  -21.6048   -4.3047   24.7224 C   0  0  0  0  0  0
  -21.8823   -3.8133   23.4347 C   0  0  0  0  0  0
  -21.9192   -4.6946   22.3401 C   0  0  0  0  0  0
  -22.7809  -13.5211   21.1889 C   0  0  0  0  0  0
  -22.1666   -4.2135   21.0978 F   0  0  0  0  0  0
  -21.5636   -3.4529   25.7738 F   0  0  0  0  0  0
  -29.9864  -13.5222   20.4079 N   0  0  0  0  0  0
  -26.2916  -12.9400   20.3258 N   0  0  0  0  0  0
  -25.9309  -11.6541   20.5741 N   0  0  0  0  0  0
  -22.0464  -12.8194   22.0444 N   0  0  0  0  0  0
  -25.4149  -15.1890   20.3988 N   0  0  0  0  0  0
  -31.8082  -14.8308   20.1430 O   0  0  0  0  0  0
  -21.6645   -6.8860   21.4235 O   0  0  0  0  0  0
  -22.3493  -14.5513   20.6728 O   0  0  0  0  0  0
  -24.6331  -31.8541   23.1983 C   0  0  0  0  0  0
  -25.9152  -32.4757   23.8325 C   0  0  1  0  0  0
  -27.2152  -27.2422   20.1225 C   0  0  0  0  0  0
  -25.5943  -33.8552   24.2248 N   0  0  0  0  0  0
  -23.4310  -30.4787   21.5425 C   0  0  2  0  0  0
  -24.8770  -28.9298   20.1078 C   0  0  0  0  0  0
  -22.7522  -29.4598   22.4902 C   0  0  0  0  0  0
  -18.0298  -28.1395   22.8495 C   0  0  0  0  0  0
  -24.1489  -36.7275   23.2639 C   0  0  0  0  0  0
  -25.9804  -30.7610   21.3823 C   0  0  0  0  0  0
  -26.0509  -29.3830   20.7221 C   0  0  0  0  0  0
  -27.2206  -28.5516   20.7216 C   0  0  0  0  0  0
  -26.0133  -26.8737   19.4702 C   0  0  0  0  0  0
  -24.8653  -27.6841   19.4696 C   0  0  0  0  0  0
  -23.6500  -29.8179   20.1568 C   0  0  0  0  0  0
  -25.4117  -36.3072   24.0331 C   0  0  1  0  0  0
  -20.5911  -28.3705   23.1272 C   0  0  2  0  0  0
  -20.6790  -26.9422   22.5410 C   0  0  0  0  0  0
  -19.5758  -26.6392   21.5222 C   0  0  0  0  0  0
  -18.1941  -26.7939   22.1633 C   0  0  0  0  0  0
  -19.1555  -28.8866   23.2879 C   0  0  0  0  0  0
  -18.9472  -30.1470   23.8895 C   0  0  0  0  0  0
  -17.6470  -30.6594   24.0565 C   0  0  0  0  0  0
  -25.9067  -34.9441   23.5095 C   0  0  0  0  0  0
  -16.5363  -29.9096   23.6332 C   0  0  0  0  0  0
  -16.7285  -28.6513   23.0358 C   0  0  0  0  0  0
  -26.4502  -31.6589   25.0720 C   0  0  0  0  0  0
  -25.3708  -31.3747   26.1433 C   0  0  0  0  0  0
  -27.0345  -30.3005   24.6213 C   0  0  0  0  0  0
  -27.6060  -32.4328   25.7481 C   0  0  0  0  0  0
  -27.5580  -37.1791   24.8467 C   0  0  0  0  0  0
  -21.4224  -29.3044   22.3657 N   0  0  0  0  0  0
  -26.4287  -37.3778   23.9422 N   0  0  0  0  0  0
  -24.7011  -31.0498   22.0971 N   0  0  0  0  0  0
  -23.4218  -28.8131   23.3002 O   0  0  0  0  0  0
  -28.3022  -26.3246   20.1994 O   0  0  0  0  0  0
  -26.5633  -34.8923   22.4663 O   0  0  0  0  0  0
  -23.5484  -32.1361   23.7280 O   0  0  0  0  0  0
  -27.9681  -18.3647   20.2854 C   0  0  0  0  0  0
  -29.3121  -18.5389   20.4925 C   0  0  0  0  0  0
  -28.5590  -20.8074   20.3088 C   0  0  0  0  0  0
  -28.3216  -24.7832   18.3042 C   0  0  0  0  0  0
  -30.3433  -17.3484   20.6433 C   0  0  0  0  0  0
  -28.9547  -23.6317   20.4906 C   0  0  0  0  0  0
  -28.1191  -24.8665   19.8291 C   0  0  1  0  0  0
  -29.6220  -19.9646   20.5254 N   0  0  0  0  0  0
  -28.3980  -22.2454   20.2225 N   0  0  0  0  0  0
  -29.8789  -15.8894   20.7093 N   0  0  0  0  0  0
  -27.0875  -19.8647   20.0803 S   0  0  0  0  0  0
  -31.4721  -12.5767   19.1774 H   0  0  0  0  0  0
  -30.3690  -11.4803   19.9604 H   0  0  0  0  0  0
  -29.7962  -11.7388   17.5218 H   0  0  0  0  0  0
  -29.6399  -13.4665   17.7260 H   0  0  0  0  0  0
  -27.8884  -11.2864   18.9049 H   0  0  0  0  0  0
  -27.3809  -12.5332   17.7973 H   0  0  0  0  0  0
  -27.6351  -14.2566   19.4729 H   0  0  0  0  0  0
  -28.7187  -12.1736   21.4295 H   0  0  0  0  0  0
  -28.4169  -13.8525   21.7964 H   0  0  0  0  0  0
  -25.2752   -9.5696   22.4747 H   0  0  0  0  0  0
  -24.0012   -7.4628   22.7453 H   0  0  0  0  0  0
  -21.0837   -8.8730   19.8944 H   0  0  0  0  0  0
  -22.3654  -10.9651   19.6156 H   0  0  0  0  0  0
  -21.1994   -7.6139   23.9699 H   0  0  0  0  0  0
  -21.1494   -6.0522   25.9077 H   0  0  0  0  0  0
  -22.0599   -2.7592   23.2845 H   0  0  0  0  0  0
  -22.4091  -11.9870   22.4849 H   0  0  0  0  0  0
  -21.1068  -13.1188   22.2635 H   0  0  0  0  0  0
  -24.6275  -15.8258   20.4587 H   0  0  0  0  0  0
  -26.2185  -15.5911   19.9376 H   0  0  0  0  0  0
  -26.7216  -32.5398   23.1062 H   0  0  0  0  0  0
  -25.0086  -33.9676   25.0394 H   0  0  0  0  0  0
  -22.7289  -31.3021   21.3975 H   0  0  0  0  0  0
  -23.3764  -35.9595   23.3300 H   0  0  0  0  0  0
  -24.3583  -36.8899   22.2054 H   0  0  0  0  0  0
  -23.7217  -37.6467   23.6662 H   0  0  0  0  0  0
  -26.1239  -31.5222   20.6144 H   0  0  0  0  0  0
  -26.8565  -30.8076   22.0173 H   0  0  0  0  0  0
  -28.1149  -28.8917   21.2254 H   0  0  0  0  0  0
  -25.9097  -25.9304   18.9590 H   0  0  0  0  0  0
  -23.9705  -27.3338   18.9725 H   0  0  0  0  0  0
  -23.7768  -30.5952   19.4025 H   0  0  0  0  0  0
  -22.7675  -29.2532   19.8507 H   0  0  0  0  0  0
  -25.1303  -36.1909   25.0824 H   0  0  0  0  0  0
  -21.0003  -28.3277   24.1394 H   0  0  0  0  0  0
  -20.5703  -26.2312   23.3618 H   0  0  0  0  0  0
  -21.6654  -26.7459   22.1185 H   0  0  0  0  0  0
  -19.6920  -25.6304   21.1250 H   0  0  0  0  0  0
  -19.6689  -27.3203   20.6755 H   0  0  0  0  0  0
  -17.4212  -26.6696   21.4033 H   0  0  0  0  0  0
  -18.0333  -26.0080   22.9026 H   0  0  0  0  0  0
  -19.7946  -30.7292   24.2259 H   0  0  0  0  0  0
  -17.5024  -31.6268   24.5173 H   0  0  0  0  0  0
  -15.5361  -30.3000   23.7652 H   0  0  0  0  0  0
  -15.8688  -28.0835   22.7072 H   0  0  0  0  0  0
  -24.5896  -30.7089   25.7756 H   0  0  0  0  0  0
  -24.8876  -32.2912   26.4825 H   0  0  0  0  0  0
  -25.8007  -30.8941   27.0228 H   0  0  0  0  0  0
  -26.2925  -29.6753   24.1227 H   0  0  0  0  0  0
  -27.4018  -29.7280   25.4738 H   0  0  0  0  0  0
  -27.8821  -30.4299   23.9477 H   0  0  0  0  0  0
  -27.2688  -33.3648   26.2034 H   0  0  0  0  0  0
  -28.3869  -32.6849   25.0295 H   0  0  0  0  0  0
  -28.0726  -31.8453   26.5401 H   0  0  0  0  0  0
  -28.2599  -38.0088   24.7538 H   0  0  0  0  0  0
  -28.1073  -36.2622   24.6269 H   0  0  0  0  0  0
  -27.2307  -37.1421   25.8871 H   0  0  0  0  0  0
  -20.9414  -29.8772   21.6862 H   0  0  0  0  0  0
  -26.0165  -38.2853   24.1429 H   0  0  0  0  0  0
  -27.4301  -17.4317   20.2197 H   0  0  0  0  0  0
  -28.0753  -23.7915   17.9230 H   0  0  0  0  0  0
  -29.3621  -24.9842   18.0476 H   0  0  0  0  0  0
  -27.7130  -25.4974   17.7544 H   0  0  0  0  0  0
  -30.9525  -17.5237   21.5311 H   0  0  0  0  0  0
  -31.0480  -17.4139   19.8129 H   0  0  0  0  0  0
  -28.9720  -23.7664   21.5729 H   0  0  0  0  0  0
  -29.9961  -23.6697   20.1677 H   0  0  0  0  0  0
  -27.0899  -24.6095   20.0755 H   0  0  0  0  0  0
  -27.4420  -22.3847   19.9119 H   0  0  0  0  0  0
  -28.9120  -15.7460   20.9529 H   0  0  0  0  0  0
  1 25  1  0  0  0
  1 30  2  0  0  0
  1 80  1  0  0  0
  2  3  1  0  0  0
  2 25  1  0  0  0
  2 82  1  0  0  0
  2 83  1  0  0  0
  3  4  1  0  0  0
  3 84  1  0  0  0
  3 85  1  0  0  0
  4  5  1  0  0  0
  4 86  1  0  0  0
  4 87  1  0  0  0
  5  6  1  0  0  0
  5 26  1  0  0  0
  5 88  1  0  0  0
  6 25  1  0  0  0
  6 89  1  0  0  0
  6 90  1  0  0  0
  7  8  2  0  0  0
  7 26  1  0  0  0
  7 29  1  0  0  0
  8  9  1  0  0  0
  8 22  1  0  0  0
  9 10  1  0  0  0
  9 27  2  0  0  0
 10 11  2  0  0  0
 10 15  1  0  0  0
 11 12  1  0  0  0
 11 91  1  0  0  0
 12 13  2  0  0  0
 12 92  1  0  0  0
 13 14  1  0  0  0
 13 31  1  0  0  0
 14 15  2  0  0  0
 14 93  1  0  0  0
 15 94  1  0  0  0
 16 17  2  0  0  0
 16 21  1  0  0  0
 16 31  1  0  0  0
 17 18  1  0  0  0
 17 95  1  0  0  0
 18 19  2  0  0  0
 18 96  1  0  0  0
 19 20  1  0  0  0
 19 24  1  0  0  0
 20 21  2  0  0  0
 20 97  1  0  0  0
 21 23  1  0  0  0
 22 28  1  0  0  0
 22 32  2  0  0  0
 26 27  1  0  0  0
 28 98  1  0  0  0
 28 99  1  0  0  0
 29100  1  0  0  0
 29101  1  0  0  0
 33 34  1  0  0  0
 33 66  1  0  0  0
 33 70  2  0  0  0
 34 36  1  0  0  0
 34 59  1  0  0  0
 34102  1  0  0  0
 35 44  2  0  0  0
 35 45  1  0  0  0
 35 68  1  0  0  0
 36 56  1  0  0  0
 36103  1  0  0  0
 37 39  1  0  0  0
 37 47  1  0  0  0
 37 66  1  0  0  0
 37104  1  0  0  0
 38 43  2  0  0  0
 38 46  1  0  0  0
 38 47  1  0  0  0
 39 64  1  0  0  0
 39 67  2  0  0  0
 40 52  1  0  0  0
 40 53  2  0  0  0
 40 58  1  0  0  0
 41105  1  0  0  0
 41106  1  0  0  0
 41107  1  0  0  0
 41 48  1  0  0  0
 42 43  1  0  0  0
 42 66  1  0  0  0
 42108  1  0  0  0
 42109  1  0  0  0
 43 44  1  0  0  0
 44110  1  0  0  0
 45 46  2  0  0  0
 45111  1  0  0  0
 46112  1  0  0  0
 47113  1  0  0  0
 47114  1  0  0  0
 48 56  1  0  0  0
 48 65  1  0  0  0
 48115  1  0  0  0
 49 50  1  0  0  0
 49 53  1  0  0  0
 49 64  1  0  0  0
 49116  1  0  0  0
 50 51  1  0  0  0
 50117  1  0  0  0
 50118  1  0  0  0
 51 52  1  0  0  0
 51119  1  0  0  0
 51120  1  0  0  0
 52121  1  0  0  0
 52122  1  0  0  0
 53 54  1  0  0  0
 54 55  2  0  0  0
 54123  1  0  0  0
 55 57  1  0  0  0
 55124  1  0  0  0
 56 69  2  0  0  0
 57 58  2  0  0  0
 57125  1  0  0  0
 58126  1  0  0  0
 59 60  1  0  0  0
 59 61  1  0  0  0
 59 62  1  0  0  0
 60127  1  0  0  0
 60128  1  0  0  0
 60129  1  0  0  0
 61130  1  0  0  0
 61131  1  0  0  0
 61132  1  0  0  0
 62133  1  0  0  0
 62134  1  0  0  0
 62135  1  0  0  0
 63 65  1  0  0  0
 63136  1  0  0  0
 63137  1  0  0  0
 63138  1  0  0  0
 64139  1  0  0  0
 65140  1  0  0  0
 68 77  1  0  0  0
 71 72  2  0  0  0
 71 81  1  0  0  0
 71141  1  0  0  0
 72 75  1  0  0  0
 72 78  1  0  0  0
 73 78  2  0  0  0
 73 79  1  0  0  0
 73 81  1  0  0  0
 74142  1  0  0  0
 74143  1  0  0  0
 74144  1  0  0  0
 74 77  1  0  0  0
 75 80  1  0  0  0
 75145  1  0  0  0
 75146  1  0  0  0
 76 77  1  0  0  0
 76 79  1  0  0  0
 76147  1  0  0  0
 76148  1  0  0  0
 77149  1  0  0  0
 79150  1  0  0  0
 80151  1  0  0  0
M  ISO  4   1 100  68 101  77 101  80 100
M  END
> <chiral flag>
0

> <version>
0

> <s_m_source_file>
/data/baiqing/PycharmProjects/Reinvent-master-3.2/result/LINK_invent/BTK/process_docking_weight1_custom_product_contain_oxygen_bond_distance_aromatic_linkinvent_7_9_3/rearranged_h_0155.sdf

> <i_m_source_file_index>
10

> <r_mmod_Potential_Energy-OPLS-2005>
-47.4104499816895

> <r_mmod_Stretch_Energy-OPLS-2005>
123.539505004883

> <r_mmod_Bend_Energy-OPLS-2005>
188.738311767578

> <r_mmod_Torsional_Energy-OPLS-2005>
191.881698608398

> <r_mmod_Improper_Torsional_Energy-OPLS-2005>
5.31645822525024

> <r_mmod_Van_der_Waal_Energy-OPLS-2005>
121.073997497559

> <r_mmod_Electrostatic_Energy-OPLS-2005>
-531.9140625

> <r_mmod_Solvation_Energy-OPLS-2005>
-237.603256225586

> <b_mmod_Minimization_Converged-OPLS-2005>
0

> <r_mmod_RMS_Derivative-OPLS-2005>
1.37101018428802

$$$$
10
                    3D
 Structure written by MMmdl.
161170  0  0  1  0            999 V2000
  -30.7390  -14.5019   20.5131 C   0  0  0  0  0  0
  -30.4153  -12.3273   19.4024 C   0  0  0  0  0  0
  -29.4770  -12.4966   18.1904 C   0  0  0  0  0  0
  -28.0040  -12.3585   18.6242 C   0  0  0  0  0  0
  -27.6582  -13.2123   19.8745 C   0  0  2  0  0  0
  -28.7203  -13.0140   20.9814 C   0  0  0  0  0  0
  -25.2599  -13.8164   20.5760 C   0  0  0  0  0  0
  -24.1854  -13.0437   20.9218 C   0  0  0  0  0  0
  -24.6419  -11.6904   20.8773 C   0  0  0  0  0  0
  -23.9088  -10.4278   21.0410 C   0  0  0  0  0  0
  -24.3626   -9.4187   21.9194 C   0  0  0  0  0  0
  -23.6294   -8.2228   22.0755 C   0  0  0  0  0  0
  -22.4279   -8.0276   21.3547 C   0  0  0  0  0  0
  -21.9921   -9.0255   20.4648 C   0  0  0  0  0  0
  -22.7259  -10.2129   20.3057 C   0  0  0  0  0  0
  -21.6849   -6.0731   22.5279 C   0  0  0  0  0  0
  -21.4003   -6.5639   23.8213 C   0  0  0  0  0  0
  -21.3656   -5.6795   24.9182 C   0  0  0  0  0  0
  -21.6047   -4.3061   24.7228 C   0  0  0  0  0  0
  -21.8820   -3.8150   23.4351 C   0  0  0  0  0  0
  -21.9186   -4.6957   22.3402 C   0  0  0  0  0  0
  -22.7866  -13.5227   21.1849 C   0  0  0  0  0  0
  -22.1663   -4.2143   21.0979 F   0  0  0  0  0  0
  -21.5625   -3.4542   25.7740 F   0  0  0  0  0  0
  -30.0212  -13.3463   20.3901 N   0  0  0  0  0  0
  -26.3047  -12.9351   20.3477 N   0  0  0  0  0  0
  -25.9361  -11.6505   20.5879 N   0  0  0  0  0  0
  -22.0511  -12.8217   22.0398 N   0  0  0  0  0  0
  -25.4311  -15.1883   20.4167 N   0  0  0  0  0  0
  -31.9471  -14.5089   20.2618 O   0  0  0  0  0  0
  -21.6644   -6.8877   21.4243 O   0  0  0  0  0  0
  -22.3557  -14.5544   20.6704 O   0  0  0  0  0  0
  -24.6170  -31.8673   23.2114 C   0  0  0  0  0  0
  -25.9048  -32.4818   23.8414 C   0  0  1  0  0  0
  -27.2223  -27.3983   20.0819 C   0  0  0  0  0  0
  -25.5880  -33.8613   24.2330 N   0  0  0  0  0  0
  -23.4048  -30.4944   21.5543 C   0  0  2  0  0  0
  -24.8478  -28.9677   20.1118 C   0  0  0  0  0  0
  -22.7430  -29.4651   22.4992 C   0  0  0  0  0  0
  -18.0274  -28.1360   22.8484 C   0  0  0  0  0  0
  -24.1495  -36.7334   23.2648 C   0  0  0  0  0  0
  -25.9412  -30.8201   21.3752 C   0  0  0  0  0  0
  -26.0148  -29.4564   20.7116 C   0  0  0  0  0  0
  -27.2058  -28.6823   20.6906 C   0  0  0  0  0  0
  -26.0263  -26.9495   19.4667 C   0  0  0  0  0  0
  -24.8512  -27.7154   19.4870 C   0  0  0  0  0  0
  -23.6118  -29.8365   20.1670 C   0  0  0  0  0  0
  -25.4117  -36.3119   24.0336 C   0  0  1  0  0  0
  -20.5870  -28.3657   23.1320 C   0  0  2  0  0  0
  -20.6771  -26.9391   22.5426 C   0  0  0  0  0  0
  -19.5753  -26.6373   21.5218 C   0  0  0  0  0  0
  -18.1931  -26.7902   22.1627 C   0  0  0  0  0  0
  -19.1525  -28.8824   23.2892 C   0  0  0  0  0  0
  -18.9450  -30.1434   23.8892 C   0  0  0  0  0  0
  -17.6450  -30.6566   24.0555 C   0  0  0  0  0  0
  -25.9041  -34.9475   23.5136 C   0  0  0  0  0  0
  -16.5340  -29.9059   23.6323 C   0  0  0  0  0  0
  -16.7264  -28.6478   23.0341 C   0  0  0  0  0  0
  -26.4480  -31.6594   25.0742 C   0  0  0  0  0  0
  -25.3744  -31.3670   26.1493 C   0  0  0  0  0  0
  -27.0329  -30.3031   24.6145 C   0  0  0  0  0  0
  -27.6053  -32.4338   25.7477 C   0  0  0  0  0  0
  -27.5585  -37.1839   24.8457 C   0  0  0  0  0  0
  -21.4161  -29.3014   22.3728 N   0  0  0  0  0  0
  -26.4310  -37.3800   23.9389 N   0  0  0  0  0  0
  -24.6721  -31.0750   22.1031 N   0  0  0  0  0  0
  -23.4193  -28.8190   23.3037 O   0  0  0  0  0  0
  -28.3789  -26.6195   20.1006 O   0  0  0  0  0  0
  -26.5621  -34.8914   22.4707 O   0  0  0  0  0  0
  -23.5349  -32.1422   23.7496 O   0  0  0  0  0  0
  -28.6670  -19.7878   18.6391 C   0  0  0  0  0  0
  -29.2946  -19.8476   19.8601 C   0  0  0  0  0  0
  -29.1463  -21.8455   19.0406 C   0  0  0  0  0  0
  -28.6289  -17.6847   21.0763 C   0  0  0  0  0  0
  -30.9876  -18.0164   20.2413 C   0  0  0  0  0  0
  -29.1362  -16.2433   21.3948 C   0  0  0  0  0  0
  -30.6158  -16.7274   19.4727 C   0  0  0  0  0  0
  -29.7396  -18.7366   20.7907 C   0  0  0  0  0  0
  -27.5864  -24.6736   21.3595 C   0  0  0  0  0  0
  -29.5513  -24.3907   19.8002 C   0  0  0  0  0  0
  -28.2304  -25.1720   20.0556 C   0  0  2  0  0  0
  -28.5924  -21.0727   18.1166 N   0  0  0  0  0  0
  -30.0574  -15.6837   20.3747 N   0  0  0  0  0  0
  -29.3334  -23.2213   18.9419 N   0  0  0  0  0  0
  -29.6140  -21.1744   20.1346 O   0  0  0  0  0  0
  -31.4551  -12.4195   19.0810 H   0  0  0  0  0  0
  -30.3235  -11.3249   19.8256 H   0  0  0  0  0  0
  -29.7095  -11.7566   17.4234 H   0  0  0  0  0  0
  -29.6305  -13.4745   17.7295 H   0  0  0  0  0  0
  -27.8268  -11.3051   18.8399 H   0  0  0  0  0  0
  -27.3373  -12.6151   17.8011 H   0  0  0  0  0  0
  -27.6907  -14.2552   19.5605 H   0  0  0  0  0  0
  -28.7239  -11.9744   21.3147 H   0  0  0  0  0  0
  -28.5136  -13.5914   21.8799 H   0  0  0  0  0  0
  -25.2754   -9.5661   22.4811 H   0  0  0  0  0  0
  -23.9983   -7.4619   22.7485 H   0  0  0  0  0  0
  -21.0842   -8.8790   19.8963 H   0  0  0  0  0  0
  -22.3717  -10.9680   19.6183 H   0  0  0  0  0  0
  -21.2006   -7.6153   23.9709 H   0  0  0  0  0  0
  -21.1475   -6.0537   25.9085 H   0  0  0  0  0  0
  -22.0604   -2.7609   23.2858 H   0  0  0  0  0  0
  -22.4120  -11.9854   22.4740 H   0  0  0  0  0  0
  -21.1143  -13.1247   22.2644 H   0  0  0  0  0  0
  -24.6691  -15.8462   20.5405 H   0  0  0  0  0  0
  -26.2942  -15.6290   20.1265 H   0  0  0  0  0  0
  -26.7105  -32.5507   23.1168 H   0  0  0  0  0  0
  -24.9975  -33.9780   25.0431 H   0  0  0  0  0  0
  -22.6928  -31.3115   21.4214 H   0  0  0  0  0  0
  -23.3739  -35.9686   23.3320 H   0  0  0  0  0  0
  -24.3604  -36.8946   22.2063 H   0  0  0  0  0  0
  -23.7272  -37.6550   23.6660 H   0  0  0  0  0  0
  -26.0696  -31.5923   20.6156 H   0  0  0  0  0  0
  -26.8232  -30.8590   22.0029 H   0  0  0  0  0  0
  -28.1066  -29.0554   21.1566 H   0  0  0  0  0  0
  -25.9499  -26.0083   18.9499 H   0  0  0  0  0  0
  -23.9573  -27.3352   19.0124 H   0  0  0  0  0  0
  -23.7180  -30.6156   19.4115 H   0  0  0  0  0  0
  -22.7341  -29.2599   19.8706 H   0  0  0  0  0  0
  -25.1302  -36.2003   25.0831 H   0  0  0  0  0  0
  -20.9942  -28.3217   24.1453 H   0  0  0  0  0  0
  -20.5701  -26.2254   23.3610 H   0  0  0  0  0  0
  -21.6644  -26.7451   22.1218 H   0  0  0  0  0  0
  -19.6926  -25.6291   21.1237 H   0  0  0  0  0  0
  -19.6697  -27.3195   20.6753 H   0  0  0  0  0  0
  -17.4213  -26.6643   21.4020 H   0  0  0  0  0  0
  -18.0330  -26.0038   22.9013 H   0  0  0  0  0  0
  -19.7928  -30.7249   24.2264 H   0  0  0  0  0  0
  -17.5002  -31.6250   24.5156 H   0  0  0  0  0  0
  -15.5343  -30.2956   23.7648 H   0  0  0  0  0  0
  -15.8665  -28.0800   22.7049 H   0  0  0  0  0  0
  -24.5920  -30.7022   25.7821 H   0  0  0  0  0  0
  -24.8928  -32.2799   26.4994 H   0  0  0  0  0  0
  -25.8110  -30.8802   27.0224 H   0  0  0  0  0  0
  -26.2859  -29.6743   24.1295 H   0  0  0  0  0  0
  -27.4181  -29.7334   25.4612 H   0  0  0  0  0  0
  -27.8657  -30.4337   23.9239 H   0  0  0  0  0  0
  -27.2671  -33.3620   26.2093 H   0  0  0  0  0  0
  -28.3813  -32.6943   25.0267 H   0  0  0  0  0  0
  -28.0776  -31.8453   26.5355 H   0  0  0  0  0  0
  -28.2618  -38.0123   24.7480 H   0  0  0  0  0  0
  -28.1077  -36.2656   24.6312 H   0  0  0  0  0  0
  -27.2304  -37.1516   25.8865 H   0  0  0  0  0  0
  -20.9316  -29.8741   21.6962 H   0  0  0  0  0  0
  -26.0202  -38.2893   24.1333 H   0  0  0  0  0  0
  -28.3121  -18.9245   18.0945 H   0  0  0  0  0  0
  -27.9779  -18.0424   21.8741 H   0  0  0  0  0  0
  -27.9828  -17.5997   20.2017 H   0  0  0  0  0  0
  -31.5843  -18.6907   19.6233 H   0  0  0  0  0  0
  -31.6356  -17.7413   21.0748 H   0  0  0  0  0  0
  -29.6374  -16.2314   22.3648 H   0  0  0  0  0  0
  -28.2522  -15.6221   21.4985 H   0  0  0  0  0  0
  -31.4929  -16.3917   18.9164 H   0  0  0  0  0  0
  -29.8807  -16.9446   18.6995 H   0  0  0  0  0  0
  -30.0225  -19.1925   21.7387 H   0  0  0  0  0  0
  -26.5926  -25.0901   21.5124 H   0  0  0  0  0  0
  -28.1957  -24.9526   22.2203 H   0  0  0  0  0  0
  -27.4878  -23.5871   21.3561 H   0  0  0  0  0  0
  -30.0280  -24.0919   20.7345 H   0  0  0  0  0  0
  -30.2560  -25.0433   19.2841 H   0  0  0  0  0  0
  -27.5933  -24.9078   19.2170 H   0  0  0  0  0  0
  -29.0595  -23.5174   18.0126 H   0  0  0  0  0  0
  1 25  1  0  0  0
  1 30  2  0  0  0
  1 83  1  0  0  0
  2  3  1  0  0  0
  2 25  1  0  0  0
  2 86  1  0  0  0
  2 87  1  0  0  0
  3  4  1  0  0  0
  3 88  1  0  0  0
  3 89  1  0  0  0
  4  5  1  0  0  0
  4 90  1  0  0  0
  4 91  1  0  0  0
  5  6  1  0  0  0
  5 26  1  0  0  0
  5 92  1  0  0  0
  6 25  1  0  0  0
  6 93  1  0  0  0
  6 94  1  0  0  0
  7  8  2  0  0  0
  7 26  1  0  0  0
  7 29  1  0  0  0
  8  9  1  0  0  0
  8 22  1  0  0  0
  9 10  1  0  0  0
  9 27  2  0  0  0
 10 11  2  0  0  0
 10 15  1  0  0  0
 11 12  1  0  0  0
 11 95  1  0  0  0
 12 13  2  0  0  0
 12 96  1  0  0  0
 13 14  1  0  0  0
 13 31  1  0  0  0
 14 15  2  0  0  0
 14 97  1  0  0  0
 15 98  1  0  0  0
 16 17  2  0  0  0
 16 21  1  0  0  0
 16 31  1  0  0  0
 17 18  1  0  0  0
 17 99  1  0  0  0
 18 19  2  0  0  0
 18100  1  0  0  0
 19 20  1  0  0  0
 19 24  1  0  0  0
 20 21  2  0  0  0
 20101  1  0  0  0
 21 23  1  0  0  0
 22 28  1  0  0  0
 22 32  2  0  0  0
 26 27  1  0  0  0
 28102  1  0  0  0
 28103  1  0  0  0
 29104  1  0  0  0
 29105  1  0  0  0
 33 34  1  0  0  0
 33 66  1  0  0  0
 33 70  2  0  0  0
 34 36  1  0  0  0
 34 59  1  0  0  0
 34106  1  0  0  0
 35 44  2  0  0  0
 35 45  1  0  0  0
 35 68  1  0  0  0
 36 56  1  0  0  0
 36107  1  0  0  0
 37 39  1  0  0  0
 37 47  1  0  0  0
 37 66  1  0  0  0
 37108  1  0  0  0
 38 43  2  0  0  0
 38 46  1  0  0  0
 38 47  1  0  0  0
 39 64  1  0  0  0
 39 67  2  0  0  0
 40 52  1  0  0  0
 40 53  2  0  0  0
 40 58  1  0  0  0
 41109  1  0  0  0
 41110  1  0  0  0
 41111  1  0  0  0
 41 48  1  0  0  0
 42 43  1  0  0  0
 42 66  1  0  0  0
 42112  1  0  0  0
 42113  1  0  0  0
 43 44  1  0  0  0
 44114  1  0  0  0
 45 46  2  0  0  0
 45115  1  0  0  0
 46116  1  0  0  0
 47117  1  0  0  0
 47118  1  0  0  0
 48 56  1  0  0  0
 48 65  1  0  0  0
 48119  1  0  0  0
 49 50  1  0  0  0
 49 53  1  0  0  0
 49 64  1  0  0  0
 49120  1  0  0  0
 50 51  1  0  0  0
 50121  1  0  0  0
 50122  1  0  0  0
 51 52  1  0  0  0
 51123  1  0  0  0
 51124  1  0  0  0
 52125  1  0  0  0
 52126  1  0  0  0
 53 54  1  0  0  0
 54 55  2  0  0  0
 54127  1  0  0  0
 55 57  1  0  0  0
 55128  1  0  0  0
 56 69  2  0  0  0
 57 58  2  0  0  0
 57129  1  0  0  0
 58130  1  0  0  0
 59 60  1  0  0  0
 59 61  1  0  0  0
 59 62  1  0  0  0
 60131  1  0  0  0
 60132  1  0  0  0
 60133  1  0  0  0
 61134  1  0  0  0
 61135  1  0  0  0
 61136  1  0  0  0
 62137  1  0  0  0
 62138  1  0  0  0
 62139  1  0  0  0
 63 65  1  0  0  0
 63140  1  0  0  0
 63141  1  0  0  0
 63142  1  0  0  0
 64143  1  0  0  0
 65144  1  0  0  0
 68 81  1  0  0  0
 71 72  2  0  0  0
 71 82  1  0  0  0
 71145  1  0  0  0
 72 85  1  0  0  0
 72 78  1  0  0  0
 73 82  2  0  0  0
 73 84  1  0  0  0
 73 85  1  0  0  0
 74 76  1  0  0  0
 74 78  1  0  0  0
 74146  1  0  0  0
 74147  1  0  0  0
 75 77  1  0  0  0
 75 78  1  0  0  0
 75148  1  0  0  0
 75149  1  0  0  0
 76 83  1  0  0  0
 76150  1  0  0  0
 76151  1  0  0  0
 77 83  1  0  0  0
 77152  1  0  0  0
 77153  1  0  0  0
 78154  1  0  0  0
 79155  1  0  0  0
 79156  1  0  0  0
 79157  1  0  0  0
 79 81  1  0  0  0
 80 81  1  0  0  0
 80 84  1  0  0  0
 80158  1  0  0  0
 80159  1  0  0  0
 81160  1  0  0  0
 84161  1  0  0  0
M  ISO  4   1 100  68 101  81 101  83 100
M  END
> <chiral flag>
0

> <version>
0

> <s_m_source_file>
/data/baiqing/PycharmProjects/Reinvent-master-3.2/result/LINK_invent/BTK/process_docking_weight1_custom_product_contain_oxygen_bond_distance_aromatic_linkinvent_7_9_3/rearranged_h_0155.sdf

> <i_m_source_file_index>
11

> <r_mmod_Potential_Energy-OPLS-2005>
100.590759277344

> <r_mmod_Stretch_Energy-OPLS-2005>
48.8359336853027

> <r_mmod_Bend_Energy-OPLS-2005>
130.400405883789

> <r_mmod_Torsional_Energy-OPLS-2005>
339.110626220703

> <r_mmod_Improper_Torsional_Energy-OPLS-2005>
20.0995178222656

> <r_mmod_Van_der_Waal_Energy-OPLS-2005>
147.828109741211

> <r_mmod_Electrostatic_Energy-OPLS-2005>
-401.635406494141

> <r_mmod_Solvation_Energy-OPLS-2005>
-213.502883911133

> <b_mmod_Minimization_Converged-OPLS-2005>
0

> <r_mmod_RMS_Derivative-OPLS-2005>
2.80327558517456

$$$$
11
                    3D
 Structure written by MMmdl.
154162  0  0  1  0            999 V2000
  -30.6103  -14.7611   20.4486 C   0  0  0  0  0  0
  -30.4340  -12.4591   19.4943 C   0  0  0  0  0  0
  -29.5196  -12.5149   18.2505 C   0  0  0  0  0  0
  -28.0431  -12.3390   18.6564 C   0  0  0  0  0  0
  -27.6451  -13.2378   19.8583 C   0  0  2  0  0  0
  -28.6865  -13.1778   20.9985 C   0  0  0  0  0  0
  -25.2513  -13.8216   20.5717 C   0  0  0  0  0  0
  -24.1800  -13.0451   20.9215 C   0  0  0  0  0  0
  -24.6395  -11.6926   20.8741 C   0  0  0  0  0  0
  -23.9077  -10.4301   21.0400 C   0  0  0  0  0  0
  -24.3623   -9.4213   21.9176 C   0  0  0  0  0  0
  -23.6294   -8.2248   22.0750 C   0  0  0  0  0  0
  -22.4275   -8.0292   21.3545 C   0  0  0  0  0  0
  -21.9916   -9.0270   20.4649 C   0  0  0  0  0  0
  -22.7251  -10.2142   20.3054 C   0  0  0  0  0  0
  -21.6855   -6.0735   22.5276 C   0  0  0  0  0  0
  -21.4021   -6.5635   23.8214 C   0  0  0  0  0  0
  -21.3663   -5.6784   24.9173 C   0  0  0  0  0  0
  -21.6043   -4.3049   24.7222 C   0  0  0  0  0  0
  -21.8819   -3.8144   23.4343 C   0  0  0  0  0  0
  -21.9192   -4.6961   22.3400 C   0  0  0  0  0  0
  -22.7813  -13.5233   21.1850 C   0  0  0  0  0  0
  -22.1658   -4.2144   21.0977 F   0  0  0  0  0  0
  -21.5624   -3.4532   25.7738 F   0  0  0  0  0  0
  -29.9920  -13.5277   20.4242 N   0  0  0  0  0  0
  -26.2960  -12.9437   20.3312 N   0  0  0  0  0  0
  -25.9338  -11.6571   20.5767 N   0  0  0  0  0  0
  -22.0435  -12.8250   22.0409 N   0  0  0  0  0  0
  -25.4191  -15.1940   20.4146 N   0  0  0  0  0  0
  -31.7862  -14.8543   20.0840 O   0  0  0  0  0  0
  -21.6641   -6.8884   21.4241 O   0  0  0  0  0  0
  -22.3504  -14.5528   20.6675 O   0  0  0  0  0  0
  -24.6331  -31.8555   23.1985 C   0  0  0  0  0  0
  -25.9152  -32.4754   23.8340 C   0  0  1  0  0  0
  -27.2073  -27.2367   20.1334 C   0  0  0  0  0  0
  -25.5944  -33.8559   24.2260 N   0  0  0  0  0  0
  -23.4305  -30.4802   21.5415 C   0  0  2  0  0  0
  -24.8782  -28.9334   20.1024 C   0  0  0  0  0  0
  -22.7517  -29.4607   22.4884 C   0  0  0  0  0  0
  -18.0296  -28.1403   22.8487 C   0  0  0  0  0  0
  -24.1485  -36.7289   23.2635 C   0  0  0  0  0  0
  -25.9785  -30.7616   21.3824 C   0  0  0  0  0  0
  -26.0510  -29.3837   20.7222 C   0  0  0  0  0  0
  -27.2173  -28.5479   20.7285 C   0  0  0  0  0  0
  -26.0201  -26.8816   19.4505 C   0  0  0  0  0  0
  -24.8717  -27.6934   19.4513 C   0  0  0  0  0  0
  -23.6507  -29.8220   20.1549 C   0  0  0  0  0  0
  -25.4108  -36.3066   24.0322 C   0  0  1  0  0  0
  -20.5903  -28.3725   23.1258 C   0  0  2  0  0  0
  -20.6781  -26.9438   22.5404 C   0  0  0  0  0  0
  -19.5753  -26.6396   21.5211 C   0  0  0  0  0  0
  -18.1938  -26.7945   22.1625 C   0  0  0  0  0  0
  -19.1550  -28.8882   23.2869 C   0  0  0  0  0  0
  -18.9467  -30.1479   23.8893 C   0  0  0  0  0  0
  -17.6464  -30.6598   24.0576 C   0  0  0  0  0  0
  -25.9053  -34.9439   23.5091 C   0  0  0  0  0  0
  -16.5356  -29.9100   23.6336 C   0  0  0  0  0  0
  -16.7285  -28.6521   23.0356 C   0  0  0  0  0  0
  -26.4508  -31.6584   25.0736 C   0  0  0  0  0  0
  -25.3730  -31.3744   26.1458 C   0  0  0  0  0  0
  -27.0358  -30.2999   24.6229 C   0  0  0  0  0  0
  -27.6056  -32.4329   25.7514 C   0  0  0  0  0  0
  -27.5569  -37.1800   24.8460 C   0  0  0  0  0  0
  -21.4222  -29.3062   22.3635 N   0  0  0  0  0  0
  -26.4281  -37.3768   23.9407 N   0  0  0  0  0  0
  -24.6999  -31.0504   22.0971 N   0  0  0  0  0  0
  -23.4211  -28.8135   23.2989 O   0  0  0  0  0  0
  -28.2653  -26.2898   20.2390 O   0  0  0  0  0  0
  -26.5618  -34.8914   22.4656 O   0  0  0  0  0  0
  -23.5477  -32.1386   23.7269 O   0  0  0  0  0  0
  -29.9838  -20.7435   21.7080 C   0  0  0  0  0  0
  -30.3088  -19.3379   21.7250 C   0  0  0  0  0  0
  -29.8245  -18.6984   20.6044 C   0  0  0  0  0  0
  -29.2843  -20.9633   20.5514 C   0  0  0  0  0  0
  -26.9765  -24.5491   21.4632 C   0  0  0  0  0  0
  -30.0077  -17.2666   19.9371 C   0  0  0  0  0  0
  -29.0867  -23.6385   20.4001 C   0  0  0  0  0  0
  -27.9454  -24.7996   20.2863 C   0  0  2  0  0  0
  -31.0651  -18.7237   22.7250 N   0  0  0  0  0  0
  -28.6821  -22.2021   20.0763 N   0  0  0  0  0  0
  -29.8429  -15.9051   20.6351 N   0  0  0  0  0  0
  -29.1671  -19.7274   19.8788 O   0  0  0  0  0  0
  -31.4784  -12.5718   19.1982 H   0  0  0  0  0  0
  -30.3723  -11.4837   19.9787 H   0  0  0  0  0  0
  -29.8074  -11.7424   17.5361 H   0  0  0  0  0  0
  -29.6494  -13.4711   17.7398 H   0  0  0  0  0  0
  -27.8996  -11.2899   18.9191 H   0  0  0  0  0  0
  -27.3904  -12.5317   17.8045 H   0  0  0  0  0  0
  -27.6388  -14.2597   19.4771 H   0  0  0  0  0  0
  -28.7187  -12.1830   21.4466 H   0  0  0  0  0  0
  -28.4199  -13.8649   21.8035 H   0  0  0  0  0  0
  -25.2762   -9.5684   22.4764 H   0  0  0  0  0  0
  -23.9995   -7.4641   22.7477 H   0  0  0  0  0  0
  -21.0844   -8.8805   19.8957 H   0  0  0  0  0  0
  -22.3714  -10.9689   19.6172 H   0  0  0  0  0  0
  -21.2018   -7.6145   23.9718 H   0  0  0  0  0  0
  -21.1486   -6.0511   25.9074 H   0  0  0  0  0  0
  -22.0592   -2.7607   23.2841 H   0  0  0  0  0  0
  -22.4040  -11.9939   22.4868 H   0  0  0  0  0  0
  -21.1046  -13.1291   22.2560 H   0  0  0  0  0  0
  -24.6501  -15.8468   20.5270 H   0  0  0  0  0  0
  -26.2653  -15.6359   20.0794 H   0  0  0  0  0  0
  -26.7222  -32.5388   23.1080 H   0  0  0  0  0  0
  -25.0089  -33.9708   25.0404 H   0  0  0  0  0  0
  -22.7265  -31.3026   21.3979 H   0  0  0  0  0  0
  -23.3733  -35.9634   23.3290 H   0  0  0  0  0  0
  -24.3570  -36.8922   22.2051 H   0  0  0  0  0  0
  -23.7253  -37.6490   23.6674 H   0  0  0  0  0  0
  -26.1169  -31.5210   20.6112 H   0  0  0  0  0  0
  -26.8559  -30.8113   22.0159 H   0  0  0  0  0  0
  -28.1071  -28.8760   21.2475 H   0  0  0  0  0  0
  -25.9349  -25.9403   18.9315 H   0  0  0  0  0  0
  -23.9791  -27.3516   18.9454 H   0  0  0  0  0  0
  -23.7784  -30.6028   19.4044 H   0  0  0  0  0  0
  -22.7676  -29.2614   19.8442 H   0  0  0  0  0  0
  -25.1286  -36.1914   25.0815 H   0  0  0  0  0  0
  -20.9999  -28.3307   24.1377 H   0  0  0  0  0  0
  -20.5687  -26.2332   23.3610 H   0  0  0  0  0  0
  -21.6651  -26.7463   22.1193 H   0  0  0  0  0  0
  -19.6910  -25.6302   21.1257 H   0  0  0  0  0  0
  -19.6693  -27.3188   20.6727 H   0  0  0  0  0  0
  -17.4206  -26.6703   21.4031 H   0  0  0  0  0  0
  -18.0343  -26.0086   22.9025 H   0  0  0  0  0  0
  -19.7943  -30.7306   24.2254 H   0  0  0  0  0  0
  -17.5020  -31.6277   24.5183 H   0  0  0  0  0  0
  -15.5357  -30.3009   23.7659 H   0  0  0  0  0  0
  -15.8682  -28.0843   22.7072 H   0  0  0  0  0  0
  -24.5914  -30.7076   25.7790 H   0  0  0  0  0  0
  -24.8911  -32.2922   26.4851 H   0  0  0  0  0  0
  -25.8058  -30.8956   27.0254 H   0  0  0  0  0  0
  -26.2948  -29.6739   24.1239 H   0  0  0  0  0  0
  -27.4008  -29.7268   25.4759 H   0  0  0  0  0  0
  -27.8843  -30.4242   23.9491 H   0  0  0  0  0  0
  -27.2658  -33.3636   26.2064 H   0  0  0  0  0  0
  -28.3892  -32.6879   25.0369 H   0  0  0  0  0  0
  -28.0696  -31.8477   26.5460 H   0  0  0  0  0  0
  -28.2581  -38.0101   24.7500 H   0  0  0  0  0  0
  -28.1074  -36.2632   24.6293 H   0  0  0  0  0  0
  -27.2295  -37.1454   25.8867 H   0  0  0  0  0  0
  -20.9399  -29.8821   21.6869 H   0  0  0  0  0  0
  -26.0148  -38.2835   24.1426 H   0  0  0  0  0  0
  -30.2294  -21.4927   22.4463 H   0  0  0  0  0  0
  -26.6558  -23.5074   21.4911 H   0  0  0  0  0  0
  -26.0677  -25.1459   21.4148 H   0  0  0  0  0  0
  -27.4619  -24.7641   22.4153 H   0  0  0  0  0  0
  -30.9949  -17.2669   19.4748 H   0  0  0  0  0  0
  -29.3257  -17.2273   19.0875 H   0  0  0  0  0  0
  -29.5363  -23.6700   21.3941 H   0  0  0  0  0  0
  -29.8908  -23.8990   19.7097 H   0  0  0  0  0  0
  -27.4378  -24.5680   19.3524 H   0  0  0  0  0  0
  -31.6462  -19.2985   23.3284 H   0  0  0  0  0  0
  -31.4642  -17.8066   22.5459 H   0  0  0  0  0  0
  -28.0801  -22.1165   19.2615 H   0  0  0  0  0  0
  -28.9166  -15.7333   20.9964 H   0  0  0  0  0  0
  1 25  1  0  0  0
  1 30  2  0  0  0
  1 81  1  0  0  0
  2  3  1  0  0  0
  2 25  1  0  0  0
  2 83  1  0  0  0
  2 84  1  0  0  0
  3  4  1  0  0  0
  3 85  1  0  0  0
  3 86  1  0  0  0
  4  5  1  0  0  0
  4 87  1  0  0  0
  4 88  1  0  0  0
  5  6  1  0  0  0
  5 26  1  0  0  0
  5 89  1  0  0  0
  6 25  1  0  0  0
  6 90  1  0  0  0
  6 91  1  0  0  0
  7  8  2  0  0  0
  7 26  1  0  0  0
  7 29  1  0  0  0
  8  9  1  0  0  0
  8 22  1  0  0  0
  9 10  1  0  0  0
  9 27  2  0  0  0
 10 11  2  0  0  0
 10 15  1  0  0  0
 11 12  1  0  0  0
 11 92  1  0  0  0
 12 13  2  0  0  0
 12 93  1  0  0  0
 13 14  1  0  0  0
 13 31  1  0  0  0
 14 15  2  0  0  0
 14 94  1  0  0  0
 15 95  1  0  0  0
 16 17  2  0  0  0
 16 21  1  0  0  0
 16 31  1  0  0  0
 17 18  1  0  0  0
 17 96  1  0  0  0
 18 19  2  0  0  0
 18 97  1  0  0  0
 19 20  1  0  0  0
 19 24  1  0  0  0
 20 21  2  0  0  0
 20 98  1  0  0  0
 21 23  1  0  0  0
 22 28  1  0  0  0
 22 32  2  0  0  0
 26 27  1  0  0  0
 28 99  1  0  0  0
 28100  1  0  0  0
 29101  1  0  0  0
 29102  1  0  0  0
 33 34  1  0  0  0
 33 66  1  0  0  0
 33 70  2  0  0  0
 34 36  1  0  0  0
 34 59  1  0  0  0
 34103  1  0  0  0
 35 44  2  0  0  0
 35 45  1  0  0  0
 35 68  1  0  0  0
 36 56  1  0  0  0
 36104  1  0  0  0
 37 39  1  0  0  0
 37 47  1  0  0  0
 37 66  1  0  0  0
 37105  1  0  0  0
 38 43  2  0  0  0
 38 46  1  0  0  0
 38 47  1  0  0  0
 39 64  1  0  0  0
 39 67  2  0  0  0
 40 52  1  0  0  0
 40 53  2  0  0  0
 40 58  1  0  0  0
 41106  1  0  0  0
 41107  1  0  0  0
 41108  1  0  0  0
 41 48  1  0  0  0
 42 43  1  0  0  0
 42 66  1  0  0  0
 42109  1  0  0  0
 42110  1  0  0  0
 43 44  1  0  0  0
 44111  1  0  0  0
 45 46  2  0  0  0
 45112  1  0  0  0
 46113  1  0  0  0
 47114  1  0  0  0
 47115  1  0  0  0
 48 56  1  0  0  0
 48 65  1  0  0  0
 48116  1  0  0  0
 49 50  1  0  0  0
 49 53  1  0  0  0
 49 64  1  0  0  0
 49117  1  0  0  0
 50 51  1  0  0  0
 50118  1  0  0  0
 50119  1  0  0  0
 51 52  1  0  0  0
 51120  1  0  0  0
 51121  1  0  0  0
 52122  1  0  0  0
 52123  1  0  0  0
 53 54  1  0  0  0
 54 55  2  0  0  0
 54124  1  0  0  0
 55 57  1  0  0  0
 55125  1  0  0  0
 56 69  2  0  0  0
 57 58  2  0  0  0
 57126  1  0  0  0
 58127  1  0  0  0
 59 60  1  0  0  0
 59 61  1  0  0  0
 59 62  1  0  0  0
 60128  1  0  0  0
 60129  1  0  0  0
 60130  1  0  0  0
 61131  1  0  0  0
 61132  1  0  0  0
 61133  1  0  0  0
 62134  1  0  0  0
 62135  1  0  0  0
 62136  1  0  0  0
 63 65  1  0  0  0
 63137  1  0  0  0
 63138  1  0  0  0
 63139  1  0  0  0
 64140  1  0  0  0
 65141  1  0  0  0
 68 78  1  0  0  0
 71 72  1  0  0  0
 71 74  2  0  0  0
 71142  1  0  0  0
 72 73  2  0  0  0
 72 79  1  0  0  0
 73 76  1  0  0  0
 73 82  1  0  0  0
 74 80  1  0  0  0
 74 82  1  0  0  0
 75143  1  0  0  0
 75144  1  0  0  0
 75145  1  0  0  0
 75 78  1  0  0  0
 76 81  1  0  0  0
 76146  1  0  0  0
 76147  1  0  0  0
 77 78  1  0  0  0
 77 80  1  0  0  0
 77148  1  0  0  0
 77149  1  0  0  0
 78150  1  0  0  0
 79151  1  0  0  0
 79152  1  0  0  0
 80153  1  0  0  0
 81154  1  0  0  0
M  ISO  4   1 100  68 101  78 101  81 100
M  END
> <chiral flag>
0

> <version>
0

> <s_m_source_file>
/data/baiqing/PycharmProjects/Reinvent-master-3.2/result/LINK_invent/BTK/process_docking_weight1_custom_product_contain_oxygen_bond_distance_aromatic_linkinvent_7_9_3/rearranged_h_0155.sdf

> <i_m_source_file_index>
12

> <r_mmod_Potential_Energy-OPLS-2005>
156.071716308594

> <r_mmod_Stretch_Energy-OPLS-2005>
135.63932800293

> <r_mmod_Bend_Energy-OPLS-2005>
197.594802856445

> <r_mmod_Torsional_Energy-OPLS-2005>
227.629943847656

> <r_mmod_Improper_Torsional_Energy-OPLS-2005>
11.5024766921997

> <r_mmod_Van_der_Waal_Energy-OPLS-2005>
120.9619140625

> <r_mmod_Electrostatic_Energy-OPLS-2005>
-409.029235839844

> <r_mmod_Solvation_Energy-OPLS-2005>
-229.715240478516

> <b_mmod_Minimization_Converged-OPLS-2005>
0

> <r_mmod_RMS_Derivative-OPLS-2005>
1.73670101165771

$$$$
12
                    3D
 Structure written by MMmdl.
154163  0  0  1  0            999 V2000
  -30.5212  -14.9439   20.4019 C   0  0  0  0  0  0
  -30.4379  -12.5716   19.5193 C   0  0  0  0  0  0
  -29.5241  -12.5379   18.2723 C   0  0  0  0  0  0
  -28.0578  -12.3197   18.6849 C   0  0  0  0  0  0
  -27.6331  -13.2489   19.8527 C   0  0  2  0  0  0
  -28.6713  -13.2631   20.9957 C   0  0  0  0  0  0
  -25.2465  -13.8220   20.5734 C   0  0  0  0  0  0
  -24.1783  -13.0449   20.9239 C   0  0  0  0  0  0
  -24.6396  -11.6936   20.8773 C   0  0  0  0  0  0
  -23.9078  -10.4301   21.0416 C   0  0  0  0  0  0
  -24.3635   -9.4208   21.9185 C   0  0  0  0  0  0
  -23.6304   -8.2243   22.0750 C   0  0  0  0  0  0
  -22.4278   -8.0288   21.3544 C   0  0  0  0  0  0
  -21.9923   -9.0271   20.4650 C   0  0  0  0  0  0
  -22.7258  -10.2147   20.3058 C   0  0  0  0  0  0
  -21.6851   -6.0739   22.5286 C   0  0  0  0  0  0
  -21.4029   -6.5643   23.8223 C   0  0  0  0  0  0
  -21.3669   -5.6795   24.9184 C   0  0  0  0  0  0
  -21.6037   -4.3054   24.7233 C   0  0  0  0  0  0
  -21.8815   -3.8147   23.4354 C   0  0  0  0  0  0
  -21.9197   -4.6966   22.3411 C   0  0  0  0  0  0
  -22.7805  -13.5209   21.1905 C   0  0  0  0  0  0
  -22.1659   -4.2146   21.0989 F   0  0  0  0  0  0
  -21.5620   -3.4537   25.7741 F   0  0  0  0  0  0
  -29.9571  -13.6673   20.4107 N   0  0  0  0  0  0
  -26.2905  -12.9456   20.3319 N   0  0  0  0  0  0
  -25.9328  -11.6573   20.5772 N   0  0  0  0  0  0
  -22.0457  -12.8200   22.0460 N   0  0  0  0  0  0
  -25.4088  -15.1963   20.4166 N   0  0  0  0  0  0
  -31.7009  -15.0346   20.0406 O   0  0  0  0  0  0
  -21.6629   -6.8894   21.4248 O   0  0  0  0  0  0
  -22.3491  -14.5514   20.6755 O   0  0  0  0  0  0
  -24.6407  -31.8432   23.1871 C   0  0  0  0  0  0
  -25.9185  -32.4697   23.8266 C   0  0  1  0  0  0
  -27.2256  -27.1536   20.1297 C   0  0  0  0  0  0
  -25.5928  -33.8499   24.2178 N   0  0  0  0  0  0
  -23.4455  -30.4615   21.5309 C   0  0  2  0  0  0
  -24.8954  -28.8879   20.1059 C   0  0  0  0  0  0
  -22.7559  -29.4539   22.4835 C   0  0  0  0  0  0
  -18.0302  -28.1401   22.8474 C   0  0  0  0  0  0
  -24.1485  -36.7277   23.2642 C   0  0  0  0  0  0
  -25.9990  -30.7197   21.3848 C   0  0  0  0  0  0
  -26.0696  -29.3320   20.7252 C   0  0  0  0  0  0
  -27.2328  -28.4781   20.7237 C   0  0  0  0  0  0
  -26.0243  -26.8001   19.4793 C   0  0  0  0  0  0
  -24.8846  -27.6350   19.4700 C   0  0  0  0  0  0
  -23.6717  -29.7900   20.1493 C   0  0  0  0  0  0
  -25.4116  -36.3036   24.0311 C   0  0  1  0  0  0
  -20.5915  -28.3725   23.1220 C   0  0  2  0  0  0
  -20.6779  -26.9424   22.5394 C   0  0  0  0  0  0
  -19.5751  -26.6379   21.5203 C   0  0  0  0  0  0
  -18.1941  -26.7934   22.1632 C   0  0  0  0  0  0
  -19.1561  -28.8877   23.2845 C   0  0  0  0  0  0
  -18.9479  -30.1471   23.8875 C   0  0  0  0  0  0
  -17.6476  -30.6594   24.0567 C   0  0  0  0  0  0
  -25.9058  -34.9409   23.5060 C   0  0  0  0  0  0
  -16.5364  -29.9095   23.6331 C   0  0  0  0  0  0
  -16.7289  -28.6518   23.0342 C   0  0  0  0  0  0
  -26.4504  -31.6584   25.0721 C   0  0  0  0  0  0
  -25.3693  -31.3811   26.1430 C   0  0  0  0  0  0
  -27.0364  -30.2969   24.6331 C   0  0  0  0  0  0
  -27.6018  -32.4368   25.7515 C   0  0  0  0  0  0
  -27.5569  -37.1802   24.8463 C   0  0  0  0  0  0
  -21.4249  -29.3056   22.3598 N   0  0  0  0  0  0
  -26.4286  -37.3741   23.9392 N   0  0  0  0  0  0
  -24.7150  -31.0298   22.0899 N   0  0  0  0  0  0
  -23.4206  -28.8078   23.2979 O   0  0  0  0  0  0
  -28.3040  -26.2054   20.2015 O   0  0  0  0  0  0
  -26.5654  -34.8906   22.4645 O   0  0  0  0  0  0
  -23.5527  -32.1298   23.7092 O   0  0  0  0  0  0
  -29.2327  -18.5992   21.0656 C   0  0  0  0  0  0
  -29.3318  -19.8517   20.2780 C   0  0  0  0  0  0
  -29.8663  -19.3851   19.0937 C   0  0  0  0  0  0
  -29.7492  -17.4887   20.3584 C   0  0  0  0  0  0
  -29.0275  -21.3515   20.7266 C   0  0  0  0  0  0
  -27.6130  -23.5053   20.5146 C   0  0  0  0  0  0
  -29.4932  -23.7474   19.9091 C   0  0  0  0  0  0
  -28.2520  -24.7210   19.7362 C   0  0  0  0  0  0
  -30.2164  -20.0529   17.8067 C   0  0  0  0  0  0
  -28.6469  -22.5093   20.0312 N   0  0  0  0  0  0
  -29.7342  -16.0873   20.7031 N   0  0  0  0  0  0
  -29.1951  -21.5375   22.0446 N   0  3  0  0  0  0
  -30.1293  -17.9998   19.1364 O   0  0  0  0  0  0
  -31.4769  -12.7116   19.2205 H   0  0  0  0  0  0
  -30.4130  -11.6149   20.0440 H   0  0  0  0  0  0
  -29.8450  -11.7515   17.5867 H   0  0  0  0  0  0
  -29.6186  -13.4780   17.7272 H   0  0  0  0  0  0
  -27.9559  -11.2772   18.9894 H   0  0  0  0  0  0
  -27.3963  -12.4538   17.8303 H   0  0  0  0  0  0
  -27.6004  -14.2545   19.4321 H   0  0  0  0  0  0
  -28.7499  -12.2827   21.4643 H   0  0  0  0  0  0
  -28.3679  -13.9573   21.7826 H   0  0  0  0  0  0
  -25.2776   -9.5659   22.4777 H   0  0  0  0  0  0
  -23.9996   -7.4627   22.7478 H   0  0  0  0  0  0
  -21.0843   -8.8812   19.8974 H   0  0  0  0  0  0
  -22.3720  -10.9700   19.6176 H   0  0  0  0  0  0
  -21.2018   -7.6154   23.9741 H   0  0  0  0  0  0
  -21.1494   -6.0514   25.9092 H   0  0  0  0  0  0
  -22.0578   -2.7609   23.2858 H   0  0  0  0  0  0
  -22.4057  -11.9842   22.4815 H   0  0  0  0  0  0
  -21.1094  -13.1241   22.2716 H   0  0  0  0  0  0
  -24.6300  -15.8369   20.5181 H   0  0  0  0  0  0
  -26.2445  -15.6488   20.0676 H   0  0  0  0  0  0
  -26.7259  -32.5293   23.1001 H   0  0  0  0  0  0
  -25.0056  -33.9619   25.0312 H   0  0  0  0  0  0
  -22.7491  -31.2875   21.3755 H   0  0  0  0  0  0
  -23.3726  -35.9633   23.3321 H   0  0  0  0  0  0
  -24.3554  -36.8894   22.2050 H   0  0  0  0  0  0
  -23.7279  -37.6493   23.6674 H   0  0  0  0  0  0
  -26.1547  -31.4757   20.6133 H   0  0  0  0  0  0
  -26.8686  -30.7665   22.0292 H   0  0  0  0  0  0
  -28.1281  -28.8141   21.2284 H   0  0  0  0  0  0
  -25.9350  -25.8408   18.9918 H   0  0  0  0  0  0
  -23.9886  -27.2915   18.9722 H   0  0  0  0  0  0
  -23.8083  -30.5651   19.3940 H   0  0  0  0  0  0
  -22.7868  -29.2329   19.8366 H   0  0  0  0  0  0
  -25.1316  -36.1872   25.0807 H   0  0  0  0  0  0
  -21.0017  -28.3317   24.1333 H   0  0  0  0  0  0
  -20.5648  -26.2344   23.3618 H   0  0  0  0  0  0
  -21.6646  -26.7404   22.1205 H   0  0  0  0  0  0
  -19.6908  -25.6282   21.1249 H   0  0  0  0  0  0
  -19.6692  -27.3166   20.6714 H   0  0  0  0  0  0
  -17.4199  -26.6650   21.4055 H   0  0  0  0  0  0
  -18.0371  -26.0094   22.9052 H   0  0  0  0  0  0
  -19.7957  -30.7286   24.2243 H   0  0  0  0  0  0
  -17.5030  -31.6266   24.5189 H   0  0  0  0  0  0
  -15.5362  -30.2989   23.7662 H   0  0  0  0  0  0
  -15.8695  -28.0828   22.7054 H   0  0  0  0  0  0
  -24.5810  -30.7235   25.7759 H   0  0  0  0  0  0
  -24.8954  -32.3018   26.4839 H   0  0  0  0  0  0
  -25.7948  -30.8972   27.0229 H   0  0  0  0  0  0
  -26.2988  -29.6703   24.1303 H   0  0  0  0  0  0
  -27.3914  -29.7273   25.4932 H   0  0  0  0  0  0
  -27.8924  -30.4193   23.9692 H   0  0  0  0  0  0
  -27.2583  -33.3676   26.2048 H   0  0  0  0  0  0
  -28.3850  -32.6934   25.0371 H   0  0  0  0  0  0
  -28.0670  -31.8540   26.5476 H   0  0  0  0  0  0
  -28.2600  -38.0079   24.7449 H   0  0  0  0  0  0
  -28.1046  -36.2601   24.6367 H   0  0  0  0  0  0
  -27.2277  -37.1550   25.8863 H   0  0  0  0  0  0
  -20.9445  -29.8803   21.6813 H   0  0  0  0  0  0
  -26.0156  -38.2819   24.1354 H   0  0  0  0  0  0
  -28.8306  -18.5303   22.0652 H   0  0  0  0  0  0
  -26.6038  -23.2765   20.1727 H   0  0  0  0  0  0
  -27.6299  -23.6518   21.5946 H   0  0  0  0  0  0
  -30.0587  -23.9403   20.8217 H   0  0  0  0  0  0
  -30.1599  -23.7300   19.0466 H   0  0  0  0  0  0
  -27.9399  -24.6994   18.6903 H   0  0  0  0  0  0
  -29.9652  -21.1125   17.8269 H   0  0  0  0  0  0
  -29.6742  -19.5978   16.9777 H   0  0  0  0  0  0
  -31.2817  -19.9633   17.5975 H   0  0  0  0  0  0
  -28.9058  -15.8259   21.2164 H   0  0  0  0  0  0
  -29.5181  -20.7747   22.6188 H   0  0  0  0  0  0
  -29.0413  -22.4252   22.4940 H   0  0  0  0  0  0
  1 25  1  0  0  0
  1 30  2  0  0  0
  1 81  1  0  0  0
  2  3  1  0  0  0
  2 25  1  0  0  0
  2 84  1  0  0  0
  2 85  1  0  0  0
  3  4  1  0  0  0
  3 86  1  0  0  0
  3 87  1  0  0  0
  4  5  1  0  0  0
  4 88  1  0  0  0
  4 89  1  0  0  0
  5  6  1  0  0  0
  5 26  1  0  0  0
  5 90  1  0  0  0
  6 25  1  0  0  0
  6 91  1  0  0  0
  6 92  1  0  0  0
  7  8  2  0  0  0
  7 26  1  0  0  0
  7 29  1  0  0  0
  8  9  1  0  0  0
  8 22  1  0  0  0
  9 10  1  0  0  0
  9 27  2  0  0  0
 10 11  2  0  0  0
 10 15  1  0  0  0
 11 12  1  0  0  0
 11 93  1  0  0  0
 12 13  2  0  0  0
 12 94  1  0  0  0
 13 14  1  0  0  0
 13 31  1  0  0  0
 14 15  2  0  0  0
 14 95  1  0  0  0
 15 96  1  0  0  0
 16 17  2  0  0  0
 16 21  1  0  0  0
 16 31  1  0  0  0
 17 18  1  0  0  0
 17 97  1  0  0  0
 18 19  2  0  0  0
 18 98  1  0  0  0
 19 20  1  0  0  0
 19 24  1  0  0  0
 20 21  2  0  0  0
 20 99  1  0  0  0
 21 23  1  0  0  0
 22 28  1  0  0  0
 22 32  2  0  0  0
 26 27  1  0  0  0
 28100  1  0  0  0
 28101  1  0  0  0
 29102  1  0  0  0
 29103  1  0  0  0
 33 34  1  0  0  0
 33 66  1  0  0  0
 33 70  2  0  0  0
 34 36  1  0  0  0
 34 59  1  0  0  0
 34104  1  0  0  0
 35 44  2  0  0  0
 35 45  1  0  0  0
 35 68  1  0  0  0
 36 56  1  0  0  0
 36105  1  0  0  0
 37 39  1  0  0  0
 37 47  1  0  0  0
 37 66  1  0  0  0
 37106  1  0  0  0
 38 43  2  0  0  0
 38 46  1  0  0  0
 38 47  1  0  0  0
 39 64  1  0  0  0
 39 67  2  0  0  0
 40 52  1  0  0  0
 40 53  2  0  0  0
 40 58  1  0  0  0
 41107  1  0  0  0
 41108  1  0  0  0
 41109  1  0  0  0
 41 48  1  0  0  0
 42 43  1  0  0  0
 42 66  1  0  0  0
 42110  1  0  0  0
 42111  1  0  0  0
 43 44  1  0  0  0
 44112  1  0  0  0
 45 46  2  0  0  0
 45113  1  0  0  0
 46114  1  0  0  0
 47115  1  0  0  0
 47116  1  0  0  0
 48 56  1  0  0  0
 48 65  1  0  0  0
 48117  1  0  0  0
 49 50  1  0  0  0
 49 53  1  0  0  0
 49 64  1  0  0  0
 49118  1  0  0  0
 50 51  1  0  0  0
 50119  1  0  0  0
 50120  1  0  0  0
 51 52  1  0  0  0
 51121  1  0  0  0
 51122  1  0  0  0
 52123  1  0  0  0
 52124  1  0  0  0
 53 54  1  0  0  0
 54 55  2  0  0  0
 54125  1  0  0  0
 55 57  1  0  0  0
 55126  1  0  0  0
 56 69  2  0  0  0
 57 58  2  0  0  0
 57127  1  0  0  0
 58128  1  0  0  0
 59 60  1  0  0  0
 59 61  1  0  0  0
 59 62  1  0  0  0
 60129  1  0  0  0
 60130  1  0  0  0
 60131  1  0  0  0
 61132  1  0  0  0
 61133  1  0  0  0
 61134  1  0  0  0
 62135  1  0  0  0
 62136  1  0  0  0
 62137  1  0  0  0
 63 65  1  0  0  0
 63138  1  0  0  0
 63139  1  0  0  0
 63140  1  0  0  0
 64141  1  0  0  0
 65142  1  0  0  0
 68 78  1  0  0  0
 71 72  1  0  0  0
 71 74  2  0  0  0
 71143  1  0  0  0
 72 73  2  0  0  0
 72 75  1  0  0  0
 73 79  1  0  0  0
 73 83  1  0  0  0
 74 81  1  0  0  0
 74 83  1  0  0  0
 75 80  1  0  0  0
 75 82  2  0  0  0
 76 78  1  0  0  0
 76 80  1  0  0  0
 76144  1  0  0  0
 76145  1  0  0  0
 77 78  1  0  0  0
 77 80  1  0  0  0
 77146  1  0  0  0
 77147  1  0  0  0
 78148  1  0  0  0
 79149  1  0  0  0
 79150  1  0  0  0
 79151  1  0  0  0
 81152  1  0  0  0
 82153  1  0  0  0
 82154  1  0  0  0
M  CHG  1  82   1
M  ISO  4   1 100  68 101  78 101  81 100
M  END
> <chiral flag>
0

> <version>
0

> <s_m_source_file>
/data/baiqing/PycharmProjects/Reinvent-master-3.2/result/LINK_invent/BTK/process_docking_weight1_custom_product_contain_oxygen_bond_distance_aromatic_linkinvent_7_9_3/rearranged_h_0155.sdf

> <i_m_source_file_index>
13

> <r_mmod_Potential_Energy-OPLS-2005>
281.760375976562

> <r_mmod_Stretch_Energy-OPLS-2005>
202.223922729492

> <r_mmod_Bend_Energy-OPLS-2005>
281.815551757812

> <r_mmod_Torsional_Energy-OPLS-2005>
272.634399414062

> <r_mmod_Improper_Torsional_Energy-OPLS-2005>
11.4561500549316

> <r_mmod_Van_der_Waal_Energy-OPLS-2005>
111.22257232666

> <r_mmod_Electrostatic_Energy-OPLS-2005>
-304.486602783203

> <r_mmod_Solvation_Energy-OPLS-2005>
-474.723907470703

> <b_mmod_Minimization_Converged-OPLS-2005>
0

> <r_mmod_RMS_Derivative-OPLS-2005>
3.0116868019104

$$$$
13
                    3D
 Structure written by MMmdl.
157165  0  0  1  0            999 V2000
  -30.6310  -14.6263   20.5220 C   0  0  0  0  0  0
  -30.4383  -12.3883   19.4549 C   0  0  0  0  0  0
  -29.5097  -12.5174   18.2266 C   0  0  0  0  0  0
  -28.0311  -12.3588   18.6334 C   0  0  0  0  0  0
  -27.6561  -13.2187   19.8702 C   0  0  2  0  0  0
  -28.6995  -13.0575   20.9991 C   0  0  0  0  0  0
  -25.2560  -13.8169   20.5671 C   0  0  0  0  0  0
  -24.1831  -13.0440   20.9190 C   0  0  0  0  0  0
  -24.6400  -11.6911   20.8741 C   0  0  0  0  0  0
  -23.9068  -10.4296   21.0402 C   0  0  0  0  0  0
  -24.3619   -9.4211   21.9182 C   0  0  0  0  0  0
  -23.6293   -8.2248   22.0750 C   0  0  0  0  0  0
  -22.4273   -8.0290   21.3543 C   0  0  0  0  0  0
  -21.9905   -9.0263   20.4648 C   0  0  0  0  0  0
  -22.7235  -10.2141   20.3058 C   0  0  0  0  0  0
  -21.6855   -6.0736   22.5279 C   0  0  0  0  0  0
  -21.4019   -6.5639   23.8213 C   0  0  0  0  0  0
  -21.3659   -5.6789   24.9173 C   0  0  0  0  0  0
  -21.6044   -4.3052   24.7222 C   0  0  0  0  0  0
  -21.8821   -3.8143   23.4343 C   0  0  0  0  0  0
  -21.9194   -4.6961   22.3399 C   0  0  0  0  0  0
  -22.7855  -13.5241   21.1847 C   0  0  0  0  0  0
  -22.1663   -4.2145   21.0975 F   0  0  0  0  0  0
  -21.5621   -3.4539   25.7737 F   0  0  0  0  0  0
  -30.0188  -13.4024   20.4431 N   0  0  0  0  0  0
  -26.3001  -12.9359   20.3342 N   0  0  0  0  0  0
  -25.9334  -11.6513   20.5767 N   0  0  0  0  0  0
  -22.0487  -12.8248   22.0409 N   0  0  0  0  0  0
  -25.4256  -15.1878   20.4041 N   0  0  0  0  0  0
  -31.7803  -14.7944   20.1022 O   0  0  0  0  0  0
  -21.6640   -6.8883   21.4243 O   0  0  0  0  0  0
  -22.3545  -14.5545   20.6688 O   0  0  0  0  0  0
  -24.6264  -31.8606   23.2046 C   0  0  0  0  0  0
  -25.9114  -32.4780   23.8371 C   0  0  1  0  0  0
  -27.2219  -27.3227   20.1147 C   0  0  0  0  0  0
  -25.5930  -33.8579   24.2296 N   0  0  0  0  0  0
  -23.4197  -30.4862   21.5474 C   0  0  2  0  0  0
  -24.8654  -28.9468   20.1111 C   0  0  0  0  0  0
  -22.7479  -29.4622   22.4936 C   0  0  0  0  0  0
  -18.0292  -28.1384   22.8484 C   0  0  0  0  0  0
  -24.1489  -36.7297   23.2638 C   0  0  0  0  0  0
  -25.9616  -30.7941   21.3746 C   0  0  0  0  0  0
  -26.0363  -29.4228   20.7151 C   0  0  0  0  0  0
  -27.2185  -28.6235   20.7070 C   0  0  0  0  0  0
  -26.0241  -26.9032   19.4862 C   0  0  0  0  0  0
  -24.8615  -27.6923   19.4873 C   0  0  0  0  0  0
  -23.6340  -29.8261   20.1611 C   0  0  0  0  0  0
  -25.4109  -36.3081   24.0334 C   0  0  1  0  0  0
  -20.5889  -28.3688   23.1280 C   0  0  2  0  0  0
  -20.6781  -26.9411   22.5407 C   0  0  0  0  0  0
  -19.5753  -26.6378   21.5213 C   0  0  0  0  0  0
  -18.1935  -26.7928   22.1625 C   0  0  0  0  0  0
  -19.1544  -28.8854   23.2877 C   0  0  0  0  0  0
  -18.9462  -30.1456   23.8897 C   0  0  0  0  0  0
  -17.6460  -30.6582   24.0564 C   0  0  0  0  0  0
  -25.9046  -34.9451   23.5113 C   0  0  0  0  0  0
  -16.5354  -29.9080   23.6327 C   0  0  0  0  0  0
  -16.7277  -28.6497   23.0349 C   0  0  0  0  0  0
  -26.4495  -31.6582   25.0733 C   0  0  0  0  0  0
  -25.3730  -31.3733   26.1466 C   0  0  0  0  0  0
  -27.0327  -30.3003   24.6180 C   0  0  0  0  0  0
  -27.6071  -32.4299   25.7489 C   0  0  0  0  0  0
  -27.5578  -37.1800   24.8460 C   0  0  0  0  0  0
  -21.4193  -29.3042   22.3675 N   0  0  0  0  0  0
  -26.4286  -37.3774   23.9411 N   0  0  0  0  0  0
  -24.6882  -31.0628   22.0994 N   0  0  0  0  0  0
  -23.4206  -28.8154   23.3005 O   0  0  0  0  0  0
  -28.3308  -26.4610   20.1668 O   0  0  0  0  0  0
  -26.5607  -34.8914   22.4674 O   0  0  0  0  0  0
  -23.5427  -32.1396   23.7380 O   0  0  0  0  0  0
  -28.8942  -19.3634   21.2396 C   0  0  0  0  0  0
  -30.8963  -17.8006   20.0620 C   0  0  0  0  0  0
  -28.8889  -17.9388   21.4072 C   0  0  0  0  0  0
  -29.8858  -20.0386   20.4864 C   0  0  0  0  0  0
  -29.9009  -17.1163   20.8112 C   0  0  0  0  0  0
  -30.8896  -19.2167   19.9080 C   0  0  0  0  0  0
  -29.1957  -23.9859   20.3320 C   0  0  0  0  0  0
  -26.4476  -18.0238   22.2993 C   0  0  0  0  0  0
  -27.8028  -17.2966   22.2785 C   0  0  0  0  0  0
  -28.8495  -22.4542   20.5484 C   0  0  0  0  0  0
  -28.0266  -25.0111   20.0819 C   0  0  0  0  0  0
  -29.8486  -15.6568   20.9713 N   0  0  0  0  0  0
  -29.9443  -21.4616   20.3075 N   0  0  0  0  0  0
  -30.3750  -24.3564   20.3349 O   0  0  0  0  0  0
  -31.8744  -19.8022   19.1818 F   0  0  0  0  0  0
  -31.4806  -12.5111   19.1544 H   0  0  0  0  0  0
  -30.3694  -11.3895   19.8871 H   0  0  0  0  0  0
  -29.7717  -11.7724   17.4741 H   0  0  0  0  0  0
  -29.6583  -13.4915   17.7572 H   0  0  0  0  0  0
  -27.8576  -11.3039   18.8485 H   0  0  0  0  0  0
  -27.3822  -12.6074   17.7931 H   0  0  0  0  0  0
  -27.6788  -14.2583   19.5439 H   0  0  0  0  0  0
  -28.7070  -12.0302   21.3653 H   0  0  0  0  0  0
  -28.4422  -13.6732   21.8626 H   0  0  0  0  0  0
  -25.2768   -9.5682   22.4757 H   0  0  0  0  0  0
  -23.9999   -7.4636   22.7465 H   0  0  0  0  0  0
  -21.0831   -8.8790   19.8958 H   0  0  0  0  0  0
  -22.3695  -10.9684   19.6171 H   0  0  0  0  0  0
  -21.2021   -7.6151   23.9717 H   0  0  0  0  0  0
  -21.1472   -6.0517   25.9074 H   0  0  0  0  0  0
  -22.0599   -2.7604   23.2847 H   0  0  0  0  0  0
  -22.4097  -11.9917   22.4818 H   0  0  0  0  0  0
  -21.1108  -13.1285   22.2601 H   0  0  0  0  0  0
  -24.6587  -15.8411   20.5187 H   0  0  0  0  0  0
  -26.2690  -15.6265   20.0593 H   0  0  0  0  0  0
  -26.7184  -32.5455   23.1124 H   0  0  0  0  0  0
  -25.0085  -33.9723   25.0446 H   0  0  0  0  0  0
  -22.7127  -31.3064   21.4075 H   0  0  0  0  0  0
  -23.3742  -35.9637   23.3298 H   0  0  0  0  0  0
  -24.3586  -36.8917   22.2053 H   0  0  0  0  0  0
  -23.7249  -37.6505   23.6654 H   0  0  0  0  0  0
  -26.0920  -31.5584   20.6073 H   0  0  0  0  0  0
  -26.8425  -30.8427   22.0030 H   0  0  0  0  0  0
  -28.1150  -28.9840   21.1919 H   0  0  0  0  0  0
  -25.9461  -25.9484   18.9899 H   0  0  0  0  0  0
  -23.9651  -27.3228   19.0078 H   0  0  0  0  0  0
  -23.7544  -30.6055   19.4076 H   0  0  0  0  0  0
  -22.7539  -29.2572   19.8559 H   0  0  0  0  0  0
  -25.1285  -36.1940   25.0826 H   0  0  0  0  0  0
  -20.9985  -28.3272   24.1401 H   0  0  0  0  0  0
  -20.5686  -26.2304   23.3611 H   0  0  0  0  0  0
  -21.6652  -26.7444   22.1201 H   0  0  0  0  0  0
  -19.6916  -25.6288   21.1244 H   0  0  0  0  0  0
  -19.6687  -27.3190   20.6746 H   0  0  0  0  0  0
  -17.4204  -26.6674   21.4028 H   0  0  0  0  0  0
  -18.0332  -26.0069   22.9019 H   0  0  0  0  0  0
  -19.7936  -30.7274   24.2268 H   0  0  0  0  0  0
  -17.5011  -31.6264   24.5163 H   0  0  0  0  0  0
  -15.5353  -30.2982   23.7642 H   0  0  0  0  0  0
  -15.8680  -28.0813   22.7065 H   0  0  0  0  0  0
  -24.5895  -30.7088   25.7805 H   0  0  0  0  0  0
  -24.8933  -32.2906   26.4890 H   0  0  0  0  0  0
  -25.8052  -30.8910   27.0242 H   0  0  0  0  0  0
  -26.2900  -29.6758   24.1200 H   0  0  0  0  0  0
  -27.4026  -29.7255   25.4681 H   0  0  0  0  0  0
  -27.8771  -30.4291   23.9404 H   0  0  0  0  0  0
  -27.2708  -33.3606   26.2069 H   0  0  0  0  0  0
  -28.3875  -32.6839   25.0303 H   0  0  0  0  0  0
  -28.0739  -31.8414   26.5396 H   0  0  0  0  0  0
  -28.2596  -38.0097   24.7504 H   0  0  0  0  0  0
  -28.1072  -36.2630   24.6278 H   0  0  0  0  0  0
  -27.2302  -37.1449   25.8865 H   0  0  0  0  0  0
  -20.9371  -29.8778   21.6898 H   0  0  0  0  0  0
  -26.0169  -38.2849   24.1407 H   0  0  0  0  0  0
  -28.1337  -19.9622   21.7128 H   0  0  0  0  0  0
  -31.6908  -17.2511   19.5822 H   0  0  0  0  0  0
  -25.7208  -17.4518   22.8769 H   0  0  0  0  0  0
  -26.0450  -18.1421   21.2930 H   0  0  0  0  0  0
  -26.5078  -19.0073   22.7637 H   0  0  0  0  0  0
  -28.1891  -17.2180   23.2956 H   0  0  0  0  0  0
  -27.6085  -16.2765   21.9505 H   0  0  0  0  0  0
  -28.0012  -22.2058   19.9098 H   0  0  0  0  0  0
  -28.5021  -22.3464   21.5765 H   0  0  0  0  0  0
  -27.2239  -24.7723   20.7808 H   0  0  0  0  0  0
  -27.6576  -24.7887   19.0809 H   0  0  0  0  0  0
  -28.9914  -15.3207   21.3805 H   0  0  0  0  0  0
  -30.7241  -21.8069   19.7526 H   0  0  0  0  0  0
  1 25  1  0  0  0
  1 30  2  0  0  0
  1 82  1  0  0  0
  2  3  1  0  0  0
  2 25  1  0  0  0
  2 86  1  0  0  0
  2 87  1  0  0  0
  3  4  1  0  0  0
  3 88  1  0  0  0
  3 89  1  0  0  0
  4  5  1  0  0  0
  4 90  1  0  0  0
  4 91  1  0  0  0
  5  6  1  0  0  0
  5 26  1  0  0  0
  5 92  1  0  0  0
  6 25  1  0  0  0
  6 93  1  0  0  0
  6 94  1  0  0  0
  7  8  2  0  0  0
  7 26  1  0  0  0
  7 29  1  0  0  0
  8  9  1  0  0  0
  8 22  1  0  0  0
  9 10  1  0  0  0
  9 27  2  0  0  0
 10 11  2  0  0  0
 10 15  1  0  0  0
 11 12  1  0  0  0
 11 95  1  0  0  0
 12 13  2  0  0  0
 12 96  1  0  0  0
 13 14  1  0  0  0
 13 31  1  0  0  0
 14 15  2  0  0  0
 14 97  1  0  0  0
 15 98  1  0  0  0
 16 17  2  0  0  0
 16 21  1  0  0  0
 16 31  1  0  0  0
 17 18  1  0  0  0
 17 99  1  0  0  0
 18 19  2  0  0  0
 18100  1  0  0  0
 19 20  1  0  0  0
 19 24  1  0  0  0
 20 21  2  0  0  0
 20101  1  0  0  0
 21 23  1  0  0  0
 22 28  1  0  0  0
 22 32  2  0  0  0
 26 27  1  0  0  0
 28102  1  0  0  0
 28103  1  0  0  0
 29104  1  0  0  0
 29105  1  0  0  0
 33 34  1  0  0  0
 33 66  1  0  0  0
 33 70  2  0  0  0
 34 36  1  0  0  0
 34 59  1  0  0  0
 34106  1  0  0  0
 35 44  2  0  0  0
 35 45  1  0  0  0
 35 68  1  0  0  0
 36 56  1  0  0  0
 36107  1  0  0  0
 37 39  1  0  0  0
 37 47  1  0  0  0
 37 66  1  0  0  0
 37108  1  0  0  0
 38 43  2  0  0  0
 38 46  1  0  0  0
 38 47  1  0  0  0
 39 64  1  0  0  0
 39 67  2  0  0  0
 40 52  1  0  0  0
 40 53  2  0  0  0
 40 58  1  0  0  0
 41109  1  0  0  0
 41110  1  0  0  0
 41111  1  0  0  0
 41 48  1  0  0  0
 42 43  1  0  0  0
 42 66  1  0  0  0
 42112  1  0  0  0
 42113  1  0  0  0
 43 44  1  0  0  0
 44114  1  0  0  0
 45 46  2  0  0  0
 45115  1  0  0  0
 46116  1  0  0  0
 47117  1  0  0  0
 47118  1  0  0  0
 48 56  1  0  0  0
 48 65  1  0  0  0
 48119  1  0  0  0
 49 50  1  0  0  0
 49 53  1  0  0  0
 49 64  1  0  0  0
 49120  1  0  0  0
 50 51  1  0  0  0
 50121  1  0  0  0
 50122  1  0  0  0
 51 52  1  0  0  0
 51123  1  0  0  0
 51124  1  0  0  0
 52125  1  0  0  0
 52126  1  0  0  0
 53 54  1  0  0  0
 54 55  2  0  0  0
 54127  1  0  0  0
 55 57  1  0  0  0
 55128  1  0  0  0
 56 69  2  0  0  0
 57 58  2  0  0  0
 57129  1  0  0  0
 58130  1  0  0  0
 59 60  1  0  0  0
 59 61  1  0  0  0
 59 62  1  0  0  0
 60131  1  0  0  0
 60132  1  0  0  0
 60133  1  0  0  0
 61134  1  0  0  0
 61135  1  0  0  0
 61136  1  0  0  0
 62137  1  0  0  0
 62138  1  0  0  0
 62139  1  0  0  0
 63 65  1  0  0  0
 63140  1  0  0  0
 63141  1  0  0  0
 63142  1  0  0  0
 64143  1  0  0  0
 65144  1  0  0  0
 68 81  1  0  0  0
 71 73  2  0  0  0
 71 74  1  0  0  0
 71145  1  0  0  0
 72 75  2  0  0  0
 72 76  1  0  0  0
 72146  1  0  0  0
 73 75  1  0  0  0
 73 79  1  0  0  0
 74 76  2  0  0  0
 74 83  1  0  0  0
 75 82  1  0  0  0
 76 85  1  0  0  0
 77 80  1  0  0  0
 77 81  1  0  0  0
 77 84  2  0  0  0
 78 79  1  0  0  0
 78147  1  0  0  0
 78148  1  0  0  0
 78149  1  0  0  0
 79150  1  0  0  0
 79151  1  0  0  0
 80 83  1  0  0  0
 80152  1  0  0  0
 80153  1  0  0  0
 81154  1  0  0  0
 81155  1  0  0  0
 82156  1  0  0  0
 83157  1  0  0  0
M  ISO  4   1 100  68 101  81 101  82 100
M  END
> <chiral flag>
0

> <version>
0

> <s_m_source_file>
/data/baiqing/PycharmProjects/Reinvent-master-3.2/result/LINK_invent/BTK/process_docking_weight1_custom_product_contain_oxygen_bond_distance_aromatic_linkinvent_7_9_3/rearranged_h_0155.sdf

> <i_m_source_file_index>
14

> <r_mmod_Potential_Energy-OPLS-2005>
81.0608062744141

> <r_mmod_Stretch_Energy-OPLS-2005>
79.3972015380859

> <r_mmod_Bend_Energy-OPLS-2005>
145.527267456055

> <r_mmod_Torsional_Energy-OPLS-2005>
202.742782592773

> <r_mmod_Improper_Torsional_Energy-OPLS-2005>
4.1017279624939

> <r_mmod_Van_der_Waal_Energy-OPLS-2005>
147.260055541992

> <r_mmod_Electrostatic_Energy-OPLS-2005>
-308.358734130859

> <r_mmod_Solvation_Energy-OPLS-2005>
-235.422698974609

> <b_mmod_Minimization_Converged-OPLS-2005>
0

> <r_mmod_RMS_Derivative-OPLS-2005>
1.057901263237

$$$$
14
                    3D
 Structure written by MMmdl.
172181  0  0  1  0            999 V2000
  -30.5913  -14.6215   20.5629 C   0  0  0  0  0  0
  -30.4396  -12.3929   19.4578 C   0  0  0  0  0  0
  -29.5096  -12.5161   18.2299 C   0  0  0  0  0  0
  -28.0308  -12.3469   18.6363 C   0  0  0  0  0  0
  -27.6532  -13.2077   19.8711 C   0  0  2  0  0  0
  -28.6862  -13.0263   21.0038 C   0  0  0  0  0  0
  -25.2562  -13.8171   20.5656 C   0  0  0  0  0  0
  -24.1801  -13.0426   20.9179 C   0  0  0  0  0  0
  -24.6366  -11.6909   20.8730 C   0  0  0  0  0  0
  -23.9041  -10.4278   21.0411 C   0  0  0  0  0  0
  -24.3605   -9.4204   21.9185 C   0  0  0  0  0  0
  -23.6285   -8.2231   22.0754 C   0  0  0  0  0  0
  -22.4270   -8.0264   21.3541 C   0  0  0  0  0  0
  -21.9899   -9.0238   20.4645 C   0  0  0  0  0  0
  -22.7225  -10.2116   20.3057 C   0  0  0  0  0  0
  -21.6850   -6.0727   22.5284 C   0  0  0  0  0  0
  -21.4008   -6.5633   23.8211 C   0  0  0  0  0  0
  -21.3658   -5.6788   24.9178 C   0  0  0  0  0  0
  -21.6042   -4.3052   24.7223 C   0  0  0  0  0  0
  -21.8820   -3.8146   23.4346 C   0  0  0  0  0  0
  -21.9184   -4.6953   22.3409 C   0  0  0  0  0  0
  -22.7837  -13.5249   21.1850 C   0  0  0  0  0  0
  -22.1655   -4.2141   21.0980 F   0  0  0  0  0  0
  -21.5632   -3.4545   25.7738 F   0  0  0  0  0  0
  -30.0044  -13.3872   20.4599 N   0  0  0  0  0  0
  -26.2968  -12.9309   20.3331 N   0  0  0  0  0  0
  -25.9281  -11.6477   20.5755 N   0  0  0  0  0  0
  -22.0476  -12.8206   22.0406 N   0  0  0  0  0  0
  -25.4276  -15.1875   20.4045 N   0  0  0  0  0  0
  -31.7347  -14.8174   20.1332 O   0  0  0  0  0  0
  -21.6633   -6.8862   21.4241 O   0  0  0  0  0  0
  -22.3518  -14.5550   20.6719 O   0  0  0  0  0  0
  -24.6288  -31.8578   23.2037 C   0  0  0  0  0  0
  -25.9115  -32.4777   23.8337 C   0  0  1  0  0  0
  -27.2249  -27.2970   20.1193 C   0  0  0  0  0  0
  -25.5967  -33.8592   24.2251 N   0  0  0  0  0  0
  -23.4239  -30.4849   21.5442 C   0  0  2  0  0  0
  -24.8712  -28.9419   20.1032 C   0  0  0  0  0  0
  -22.7478  -29.4629   22.4889 C   0  0  0  0  0  0
  -18.0276  -28.1386   22.8500 C   0  0  0  0  0  0
  -24.1469  -36.7263   23.2651 C   0  0  0  0  0  0
  -25.9684  -30.7821   21.3783 C   0  0  0  0  0  0
  -26.0383  -29.4082   20.7177 C   0  0  0  0  0  0
  -27.2159  -28.5984   20.7168 C   0  0  0  0  0  0
  -26.0348  -26.8974   19.4665 C   0  0  0  0  0  0
  -24.8724  -27.6942   19.4628 C   0  0  0  0  0  0
  -23.6417  -29.8287   20.1546 C   0  0  0  0  0  0
  -25.4093  -36.3071   24.0332 C   0  0  1  0  0  0
  -20.5898  -28.3707   23.1274 C   0  0  2  0  0  0
  -20.6778  -26.9432   22.5398 C   0  0  0  0  0  0
  -19.5756  -26.6392   21.5205 C   0  0  0  0  0  0
  -18.1927  -26.7933   22.1628 C   0  0  0  0  0  0
  -19.1549  -28.8861   23.2895 C   0  0  0  0  0  0
  -18.9498  -30.1476   23.8901 C   0  0  0  0  0  0
  -17.6509  -30.6607   24.0598 C   0  0  0  0  0  0
  -25.9047  -34.9464   23.5079 C   0  0  0  0  0  0
  -16.5382  -29.9125   23.6356 C   0  0  0  0  0  0
  -16.7272  -28.6549   23.0349 C   0  0  0  0  0  0
  -26.4501  -31.6614   25.0715 C   0  0  0  0  0  0
  -25.3751  -31.3780   26.1466 C   0  0  0  0  0  0
  -27.0362  -30.3053   24.6162 C   0  0  0  0  0  0
  -27.6075  -32.4378   25.7451 C   0  0  0  0  0  0
  -27.5567  -37.1765   24.8474 C   0  0  0  0  0  0
  -21.4193  -29.3085   22.3673 N   0  0  0  0  0  0
  -26.4242  -37.3798   23.9470 N   0  0  0  0  0  0
  -24.6920  -31.0595   22.0988 N   0  0  0  0  0  0
  -23.4196  -28.8140   23.2945 O   0  0  0  0  0  0
  -28.3512  -26.4457   20.2000 O   0  0  0  0  0  0
  -26.5611  -34.8949   22.4626 O   0  0  0  0  0  0
  -23.5437  -32.1375   23.7346 O   0  0  0  0  0  0
  -28.9333  -19.3090   21.6602 C   0  0  0  0  0  0
  -30.7945  -19.2281   20.1777 C   0  0  0  0  0  0
  -28.8903  -17.8792   21.6670 C   0  0  0  0  0  0
  -30.7761  -17.8035   20.2036 C   0  0  0  0  0  0
  -29.9212  -20.0547   20.9541 C   0  0  0  0  0  0
  -29.8414  -17.0794   20.9770 C   0  0  0  0  0  0
  -31.3745  -21.8210   22.2011 C   0  0  0  0  0  0
  -32.2710  -23.0169   21.8382 C   0  0  0  0  0  0
  -31.1113  -23.3475   19.6133 C   0  0  0  0  0  0
  -30.1334  -21.6124   21.2928 C   0  0  1  0  0  0
  -32.5039  -23.1500   20.3214 C   0  0  0  0  0  0
  -33.2580  -21.9412   19.7336 C   0  0  0  0  0  0
  -33.4814  -24.3243   20.0747 C   0  0  0  0  0  0
  -28.4906  -24.6829   18.4642 C   0  0  0  0  0  0
  -29.0241  -23.9519   20.9277 C   0  0  0  0  0  0
  -28.2406  -24.9746   19.9551 C   0  0  1  0  0  0
  -29.7875  -15.6173   21.0560 N   0  0  0  0  0  0
  -29.8767  -22.8002   20.3300 N   0  3  1  0  0  0
  -31.4802  -12.5370   19.1624 H   0  0  0  0  0  0
  -30.3879  -11.3891   19.8804 H   0  0  0  0  0  0
  -29.7784  -11.7700   17.4809 H   0  0  0  0  0  0
  -29.6500  -13.4897   17.7584 H   0  0  0  0  0  0
  -27.8701  -11.2910   18.8600 H   0  0  0  0  0  0
  -27.3772  -12.5824   17.7954 H   0  0  0  0  0  0
  -27.6837  -14.2493   19.5507 H   0  0  0  0  0  0
  -28.6964  -11.9927   21.3513 H   0  0  0  0  0  0
  -28.4182  -13.6199   21.8790 H   0  0  0  0  0  0
  -25.2756   -9.5669   22.4757 H   0  0  0  0  0  0
  -23.9993   -7.4622   22.7469 H   0  0  0  0  0  0
  -21.0833   -8.8751   19.8949 H   0  0  0  0  0  0
  -22.3696  -10.9646   19.6156 H   0  0  0  0  0  0
  -21.2005   -7.6135   23.9712 H   0  0  0  0  0  0
  -21.1483   -6.0522   25.9077 H   0  0  0  0  0  0
  -22.0599   -2.7608   23.2853 H   0  0  0  0  0  0
  -22.4087  -11.9873   22.4789 H   0  0  0  0  0  0
  -21.1089  -13.1209   22.2602 H   0  0  0  0  0  0
  -24.6603  -15.8432   20.5063 H   0  0  0  0  0  0
  -26.2751  -15.6248   20.0631 H   0  0  0  0  0  0
  -26.7184  -32.5429   23.1076 H   0  0  0  0  0  0
  -25.0247  -33.9756   25.0484 H   0  0  0  0  0  0
  -22.7232  -31.3096   21.4005 H   0  0  0  0  0  0
  -23.3757  -35.9582   23.3311 H   0  0  0  0  0  0
  -24.3559  -36.8847   22.2066 H   0  0  0  0  0  0
  -23.7182  -37.6459   23.6642 H   0  0  0  0  0  0
  -26.0972  -31.5454   20.6079 H   0  0  0  0  0  0
  -26.8513  -30.8294   22.0034 H   0  0  0  0  0  0
  -28.1087  -28.9471   21.2159 H   0  0  0  0  0  0
  -25.9578  -25.9527   18.9508 H   0  0  0  0  0  0
  -23.9843  -27.3362   18.9598 H   0  0  0  0  0  0
  -23.7694  -30.6148   19.4090 H   0  0  0  0  0  0
  -22.7590  -29.2693   19.8385 H   0  0  0  0  0  0
  -25.1244  -36.1908   25.0819 H   0  0  0  0  0  0
  -21.0009  -28.3261   24.1381 H   0  0  0  0  0  0
  -20.5689  -26.2308   23.3590 H   0  0  0  0  0  0
  -21.6638  -26.7451   22.1197 H   0  0  0  0  0  0
  -19.6957  -25.6310   21.1236 H   0  0  0  0  0  0
  -19.6706  -27.3220   20.6755 H   0  0  0  0  0  0
  -17.4203  -26.6712   21.4019 H   0  0  0  0  0  0
  -18.0343  -26.0030   22.8982 H   0  0  0  0  0  0
  -19.7988  -30.7311   24.2224 H   0  0  0  0  0  0
  -17.5066  -31.6286   24.5217 H   0  0  0  0  0  0
  -15.5402  -30.3069   23.7659 H   0  0  0  0  0  0
  -15.8639  -28.0909   22.7025 H   0  0  0  0  0  0
  -24.5932  -30.7090   25.7835 H   0  0  0  0  0  0
  -24.8953  -32.2975   26.4868 H   0  0  0  0  0  0
  -25.8089  -30.9006   27.0265 H   0  0  0  0  0  0
  -26.2938  -29.6809   24.1191 H   0  0  0  0  0  0
  -27.4094  -29.7290   25.4648 H   0  0  0  0  0  0
  -27.8768  -30.4366   23.9339 H   0  0  0  0  0  0
  -27.2701  -33.3718   26.1956 H   0  0  0  0  0  0
  -28.3891  -32.6891   25.0263 H   0  0  0  0  0  0
  -28.0727  -31.8562   26.5412 H   0  0  0  0  0  0
  -28.2556  -38.0109   24.7586 H   0  0  0  0  0  0
  -28.1062  -36.2623   24.6144 H   0  0  0  0  0  0
  -27.2308  -37.1242   25.8891 H   0  0  0  0  0  0
  -20.9333  -29.8837   21.6930 H   0  0  0  0  0  0
  -26.0098  -38.2840   24.1592 H   0  0  0  0  0  0
  -28.2129  -19.8326   22.2742 H   0  0  0  0  0  0
  -31.5625  -19.6015   19.5458 H   0  0  0  0  0  0
  -28.1183  -17.4011   22.2546 H   0  0  0  0  0  0
  -31.5159  -17.2737   19.6226 H   0  0  0  0  0  0
  -31.0497  -21.9271   23.2397 H   0  0  0  0  0  0
  -31.9861  -20.9177   22.1956 H   0  0  0  0  0  0
  -33.2154  -22.9310   22.3780 H   0  0  0  0  0  0
  -31.8059  -23.9357   22.2061 H   0  0  0  0  0  0
  -31.1483  -22.9435   18.5931 H   0  0  0  0  0  0
  -30.9914  -24.4227   19.4528 H   0  0  0  0  0  0
  -29.3163  -21.7355   22.0020 H   0  0  0  0  0  0
  -32.5590  -21.1815   19.4814 H   0  0  0  0  0  0
  -34.0012  -21.5154   20.4098 H   0  0  0  0  0  0
  -33.7572  -22.1560   18.7869 H   0  0  0  0  0  0
  -33.1493  -25.2604   20.5196 H   0  0  0  0  0  0
  -33.6446  -24.4982   19.0078 H   0  0  0  0  0  0
  -34.4636  -24.1001   20.5026 H   0  0  0  0  0  0
  -28.5078  -23.6136   18.2611 H   0  0  0  0  0  0
  -29.4377  -25.1024   18.1306 H   0  0  0  0  0  0
  -27.7102  -25.0978   17.8330 H   0  0  0  0  0  0
  -28.2176  -23.4840   21.5057 H   0  0  0  0  0  0
  -29.5795  -24.5043   21.6950 H   0  0  0  0  0  0
  -27.1986  -24.7047   20.1329 H   0  0  0  0  0  0
  -28.9411  -15.2555   21.4718 H   0  0  0  0  0  0
  -29.2866  -22.4041   19.6119 H   0  0  0  0  0  0
  1 25  1  0  0  0
  1 30  2  0  0  0
  1 87  1  0  0  0
  2  3  1  0  0  0
  2 25  1  0  0  0
  2 89  1  0  0  0
  2 90  1  0  0  0
  3  4  1  0  0  0
  3 91  1  0  0  0
  3 92  1  0  0  0
  4  5  1  0  0  0
  4 93  1  0  0  0
  4 94  1  0  0  0
  5  6  1  0  0  0
  5 26  1  0  0  0
  5 95  1  0  0  0
  6 25  1  0  0  0
  6 96  1  0  0  0
  6 97  1  0  0  0
  7  8  2  0  0  0
  7 26  1  0  0  0
  7 29  1  0  0  0
  8  9  1  0  0  0
  8 22  1  0  0  0
  9 10  1  0  0  0
  9 27  2  0  0  0
 10 11  2  0  0  0
 10 15  1  0  0  0
 11 12  1  0  0  0
 11 98  1  0  0  0
 12 13  2  0  0  0
 12 99  1  0  0  0
 13 14  1  0  0  0
 13 31  1  0  0  0
 14 15  2  0  0  0
 14100  1  0  0  0
 15101  1  0  0  0
 16 17  2  0  0  0
 16 21  1  0  0  0
 16 31  1  0  0  0
 17 18  1  0  0  0
 17102  1  0  0  0
 18 19  2  0  0  0
 18103  1  0  0  0
 19 20  1  0  0  0
 19 24  1  0  0  0
 20 21  2  0  0  0
 20104  1  0  0  0
 21 23  1  0  0  0
 22 28  1  0  0  0
 22 32  2  0  0  0
 26 27  1  0  0  0
 28105  1  0  0  0
 28106  1  0  0  0
 29107  1  0  0  0
 29108  1  0  0  0
 33 34  1  0  0  0
 33 66  1  0  0  0
 33 70  2  0  0  0
 34 36  1  0  0  0
 34 59  1  0  0  0
 34109  1  0  0  0
 35 44  2  0  0  0
 35 45  1  0  0  0
 35 68  1  0  0  0
 36 56  1  0  0  0
 36110  1  0  0  0
 37 39  1  0  0  0
 37 47  1  0  0  0
 37 66  1  0  0  0
 37111  1  0  0  0
 38 43  2  0  0  0
 38 46  1  0  0  0
 38 47  1  0  0  0
 39 64  1  0  0  0
 39 67  2  0  0  0
 40 52  1  0  0  0
 40 53  2  0  0  0
 40 58  1  0  0  0
 41112  1  0  0  0
 41113  1  0  0  0
 41114  1  0  0  0
 41 48  1  0  0  0
 42 43  1  0  0  0
 42 66  1  0  0  0
 42115  1  0  0  0
 42116  1  0  0  0
 43 44  1  0  0  0
 44117  1  0  0  0
 45 46  2  0  0  0
 45118  1  0  0  0
 46119  1  0  0  0
 47120  1  0  0  0
 47121  1  0  0  0
 48 56  1  0  0  0
 48 65  1  0  0  0
 48122  1  0  0  0
 49 50  1  0  0  0
 49 53  1  0  0  0
 49 64  1  0  0  0
 49123  1  0  0  0
 50 51  1  0  0  0
 50124  1  0  0  0
 50125  1  0  0  0
 51 52  1  0  0  0
 51126  1  0  0  0
 51127  1  0  0  0
 52128  1  0  0  0
 52129  1  0  0  0
 53 54  1  0  0  0
 54 55  2  0  0  0
 54130  1  0  0  0
 55 57  1  0  0  0
 55131  1  0  0  0
 56 69  2  0  0  0
 57 58  2  0  0  0
 57132  1  0  0  0
 58133  1  0  0  0
 59 60  1  0  0  0
 59 61  1  0  0  0
 59 62  1  0  0  0
 60134  1  0  0  0
 60135  1  0  0  0
 60136  1  0  0  0
 61137  1  0  0  0
 61138  1  0  0  0
 61139  1  0  0  0
 62140  1  0  0  0
 62141  1  0  0  0
 62142  1  0  0  0
 63 65  1  0  0  0
 63143  1  0  0  0
 63144  1  0  0  0
 63145  1  0  0  0
 64146  1  0  0  0
 65147  1  0  0  0
 68 86  1  0  0  0
 71 73  2  0  0  0
 71 75  1  0  0  0
 71148  1  0  0  0
 72 74  1  0  0  0
 72 75  2  0  0  0
 72149  1  0  0  0
 73 76  1  0  0  0
 73150  1  0  0  0
 74 76  2  0  0  0
 74151  1  0  0  0
 75 80  1  0  0  0
 76 87  1  0  0  0
 77 78  1  0  0  0
 77 80  1  0  0  0
 77152  1  0  0  0
 77153  1  0  0  0
 78 81  1  0  0  0
 78154  1  0  0  0
 78155  1  0  0  0
 79 81  1  0  0  0
 79 88  1  0  0  0
 79156  1  0  0  0
 79157  1  0  0  0
 80 88  1  0  0  0
 80158  1  0  0  0
 81 82  1  0  0  0
 81 83  1  0  0  0
 82159  1  0  0  0
 82160  1  0  0  0
 82161  1  0  0  0
 83162  1  0  0  0
 83163  1  0  0  0
 83164  1  0  0  0
 84165  1  0  0  0
 84166  1  0  0  0
 84167  1  0  0  0
 84 86  1  0  0  0
 85 86  1  0  0  0
 85168  1  0  0  0
 85169  1  0  0  0
 85 88  1  0  0  0
 86170  1  0  0  0
 87171  1  0  0  0
 88172  1  0  0  0
M  CHG  1  88   1
M  ISO  4   1 100  68 101  86 101  87 100
M  END
> <chiral flag>
0

> <version>
0

> <s_m_source_file>
/data/baiqing/PycharmProjects/Reinvent-master-3.2/result/LINK_invent/BTK/process_docking_weight1_custom_product_contain_oxygen_bond_distance_aromatic_linkinvent_7_9_3/rearranged_h_0155.sdf

> <i_m_source_file_index>
15

> <r_mmod_Potential_Energy-OPLS-2005>
183.390655517578

> <r_mmod_Stretch_Energy-OPLS-2005>
117.357460021973

> <r_mmod_Bend_Energy-OPLS-2005>
208.14990234375

> <r_mmod_Torsional_Energy-OPLS-2005>
318.665649414062

> <r_mmod_Improper_Torsional_Energy-OPLS-2005>
4.83382892608643

> <r_mmod_Van_der_Waal_Energy-OPLS-2005>
173.580810546875

> <r_mmod_Electrostatic_Energy-OPLS-2005>
-282.002319335938

> <r_mmod_Solvation_Energy-OPLS-2005>
-408.324432373047

> <b_mmod_Minimization_Converged-OPLS-2005>
0

> <r_mmod_RMS_Derivative-OPLS-2005>
6.97398710250854

$$$$
15
                    3D
 Structure written by MMmdl.
152160  0  0  1  0            999 V2000
  -30.6118  -14.6907   20.4605 C   0  0  0  0  0  0
  -30.4188  -12.4129   19.4475 C   0  0  0  0  0  0
  -29.4896  -12.4673   18.2154 C   0  0  0  0  0  0
  -28.0206  -12.2906   18.6447 C   0  0  0  0  0  0
  -27.6334  -13.2103   19.8315 C   0  0  2  0  0  0
  -28.6777  -13.1437   20.9673 C   0  0  0  0  0  0
  -25.2508  -13.8172   20.5655 C   0  0  0  0  0  0
  -24.1777  -13.0429   20.9171 C   0  0  0  0  0  0
  -24.6343  -11.6905   20.8722 C   0  0  0  0  0  0
  -23.9027  -10.4279   21.0414 C   0  0  0  0  0  0
  -24.3610   -9.4208   21.9182 C   0  0  0  0  0  0
  -23.6283   -8.2238   22.0754 C   0  0  0  0  0  0
  -22.4257   -8.0267   21.3543 C   0  0  0  0  0  0
  -21.9902   -9.0240   20.4635 C   0  0  0  0  0  0
  -22.7218  -10.2117   20.3045 C   0  0  0  0  0  0
  -21.6854   -6.0724   22.5268 C   0  0  0  0  0  0
  -21.4015   -6.5631   23.8210 C   0  0  0  0  0  0
  -21.3635   -5.6779   24.9166 C   0  0  0  0  0  0
  -21.6059   -4.3047   24.7220 C   0  0  0  0  0  0
  -21.8813   -3.8139   23.4344 C   0  0  0  0  0  0
  -21.9200   -4.6954   22.3399 C   0  0  0  0  0  0
  -22.7827  -13.5218   21.1873 C   0  0  0  0  0  0
  -22.1665   -4.2130   21.0986 F   0  0  0  0  0  0
  -21.5623   -3.4543   25.7750 F   0  0  0  0  0  0
  -29.9829  -13.4732   20.3833 N   0  0  0  0  0  0
  -26.2875  -12.9319   20.3170 N   0  0  0  0  0  0
  -25.9251  -11.6487   20.5719 N   0  0  0  0  0  0
  -22.0501  -12.8185   22.0451 N   0  0  0  0  0  0
  -25.4274  -15.1881   20.4055 N   0  0  0  0  0  0
  -31.8040  -14.7859   20.1557 O   0  0  0  0  0  0
  -21.6628   -6.8862   21.4226 O   0  0  0  0  0  0
  -22.3520  -14.5532   20.6750 O   0  0  0  0  0  0
  -24.6355  -31.8482   23.1883 C   0  0  0  0  0  0
  -25.9159  -32.4707   23.8260 C   0  0  1  0  0  0
  -27.2361  -27.2246   20.1505 C   0  0  0  0  0  0
  -25.5952  -33.8499   24.2163 N   0  0  0  0  0  0
  -23.4394  -30.4584   21.5256 C   0  0  2  0  0  0
  -24.9024  -28.8977   20.0972 C   0  0  0  0  0  0
  -22.7537  -29.4545   22.4841 C   0  0  0  0  0  0
  -18.0310  -28.1408   22.8468 C   0  0  0  0  0  0
  -24.1532  -36.7273   23.2646 C   0  0  0  0  0  0
  -25.9905  -30.7304   21.3964 C   0  0  0  0  0  0
  -26.0631  -29.3554   20.7338 C   0  0  0  0  0  0
  -27.2343  -28.5278   20.7508 C   0  0  0  0  0  0
  -26.0698  -26.8496   19.4546 C   0  0  0  0  0  0
  -24.9188  -27.6649   19.4239 C   0  0  0  0  0  0
  -23.6658  -29.7795   20.1449 C   0  0  0  0  0  0
  -25.4157  -36.3047   24.0324 C   0  0  1  0  0  0
  -20.5926  -28.3727   23.1213 C   0  0  2  0  0  0
  -20.6804  -26.9431   22.5370 C   0  0  0  0  0  0
  -19.5772  -26.6379   21.5188 C   0  0  0  0  0  0
  -18.1949  -26.7942   22.1604 C   0  0  0  0  0  0
  -19.1590  -28.8878   23.2826 C   0  0  0  0  0  0
  -18.9504  -30.1457   23.8848 C   0  0  0  0  0  0
  -17.6488  -30.6582   24.0553 C   0  0  0  0  0  0
  -25.9073  -34.9413   23.5052 C   0  0  0  0  0  0
  -16.5377  -29.9067   23.6383 C   0  0  0  0  0  0
  -16.7306  -28.6489   23.0353 C   0  0  0  0  0  0
  -26.4480  -31.6631   25.0719 C   0  0  0  0  0  0
  -25.3664  -31.3852   26.1422 C   0  0  0  0  0  0
  -27.0417  -30.3023   24.6383 C   0  0  0  0  0  0
  -27.5996  -32.4440   25.7488 C   0  0  0  0  0  0
  -27.5602  -37.1784   24.8454 C   0  0  0  0  0  0
  -21.4253  -29.3047   22.3601 N   0  0  0  0  0  0
  -26.4331  -37.3749   23.9386 N   0  0  0  0  0  0
  -24.7034  -31.0347   22.0906 N   0  0  0  0  0  0
  -23.4207  -28.8093   23.2971 O   0  0  0  0  0  0
  -28.3129  -26.3111   20.1869 O   0  0  0  0  0  0
  -26.5671  -34.8927   22.4631 O   0  0  0  0  0  0
  -23.5484  -32.1339   23.7108 O   0  0  0  0  0  0
  -31.3704  -17.6543   21.2941 C   0  0  0  0  0  0
  -29.2472  -18.3445   20.3819 C   0  0  0  0  0  0
  -30.1353  -17.2488   20.7436 C   0  0  0  0  0  0
  -31.6725  -19.0220   21.4244 C   0  0  0  0  0  0
  -29.6251  -19.7355   20.5625 C   0  0  0  0  0  0
  -28.6694  -23.6254   20.0693 C   0  0  0  0  0  0
  -28.8811  -22.2465   20.8810 C   0  0  0  0  0  0
  -28.0659  -24.9406   20.7857 C   0  0  0  0  0  0
  -30.8405  -20.0232   21.0771 N   0  0  0  0  0  0
  -32.9028  -19.4131   21.9289 N   0  0  0  0  0  0
  -29.8041  -15.8084   20.6334 N   0  0  0  0  0  0
  -28.8144  -20.8818   20.2081 N   0  0  0  0  0  0
  -28.9938  -23.6657   18.8790 O   0  0  0  0  0  0
  -31.4567  -12.5235   19.1359 H   0  0  0  0  0  0
  -30.3513  -11.4362   19.9291 H   0  0  0  0  0  0
  -29.7604  -11.6831   17.5051 H   0  0  0  0  0  0
  -29.6107  -13.4167   17.6895 H   0  0  0  0  0  0
  -27.8962  -11.2482   18.9415 H   0  0  0  0  0  0
  -27.3494  -12.4473   17.7983 H   0  0  0  0  0  0
  -27.6311  -14.2252   19.4316 H   0  0  0  0  0  0
  -28.7006  -12.1526   21.4207 H   0  0  0  0  0  0
  -28.4126  -13.8409   21.7648 H   0  0  0  0  0  0
  -25.2766   -9.5673   22.4744 H   0  0  0  0  0  0
  -23.9986   -7.4631   22.7475 H   0  0  0  0  0  0
  -21.0833   -8.8734   19.8952 H   0  0  0  0  0  0
  -22.3673  -10.9645   19.6138 H   0  0  0  0  0  0
  -21.2004   -7.6143   23.9693 H   0  0  0  0  0  0
  -21.1461   -6.0529   25.9066 H   0  0  0  0  0  0
  -22.0623   -2.7605   23.2862 H   0  0  0  0  0  0
  -22.4139  -11.9793   22.4725 H   0  0  0  0  0  0
  -21.1141  -13.1196   22.2736 H   0  0  0  0  0  0
  -24.6651  -15.8482   20.5091 H   0  0  0  0  0  0
  -26.2739  -15.6218   20.0648 H   0  0  0  0  0  0
  -26.7220  -32.5324   23.0989 H   0  0  0  0  0  0
  -25.0142  -33.9627   25.0336 H   0  0  0  0  0  0
  -22.7398  -31.2798   21.3623 H   0  0  0  0  0  0
  -23.3807  -35.9595   23.3316 H   0  0  0  0  0  0
  -24.3605  -36.8903   22.2056 H   0  0  0  0  0  0
  -23.7272  -37.6468   23.6674 H   0  0  0  0  0  0
  -26.1683  -31.4905   20.6357 H   0  0  0  0  0  0
  -26.8511  -30.7558   22.0539 H   0  0  0  0  0  0
  -28.1198  -28.8578   21.2705 H   0  0  0  0  0  0
  -26.0516  -25.9094   18.9192 H   0  0  0  0  0  0
  -24.0585  -27.3258   18.8561 H   0  0  0  0  0  0
  -23.7788  -30.5386   19.3719 H   0  0  0  0  0  0
  -22.7930  -29.1907   19.8549 H   0  0  0  0  0  0
  -25.1333  -36.1904   25.0813 H   0  0  0  0  0  0
  -20.9992  -28.3349   24.1336 H   0  0  0  0  0  0
  -20.5766  -26.2318   23.3578 H   0  0  0  0  0  0
  -21.6653  -26.7494   22.1095 H   0  0  0  0  0  0
  -19.6967  -25.6283   21.1240 H   0  0  0  0  0  0
  -19.6737  -27.3190   20.6715 H   0  0  0  0  0  0
  -17.4209  -26.6711   21.3982 H   0  0  0  0  0  0
  -18.0325  -26.0062   22.8988 H   0  0  0  0  0  0
  -19.7991  -30.7265   24.2185 H   0  0  0  0  0  0
  -17.5080  -31.6280   24.5161 H   0  0  0  0  0  0
  -15.5390  -30.2947   23.7739 H   0  0  0  0  0  0
  -15.8694  -28.0799   22.7091 H   0  0  0  0  0  0
  -24.5764  -30.7288   25.7734 H   0  0  0  0  0  0
  -24.8927  -32.3064   26.4831 H   0  0  0  0  0  0
  -25.7899  -30.8994   27.0233 H   0  0  0  0  0  0
  -26.3097  -29.6659   24.1372 H   0  0  0  0  0  0
  -27.4021  -29.7371   25.5018 H   0  0  0  0  0  0
  -27.9007  -30.4257   23.9757 H   0  0  0  0  0  0
  -27.2553  -33.3741   26.2013 H   0  0  0  0  0  0
  -28.3799  -32.7037   25.0315 H   0  0  0  0  0  0
  -28.0702  -31.8645   26.5449 H   0  0  0  0  0  0
  -28.2574  -38.0111   24.7517 H   0  0  0  0  0  0
  -28.1142  -36.2650   24.6281 H   0  0  0  0  0  0
  -27.2306  -37.1393   25.8843 H   0  0  0  0  0  0
  -20.9467  -29.8774   21.6787 H   0  0  0  0  0  0
  -26.0242  -38.2840   24.1358 H   0  0  0  0  0  0
  -32.1010  -16.9187   21.6023 H   0  0  0  0  0  0
  -28.2813  -18.1067   19.9539 H   0  0  0  0  0  0
  -28.1578  -22.2204   21.6967 H   0  0  0  0  0  0
  -29.8465  -22.3372   21.3789 H   0  0  0  0  0  0
  -28.4598  -24.9540   21.8017 H   0  0  0  0  0  0
  -26.9909  -24.7818   20.9090 H   0  0  0  0  0  0
  -33.5133  -18.7557   22.4026 H   0  0  0  0  0  0
  -33.1509  -20.3921   22.0346 H   0  0  0  0  0  0
  -28.8214  -15.5848   20.6677 H   0  0  0  0  0  0
  -27.8973  -20.6579   19.8385 H   0  0  0  0  0  0
  1 25  1  0  0  0
  1 30  2  0  0  0
  1 81  1  0  0  0
  2  3  1  0  0  0
  2 25  1  0  0  0
  2 84  1  0  0  0
  2 85  1  0  0  0
  3  4  1  0  0  0
  3 86  1  0  0  0
  3 87  1  0  0  0
  4  5  1  0  0  0
  4 88  1  0  0  0
  4 89  1  0  0  0
  5  6  1  0  0  0
  5 26  1  0  0  0
  5 90  1  0  0  0
  6 25  1  0  0  0
  6 91  1  0  0  0
  6 92  1  0  0  0
  7  8  2  0  0  0
  7 26  1  0  0  0
  7 29  1  0  0  0
  8  9  1  0  0  0
  8 22  1  0  0  0
  9 10  1  0  0  0
  9 27  2  0  0  0
 10 11  2  0  0  0
 10 15  1  0  0  0
 11 12  1  0  0  0
 11 93  1  0  0  0
 12 13  2  0  0  0
 12 94  1  0  0  0
 13 14  1  0  0  0
 13 31  1  0  0  0
 14 15  2  0  0  0
 14 95  1  0  0  0
 15 96  1  0  0  0
 16 17  2  0  0  0
 16 21  1  0  0  0
 16 31  1  0  0  0
 17 18  1  0  0  0
 17 97  1  0  0  0
 18 19  2  0  0  0
 18 98  1  0  0  0
 19 20  1  0  0  0
 19 24  1  0  0  0
 20 21  2  0  0  0
 20 99  1  0  0  0
 21 23  1  0  0  0
 22 28  1  0  0  0
 22 32  2  0  0  0
 26 27  1  0  0  0
 28100  1  0  0  0
 28101  1  0  0  0
 29102  1  0  0  0
 29103  1  0  0  0
 33 34  1  0  0  0
 33 66  1  0  0  0
 33 70  2  0  0  0
 34 36  1  0  0  0
 34 59  1  0  0  0
 34104  1  0  0  0
 35 44  2  0  0  0
 35 45  1  0  0  0
 35 68  1  0  0  0
 36 56  1  0  0  0
 36105  1  0  0  0
 37 39  1  0  0  0
 37 47  1  0  0  0
 37 66  1  0  0  0
 37106  1  0  0  0
 38 43  2  0  0  0
 38 46  1  0  0  0
 38 47  1  0  0  0
 39 64  1  0  0  0
 39 67  2  0  0  0
 40 52  1  0  0  0
 40 53  2  0  0  0
 40 58  1  0  0  0
 41107  1  0  0  0
 41108  1  0  0  0
 41109  1  0  0  0
 41 48  1  0  0  0
 42 43  1  0  0  0
 42 66  1  0  0  0
 42110  1  0  0  0
 42111  1  0  0  0
 43 44  1  0  0  0
 44112  1  0  0  0
 45 46  2  0  0  0
 45113  1  0  0  0
 46114  1  0  0  0
 47115  1  0  0  0
 47116  1  0  0  0
 48 56  1  0  0  0
 48 65  1  0  0  0
 48117  1  0  0  0
 49 50  1  0  0  0
 49 53  1  0  0  0
 49 64  1  0  0  0
 49118  1  0  0  0
 50 51  1  0  0  0
 50119  1  0  0  0
 50120  1  0  0  0
 51 52  1  0  0  0
 51121  1  0  0  0
 51122  1  0  0  0
 52123  1  0  0  0
 52124  1  0  0  0
 53 54  1  0  0  0
 54 55  2  0  0  0
 54125  1  0  0  0
 55 57  1  0  0  0
 55126  1  0  0  0
 56 69  2  0  0  0
 57 58  2  0  0  0
 57127  1  0  0  0
 58128  1  0  0  0
 59 60  1  0  0  0
 59 61  1  0  0  0
 59 62  1  0  0  0
 60129  1  0  0  0
 60130  1  0  0  0
 60131  1  0  0  0
 61132  1  0  0  0
 61133  1  0  0  0
 61134  1  0  0  0
 62135  1  0  0  0
 62136  1  0  0  0
 62137  1  0  0  0
 63 65  1  0  0  0
 63138  1  0  0  0
 63139  1  0  0  0
 63140  1  0  0  0
 64141  1  0  0  0
 65142  1  0  0  0
 68 78  1  0  0  0
 71 73  2  0  0  0
 71 74  1  0  0  0
 71143  1  0  0  0
 72 73  1  0  0  0
 72 75  2  0  0  0
 72144  1  0  0  0
 73 81  1  0  0  0
 74 79  2  0  0  0
 74 80  1  0  0  0
 75 79  1  0  0  0
 75 82  1  0  0  0
 76 77  1  0  0  0
 76 78  1  0  0  0
 76 83  2  0  0  0
 77 82  1  0  0  0
 77145  1  0  0  0
 77146  1  0  0  0
 78147  1  0  0  0
 78148  1  0  0  0
 80149  1  0  0  0
 80150  1  0  0  0
 81151  1  0  0  0
 82152  1  0  0  0
M  ISO  4   1 100  68 101  78 101  81 100
M  END
> <chiral flag>
0

> <version>
0

> <s_m_source_file>
/data/baiqing/PycharmProjects/Reinvent-master-3.2/result/LINK_invent/BTK/process_docking_weight1_custom_product_contain_oxygen_bond_distance_aromatic_linkinvent_7_9_3/rearranged_h_0155.sdf

> <i_m_source_file_index>
16

> <r_mmod_Potential_Energy-OPLS-2005>
-96.3877410888672

> <r_mmod_Stretch_Energy-OPLS-2005>
122.497123718262

> <r_mmod_Bend_Energy-OPLS-2005>
166.421829223633

> <r_mmod_Torsional_Energy-OPLS-2005>
234.195724487305

> <r_mmod_Improper_Torsional_Energy-OPLS-2005>
8.55080604553223

> <r_mmod_Van_der_Waal_Energy-OPLS-2005>
137.468673706055

> <r_mmod_Electrostatic_Energy-OPLS-2005>
-572.497924804688

> <r_mmod_Solvation_Energy-OPLS-2005>
-283.331024169922

> <b_mmod_Minimization_Converged-OPLS-2005>
0

> <r_mmod_RMS_Derivative-OPLS-2005>
7.98737859725952

$$$$
16
                    3D
 Structure written by MMmdl.
156165  0  0  1  0            999 V2000
  -30.5436  -14.8277   20.4438 C   0  0  0  0  0  0
  -30.4482  -12.5056   19.4788 C   0  0  0  0  0  0
  -29.5196  -12.5188   18.2419 C   0  0  0  0  0  0
  -28.0468  -12.3245   18.6553 C   0  0  0  0  0  0
  -27.6409  -13.2292   19.8483 C   0  0  2  0  0  0
  -28.6858  -13.1746   20.9842 C   0  0  0  0  0  0
  -25.2514  -13.8180   20.5683 C   0  0  0  0  0  0
  -24.1808  -13.0432   20.9216 C   0  0  0  0  0  0
  -24.6396  -11.6909   20.8751 C   0  0  0  0  0  0
  -23.9071  -10.4289   21.0411 C   0  0  0  0  0  0
  -24.3622   -9.4203   21.9187 C   0  0  0  0  0  0
  -23.6295   -8.2240   22.0756 C   0  0  0  0  0  0
  -22.4276   -8.0281   21.3546 C   0  0  0  0  0  0
  -21.9914   -9.0254   20.4648 C   0  0  0  0  0  0
  -22.7244  -10.2132   20.3058 C   0  0  0  0  0  0
  -21.6852   -6.0737   22.5280 C   0  0  0  0  0  0
  -21.4014   -6.5640   23.8214 C   0  0  0  0  0  0
  -21.3660   -5.6792   24.9175 C   0  0  0  0  0  0
  -21.6045   -4.3055   24.7225 C   0  0  0  0  0  0
  -21.8819   -3.8148   23.4345 C   0  0  0  0  0  0
  -21.9193   -4.6965   22.3402 C   0  0  0  0  0  0
  -22.7831  -13.5222   21.1870 C   0  0  0  0  0  0
  -22.1661   -4.2151   21.0980 F   0  0  0  0  0  0
  -21.5628   -3.4538   25.7737 F   0  0  0  0  0  0
  -29.9783  -13.5654   20.4043 N   0  0  0  0  0  0
  -26.2933  -12.9377   20.3256 N   0  0  0  0  0  0
  -25.9324  -11.6527   20.5741 N   0  0  0  0  0  0
  -22.0471  -12.8215   22.0424 N   0  0  0  0  0  0
  -25.4190  -15.1906   20.4076 N   0  0  0  0  0  0
  -31.7336  -14.9660   20.1389 O   0  0  0  0  0  0
  -21.6639   -6.8879   21.4243 O   0  0  0  0  0  0
  -22.3522  -14.5528   20.6713 O   0  0  0  0  0  0
  -24.6369  -31.8491   23.1923 C   0  0  0  0  0  0
  -25.9170  -32.4718   23.8291 C   0  0  1  0  0  0
  -27.2272  -27.2059   20.1267 C   0  0  0  0  0  0
  -25.5941  -33.8522   24.2212 N   0  0  0  0  0  0
  -23.4361  -30.4694   21.5375 C   0  0  2  0  0  0
  -24.8825  -28.9043   20.1101 C   0  0  0  0  0  0
  -22.7528  -29.4572   22.4894 C   0  0  0  0  0  0
  -18.0295  -28.1391   22.8479 C   0  0  0  0  0  0
  -24.1493  -36.7269   23.2642 C   0  0  0  0  0  0
  -25.9861  -30.7458   21.3775 C   0  0  0  0  0  0
  -26.0574  -29.3638   20.7160 C   0  0  0  0  0  0
  -27.2272  -28.5292   20.7068 C   0  0  0  0  0  0
  -26.0120  -26.8135   19.5248 C   0  0  0  0  0  0
  -24.8677  -27.6386   19.5047 C   0  0  0  0  0  0
  -23.6561  -29.7984   20.1557 C   0  0  0  0  0  0
  -25.4124  -36.3047   24.0317 C   0  0  1  0  0  0
  -20.5901  -28.3706   23.1258 C   0  0  2  0  0  0
  -20.6780  -26.9418   22.5410 C   0  0  0  0  0  0
  -19.5757  -26.6382   21.5215 C   0  0  0  0  0  0
  -18.1937  -26.7932   22.1624 C   0  0  0  0  0  0
  -19.1549  -28.8867   23.2861 C   0  0  0  0  0  0
  -18.9466  -30.1466   23.8883 C   0  0  0  0  0  0
  -17.6465  -30.6589   24.0560 C   0  0  0  0  0  0
  -25.9067  -34.9419   23.5072 C   0  0  0  0  0  0
  -16.5356  -29.9082   23.6338 C   0  0  0  0  0  0
  -16.7280  -28.6501   23.0357 C   0  0  0  0  0  0
  -26.4513  -31.6570   25.0712 C   0  0  0  0  0  0
  -25.3715  -31.3744   26.1421 C   0  0  0  0  0  0
  -27.0368  -30.2974   24.6251 C   0  0  0  0  0  0
  -27.6051  -32.4327   25.7496 C   0  0  0  0  0  0
  -27.5580  -37.1790   24.8461 C   0  0  0  0  0  0
  -21.4229  -29.3041   22.3639 N   0  0  0  0  0  0
  -26.4292  -37.3753   23.9402 N   0  0  0  0  0  0
  -24.7060  -31.0407   22.0919 N   0  0  0  0  0  0
  -23.4203  -28.8123   23.3021 O   0  0  0  0  0  0
  -28.3478  -26.3225   20.2077 O   0  0  0  0  0  0
  -26.5650  -34.8906   22.4649 O   0  0  0  0  0  0
  -23.5508  -32.1338   23.7189 O   0  0  0  0  0  0
  -28.6465  -18.3581   20.5641 C   0  0  0  0  0  0
  -30.8426  -18.2544   20.4024 C   0  0  0  0  0  0
  -29.7589  -17.4156   20.5230 C   0  0  0  0  0  0
  -29.0824  -19.6943   20.4980 C   0  0  0  0  0  0
  -27.8701  -23.6338   20.3102 C   0  0  0  0  0  0
  -28.3677  -21.0547   20.6079 C   0  0  0  0  0  0
  -29.9905  -24.4306   19.7757 C   0  0  0  0  0  0
  -30.0069  -22.8619   19.7171 C   0  0  0  0  0  0
  -28.5256  -24.9132   19.6149 C   0  0  2  0  0  0
  -28.1901  -24.9577   18.1023 C   0  0  0  0  0  0
  -28.7214  -22.3871   20.2501 N   0  0  0  0  0  0
  -29.6769  -15.9132   20.6310 N   0  0  0  0  0  0
  -27.1497  -20.8991   21.1603 N   0  3  0  0  0  0
  -26.7314  -23.6392   20.7990 O   0  0  0  0  0  0
  -30.4570  -19.6083   20.3978 O   0  0  0  0  0  0
  -31.4838  -12.6636   19.1728 H   0  0  0  0  0  0
  -30.4261  -11.5316   19.9702 H   0  0  0  0  0  0
  -29.8170  -11.7409   17.5375 H   0  0  0  0  0  0
  -29.6284  -13.4671   17.7132 H   0  0  0  0  0  0
  -27.9183  -11.2767   18.9287 H   0  0  0  0  0  0
  -27.3874  -12.4991   17.8041 H   0  0  0  0  0  0
  -27.6281  -14.2467   19.4577 H   0  0  0  0  0  0
  -28.7426  -12.1731   21.4134 H   0  0  0  0  0  0
  -28.4056  -13.8396   21.8028 H   0  0  0  0  0  0
  -25.2766   -9.5679   22.4763 H   0  0  0  0  0  0
  -24.0003   -7.4632   22.7476 H   0  0  0  0  0  0
  -21.0844   -8.8776   19.8955 H   0  0  0  0  0  0
  -22.3704  -10.9673   19.6170 H   0  0  0  0  0  0
  -21.2006   -7.6147   23.9720 H   0  0  0  0  0  0
  -21.1482   -6.0520   25.9079 H   0  0  0  0  0  0
  -22.0598   -2.7610   23.2844 H   0  0  0  0  0  0
  -22.4079  -11.9874   22.4814 H   0  0  0  0  0  0
  -21.1090  -13.1245   22.2625 H   0  0  0  0  0  0
  -24.6400  -15.8334   20.5002 H   0  0  0  0  0  0
  -26.2428  -15.6246   20.0130 H   0  0  0  0  0  0
  -26.7237  -32.5341   23.1026 H   0  0  0  0  0  0
  -25.0066  -33.9644   25.0344 H   0  0  0  0  0  0
  -22.7357  -31.2934   21.3871 H   0  0  0  0  0  0
  -23.3757  -35.9599   23.3293 H   0  0  0  0  0  0
  -24.3582  -36.8912   22.2059 H   0  0  0  0  0  0
  -23.7247  -37.6462   23.6683 H   0  0  0  0  0  0
  -26.1334  -31.5062   20.6093 H   0  0  0  0  0  0
  -26.8598  -30.7924   22.0162 H   0  0  0  0  0  0
  -28.1281  -28.8808   21.1897 H   0  0  0  0  0  0
  -25.8943  -25.8286   19.1094 H   0  0  0  0  0  0
  -23.9604  -27.2702   19.0461 H   0  0  0  0  0  0
  -23.7850  -30.5724   19.3983 H   0  0  0  0  0  0
  -22.7724  -29.2352   19.8503 H   0  0  0  0  0  0
  -25.1313  -36.1882   25.0810 H   0  0  0  0  0  0
  -20.9990  -28.3289   24.1380 H   0  0  0  0  0  0
  -20.5678  -26.2316   23.3619 H   0  0  0  0  0  0
  -21.6647  -26.7435   22.1205 H   0  0  0  0  0  0
  -19.6917  -25.6289   21.1252 H   0  0  0  0  0  0
  -19.6697  -27.3183   20.6738 H   0  0  0  0  0  0
  -17.4208  -26.6679   21.4025 H   0  0  0  0  0  0
  -18.0335  -26.0077   22.9022 H   0  0  0  0  0  0
  -19.7942  -30.7288   24.2244 H   0  0  0  0  0  0
  -17.5017  -31.6268   24.5164 H   0  0  0  0  0  0
  -15.5355  -30.2978   23.7671 H   0  0  0  0  0  0
  -15.8680  -28.0814   22.7084 H   0  0  0  0  0  0
  -24.5894  -30.7090   25.7745 H   0  0  0  0  0  0
  -24.8905  -32.2921   26.4812 H   0  0  0  0  0  0
  -25.8014  -30.8941   27.0220 H   0  0  0  0  0  0
  -26.2967  -29.6706   24.1260 H   0  0  0  0  0  0
  -27.4000  -29.7261   25.4804 H   0  0  0  0  0  0
  -27.8868  -30.4222   23.9540 H   0  0  0  0  0  0
  -27.2643  -33.3633   26.2046 H   0  0  0  0  0  0
  -28.3878  -32.6878   25.0340 H   0  0  0  0  0  0
  -28.0702  -31.8474   26.5437 H   0  0  0  0  0  0
  -28.2586  -38.0097   24.7512 H   0  0  0  0  0  0
  -28.1089  -36.2625   24.6288 H   0  0  0  0  0  0
  -27.2297  -37.1437   25.8864 H   0  0  0  0  0  0
  -20.9428  -29.8752   21.6824 H   0  0  0  0  0  0
  -26.0164  -38.2823   24.1404 H   0  0  0  0  0  0
  -27.6067  -18.0828   20.6638 H   0  0  0  0  0  0
  -31.9090  -18.0844   20.3356 H   0  0  0  0  0  0
  -30.6374  -24.8567   19.0079 H   0  0  0  0  0  0
  -30.3924  -24.7638   20.7342 H   0  0  0  0  0  0
  -30.8369  -22.4510   20.2912 H   0  0  0  0  0  0
  -30.1081  -22.5072   18.6911 H   0  0  0  0  0  0
  -27.1487  -24.7280   17.8861 H   0  0  0  0  0  0
  -28.7688  -24.2295   17.5337 H   0  0  0  0  0  0
  -28.4150  -25.9367   17.6792 H   0  0  0  0  0  0
  -28.7464  -15.5820   20.8335 H   0  0  0  0  0  0
  -26.8387  -19.9953   21.4791 H   0  0  0  0  0  0
  -26.5396  -21.6992   21.2924 H   0  0  0  0  0  0
  1 25  1  0  0  0
  1 30  2  0  0  0
  1 82  1  0  0  0
  2  3  1  0  0  0
  2 25  1  0  0  0
  2 86  1  0  0  0
  2 87  1  0  0  0
  3  4  1  0  0  0
  3 88  1  0  0  0
  3 89  1  0  0  0
  4  5  1  0  0  0
  4 90  1  0  0  0
  4 91  1  0  0  0
  5  6  1  0  0  0
  5 26  1  0  0  0
  5 92  1  0  0  0
  6 25  1  0  0  0
  6 93  1  0  0  0
  6 94  1  0  0  0
  7  8  2  0  0  0
  7 26  1  0  0  0
  7 29  1  0  0  0
  8  9  1  0  0  0
  8 22  1  0  0  0
  9 10  1  0  0  0
  9 27  2  0  0  0
 10 11  2  0  0  0
 10 15  1  0  0  0
 11 12  1  0  0  0
 11 95  1  0  0  0
 12 13  2  0  0  0
 12 96  1  0  0  0
 13 14  1  0  0  0
 13 31  1  0  0  0
 14 15  2  0  0  0
 14 97  1  0  0  0
 15 98  1  0  0  0
 16 17  2  0  0  0
 16 21  1  0  0  0
 16 31  1  0  0  0
 17 18  1  0  0  0
 17 99  1  0  0  0
 18 19  2  0  0  0
 18100  1  0  0  0
 19 20  1  0  0  0
 19 24  1  0  0  0
 20 21  2  0  0  0
 20101  1  0  0  0
 21 23  1  0  0  0
 22 28  1  0  0  0
 22 32  2  0  0  0
 26 27  1  0  0  0
 28102  1  0  0  0
 28103  1  0  0  0
 29104  1  0  0  0
 29105  1  0  0  0
 33 34  1  0  0  0
 33 66  1  0  0  0
 33 70  2  0  0  0
 34 36  1  0  0  0
 34 59  1  0  0  0
 34106  1  0  0  0
 35 44  2  0  0  0
 35 45  1  0  0  0
 35 68  1  0  0  0
 36 56  1  0  0  0
 36107  1  0  0  0
 37 39  1  0  0  0
 37 47  1  0  0  0
 37 66  1  0  0  0
 37108  1  0  0  0
 38 43  2  0  0  0
 38 46  1  0  0  0
 38 47  1  0  0  0
 39 64  1  0  0  0
 39 67  2  0  0  0
 40 52  1  0  0  0
 40 53  2  0  0  0
 40 58  1  0  0  0
 41109  1  0  0  0
 41110  1  0  0  0
 41111  1  0  0  0
 41 48  1  0  0  0
 42 43  1  0  0  0
 42 66  1  0  0  0
 42112  1  0  0  0
 42113  1  0  0  0
 43 44  1  0  0  0
 44114  1  0  0  0
 45 46  2  0  0  0
 45115  1  0  0  0
 46116  1  0  0  0
 47117  1  0  0  0
 47118  1  0  0  0
 48 56  1  0  0  0
 48 65  1  0  0  0
 48119  1  0  0  0
 49 50  1  0  0  0
 49 53  1  0  0  0
 49 64  1  0  0  0
 49120  1  0  0  0
 50 51  1  0  0  0
 50121  1  0  0  0
 50122  1  0  0  0
 51 52  1  0  0  0
 51123  1  0  0  0
 51124  1  0  0  0
 52125  1  0  0  0
 52126  1  0  0  0
 53 54  1  0  0  0
 54 55  2  0  0  0
 54127  1  0  0  0
 55 57  1  0  0  0
 55128  1  0  0  0
 56 69  2  0  0  0
 57 58  2  0  0  0
 57129  1  0  0  0
 58130  1  0  0  0
 59 60  1  0  0  0
 59 61  1  0  0  0
 59 62  1  0  0  0
 60131  1  0  0  0
 60132  1  0  0  0
 60133  1  0  0  0
 61134  1  0  0  0
 61135  1  0  0  0
 61136  1  0  0  0
 62137  1  0  0  0
 62138  1  0  0  0
 62139  1  0  0  0
 63 65  1  0  0  0
 63140  1  0  0  0
 63141  1  0  0  0
 63142  1  0  0  0
 64143  1  0  0  0
 65144  1  0  0  0
 68 79  1  0  0  0
 71 73  1  0  0  0
 71 74  2  0  0  0
 71145  1  0  0  0
 72 73  2  0  0  0
 72 85  1  0  0  0
 72146  1  0  0  0
 73 82  1  0  0  0
 74 76  1  0  0  0
 74 85  1  0  0  0
 75 79  1  0  0  0
 75 81  1  0  0  0
 75 84  2  0  0  0
 76 81  1  0  0  0
 76 83  2  0  0  0
 77 78  1  0  0  0
 77 79  1  0  0  0
 77147  1  0  0  0
 77148  1  0  0  0
 78 81  1  0  0  0
 78149  1  0  0  0
 78150  1  0  0  0
 79 80  1  0  0  0
 80151  1  0  0  0
 80152  1  0  0  0
 80153  1  0  0  0
 82154  1  0  0  0
 83155  1  0  0  0
 83156  1  0  0  0
M  CHG  1  83   1
M  ISO  4   1 100  68 101  79 101  82 100
M  END
> <chiral flag>
0

> <version>
0

> <s_m_source_file>
/data/baiqing/PycharmProjects/Reinvent-master-3.2/result/LINK_invent/BTK/process_docking_weight1_custom_product_contain_oxygen_bond_distance_aromatic_linkinvent_7_9_3/rearranged_h_0155.sdf

> <i_m_source_file_index>
17

> <r_mmod_Potential_Energy-OPLS-2005>
217.600219726562

> <r_mmod_Stretch_Energy-OPLS-2005>
162.016159057617

> <r_mmod_Bend_Energy-OPLS-2005>
275.522583007812

> <r_mmod_Torsional_Energy-OPLS-2005>
241.881530761719

> <r_mmod_Improper_Torsional_Energy-OPLS-2005>
5.56866979598999

> <r_mmod_Van_der_Waal_Energy-OPLS-2005>
118.502861022949

> <r_mmod_Electrostatic_Energy-OPLS-2005>
-244.631530761719

> <r_mmod_Solvation_Energy-OPLS-2005>
-462.321105957031

> <b_mmod_Minimization_Converged-OPLS-2005>
0

> <r_mmod_RMS_Derivative-OPLS-2005>
0.370323657989502

$$$$
17
                    3D
 Structure written by MMmdl.
156164  0  0  1  0            999 V2000
  -30.7171  -14.4662   20.5993 C   0  0  0  0  0  0
  -30.4248  -12.3108   19.4269 C   0  0  0  0  0  0
  -29.4984  -12.5086   18.2105 C   0  0  0  0  0  0
  -28.0212  -12.3604   18.6228 C   0  0  0  0  0  0
  -27.6648  -13.2059   19.8744 C   0  0  2  0  0  0
  -28.7040  -12.9895   20.9992 C   0  0  0  0  0  0
  -25.2610  -13.8159   20.5681 C   0  0  0  0  0  0
  -24.1848  -13.0443   20.9159 C   0  0  0  0  0  0
  -24.6391  -11.6907   20.8717 C   0  0  0  0  0  0
  -23.9051  -10.4291   21.0392 C   0  0  0  0  0  0
  -24.3603   -9.4214   21.9172 C   0  0  0  0  0  0
  -23.6284   -8.2247   22.0750 C   0  0  0  0  0  0
  -22.4264   -8.0275   21.3546 C   0  0  0  0  0  0
  -21.9895   -9.0250   20.4655 C   0  0  0  0  0  0
  -22.7218  -10.2133   20.3053 C   0  0  0  0  0  0
  -21.6852   -6.0730   22.5276 C   0  0  0  0  0  0
  -21.4015   -6.5633   23.8210 C   0  0  0  0  0  0
  -21.3660   -5.6789   24.9172 C   0  0  0  0  0  0
  -21.6044   -4.3051   24.7223 C   0  0  0  0  0  0
  -21.8820   -3.8142   23.4347 C   0  0  0  0  0  0
  -21.9195   -4.6960   22.3404 C   0  0  0  0  0  0
  -22.7874  -13.5249   21.1826 C   0  0  0  0  0  0
  -22.1663   -4.2145   21.0986 F   0  0  0  0  0  0
  -21.5626   -3.4538   25.7739 F   0  0  0  0  0  0
  -30.0414  -13.2915   20.4565 N   0  0  0  0  0  0
  -26.3041  -12.9327   20.3350 N   0  0  0  0  0  0
  -25.9318  -11.6486   20.5739 N   0  0  0  0  0  0
  -22.0508  -12.8257   22.0394 N   0  0  0  0  0  0
  -25.4361  -15.1878   20.4124 N   0  0  0  0  0  0
  -31.7974  -14.6786   20.0427 O   0  0  0  0  0  0
  -21.6638   -6.8871   21.4238 O   0  0  0  0  0  0
  -22.3563  -14.5555   20.6672 O   0  0  0  0  0  0
  -24.6149  -31.8672   23.2108 C   0  0  0  0  0  0
  -25.9030  -32.4818   23.8417 C   0  0  1  0  0  0
  -27.2307  -27.4314   20.1042 C   0  0  0  0  0  0
  -25.5879  -33.8617   24.2341 N   0  0  0  0  0  0
  -23.4042  -30.4916   21.5504 C   0  0  2  0  0  0
  -24.8528  -28.9617   20.1112 C   0  0  0  0  0  0
  -22.7422  -29.4646   22.4980 C   0  0  0  0  0  0
  -18.0273  -28.1377   22.8496 C   0  0  0  0  0  0
  -24.1478  -36.7326   23.2640 C   0  0  0  0  0  0
  -25.9340  -30.8346   21.3641 C   0  0  0  0  0  0
  -26.0133  -29.4696   20.7098 C   0  0  0  0  0  0
  -27.2091  -28.7133   20.7004 C   0  0  0  0  0  0
  -26.0586  -26.9460   19.4857 C   0  0  0  0  0  0
  -24.8705  -27.7001   19.4927 C   0  0  0  0  0  0
  -23.6139  -29.8273   20.1640 C   0  0  0  0  0  0
  -25.4090  -36.3112   24.0349 C   0  0  1  0  0  0
  -20.5863  -28.3663   23.1323 C   0  0  2  0  0  0
  -20.6748  -26.9397   22.5424 C   0  0  0  0  0  0
  -19.5727  -26.6386   21.5215 C   0  0  0  0  0  0
  -18.1909  -26.7924   22.1632 C   0  0  0  0  0  0
  -19.1521  -28.8838   23.2905 C   0  0  0  0  0  0
  -18.9445  -30.1445   23.8916 C   0  0  0  0  0  0
  -17.6445  -30.6582   24.0569 C   0  0  0  0  0  0
  -25.9018  -34.9472   23.5143 C   0  0  0  0  0  0
  -16.5338  -29.9086   23.6321 C   0  0  0  0  0  0
  -16.7260  -28.6504   23.0342 C   0  0  0  0  0  0
  -26.4458  -31.6607   25.0755 C   0  0  0  0  0  0
  -25.3741  -31.3750   26.1540 C   0  0  0  0  0  0
  -27.0277  -30.3038   24.6144 C   0  0  0  0  0  0
  -27.6065  -32.4319   25.7478 C   0  0  0  0  0  0
  -27.5584  -37.1798   24.8454 C   0  0  0  0  0  0
  -21.4145  -29.3032   22.3736 N   0  0  0  0  0  0
  -26.4278  -37.3796   23.9427 N   0  0  0  0  0  0
  -24.6692  -31.0783   22.1000 N   0  0  0  0  0  0
  -23.4190  -28.8175   23.3012 O   0  0  0  0  0  0
  -28.3645  -26.6464   20.1308 O   0  0  0  0  0  0
  -26.5588  -34.8915   22.4709 O   0  0  0  0  0  0
  -23.5334  -32.1420   23.7492 O   0  0  0  0  0  0
  -31.0965  -18.9761   21.2718 C   0  0  0  0  0  0
  -31.3920  -17.5772   21.4285 C   0  0  0  0  0  0
  -29.7692  -19.2719   21.0799 C   0  0  0  0  0  0
  -30.2713  -16.7685   21.2780 C   0  0  0  0  0  0
  -32.7375  -17.1206   21.8015 C   0  0  0  0  0  0
  -29.6630  -21.7180   20.8604 C   0  0  0  0  0  0
  -33.8932  -18.0280   21.3897 C   0  0  0  0  0  0
  -28.7020  -22.9058   21.0763 C   0  0  0  0  0  0
  -29.0780  -24.2461   20.3780 C   0  0  0  0  0  0
  -28.1949  -25.4188   20.8678 C   0  0  0  0  0  0
  -29.1364  -20.4819   21.0027 N   0  0  0  0  0  0
  -30.0929  -15.4112   21.3340 N   0  0  0  0  0  0
  -33.0009  -16.0916   22.4300 O   0  0  0  0  0  0
  -30.8443  -21.9251   20.5723 O   0  0  0  0  0  0
  -28.8574  -17.7806   21.0386 S   0  0  0  0  0  0
  -31.4699  -12.4052   19.1258 H   0  0  0  0  0  0
  -30.3214  -11.2990   19.8229 H   0  0  0  0  0  0
  -29.7417  -11.7848   17.4315 H   0  0  0  0  0  0
  -29.6652  -13.4945   17.7740 H   0  0  0  0  0  0
  -27.8416  -11.3046   18.8294 H   0  0  0  0  0  0
  -27.3674  -12.6216   17.7899 H   0  0  0  0  0  0
  -27.7107  -14.2528   19.5728 H   0  0  0  0  0  0
  -28.6791  -11.9539   21.3419 H   0  0  0  0  0  0
  -28.4503  -13.5869   21.8755 H   0  0  0  0  0  0
  -25.2753   -9.5693   22.4740 H   0  0  0  0  0  0
  -24.0000   -7.4641   22.7464 H   0  0  0  0  0  0
  -21.0824   -8.8766   19.8967 H   0  0  0  0  0  0
  -22.3666  -10.9665   19.6161 H   0  0  0  0  0  0
  -21.2007   -7.6137   23.9708 H   0  0  0  0  0  0
  -21.1478   -6.0520   25.9075 H   0  0  0  0  0  0
  -22.0599   -2.7601   23.2852 H   0  0  0  0  0  0
  -22.4108  -11.9924   22.4807 H   0  0  0  0  0  0
  -21.1131  -13.1305   22.2589 H   0  0  0  0  0  0
  -24.6748  -15.8480   20.5259 H   0  0  0  0  0  0
  -26.2963  -15.6251   20.1069 H   0  0  0  0  0  0
  -26.7113  -32.5537   23.1197 H   0  0  0  0  0  0
  -25.0017  -33.9768   25.0477 H   0  0  0  0  0  0
  -22.6922  -31.3082   21.4122 H   0  0  0  0  0  0
  -23.3724  -35.9674   23.3300 H   0  0  0  0  0  0
  -24.3587  -36.8936   22.2056 H   0  0  0  0  0  0
  -23.7234  -37.6535   23.6650 H   0  0  0  0  0  0
  -26.0457  -31.6010   20.5957 H   0  0  0  0  0  0
  -26.8206  -30.8893   21.9834 H   0  0  0  0  0  0
  -28.1047  -29.0974   21.1690 H   0  0  0  0  0  0
  -26.0617  -25.9767   19.0071 H   0  0  0  0  0  0
  -23.9807  -27.3052   19.0226 H   0  0  0  0  0  0
  -23.7220  -30.6037   19.4060 H   0  0  0  0  0  0
  -22.7382  -29.2475   19.8674 H   0  0  0  0  0  0
  -25.1249  -36.1985   25.0840 H   0  0  0  0  0  0
  -20.9954  -28.3217   24.1443 H   0  0  0  0  0  0
  -20.5639  -26.2262   23.3603 H   0  0  0  0  0  0
  -21.6618  -26.7426   22.1221 H   0  0  0  0  0  0
  -19.6872  -25.6301   21.1234 H   0  0  0  0  0  0
  -19.6651  -27.3206   20.6749 H   0  0  0  0  0  0
  -17.4169  -26.6677   21.4041 H   0  0  0  0  0  0
  -18.0307  -26.0066   22.9031 H   0  0  0  0  0  0
  -19.7918  -30.7262   24.2289 H   0  0  0  0  0  0
  -17.4997  -31.6262   24.5171 H   0  0  0  0  0  0
  -15.5335  -30.2990   23.7633 H   0  0  0  0  0  0
  -15.8662  -28.0829   22.7039 H   0  0  0  0  0  0
  -24.5810  -30.7210   25.7900 H   0  0  0  0  0  0
  -24.9056  -32.2932   26.5101 H   0  0  0  0  0  0
  -25.8088  -30.8816   27.0244 H   0  0  0  0  0  0
  -26.2821  -29.6803   24.1194 H   0  0  0  0  0  0
  -27.4030  -29.7278   25.4615 H   0  0  0  0  0  0
  -27.8672  -30.4346   23.9310 H   0  0  0  0  0  0
  -27.2717  -33.3611   26.2103 H   0  0  0  0  0  0
  -28.3831  -32.6891   25.0262 H   0  0  0  0  0  0
  -28.0790  -31.8419   26.5342 H   0  0  0  0  0  0
  -28.2589  -38.0110   24.7532 H   0  0  0  0  0  0
  -28.1086  -36.2643   24.6216 H   0  0  0  0  0  0
  -27.2330  -37.1401   25.8865 H   0  0  0  0  0  0
  -20.9293  -29.8788   21.6996 H   0  0  0  0  0  0
  -26.0167  -38.2877   24.1429 H   0  0  0  0  0  0
  -31.8665  -19.7279   21.3659 H   0  0  0  0  0  0
  -33.7813  -18.3382   20.3514 H   0  0  0  0  0  0
  -34.8460  -17.5092   21.4901 H   0  0  0  0  0  0
  -33.9194  -18.9161   22.0202 H   0  0  0  0  0  0
  -28.6490  -23.0710   22.1532 H   0  0  0  0  0  0
  -27.6973  -22.6130   20.7683 H   0  0  0  0  0  0
  -28.9607  -24.1302   19.3002 H   0  0  0  0  0  0
  -30.1267  -24.4907   20.5514 H   0  0  0  0  0  0
  -28.4274  -25.6277   21.9131 H   0  0  0  0  0  0
  -27.1579  -25.0800   20.8647 H   0  0  0  0  0  0
  -28.1325  -20.4544   21.1263 H   0  0  0  0  0  0
  -29.2028  -15.1030   21.6955 H   0  0  0  0  0  0
  1 25  1  0  0  0
  1 30  2  0  0  0
  1 82  1  0  0  0
  2  3  1  0  0  0
  2 25  1  0  0  0
  2 86  1  0  0  0
  2 87  1  0  0  0
  3  4  1  0  0  0
  3 88  1  0  0  0
  3 89  1  0  0  0
  4  5  1  0  0  0
  4 90  1  0  0  0
  4 91  1  0  0  0
  5  6  1  0  0  0
  5 26  1  0  0  0
  5 92  1  0  0  0
  6 25  1  0  0  0
  6 93  1  0  0  0
  6 94  1  0  0  0
  7  8  2  0  0  0
  7 26  1  0  0  0
  7 29  1  0  0  0
  8  9  1  0  0  0
  8 22  1  0  0  0
  9 10  1  0  0  0
  9 27  2  0  0  0
 10 11  2  0  0  0
 10 15  1  0  0  0
 11 12  1  0  0  0
 11 95  1  0  0  0
 12 13  2  0  0  0
 12 96  1  0  0  0
 13 14  1  0  0  0
 13 31  1  0  0  0
 14 15  2  0  0  0
 14 97  1  0  0  0
 15 98  1  0  0  0
 16 17  2  0  0  0
 16 21  1  0  0  0
 16 31  1  0  0  0
 17 18  1  0  0  0
 17 99  1  0  0  0
 18 19  2  0  0  0
 18100  1  0  0  0
 19 20  1  0  0  0
 19 24  1  0  0  0
 20 21  2  0  0  0
 20101  1  0  0  0
 21 23  1  0  0  0
 22 28  1  0  0  0
 22 32  2  0  0  0
 26 27  1  0  0  0
 28102  1  0  0  0
 28103  1  0  0  0
 29104  1  0  0  0
 29105  1  0  0  0
 33 34  1  0  0  0
 33 66  1  0  0  0
 33 70  2  0  0  0
 34 36  1  0  0  0
 34 59  1  0  0  0
 34106  1  0  0  0
 35 44  2  0  0  0
 35 45  1  0  0  0
 35 68  1  0  0  0
 36 56  1  0  0  0
 36107  1  0  0  0
 37 39  1  0  0  0
 37 47  1  0  0  0
 37 66  1  0  0  0
 37108  1  0  0  0
 38 43  2  0  0  0
 38 46  1  0  0  0
 38 47  1  0  0  0
 39 64  1  0  0  0
 39 67  2  0  0  0
 40 52  1  0  0  0
 40 53  2  0  0  0
 40 58  1  0  0  0
 41109  1  0  0  0
 41110  1  0  0  0
 41111  1  0  0  0
 41 48  1  0  0  0
 42 43  1  0  0  0
 42 66  1  0  0  0
 42112  1  0  0  0
 42113  1  0  0  0
 43 44  1  0  0  0
 44114  1  0  0  0
 45 46  2  0  0  0
 45115  1  0  0  0
 46116  1  0  0  0
 47117  1  0  0  0
 47118  1  0  0  0
 48 56  1  0  0  0
 48 65  1  0  0  0
 48119  1  0  0  0
 49 50  1  0  0  0
 49 53  1  0  0  0
 49 64  1  0  0  0
 49120  1  0  0  0
 50 51  1  0  0  0
 50121  1  0  0  0
 50122  1  0  0  0
 51 52  1  0  0  0
 51123  1  0  0  0
 51124  1  0  0  0
 52125  1  0  0  0
 52126  1  0  0  0
 53 54  1  0  0  0
 54 55  2  0  0  0
 54127  1  0  0  0
 55 57  1  0  0  0
 55128  1  0  0  0
 56 69  2  0  0  0
 57 58  2  0  0  0
 57129  1  0  0  0
 58130  1  0  0  0
 59 60  1  0  0  0
 59 61  1  0  0  0
 59 62  1  0  0  0
 60131  1  0  0  0
 60132  1  0  0  0
 60133  1  0  0  0
 61134  1  0  0  0
 61135  1  0  0  0
 61136  1  0  0  0
 62137  1  0  0  0
 62138  1  0  0  0
 62139  1  0  0  0
 63 65  1  0  0  0
 63140  1  0  0  0
 63141  1  0  0  0
 63142  1  0  0  0
 64143  1  0  0  0
 65144  1  0  0  0
 68 80  1  0  0  0
 71 72  1  0  0  0
 71 73  2  0  0  0
 71145  1  0  0  0
 72 74  2  0  0  0
 72 75  1  0  0  0
 73 81  1  0  0  0
 73 85  1  0  0  0
 74 82  1  0  0  0
 74 85  1  0  0  0
 75 77  1  0  0  0
 75 83  2  0  0  0
 76 78  1  0  0  0
 76 81  1  0  0  0
 76 84  2  0  0  0
 77146  1  0  0  0
 77147  1  0  0  0
 77148  1  0  0  0
 78 79  1  0  0  0
 78149  1  0  0  0
 78150  1  0  0  0
 79 80  1  0  0  0
 79151  1  0  0  0
 79152  1  0  0  0
 80153  1  0  0  0
 80154  1  0  0  0
 81155  1  0  0  0
 82156  1  0  0  0
M  ISO  4   1 100  68 101  80 101  82 100
M  END
> <chiral flag>
0

> <version>
0

> <s_m_source_file>
/data/baiqing/PycharmProjects/Reinvent-master-3.2/result/LINK_invent/BTK/process_docking_weight1_custom_product_contain_oxygen_bond_distance_aromatic_linkinvent_7_9_3/rearranged_h_0155.sdf

> <i_m_source_file_index>
18

> <r_mmod_Potential_Energy-OPLS-2005>
-83.4048461914062

> <r_mmod_Stretch_Energy-OPLS-2005>
38.7348175048828

> <r_mmod_Bend_Energy-OPLS-2005>
109.324516296387

> <r_mmod_Torsional_Energy-OPLS-2005>
275.057312011719

> <r_mmod_Improper_Torsional_Energy-OPLS-2005>
3.97848320007324

> <r_mmod_Van_der_Waal_Energy-OPLS-2005>
134.091339111328

> <r_mmod_Electrostatic_Energy-OPLS-2005>
-413.875335693359

> <r_mmod_Solvation_Energy-OPLS-2005>
-243.849731445312

> <b_mmod_Minimization_Converged-OPLS-2005>
0

> <r_mmod_RMS_Derivative-OPLS-2005>
1.32882785797119

$$$$
18
                    3D
 Structure written by MMmdl.
153162  0  0  1  0            999 V2000
  -30.3993  -15.3022   20.3610 C   0  0  0  0  0  0
  -30.4447  -12.8318   19.5324 C   0  0  0  0  0  0
  -29.5417  -12.5832   18.2960 C   0  0  0  0  0  0
  -28.0936  -12.2938   18.7252 C   0  0  0  0  0  0
  -27.6147  -13.2723   19.8249 C   0  0  2  0  0  0
  -28.6444  -13.4490   20.9623 C   0  0  0  0  0  0
  -25.2408  -13.8235   20.5732 C   0  0  0  0  0  0
  -24.1749  -13.0441   20.9250 C   0  0  0  0  0  0
  -24.6398  -11.6933   20.8754 C   0  0  0  0  0  0
  -23.9082  -10.4294   21.0399 C   0  0  0  0  0  0
  -24.3624   -9.4209   21.9180 C   0  0  0  0  0  0
  -23.6291   -8.2246   22.0758 C   0  0  0  0  0  0
  -22.4273   -8.0286   21.3544 C   0  0  0  0  0  0
  -21.9916   -9.0258   20.4647 C   0  0  0  0  0  0
  -22.7252  -10.2133   20.3054 C   0  0  0  0  0  0
  -21.6860   -6.0737   22.5275 C   0  0  0  0  0  0
  -21.4014   -6.5633   23.8208 C   0  0  0  0  0  0
  -21.3662   -5.6788   24.9166 C   0  0  0  0  0  0
  -21.6043   -4.3051   24.7218 C   0  0  0  0  0  0
  -21.8822   -3.8148   23.4339 C   0  0  0  0  0  0
  -21.9193   -4.6963   22.3397 C   0  0  0  0  0  0
  -22.7767  -13.5206   21.1888 C   0  0  0  0  0  0
  -22.1661   -4.2150   21.0977 F   0  0  0  0  0  0
  -21.5633   -3.4539   25.7728 F   0  0  0  0  0  0
  -29.8747  -13.9731   20.3446 N   0  0  0  0  0  0
  -26.2828  -12.9505   20.3212 N   0  0  0  0  0  0
  -25.9330  -11.6612   20.5703 N   0  0  0  0  0  0
  -22.0407  -12.8197   22.0440 N   0  0  0  0  0  0
  -25.4067  -15.1971   20.4164 N   0  0  0  0  0  0
  -31.6132  -15.3326   20.1029 O   0  0  0  0  0  0
  -21.6641   -6.8881   21.4238 O   0  0  0  0  0  0
  -22.3448  -14.5498   20.6715 O   0  0  0  0  0  0
  -24.6639  -31.8221   23.1683 C   0  0  0  0  0  0
  -25.9323  -32.4580   23.8150 C   0  0  1  0  0  0
  -27.2234  -26.9095   20.1806 C   0  0  0  0  0  0
  -25.5989  -33.8391   24.2068 N   0  0  0  0  0  0
  -23.4780  -30.4330   21.5166 C   0  0  2  0  0  0
  -24.9341  -28.8126   20.1088 C   0  0  0  0  0  0
  -22.7665  -29.4448   22.4767 C   0  0  0  0  0  0
  -18.0326  -28.1413   22.8474 C   0  0  0  0  0  0
  -24.1483  -36.7176   23.2644 C   0  0  0  0  0  0
  -26.0465  -30.6216   21.4009 C   0  0  0  0  0  0
  -26.1159  -29.2088   20.7452 C   0  0  0  0  0  0
  -27.2504  -28.2768   20.7573 C   0  0  0  0  0  0
  -26.0139  -26.6705   19.4902 C   0  0  0  0  0  0
  -24.9096  -27.5648   19.4615 C   0  0  0  0  0  0
  -23.7197  -29.7422   20.1442 C   0  0  0  0  0  0
  -25.4128  -36.2961   24.0298 C   0  0  1  0  0  0
  -20.5952  -28.3767   23.1173 C   0  0  2  0  0  0
  -20.6789  -26.9445   22.5399 C   0  0  0  0  0  0
  -19.5764  -26.6384   21.5206 C   0  0  0  0  0  0
  -18.1949  -26.7952   22.1616 C   0  0  0  0  0  0
  -19.1588  -28.8910   23.2812 C   0  0  0  0  0  0
  -18.9502  -30.1497   23.8864 C   0  0  0  0  0  0
  -17.6495  -30.6606   24.0559 C   0  0  0  0  0  0
  -25.9098  -34.9343   23.5004 C   0  0  0  0  0  0
  -16.5384  -29.9097   23.6349 C   0  0  0  0  0  0
  -16.7306  -28.6506   23.0385 C   0  0  0  0  0  0
  -26.4579  -31.6535   25.0684 C   0  0  0  0  0  0
  -25.3705  -31.3795   26.1341 C   0  0  0  0  0  0
  -27.0492  -30.2911   24.6421 C   0  0  0  0  0  0
  -27.6075  -32.4348   25.7490 C   0  0  0  0  0  0
  -27.5566  -37.1740   24.8468 C   0  0  0  0  0  0
  -21.4333  -29.3051   22.3506 N   0  0  0  0  0  0
  -26.4266  -37.3710   23.9427 N   0  0  0  0  0  0
  -24.7506  -30.9869   22.0821 N   0  0  0  0  0  0
  -23.4203  -28.8033   23.3019 O   0  0  0  0  0  0
  -28.2360  -25.8128   20.3028 O   0  0  0  0  0  0
  -26.5698  -34.8892   22.4597 O   0  0  0  0  0  0
  -23.5708  -32.1197   23.6777 O   0  0  0  0  0  0
  -30.4576  -18.9678   19.7248 C   0  0  0  0  0  0
  -30.1808  -20.4623   19.7200 C   0  0  0  0  0  0
  -29.0458  -21.0077   20.3533 C   0  0  0  0  0  0
  -29.6031  -18.0484   20.3617 C   0  0  0  0  0  0
  -28.2061  -23.4212   22.8053 C   0  0  0  0  0  0
  -27.4358  -22.5248   21.8415 C   0  0  0  0  0  0
  -29.4553  -23.0237   22.0248 C   0  0  0  0  0  0
  -28.5784  -22.6658   20.8024 C   0  0  0  0  0  0
  -28.2400  -24.1972   19.8913 C   0  0  0  0  0  0
  -31.1240  -21.2893   19.0966 N   0  0  0  0  0  0
  -29.5783  -16.5378   20.5200 N   0  0  0  0  0  0
  -28.3540  -19.3443   20.9429 S   0  0  0  0  0  0
  -31.4591  -13.0505   19.1960 H   0  0  0  0  0  0
  -30.5287  -11.9285   20.1383 H   0  0  0  0  0  0
  -29.9296  -11.7547   17.7015 H   0  0  0  0  0  0
  -29.5641  -13.4612   17.6490 H   0  0  0  0  0  0
  -28.0628  -11.2745   19.1106 H   0  0  0  0  0  0
  -27.4246  -12.3170   17.8644 H   0  0  0  0  0  0
  -27.5304  -14.2362   19.3217 H   0  0  0  0  0  0
  -28.8197  -12.5112   21.4921 H   0  0  0  0  0  0
  -28.2724  -14.1582   21.7035 H   0  0  0  0  0  0
  -25.2765   -9.5686   22.4760 H   0  0  0  0  0  0
  -24.0002   -7.4643   22.7486 H   0  0  0  0  0  0
  -21.0848   -8.8774   19.8949 H   0  0  0  0  0  0
  -22.3705  -10.9670   19.6163 H   0  0  0  0  0  0
  -21.2001   -7.6140   23.9705 H   0  0  0  0  0  0
  -21.1481   -6.0517   25.9070 H   0  0  0  0  0  0
  -22.0597   -2.7609   23.2835 H   0  0  0  0  0  0
  -22.4029  -11.9879   22.4851 H   0  0  0  0  0  0
  -21.1023  -13.1223   22.2617 H   0  0  0  0  0  0
  -24.6345  -15.8461   20.5242 H   0  0  0  0  0  0
  -26.2384  -15.6336   20.0417 H   0  0  0  0  0  0
  -26.7376  -32.5125   23.0845 H   0  0  0  0  0  0
  -25.0116  -33.9455   25.0210 H   0  0  0  0  0  0
  -22.7926  -31.2655   21.3431 H   0  0  0  0  0  0
  -23.3771  -35.9481   23.3275 H   0  0  0  0  0  0
  -24.3547  -36.8857   22.2066 H   0  0  0  0  0  0
  -23.7215  -37.6338   23.6724 H   0  0  0  0  0  0
  -26.2280  -31.3609   20.6196 H   0  0  0  0  0  0
  -26.9034  -30.6793   22.0600 H   0  0  0  0  0  0
  -28.1426  -28.5750   21.2899 H   0  0  0  0  0  0
  -25.8801  -25.7179   19.0000 H   0  0  0  0  0  0
  -24.0110  -27.2571   18.9458 H   0  0  0  0  0  0
  -23.8744  -30.5064   19.3820 H   0  0  0  0  0  0
  -22.8287  -29.1974   19.8281 H   0  0  0  0  0  0
  -25.1334  -36.1743   25.0788 H   0  0  0  0  0  0
  -21.0049  -28.3381   24.1292 H   0  0  0  0  0  0
  -20.5642  -26.2395   23.3646 H   0  0  0  0  0  0
  -21.6655  -26.7398   22.1232 H   0  0  0  0  0  0
  -19.6907  -25.6280   21.1274 H   0  0  0  0  0  0
  -19.6700  -27.3151   20.6706 H   0  0  0  0  0  0
  -17.4224  -26.6720   21.4012 H   0  0  0  0  0  0
  -18.0333  -26.0089   22.9006 H   0  0  0  0  0  0
  -19.7980  -30.7314   24.2220 H   0  0  0  0  0  0
  -17.5058  -31.6290   24.5158 H   0  0  0  0  0  0
  -15.5386  -30.2990   23.7692 H   0  0  0  0  0  0
  -15.8706  -28.0797   22.7154 H   0  0  0  0  0  0
  -24.5900  -30.7125   25.7653 H   0  0  0  0  0  0
  -24.8864  -32.2994   26.4632 H   0  0  0  0  0  0
  -25.7928  -30.9056   27.0212 H   0  0  0  0  0  0
  -26.3168  -29.6568   24.1402 H   0  0  0  0  0  0
  -27.4004  -29.7306   25.5094 H   0  0  0  0  0  0
  -27.9124  -30.4099   23.9866 H   0  0  0  0  0  0
  -27.2660  -33.3708   26.1929 H   0  0  0  0  0  0
  -28.3965  -32.6804   25.0367 H   0  0  0  0  0  0
  -28.0655  -31.8553   26.5519 H   0  0  0  0  0  0
  -28.2571  -38.0050   24.7539 H   0  0  0  0  0  0
  -28.1077  -36.2577   24.6278 H   0  0  0  0  0  0
  -27.2279  -37.1375   25.8869 H   0  0  0  0  0  0
  -20.9593  -29.8732   21.6624 H   0  0  0  0  0  0
  -26.0103  -38.2760   24.1465 H   0  0  0  0  0  0
  -31.3474  -18.6108   19.2254 H   0  0  0  0  0  0
  -28.1923  -23.0926   23.8449 H   0  0  0  0  0  0
  -27.9545  -24.4793   22.7084 H   0  0  0  0  0  0
  -26.4801  -22.9387   21.5169 H   0  0  0  0  0  0
  -27.2990  -21.5250   22.2509 H   0  0  0  0  0  0
  -29.9656  -22.1649   22.4659 H   0  0  0  0  0  0
  -30.1500  -23.8469   21.8538 H   0  0  0  0  0  0
  -27.3003  -24.0363   19.3652 H   0  0  0  0  0  0
  -28.9723  -24.1987   19.0838 H   0  0  0  0  0  0
  -32.0413  -20.9064   18.8866 H   0  0  0  0  0  0
  -31.1582  -22.2687   19.3594 H   0  0  0  0  0  0
  -28.6625  -16.2409   20.8236 H   0  0  0  0  0  0
  1 25  1  0  0  0
  1 30  2  0  0  0
  1 81  1  0  0  0
  2  3  1  0  0  0
  2 25  1  0  0  0
  2 83  1  0  0  0
  2 84  1  0  0  0
  3  4  1  0  0  0
  3 85  1  0  0  0
  3 86  1  0  0  0
  4  5  1  0  0  0
  4 87  1  0  0  0
  4 88  1  0  0  0
  5  6  1  0  0  0
  5 26  1  0  0  0
  5 89  1  0  0  0
  6 25  1  0  0  0
  6 90  1  0  0  0
  6 91  1  0  0  0
  7  8  2  0  0  0
  7 26  1  0  0  0
  7 29  1  0  0  0
  8  9  1  0  0  0
  8 22  1  0  0  0
  9 10  1  0  0  0
  9 27  2  0  0  0
 10 11  2  0  0  0
 10 15  1  0  0  0
 11 12  1  0  0  0
 11 92  1  0  0  0
 12 13  2  0  0  0
 12 93  1  0  0  0
 13 14  1  0  0  0
 13 31  1  0  0  0
 14 15  2  0  0  0
 14 94  1  0  0  0
 15 95  1  0  0  0
 16 17  2  0  0  0
 16 21  1  0  0  0
 16 31  1  0  0  0
 17 18  1  0  0  0
 17 96  1  0  0  0
 18 19  2  0  0  0
 18 97  1  0  0  0
 19 20  1  0  0  0
 19 24  1  0  0  0
 20 21  2  0  0  0
 20 98  1  0  0  0
 21 23  1  0  0  0
 22 28  1  0  0  0
 22 32  2  0  0  0
 26 27  1  0  0  0
 28 99  1  0  0  0
 28100  1  0  0  0
 29101  1  0  0  0
 29102  1  0  0  0
 33 34  1  0  0  0
 33 66  1  0  0  0
 33 70  2  0  0  0
 34 36  1  0  0  0
 34 59  1  0  0  0
 34103  1  0  0  0
 35 44  2  0  0  0
 35 45  1  0  0  0
 35 68  1  0  0  0
 36 56  1  0  0  0
 36104  1  0  0  0
 37 39  1  0  0  0
 37 47  1  0  0  0
 37 66  1  0  0  0
 37105  1  0  0  0
 38 43  2  0  0  0
 38 46  1  0  0  0
 38 47  1  0  0  0
 39 64  1  0  0  0
 39 67  2  0  0  0
 40 52  1  0  0  0
 40 53  2  0  0  0
 40 58  1  0  0  0
 41106  1  0  0  0
 41107  1  0  0  0
 41108  1  0  0  0
 41 48  1  0  0  0
 42 43  1  0  0  0
 42 66  1  0  0  0
 42109  1  0  0  0
 42110  1  0  0  0
 43 44  1  0  0  0
 44111  1  0  0  0
 45 46  2  0  0  0
 45112  1  0  0  0
 46113  1  0  0  0
 47114  1  0  0  0
 47115  1  0  0  0
 48 56  1  0  0  0
 48 65  1  0  0  0
 48116  1  0  0  0
 49 50  1  0  0  0
 49 53  1  0  0  0
 49 64  1  0  0  0
 49117  1  0  0  0
 50 51  1  0  0  0
 50118  1  0  0  0
 50119  1  0  0  0
 51 52  1  0  0  0
 51120  1  0  0  0
 51121  1  0  0  0
 52122  1  0  0  0
 52123  1  0  0  0
 53 54  1  0  0  0
 54 55  2  0  0  0
 54124  1  0  0  0
 55 57  1  0  0  0
 55125  1  0  0  0
 56 69  2  0  0  0
 57 58  2  0  0  0
 57126  1  0  0  0
 58127  1  0  0  0
 59 60  1  0  0  0
 59 61  1  0  0  0
 59 62  1  0  0  0
 60128  1  0  0  0
 60129  1  0  0  0
 60130  1  0  0  0
 61131  1  0  0  0
 61132  1  0  0  0
 61133  1  0  0  0
 62134  1  0  0  0
 62135  1  0  0  0
 62136  1  0  0  0
 63 65  1  0  0  0
 63137  1  0  0  0
 63138  1  0  0  0
 63139  1  0  0  0
 64140  1  0  0  0
 65141  1  0  0  0
 68 79  1  0  0  0
 71 72  1  0  0  0
 71 74  2  0  0  0
 71142  1  0  0  0
 72 73  2  0  0  0
 72 80  1  0  0  0
 73 78  1  0  0  0
 73 82  1  0  0  0
 74 81  1  0  0  0
 74 82  1  0  0  0
 75 76  1  0  0  0
 75 77  1  0  0  0
 75143  1  0  0  0
 75144  1  0  0  0
 76 78  1  0  0  0
 76145  1  0  0  0
 76146  1  0  0  0
 77 78  1  0  0  0
 77147  1  0  0  0
 77148  1  0  0  0
 78 79  1  0  0  0
 79149  1  0  0  0
 79150  1  0  0  0
 80151  1  0  0  0
 80152  1  0  0  0
 81153  1  0  0  0
M  ISO  4   1 100  68 101  79 101  81 100
M  END
> <chiral flag>
0

> <version>
0

> <s_m_source_file>
/data/baiqing/PycharmProjects/Reinvent-master-3.2/result/LINK_invent/BTK/process_docking_weight1_custom_product_contain_oxygen_bond_distance_aromatic_linkinvent_7_9_3/rearranged_h_0155.sdf

> <i_m_source_file_index>
19

> <r_mmod_Potential_Energy-OPLS-2005>
1369.01672363281

> <r_mmod_Stretch_Energy-OPLS-2005>
589.095336914062

> <r_mmod_Bend_Energy-OPLS-2005>
514.630676269531

> <r_mmod_Torsional_Energy-OPLS-2005>
223.129577636719

> <r_mmod_Improper_Torsional_Energy-OPLS-2005>
7.653892993927

> <r_mmod_Van_der_Waal_Energy-OPLS-2005>
105.078079223633

> <r_mmod_Electrostatic_Energy-OPLS-2005>
-348.675933837891

> <r_mmod_Solvation_Energy-OPLS-2005>
-214.711791992188

> <b_mmod_Minimization_Converged-OPLS-2005>
0

> <r_mmod_RMS_Derivative-OPLS-2005>
1.90111422538757

$$$$
19
                    3D
 Structure written by MMmdl.
154163  0  0  1  0            999 V2000
  -30.5203  -15.1722   20.3990 C   0  0  0  0  0  0
  -30.4247  -12.7501   19.5186 C   0  0  0  0  0  0
  -29.5230  -12.5611   18.2766 C   0  0  0  0  0  0
  -28.0687  -12.3057   18.7041 C   0  0  0  0  0  0
  -27.6119  -13.2737   19.8255 C   0  0  2  0  0  0
  -28.6492  -13.4245   20.9584 C   0  0  0  0  0  0
  -25.2398  -13.8255   20.5762 C   0  0  0  0  0  0
  -24.1741  -13.0447   20.9252 C   0  0  0  0  0  0
  -24.6394  -11.6941   20.8766 C   0  0  0  0  0  0
  -23.9091  -10.4297   21.0407 C   0  0  0  0  0  0
  -24.3637   -9.4208   21.9184 C   0  0  0  0  0  0
  -23.6307   -8.2245   22.0752 C   0  0  0  0  0  0
  -22.4288   -8.0285   21.3543 C   0  0  0  0  0  0
  -21.9930   -9.0260   20.4645 C   0  0  0  0  0  0
  -22.7263  -10.2137   20.3055 C   0  0  0  0  0  0
  -21.6855   -6.0742   22.5280 C   0  0  0  0  0  0
  -21.4017   -6.5645   23.8213 C   0  0  0  0  0  0
  -21.3659   -5.6796   24.9175 C   0  0  0  0  0  0
  -21.6044   -4.3060   24.7225 C   0  0  0  0  0  0
  -21.8818   -3.8151   23.4345 C   0  0  0  0  0  0
  -21.9194   -4.6968   22.3402 C   0  0  0  0  0  0
  -22.7758  -13.5199   21.1894 C   0  0  0  0  0  0
  -22.1662   -4.2154   21.0979 F   0  0  0  0  0  0
  -21.5626   -3.4542   25.7736 F   0  0  0  0  0  0
  -29.8869  -13.9053   20.3265 N   0  0  0  0  0  0
  -26.2820  -12.9526   20.3244 N   0  0  0  0  0  0
  -25.9330  -11.6632   20.5737 N   0  0  0  0  0  0
  -22.0420  -12.8178   22.0449 N   0  0  0  0  0  0
  -25.4068  -15.1984   20.4215 N   0  0  0  0  0  0
  -31.7348  -15.1044   20.1582 O   0  0  0  0  0  0
  -21.6646   -6.8887   21.4243 O   0  0  0  0  0  0
  -22.3433  -14.5498   20.6732 O   0  0  0  0  0  0
  -24.6575  -31.8299   23.1773 C   0  0  0  0  0  0
  -25.9286  -32.4617   23.8208 C   0  0  1  0  0  0
  -27.2076  -26.9788   20.1722 C   0  0  0  0  0  0
  -25.5980  -33.8431   24.2116 N   0  0  0  0  0  0
  -23.4690  -30.4458   21.5249 C   0  0  2  0  0  0
  -24.9213  -28.8500   20.1073 C   0  0  0  0  0  0
  -22.7642  -29.4474   22.4796 C   0  0  0  0  0  0
  -18.0320  -28.1407   22.8470 C   0  0  0  0  0  0
  -24.1497  -36.7216   23.2645 C   0  0  0  0  0  0
  -26.0361  -30.6513   21.4034 C   0  0  0  0  0  0
  -26.1024  -29.2480   20.7458 C   0  0  0  0  0  0
  -27.2403  -28.3296   20.7628 C   0  0  0  0  0  0
  -26.0074  -26.7375   19.4636 C   0  0  0  0  0  0
  -24.8969  -27.6141   19.4464 C   0  0  0  0  0  0
  -23.7054  -29.7708   20.1470 C   0  0  0  0  0  0
  -25.4133  -36.2982   24.0304 C   0  0  1  0  0  0
  -20.5941  -28.3746   23.1198 C   0  0  2  0  0  0
  -20.6797  -26.9433   22.5402 C   0  0  0  0  0  0
  -19.5768  -26.6379   21.5215 C   0  0  0  0  0  0
  -18.1952  -26.7941   22.1625 C   0  0  0  0  0  0
  -19.1581  -28.8896   23.2823 C   0  0  0  0  0  0
  -18.9493  -30.1487   23.8856 C   0  0  0  0  0  0
  -17.6486  -30.6597   24.0557 C   0  0  0  0  0  0
  -25.9095  -34.9362   23.5025 C   0  0  0  0  0  0
  -16.5377  -29.9087   23.6342 C   0  0  0  0  0  0
  -16.7302  -28.6507   23.0359 C   0  0  0  0  0  0
  -26.4557  -31.6535   25.0707 C   0  0  0  0  0  0
  -25.3703  -31.3777   26.1376 C   0  0  0  0  0  0
  -27.0439  -30.2902   24.6409 C   0  0  0  0  0  0
  -27.6064  -32.4328   25.7501 C   0  0  0  0  0  0
  -27.5571  -37.1768   24.8468 C   0  0  0  0  0  0
  -21.4316  -29.3047   22.3551 N   0  0  0  0  0  0
  -26.4283  -37.3711   23.9406 N   0  0  0  0  0  0
  -24.7416  -31.0012   22.0888 N   0  0  0  0  0  0
  -23.4215  -28.8032   23.3011 O   0  0  0  0  0  0
  -28.1924  -25.8756   20.2830 O   0  0  0  0  0  0
  -26.5695  -34.8887   22.4614 O   0  0  0  0  0  0
  -23.5657  -32.1253   23.6892 O   0  0  0  0  0  0
  -28.3913  -21.2170   22.1747 C   0  0  0  0  0  0
  -28.2354  -22.5037   21.7165 C   0  0  0  0  0  0
  -28.8439  -20.0742   21.3481 C   0  0  0  0  0  0
  -29.1618  -20.3883   20.0715 C   0  0  0  0  0  0
  -28.9590  -21.8741   19.5459 C   0  0  0  0  0  0
  -29.0114  -18.5946   21.9542 C   0  0  0  0  0  0
  -29.6437  -19.1232   19.1891 C   0  0  0  0  0  0
  -28.7821  -17.1524   21.1869 C   0  0  0  0  0  0
  -30.5045  -17.7929   19.7430 C   0  0  0  0  0  0
  -27.8461  -24.3714   19.8908 C   0  0  0  0  0  0
  -28.4943  -22.9483   20.3922 N   0  0  0  0  0  0
  -29.8830  -16.5116   20.3598 N   0  0  0  0  0  0
  -29.1660  -22.1282   18.3557 O   0  0  0  0  0  0
  -31.4514  -12.9151   19.1893 H   0  0  0  0  0  0
  -30.4579  -11.8373   20.1156 H   0  0  0  0  0  0
  -29.8861  -11.7357   17.6626 H   0  0  0  0  0  0
  -29.5704  -13.4543   17.6519 H   0  0  0  0  0  0
  -28.0084  -11.2769   19.0610 H   0  0  0  0  0  0
  -27.4001  -12.3703   17.8448 H   0  0  0  0  0  0
  -27.5353  -14.2483   19.3412 H   0  0  0  0  0  0
  -28.8011  -12.4837   21.4896 H   0  0  0  0  0  0
  -28.3021  -14.1449   21.6990 H   0  0  0  0  0  0
  -25.2780   -9.5684   22.4764 H   0  0  0  0  0  0
  -24.0015   -7.4636   22.7473 H   0  0  0  0  0  0
  -21.0861   -8.8786   19.8950 H   0  0  0  0  0  0
  -22.3724  -10.9679   19.6167 H   0  0  0  0  0  0
  -21.2011   -7.6154   23.9720 H   0  0  0  0  0  0
  -21.1480   -6.0525   25.9078 H   0  0  0  0  0  0
  -22.0598   -2.7614   23.2842 H   0  0  0  0  0  0
  -22.4058  -11.9850   22.4837 H   0  0  0  0  0  0
  -21.1029  -13.1175   22.2646 H   0  0  0  0  0  0
  -24.6428  -15.8544   20.5414 H   0  0  0  0  0  0
  -26.2612  -15.6381   20.1051 H   0  0  0  0  0  0
  -26.7349  -32.5170   23.0921 H   0  0  0  0  0  0
  -25.0086  -33.9523   25.0236 H   0  0  0  0  0  0
  -22.7793  -31.2765   21.3609 H   0  0  0  0  0  0
  -23.3766  -35.9540   23.3289 H   0  0  0  0  0  0
  -24.3579  -36.8874   22.2063 H   0  0  0  0  0  0
  -23.7247  -37.6400   23.6705 H   0  0  0  0  0  0
  -26.2130  -31.3962   20.6263 H   0  0  0  0  0  0
  -26.8979  -30.7042   22.0566 H   0  0  0  0  0  0
  -28.1280  -28.6251   21.3040 H   0  0  0  0  0  0
  -25.8757  -25.8073   18.9331 H   0  0  0  0  0  0
  -24.0030  -27.3096   18.9194 H   0  0  0  0  0  0
  -23.8570  -30.5440   19.3928 H   0  0  0  0  0  0
  -22.8164  -29.2232   19.8285 H   0  0  0  0  0  0
  -25.1331  -36.1789   25.0796 H   0  0  0  0  0  0
  -21.0033  -28.3350   24.1319 H   0  0  0  0  0  0
  -20.5683  -26.2365   23.3639 H   0  0  0  0  0  0
  -21.6660  -26.7417   22.1203 H   0  0  0  0  0  0
  -19.6929  -25.6281   21.1267 H   0  0  0  0  0  0
  -19.6703  -27.3172   20.6732 H   0  0  0  0  0  0
  -17.4219  -26.6682   21.4033 H   0  0  0  0  0  0
  -18.0351  -26.0096   22.9034 H   0  0  0  0  0  0
  -19.7968  -30.7316   24.2204 H   0  0  0  0  0  0
  -17.5039  -31.6274   24.5167 H   0  0  0  0  0  0
  -15.5375  -30.2975   23.7690 H   0  0  0  0  0  0
  -15.8702  -28.0814   22.7094 H   0  0  0  0  0  0
  -24.5894  -30.7113   25.7695 H   0  0  0  0  0  0
  -24.8883  -32.2975   26.4696 H   0  0  0  0  0  0
  -25.7949  -30.9016   27.0223 H   0  0  0  0  0  0
  -26.3095  -29.6592   24.1390 H   0  0  0  0  0  0
  -27.3957  -29.7249   25.5049 H   0  0  0  0  0  0
  -27.9048  -30.4088   23.9826 H   0  0  0  0  0  0
  -27.2647  -33.3669   26.1973 H   0  0  0  0  0  0
  -28.3930  -32.6818   25.0365 H   0  0  0  0  0  0
  -28.0672  -31.8519   26.5503 H   0  0  0  0  0  0
  -28.2577  -38.0073   24.7497 H   0  0  0  0  0  0
  -28.1072  -36.2595   24.6312 H   0  0  0  0  0  0
  -27.2283  -37.1435   25.8871 H   0  0  0  0  0  0
  -20.9558  -29.8743   21.6694 H   0  0  0  0  0  0
  -26.0133  -38.2774   24.1402 H   0  0  0  0  0  0
  -28.1452  -21.0225   23.2101 H   0  0  0  0  0  0
  -27.8664  -23.2938   22.3562 H   0  0  0  0  0  0
  -28.3061  -18.5801   22.7861 H   0  0  0  0  0  0
  -29.9856  -18.5674   22.4428 H   0  0  0  0  0  0
  -30.2714  -19.5723   18.4184 H   0  0  0  0  0  0
  -28.7687  -18.7658   18.6455 H   0  0  0  0  0  0
  -27.8867  -17.2175   20.5680 H   0  0  0  0  0  0
  -28.5333  -16.4253   21.9600 H   0  0  0  0  0  0
  -31.2877  -18.1403   20.4185 H   0  0  0  0  0  0
  -31.0563  -17.4263   18.8761 H   0  0  0  0  0  0
  -26.7932  -24.2419   20.1389 H   0  0  0  0  0  0
  -27.8977  -24.3441   18.8018 H   0  0  0  0  0  0
  1 25  1  0  0  0
  1 30  2  0  0  0
  1 82  1  0  0  0
  2  3  1  0  0  0
  2 25  1  0  0  0
  2 84  1  0  0  0
  2 85  1  0  0  0
  3  4  1  0  0  0
  3 86  1  0  0  0
  3 87  1  0  0  0
  4  5  1  0  0  0
  4 88  1  0  0  0
  4 89  1  0  0  0
  5  6  1  0  0  0
  5 26  1  0  0  0
  5 90  1  0  0  0
  6 25  1  0  0  0
  6 91  1  0  0  0
  6 92  1  0  0  0
  7  8  2  0  0  0
  7 26  1  0  0  0
  7 29  1  0  0  0
  8  9  1  0  0  0
  8 22  1  0  0  0
  9 10  1  0  0  0
  9 27  2  0  0  0
 10 11  2  0  0  0
 10 15  1  0  0  0
 11 12  1  0  0  0
 11 93  1  0  0  0
 12 13  2  0  0  0
 12 94  1  0  0  0
 13 14  1  0  0  0
 13 31  1  0  0  0
 14 15  2  0  0  0
 14 95  1  0  0  0
 15 96  1  0  0  0
 16 17  2  0  0  0
 16 21  1  0  0  0
 16 31  1  0  0  0
 17 18  1  0  0  0
 17 97  1  0  0  0
 18 19  2  0  0  0
 18 98  1  0  0  0
 19 20  1  0  0  0
 19 24  1  0  0  0
 20 21  2  0  0  0
 20 99  1  0  0  0
 21 23  1  0  0  0
 22 28  1  0  0  0
 22 32  2  0  0  0
 26 27  1  0  0  0
 28100  1  0  0  0
 28101  1  0  0  0
 29102  1  0  0  0
 29103  1  0  0  0
 33 34  1  0  0  0
 33 66  1  0  0  0
 33 70  2  0  0  0
 34 36  1  0  0  0
 34 59  1  0  0  0
 34104  1  0  0  0
 35 44  2  0  0  0
 35 45  1  0  0  0
 35 68  1  0  0  0
 36 56  1  0  0  0
 36105  1  0  0  0
 37 39  1  0  0  0
 37 47  1  0  0  0
 37 66  1  0  0  0
 37106  1  0  0  0
 38 43  2  0  0  0
 38 46  1  0  0  0
 38 47  1  0  0  0
 39 64  1  0  0  0
 39 67  2  0  0  0
 40 52  1  0  0  0
 40 53  2  0  0  0
 40 58  1  0  0  0
 41107  1  0  0  0
 41108  1  0  0  0
 41109  1  0  0  0
 41 48  1  0  0  0
 42 43  1  0  0  0
 42 66  1  0  0  0
 42110  1  0  0  0
 42111  1  0  0  0
 43 44  1  0  0  0
 44112  1  0  0  0
 45 46  2  0  0  0
 45113  1  0  0  0
 46114  1  0  0  0
 47115  1  0  0  0
 47116  1  0  0  0
 48 56  1  0  0  0
 48 65  1  0  0  0
 48117  1  0  0  0
 49 50  1  0  0  0
 49 53  1  0  0  0
 49 64  1  0  0  0
 49118  1  0  0  0
 50 51  1  0  0  0
 50119  1  0  0  0
 50120  1  0  0  0
 51 52  1  0  0  0
 51121  1  0  0  0
 51122  1  0  0  0
 52123  1  0  0  0
 52124  1  0  0  0
 53 54  1  0  0  0
 54 55  2  0  0  0
 54125  1  0  0  0
 55 57  1  0  0  0
 55126  1  0  0  0
 56 69  2  0  0  0
 57 58  2  0  0  0
 57127  1  0  0  0
 58128  1  0  0  0
 59 60  1  0  0  0
 59 61  1  0  0  0
 59 62  1  0  0  0
 60129  1  0  0  0
 60130  1  0  0  0
 60131  1  0  0  0
 61132  1  0  0  0
 61133  1  0  0  0
 61134  1  0  0  0
 62135  1  0  0  0
 62136  1  0  0  0
 62137  1  0  0  0
 63 65  1  0  0  0
 63138  1  0  0  0
 63139  1  0  0  0
 63140  1  0  0  0
 64141  1  0  0  0
 65142  1  0  0  0
 68 80  1  0  0  0
 71 72  2  0  0  0
 71 73  1  0  0  0
 71143  1  0  0  0
 72 81  1  0  0  0
 72144  1  0  0  0
 73 74  2  0  0  0
 73 76  1  0  0  0
 74 75  1  0  0  0
 74 77  1  0  0  0
 75 81  1  0  0  0
 75 83  2  0  0  0
 76 78  1  0  0  0
 76145  1  0  0  0
 76146  1  0  0  0
 77 79  1  0  0  0
 77147  1  0  0  0
 77148  1  0  0  0
 78 82  1  0  0  0
 78149  1  0  0  0
 78150  1  0  0  0
 79 82  1  0  0  0
 79151  1  0  0  0
 79152  1  0  0  0
 80 81  1  0  0  0
 80153  1  0  0  0
 80154  1  0  0  0
M  ISO  4   1 100  68 101  80 101  82 100
M  END
> <chiral flag>
0

> <version>
0

> <s_m_source_file>
/data/baiqing/PycharmProjects/Reinvent-master-3.2/result/LINK_invent/BTK/process_docking_weight1_custom_product_contain_oxygen_bond_distance_aromatic_linkinvent_7_9_3/rearranged_h_0155.sdf

> <i_m_source_file_index>
20

> <r_mmod_Potential_Energy-OPLS-2005>
1193.66369628906

> <r_mmod_Stretch_Energy-OPLS-2005>
424.391784667969

> <r_mmod_Bend_Energy-OPLS-2005>
406.049194335938

> <r_mmod_Torsional_Energy-OPLS-2005>
295.960754394531

> <r_mmod_Improper_Torsional_Energy-OPLS-2005>
12.4398460388184

> <r_mmod_Van_der_Waal_Energy-OPLS-2005>
144.483932495117

> <r_mmod_Electrostatic_Energy-OPLS-2005>
-249.440185546875

> <r_mmod_Solvation_Energy-OPLS-2005>
-215.413848876953

> <b_mmod_Minimization_Converged-OPLS-2005>
0

> <r_mmod_RMS_Derivative-OPLS-2005>
0.581897139549255

$$$$
20
                    3D
 Structure written by MMmdl.
156164  0  0  1  0            999 V2000
  -30.6821  -14.5328   20.4994 C   0  0  0  0  0  0
  -30.4299  -12.3136   19.4478 C   0  0  0  0  0  0
  -29.4838  -12.3860   18.2284 C   0  0  0  0  0  0
  -28.0067  -12.2998   18.6548 C   0  0  0  0  0  0
  -27.6503  -13.2077   19.8606 C   0  0  2  0  0  0
  -28.6957  -13.0582   20.9894 C   0  0  0  0  0  0
  -25.2521  -13.8205   20.5713 C   0  0  0  0  0  0
  -24.1774  -13.0473   20.9230 C   0  0  0  0  0  0
  -24.6339  -11.6952   20.8797 C   0  0  0  0  0  0
  -23.9024  -10.4311   21.0420 C   0  0  0  0  0  0
  -24.3574   -9.4225   21.9189 C   0  0  0  0  0  0
  -23.6270   -8.2248   22.0737 C   0  0  0  0  0  0
  -22.4253   -8.0279   21.3518 C   0  0  0  0  0  0
  -21.9891   -9.0257   20.4628 C   0  0  0  0  0  0
  -22.7205  -10.2144   20.3054 C   0  0  0  0  0  0
  -21.6873   -6.0716   22.5258 C   0  0  0  0  0  0
  -21.4054   -6.5624   23.8196 C   0  0  0  0  0  0
  -21.3667   -5.6769   24.9154 C   0  0  0  0  0  0
  -21.6049   -4.3030   24.7198 C   0  0  0  0  0  0
  -21.8832   -3.8124   23.4316 C   0  0  0  0  0  0
  -21.9218   -4.6947   22.3382 C   0  0  0  0  0  0
  -22.7791  -13.5263   21.1903 C   0  0  0  0  0  0
  -22.1688   -4.2135   21.0958 F   0  0  0  0  0  0
  -21.5597   -3.4518   25.7713 F   0  0  0  0  0  0
  -30.0219  -13.3439   20.4210 N   0  0  0  0  0  0
  -26.2959  -12.9383   20.3383 N   0  0  0  0  0  0
  -25.9281  -11.6553   20.5907 N   0  0  0  0  0  0
  -22.0454  -12.8214   22.0429 N   0  0  0  0  0  0
  -25.4242  -15.1916   20.4071 N   0  0  0  0  0  0
  -31.8613  -14.6602   20.1653 O   0  0  0  0  0  0
  -21.6641   -6.8856   21.4213 O   0  0  0  0  0  0
  -22.3478  -14.5593   20.6791 O   0  0  0  0  0  0
  -24.6169  -31.8657   23.2100 C   0  0  0  0  0  0
  -25.9061  -32.4798   23.8392 C   0  0  1  0  0  0
  -27.2276  -27.4131   20.1134 C   0  0  0  0  0  0
  -25.5916  -33.8595   24.2315 N   0  0  0  0  0  0
  -23.4050  -30.4946   21.5470 C   0  0  2  0  0  0
  -24.8504  -28.9602   20.1089 C   0  0  0  0  0  0
  -22.7414  -29.4659   22.4923 C   0  0  0  0  0  0
  -18.0277  -28.1407   22.8461 C   0  0  0  0  0  0
  -24.1493  -36.7315   23.2638 C   0  0  0  0  0  0
  -25.9365  -30.8279   21.3643 C   0  0  0  0  0  0
  -26.0124  -29.4637   20.7074 C   0  0  0  0  0  0
  -27.2050  -28.7024   20.6987 C   0  0  0  0  0  0
  -26.0479  -26.9285   19.5035 C   0  0  0  0  0  0
  -24.8660  -27.6951   19.4972 C   0  0  0  0  0  0
  -23.6162  -29.8354   20.1587 C   0  0  0  0  0  0
  -25.4105  -36.3092   24.0337 C   0  0  1  0  0  0
  -20.5863  -28.3690   23.1290 C   0  0  2  0  0  0
  -20.6771  -26.9414   22.5423 C   0  0  0  0  0  0
  -19.5773  -26.6395   21.5199 C   0  0  0  0  0  0
  -18.1934  -26.7956   22.1584 C   0  0  0  0  0  0
  -19.1528  -28.8861   23.2879 C   0  0  0  0  0  0
  -18.9454  -30.1460   23.8911 C   0  0  0  0  0  0
  -17.6463  -30.6601   24.0567 C   0  0  0  0  0  0
  -25.9038  -34.9458   23.5116 C   0  0  0  0  0  0
  -16.5349  -29.9113   23.6319 C   0  0  0  0  0  0
  -16.7271  -28.6534   23.0324 C   0  0  0  0  0  0
  -26.4475  -31.6583   25.0731 C   0  0  0  0  0  0
  -25.3740  -31.3740   26.1495 C   0  0  0  0  0  0
  -27.0286  -30.3008   24.6125 C   0  0  0  0  0  0
  -27.6058  -32.4295   25.7488 C   0  0  0  0  0  0
  -27.5577  -37.1807   24.8449 C   0  0  0  0  0  0
  -21.4134  -29.3059   22.3685 N   0  0  0  0  0  0
  -26.4279  -37.3782   23.9411 N   0  0  0  0  0  0
  -24.6708  -31.0766   22.0992 N   0  0  0  0  0  0
  -23.4176  -28.8161   23.2942 O   0  0  0  0  0  0
  -28.3822  -26.6537   20.1567 O   0  0  0  0  0  0
  -26.5583  -34.8915   22.4667 O   0  0  0  0  0  0
  -23.5354  -32.1402   23.7493 O   0  0  0  0  0  0
  -30.1218  -18.3984   18.1946 C   0  0  0  0  0  0
  -30.0034  -19.5348   19.0065 C   0  0  0  0  0  0
  -29.8674  -18.1016   20.9656 C   0  0  0  0  0  0
  -30.1031  -17.1010   18.7413 C   0  0  0  0  0  0
  -29.8560  -19.4149   20.4029 C   0  0  0  0  0  0
  -30.0062  -16.9286   20.1560 C   0  0  0  0  0  0
  -29.2791  -23.0937   21.5645 C   0  0  0  0  0  0
  -29.3986  -24.5709   21.0501 C   0  0  0  0  0  0
  -30.1041  -15.9510   17.7454 C   0  0  0  0  0  0
  -29.5095  -21.9205   20.5792 C   0  0  0  0  0  0
  -28.2085  -25.2200   20.3061 C   0  0  0  0  0  0
  -29.9082  -15.6176   20.7592 N   0  0  0  0  0  0
  -29.6818  -20.5778   21.1953 N   0  0  0  0  0  0
  -29.0509  -22.8677   22.7608 O   0  0  0  0  0  0
  -30.4279  -25.2213   21.2831 O   0  0  0  0  0  0
  -31.4633  -12.4308   19.1170 H   0  0  0  0  0  0
  -30.3798  -11.3308   19.9179 H   0  0  0  0  0  0
  -29.7046  -11.5551   17.5546 H   0  0  0  0  0  0
  -29.6616  -13.2846   17.6484 H   0  0  0  0  0  0
  -27.8120  -11.2605   18.9191 H   0  0  0  0  0  0
  -27.3464  -12.5159   17.8153 H   0  0  0  0  0  0
  -27.6780  -14.2355   19.4977 H   0  0  0  0  0  0
  -28.6801  -12.0478   21.3992 H   0  0  0  0  0  0
  -28.4578  -13.7183   21.8252 H   0  0  0  0  0  0
  -25.2698   -9.5745   22.4774 H   0  0  0  0  0  0
  -24.0020   -7.4646   22.7429 H   0  0  0  0  0  0
  -21.0859   -8.8779   19.8898 H   0  0  0  0  0  0
  -22.3670  -10.9696   19.6167 H   0  0  0  0  0  0
  -21.2073   -7.6134   23.9709 H   0  0  0  0  0  0
  -21.1480   -6.0473   25.9059 H   0  0  0  0  0  0
  -22.0615   -2.7594   23.2798 H   0  0  0  0  0  0
  -22.4083  -11.9818   22.4699 H   0  0  0  0  0  0
  -21.1109  -13.1259   22.2783 H   0  0  0  0  0  0
  -24.6644  -15.8519   20.5351 H   0  0  0  0  0  0
  -26.2778  -15.6308   20.0853 H   0  0  0  0  0  0
  -26.7115  -32.5503   23.1143 H   0  0  0  0  0  0
  -25.0081  -33.9750   25.0470 H   0  0  0  0  0  0
  -22.6935  -31.3122   21.4145 H   0  0  0  0  0  0
  -23.3729  -35.9675   23.3309 H   0  0  0  0  0  0
  -24.3585  -36.8918   22.2049 H   0  0  0  0  0  0
  -23.7274  -37.6537   23.6641 H   0  0  0  0  0  0
  -26.0559  -31.5949   20.5979 H   0  0  0  0  0  0
  -26.8213  -30.8740   21.9868 H   0  0  0  0  0  0
  -28.1007  -29.0900   21.1629 H   0  0  0  0  0  0
  -26.0279  -25.9585   19.0274 H   0  0  0  0  0  0
  -23.9754  -27.3044   19.0237 H   0  0  0  0  0  0
  -23.7363  -30.6184   19.4094 H   0  0  0  0  0  0
  -22.7362  -29.2690   19.8500 H   0  0  0  0  0  0
  -25.1277  -36.1948   25.0825 H   0  0  0  0  0  0
  -20.9969  -28.3303   24.1407 H   0  0  0  0  0  0
  -20.5658  -26.2301   23.3620 H   0  0  0  0  0  0
  -21.6652  -26.7461   22.1248 H   0  0  0  0  0  0
  -19.6935  -25.6299   21.1253 H   0  0  0  0  0  0
  -19.6753  -27.3182   20.6710 H   0  0  0  0  0  0
  -17.4215  -26.6697   21.3970 H   0  0  0  0  0  0
  -18.0329  -26.0109   22.8992 H   0  0  0  0  0  0
  -19.7934  -30.7259   24.2298 H   0  0  0  0  0  0
  -17.5028  -31.6283   24.5179 H   0  0  0  0  0  0
  -15.5354  -30.3027   23.7658 H   0  0  0  0  0  0
  -15.8662  -28.0890   22.7002 H   0  0  0  0  0  0
  -24.5924  -30.7040   25.7894 H   0  0  0  0  0  0
  -24.8916  -32.2914   26.4880 H   0  0  0  0  0  0
  -25.8118  -30.8997   27.0292 H   0  0  0  0  0  0
  -26.2839  -29.6791   24.1140 H   0  0  0  0  0  0
  -27.3982  -29.7223   25.4605 H   0  0  0  0  0  0
  -27.8715  -30.4295   23.9329 H   0  0  0  0  0  0
  -27.2674  -33.3567   26.2128 H   0  0  0  0  0  0
  -28.3849  -32.6893   25.0306 H   0  0  0  0  0  0
  -28.0754  -31.8376   26.5358 H   0  0  0  0  0  0
  -28.2604  -38.0095   24.7462 H   0  0  0  0  0  0
  -28.1055  -36.2618   24.6289 H   0  0  0  0  0  0
  -27.2303  -37.1502   25.8856 H   0  0  0  0  0  0
  -20.9264  -29.8812   21.6958 H   0  0  0  0  0  0
  -26.0161  -38.2854   24.1416 H   0  0  0  0  0  0
  -30.1929  -18.5385   17.1260 H   0  0  0  0  0  0
  -30.0024  -20.4982   18.5188 H   0  0  0  0  0  0
  -29.7450  -17.9847   22.0346 H   0  0  0  0  0  0
  -29.1482  -15.4303   17.7894 H   0  0  0  0  0  0
  -30.9107  -15.2426   17.9170 H   0  0  0  0  0  0
  -30.2361  -16.3000   16.7219 H   0  0  0  0  0  0
  -30.3882  -22.1643   19.9800 H   0  0  0  0  0  0
  -28.6560  -21.8956   19.9014 H   0  0  0  0  0  0
  -27.3051  -25.0080   20.8787 H   0  0  0  0  0  0
  -28.0942  -24.7568   19.3254 H   0  0  0  0  0  0
  -29.0384  -15.4206   21.2271 H   0  0  0  0  0  0
  -29.6143  -20.5285   22.2101 H   0  0  0  0  0  0
  1 25  1  0  0  0
  1 30  2  0  0  0
  1 82  1  0  0  0
  2  3  1  0  0  0
  2 25  1  0  0  0
  2 86  1  0  0  0
  2 87  1  0  0  0
  3  4  1  0  0  0
  3 88  1  0  0  0
  3 89  1  0  0  0
  4  5  1  0  0  0
  4 90  1  0  0  0
  4 91  1  0  0  0
  5  6  1  0  0  0
  5 26  1  0  0  0
  5 92  1  0  0  0
  6 25  1  0  0  0
  6 93  1  0  0  0
  6 94  1  0  0  0
  7  8  2  0  0  0
  7 26  1  0  0  0
  7 29  1  0  0  0
  8  9  1  0  0  0
  8 22  1  0  0  0
  9 10  1  0  0  0
  9 27  2  0  0  0
 10 11  2  0  0  0
 10 15  1  0  0  0
 11 12  1  0  0  0
 11 95  1  0  0  0
 12 13  2  0  0  0
 12 96  1  0  0  0
 13 14  1  0  0  0
 13 31  1  0  0  0
 14 15  2  0  0  0
 14 97  1  0  0  0
 15 98  1  0  0  0
 16 17  2  0  0  0
 16 21  1  0  0  0
 16 31  1  0  0  0
 17 18  1  0  0  0
 17 99  1  0  0  0
 18 19  2  0  0  0
 18100  1  0  0  0
 19 20  1  0  0  0
 19 24  1  0  0  0
 20 21  2  0  0  0
 20101  1  0  0  0
 21 23  1  0  0  0
 22 28  1  0  0  0
 22 32  2  0  0  0
 26 27  1  0  0  0
 28102  1  0  0  0
 28103  1  0  0  0
 29104  1  0  0  0
 29105  1  0  0  0
 33 34  1  0  0  0
 33 66  1  0  0  0
 33 70  2  0  0  0
 34 36  1  0  0  0
 34 59  1  0  0  0
 34106  1  0  0  0
 35 44  2  0  0  0
 35 45  1  0  0  0
 35 68  1  0  0  0
 36 56  1  0  0  0
 36107  1  0  0  0
 37 39  1  0  0  0
 37 47  1  0  0  0
 37 66  1  0  0  0
 37108  1  0  0  0
 38 43  2  0  0  0
 38 46  1  0  0  0
 38 47  1  0  0  0
 39 64  1  0  0  0
 39 67  2  0  0  0
 40 52  1  0  0  0
 40 53  2  0  0  0
 40 58  1  0  0  0
 41109  1  0  0  0
 41110  1  0  0  0
 41111  1  0  0  0
 41 48  1  0  0  0
 42 43  1  0  0  0
 42 66  1  0  0  0
 42112  1  0  0  0
 42113  1  0  0  0
 43 44  1  0  0  0
 44114  1  0  0  0
 45 46  2  0  0  0
 45115  1  0  0  0
 46116  1  0  0  0
 47117  1  0  0  0
 47118  1  0  0  0
 48 56  1  0  0  0
 48 65  1  0  0  0
 48119  1  0  0  0
 49 50  1  0  0  0
 49 53  1  0  0  0
 49 64  1  0  0  0
 49120  1  0  0  0
 50 51  1  0  0  0
 50121  1  0  0  0
 50122  1  0  0  0
 51 52  1  0  0  0
 51123  1  0  0  0
 51124  1  0  0  0
 52125  1  0  0  0
 52126  1  0  0  0
 53 54  1  0  0  0
 54 55  2  0  0  0
 54127  1  0  0  0
 55 57  1  0  0  0
 55128  1  0  0  0
 56 69  2  0  0  0
 57 58  2  0  0  0
 57129  1  0  0  0
 58130  1  0  0  0
 59 60  1  0  0  0
 59 61  1  0  0  0
 59 62  1  0  0  0
 60131  1  0  0  0
 60132  1  0  0  0
 60133  1  0  0  0
 61134  1  0  0  0
 61135  1  0  0  0
 61136  1  0  0  0
 62137  1  0  0  0
 62138  1  0  0  0
 62139  1  0  0  0
 63 65  1  0  0  0
 63140  1  0  0  0
 63141  1  0  0  0
 63142  1  0  0  0
 64143  1  0  0  0
 65144  1  0  0  0
 68 81  1  0  0  0
 71 72  2  0  0  0
 71 74  1  0  0  0
 71145  1  0  0  0
 72 75  1  0  0  0
 72146  1  0  0  0
 73 75  2  0  0  0
 73 76  1  0  0  0
 73147  1  0  0  0
 74 76  2  0  0  0
 74 79  1  0  0  0
 75 83  1  0  0  0
 76 82  1  0  0  0
 77 78  1  0  0  0
 77 80  1  0  0  0
 77 84  2  0  0  0
 78 81  1  0  0  0
 78 85  2  0  0  0
 79148  1  0  0  0
 79149  1  0  0  0
 79150  1  0  0  0
 80 83  1  0  0  0
 80151  1  0  0  0
 80152  1  0  0  0
 81153  1  0  0  0
 81154  1  0  0  0
 82155  1  0  0  0
 83156  1  0  0  0
M  ISO  4   1 100  68 101  81 101  82 100
M  END
> <chiral flag>
0

> <version>
0

> <s_m_source_file>
/data/baiqing/PycharmProjects/Reinvent-master-3.2/result/LINK_invent/BTK/process_docking_weight1_custom_product_contain_oxygen_bond_distance_aromatic_linkinvent_7_9_3/rearranged_h_0155.sdf

> <i_m_source_file_index>
21

> <r_mmod_Potential_Energy-OPLS-2005>
105.157341003418

> <r_mmod_Stretch_Energy-OPLS-2005>
50.7364387512207

> <r_mmod_Bend_Energy-OPLS-2005>
108.29377746582

> <r_mmod_Torsional_Energy-OPLS-2005>
269.361602783203

> <r_mmod_Improper_Torsional_Energy-OPLS-2005>
6.3139328956604

> <r_mmod_Van_der_Waal_Energy-OPLS-2005>
152.896331787109

> <r_mmod_Electrostatic_Energy-OPLS-2005>
-247.747375488281

> <r_mmod_Solvation_Energy-OPLS-2005>
-261.351318359375

> <b_mmod_Minimization_Converged-OPLS-2005>
0

> <r_mmod_RMS_Derivative-OPLS-2005>
4.08776330947876

$$$$
21
                    3D
 Structure written by MMmdl.
163172  0  0  1  0            999 V2000
  -30.6520  -14.5648   20.5369 C   0  0  0  0  0  0
  -30.4372  -12.3529   19.4422 C   0  0  0  0  0  0
  -29.5050  -12.5091   18.2203 C   0  0  0  0  0  0
  -28.0266  -12.3447   18.6284 C   0  0  0  0  0  0
  -27.6569  -13.1946   19.8718 C   0  0  2  0  0  0
  -28.7011  -13.0180   20.9985 C   0  0  0  0  0  0
  -25.2514  -13.8055   20.5683 C   0  0  0  0  0  0
  -24.1775  -13.0351   20.9182 C   0  0  0  0  0  0
  -24.6343  -11.6832   20.8721 C   0  0  0  0  0  0
  -23.9008  -10.4245   21.0396 C   0  0  0  0  0  0
  -24.3567   -9.4182   21.9182 C   0  0  0  0  0  0
  -23.6263   -8.2209   22.0754 C   0  0  0  0  0  0
  -22.4247   -8.0247   21.3536 C   0  0  0  0  0  0
  -21.9867   -9.0211   20.4641 C   0  0  0  0  0  0
  -22.7179  -10.2094   20.3051 C   0  0  0  0  0  0
  -21.6847   -6.0704   22.5276 C   0  0  0  0  0  0
  -21.4004   -6.5621   23.8209 C   0  0  0  0  0  0
  -21.3661   -5.6779   24.9174 C   0  0  0  0  0  0
  -21.6056   -4.3040   24.7231 C   0  0  0  0  0  0
  -21.8822   -3.8125   23.4352 C   0  0  0  0  0  0
  -21.9189   -4.6930   22.3403 C   0  0  0  0  0  0
  -22.7808  -13.5182   21.1853 C   0  0  0  0  0  0
  -22.1657   -4.2111   21.0984 F   0  0  0  0  0  0
  -21.5638   -3.4541   25.7753 F   0  0  0  0  0  0
  -30.0298  -13.3491   20.4498 N   0  0  0  0  0  0
  -26.2971  -12.9238   20.3342 N   0  0  0  0  0  0
  -25.9271  -11.6410   20.5750 N   0  0  0  0  0  0
  -22.0424  -12.8206   22.0410 N   0  0  0  0  0  0
  -25.4087  -15.1772   20.4134 N   0  0  0  0  0  0
  -31.7738  -14.7684   20.0631 O   0  0  0  0  0  0
  -21.6617   -6.8840   21.4237 O   0  0  0  0  0  0
  -22.3527  -14.5508   20.6711 O   0  0  0  0  0  0
  -24.6179  -31.8635   23.2053 C   0  0  0  0  0  0
  -25.9057  -32.4799   23.8360 C   0  0  1  0  0  0
  -27.2436  -27.3860   20.1088 C   0  0  0  0  0  0
  -25.5904  -33.8599   24.2294 N   0  0  0  0  0  0
  -23.4081  -30.4850   21.5461 C   0  0  2  0  0  0
  -24.8570  -28.9430   20.1101 C   0  0  0  0  0  0
  -22.7425  -29.4635   22.4969 C   0  0  0  0  0  0
  -18.0274  -28.1383   22.8494 C   0  0  0  0  0  0
  -24.1490  -36.7305   23.2631 C   0  0  0  0  0  0
  -25.9391  -30.8158   21.3632 C   0  0  0  0  0  0
  -26.0159  -29.4456   20.7107 C   0  0  0  0  0  0
  -27.2039  -28.6736   20.7076 C   0  0  0  0  0  0
  -26.0586  -26.9043   19.5038 C   0  0  0  0  0  0
  -24.8760  -27.6743   19.5031 C   0  0  0  0  0  0
  -23.6190  -29.8137   20.1612 C   0  0  0  0  0  0
  -25.4107  -36.3097   24.0333 C   0  0  1  0  0  0
  -20.5866  -28.3669   23.1315 C   0  0  2  0  0  0
  -20.6768  -26.9406   22.5417 C   0  0  0  0  0  0
  -19.5747  -26.6390   21.5217 C   0  0  0  0  0  0
  -18.1925  -26.7928   22.1628 C   0  0  0  0  0  0
  -19.1522  -28.8845   23.2899 C   0  0  0  0  0  0
  -18.9448  -30.1452   23.8905 C   0  0  0  0  0  0
  -17.6452  -30.6586   24.0566 C   0  0  0  0  0  0
  -25.9043  -34.9466   23.5114 C   0  0  0  0  0  0
  -16.5343  -29.9088   23.6330 C   0  0  0  0  0  0
  -16.7263  -28.6508   23.0347 C   0  0  0  0  0  0
  -26.4475  -31.6591   25.0705 C   0  0  0  0  0  0
  -25.3735  -31.3720   26.1457 C   0  0  0  0  0  0
  -27.0293  -30.3023   24.6102 C   0  0  0  0  0  0
  -27.6061  -32.4302   25.7460 C   0  0  0  0  0  0
  -27.5595  -37.1785   24.8446 C   0  0  0  0  0  0
  -21.4149  -29.3026   22.3715 N   0  0  0  0  0  0
  -26.4280  -37.3798   23.9433 N   0  0  0  0  0  0
  -24.6739  -31.0700   22.0972 N   0  0  0  0  0  0
  -23.4180  -28.8186   23.3034 O   0  0  0  0  0  0
  -28.4236  -26.6544   20.1978 O   0  0  0  0  0  0
  -26.5610  -34.8924   22.4679 O   0  0  0  0  0  0
  -23.5364  -32.1411   23.7426 O   0  0  0  0  0  0
  -30.3855  -18.0746   20.6913 C   0  0  0  0  0  0
  -28.4314  -17.0625   19.8989 C   0  0  0  0  0  0
  -29.6199  -16.8556   20.5483 C   0  0  0  0  0  0
  -29.7497  -19.1868   20.1412 C   0  0  0  0  0  0
  -30.2215  -20.5586   19.9060 C   0  0  0  0  0  0
  -29.4299  -22.9264   17.9734 C   0  0  0  0  0  0
  -27.8258  -23.3450   20.8086 C   0  0  0  0  0  0
  -28.2584  -21.8529   20.9050 C   0  0  0  0  0  0
  -29.8130  -23.0115   19.4681 C   0  0  1  0  0  0
  -29.0349  -24.1265   20.2560 C   0  0  1  0  0  0
  -30.3282  -23.6527   16.9796 C   0  0  0  0  0  0
  -28.6985  -25.4472   19.4380 C   0  0  0  0  0  0
  -29.4985  -21.7124   20.1175 N   0  0  0  0  0  0
  -29.9203  -15.5568   21.1039 N   0  0  0  0  0  0
  -31.4568  -20.6536   19.3851 N   0  3  0  0  0  0
  -28.4371  -22.3233   17.5552 O   0  0  0  0  0  0
  -29.8844  -24.5473   21.3230 O   0  0  0  0  0  0
  -28.2095  -18.7294   19.4546 S   0  0  0  0  0  0
  -31.4794  -12.4744   19.1406 H   0  0  0  0  0  0
  -30.3624  -11.3457   19.8557 H   0  0  0  0  0  0
  -29.7642  -11.7799   17.4520 H   0  0  0  0  0  0
  -29.6528  -13.4913   17.7709 H   0  0  0  0  0  0
  -27.8539  -11.2888   18.8372 H   0  0  0  0  0  0
  -27.3738  -12.6009   17.7927 H   0  0  0  0  0  0
  -27.6868  -14.2278   19.5447 H   0  0  0  0  0  0
  -28.6957  -11.9876   21.3581 H   0  0  0  0  0  0
  -28.4395  -13.6271   21.8646 H   0  0  0  0  0  0
  -25.2708   -9.5677   22.4751 H   0  0  0  0  0  0
  -23.9980   -7.4605   22.7472 H   0  0  0  0  0  0
  -21.0800   -8.8721   19.8954 H   0  0  0  0  0  0
  -22.3632  -10.9630   19.6159 H   0  0  0  0  0  0
  -21.1990   -7.6129   23.9701 H   0  0  0  0  0  0
  -21.1488   -6.0507   25.9080 H   0  0  0  0  0  0
  -22.0600   -2.7582   23.2859 H   0  0  0  0  0  0
  -22.4013  -11.9863   22.4812 H   0  0  0  0  0  0
  -21.1040  -13.1261   22.2603 H   0  0  0  0  0  0
  -24.6282  -15.8167   20.5195 H   0  0  0  0  0  0
  -26.2514  -15.6332   20.1067 H   0  0  0  0  0  0
  -26.7125  -32.5495   23.1115 H   0  0  0  0  0  0
  -25.0058  -33.9757   25.0444 H   0  0  0  0  0  0
  -22.6986  -31.3036   21.4048 H   0  0  0  0  0  0
  -23.3778  -35.9604   23.3222 H   0  0  0  0  0  0
  -24.3611  -36.8997   22.2063 H   0  0  0  0  0  0
  -23.7192  -37.6467   23.6691 H   0  0  0  0  0  0
  -26.0543  -31.5799   20.5932 H   0  0  0  0  0  0
  -26.8260  -30.8711   21.9827 H   0  0  0  0  0  0
  -28.0955  -29.0570   21.1840 H   0  0  0  0  0  0
  -26.0071  -25.9234   19.0575 H   0  0  0  0  0  0
  -23.9804  -27.2774   19.0447 H   0  0  0  0  0  0
  -23.7273  -30.5879   19.4008 H   0  0  0  0  0  0
  -22.7425  -29.2341   19.8668 H   0  0  0  0  0  0
  -25.1274  -36.1945   25.0822 H   0  0  0  0  0  0
  -20.9960  -28.3241   24.1436 H   0  0  0  0  0  0
  -20.5689  -26.2276   23.3603 H   0  0  0  0  0  0
  -21.6637  -26.7464   22.1198 H   0  0  0  0  0  0
  -19.6911  -25.6303   21.1239 H   0  0  0  0  0  0
  -19.6689  -27.3211   20.6755 H   0  0  0  0  0  0
  -17.4198  -26.6675   21.4026 H   0  0  0  0  0  0
  -18.0331  -26.0068   22.9024 H   0  0  0  0  0  0
  -19.7926  -30.7268   24.2274 H   0  0  0  0  0  0
  -17.5007  -31.6269   24.5166 H   0  0  0  0  0  0
  -15.5340  -30.2993   23.7654 H   0  0  0  0  0  0
  -15.8664  -28.0834   22.7047 H   0  0  0  0  0  0
  -24.5872  -30.7117   25.7783 H   0  0  0  0  0  0
  -24.8972  -32.2889   26.4937 H   0  0  0  0  0  0
  -25.8071  -30.8843   27.0194 H   0  0  0  0  0  0
  -26.2830  -29.6786   24.1166 H   0  0  0  0  0  0
  -27.4060  -29.7265   25.4565 H   0  0  0  0  0  0
  -27.8672  -30.4321   23.9249 H   0  0  0  0  0  0
  -27.2704  -33.3624   26.2012 H   0  0  0  0  0  0
  -28.3880  -32.6816   25.0283 H   0  0  0  0  0  0
  -28.0708  -31.8429   26.5388 H   0  0  0  0  0  0
  -28.2540  -38.0157   24.7610 H   0  0  0  0  0  0
  -28.1164  -36.2697   24.6112 H   0  0  0  0  0  0
  -27.2337  -37.1242   25.8849 H   0  0  0  0  0  0
  -20.9319  -29.8734   21.6918 H   0  0  0  0  0  0
  -26.0161  -38.2858   24.1502 H   0  0  0  0  0  0
  -31.3542  -18.0966   21.1716 H   0  0  0  0  0  0
  -27.6626  -16.3640   19.6276 H   0  0  0  0  0  0
  -27.4867  -23.7400   21.7672 H   0  0  0  0  0  0
  -26.9820  -23.4242   20.1226 H   0  0  0  0  0  0
  -27.4671  -21.2006   20.5415 H   0  0  0  0  0  0
  -28.4715  -21.5740   21.9370 H   0  0  0  0  0  0
  -30.8833  -23.1994   19.5379 H   0  0  0  0  0  0
  -31.1703  -24.1242   17.4863 H   0  0  0  0  0  0
  -29.7655  -24.4260   16.4565 H   0  0  0  0  0  0
  -30.7190  -22.9510   16.2432 H   0  0  0  0  0  0
  -27.9449  -25.2439   18.6809 H   0  0  0  0  0  0
  -29.5885  -25.7098   18.8657 H   0  0  0  0  0  0
  -29.1354  -15.1511   21.5898 H   0  0  0  0  0  0
  -31.9626  -19.8112   19.1558 H   0  0  0  0  0  0
  -31.9538  -21.5260   19.2999 H   0  0  0  0  0  0
  -29.9059  -23.8753   21.9958 H   0  0  0  0  0  0
  1 25  1  0  0  0
  1 30  2  0  0  0
  1 84  1  0  0  0
  2  3  1  0  0  0
  2 25  1  0  0  0
  2 89  1  0  0  0
  2 90  1  0  0  0
  3  4  1  0  0  0
  3 91  1  0  0  0
  3 92  1  0  0  0
  4  5  1  0  0  0
  4 93  1  0  0  0
  4 94  1  0  0  0
  5  6  1  0  0  0
  5 26  1  0  0  0
  5 95  1  0  0  0
  6 25  1  0  0  0
  6 96  1  0  0  0
  6 97  1  0  0  0
  7  8  2  0  0  0
  7 26  1  0  0  0
  7 29  1  0  0  0
  8  9  1  0  0  0
  8 22  1  0  0  0
  9 10  1  0  0  0
  9 27  2  0  0  0
 10 11  2  0  0  0
 10 15  1  0  0  0
 11 12  1  0  0  0
 11 98  1  0  0  0
 12 13  2  0  0  0
 12 99  1  0  0  0
 13 14  1  0  0  0
 13 31  1  0  0  0
 14 15  2  0  0  0
 14100  1  0  0  0
 15101  1  0  0  0
 16 17  2  0  0  0
 16 21  1  0  0  0
 16 31  1  0  0  0
 17 18  1  0  0  0
 17102  1  0  0  0
 18 19  2  0  0  0
 18103  1  0  0  0
 19 20  1  0  0  0
 19 24  1  0  0  0
 20 21  2  0  0  0
 20104  1  0  0  0
 21 23  1  0  0  0
 22 28  1  0  0  0
 22 32  2  0  0  0
 26 27  1  0  0  0
 28105  1  0  0  0
 28106  1  0  0  0
 29107  1  0  0  0
 29108  1  0  0  0
 33 34  1  0  0  0
 33 66  1  0  0  0
 33 70  2  0  0  0
 34 36  1  0  0  0
 34 59  1  0  0  0
 34109  1  0  0  0
 35 44  2  0  0  0
 35 45  1  0  0  0
 35 68  1  0  0  0
 36 56  1  0  0  0
 36110  1  0  0  0
 37 39  1  0  0  0
 37 47  1  0  0  0
 37 66  1  0  0  0
 37111  1  0  0  0
 38 43  2  0  0  0
 38 46  1  0  0  0
 38 47  1  0  0  0
 39 64  1  0  0  0
 39 67  2  0  0  0
 40 52  1  0  0  0
 40 53  2  0  0  0
 40 58  1  0  0  0
 41112  1  0  0  0
 41113  1  0  0  0
 41114  1  0  0  0
 41 48  1  0  0  0
 42 43  1  0  0  0
 42 66  1  0  0  0
 42115  1  0  0  0
 42116  1  0  0  0
 43 44  1  0  0  0
 44117  1  0  0  0
 45 46  2  0  0  0
 45118  1  0  0  0
 46119  1  0  0  0
 47120  1  0  0  0
 47121  1  0  0  0
 48 56  1  0  0  0
 48 65  1  0  0  0
 48122  1  0  0  0
 49 50  1  0  0  0
 49 53  1  0  0  0
 49 64  1  0  0  0
 49123  1  0  0  0
 50 51  1  0  0  0
 50124  1  0  0  0
 50125  1  0  0  0
 51 52  1  0  0  0
 51126  1  0  0  0
 51127  1  0  0  0
 52128  1  0  0  0
 52129  1  0  0  0
 53 54  1  0  0  0
 54 55  2  0  0  0
 54130  1  0  0  0
 55 57  1  0  0  0
 55131  1  0  0  0
 56 69  2  0  0  0
 57 58  2  0  0  0
 57132  1  0  0  0
 58133  1  0  0  0
 59 60  1  0  0  0
 59 61  1  0  0  0
 59 62  1  0  0  0
 60134  1  0  0  0
 60135  1  0  0  0
 60136  1  0  0  0
 61137  1  0  0  0
 61138  1  0  0  0
 61139  1  0  0  0
 62140  1  0  0  0
 62141  1  0  0  0
 62142  1  0  0  0
 63 65  1  0  0  0
 63143  1  0  0  0
 63144  1  0  0  0
 63145  1  0  0  0
 64146  1  0  0  0
 65147  1  0  0  0
 68 82  1  0  0  0
 71 73  1  0  0  0
 71 74  2  0  0  0
 71148  1  0  0  0
 72 73  2  0  0  0
 72 88  1  0  0  0
 72149  1  0  0  0
 73 84  1  0  0  0
 74 75  1  0  0  0
 74 88  1  0  0  0
 75 83  1  0  0  0
 75 85  2  0  0  0
 76 81  1  0  0  0
 76 86  2  0  0  0
 76 79  1  0  0  0
 77 78  1  0  0  0
 77 80  1  0  0  0
 77150  1  0  0  0
 77151  1  0  0  0
 78 83  1  0  0  0
 78152  1  0  0  0
 78153  1  0  0  0
 79 80  1  0  0  0
 79 83  1  0  0  0
 79154  1  0  0  0
 80 82  1  0  0  0
 80 87  1  0  0  0
 81155  1  0  0  0
 81156  1  0  0  0
 81157  1  0  0  0
 82158  1  0  0  0
 82159  1  0  0  0
 84160  1  0  0  0
 85161  1  0  0  0
 85162  1  0  0  0
 87163  1  0  0  0
M  CHG  1  85   1
M  ISO  4   1 100  68 101  82 101  84 100
M  END
> <chiral flag>
0

> <version>
0

> <s_m_source_file>
/data/baiqing/PycharmProjects/Reinvent-master-3.2/result/LINK_invent/BTK/process_docking_weight1_custom_product_contain_oxygen_bond_distance_aromatic_linkinvent_7_9_3/rearranged_h_0155.sdf

> <i_m_source_file_index>
22

> <r_mmod_Potential_Energy-OPLS-2005>
-48.988525390625

> <r_mmod_Stretch_Energy-OPLS-2005>
55.4129066467285

> <r_mmod_Bend_Energy-OPLS-2005>
162.873031616211

> <r_mmod_Torsional_Energy-OPLS-2005>
347.880523681641

> <r_mmod_Improper_Torsional_Energy-OPLS-2005>
7.32554578781128

> <r_mmod_Van_der_Waal_Energy-OPLS-2005>
118.136108398438

> <r_mmod_Electrostatic_Energy-OPLS-2005>
-279.114166259766

> <r_mmod_Solvation_Energy-OPLS-2005>
-487.921325683594

> <b_mmod_Minimization_Converged-OPLS-2005>
0

> <r_mmod_RMS_Derivative-OPLS-2005>
1.59754621982574

$$$$
22
                    3D
 Structure written by MMmdl.
160169  0  0  1  0            999 V2000
  -30.6709  -14.6432   20.4698 C   0  0  0  0  0  0
  -30.4192  -12.3880   19.4617 C   0  0  0  0  0  0
  -29.5022  -12.4959   18.2250 C   0  0  0  0  0  0
  -28.0256  -12.3404   18.6379 C   0  0  0  0  0  0
  -27.6477  -13.2263   19.8570 C   0  0  2  0  0  0
  -28.6954  -13.1298   20.9888 C   0  0  0  0  0  0
  -25.2538  -13.8183   20.5696 C   0  0  0  0  0  0
  -24.1823  -13.0440   20.9229 C   0  0  0  0  0  0
  -24.6409  -11.6915   20.8771 C   0  0  0  0  0  0
  -23.9093  -10.4286   21.0416 C   0  0  0  0  0  0
  -24.3632   -9.4192   21.9186 C   0  0  0  0  0  0
  -23.6294   -8.2240   22.0751 C   0  0  0  0  0  0
  -22.4273   -8.0281   21.3550 C   0  0  0  0  0  0
  -21.9927   -9.0265   20.4653 C   0  0  0  0  0  0
  -22.7268  -10.2141   20.3066 C   0  0  0  0  0  0
  -21.6852   -6.0747   22.5291 C   0  0  0  0  0  0
  -21.4014   -6.5646   23.8226 C   0  0  0  0  0  0
  -21.3655   -5.6794   24.9188 C   0  0  0  0  0  0
  -21.6048   -4.3062   24.7237 C   0  0  0  0  0  0
  -21.8810   -3.8164   23.4350 C   0  0  0  0  0  0
  -21.9183   -4.6979   22.3407 C   0  0  0  0  0  0
  -22.7836  -13.5237   21.1857 C   0  0  0  0  0  0
  -22.1648   -4.2179   21.0984 F   0  0  0  0  0  0
  -21.5635   -3.4537   25.7744 F   0  0  0  0  0  0
  -30.0064  -13.4451   20.4075 N   0  0  0  0  0  0
  -26.2976  -12.9385   20.3338 N   0  0  0  0  0  0
  -25.9344  -11.6532   20.5800 N   0  0  0  0  0  0
  -22.0481  -12.8235   22.0410 N   0  0  0  0  0  0
  -25.4196  -15.1890   20.4028 N   0  0  0  0  0  0
  -31.8561  -14.7019   20.1334 O   0  0  0  0  0  0
  -21.6633   -6.8886   21.4248 O   0  0  0  0  0  0
  -22.3526  -14.5543   20.6697 O   0  0  0  0  0  0
  -24.6262  -31.8591   23.2031 C   0  0  0  0  0  0
  -25.9108  -32.4780   23.8356 C   0  0  1  0  0  0
  -27.2205  -27.3172   20.1241 C   0  0  0  0  0  0
  -25.5927  -33.8580   24.2283 N   0  0  0  0  0  0
  -23.4207  -30.4832   21.5451 C   0  0  2  0  0  0
  -24.8676  -28.9386   20.1117 C   0  0  0  0  0  0
  -22.7477  -29.4624   22.4933 C   0  0  0  0  0  0
  -18.0288  -28.1380   22.8488 C   0  0  0  0  0  0
  -24.1489  -36.7288   23.2641 C   0  0  0  0  0  0
  -25.9624  -30.7893   21.3763 C   0  0  0  0  0  0
  -26.0370  -29.4174   20.7179 C   0  0  0  0  0  0
  -27.2191  -28.6180   20.7146 C   0  0  0  0  0  0
  -26.0367  -26.9004   19.4763 C   0  0  0  0  0  0
  -24.8686  -27.6842   19.4832 C   0  0  0  0  0  0
  -23.6360  -29.8187   20.1604 C   0  0  0  0  0  0
  -25.4116  -36.3083   24.0328 C   0  0  1  0  0  0
  -20.5891  -28.3683   23.1279 C   0  0  2  0  0  0
  -20.6772  -26.9401   22.5410 C   0  0  0  0  0  0
  -19.5751  -26.6376   21.5211 C   0  0  0  0  0  0
  -18.1930  -26.7926   22.1617 C   0  0  0  0  0  0
  -19.1543  -28.8850   23.2882 C   0  0  0  0  0  0
  -18.9468  -30.1454   23.8896 C   0  0  0  0  0  0
  -17.6467  -30.6582   24.0564 C   0  0  0  0  0  0
  -25.9053  -34.9452   23.5108 C   0  0  0  0  0  0
  -16.5360  -29.9079   23.6331 C   0  0  0  0  0  0
  -16.7274  -28.6497   23.0357 C   0  0  0  0  0  0
  -26.4495  -31.6595   25.0729 C   0  0  0  0  0  0
  -25.3730  -31.3742   26.1463 C   0  0  0  0  0  0
  -27.0337  -30.3013   24.6196 C   0  0  0  0  0  0
  -27.6060  -32.4329   25.7493 C   0  0  0  0  0  0
  -27.5583  -37.1797   24.8463 C   0  0  0  0  0  0
  -21.4189  -29.3043   22.3674 N   0  0  0  0  0  0
  -26.4294  -37.3776   23.9408 N   0  0  0  0  0  0
  -24.6882  -31.0611   22.0980 N   0  0  0  0  0  0
  -23.4197  -28.8169   23.3020 O   0  0  0  0  0  0
  -28.3156  -26.4408   20.1645 O   0  0  0  0  0  0
  -26.5618  -34.8919   22.4671 O   0  0  0  0  0  0
  -23.5424  -32.1400   23.7355 O   0  0  0  0  0  0
  -31.5962  -17.6010   20.4908 C   0  0  0  0  0  0
  -31.5015  -19.0215   20.4428 C   0  0  0  0  0  0
  -30.1844  -19.3972   20.5328 C   0  0  0  0  0  0
  -30.3089  -17.1296   20.6034 C   0  0  0  0  0  0
  -27.8100  -22.4823   20.2523 C   0  0  0  0  0  0
  -30.0184  -23.2822   20.8916 C   0  0  0  0  0  0
  -28.4111  -21.0799   19.8641 C   0  0  0  0  0  0
  -30.6119  -21.8854   20.4957 C   0  0  0  0  0  0
  -28.7490  -23.7305   20.1011 C   0  0  0  0  0  0
  -30.0975  -24.6155   18.2765 C   0  0  0  0  0  0
  -28.0403  -25.0659   20.6618 C   0  0  0  0  0  0
  -29.6642  -20.7508   20.5596 N   0  0  0  0  0  0
  -29.9329  -15.7858   20.6984 N   0  0  0  0  0  0
  -29.4165  -18.2261   20.6241 O   0  0  0  0  0  0
  -28.9585  -23.8654   18.6901 O   0  0  0  0  0  0
  -32.5717  -19.8463   20.3234 F   0  0  0  0  0  0
  -31.4653  -12.4752   19.1635 H   0  0  0  0  0  0
  -30.3230  -11.4057   19.9290 H   0  0  0  0  0  0
  -29.7667  -11.7355   17.4897 H   0  0  0  0  0  0
  -29.6510  -13.4600   17.7364 H   0  0  0  0  0  0
  -27.8619  -11.2885   18.8765 H   0  0  0  0  0  0
  -27.3719  -12.5635   17.7940 H   0  0  0  0  0  0
  -27.6505  -14.2548   19.4950 H   0  0  0  0  0  0
  -28.7087  -12.1274   21.4212 H   0  0  0  0  0  0
  -28.4520  -13.8111   21.8055 H   0  0  0  0  0  0
  -25.2772   -9.5674   22.4769 H   0  0  0  0  0  0
  -24.0015   -7.4644   22.7464 H   0  0  0  0  0  0
  -21.0869   -8.8792   19.8956 H   0  0  0  0  0  0
  -22.3724  -10.9691   19.6186 H   0  0  0  0  0  0
  -21.2003   -7.6155   23.9742 H   0  0  0  0  0  0
  -21.1483   -6.0528   25.9092 H   0  0  0  0  0  0
  -22.0589   -2.7625   23.2862 H   0  0  0  0  0  0
  -22.4102  -11.9893   22.4798 H   0  0  0  0  0  0
  -21.1108  -13.1264   22.2622 H   0  0  0  0  0  0
  -24.6382  -15.8308   20.4873 H   0  0  0  0  0  0
  -26.2489  -15.6246   20.0195 H   0  0  0  0  0  0
  -26.7181  -32.5445   23.1107 H   0  0  0  0  0  0
  -25.0087  -33.9725   25.0439 H   0  0  0  0  0  0
  -22.7152  -31.3039   21.4015 H   0  0  0  0  0  0
  -23.3754  -35.9617   23.3303 H   0  0  0  0  0  0
  -24.3583  -36.8905   22.2055 H   0  0  0  0  0  0
  -23.7236  -37.6488   23.6662 H   0  0  0  0  0  0
  -26.0972  -31.5533   20.6103 H   0  0  0  0  0  0
  -26.8414  -30.8353   22.0073 H   0  0  0  0  0  0
  -28.1155  -28.9770   21.2014 H   0  0  0  0  0  0
  -26.0020  -25.9441   18.9745 H   0  0  0  0  0  0
  -23.9742  -27.3109   19.0047 H   0  0  0  0  0  0
  -23.7570  -30.5957   19.4043 H   0  0  0  0  0  0
  -22.7556  -29.2488   19.8573 H   0  0  0  0  0  0
  -25.1298  -36.1939   25.0820 H   0  0  0  0  0  0
  -20.9985  -28.3256   24.1399 H   0  0  0  0  0  0
  -20.5666  -26.2291   23.3616 H   0  0  0  0  0  0
  -21.6644  -26.7426   22.1213 H   0  0  0  0  0  0
  -19.6909  -25.6285   21.1251 H   0  0  0  0  0  0
  -19.6695  -27.3186   20.6745 H   0  0  0  0  0  0
  -17.4201  -26.6689   21.4016 H   0  0  0  0  0  0
  -18.0321  -26.0066   22.9010 H   0  0  0  0  0  0
  -19.7942  -30.7278   24.2263 H   0  0  0  0  0  0
  -17.5018  -31.6263   24.5156 H   0  0  0  0  0  0
  -15.5364  -30.2985   23.7651 H   0  0  0  0  0  0
  -15.8675  -28.0820   22.7076 H   0  0  0  0  0  0
  -24.5896  -30.7099   25.7798 H   0  0  0  0  0  0
  -24.8941  -32.2917   26.4893 H   0  0  0  0  0  0
  -25.8057  -30.8916   27.0236 H   0  0  0  0  0  0
  -26.2913  -29.6761   24.1221 H   0  0  0  0  0  0
  -27.4029  -29.7276   25.4709 H   0  0  0  0  0  0
  -27.8789  -30.4298   23.9429 H   0  0  0  0  0  0
  -27.2676  -33.3628   26.2079 H   0  0  0  0  0  0
  -28.3862  -32.6890   25.0312 H   0  0  0  0  0  0
  -28.0739  -31.8450   26.5402 H   0  0  0  0  0  0
  -28.2600  -38.0096   24.7512 H   0  0  0  0  0  0
  -28.1082  -36.2626   24.6287 H   0  0  0  0  0  0
  -27.2301  -37.1441   25.8867 H   0  0  0  0  0  0
  -20.9362  -29.8772   21.6895 H   0  0  0  0  0  0
  -26.0177  -38.2848   24.1419 H   0  0  0  0  0  0
  -32.5058  -17.0240   20.4477 H   0  0  0  0  0  0
  -27.4701  -22.4266   21.2872 H   0  0  0  0  0  0
  -26.9060  -22.6437   19.6632 H   0  0  0  0  0  0
  -30.7949  -24.0440   20.8246 H   0  0  0  0  0  0
  -29.7649  -23.2449   21.9515 H   0  0  0  0  0  0
  -28.6003  -21.0552   18.7902 H   0  0  0  0  0  0
  -27.6734  -20.3002   20.0618 H   0  0  0  0  0  0
  -31.4500  -21.6925   21.1667 H   0  0  0  0  0  0
  -31.0252  -21.9343   19.4873 H   0  0  0  0  0  0
  -30.0466  -24.7867   17.2012 H   0  0  0  0  0  0
  -31.0227  -24.0721   18.4682 H   0  0  0  0  0  0
  -30.1669  -25.5876   18.7620 H   0  0  0  0  0  0
  -28.2266  -25.1062   21.7353 H   0  0  0  0  0  0
  -26.9706  -24.8697   20.6188 H   0  0  0  0  0  0
  -28.9574  -15.6204   20.8921 H   0  0  0  0  0  0
  1 25  1  0  0  0
  1 30  2  0  0  0
  1 83  1  0  0  0
  2  3  1  0  0  0
  2 25  1  0  0  0
  2 87  1  0  0  0
  2 88  1  0  0  0
  3  4  1  0  0  0
  3 89  1  0  0  0
  3 90  1  0  0  0
  4  5  1  0  0  0
  4 91  1  0  0  0
  4 92  1  0  0  0
  5  6  1  0  0  0
  5 26  1  0  0  0
  5 93  1  0  0  0
  6 25  1  0  0  0
  6 94  1  0  0  0
  6 95  1  0  0  0
  7  8  2  0  0  0
  7 26  1  0  0  0
  7 29  1  0  0  0
  8  9  1  0  0  0
  8 22  1  0  0  0
  9 10  1  0  0  0
  9 27  2  0  0  0
 10 11  2  0  0  0
 10 15  1  0  0  0
 11 12  1  0  0  0
 11 96  1  0  0  0
 12 13  2  0  0  0
 12 97  1  0  0  0
 13 14  1  0  0  0
 13 31  1  0  0  0
 14 15  2  0  0  0
 14 98  1  0  0  0
 15 99  1  0  0  0
 16 17  2  0  0  0
 16 21  1  0  0  0
 16 31  1  0  0  0
 17 18  1  0  0  0
 17100  1  0  0  0
 18 19  2  0  0  0
 18101  1  0  0  0
 19 20  1  0  0  0
 19 24  1  0  0  0
 20 21  2  0  0  0
 20102  1  0  0  0
 21 23  1  0  0  0
 22 28  1  0  0  0
 22 32  2  0  0  0
 26 27  1  0  0  0
 28103  1  0  0  0
 28104  1  0  0  0
 29105  1  0  0  0
 29106  1  0  0  0
 33 34  1  0  0  0
 33 66  1  0  0  0
 33 70  2  0  0  0
 34 36  1  0  0  0
 34 59  1  0  0  0
 34107  1  0  0  0
 35 44  2  0  0  0
 35 45  1  0  0  0
 35 68  1  0  0  0
 36 56  1  0  0  0
 36108  1  0  0  0
 37 39  1  0  0  0
 37 47  1  0  0  0
 37 66  1  0  0  0
 37109  1  0  0  0
 38 43  2  0  0  0
 38 46  1  0  0  0
 38 47  1  0  0  0
 39 64  1  0  0  0
 39 67  2  0  0  0
 40 52  1  0  0  0
 40 53  2  0  0  0
 40 58  1  0  0  0
 41110  1  0  0  0
 41111  1  0  0  0
 41112  1  0  0  0
 41 48  1  0  0  0
 42 43  1  0  0  0
 42 66  1  0  0  0
 42113  1  0  0  0
 42114  1  0  0  0
 43 44  1  0  0  0
 44115  1  0  0  0
 45 46  2  0  0  0
 45116  1  0  0  0
 46117  1  0  0  0
 47118  1  0  0  0
 47119  1  0  0  0
 48 56  1  0  0  0
 48 65  1  0  0  0
 48120  1  0  0  0
 49 50  1  0  0  0
 49 53  1  0  0  0
 49 64  1  0  0  0
 49121  1  0  0  0
 50 51  1  0  0  0
 50122  1  0  0  0
 50123  1  0  0  0
 51 52  1  0  0  0
 51124  1  0  0  0
 51125  1  0  0  0
 52126  1  0  0  0
 52127  1  0  0  0
 53 54  1  0  0  0
 54 55  2  0  0  0
 54128  1  0  0  0
 55 57  1  0  0  0
 55129  1  0  0  0
 56 69  2  0  0  0
 57 58  2  0  0  0
 57130  1  0  0  0
 58131  1  0  0  0
 59 60  1  0  0  0
 59 61  1  0  0  0
 59 62  1  0  0  0
 60132  1  0  0  0
 60133  1  0  0  0
 60134  1  0  0  0
 61135  1  0  0  0
 61136  1  0  0  0
 61137  1  0  0  0
 62138  1  0  0  0
 62139  1  0  0  0
 62140  1  0  0  0
 63 65  1  0  0  0
 63141  1  0  0  0
 63142  1  0  0  0
 63143  1  0  0  0
 64144  1  0  0  0
 65145  1  0  0  0
 68 81  1  0  0  0
 71 72  1  0  0  0
 71 74  2  0  0  0
 71146  1  0  0  0
 72 73  2  0  0  0
 72 86  1  0  0  0
 73 82  1  0  0  0
 73 84  1  0  0  0
 74 83  1  0  0  0
 74 84  1  0  0  0
 75 77  1  0  0  0
 75 79  1  0  0  0
 75147  1  0  0  0
 75148  1  0  0  0
 76 78  1  0  0  0
 76 79  1  0  0  0
 76149  1  0  0  0
 76150  1  0  0  0
 77 82  1  0  0  0
 77151  1  0  0  0
 77152  1  0  0  0
 78 82  1  0  0  0
 78153  1  0  0  0
 78154  1  0  0  0
 79 81  1  0  0  0
 79 85  1  0  0  0
 80 85  1  0  0  0
 80155  1  0  0  0
 80156  1  0  0  0
 80157  1  0  0  0
 81158  1  0  0  0
 81159  1  0  0  0
 83160  1  0  0  0
M  ISO  4   1 100  68 101  81 101  83 100
M  END
> <chiral flag>
0

> <version>
0

> <s_m_source_file>
/data/baiqing/PycharmProjects/Reinvent-master-3.2/result/LINK_invent/BTK/process_docking_weight1_custom_product_contain_oxygen_bond_distance_aromatic_linkinvent_7_9_3/rearranged_h_0155.sdf

> <i_m_source_file_index>
23

> <r_mmod_Potential_Energy-OPLS-2005>
177.7080078125

> <r_mmod_Stretch_Energy-OPLS-2005>
87.3387985229492

> <r_mmod_Bend_Energy-OPLS-2005>
172.324737548828

> <r_mmod_Torsional_Energy-OPLS-2005>
274.902954101562

> <r_mmod_Improper_Torsional_Energy-OPLS-2005>
8.23995304107666

> <r_mmod_Van_der_Waal_Energy-OPLS-2005>
143.354690551758

> <r_mmod_Electrostatic_Energy-OPLS-2005>
-340.402709960938

> <r_mmod_Solvation_Energy-OPLS-2005>
-221.573623657227

> <b_mmod_Minimization_Converged-OPLS-2005>
0

> <r_mmod_RMS_Derivative-OPLS-2005>
1.63515686988831

$$$$
23
                    3D
 Structure written by MMmdl.
154163  0  0  1  0            999 V2000
  -30.6492  -14.9479   20.4204 C   0  0  0  0  0  0
  -30.4093  -12.6041   19.4929 C   0  0  0  0  0  0
  -29.5111  -12.5348   18.2434 C   0  0  0  0  0  0
  -28.0429  -12.3361   18.6605 C   0  0  0  0  0  0
  -27.6191  -13.2707   19.8262 C   0  0  2  0  0  0
  -28.6690  -13.3560   20.9581 C   0  0  0  0  0  0
  -25.2394  -13.8267   20.5711 C   0  0  0  0  0  0
  -24.1758  -13.0445   20.9238 C   0  0  0  0  0  0
  -24.6410  -11.6948   20.8753 C   0  0  0  0  0  0
  -23.9110  -10.4303   21.0400 C   0  0  0  0  0  0
  -24.3662   -9.4224   21.9190 C   0  0  0  0  0  0
  -23.6327   -8.2251   22.0748 C   0  0  0  0  0  0
  -22.4313   -8.0289   21.3523 C   0  0  0  0  0  0
  -21.9954   -9.0270   20.4640 C   0  0  0  0  0  0
  -22.7282  -10.2143   20.3054 C   0  0  0  0  0  0
  -21.6863   -6.0742   22.5272 C   0  0  0  0  0  0
  -21.4031   -6.5650   23.8214 C   0  0  0  0  0  0
  -21.3671   -5.6795   24.9179 C   0  0  0  0  0  0
  -21.6048   -4.3059   24.7218 C   0  0  0  0  0  0
  -21.8813   -3.8146   23.4339 C   0  0  0  0  0  0
  -21.9188   -4.6963   22.3398 C   0  0  0  0  0  0
  -22.7782  -13.5189   21.1887 C   0  0  0  0  0  0
  -22.1655   -4.2157   21.0965 F   0  0  0  0  0  0
  -21.5627   -3.4524   25.7727 F   0  0  0  0  0  0
  -29.9314  -13.7531   20.3233 N   0  0  0  0  0  0
  -26.2854  -12.9544   20.3253 N   0  0  0  0  0  0
  -25.9356  -11.6641   20.5744 N   0  0  0  0  0  0
  -22.0424  -12.8203   22.0466 N   0  0  0  0  0  0
  -25.3945  -15.2001   20.4101 N   0  0  0  0  0  0
  -31.8631  -14.8292   20.2252 O   0  0  0  0  0  0
  -21.6661   -6.8894   21.4241 O   0  0  0  0  0  0
  -22.3452  -14.5480   20.6711 O   0  0  0  0  0  0
  -24.6401  -31.8471   23.1906 C   0  0  0  0  0  0
  -25.9188  -32.4701   23.8305 C   0  0  1  0  0  0
  -27.2107  -27.1568   20.1524 C   0  0  0  0  0  0
  -25.5962  -33.8515   24.2215 N   0  0  0  0  0  0
  -23.4411  -30.4675   21.5360 C   0  0  2  0  0  0
  -24.8895  -28.8902   20.1159 C   0  0  0  0  0  0
  -22.7536  -29.4576   22.4864 C   0  0  0  0  0  0
  -18.0302  -28.1389   22.8470 C   0  0  0  0  0  0
  -24.1496  -36.7261   23.2641 C   0  0  0  0  0  0
  -25.9945  -30.7234   21.3877 C   0  0  0  0  0  0
  -26.0639  -29.3326   20.7391 C   0  0  0  0  0  0
  -27.2264  -28.4775   20.7485 C   0  0  0  0  0  0
  -26.0148  -26.8059   19.4964 C   0  0  0  0  0  0
  -24.8733  -27.6371   19.4826 C   0  0  0  0  0  0
  -23.6674  -29.7956   20.1562 C   0  0  0  0  0  0
  -25.4125  -36.3042   24.0317 C   0  0  1  0  0  0
  -20.5913  -28.3717   23.1229 C   0  0  2  0  0  0
  -20.6787  -26.9422   22.5395 C   0  0  0  0  0  0
  -19.5772  -26.6372   21.5196 C   0  0  0  0  0  0
  -18.1950  -26.7927   22.1605 C   0  0  0  0  0  0
  -19.1551  -28.8871   23.2844 C   0  0  0  0  0  0
  -18.9470  -30.1464   23.8880 C   0  0  0  0  0  0
  -17.6472  -30.6585   24.0557 C   0  0  0  0  0  0
  -25.9072  -34.9411   23.5063 C   0  0  0  0  0  0
  -16.5365  -29.9084   23.6332 C   0  0  0  0  0  0
  -16.7286  -28.6500   23.0351 C   0  0  0  0  0  0
  -26.4540  -31.6557   25.0733 C   0  0  0  0  0  0
  -25.3715  -31.3718   26.1416 C   0  0  0  0  0  0
  -27.0400  -30.2959   24.6267 C   0  0  0  0  0  0
  -27.6086  -32.4298   25.7516 C   0  0  0  0  0  0
  -27.5578  -37.1796   24.8457 C   0  0  0  0  0  0
  -21.4241  -29.3047   22.3606 N   0  0  0  0  0  0
  -26.4292  -37.3746   23.9401 N   0  0  0  0  0  0
  -24.7119  -31.0349   22.0927 N   0  0  0  0  0  0
  -23.4193  -28.8126   23.2998 O   0  0  0  0  0  0
  -28.2777  -26.2004   20.1167 O   0  0  0  0  0  0
  -26.5644  -34.8903   22.4630 O   0  0  0  0  0  0
  -23.5528  -32.1349   23.7139 O   0  0  0  0  0  0
  -29.2748  -23.2136   19.0775 C   0  0  0  0  0  0
  -28.5588  -23.4872   20.2163 C   0  0  0  0  0  0
  -29.1439  -21.1932   20.1862 C   0  0  0  0  0  0
  -28.4131  -18.4561   20.5950 C   0  0  0  0  0  0
  -30.5568  -18.8894   19.6756 C   0  0  0  0  0  0
  -28.8535  -16.9123   20.9470 C   0  0  0  0  0  0
  -31.0685  -17.4446   20.1453 C   0  0  0  0  0  0
  -29.4924  -19.6237   20.5613 C   0  0  0  0  0  0
  -28.4844  -22.2149   20.8625 N   0  0  0  0  0  0
  -29.5950  -21.8527   19.0920 N   0  3  0  0  0  0
  -30.1130  -16.2910   20.3806 N   0  0  0  0  0  0
  -27.9735  -24.7767   20.6634 N   0  0  0  0  0  0
  -31.4511  -12.7038   19.1837 H   0  0  0  0  0  0
  -30.3583  -11.6691   20.0549 H   0  0  0  0  0  0
  -29.8336  -11.7225   17.5912 H   0  0  0  0  0  0
  -29.6128  -13.4551   17.6676 H   0  0  0  0  0  0
  -27.9256  -11.2930   18.9568 H   0  0  0  0  0  0
  -27.3860  -12.4845   17.8015 H   0  0  0  0  0  0
  -27.5632  -14.2674   19.3866 H   0  0  0  0  0  0
  -28.7662  -12.4099   21.4887 H   0  0  0  0  0  0
  -28.3735  -14.0971   21.7020 H   0  0  0  0  0  0
  -25.2797   -9.5701   22.4779 H   0  0  0  0  0  0
  -24.0026   -7.4649   22.7482 H   0  0  0  0  0  0
  -21.0871   -8.8802   19.8965 H   0  0  0  0  0  0
  -22.3742  -10.9687   19.6164 H   0  0  0  0  0  0
  -21.2044   -7.6155   23.9728 H   0  0  0  0  0  0
  -21.1502   -6.0521   25.9089 H   0  0  0  0  0  0
  -22.0584   -2.7604   23.2828 H   0  0  0  0  0  0
  -22.4047  -11.9883   22.4871 H   0  0  0  0  0  0
  -21.1028  -13.1208   22.2609 H   0  0  0  0  0  0
  -24.6148  -15.8398   20.5161 H   0  0  0  0  0  0
  -26.2346  -15.6528   20.0729 H   0  0  0  0  0  0
  -26.7250  -32.5333   23.1037 H   0  0  0  0  0  0
  -25.0116  -33.9637   25.0369 H   0  0  0  0  0  0
  -22.7437  -31.2930   21.3833 H   0  0  0  0  0  0
  -23.3767  -35.9582   23.3280 H   0  0  0  0  0  0
  -24.3586  -36.8914   22.2061 H   0  0  0  0  0  0
  -23.7242  -37.6447   23.6688 H   0  0  0  0  0  0
  -26.1425  -31.4730   20.6092 H   0  0  0  0  0  0
  -26.8685  -30.7807   22.0254 H   0  0  0  0  0  0
  -28.1270  -28.8123   21.2428 H   0  0  0  0  0  0
  -25.9526  -25.8454   19.0032 H   0  0  0  0  0  0
  -23.9763  -27.2969   18.9840 H   0  0  0  0  0  0
  -23.8058  -30.5694   19.3998 H   0  0  0  0  0  0
  -22.7810  -29.2405   19.8450 H   0  0  0  0  0  0
  -25.1315  -36.1877   25.0812 H   0  0  0  0  0  0
  -21.0003  -28.3307   24.1348 H   0  0  0  0  0  0
  -20.5657  -26.2336   23.3612 H   0  0  0  0  0  0
  -21.6661  -26.7423   22.1211 H   0  0  0  0  0  0
  -19.6934  -25.6273   21.1255 H   0  0  0  0  0  0
  -19.6718  -27.3149   20.6703 H   0  0  0  0  0  0
  -17.4218  -26.6656   21.4013 H   0  0  0  0  0  0
  -18.0361  -26.0075   22.9009 H   0  0  0  0  0  0
  -19.7950  -30.7267   24.2244 H   0  0  0  0  0  0
  -17.5030  -31.6263   24.5155 H   0  0  0  0  0  0
  -15.5359  -30.2973   23.7667 H   0  0  0  0  0  0
  -15.8687  -28.0804   22.7076 H   0  0  0  0  0  0
  -24.5871  -30.7114   25.7700 H   0  0  0  0  0  0
  -24.8939  -32.2891   26.4863 H   0  0  0  0  0  0
  -25.7982  -30.8844   27.0187 H   0  0  0  0  0  0
  -26.3006  -29.6671   24.1290 H   0  0  0  0  0  0
  -27.4057  -29.7262   25.4823 H   0  0  0  0  0  0
  -27.8901  -30.4220   23.9551 H   0  0  0  0  0  0
  -27.2705  -33.3604   26.2075 H   0  0  0  0  0  0
  -28.3918  -32.6829   25.0358 H   0  0  0  0  0  0
  -28.0726  -31.8425   26.5444 H   0  0  0  0  0  0
  -28.2578  -38.0111   24.7514 H   0  0  0  0  0  0
  -28.1097  -36.2641   24.6275 H   0  0  0  0  0  0
  -27.2297  -37.1419   25.8859 H   0  0  0  0  0  0
  -20.9427  -29.8765   21.6810 H   0  0  0  0  0  0
  -26.0162  -38.2813   24.1406 H   0  0  0  0  0  0
  -29.5800  -23.8659   18.2714 H   0  0  0  0  0  0
  -27.6305  -18.7499   21.2962 H   0  0  0  0  0  0
  -27.9209  -18.4407   19.6209 H   0  0  0  0  0  0
  -30.1722  -18.8029   18.6582 H   0  0  0  0  0  0
  -31.4303  -19.5353   19.5921 H   0  0  0  0  0  0
  -28.0199  -16.2614   20.6930 H   0  0  0  0  0  0
  -28.9528  -16.8405   22.0301 H   0  0  0  0  0  0
  -31.6338  -17.5746   21.0706 H   0  0  0  0  0  0
  -31.8088  -17.1413   19.4026 H   0  0  0  0  0  0
  -29.9140  -19.7053   21.5645 H   0  0  0  0  0  0
  -28.0354  -22.0663   21.7585 H   0  0  0  0  0  0
  -30.1470  -21.4146   18.3656 H   0  0  0  0  0  0
  -27.2635  -24.8199   21.3894 H   0  0  0  0  0  0
  1 25  1  0  0  0
  1 30  2  0  0  0
  1 81  1  0  0  0
  2  3  1  0  0  0
  2 25  1  0  0  0
  2 83  1  0  0  0
  2 84  1  0  0  0
  3  4  1  0  0  0
  3 85  1  0  0  0
  3 86  1  0  0  0
  4  5  1  0  0  0
  4 87  1  0  0  0
  4 88  1  0  0  0
  5  6  1  0  0  0
  5 26  1  0  0  0
  5 89  1  0  0  0
  6 25  1  0  0  0
  6 90  1  0  0  0
  6 91  1  0  0  0
  7  8  2  0  0  0
  7 26  1  0  0  0
  7 29  1  0  0  0
  8  9  1  0  0  0
  8 22  1  0  0  0
  9 10  1  0  0  0
  9 27  2  0  0  0
 10 11  2  0  0  0
 10 15  1  0  0  0
 11 12  1  0  0  0
 11 92  1  0  0  0
 12 13  2  0  0  0
 12 93  1  0  0  0
 13 14  1  0  0  0
 13 31  1  0  0  0
 14 15  2  0  0  0
 14 94  1  0  0  0
 15 95  1  0  0  0
 16 17  2  0  0  0
 16 21  1  0  0  0
 16 31  1  0  0  0
 17 18  1  0  0  0
 17 96  1  0  0  0
 18 19  2  0  0  0
 18 97  1  0  0  0
 19 20  1  0  0  0
 19 24  1  0  0  0
 20 21  2  0  0  0
 20 98  1  0  0  0
 21 23  1  0  0  0
 22 28  1  0  0  0
 22 32  2  0  0  0
 26 27  1  0  0  0
 28 99  1  0  0  0
 28100  1  0  0  0
 29101  1  0  0  0
 29102  1  0  0  0
 33 34  1  0  0  0
 33 66  1  0  0  0
 33 70  2  0  0  0
 34 36  1  0  0  0
 34 59  1  0  0  0
 34103  1  0  0  0
 35 44  2  0  0  0
 35 45  1  0  0  0
 35 68  1  0  0  0
 36 56  1  0  0  0
 36104  1  0  0  0
 37 39  1  0  0  0
 37 47  1  0  0  0
 37 66  1  0  0  0
 37105  1  0  0  0
 38 43  2  0  0  0
 38 46  1  0  0  0
 38 47  1  0  0  0
 39 64  1  0  0  0
 39 67  2  0  0  0
 40 52  1  0  0  0
 40 53  2  0  0  0
 40 58  1  0  0  0
 41106  1  0  0  0
 41107  1  0  0  0
 41108  1  0  0  0
 41 48  1  0  0  0
 42 43  1  0  0  0
 42 66  1  0  0  0
 42109  1  0  0  0
 42110  1  0  0  0
 43 44  1  0  0  0
 44111  1  0  0  0
 45 46  2  0  0  0
 45112  1  0  0  0
 46113  1  0  0  0
 47114  1  0  0  0
 47115  1  0  0  0
 48 56  1  0  0  0
 48 65  1  0  0  0
 48116  1  0  0  0
 49 50  1  0  0  0
 49 53  1  0  0  0
 49 64  1  0  0  0
 49117  1  0  0  0
 50 51  1  0  0  0
 50118  1  0  0  0
 50119  1  0  0  0
 51 52  1  0  0  0
 51120  1  0  0  0
 51121  1  0  0  0
 52122  1  0  0  0
 52123  1  0  0  0
 53 54  1  0  0  0
 54 55  2  0  0  0
 54124  1  0  0  0
 55 57  1  0  0  0
 55125  1  0  0  0
 56 69  2  0  0  0
 57 58  2  0  0  0
 57126  1  0  0  0
 58127  1  0  0  0
 59 60  1  0  0  0
 59 61  1  0  0  0
 59 62  1  0  0  0
 60128  1  0  0  0
 60129  1  0  0  0
 60130  1  0  0  0
 61131  1  0  0  0
 61132  1  0  0  0
 61133  1  0  0  0
 62134  1  0  0  0
 62135  1  0  0  0
 62136  1  0  0  0
 63 65  1  0  0  0
 63137  1  0  0  0
 63138  1  0  0  0
 63139  1  0  0  0
 64140  1  0  0  0
 65141  1  0  0  0
 68 82  1  0  0  0
 71 72  2  0  0  0
 71 80  1  0  0  0
 71142  1  0  0  0
 72 79  1  0  0  0
 72 82  1  0  0  0
 73 79  1  0  0  0
 73 80  2  0  0  0
 73 78  1  0  0  0
 74 76  1  0  0  0
 74 78  1  0  0  0
 74143  1  0  0  0
 74144  1  0  0  0
 75 77  1  0  0  0
 75 78  1  0  0  0
 75145  1  0  0  0
 75146  1  0  0  0
 76 81  1  0  0  0
 76147  1  0  0  0
 76148  1  0  0  0
 77 81  1  0  0  0
 77149  1  0  0  0
 77150  1  0  0  0
 78151  1  0  0  0
 79152  1  0  0  0
 80153  1  0  0  0
 82154  1  0  0  0
M  CHG  1  80   1
M  ISO  4   1 100  68 101  81 100  82 101
M  END
> <chiral flag>
0

> <version>
0

> <s_m_source_file>
/data/baiqing/PycharmProjects/Reinvent-master-3.2/result/LINK_invent/BTK/process_docking_weight1_custom_product_contain_oxygen_bond_distance_aromatic_linkinvent_7_9_3/rearranged_h_0155.sdf

> <i_m_source_file_index>
24

> <r_mmod_Potential_Energy-OPLS-2005>
479.413146972656

> <r_mmod_Stretch_Energy-OPLS-2005>
211.60075378418

> <r_mmod_Bend_Energy-OPLS-2005>
304.552032470703

> <r_mmod_Torsional_Energy-OPLS-2005>
298.338409423828

> <r_mmod_Improper_Torsional_Energy-OPLS-2005>
10.8804903030396

> <r_mmod_Van_der_Waal_Energy-OPLS-2005>
117.218727111816

> <r_mmod_Electrostatic_Energy-OPLS-2005>
-186.220397949219

> <r_mmod_Solvation_Energy-OPLS-2005>
-461.710601806641

> <b_mmod_Minimization_Converged-OPLS-2005>
0

> <r_mmod_RMS_Derivative-OPLS-2005>
3.5098557472229

$$$$
24
                    3D
 Structure written by MMmdl.
154162  0  0  1  0            999 V2000
  -30.7220  -14.5049   20.5491 C   0  0  0  0  0  0
  -30.4102  -12.3244   19.4352 C   0  0  0  0  0  0
  -29.4918  -12.5030   18.2108 C   0  0  0  0  0  0
  -28.0145  -12.3624   18.6244 C   0  0  0  0  0  0
  -27.6544  -13.2196   19.8682 C   0  0  2  0  0  0
  -28.6979  -13.0514   20.9954 C   0  0  0  0  0  0
  -25.2536  -13.8176   20.5667 C   0  0  0  0  0  0
  -24.1813  -13.0439   20.9184 C   0  0  0  0  0  0
  -24.6391  -11.6915   20.8740 C   0  0  0  0  0  0
  -23.9064  -10.4291   21.0401 C   0  0  0  0  0  0
  -24.3614   -9.4208   21.9180 C   0  0  0  0  0  0
  -23.6291   -8.2244   22.0752 C   0  0  0  0  0  0
  -22.4271   -8.0280   21.3546 C   0  0  0  0  0  0
  -21.9908   -9.0254   20.4647 C   0  0  0  0  0  0
  -22.7236  -10.2133   20.3050 C   0  0  0  0  0  0
  -21.6856   -6.0732   22.5282 C   0  0  0  0  0  0
  -21.4014   -6.5634   23.8217 C   0  0  0  0  0  0
  -21.3656   -5.6785   24.9178 C   0  0  0  0  0  0
  -21.6043   -4.3050   24.7226 C   0  0  0  0  0  0
  -21.8820   -3.8144   23.4348 C   0  0  0  0  0  0
  -21.9195   -4.6960   22.3405 C   0  0  0  0  0  0
  -22.7838  -13.5235   21.1847 C   0  0  0  0  0  0
  -22.1664   -4.2146   21.0983 F   0  0  0  0  0  0
  -21.5625   -3.4534   25.7739 F   0  0  0  0  0  0
  -30.0226  -13.3417   20.4284 N   0  0  0  0  0  0
  -26.2990  -12.9380   20.3357 N   0  0  0  0  0  0
  -25.9325  -11.6527   20.5777 N   0  0  0  0  0  0
  -22.0479  -12.8230   22.0409 N   0  0  0  0  0  0
  -25.4214  -15.1886   20.4021 N   0  0  0  0  0  0
  -31.8673  -14.6219   20.1077 O   0  0  0  0  0  0
  -21.6640   -6.8875   21.4243 O   0  0  0  0  0  0
  -22.3518  -14.5542   20.6699 O   0  0  0  0  0  0
  -24.6178  -31.8663   23.2087 C   0  0  0  0  0  0
  -25.9061  -32.4812   23.8392 C   0  0  1  0  0  0
  -27.2247  -27.4052   20.1072 C   0  0  0  0  0  0
  -25.5910  -33.8611   24.2328 N   0  0  0  0  0  0
  -23.4074  -30.4905   21.5494 C   0  0  2  0  0  0
  -24.8540  -28.9556   20.1115 C   0  0  0  0  0  0
  -22.7435  -29.4651   22.4974 C   0  0  0  0  0  0
  -18.0279  -28.1376   22.8490 C   0  0  0  0  0  0
  -24.1487  -36.7301   23.2637 C   0  0  0  0  0  0
  -25.9398  -30.8247   21.3657 C   0  0  0  0  0  0
  -26.0173  -29.4583   20.7096 C   0  0  0  0  0  0
  -27.2102  -28.6927   20.6993 C   0  0  0  0  0  0
  -26.0484  -26.9306   19.4895 C   0  0  0  0  0  0
  -24.8664  -27.6933   19.4944 C   0  0  0  0  0  0
  -23.6173  -29.8252   20.1634 C   0  0  0  0  0  0
  -25.4106  -36.3104   24.0339 C   0  0  1  0  0  0
  -20.5873  -28.3668   23.1306 C   0  0  2  0  0  0
  -20.6767  -26.9401   22.5414 C   0  0  0  0  0  0
  -19.5746  -26.6383   21.5209 C   0  0  0  0  0  0
  -18.1924  -26.7925   22.1618 C   0  0  0  0  0  0
  -19.1529  -28.8840   23.2894 C   0  0  0  0  0  0
  -18.9454  -30.1447   23.8901 C   0  0  0  0  0  0
  -17.6456  -30.6582   24.0560 C   0  0  0  0  0  0
  -25.9037  -34.9468   23.5129 C   0  0  0  0  0  0
  -16.5347  -29.9081   23.6326 C   0  0  0  0  0  0
  -16.7267  -28.6498   23.0348 C   0  0  0  0  0  0
  -26.4476  -31.6591   25.0725 C   0  0  0  0  0  0
  -25.3738  -31.3702   26.1474 C   0  0  0  0  0  0
  -27.0299  -30.3030   24.6108 C   0  0  0  0  0  0
  -27.6065  -32.4299   25.7478 C   0  0  0  0  0  0
  -27.5582  -37.1799   24.8462 C   0  0  0  0  0  0
  -21.4159  -29.3033   22.3712 N   0  0  0  0  0  0
  -26.4289  -37.3791   23.9417 N   0  0  0  0  0  0
  -24.6734  -31.0750   22.0995 N   0  0  0  0  0  0
  -23.4196  -28.8188   23.3021 O   0  0  0  0  0  0
  -28.3494  -26.6024   20.1324 O   0  0  0  0  0  0
  -26.5593  -34.8922   22.4689 O   0  0  0  0  0  0
  -23.5363  -32.1420   23.7468 O   0  0  0  0  0  0
  -30.3309  -19.3533   20.3650 C   0  0  0  0  0  0
  -29.9030  -18.1840   21.0784 C   0  0  0  0  0  0
  -28.6883  -18.5394   21.6262 C   0  0  0  0  0  0
  -29.3862  -20.3175   20.5777 C   0  0  0  0  0  0
  -28.8607  -24.1298   20.1280 C   0  0  0  0  0  0
  -30.7207  -16.8979   21.2576 C   0  0  0  0  0  0
  -28.5768  -22.7048   20.6856 C   0  0  0  0  0  0
  -28.1395  -25.3272   20.7996 C   0  0  0  0  0  0
  -27.7209  -17.8182   22.5148 C   0  0  0  0  0  0
  -29.4334  -21.6446   20.1222 N   0  0  0  0  0  0
  -30.0733  -15.5812   21.0515 N   0  0  0  0  0  0
  -29.6483  -24.2903   19.1874 O   0  0  0  0  0  0
  -28.3685  -19.8492   21.3351 O   0  0  0  0  0  0
  -27.6388  -16.5255   22.1977 F   0  0  0  0  0  0
  -28.0984  -17.8924   23.7905 F   0  0  0  0  0  0
  -26.4927  -18.3303   22.4283 F   0  0  0  0  0  0
  -31.4567  -12.4010   19.1354 H   0  0  0  0  0  0
  -30.2961  -11.3247   19.8572 H   0  0  0  0  0  0
  -29.7368  -11.7678   17.4433 H   0  0  0  0  0  0
  -29.6595  -13.4827   17.7608 H   0  0  0  0  0  0
  -27.8318  -11.3085   18.8366 H   0  0  0  0  0  0
  -27.3631  -12.6205   17.7884 H   0  0  0  0  0  0
  -27.6834  -14.2610   19.5466 H   0  0  0  0  0  0
  -28.6794  -12.0328   21.3856 H   0  0  0  0  0  0
  -28.4629  -13.6987   21.8412 H   0  0  0  0  0  0
  -25.2757   -9.5691   22.4755 H   0  0  0  0  0  0
  -24.0005   -7.4635   22.7468 H   0  0  0  0  0  0
  -21.0842   -8.8771   19.8951 H   0  0  0  0  0  0
  -22.3694  -10.9669   19.6156 H   0  0  0  0  0  0
  -21.2005   -7.6139   23.9719 H   0  0  0  0  0  0
  -21.1473   -6.0513   25.9081 H   0  0  0  0  0  0
  -22.0598   -2.7606   23.2851 H   0  0  0  0  0  0
  -22.4090  -11.9892   22.4800 H   0  0  0  0  0  0
  -21.1096  -13.1257   22.2603 H   0  0  0  0  0  0
  -24.6563  -15.8433   20.5162 H   0  0  0  0  0  0
  -26.2803  -15.6289   20.1020 H   0  0  0  0  0  0
  -26.7134  -32.5518   23.1156 H   0  0  0  0  0  0
  -25.0088  -33.9771   25.0493 H   0  0  0  0  0  0
  -22.6969  -31.3080   21.4107 H   0  0  0  0  0  0
  -23.3758  -35.9623   23.3290 H   0  0  0  0  0  0
  -24.3589  -36.8923   22.2054 H   0  0  0  0  0  0
  -23.7223  -37.6497   23.6657 H   0  0  0  0  0  0
  -26.0585  -31.5922   20.5994 H   0  0  0  0  0  0
  -26.8251  -30.8750   21.9880 H   0  0  0  0  0  0
  -28.1067  -29.0729   21.1687 H   0  0  0  0  0  0
  -26.0406  -25.9614   19.0104 H   0  0  0  0  0  0
  -23.9738  -27.3034   19.0246 H   0  0  0  0  0  0
  -23.7282  -30.6011   19.4051 H   0  0  0  0  0  0
  -22.7403  -29.2471   19.8664 H   0  0  0  0  0  0
  -25.1278  -36.1964   25.0831 H   0  0  0  0  0  0
  -20.9965  -28.3234   24.1426 H   0  0  0  0  0  0
  -20.5673  -26.2273   23.3603 H   0  0  0  0  0  0
  -21.6637  -26.7444   22.1204 H   0  0  0  0  0  0
  -19.6906  -25.6297   21.1232 H   0  0  0  0  0  0
  -19.6684  -27.3199   20.6742 H   0  0  0  0  0  0
  -17.4198  -26.6685   21.4014 H   0  0  0  0  0  0
  -18.0316  -26.0061   22.9008 H   0  0  0  0  0  0
  -19.7931  -30.7265   24.2269 H   0  0  0  0  0  0
  -17.5010  -31.6262   24.5162 H   0  0  0  0  0  0
  -15.5347  -30.2981   23.7648 H   0  0  0  0  0  0
  -15.8668  -28.0818   22.7057 H   0  0  0  0  0  0
  -24.5905  -30.7057   25.7807 H   0  0  0  0  0  0
  -24.8937  -32.2857   26.4939 H   0  0  0  0  0  0
  -25.8088  -30.8855   27.0222 H   0  0  0  0  0  0
  -26.2836  -29.6794   24.1171 H   0  0  0  0  0  0
  -27.4071  -29.7266   25.4565 H   0  0  0  0  0  0
  -27.8676  -30.4342   23.9255 H   0  0  0  0  0  0
  -27.2709  -33.3605   26.2065 H   0  0  0  0  0  0
  -28.3864  -32.6839   25.0288 H   0  0  0  0  0  0
  -28.0740  -31.8409   26.5378 H   0  0  0  0  0  0
  -28.2591  -38.0107   24.7535 H   0  0  0  0  0  0
  -28.1087  -36.2640   24.6249 H   0  0  0  0  0  0
  -27.2309  -37.1407   25.8866 H   0  0  0  0  0  0
  -20.9326  -29.8751   21.6927 H   0  0  0  0  0  0
  -26.0176  -38.2866   24.1429 H   0  0  0  0  0  0
  -31.2498  -19.4805   19.8097 H   0  0  0  0  0  0
  -31.1223  -16.9059   22.2717 H   0  0  0  0  0  0
  -31.5908  -17.0011   20.6068 H   0  0  0  0  0  0
  -27.5306  -22.4632   20.4938 H   0  0  0  0  0  0
  -28.7002  -22.7298   21.7691 H   0  0  0  0  0  0
  -28.5121  -25.4142   21.8203 H   0  0  0  0  0  0
  -27.0821  -25.0758   20.8846 H   0  0  0  0  0  0
  -30.2058  -21.9912   19.5567 H   0  0  0  0  0  0
  -29.1208  -15.4598   21.3634 H   0  0  0  0  0  0
  1 25  1  0  0  0
  1 30  2  0  0  0
  1 81  1  0  0  0
  2  3  1  0  0  0
  2 25  1  0  0  0
  2 87  1  0  0  0
  2 88  1  0  0  0
  3  4  1  0  0  0
  3 89  1  0  0  0
  3 90  1  0  0  0
  4  5  1  0  0  0
  4 91  1  0  0  0
  4 92  1  0  0  0
  5  6  1  0  0  0
  5 26  1  0  0  0
  5 93  1  0  0  0
  6 25  1  0  0  0
  6 94  1  0  0  0
  6 95  1  0  0  0
  7  8  2  0  0  0
  7 26  1  0  0  0
  7 29  1  0  0  0
  8  9  1  0  0  0
  8 22  1  0  0  0
  9 10  1  0  0  0
  9 27  2  0  0  0
 10 11  2  0  0  0
 10 15  1  0  0  0
 11 12  1  0  0  0
 11 96  1  0  0  0
 12 13  2  0  0  0
 12 97  1  0  0  0
 13 14  1  0  0  0
 13 31  1  0  0  0
 14 15  2  0  0  0
 14 98  1  0  0  0
 15 99  1  0  0  0
 16 17  2  0  0  0
 16 21  1  0  0  0
 16 31  1  0  0  0
 17 18  1  0  0  0
 17100  1  0  0  0
 18 19  2  0  0  0
 18101  1  0  0  0
 19 20  1  0  0  0
 19 24  1  0  0  0
 20 21  2  0  0  0
 20102  1  0  0  0
 21 23  1  0  0  0
 22 28  1  0  0  0
 22 32  2  0  0  0
 26 27  1  0  0  0
 28103  1  0  0  0
 28104  1  0  0  0
 29105  1  0  0  0
 29106  1  0  0  0
 33 34  1  0  0  0
 33 66  1  0  0  0
 33 70  2  0  0  0
 34 36  1  0  0  0
 34 59  1  0  0  0
 34107  1  0  0  0
 35 44  2  0  0  0
 35 45  1  0  0  0
 35 68  1  0  0  0
 36 56  1  0  0  0
 36108  1  0  0  0
 37 39  1  0  0  0
 37 47  1  0  0  0
 37 66  1  0  0  0
 37109  1  0  0  0
 38 43  2  0  0  0
 38 46  1  0  0  0
 38 47  1  0  0  0
 39 64  1  0  0  0
 39 67  2  0  0  0
 40 52  1  0  0  0
 40 53  2  0  0  0
 40 58  1  0  0  0
 41110  1  0  0  0
 41111  1  0  0  0
 41112  1  0  0  0
 41 48  1  0  0  0
 42 43  1  0  0  0
 42 66  1  0  0  0
 42113  1  0  0  0
 42114  1  0  0  0
 43 44  1  0  0  0
 44115  1  0  0  0
 45 46  2  0  0  0
 45116  1  0  0  0
 46117  1  0  0  0
 47118  1  0  0  0
 47119  1  0  0  0
 48 56  1  0  0  0
 48 65  1  0  0  0
 48120  1  0  0  0
 49 50  1  0  0  0
 49 53  1  0  0  0
 49 64  1  0  0  0
 49121  1  0  0  0
 50 51  1  0  0  0
 50122  1  0  0  0
 50123  1  0  0  0
 51 52  1  0  0  0
 51124  1  0  0  0
 51125  1  0  0  0
 52126  1  0  0  0
 52127  1  0  0  0
 53 54  1  0  0  0
 54 55  2  0  0  0
 54128  1  0  0  0
 55 57  1  0  0  0
 55129  1  0  0  0
 56 69  2  0  0  0
 57 58  2  0  0  0
 57130  1  0  0  0
 58131  1  0  0  0
 59 60  1  0  0  0
 59 61  1  0  0  0
 59 62  1  0  0  0
 60132  1  0  0  0
 60133  1  0  0  0
 60134  1  0  0  0
 61135  1  0  0  0
 61136  1  0  0  0
 61137  1  0  0  0
 62138  1  0  0  0
 62139  1  0  0  0
 62140  1  0  0  0
 63 65  1  0  0  0
 63141  1  0  0  0
 63142  1  0  0  0
 63143  1  0  0  0
 64144  1  0  0  0
 65145  1  0  0  0
 68 78  1  0  0  0
 71 72  1  0  0  0
 71 74  2  0  0  0
 71146  1  0  0  0
 72 73  2  0  0  0
 72 76  1  0  0  0
 73 79  1  0  0  0
 73 83  1  0  0  0
 74 80  1  0  0  0
 74 83  1  0  0  0
 75 77  1  0  0  0
 75 78  1  0  0  0
 75 82  2  0  0  0
 76 81  1  0  0  0
 76147  1  0  0  0
 76148  1  0  0  0
 77 80  1  0  0  0
 77149  1  0  0  0
 77150  1  0  0  0
 78151  1  0  0  0
 78152  1  0  0  0
 79 84  1  0  0  0
 79 85  1  0  0  0
 79 86  1  0  0  0
 80153  1  0  0  0
 81154  1  0  0  0
M  ISO  4   1 100  68 101  78 101  81 100
M  END
> <chiral flag>
0

> <version>
0

> <s_m_source_file>
/data/baiqing/PycharmProjects/Reinvent-master-3.2/result/LINK_invent/BTK/process_docking_weight1_custom_product_contain_oxygen_bond_distance_aromatic_linkinvent_7_9_3/rearranged_h_0155.sdf

> <i_m_source_file_index>
25

> <r_mmod_Potential_Energy-OPLS-2005>
-113.310470581055

> <r_mmod_Stretch_Energy-OPLS-2005>
42.4668922424316

> <r_mmod_Bend_Energy-OPLS-2005>
111.601806640625

> <r_mmod_Torsional_Energy-OPLS-2005>
209.909393310547

> <r_mmod_Improper_Torsional_Energy-OPLS-2005>
3.96689081192017

> <r_mmod_Van_der_Waal_Energy-OPLS-2005>
123.936874389648

> <r_mmod_Electrostatic_Energy-OPLS-2005>
-395.24853515625

> <r_mmod_Solvation_Energy-OPLS-2005>
-230.678787231445

> <b_mmod_Minimization_Converged-OPLS-2005>
0

> <r_mmod_RMS_Derivative-OPLS-2005>
0.61085319519043

$$$$
25
                    3D
 Structure written by MMmdl.
160168  0  0  1  0            999 V2000
  -30.7362  -14.4610   20.6200 C   0  0  0  0  0  0
  -30.4139  -12.3171   19.4264 C   0  0  0  0  0  0
  -29.4927  -12.5198   18.2067 C   0  0  0  0  0  0
  -28.0140  -12.3755   18.6139 C   0  0  0  0  0  0
  -27.6593  -13.2126   19.8716 C   0  0  2  0  0  0
  -28.6950  -12.9936   20.9941 C   0  0  0  0  0  0
  -25.2583  -13.8179   20.5702 C   0  0  0  0  0  0
  -24.1820  -13.0441   20.9127 C   0  0  0  0  0  0
  -24.6378  -11.6909   20.8682 C   0  0  0  0  0  0
  -23.9050  -10.4296   21.0376 C   0  0  0  0  0  0
  -24.3609   -9.4224   21.9167 C   0  0  0  0  0  0
  -23.6292   -8.2256   22.0749 C   0  0  0  0  0  0
  -22.4274   -8.0281   21.3543 C   0  0  0  0  0  0
  -21.9899   -9.0246   20.4643 C   0  0  0  0  0  0
  -22.7217  -10.2129   20.3039 C   0  0  0  0  0  0
  -21.6854   -6.0737   22.5286 C   0  0  0  0  0  0
  -21.4015   -6.5643   23.8218 C   0  0  0  0  0  0
  -21.3660   -5.6797   24.9178 C   0  0  0  0  0  0
  -21.6041   -4.3060   24.7229 C   0  0  0  0  0  0
  -21.8818   -3.8149   23.4352 C   0  0  0  0  0  0
  -21.9193   -4.6965   22.3408 C   0  0  0  0  0  0
  -22.7851  -13.5243   21.1830 C   0  0  0  0  0  0
  -22.1661   -4.2154   21.0984 F   0  0  0  0  0  0
  -21.5626   -3.4540   25.7738 F   0  0  0  0  0  0
  -30.0319  -13.3015   20.4561 N   0  0  0  0  0  0
  -26.3012  -12.9357   20.3351 N   0  0  0  0  0  0
  -25.9305  -11.6505   20.5710 N   0  0  0  0  0  0
  -22.0502  -12.8225   22.0391 N   0  0  0  0  0  0
  -25.4336  -15.1910   20.4270 N   0  0  0  0  0  0
  -31.8083  -14.6577   20.0376 O   0  0  0  0  0  0
  -21.6638   -6.8878   21.4245 O   0  0  0  0  0  0
  -22.3531  -14.5565   20.6714 O   0  0  0  0  0  0
  -24.6140  -31.8659   23.2074 C   0  0  0  0  0  0
  -25.9025  -32.4816   23.8374 C   0  0  1  0  0  0
  -27.2289  -27.4160   20.1110 C   0  0  0  0  0  0
  -25.5874  -33.8615   24.2302 N   0  0  0  0  0  0
  -23.4037  -30.4882   21.5483 C   0  0  2  0  0  0
  -24.8519  -28.9500   20.1135 C   0  0  0  0  0  0
  -22.7415  -29.4636   22.4977 C   0  0  0  0  0  0
  -18.0271  -28.1373   22.8496 C   0  0  0  0  0  0
  -24.1484  -36.7303   23.2643 C   0  0  0  0  0  0
  -25.9333  -30.8282   21.3626 C   0  0  0  0  0  0
  -26.0119  -29.4619   20.7090 C   0  0  0  0  0  0
  -27.2063  -28.7035   20.6991 C   0  0  0  0  0  0
  -26.0576  -26.9243   19.4992 C   0  0  0  0  0  0
  -24.8705  -27.6831   19.5035 C   0  0  0  0  0  0
  -23.6135  -29.8178   20.1641 C   0  0  0  0  0  0
  -25.4107  -36.3110   24.0343 C   0  0  1  0  0  0
  -20.5862  -28.3645   23.1320 C   0  0  2  0  0  0
  -20.6760  -26.9379   22.5421 C   0  0  0  0  0  0
  -19.5744  -26.6371   21.5216 C   0  0  0  0  0  0
  -18.1920  -26.7917   22.1627 C   0  0  0  0  0  0
  -19.1521  -28.8824   23.2910 C   0  0  0  0  0  0
  -18.9458  -30.1438   23.8910 C   0  0  0  0  0  0
  -17.6463  -30.6582   24.0565 C   0  0  0  0  0  0
  -25.9031  -34.9479   23.5127 C   0  0  0  0  0  0
  -16.5352  -29.9089   23.6333 C   0  0  0  0  0  0
  -16.7260  -28.6508   23.0347 C   0  0  0  0  0  0
  -26.4449  -31.6607   25.0713 C   0  0  0  0  0  0
  -25.3714  -31.3735   26.1465 C   0  0  0  0  0  0
  -27.0272  -30.3049   24.6087 C   0  0  0  0  0  0
  -27.6013  -32.4334   25.7482 C   0  0  0  0  0  0
  -27.5584  -37.1801   24.8467 C   0  0  0  0  0  0
  -21.4138  -29.3018   22.3730 N   0  0  0  0  0  0
  -26.4294  -37.3795   23.9418 N   0  0  0  0  0  0
  -24.6688  -31.0751   22.0988 N   0  0  0  0  0  0
  -23.4191  -28.8176   23.3007 O   0  0  0  0  0  0
  -28.3798  -26.6505   20.1321 O   0  0  0  0  0  0
  -26.5608  -34.8933   22.4695 O   0  0  0  0  0  0
  -23.5330  -32.1414   23.7461 O   0  0  0  0  0  0
  -29.9438  -19.9164   19.8259 C   0  0  0  0  0  0
  -29.6864  -21.3285   19.8582 C   0  0  0  0  0  0
  -29.1035  -19.1861   20.6320 C   0  0  0  0  0  0
  -28.6621  -21.6820   20.7038 C   0  0  0  0  0  0
  -29.0097  -17.7271   20.8505 C   0  0  0  0  0  0
  -27.4505  -25.5643   22.1889 C   0  0  0  0  0  0
  -29.8699  -25.5376   21.5531 C   0  0  0  0  0  0
  -30.0429  -15.3793   22.7583 C   0  0  0  0  0  0
  -30.2967  -16.8748   20.7993 C   0  0  0  0  0  0
  -28.2648  -24.1430   20.1907 C   0  0  0  0  0  0
  -28.4394  -25.4791   20.9961 C   0  0  0  0  0  0
  -28.1528  -22.9463   21.0460 N   0  0  0  0  0  0
  -30.1341  -15.4760   21.2924 N   0  0  0  0  0  0
  -27.9273  -17.1809   21.0856 O   0  0  0  0  0  0
  -27.9786  -20.2494   21.4558 S   0  0  0  0  0  0
  -31.4601  -12.4006   19.1280 H   0  0  0  0  0  0
  -30.3026  -11.3052   19.8194 H   0  0  0  0  0  0
  -29.7363  -11.7995   17.4246 H   0  0  0  0  0  0
  -29.6617  -13.5081   17.7750 H   0  0  0  0  0  0
  -27.8241  -11.3187   18.8048 H   0  0  0  0  0  0
  -27.3659  -12.6541   17.7818 H   0  0  0  0  0  0
  -27.7025  -14.2628   19.5788 H   0  0  0  0  0  0
  -28.6685  -11.9588   21.3380 H   0  0  0  0  0  0
  -28.4239  -13.5928   21.8605 H   0  0  0  0  0  0
  -25.2756   -9.5708   22.4737 H   0  0  0  0  0  0
  -24.0006   -7.4651   22.7474 H   0  0  0  0  0  0
  -21.0828   -8.8752   19.8955 H   0  0  0  0  0  0
  -22.3666  -10.9658   19.6145 H   0  0  0  0  0  0
  -21.2006   -7.6151   23.9723 H   0  0  0  0  0  0
  -21.1481   -6.0526   25.9084 H   0  0  0  0  0  0
  -22.0595   -2.7611   23.2849 H   0  0  0  0  0  0
  -22.4106  -11.9871   22.4760 H   0  0  0  0  0  0
  -21.1125  -13.1259   22.2622 H   0  0  0  0  0  0
  -24.6832  -15.8503   20.5985 H   0  0  0  0  0  0
  -26.3358  -15.6450   20.3231 H   0  0  0  0  0  0
  -26.7084  -32.5514   23.1124 H   0  0  0  0  0  0
  -25.0011  -33.9767   25.0442 H   0  0  0  0  0  0
  -22.6922  -31.3046   21.4056 H   0  0  0  0  0  0
  -23.3756  -35.9628   23.3314 H   0  0  0  0  0  0
  -24.3575  -36.8908   22.2055 H   0  0  0  0  0  0
  -23.7228  -37.6509   23.6647 H   0  0  0  0  0  0
  -26.0475  -31.5965   20.5961 H   0  0  0  0  0  0
  -26.8197  -30.8798   21.9830 H   0  0  0  0  0  0
  -28.1026  -29.0889   21.1652 H   0  0  0  0  0  0
  -26.0574  -25.9503   19.0330 H   0  0  0  0  0  0
  -23.9781  -27.2841   19.0414 H   0  0  0  0  0  0
  -23.7220  -30.5930   19.4044 H   0  0  0  0  0  0
  -22.7358  -29.2393   19.8694 H   0  0  0  0  0  0
  -25.1285  -36.1973   25.0837 H   0  0  0  0  0  0
  -20.9956  -28.3196   24.1437 H   0  0  0  0  0  0
  -20.5656  -26.2244   23.3603 H   0  0  0  0  0  0
  -21.6633  -26.7412   22.1219 H   0  0  0  0  0  0
  -19.6915  -25.6288   21.1231 H   0  0  0  0  0  0
  -19.6693  -27.3192   20.6760 H   0  0  0  0  0  0
  -17.4194  -26.6661   21.4027 H   0  0  0  0  0  0
  -18.0323  -26.0054   22.9018 H   0  0  0  0  0  0
  -19.7940  -30.7250   24.2274 H   0  0  0  0  0  0
  -17.5029  -31.6265   24.5155 H   0  0  0  0  0  0
  -15.5359  -30.3004   23.7651 H   0  0  0  0  0  0
  -15.8658  -28.0841   22.7046 H   0  0  0  0  0  0
  -24.5866  -30.7101   25.7812 H   0  0  0  0  0  0
  -24.8927  -32.2908   26.4910 H   0  0  0  0  0  0
  -25.8054  -30.8906   27.0231 H   0  0  0  0  0  0
  -26.2821  -29.6835   24.1104 H   0  0  0  0  0  0
  -27.4014  -29.7254   25.4538 H   0  0  0  0  0  0
  -27.8669  -30.4369   23.9254 H   0  0  0  0  0  0
  -27.2609  -33.3616   26.2084 H   0  0  0  0  0  0
  -28.3811  -32.6926   25.0309 H   0  0  0  0  0  0
  -28.0699  -31.8456   26.5386 H   0  0  0  0  0  0
  -28.2592  -38.0106   24.7522 H   0  0  0  0  0  0
  -28.1084  -36.2636   24.6276 H   0  0  0  0  0  0
  -27.2304  -37.1434   25.8870 H   0  0  0  0  0  0
  -20.9296  -29.8753   21.6968 H   0  0  0  0  0  0
  -26.0189  -38.2873   24.1434 H   0  0  0  0  0  0
  -30.7235  -19.4918   19.2098 H   0  0  0  0  0  0
  -30.2745  -22.0224   19.2752 H   0  0  0  0  0  0
  -26.4160  -25.4390   21.8686 H   0  0  0  0  0  0
  -27.5267  -26.5218   22.7049 H   0  0  0  0  0  0
  -27.6509  -24.7942   22.9350 H   0  0  0  0  0  0
  -30.0670  -24.7100   22.2361 H   0  0  0  0  0  0
  -30.0440  -26.4668   22.0970 H   0  0  0  0  0  0
  -30.6074  -25.4825   20.7520 H   0  0  0  0  0  0
  -30.7413  -16.0610   23.2458 H   0  0  0  0  0  0
  -30.2699  -14.3780   23.1314 H   0  0  0  0  0  0
  -29.0379  -15.6322   23.0959 H   0  0  0  0  0  0
  -31.0826  -17.3792   21.3629 H   0  0  0  0  0  0
  -30.6207  -16.8840   19.7572 H   0  0  0  0  0  0
  -29.0832  -24.0322   19.4779 H   0  0  0  0  0  0
  -27.3537  -24.2003   19.5955 H   0  0  0  0  0  0
  -27.4420  -23.0060   21.7699 H   0  0  0  0  0  0
  1 25  1  0  0  0
  1 30  2  0  0  0
  1 83  1  0  0  0
  2  3  1  0  0  0
  2 25  1  0  0  0
  2 86  1  0  0  0
  2 87  1  0  0  0
  3  4  1  0  0  0
  3 88  1  0  0  0
  3 89  1  0  0  0
  4  5  1  0  0  0
  4 90  1  0  0  0
  4 91  1  0  0  0
  5  6  1  0  0  0
  5 26  1  0  0  0
  5 92  1  0  0  0
  6 25  1  0  0  0
  6 93  1  0  0  0
  6 94  1  0  0  0
  7  8  2  0  0  0
  7 26  1  0  0  0
  7 29  1  0  0  0
  8  9  1  0  0  0
  8 22  1  0  0  0
  9 10  1  0  0  0
  9 27  2  0  0  0
 10 11  2  0  0  0
 10 15  1  0  0  0
 11 12  1  0  0  0
 11 95  1  0  0  0
 12 13  2  0  0  0
 12 96  1  0  0  0
 13 14  1  0  0  0
 13 31  1  0  0  0
 14 15  2  0  0  0
 14 97  1  0  0  0
 15 98  1  0  0  0
 16 17  2  0  0  0
 16 21  1  0  0  0
 16 31  1  0  0  0
 17 18  1  0  0  0
 17 99  1  0  0  0
 18 19  2  0  0  0
 18100  1  0  0  0
 19 20  1  0  0  0
 19 24  1  0  0  0
 20 21  2  0  0  0
 20101  1  0  0  0
 21 23  1  0  0  0
 22 28  1  0  0  0
 22 32  2  0  0  0
 26 27  1  0  0  0
 28102  1  0  0  0
 28103  1  0  0  0
 29104  1  0  0  0
 29105  1  0  0  0
 33 34  1  0  0  0
 33 66  1  0  0  0
 33 70  2  0  0  0
 34 36  1  0  0  0
 34 59  1  0  0  0
 34106  1  0  0  0
 35 44  2  0  0  0
 35 45  1  0  0  0
 35 68  1  0  0  0
 36 56  1  0  0  0
 36107  1  0  0  0
 37 39  1  0  0  0
 37 47  1  0  0  0
 37 66  1  0  0  0
 37108  1  0  0  0
 38 43  2  0  0  0
 38 46  1  0  0  0
 38 47  1  0  0  0
 39 64  1  0  0  0
 39 67  2  0  0  0
 40 52  1  0  0  0
 40 53  2  0  0  0
 40 58  1  0  0  0
 41109  1  0  0  0
 41110  1  0  0  0
 41111  1  0  0  0
 41 48  1  0  0  0
 42 43  1  0  0  0
 42 66  1  0  0  0
 42112  1  0  0  0
 42113  1  0  0  0
 43 44  1  0  0  0
 44114  1  0  0  0
 45 46  2  0  0  0
 45115  1  0  0  0
 46116  1  0  0  0
 47117  1  0  0  0
 47118  1  0  0  0
 48 56  1  0  0  0
 48 65  1  0  0  0
 48119  1  0  0  0
 49 50  1  0  0  0
 49 53  1  0  0  0
 49 64  1  0  0  0
 49120  1  0  0  0
 50 51  1  0  0  0
 50121  1  0  0  0
 50122  1  0  0  0
 51 52  1  0  0  0
 51123  1  0  0  0
 51124  1  0  0  0
 52125  1  0  0  0
 52126  1  0  0  0
 53 54  1  0  0  0
 54 55  2  0  0  0
 54127  1  0  0  0
 55 57  1  0  0  0
 55128  1  0  0  0
 56 69  2  0  0  0
 57 58  2  0  0  0
 57129  1  0  0  0
 58130  1  0  0  0
 59 60  1  0  0  0
 59 61  1  0  0  0
 59 62  1  0  0  0
 60131  1  0  0  0
 60132  1  0  0  0
 60133  1  0  0  0
 61134  1  0  0  0
 61135  1  0  0  0
 61136  1  0  0  0
 62137  1  0  0  0
 62138  1  0  0  0
 62139  1  0  0  0
 63 65  1  0  0  0
 63140  1  0  0  0
 63141  1  0  0  0
 63142  1  0  0  0
 64143  1  0  0  0
 65144  1  0  0  0
 68 81  1  0  0  0
 71 72  1  0  0  0
 71 73  2  0  0  0
 71145  1  0  0  0
 72 74  2  0  0  0
 72146  1  0  0  0
 73 75  1  0  0  0
 73 85  1  0  0  0
 74 82  1  0  0  0
 74 85  1  0  0  0
 75 79  1  0  0  0
 75 84  2  0  0  0
 76147  1  0  0  0
 76148  1  0  0  0
 76149  1  0  0  0
 76 81  1  0  0  0
 77 81  1  0  0  0
 77150  1  0  0  0
 77151  1  0  0  0
 77152  1  0  0  0
 78 83  1  0  0  0
 78153  1  0  0  0
 78154  1  0  0  0
 78155  1  0  0  0
 79 83  1  0  0  0
 79156  1  0  0  0
 79157  1  0  0  0
 80 81  1  0  0  0
 80 82  1  0  0  0
 80158  1  0  0  0
 80159  1  0  0  0
 82160  1  0  0  0
M  ISO  4   1 100  68 101  81 101  83 100
M  END
> <chiral flag>
0

> <version>
0

> <s_m_source_file>
/data/baiqing/PycharmProjects/Reinvent-master-3.2/result/LINK_invent/BTK/process_docking_weight1_custom_product_contain_oxygen_bond_distance_aromatic_linkinvent_7_9_3/rearranged_h_0155.sdf

> <i_m_source_file_index>
26

> <r_mmod_Potential_Energy-OPLS-2005>
7.2301173210144

> <r_mmod_Stretch_Energy-OPLS-2005>
45.0984153747559

> <r_mmod_Bend_Energy-OPLS-2005>
114.451927185059

> <r_mmod_Torsional_Energy-OPLS-2005>
320.092132568359

> <r_mmod_Improper_Torsional_Energy-OPLS-2005>
7.87594652175903

> <r_mmod_Van_der_Waal_Energy-OPLS-2005>
130.388916015625

> <r_mmod_Electrostatic_Energy-OPLS-2005>
-428.042144775391

> <r_mmod_Solvation_Energy-OPLS-2005>
-195.8232421875

> <b_mmod_Minimization_Converged-OPLS-2005>
0

> <r_mmod_RMS_Derivative-OPLS-2005>
1.28049528598785

$$$$
26
                    3D
 Structure written by MMmdl.
165174  0  0  1  0            999 V2000
  -30.6431  -14.5674   20.5422 C   0  0  0  0  0  0
  -30.4389  -12.3609   19.4166 C   0  0  0  0  0  0
  -29.4927  -12.5272   18.2058 C   0  0  0  0  0  0
  -28.0178  -12.3626   18.6254 C   0  0  0  0  0  0
  -27.6619  -13.2084   19.8758 C   0  0  2  0  0  0
  -28.7124  -12.9987   20.9902 C   0  0  0  0  0  0
  -25.2601  -13.8161   20.5717 C   0  0  0  0  0  0
  -24.1848  -13.0430   20.9192 C   0  0  0  0  0  0
  -24.6403  -11.6898   20.8748 C   0  0  0  0  0  0
  -23.9061  -10.4288   21.0415 C   0  0  0  0  0  0
  -24.3620   -9.4204   21.9183 C   0  0  0  0  0  0
  -23.6302   -8.2235   22.0752 C   0  0  0  0  0  0
  -22.4279   -8.0281   21.3538 C   0  0  0  0  0  0
  -21.9918   -9.0254   20.4636 C   0  0  0  0  0  0
  -22.7246  -10.2134   20.3049 C   0  0  0  0  0  0
  -21.6858   -6.0744   22.5280 C   0  0  0  0  0  0
  -21.4019   -6.5650   23.8219 C   0  0  0  0  0  0
  -21.3654   -5.6797   24.9176 C   0  0  0  0  0  0
  -21.6038   -4.3057   24.7226 C   0  0  0  0  0  0
  -21.8823   -3.8148   23.4346 C   0  0  0  0  0  0
  -21.9201   -4.6968   22.3403 C   0  0  0  0  0  0
  -22.7865  -13.5217   21.1845 C   0  0  0  0  0  0
  -22.1667   -4.2159   21.0976 F   0  0  0  0  0  0
  -21.5625   -3.4538   25.7736 F   0  0  0  0  0  0
  -30.0363  -13.3456   20.4393 N   0  0  0  0  0  0
  -26.3047  -12.9322   20.3419 N   0  0  0  0  0  0
  -25.9340  -11.6479   20.5808 N   0  0  0  0  0  0
  -22.0524  -12.8195   22.0406 N   0  0  0  0  0  0
  -25.4326  -15.1883   20.4118 N   0  0  0  0  0  0
  -31.7684  -14.7837   20.0790 O   0  0  0  0  0  0
  -21.6634   -6.8886   21.4240 O   0  0  0  0  0  0
  -22.3527  -14.5514   20.6700 O   0  0  0  0  0  0
  -24.6225  -31.8590   23.2024 C   0  0  0  0  0  0
  -25.9091  -32.4771   23.8331 C   0  0  1  0  0  0
  -27.2366  -27.3571   20.0940 C   0  0  0  0  0  0
  -25.5914  -33.8575   24.2241 N   0  0  0  0  0  0
  -23.4129  -30.4817   21.5452 C   0  0  2  0  0  0
  -24.8592  -28.9387   20.1105 C   0  0  0  0  0  0
  -22.7429  -29.4617   22.4953 C   0  0  0  0  0  0
  -18.0272  -28.1373   22.8470 C   0  0  0  0  0  0
  -24.1491  -36.7312   23.2646 C   0  0  0  0  0  0
  -25.9488  -30.8036   21.3630 C   0  0  0  0  0  0
  -26.0255  -29.4317   20.7075 C   0  0  0  0  0  0
  -27.2145  -28.6500   20.6924 C   0  0  0  0  0  0
  -26.0425  -26.9050   19.4824 C   0  0  0  0  0  0
  -24.8661  -27.6765   19.4954 C   0  0  0  0  0  0
  -23.6241  -29.8126   20.1613 C   0  0  0  0  0  0
  -25.4114  -36.3075   24.0317 C   0  0  1  0  0  0
  -20.5859  -28.3661   23.1287 C   0  0  2  0  0  0
  -20.6743  -26.9390   22.5408 C   0  0  0  0  0  0
  -19.5729  -26.6374   21.5193 C   0  0  0  0  0  0
  -18.1906  -26.7922   22.1601 C   0  0  0  0  0  0
  -19.1522  -28.8834   23.2882 C   0  0  0  0  0  0
  -18.9467  -30.1440   23.8893 C   0  0  0  0  0  0
  -17.6476  -30.6583   24.0554 C   0  0  0  0  0  0
  -25.9045  -34.9449   23.5074 C   0  0  0  0  0  0
  -16.5361  -29.9080   23.6336 C   0  0  0  0  0  0
  -16.7266  -28.6499   23.0341 C   0  0  0  0  0  0
  -26.4488  -31.6584   25.0700 C   0  0  0  0  0  0
  -25.3738  -31.3700   26.1435 C   0  0  0  0  0  0
  -27.0329  -30.3012   24.6138 C   0  0  0  0  0  0
  -27.6002  -32.4339   25.7519 C   0  0  0  0  0  0
  -27.5572  -37.1808   24.8468 C   0  0  0  0  0  0
  -21.4147  -29.3027   22.3700 N   0  0  0  0  0  0
  -26.4290  -37.3766   23.9403 N   0  0  0  0  0  0
  -24.6807  -31.0638   22.0946 N   0  0  0  0  0  0
  -23.4169  -28.8158   23.3024 O   0  0  0  0  0  0
  -28.3873  -26.5612   20.1287 O   0  0  0  0  0  0
  -26.5606  -34.8927   22.4642 O   0  0  0  0  0  0
  -23.5402  -32.1372   23.7385 O   0  0  0  0  0  0
  -30.5765  -17.8387   20.2585 C   0  0  0  0  0  0
  -29.2039  -19.3287   21.3914 C   0  0  0  0  0  0
  -30.2102  -19.2373   20.4681 C   0  0  0  0  0  0
  -29.8717  -16.9130   21.0194 C   0  0  0  0  0  0
  -33.0316  -21.1277   17.7732 C   0  0  0  0  0  0
  -33.2605  -21.3336   19.2739 C   0  0  0  0  0  0
  -31.5510  -21.3320   17.4359 C   0  0  0  0  0  0
  -32.3668  -20.4044   20.1190 C   0  0  0  0  0  0
  -30.6406  -20.3999   18.2665 C   0  0  0  0  0  0
  -30.8420  -20.4848   19.8085 C   0  0  0  0  0  0
  -29.3563  -22.6672   19.8114 C   0  0  0  0  0  0
  -28.2751  -25.1334   19.7978 C   0  0  0  0  0  0
  -29.4424  -24.1830   20.2691 C   0  0  0  0  0  0
  -29.8775  -15.5372   21.1042 N   0  0  0  0  0  0
  -30.4921  -21.8476   20.3131 N   0  0  0  0  0  0
  -29.4791  -24.2007   21.6026 F   0  0  0  0  0  0
  -30.5885  -24.6838   19.8047 F   0  0  0  0  0  0
  -28.7112  -17.7728   22.0034 S   0  0  0  0  0  0
  -31.4762  -12.4907   19.1014 H   0  0  0  0  0  0
  -30.3694  -11.3482   19.8171 H   0  0  0  0  0  0
  -29.7376  -11.8076   17.4231 H   0  0  0  0  0  0
  -29.6334  -13.5155   17.7642 H   0  0  0  0  0  0
  -27.8443  -11.3059   18.8307 H   0  0  0  0  0  0
  -27.3576  -12.6197   17.7967 H   0  0  0  0  0  0
  -27.6965  -14.2542   19.5694 H   0  0  0  0  0  0
  -28.7118  -11.9565   21.3136 H   0  0  0  0  0  0
  -28.4643  -13.5745   21.8820 H   0  0  0  0  0  0
  -25.2785   -9.5666   22.4733 H   0  0  0  0  0  0
  -24.0019   -7.4621   22.7454 H   0  0  0  0  0  0
  -21.0866   -8.8756   19.8933 H   0  0  0  0  0  0
  -22.3723  -10.9656   19.6131 H   0  0  0  0  0  0
  -21.2006   -7.6163   23.9721 H   0  0  0  0  0  0
  -21.1471   -6.0532   25.9080 H   0  0  0  0  0  0
  -22.0608   -2.7611   23.2850 H   0  0  0  0  0  0
  -22.4194  -11.9866   22.4764 H   0  0  0  0  0  0
  -21.1132  -13.1183   22.2623 H   0  0  0  0  0  0
  -24.6619  -15.8433   20.4861 H   0  0  0  0  0  0
  -26.2945  -15.6234   20.1060 H   0  0  0  0  0  0
  -26.7151  -32.5447   23.1074 H   0  0  0  0  0  0
  -25.0078  -33.9709   25.0404 H   0  0  0  0  0  0
  -22.7066  -31.3031   21.4016 H   0  0  0  0  0  0
  -23.3732  -35.9668   23.3308 H   0  0  0  0  0  0
  -24.3592  -36.8958   22.2066 H   0  0  0  0  0  0
  -23.7285  -37.6527   23.6685 H   0  0  0  0  0  0
  -26.0668  -31.5695   20.5950 H   0  0  0  0  0  0
  -26.8315  -30.8550   21.9869 H   0  0  0  0  0  0
  -28.1153  -29.0261   21.1567 H   0  0  0  0  0  0
  -25.9879  -25.9462   18.9892 H   0  0  0  0  0  0
  -23.9682  -27.2878   19.0348 H   0  0  0  0  0  0
  -23.7352  -30.5864   19.4011 H   0  0  0  0  0  0
  -22.7437  -29.2390   19.8651 H   0  0  0  0  0  0
  -25.1305  -36.1903   25.0806 H   0  0  0  0  0  0
  -20.9952  -28.3227   24.1403 H   0  0  0  0  0  0
  -20.5613  -26.2274   23.3602 H   0  0  0  0  0  0
  -21.6623  -26.7395   22.1240 H   0  0  0  0  0  0
  -19.6906  -25.6283   21.1229 H   0  0  0  0  0  0
  -19.6694  -27.3165   20.6706 H   0  0  0  0  0  0
  -17.4182  -26.6666   21.4001 H   0  0  0  0  0  0
  -18.0328  -26.0063   22.8994 H   0  0  0  0  0  0
  -19.7957  -30.7239   24.2272 H   0  0  0  0  0  0
  -17.5039  -31.6273   24.5140 H   0  0  0  0  0  0
  -15.5363  -30.2976   23.7678 H   0  0  0  0  0  0
  -15.8661  -28.0827   22.7052 H   0  0  0  0  0  0
  -24.5989  -30.6935   25.7814 H   0  0  0  0  0  0
  -24.8841  -32.2843   26.4783 H   0  0  0  0  0  0
  -25.8123  -30.9003   27.0249 H   0  0  0  0  0  0
  -26.2873  -29.6746   24.1223 H   0  0  0  0  0  0
  -27.4090  -29.7289   25.4632 H   0  0  0  0  0  0
  -27.8713  -30.4289   23.9286 H   0  0  0  0  0  0
  -27.2554  -33.3640   26.2043 H   0  0  0  0  0  0
  -28.3868  -32.6895   25.0411 H   0  0  0  0  0  0
  -28.0583  -31.8501   26.5509 H   0  0  0  0  0  0
  -28.2567  -38.0117   24.7505 H   0  0  0  0  0  0
  -28.1084  -36.2650   24.6301 H   0  0  0  0  0  0
  -27.2291  -37.1466   25.8870 H   0  0  0  0  0  0
  -20.9305  -29.8785   21.6951 H   0  0  0  0  0  0
  -26.0164  -38.2838   24.1407 H   0  0  0  0  0  0
  -31.3455  -17.5670   19.5489 H   0  0  0  0  0  0
  -28.7215  -20.2264   21.7568 H   0  0  0  0  0  0
  -33.3501  -20.1273   17.4779 H   0  0  0  0  0  0
  -33.6476  -21.8258   17.2050 H   0  0  0  0  0  0
  -33.0690  -22.3735   19.5392 H   0  0  0  0  0  0
  -34.3085  -21.1473   19.5137 H   0  0  0  0  0  0
  -31.3867  -21.1548   16.3724 H   0  0  0  0  0  0
  -31.2911  -22.3752   17.6132 H   0  0  0  0  0  0
  -32.5501  -20.5779   21.1821 H   0  0  0  0  0  0
  -32.7268  -19.3932   19.9299 H   0  0  0  0  0  0
  -30.8699  -19.3840   17.9417 H   0  0  0  0  0  0
  -29.5946  -20.5410   17.9981 H   0  0  0  0  0  0
  -29.3280  -22.6517   18.7232 H   0  0  0  0  0  0
  -28.4181  -22.2265   20.1502 H   0  0  0  0  0  0
  -27.3584  -24.7230   20.2217 H   0  0  0  0  0  0
  -28.1787  -25.0468   18.7154 H   0  0  0  0  0  0
  -29.0678  -15.1561   21.5715 H   0  0  0  0  0  0
  -30.4334  -21.8156   21.3228 H   0  0  0  0  0  0
  1 25  1  0  0  0
  1 30  2  0  0  0
  1 84  1  0  0  0
  2  3  1  0  0  0
  2 25  1  0  0  0
  2 89  1  0  0  0
  2 90  1  0  0  0
  3  4  1  0  0  0
  3 91  1  0  0  0
  3 92  1  0  0  0
  4  5  1  0  0  0
  4 93  1  0  0  0
  4 94  1  0  0  0
  5  6  1  0  0  0
  5 26  1  0  0  0
  5 95  1  0  0  0
  6 25  1  0  0  0
  6 96  1  0  0  0
  6 97  1  0  0  0
  7  8  2  0  0  0
  7 26  1  0  0  0
  7 29  1  0  0  0
  8  9  1  0  0  0
  8 22  1  0  0  0
  9 10  1  0  0  0
  9 27  2  0  0  0
 10 11  2  0  0  0
 10 15  1  0  0  0
 11 12  1  0  0  0
 11 98  1  0  0  0
 12 13  2  0  0  0
 12 99  1  0  0  0
 13 14  1  0  0  0
 13 31  1  0  0  0
 14 15  2  0  0  0
 14100  1  0  0  0
 15101  1  0  0  0
 16 17  2  0  0  0
 16 21  1  0  0  0
 16 31  1  0  0  0
 17 18  1  0  0  0
 17102  1  0  0  0
 18 19  2  0  0  0
 18103  1  0  0  0
 19 20  1  0  0  0
 19 24  1  0  0  0
 20 21  2  0  0  0
 20104  1  0  0  0
 21 23  1  0  0  0
 22 28  1  0  0  0
 22 32  2  0  0  0
 26 27  1  0  0  0
 28105  1  0  0  0
 28106  1  0  0  0
 29107  1  0  0  0
 29108  1  0  0  0
 33 34  1  0  0  0
 33 66  1  0  0  0
 33 70  2  0  0  0
 34 36  1  0  0  0
 34 59  1  0  0  0
 34109  1  0  0  0
 35 44  2  0  0  0
 35 45  1  0  0  0
 35 68  1  0  0  0
 36 56  1  0  0  0
 36110  1  0  0  0
 37 39  1  0  0  0
 37 47  1  0  0  0
 37 66  1  0  0  0
 37111  1  0  0  0
 38 43  2  0  0  0
 38 46  1  0  0  0
 38 47  1  0  0  0
 39 64  1  0  0  0
 39 67  2  0  0  0
 40 52  1  0  0  0
 40 53  2  0  0  0
 40 58  1  0  0  0
 41112  1  0  0  0
 41113  1  0  0  0
 41114  1  0  0  0
 41 48  1  0  0  0
 42 43  1  0  0  0
 42 66  1  0  0  0
 42115  1  0  0  0
 42116  1  0  0  0
 43 44  1  0  0  0
 44117  1  0  0  0
 45 46  2  0  0  0
 45118  1  0  0  0
 46119  1  0  0  0
 47120  1  0  0  0
 47121  1  0  0  0
 48 56  1  0  0  0
 48 65  1  0  0  0
 48122  1  0  0  0
 49 50  1  0  0  0
 49 53  1  0  0  0
 49 64  1  0  0  0
 49123  1  0  0  0
 50 51  1  0  0  0
 50124  1  0  0  0
 50125  1  0  0  0
 51 52  1  0  0  0
 51126  1  0  0  0
 51127  1  0  0  0
 52128  1  0  0  0
 52129  1  0  0  0
 53 54  1  0  0  0
 54 55  2  0  0  0
 54130  1  0  0  0
 55 57  1  0  0  0
 55131  1  0  0  0
 56 69  2  0  0  0
 57 58  2  0  0  0
 57132  1  0  0  0
 58133  1  0  0  0
 59 60  1  0  0  0
 59 61  1  0  0  0
 59 62  1  0  0  0
 60134  1  0  0  0
 60135  1  0  0  0
 60136  1  0  0  0
 61137  1  0  0  0
 61138  1  0  0  0
 61139  1  0  0  0
 62140  1  0  0  0
 62141  1  0  0  0
 62142  1  0  0  0
 63 65  1  0  0  0
 63143  1  0  0  0
 63144  1  0  0  0
 63145  1  0  0  0
 64146  1  0  0  0
 65147  1  0  0  0
 68 82  1  0  0  0
 71 73  1  0  0  0
 71 74  2  0  0  0
 71148  1  0  0  0
 72 73  2  0  0  0
 72 88  1  0  0  0
 72149  1  0  0  0
 73 80  1  0  0  0
 74 84  1  0  0  0
 74 88  1  0  0  0
 75 76  1  0  0  0
 75 77  1  0  0  0
 75150  1  0  0  0
 75151  1  0  0  0
 76 78  1  0  0  0
 76152  1  0  0  0
 76153  1  0  0  0
 77 79  1  0  0  0
 77154  1  0  0  0
 77155  1  0  0  0
 78 80  1  0  0  0
 78156  1  0  0  0
 78157  1  0  0  0
 79 80  1  0  0  0
 79158  1  0  0  0
 79159  1  0  0  0
 80 85  1  0  0  0
 81 83  1  0  0  0
 81 85  1  0  0  0
 81160  1  0  0  0
 81161  1  0  0  0
 82 83  1  0  0  0
 82162  1  0  0  0
 82163  1  0  0  0
 83 86  1  0  0  0
 83 87  1  0  0  0
 84164  1  0  0  0
 85165  1  0  0  0
M  ISO  4   1 100  68 101  82 101  84 100
M  END
> <chiral flag>
0

> <version>
0

> <s_m_source_file>
/data/baiqing/PycharmProjects/Reinvent-master-3.2/result/LINK_invent/BTK/process_docking_weight1_custom_product_contain_oxygen_bond_distance_aromatic_linkinvent_7_9_3/rearranged_h_0155.sdf

> <i_m_source_file_index>
27

> <r_mmod_Potential_Energy-OPLS-2005>
-10.2930774688721

> <r_mmod_Stretch_Energy-OPLS-2005>
64.6578674316406

> <r_mmod_Bend_Energy-OPLS-2005>
158.471328735352

> <r_mmod_Torsional_Energy-OPLS-2005>
255.744216918945

> <r_mmod_Improper_Torsional_Energy-OPLS-2005>
3.03859376907349

> <r_mmod_Van_der_Waal_Energy-OPLS-2005>
133.263778686523

> <r_mmod_Electrostatic_Energy-OPLS-2005>
-447.706237792969

> <r_mmod_Solvation_Energy-OPLS-2005>
-206.453277587891

> <b_mmod_Minimization_Converged-OPLS-2005>
0

> <r_mmod_RMS_Derivative-OPLS-2005>
2.64350652694702

$$$$
27
                    3D
 Structure written by MMmdl.
157166  0  0  1  0            999 V2000
  -30.6455  -14.8101   20.4129 C   0  0  0  0  0  0
  -30.4394  -12.4906   19.4765 C   0  0  0  0  0  0
  -29.5162  -12.5255   18.2406 C   0  0  0  0  0  0
  -28.0453  -12.3368   18.6552 C   0  0  0  0  0  0
  -27.6473  -13.2436   19.8487 C   0  0  2  0  0  0
  -28.7033  -13.2226   20.9799 C   0  0  0  0  0  0
  -25.2533  -13.8231   20.5657 C   0  0  0  0  0  0
  -24.1836  -13.0466   20.9181 C   0  0  0  0  0  0
  -24.6447  -11.6953   20.8708 C   0  0  0  0  0  0
  -23.9097  -10.4321   21.0362 C   0  0  0  0  0  0
  -24.3634   -9.4244   21.9159 C   0  0  0  0  0  0
  -23.6328   -8.2267   22.0728 C   0  0  0  0  0  0
  -22.4319   -8.0285   21.3517 C   0  0  0  0  0  0
  -21.9925   -9.0267   20.4638 C   0  0  0  0  0  0
  -22.7253  -10.2153   20.3045 C   0  0  0  0  0  0
  -21.6877   -6.0731   22.5275 C   0  0  0  0  0  0
  -21.4054   -6.5629   23.8213 C   0  0  0  0  0  0
  -21.3666   -5.6782   24.9161 C   0  0  0  0  0  0
  -21.6041   -4.3036   24.7212 C   0  0  0  0  0  0
  -21.8829   -3.8131   23.4332 C   0  0  0  0  0  0
  -21.9211   -4.6948   22.3395 C   0  0  0  0  0  0
  -22.7834  -13.5219   21.1821 C   0  0  0  0  0  0
  -22.1662   -4.2138   21.0966 F   0  0  0  0  0  0
  -21.5614   -3.4513   25.7723 F   0  0  0  0  0  0
  -30.0021  -13.5811   20.3844 N   0  0  0  0  0  0
  -26.2996  -12.9462   20.3293 N   0  0  0  0  0  0
  -25.9403  -11.6589   20.5764 N   0  0  0  0  0  0
  -22.0495  -12.8255   22.0419 N   0  0  0  0  0  0
  -25.4142  -15.1973   20.4003 N   0  0  0  0  0  0
  -31.8425  -14.8539   20.1165 O   0  0  0  0  0  0
  -21.6690   -6.8872   21.4230 O   0  0  0  0  0  0
  -22.3484  -14.5473   20.6607 O   0  0  0  0  0  0
  -24.6402  -31.8531   23.1933 C   0  0  0  0  0  0
  -25.9159  -32.4768   23.8348 C   0  0  1  0  0  0
  -27.2181  -27.2238   20.1113 C   0  0  0  0  0  0
  -25.5874  -33.8546   24.2276 N   0  0  0  0  0  0
  -23.4429  -30.4752   21.5399 C   0  0  2  0  0  0
  -24.8886  -28.9219   20.1056 C   0  0  0  0  0  0
  -22.7579  -29.4596   22.4878 C   0  0  0  0  0  0
  -18.0296  -28.1408   22.8498 C   0  0  0  0  0  0
  -24.1466  -36.7281   23.2659 C   0  0  0  0  0  0
  -25.9948  -30.7560   21.3743 C   0  0  0  0  0  0
  -26.0647  -29.3729   20.7157 C   0  0  0  0  0  0
  -27.2327  -28.5388   20.7039 C   0  0  0  0  0  0
  -26.0136  -26.8506   19.4726 C   0  0  0  0  0  0
  -24.8687  -27.6725   19.4697 C   0  0  0  0  0  0
  -23.6616  -29.8103   20.1571 C   0  0  0  0  0  0
  -25.4081  -36.3080   24.0375 C   0  0  1  0  0  0
  -20.5923  -28.3733   23.1229 C   0  0  2  0  0  0
  -20.6756  -26.9409   22.5411 C   0  0  0  0  0  0
  -19.5720  -26.6382   21.5222 C   0  0  0  0  0  0
  -18.1924  -26.7950   22.1655 C   0  0  0  0  0  0
  -19.1573  -28.8885   23.2892 C   0  0  0  0  0  0
  -18.9461  -30.1463   23.8960 C   0  0  0  0  0  0
  -17.6464  -30.6607   24.0538 C   0  0  0  0  0  0
  -25.9039  -34.9446   23.5153 C   0  0  0  0  0  0
  -16.5351  -29.9108   23.6288 C   0  0  0  0  0  0
  -16.7296  -28.6506   23.0366 C   0  0  0  0  0  0
  -26.4427  -31.6602   25.0776 C   0  0  0  0  0  0
  -25.3585  -31.3748   26.1466 C   0  0  0  0  0  0
  -27.0253  -30.3034   24.6235 C   0  0  0  0  0  0
  -27.6042  -32.4316   25.7504 C   0  0  0  0  0  0
  -27.5569  -37.1780   24.8461 C   0  0  0  0  0  0
  -21.4281  -29.3073   22.3608 N   0  0  0  0  0  0
  -26.4260  -37.3775   23.9441 N   0  0  0  0  0  0
  -24.7143  -31.0462   22.0927 N   0  0  0  0  0  0
  -23.4259  -28.8114   23.2988 O   0  0  0  0  0  0
  -28.2966  -26.2966   20.1698 O   0  0  0  0  0  0
  -26.5642  -34.8914   22.4749 O   0  0  0  0  0  0
  -23.5535  -32.1360   23.7182 O   0  0  0  0  0  0
  -31.3315  -17.9186   19.8319 C   0  0  0  0  0  0
  -31.1242  -19.3460   19.7488 C   0  0  0  0  0  0
  -29.8722  -19.6785   20.2087 C   0  0  0  0  0  0
  -30.1759  -17.3656   20.3450 C   0  0  0  0  0  0
  -29.3456  -23.2162   21.5839 C   0  0  0  0  0  0
  -30.0124  -21.8138   21.5683 C   0  0  0  0  0  0
  -28.8361  -22.0850   19.5732 C   0  0  0  0  0  0
  -29.1393  -23.5935   20.1099 C   0  0  1  0  0  0
  -30.9681  -25.1775   19.7356 C   0  0  0  0  0  0
  -28.0735  -24.8252   19.8357 C   0  0  0  0  0  0
  -29.3547  -21.0238   20.5274 N   0  0  0  0  0  0
  -29.9015  -15.9864   20.5774 N   0  0  0  0  0  0
  -29.2751  -18.4494   20.6039 O   0  0  0  0  0  0
  -30.4042  -23.8886   19.5030 O   0  0  0  0  0  0
  -32.0584  -20.2367   19.3296 F   0  0  0  0  0  0
  -31.4789  -12.5917   19.1636 H   0  0  0  0  0  0
  -30.3735  -11.5235   19.9756 H   0  0  0  0  0  0
  -29.8119  -11.7543   17.5290 H   0  0  0  0  0  0
  -29.6261  -13.4814   17.7251 H   0  0  0  0  0  0
  -27.9017  -11.2875   18.9174 H   0  0  0  0  0  0
  -27.3904  -12.5252   17.8045 H   0  0  0  0  0  0
  -27.6269  -14.2582   19.4516 H   0  0  0  0  0  0
  -28.7560  -12.2390   21.4514 H   0  0  0  0  0  0
  -28.4381  -13.9243   21.7711 H   0  0  0  0  0  0
  -25.2790   -9.5734   22.4709 H   0  0  0  0  0  0
  -24.0065   -7.4662   22.7457 H   0  0  0  0  0  0
  -21.0841   -8.8786   19.8966 H   0  0  0  0  0  0
  -22.3709  -10.9668   19.6126 H   0  0  0  0  0  0
  -21.2077   -7.6149   23.9713 H   0  0  0  0  0  0
  -21.1461   -6.0502   25.9070 H   0  0  0  0  0  0
  -22.0612   -2.7600   23.2845 H   0  0  0  0  0  0
  -22.4184  -11.9989   22.4867 H   0  0  0  0  0  0
  -21.1088  -13.1206   22.2562 H   0  0  0  0  0  0
  -24.6316  -15.8383   20.4972 H   0  0  0  0  0  0
  -26.2503  -15.6449   20.0435 H   0  0  0  0  0  0
  -26.7282  -32.5414   23.1147 H   0  0  0  0  0  0
  -24.9787  -33.9623   25.0252 H   0  0  0  0  0  0
  -22.7476  -31.3042   21.3889 H   0  0  0  0  0  0
  -23.3760  -35.9577   23.3277 H   0  0  0  0  0  0
  -24.3572  -36.8934   22.2085 H   0  0  0  0  0  0
  -23.7171  -37.6459   23.6683 H   0  0  0  0  0  0
  -26.1290  -31.5092   20.5960 H   0  0  0  0  0  0
  -26.8801  -30.8174   21.9967 H   0  0  0  0  0  0
  -28.1316  -28.8789   21.1985 H   0  0  0  0  0  0
  -25.9171  -25.8934   18.9829 H   0  0  0  0  0  0
  -23.9691  -27.3331   18.9750 H   0  0  0  0  0  0
  -23.7746  -30.5845   19.3970 H   0  0  0  0  0  0
  -22.7849  -29.2329   19.8628 H   0  0  0  0  0  0
  -25.1246  -36.1937   25.0871 H   0  0  0  0  0  0
  -21.0061  -28.3311   24.1330 H   0  0  0  0  0  0
  -20.5579  -26.2336   23.3644 H   0  0  0  0  0  0
  -21.6608  -26.7336   22.1214 H   0  0  0  0  0  0
  -19.6812  -25.6284   21.1259 H   0  0  0  0  0  0
  -19.6653  -27.3174   20.6748 H   0  0  0  0  0  0
  -17.4150  -26.6725   21.4095 H   0  0  0  0  0  0
  -18.0312  -26.0118   22.9084 H   0  0  0  0  0  0
  -19.7925  -30.7243   24.2435 H   0  0  0  0  0  0
  -17.4994  -31.6290   24.5110 H   0  0  0  0  0  0
  -15.5351  -30.3020   23.7560 H   0  0  0  0  0  0
  -15.8695  -28.0804   22.7107 H   0  0  0  0  0  0
  -24.5783  -30.7088   25.7741 H   0  0  0  0  0  0
  -24.8688  -32.2884   26.4872 H   0  0  0  0  0  0
  -25.7814  -30.8911   27.0284 H   0  0  0  0  0  0
  -26.2814  -29.6853   24.1192 H   0  0  0  0  0  0
  -27.3885  -29.7246   25.4739 H   0  0  0  0  0  0
  -27.8712  -30.4395   23.9498 H   0  0  0  0  0  0
  -27.2740  -33.3653   26.2083 H   0  0  0  0  0  0
  -28.3782  -32.6834   25.0234 H   0  0  0  0  0  0
  -28.0774  -31.8421   26.5379 H   0  0  0  0  0  0
  -28.2571  -38.0093   24.7523 H   0  0  0  0  0  0
  -28.1078  -36.2628   24.6233 H   0  0  0  0  0  0
  -27.2296  -37.1356   25.8865 H   0  0  0  0  0  0
  -20.9493  -29.8843   21.6819 H   0  0  0  0  0  0
  -26.0165  -38.2853   24.1452 H   0  0  0  0  0  0
  -32.2298  -17.3832   19.5568 H   0  0  0  0  0  0
  -29.9243  -23.9512   22.1393 H   0  0  0  0  0  0
  -28.3735  -23.1436   22.0741 H   0  0  0  0  0  0
  -29.9507  -21.3371   22.5482 H   0  0  0  0  0  0
  -31.0710  -21.9207   21.3192 H   0  0  0  0  0  0
  -29.2087  -21.9351   18.5591 H   0  0  0  0  0  0
  -27.7528  -21.9558   19.5240 H   0  0  0  0  0  0
  -32.0164  -25.1684   19.4397 H   0  0  0  0  0  0
  -30.9160  -25.4905   20.7788 H   0  0  0  0  0  0
  -30.4909  -25.9404   19.1219 H   0  0  0  0  0  0
  -27.1503  -24.5203   20.3315 H   0  0  0  0  0  0
  -27.8421  -24.7958   18.7721 H   0  0  0  0  0  0
  -28.9516  -15.7984   20.8548 H   0  0  0  0  0  0
  1 25  1  0  0  0
  1 30  2  0  0  0
  1 82  1  0  0  0
  2  3  1  0  0  0
  2 25  1  0  0  0
  2 86  1  0  0  0
  2 87  1  0  0  0
  3  4  1  0  0  0
  3 88  1  0  0  0
  3 89  1  0  0  0
  4  5  1  0  0  0
  4 90  1  0  0  0
  4 91  1  0  0  0
  5  6  1  0  0  0
  5 26  1  0  0  0
  5 92  1  0  0  0
  6 25  1  0  0  0
  6 93  1  0  0  0
  6 94  1  0  0  0
  7  8  2  0  0  0
  7 26  1  0  0  0
  7 29  1  0  0  0
  8  9  1  0  0  0
  8 22  1  0  0  0
  9 10  1  0  0  0
  9 27  2  0  0  0
 10 11  2  0  0  0
 10 15  1  0  0  0
 11 12  1  0  0  0
 11 95  1  0  0  0
 12 13  2  0  0  0
 12 96  1  0  0  0
 13 14  1  0  0  0
 13 31  1  0  0  0
 14 15  2  0  0  0
 14 97  1  0  0  0
 15 98  1  0  0  0
 16 17  2  0  0  0
 16 21  1  0  0  0
 16 31  1  0  0  0
 17 18  1  0  0  0
 17 99  1  0  0  0
 18 19  2  0  0  0
 18100  1  0  0  0
 19 20  1  0  0  0
 19 24  1  0  0  0
 20 21  2  0  0  0
 20101  1  0  0  0
 21 23  1  0  0  0
 22 28  1  0  0  0
 22 32  2  0  0  0
 26 27  1  0  0  0
 28102  1  0  0  0
 28103  1  0  0  0
 29104  1  0  0  0
 29105  1  0  0  0
 33 34  1  0  0  0
 33 66  1  0  0  0
 33 70  2  0  0  0
 34 36  1  0  0  0
 34 59  1  0  0  0
 34106  1  0  0  0
 35 44  2  0  0  0
 35 45  1  0  0  0
 35 68  1  0  0  0
 36 56  1  0  0  0
 36107  1  0  0  0
 37 39  1  0  0  0
 37 47  1  0  0  0
 37 66  1  0  0  0
 37108  1  0  0  0
 38 43  2  0  0  0
 38 46  1  0  0  0
 38 47  1  0  0  0
 39 64  1  0  0  0
 39 67  2  0  0  0
 40 52  1  0  0  0
 40 53  2  0  0  0
 40 58  1  0  0  0
 41109  1  0  0  0
 41110  1  0  0  0
 41111  1  0  0  0
 41 48  1  0  0  0
 42 43  1  0  0  0
 42 66  1  0  0  0
 42112  1  0  0  0
 42113  1  0  0  0
 43 44  1  0  0  0
 44114  1  0  0  0
 45 46  2  0  0  0
 45115  1  0  0  0
 46116  1  0  0  0
 47117  1  0  0  0
 47118  1  0  0  0
 48 56  1  0  0  0
 48 65  1  0  0  0
 48119  1  0  0  0
 49 50  1  0  0  0
 49 53  1  0  0  0
 49 64  1  0  0  0
 49120  1  0  0  0
 50 51  1  0  0  0
 50121  1  0  0  0
 50122  1  0  0  0
 51 52  1  0  0  0
 51123  1  0  0  0
 51124  1  0  0  0
 52125  1  0  0  0
 52126  1  0  0  0
 53 54  1  0  0  0
 54 55  2  0  0  0
 54127  1  0  0  0
 55 57  1  0  0  0
 55128  1  0  0  0
 56 69  2  0  0  0
 57 58  2  0  0  0
 57129  1  0  0  0
 58130  1  0  0  0
 59 60  1  0  0  0
 59 61  1  0  0  0
 59 62  1  0  0  0
 60131  1  0  0  0
 60132  1  0  0  0
 60133  1  0  0  0
 61134  1  0  0  0
 61135  1  0  0  0
 61136  1  0  0  0
 62137  1  0  0  0
 62138  1  0  0  0
 62139  1  0  0  0
 63 65  1  0  0  0
 63140  1  0  0  0
 63141  1  0  0  0
 63142  1  0  0  0
 64143  1  0  0  0
 65144  1  0  0  0
 68 80  1  0  0  0
 71 72  1  0  0  0
 71 74  2  0  0  0
 71145  1  0  0  0
 72 73  2  0  0  0
 72 85  1  0  0  0
 73 81  1  0  0  0
 73 83  1  0  0  0
 74 82  1  0  0  0
 74 83  1  0  0  0
 75 76  1  0  0  0
 75 78  1  0  0  0
 75146  1  0  0  0
 75147  1  0  0  0
 76 81  1  0  0  0
 76148  1  0  0  0
 76149  1  0  0  0
 77 78  1  0  0  0
 77 81  1  0  0  0
 77150  1  0  0  0
 77151  1  0  0  0
 78 80  1  0  0  0
 78 84  1  0  0  0
 79 84  1  0  0  0
 79152  1  0  0  0
 79153  1  0  0  0
 79154  1  0  0  0
 80155  1  0  0  0
 80156  1  0  0  0
 82157  1  0  0  0
M  ISO  4   1 100  68 101  80 101  82 100
M  END
> <chiral flag>
0

> <version>
0

> <s_m_source_file>
/data/baiqing/PycharmProjects/Reinvent-master-3.2/result/LINK_invent/BTK/process_docking_weight1_custom_product_contain_oxygen_bond_distance_aromatic_linkinvent_7_9_3/rearranged_h_0155.sdf

> <i_m_source_file_index>
28

> <r_mmod_Potential_Energy-OPLS-2005>
402.717926025391

> <r_mmod_Stretch_Energy-OPLS-2005>
156.878845214844

> <r_mmod_Bend_Energy-OPLS-2005>
246.503082275391

> <r_mmod_Torsional_Energy-OPLS-2005>
307.755767822266

> <r_mmod_Improper_Torsional_Energy-OPLS-2005>
9.49547672271729

> <r_mmod_Van_der_Waal_Energy-OPLS-2005>
119.91854095459

> <r_mmod_Electrostatic_Energy-OPLS-2005>
-322.883483886719

> <r_mmod_Solvation_Energy-OPLS-2005>
-228.728668212891

> <b_mmod_Minimization_Converged-OPLS-2005>
0

> <r_mmod_RMS_Derivative-OPLS-2005>
5.17732524871826

$$$$
28
                    3D
 Structure written by MMmdl.
167176  0  0  1  0            999 V2000
  -30.5039  -14.8270   20.4707 C   0  0  0  0  0  0
  -30.4646  -12.5107   19.4668 C   0  0  0  0  0  0
  -29.5227  -12.5260   18.2375 C   0  0  0  0  0  0
  -28.0497  -12.3236   18.6524 C   0  0  0  0  0  0
  -27.6468  -13.2163   19.8535 C   0  0  2  0  0  0
  -28.6949  -13.1238   20.9855 C   0  0  0  0  0  0
  -25.2550  -13.8145   20.5665 C   0  0  0  0  0  0
  -24.1832  -13.0421   20.9221 C   0  0  0  0  0  0
  -24.6398  -11.6891   20.8756 C   0  0  0  0  0  0
  -23.9063  -10.4282   21.0416 C   0  0  0  0  0  0
  -24.3613   -9.4196   21.9190 C   0  0  0  0  0  0
  -23.6289   -8.2232   22.0756 C   0  0  0  0  0  0
  -22.4271   -8.0274   21.3544 C   0  0  0  0  0  0
  -21.9907   -9.0250   20.4648 C   0  0  0  0  0  0
  -22.7237  -10.2129   20.3062 C   0  0  0  0  0  0
  -21.6848   -6.0733   22.5280 C   0  0  0  0  0  0
  -21.4014   -6.5639   23.8214 C   0  0  0  0  0  0
  -21.3659   -5.6793   24.9176 C   0  0  0  0  0  0
  -21.6043   -4.3055   24.7227 C   0  0  0  0  0  0
  -21.8820   -3.8145   23.4348 C   0  0  0  0  0  0
  -21.9192   -4.6961   22.3402 C   0  0  0  0  0  0
  -22.7856  -13.5223   21.1874 C   0  0  0  0  0  0
  -22.1660   -4.2147   21.0981 F   0  0  0  0  0  0
  -21.5628   -3.4539   25.7739 F   0  0  0  0  0  0
  -29.9880  -13.5434   20.4166 N   0  0  0  0  0  0
  -26.2960  -12.9315   20.3262 N   0  0  0  0  0  0
  -25.9321  -11.6480   20.5745 N   0  0  0  0  0  0
  -22.0490  -12.8218   22.0423 N   0  0  0  0  0  0
  -25.4241  -15.1863   20.3999 N   0  0  0  0  0  0
  -31.6771  -15.0372   20.1410 O   0  0  0  0  0  0
  -21.6636   -6.8873   21.4240 O   0  0  0  0  0  0
  -22.3552  -14.5531   20.6714 O   0  0  0  0  0  0
  -24.6350  -31.8507   23.1918 C   0  0  0  0  0  0
  -25.9153  -32.4734   23.8291 C   0  0  1  0  0  0
  -27.2330  -27.2226   20.1494 C   0  0  0  0  0  0
  -25.5931  -33.8536   24.2220 N   0  0  0  0  0  0
  -23.4355  -30.4678   21.5360 C   0  0  2  0  0  0
  -24.8866  -28.8980   20.1180 C   0  0  0  0  0  0
  -22.7529  -29.4570   22.4896 C   0  0  0  0  0  0
  -18.0301  -28.1387   22.8482 C   0  0  0  0  0  0
  -24.1489  -36.7283   23.2640 C   0  0  0  0  0  0
  -25.9824  -30.7524   21.3749 C   0  0  0  0  0  0
  -26.0590  -29.3674   20.7242 C   0  0  0  0  0  0
  -27.2366  -28.5461   20.7184 C   0  0  0  0  0  0
  -26.0357  -26.8185   19.5245 C   0  0  0  0  0  0
  -24.8821  -27.6330   19.5050 C   0  0  0  0  0  0
  -23.6587  -29.7912   20.1567 C   0  0  0  0  0  0
  -25.4118  -36.3061   24.0318 C   0  0  1  0  0  0
  -20.5906  -28.3701   23.1263 C   0  0  2  0  0  0
  -20.6786  -26.9411   22.5412 C   0  0  0  0  0  0
  -19.5763  -26.6378   21.5212 C   0  0  0  0  0  0
  -18.1941  -26.7927   22.1620 C   0  0  0  0  0  0
  -19.1555  -28.8861   23.2865 C   0  0  0  0  0  0
  -18.9474  -30.1460   23.8883 C   0  0  0  0  0  0
  -17.6471  -30.6584   24.0558 C   0  0  0  0  0  0
  -25.9059  -34.9430   23.5076 C   0  0  0  0  0  0
  -16.5364  -29.9083   23.6326 C   0  0  0  0  0  0
  -16.7286  -28.6503   23.0346 C   0  0  0  0  0  0
  -26.4504  -31.6579   25.0704 C   0  0  0  0  0  0
  -25.3704  -31.3743   26.1409 C   0  0  0  0  0  0
  -27.0364  -30.2995   24.6213 C   0  0  0  0  0  0
  -27.6050  -32.4336   25.7480 C   0  0  0  0  0  0
  -27.5579  -37.1795   24.8462 C   0  0  0  0  0  0
  -21.4232  -29.3044   22.3649 N   0  0  0  0  0  0
  -26.4292  -37.3762   23.9403 N   0  0  0  0  0  0
  -24.7038  -31.0430   22.0911 N   0  0  0  0  0  0
  -23.4209  -28.8114   23.3015 O   0  0  0  0  0  0
  -28.3424  -26.3362   20.1327 O   0  0  0  0  0  0
  -26.5641  -34.8913   22.4652 O   0  0  0  0  0  0
  -23.5492  -32.1352   23.7185 O   0  0  0  0  0  0
  -27.4954  -18.7381   21.8375 C   0  0  0  0  0  0
  -28.1555  -19.9221   21.4667 C   0  0  0  0  0  0
  -28.0364  -17.4710   21.5502 C   0  0  0  0  0  0
  -29.9159  -18.5362   20.4629 C   0  0  0  0  0  0
  -29.3632  -19.8872   20.7476 C   0  0  0  0  0  0
  -29.2695  -17.2851   20.8812 C   0  0  0  0  0  0
  -30.1226  -21.2257   20.5725 C   0  0  0  0  0  0
  -30.9811  -24.7699   19.3202 C   0  0  0  0  0  0
  -28.7870  -23.8568   18.3615 C   0  0  0  0  0  0
  -31.0817  -23.4382   20.0931 C   0  0  0  0  0  0
  -30.0199  -24.7501   18.1189 C   0  0  2  0  0  0
  -28.5693  -23.4933   19.8521 C   0  0  2  0  0  0
  -27.2731  -22.6606   19.8972 C   0  0  0  0  0  0
  -28.2600  -24.9138   20.6740 C   0  0  0  0  0  0
  -29.8228  -22.6090   20.2488 N   0  0  0  0  0  0
  -29.5468  -15.8095   20.7300 N   0  0  0  0  0  0
  -31.3969  -20.9567   20.8783 N   0  3  0  0  0  0
  -30.6892  -24.3720   16.9219 O   0  0  0  0  0  0
  -31.4938  -12.6969   19.1561 H   0  0  0  0  0  0
  -30.4668  -11.5279   19.9411 H   0  0  0  0  0  0
  -29.8193  -11.7549   17.5250 H   0  0  0  0  0  0
  -29.6237  -13.4782   17.7141 H   0  0  0  0  0  0
  -27.9224  -11.2733   18.9178 H   0  0  0  0  0  0
  -27.3880  -12.5049   17.8045 H   0  0  0  0  0  0
  -27.6410  -14.2385   19.4758 H   0  0  0  0  0  0
  -28.7570  -12.1044   21.3694 H   0  0  0  0  0  0
  -28.4095  -13.7417   21.8388 H   0  0  0  0  0  0
  -25.2755   -9.5669   22.4768 H   0  0  0  0  0  0
  -23.9996   -7.4619   22.7472 H   0  0  0  0  0  0
  -21.0839   -8.8769   19.8950 H   0  0  0  0  0  0
  -22.3696  -10.9671   19.6175 H   0  0  0  0  0  0
  -21.2011   -7.6148   23.9717 H   0  0  0  0  0  0
  -21.1480   -6.0523   25.9079 H   0  0  0  0  0  0
  -22.0600   -2.7608   23.2851 H   0  0  0  0  0  0
  -22.4098  -11.9875   22.4808 H   0  0  0  0  0  0
  -21.1108  -13.1250   22.2630 H   0  0  0  0  0  0
  -24.6259  -15.8103   20.4487 H   0  0  0  0  0  0
  -26.2092  -15.5945   19.9104 H   0  0  0  0  0  0
  -26.7218  -32.5371   23.1028 H   0  0  0  0  0  0
  -25.0067  -33.9662   25.0359 H   0  0  0  0  0  0
  -22.7340  -31.2903   21.3814 H   0  0  0  0  0  0
  -23.3752  -35.9613   23.3297 H   0  0  0  0  0  0
  -24.3576  -36.8924   22.2056 H   0  0  0  0  0  0
  -23.7244  -37.6480   23.6681 H   0  0  0  0  0  0
  -26.1197  -31.5067   20.5986 H   0  0  0  0  0  0
  -26.8600  -30.8103   22.0072 H   0  0  0  0  0  0
  -28.1406  -28.9088   21.1874 H   0  0  0  0  0  0
  -25.9890  -25.8483   19.0503 H   0  0  0  0  0  0
  -23.9857  -27.2686   19.0222 H   0  0  0  0  0  0
  -23.7885  -30.5628   19.3969 H   0  0  0  0  0  0
  -22.7769  -29.2260   19.8502 H   0  0  0  0  0  0
  -25.1301  -36.1901   25.0811 H   0  0  0  0  0  0
  -20.9994  -28.3282   24.1387 H   0  0  0  0  0  0
  -20.5687  -26.2305   23.3622 H   0  0  0  0  0  0
  -21.6652  -26.7428   22.1201 H   0  0  0  0  0  0
  -19.6918  -25.6285   21.1255 H   0  0  0  0  0  0
  -19.6701  -27.3177   20.6735 H   0  0  0  0  0  0
  -17.4212  -26.6681   21.4021 H   0  0  0  0  0  0
  -18.0335  -26.0068   22.9015 H   0  0  0  0  0  0
  -19.7948  -30.7283   24.2249 H   0  0  0  0  0  0
  -17.5023  -31.6259   24.5166 H   0  0  0  0  0  0
  -15.5364  -30.2977   23.7654 H   0  0  0  0  0  0
  -15.8690  -28.0819   22.7058 H   0  0  0  0  0  0
  -24.5886  -30.7087   25.7731 H   0  0  0  0  0  0
  -24.8878  -32.2914   26.4800 H   0  0  0  0  0  0
  -25.7993  -30.8943   27.0213 H   0  0  0  0  0  0
  -26.2960  -29.6729   24.1230 H   0  0  0  0  0  0
  -27.4036  -29.7277   25.4749 H   0  0  0  0  0  0
  -27.8835  -30.4277   23.9470 H   0  0  0  0  0  0
  -27.2655  -33.3654   26.2018 H   0  0  0  0  0  0
  -28.3872  -32.6874   25.0312 H   0  0  0  0  0  0
  -28.0701  -31.8489   26.5429 H   0  0  0  0  0  0
  -28.2586  -38.0102   24.7514 H   0  0  0  0  0  0
  -28.1088  -36.2633   24.6285 H   0  0  0  0  0  0
  -27.2298  -37.1437   25.8866 H   0  0  0  0  0  0
  -20.9433  -29.8773   21.6848 H   0  0  0  0  0  0
  -26.0170  -38.2835   24.1410 H   0  0  0  0  0  0
  -26.5677  -18.7975   22.3895 H   0  0  0  0  0  0
  -27.7510  -20.8615   21.8061 H   0  0  0  0  0  0
  -27.4706  -16.6130   21.8858 H   0  0  0  0  0  0
  -30.8611  -18.4654   19.9429 H   0  0  0  0  0  0
  -31.9770  -25.0648   18.9849 H   0  0  0  0  0  0
  -30.7119  -25.5634   20.0153 H   0  0  0  0  0  0
  -28.8829  -22.9287   17.7961 H   0  0  0  0  0  0
  -27.9052  -24.3523   17.9519 H   0  0  0  0  0  0
  -31.5278  -23.6254   21.0716 H   0  0  0  0  0  0
  -31.8165  -22.8730   19.5163 H   0  0  0  0  0  0
  -29.6794  -25.7753   17.9613 H   0  0  0  0  0  0
  -26.4781  -23.1426   19.3269 H   0  0  0  0  0  0
  -26.8908  -22.5666   20.9122 H   0  0  0  0  0  0
  -27.3999  -21.6677   19.4682 H   0  0  0  0  0  0
  -28.9277  -24.9149   21.5352 H   0  0  0  0  0  0
  -27.2759  -24.8314   21.1367 H   0  0  0  0  0  0
  -28.7127  -15.2907   20.9539 H   0  0  0  0  0  0
  -31.6200  -20.0224   21.1852 H   0  0  0  0  0  0
  -32.1112  -21.6600   20.9350 H   0  0  0  0  0  0
  -30.9975  -23.4751   17.0143 H   0  0  0  0  0  0
  1 25  1  0  0  0
  1 30  2  0  0  0
  1 86  1  0  0  0
  2  3  1  0  0  0
  2 25  1  0  0  0
  2 89  1  0  0  0
  2 90  1  0  0  0
  3  4  1  0  0  0
  3 91  1  0  0  0
  3 92  1  0  0  0
  4  5  1  0  0  0
  4 93  1  0  0  0
  4 94  1  0  0  0
  5  6  1  0  0  0
  5 26  1  0  0  0
  5 95  1  0  0  0
  6 25  1  0  0  0
  6 96  1  0  0  0
  6 97  1  0  0  0
  7  8  2  0  0  0
  7 26  1  0  0  0
  7 29  1  0  0  0
  8  9  1  0  0  0
  8 22  1  0  0  0
  9 10  1  0  0  0
  9 27  2  0  0  0
 10 11  2  0  0  0
 10 15  1  0  0  0
 11 12  1  0  0  0
 11 98  1  0  0  0
 12 13  2  0  0  0
 12 99  1  0  0  0
 13 14  1  0  0  0
 13 31  1  0  0  0
 14 15  2  0  0  0
 14100  1  0  0  0
 15101  1  0  0  0
 16 17  2  0  0  0
 16 21  1  0  0  0
 16 31  1  0  0  0
 17 18  1  0  0  0
 17102  1  0  0  0
 18 19  2  0  0  0
 18103  1  0  0  0
 19 20  1  0  0  0
 19 24  1  0  0  0
 20 21  2  0  0  0
 20104  1  0  0  0
 21 23  1  0  0  0
 22 28  1  0  0  0
 22 32  2  0  0  0
 26 27  1  0  0  0
 28105  1  0  0  0
 28106  1  0  0  0
 29107  1  0  0  0
 29108  1  0  0  0
 33 34  1  0  0  0
 33 66  1  0  0  0
 33 70  2  0  0  0
 34 36  1  0  0  0
 34 59  1  0  0  0
 34109  1  0  0  0
 35 44  2  0  0  0
 35 45  1  0  0  0
 35 68  1  0  0  0
 36 56  1  0  0  0
 36110  1  0  0  0
 37 39  1  0  0  0
 37 47  1  0  0  0
 37 66  1  0  0  0
 37111  1  0  0  0
 38 43  2  0  0  0
 38 46  1  0  0  0
 38 47  1  0  0  0
 39 64  1  0  0  0
 39 67  2  0  0  0
 40 52  1  0  0  0
 40 53  2  0  0  0
 40 58  1  0  0  0
 41112  1  0  0  0
 41113  1  0  0  0
 41114  1  0  0  0
 41 48  1  0  0  0
 42 43  1  0  0  0
 42 66  1  0  0  0
 42115  1  0  0  0
 42116  1  0  0  0
 43 44  1  0  0  0
 44117  1  0  0  0
 45 46  2  0  0  0
 45118  1  0  0  0
 46119  1  0  0  0
 47120  1  0  0  0
 47121  1  0  0  0
 48 56  1  0  0  0
 48 65  1  0  0  0
 48122  1  0  0  0
 49 50  1  0  0  0
 49 53  1  0  0  0
 49 64  1  0  0  0
 49123  1  0  0  0
 50 51  1  0  0  0
 50124  1  0  0  0
 50125  1  0  0  0
 51 52  1  0  0  0
 51126  1  0  0  0
 51127  1  0  0  0
 52128  1  0  0  0
 52129  1  0  0  0
 53 54  1  0  0  0
 54 55  2  0  0  0
 54130  1  0  0  0
 55 57  1  0  0  0
 55131  1  0  0  0
 56 69  2  0  0  0
 57 58  2  0  0  0
 57132  1  0  0  0
 58133  1  0  0  0
 59 60  1  0  0  0
 59 61  1  0  0  0
 59 62  1  0  0  0
 60134  1  0  0  0
 60135  1  0  0  0
 60136  1  0  0  0
 61137  1  0  0  0
 61138  1  0  0  0
 61139  1  0  0  0
 62140  1  0  0  0
 62141  1  0  0  0
 62142  1  0  0  0
 63 65  1  0  0  0
 63143  1  0  0  0
 63144  1  0  0  0
 63145  1  0  0  0
 64146  1  0  0  0
 65147  1  0  0  0
 68 84  1  0  0  0
 71 72  2  0  0  0
 71 73  1  0  0  0
 71148  1  0  0  0
 72 75  1  0  0  0
 72149  1  0  0  0
 73 76  2  0  0  0
 73150  1  0  0  0
 74 75  2  0  0  0
 74 76  1  0  0  0
 74151  1  0  0  0
 75 77  1  0  0  0
 76 86  1  0  0  0
 77 85  1  0  0  0
 77 87  2  0  0  0
 78 80  1  0  0  0
 78 81  1  0  0  0
 78152  1  0  0  0
 78153  1  0  0  0
 79 81  1  0  0  0
 79 82  1  0  0  0
 79154  1  0  0  0
 79155  1  0  0  0
 80 85  1  0  0  0
 80156  1  0  0  0
 80157  1  0  0  0
 81 88  1  0  0  0
 81158  1  0  0  0
 82 83  1  0  0  0
 82 84  1  0  0  0
 82 85  1  0  0  0
 83159  1  0  0  0
 83160  1  0  0  0
 83161  1  0  0  0
 84162  1  0  0  0
 84163  1  0  0  0
 86164  1  0  0  0
 87165  1  0  0  0
 87166  1  0  0  0
 88167  1  0  0  0
M  CHG  1  87   1
M  ISO  4   1 100  68 101  84 101  86 100
M  END
> <chiral flag>
0

> <version>
0

> <s_m_source_file>
/data/baiqing/PycharmProjects/Reinvent-master-3.2/result/LINK_invent/BTK/process_docking_weight1_custom_product_contain_oxygen_bond_distance_aromatic_linkinvent_7_9_3/rearranged_h_0155.sdf

> <i_m_source_file_index>
29

> <r_mmod_Potential_Energy-OPLS-2005>
371.443298339844

> <r_mmod_Stretch_Energy-OPLS-2005>
201.439910888672

> <r_mmod_Bend_Energy-OPLS-2005>
347.761474609375

> <r_mmod_Torsional_Energy-OPLS-2005>
311.953277587891

> <r_mmod_Improper_Torsional_Energy-OPLS-2005>
8.10116863250732

> <r_mmod_Van_der_Waal_Energy-OPLS-2005>
164.499130249023

> <r_mmod_Electrostatic_Energy-OPLS-2005>
-351.870208740234

> <r_mmod_Solvation_Energy-OPLS-2005>
-428.264923095703

> <b_mmod_Minimization_Converged-OPLS-2005>
0

> <r_mmod_RMS_Derivative-OPLS-2005>
0.79687362909317

$$$$
29
                    3D
 Structure written by MMmdl.
154162  0  0  1  0            999 V2000
  -30.2934  -15.6542   20.3236 C   0  0  0  0  0  0
  -30.4224  -13.0957   19.5371 C   0  0  0  0  0  0
  -29.5495  -12.6589   18.3252 C   0  0  0  0  0  0
  -28.1249  -12.2991   18.7715 C   0  0  0  0  0  0
  -27.5942  -13.3101   19.8123 C   0  0  2  0  0  0
  -28.6097  -13.6511   20.9291 C   0  0  0  0  0  0
  -25.2315  -13.8289   20.5800 C   0  0  0  0  0  0
  -24.1708  -13.0433   20.9292 C   0  0  0  0  0  0
  -24.6414  -11.6945   20.8768 C   0  0  0  0  0  0
  -23.9120  -10.4292   21.0399 C   0  0  0  0  0  0
  -24.3653   -9.4204   21.9182 C   0  0  0  0  0  0
  -23.6313   -8.2247   22.0756 C   0  0  0  0  0  0
  -22.4294   -8.0289   21.3544 C   0  0  0  0  0  0
  -21.9940   -9.0265   20.4645 C   0  0  0  0  0  0
  -22.7287  -10.2135   20.3052 C   0  0  0  0  0  0
  -21.6857   -6.0741   22.5280 C   0  0  0  0  0  0
  -21.4018   -6.5643   23.8215 C   0  0  0  0  0  0
  -21.3659   -5.6794   24.9172 C   0  0  0  0  0  0
  -21.6043   -4.3058   24.7222 C   0  0  0  0  0  0
  -21.8819   -3.8149   23.4344 C   0  0  0  0  0  0
  -21.9194   -4.6968   22.3400 C   0  0  0  0  0  0
  -22.7720  -13.5162   21.1927 C   0  0  0  0  0  0
  -22.1662   -4.2152   21.0978 F   0  0  0  0  0  0
  -21.5626   -3.4542   25.7734 F   0  0  0  0  0  0
  -29.7794  -14.2808   20.2713 N   0  0  0  0  0  0
  -26.2765  -12.9625   20.3240 N   0  0  0  0  0  0
  -25.9359  -11.6694   20.5705 N   0  0  0  0  0  0
  -22.0384  -12.8136   22.0476 N   0  0  0  0  0  0
  -25.3904  -15.2030   20.4237 N   0  0  0  0  0  0
  -31.5280  -15.5904   20.1615 O   0  0  0  0  0  0
  -21.6651   -6.8889   21.4245 O   0  0  0  0  0  0
  -22.3390  -14.5459   20.6762 O   0  0  0  0  0  0
  -24.6864  -31.7957   23.1479 C   0  0  0  0  0  0
  -25.9430  -32.4446   23.8036 C   0  0  1  0  0  0
  -27.2266  -26.6760   20.2152 C   0  0  0  0  0  0
  -25.5996  -33.8274   24.1923 N   0  0  0  0  0  0
  -23.5139  -30.3968   21.5022 C   0  0  2  0  0  0
  -24.9709  -28.7317   20.1165 C   0  0  0  0  0  0
  -22.7784  -29.4294   22.4693 C   0  0  0  0  0  0
  -18.0342  -28.1432   22.8452 C   0  0  0  0  0  0
  -24.1491  -36.7146   23.2656 C   0  0  0  0  0  0
  -26.0951  -30.5208   21.4152 C   0  0  0  0  0  0
  -26.1602  -29.0825   20.7660 C   0  0  0  0  0  0
  -27.2713  -28.0832   20.7827 C   0  0  0  0  0  0
  -26.0048  -26.5406   19.5070 C   0  0  0  0  0  0
  -24.9338  -27.4868   19.4634 C   0  0  0  0  0  0
  -23.7691  -29.6915   20.1384 C   0  0  0  0  0  0
  -25.4140  -36.2880   24.0283 C   0  0  1  0  0  0
  -20.5978  -28.3787   23.1138 C   0  0  2  0  0  0
  -20.6808  -26.9443   22.5405 C   0  0  0  0  0  0
  -19.5783  -26.6372   21.5222 C   0  0  0  0  0  0
  -18.1963  -26.7956   22.1619 C   0  0  0  0  0  0
  -19.1609  -28.8934   23.2777 C   0  0  0  0  0  0
  -18.9519  -30.1517   23.8824 C   0  0  0  0  0  0
  -17.6509  -30.6610   24.0552 C   0  0  0  0  0  0
  -25.9125  -34.9275   23.4941 C   0  0  0  0  0  0
  -16.5398  -29.9092   23.6355 C   0  0  0  0  0  0
  -16.7322  -28.6517   23.0364 C   0  0  0  0  0  0
  -26.4594  -31.6495   25.0672 C   0  0  0  0  0  0
  -25.3650  -31.3827   26.1280 C   0  0  0  0  0  0
  -27.0533  -30.2832   24.6585 C   0  0  0  0  0  0
  -27.6040  -32.4362   25.7494 C   0  0  0  0  0  0
  -27.5557  -37.1731   24.8469 C   0  0  0  0  0  0
  -21.4427  -29.3032   22.3456 N   0  0  0  0  0  0
  -26.4261  -37.3647   23.9413 N   0  0  0  0  0  0
  -24.7891  -30.9377   22.0748 N   0  0  0  0  0  0
  -23.4215  -28.7896   23.3047 O   0  0  0  0  0  0
  -28.1890  -25.4491   20.2985 O   0  0  0  0  0  0
  -26.5767  -34.8863   22.4560 O   0  0  0  0  0  0
  -23.5876  -32.1046   23.6413 O   0  0  0  0  0  0
  -30.0134  -19.7198   21.5352 C   0  0  0  0  0  0
  -29.5293  -21.3124   21.5530 C   0  0  0  0  0  0
  -29.6490  -18.8135   20.2699 C   0  0  2  0  0  0
  -28.5880  -20.2015   19.7658 C   0  0  0  0  0  0
  -28.9294  -21.9474   20.2172 C   0  0  1  0  0  0
  -28.4736  -20.1149   18.2324 C   0  0  0  0  0  0
  -27.1856  -19.8715   20.3178 C   0  0  0  0  0  0
  -28.0147  -23.6916   20.1113 C   0  0  0  0  0  0
  -29.5278  -17.0224   20.3697 N   0  0  0  0  0  0
  -30.0551  -22.2274   19.4088 O   0  0  0  0  0  0
  -31.4120  -13.3636   19.1653 H   0  0  0  0  0  0
  -30.5931  -12.2573   20.2145 H   0  0  0  0  0  0
  -30.0070  -11.8149   17.8073 H   0  0  0  0  0  0
  -29.5067  -13.4755   17.6032 H   0  0  0  0  0  0
  -28.1563  -11.3042   19.2169 H   0  0  0  0  0  0
  -27.4545  -12.2330   17.9136 H   0  0  0  0  0  0
  -27.4540  -14.2285   19.2405 H   0  0  0  0  0  0
  -28.8754  -12.7723   21.5185 H   0  0  0  0  0  0
  -28.1736  -14.3680   21.6262 H   0  0  0  0  0  0
  -25.2791   -9.5675   22.4766 H   0  0  0  0  0  0
  -24.0011   -7.4638   22.7482 H   0  0  0  0  0  0
  -21.0868   -8.8794   19.8952 H   0  0  0  0  0  0
  -22.3747  -10.9675   19.6163 H   0  0  0  0  0  0
  -21.2016   -7.6152   23.9715 H   0  0  0  0  0  0
  -21.1479   -6.0525   25.9074 H   0  0  0  0  0  0
  -22.0597   -2.7613   23.2843 H   0  0  0  0  0  0
  -22.4028  -11.9810   22.4868 H   0  0  0  0  0  0
  -21.0991  -13.1131   22.2682 H   0  0  0  0  0  0
  -24.6170  -15.8497   20.5341 H   0  0  0  0  0  0
  -26.2280  -15.6445   20.0693 H   0  0  0  0  0  0
  -26.7519  -32.4906   23.0756 H   0  0  0  0  0  0
  -25.0068  -33.9307   25.0025 H   0  0  0  0  0  0
  -22.8412  -31.2352   21.3099 H   0  0  0  0  0  0
  -23.3767  -35.9463   23.3264 H   0  0  0  0  0  0
  -24.3559  -36.8854   22.2082 H   0  0  0  0  0  0
  -23.7237  -37.6308   23.6763 H   0  0  0  0  0  0
  -26.2985  -31.2440   20.6240 H   0  0  0  0  0  0
  -26.9465  -30.5906   22.0799 H   0  0  0  0  0  0
  -28.1642  -28.3587   21.3255 H   0  0  0  0  0  0
  -25.8351  -25.5984   19.0052 H   0  0  0  0  0  0
  -24.0373  -27.2085   18.9260 H   0  0  0  0  0  0
  -23.9476  -30.4510   19.3761 H   0  0  0  0  0  0
  -22.8730  -29.1609   19.8124 H   0  0  0  0  0  0
  -25.1350  -36.1637   25.0775 H   0  0  0  0  0  0
  -21.0066  -28.3412   24.1261 H   0  0  0  0  0  0
  -20.5674  -26.2413   23.3669 H   0  0  0  0  0  0
  -21.6666  -26.7381   22.1222 H   0  0  0  0  0  0
  -19.6939  -25.6263   21.1297 H   0  0  0  0  0  0
  -19.6728  -27.3144   20.6723 H   0  0  0  0  0  0
  -17.4235  -26.6709   21.4018 H   0  0  0  0  0  0
  -18.0340  -26.0120   22.9035 H   0  0  0  0  0  0
  -19.8001  -30.7352   24.2155 H   0  0  0  0  0  0
  -17.5062  -31.6280   24.5174 H   0  0  0  0  0  0
  -15.5394  -30.2972   23.7720 H   0  0  0  0  0  0
  -15.8725  -28.0814   22.7114 H   0  0  0  0  0  0
  -24.5871  -30.7135   25.7577 H   0  0  0  0  0  0
  -24.8802  -32.3058   26.4477 H   0  0  0  0  0  0
  -25.7819  -30.9144   27.0205 H   0  0  0  0  0  0
  -26.3257  -29.6435   24.1581 H   0  0  0  0  0  0
  -27.3961  -29.7289   25.5332 H   0  0  0  0  0  0
  -27.9227  -30.3951   24.0104 H   0  0  0  0  0  0
  -27.2580  -33.3744   26.1843 H   0  0  0  0  0  0
  -28.3967  -32.6789   25.0406 H   0  0  0  0  0  0
  -28.0575  -31.8642   26.5598 H   0  0  0  0  0  0
  -28.2541  -38.0056   24.7508 H   0  0  0  0  0  0
  -28.1081  -36.2577   24.6296 H   0  0  0  0  0  0
  -27.2276  -37.1367   25.8872 H   0  0  0  0  0  0
  -20.9728  -29.8697   21.6530 H   0  0  0  0  0  0
  -26.0081  -38.2689   24.1430 H   0  0  0  0  0  0
  -29.5998  -19.2427   22.4238 H   0  0  0  0  0  0
  -31.0935  -19.6817   21.6802 H   0  0  0  0  0  0
  -30.3338  -21.9387   21.9411 H   0  0  0  0  0  0
  -28.7469  -21.3947   22.3089 H   0  0  0  0  0  0
  -30.5085  -18.9049   19.6042 H   0  0  0  0  0  0
  -29.4356  -20.2774   17.7465 H   0  0  0  0  0  0
  -27.7800  -20.8614   17.8437 H   0  0  0  0  0  0
  -28.1186  -19.1343   17.9135 H   0  0  0  0  0  0
  -27.1667  -19.8585   21.4073 H   0  0  0  0  0  0
  -26.8458  -18.8914   19.9822 H   0  0  0  0  0  0
  -26.4496  -20.6065   19.9905 H   0  0  0  0  0  0
  -27.1286  -23.5163   20.7214 H   0  0  0  0  0  0
  -27.6251  -23.6622   19.0935 H   0  0  0  0  0  0
  -28.5499  -16.7877   20.4672 H   0  0  0  0  0  0
  -30.5765  -21.4343   19.3709 H   0  0  0  0  0  0
  1 25  1  0  0  0
  1 30  2  0  0  0
  1 79  1  0  0  0
  2  3  1  0  0  0
  2 25  1  0  0  0
  2 81  1  0  0  0
  2 82  1  0  0  0
  3  4  1  0  0  0
  3 83  1  0  0  0
  3 84  1  0  0  0
  4  5  1  0  0  0
  4 85  1  0  0  0
  4 86  1  0  0  0
  5  6  1  0  0  0
  5 26  1  0  0  0
  5 87  1  0  0  0
  6 25  1  0  0  0
  6 88  1  0  0  0
  6 89  1  0  0  0
  7  8  2  0  0  0
  7 26  1  0  0  0
  7 29  1  0  0  0
  8  9  1  0  0  0
  8 22  1  0  0  0
  9 10  1  0  0  0
  9 27  2  0  0  0
 10 11  2  0  0  0
 10 15  1  0  0  0
 11 12  1  0  0  0
 11 90  1  0  0  0
 12 13  2  0  0  0
 12 91  1  0  0  0
 13 14  1  0  0  0
 13 31  1  0  0  0
 14 15  2  0  0  0
 14 92  1  0  0  0
 15 93  1  0  0  0
 16 17  2  0  0  0
 16 21  1  0  0  0
 16 31  1  0  0  0
 17 18  1  0  0  0
 17 94  1  0  0  0
 18 19  2  0  0  0
 18 95  1  0  0  0
 19 20  1  0  0  0
 19 24  1  0  0  0
 20 21  2  0  0  0
 20 96  1  0  0  0
 21 23  1  0  0  0
 22 28  1  0  0  0
 22 32  2  0  0  0
 26 27  1  0  0  0
 28 97  1  0  0  0
 28 98  1  0  0  0
 29 99  1  0  0  0
 29100  1  0  0  0
 33 34  1  0  0  0
 33 66  1  0  0  0
 33 70  2  0  0  0
 34 36  1  0  0  0
 34 59  1  0  0  0
 34101  1  0  0  0
 35 44  2  0  0  0
 35 45  1  0  0  0
 35 68  1  0  0  0
 36 56  1  0  0  0
 36102  1  0  0  0
 37 39  1  0  0  0
 37 47  1  0  0  0
 37 66  1  0  0  0
 37103  1  0  0  0
 38 43  2  0  0  0
 38 46  1  0  0  0
 38 47  1  0  0  0
 39 64  1  0  0  0
 39 67  2  0  0  0
 40 52  1  0  0  0
 40 53  2  0  0  0
 40 58  1  0  0  0
 41104  1  0  0  0
 41105  1  0  0  0
 41106  1  0  0  0
 41 48  1  0  0  0
 42 43  1  0  0  0
 42 66  1  0  0  0
 42107  1  0  0  0
 42108  1  0  0  0
 43 44  1  0  0  0
 44109  1  0  0  0
 45 46  2  0  0  0
 45110  1  0  0  0
 46111  1  0  0  0
 47112  1  0  0  0
 47113  1  0  0  0
 48 56  1  0  0  0
 48 65  1  0  0  0
 48114  1  0  0  0
 49 50  1  0  0  0
 49 53  1  0  0  0
 49 64  1  0  0  0
 49115  1  0  0  0
 50 51  1  0  0  0
 50116  1  0  0  0
 50117  1  0  0  0
 51 52  1  0  0  0
 51118  1  0  0  0
 51119  1  0  0  0
 52120  1  0  0  0
 52121  1  0  0  0
 53 54  1  0  0  0
 54 55  2  0  0  0
 54122  1  0  0  0
 55 57  1  0  0  0
 55123  1  0  0  0
 56 69  2  0  0  0
 57 58  2  0  0  0
 57124  1  0  0  0
 58125  1  0  0  0
 59 60  1  0  0  0
 59 61  1  0  0  0
 59 62  1  0  0  0
 60126  1  0  0  0
 60127  1  0  0  0
 60128  1  0  0  0
 61129  1  0  0  0
 61130  1  0  0  0
 61131  1  0  0  0
 62132  1  0  0  0
 62133  1  0  0  0
 62134  1  0  0  0
 63 65  1  0  0  0
 63135  1  0  0  0
 63136  1  0  0  0
 63137  1  0  0  0
 64138  1  0  0  0
 65139  1  0  0  0
 68 78  1  0  0  0
 71 72  1  0  0  0
 71 73  1  0  0  0
 71140  1  0  0  0
 71141  1  0  0  0
 72 75  1  0  0  0
 72142  1  0  0  0
 72143  1  0  0  0
 73 74  1  0  0  0
 73 79  1  0  0  0
 73144  1  0  0  0
 74 75  1  0  0  0
 74 76  1  0  0  0
 74 77  1  0  0  0
 75 78  1  0  0  0
 75 80  1  0  0  0
 76145  1  0  0  0
 76146  1  0  0  0
 76147  1  0  0  0
 77148  1  0  0  0
 77149  1  0  0  0
 77150  1  0  0  0
 78151  1  0  0  0
 78152  1  0  0  0
 79153  1  0  0  0
 80154  1  0  0  0
M  ISO  4   1 100  68 101  78 101  79 100
M  END
> <chiral flag>
0

> <version>
0

> <s_m_source_file>
/data/baiqing/PycharmProjects/Reinvent-master-3.2/result/LINK_invent/BTK/process_docking_weight1_custom_product_contain_oxygen_bond_distance_aromatic_linkinvent_7_9_3/rearranged_h_0155.sdf

> <i_m_source_file_index>
30

> <r_mmod_Potential_Energy-OPLS-2005>
2575.40356445312

> <r_mmod_Stretch_Energy-OPLS-2005>
1126.41821289062

> <r_mmod_Bend_Energy-OPLS-2005>
728.513061523438

> <r_mmod_Torsional_Energy-OPLS-2005>
298.043212890625

> <r_mmod_Improper_Torsional_Energy-OPLS-2005>
3.70784139633179

> <r_mmod_Van_der_Waal_Energy-OPLS-2005>
108.427742004395

> <r_mmod_Electrostatic_Energy-OPLS-2005>
-404.582794189453

> <r_mmod_Solvation_Energy-OPLS-2005>
-226.966903686523

> <b_mmod_Minimization_Converged-OPLS-2005>
0

> <r_mmod_RMS_Derivative-OPLS-2005>
0.867469727993011

$$$$
30
                    3D
 Structure written by MMmdl.
167176  0  0  1  0            999 V2000
  -30.6631  -14.5566   20.4980 C   0  0  0  0  0  0
  -30.4184  -12.3382   19.4455 C   0  0  0  0  0  0
  -29.4993  -12.4958   18.2163 C   0  0  0  0  0  0
  -28.0204  -12.3498   18.6271 C   0  0  0  0  0  0
  -27.6500  -13.2147   19.8610 C   0  0  2  0  0  0
  -28.6907  -13.0606   20.9929 C   0  0  0  0  0  0
  -25.2539  -13.8186   20.5679 C   0  0  0  0  0  0
  -24.1811  -13.0459   20.9202 C   0  0  0  0  0  0
  -24.6373  -11.6924   20.8747 C   0  0  0  0  0  0
  -23.9051  -10.4301   21.0408 C   0  0  0  0  0  0
  -24.3600   -9.4225   21.9183 C   0  0  0  0  0  0
  -23.6271   -8.2256   22.0753 C   0  0  0  0  0  0
  -22.4251   -8.0289   21.3550 C   0  0  0  0  0  0
  -21.9891   -9.0269   20.4650 C   0  0  0  0  0  0
  -22.7225  -10.2140   20.3054 C   0  0  0  0  0  0
  -21.6854   -6.0730   22.5277 C   0  0  0  0  0  0
  -21.4028   -6.5626   23.8212 C   0  0  0  0  0  0
  -21.3669   -5.6779   24.9173 C   0  0  0  0  0  0
  -21.6032   -4.3036   24.7220 C   0  0  0  0  0  0
  -21.8824   -3.8138   23.4340 C   0  0  0  0  0  0
  -21.9199   -4.6964   22.3405 C   0  0  0  0  0  0
  -22.7839  -13.5264   21.1861 C   0  0  0  0  0  0
  -22.1660   -4.2153   21.0978 F   0  0  0  0  0  0
  -21.5634   -3.4519   25.7729 F   0  0  0  0  0  0
  -30.0125  -13.3603   20.4246 N   0  0  0  0  0  0
  -26.2954  -12.9357   20.3287 N   0  0  0  0  0  0
  -25.9284  -11.6519   20.5734 N   0  0  0  0  0  0
  -22.0454  -12.8259   22.0402 N   0  0  0  0  0  0
  -25.4257  -15.1907   20.4083 N   0  0  0  0  0  0
  -31.8320  -14.6884   20.1288 O   0  0  0  0  0  0
  -21.6633   -6.8872   21.4233 O   0  0  0  0  0  0
  -22.3530  -14.5568   20.6706 O   0  0  0  0  0  0
  -24.6162  -31.8651   23.2045 C   0  0  0  0  0  0
  -25.9039  -32.4810   23.8358 C   0  0  1  0  0  0
  -27.2339  -27.3960   20.0857 C   0  0  0  0  0  0
  -25.5880  -33.8602   24.2301 N   0  0  0  0  0  0
  -23.4050  -30.4874   21.5449 C   0  0  2  0  0  0
  -24.8479  -28.9403   20.1121 C   0  0  0  0  0  0
  -22.7408  -29.4655   22.4966 C   0  0  0  0  0  0
  -18.0267  -28.1391   22.8495 C   0  0  0  0  0  0
  -24.1468  -36.7291   23.2642 C   0  0  0  0  0  0
  -25.9345  -30.8183   21.3582 C   0  0  0  0  0  0
  -26.0082  -29.4463   20.7084 C   0  0  0  0  0  0
  -27.1968  -28.6785   20.6945 C   0  0  0  0  0  0
  -26.0449  -26.8984   19.5109 C   0  0  0  0  0  0
  -24.8625  -27.6668   19.5152 C   0  0  0  0  0  0
  -23.6130  -29.8139   20.1604 C   0  0  0  0  0  0
  -25.4099  -36.3107   24.0341 C   0  0  1  0  0  0
  -20.5860  -28.3677   23.1311 C   0  0  2  0  0  0
  -20.6746  -26.9412   22.5424 C   0  0  0  0  0  0
  -19.5728  -26.6403   21.5207 C   0  0  0  0  0  0
  -18.1909  -26.7939   22.1626 C   0  0  0  0  0  0
  -19.1521  -28.8846   23.2904 C   0  0  0  0  0  0
  -18.9463  -30.1445   23.8932 C   0  0  0  0  0  0
  -17.6470  -30.6601   24.0572 C   0  0  0  0  0  0
  -25.9034  -34.9471   23.5133 C   0  0  0  0  0  0
  -16.5355  -29.9117   23.6319 C   0  0  0  0  0  0
  -16.7259  -28.6523   23.0357 C   0  0  0  0  0  0
  -26.4463  -31.6596   25.0699 C   0  0  0  0  0  0
  -25.3738  -31.3702   26.1462 C   0  0  0  0  0  0
  -27.0291  -30.3044   24.6068 C   0  0  0  0  0  0
  -27.6051  -32.4303   25.7461 C   0  0  0  0  0  0
  -27.5572  -37.1799   24.8474 C   0  0  0  0  0  0
  -21.4131  -29.3043   22.3711 N   0  0  0  0  0  0
  -26.4280  -37.3800   23.9424 N   0  0  0  0  0  0
  -24.6707  -31.0732   22.0945 N   0  0  0  0  0  0
  -23.4172  -28.8202   23.3021 O   0  0  0  0  0  0
  -28.4304  -26.6945   20.1310 O   0  0  0  0  0  0
  -26.5616  -34.8935   22.4708 O   0  0  0  0  0  0
  -23.5346  -32.1415   23.7425 O   0  0  0  0  0  0
  -30.7757  -19.6298   19.0296 C   0  0  0  0  0  0
  -29.6752  -19.4755   19.8422 C   0  0  0  0  0  0
  -29.5011  -21.7207   19.2665 C   0  0  0  0  0  0
  -28.6251  -18.3048   21.8615 C   0  0  0  0  0  0
  -30.9296  -17.4908   22.0724 C   0  0  0  0  0  0
  -29.2022  -18.1304   20.4501 C   0  0  2  0  0  0
  -29.8140  -18.2320   22.8302 C   0  0  2  0  0  0
  -30.3395  -17.0681   20.7159 C   0  0  2  0  0  0
  -29.4413  -17.5695   24.1634 C   0  0  0  0  0  0
  -30.3434  -25.6753   19.4819 C   0  0  0  0  0  0
  -28.5061  -25.7946   17.8090 C   0  0  0  0  0  0
  -28.3520  -24.1366   19.8126 C   0  0  0  0  0  0
  -28.8143  -25.5618   19.3063 C   0  0  0  0  0  0
  -28.9518  -20.7034   19.9630 N   0  0  0  0  0  0
  -29.0941  -23.0579   19.1306 N   0  0  0  0  0  0
  -29.9008  -15.6419   20.7918 N   0  0  0  0  0  0
  -30.9489  -21.2418   18.4014 S   0  0  0  0  0  0
  -31.4668  -12.4301   19.1533 H   0  0  0  0  0  0
  -30.3151  -11.3415   19.8769 H   0  0  0  0  0  0
  -29.7515  -11.7550   17.4567 H   0  0  0  0  0  0
  -29.6612  -13.4724   17.7564 H   0  0  0  0  0  0
  -27.8410  -11.2975   18.8497 H   0  0  0  0  0  0
  -27.3710  -12.5956   17.7862 H   0  0  0  0  0  0
  -27.6743  -14.2513   19.5248 H   0  0  0  0  0  0
  -28.6763  -12.0462   21.3939 H   0  0  0  0  0  0
  -28.4521  -13.7171   21.8317 H   0  0  0  0  0  0
  -25.2742   -9.5705   22.4770 H   0  0  0  0  0  0
  -23.9992   -7.4644   22.7461 H   0  0  0  0  0  0
  -21.0833   -8.8782   19.8935 H   0  0  0  0  0  0
  -22.3684  -10.9683   19.6164 H   0  0  0  0  0  0
  -21.2014   -7.6133   23.9721 H   0  0  0  0  0  0
  -21.1485   -6.0497   25.9076 H   0  0  0  0  0  0
  -22.0588   -2.7602   23.2836 H   0  0  0  0  0  0
  -22.4032  -11.9912   22.4805 H   0  0  0  0  0  0
  -21.1085  -13.1321   22.2597 H   0  0  0  0  0  0
  -24.6541  -15.8410   20.5082 H   0  0  0  0  0  0
  -26.2589  -15.6225   20.0316 H   0  0  0  0  0  0
  -26.7103  -32.5508   23.1107 H   0  0  0  0  0  0
  -25.0009  -33.9754   25.0433 H   0  0  0  0  0  0
  -22.6946  -31.3048   21.4014 H   0  0  0  0  0  0
  -23.3739  -35.9611   23.3315 H   0  0  0  0  0  0
  -24.3563  -36.8901   22.2058 H   0  0  0  0  0  0
  -23.7204  -37.6492   23.6642 H   0  0  0  0  0  0
  -26.0461  -31.5785   20.5839 H   0  0  0  0  0  0
  -26.8234  -30.8789   21.9744 H   0  0  0  0  0  0
  -28.0938  -29.0663   21.1555 H   0  0  0  0  0  0
  -26.0062  -25.9090   19.0818 H   0  0  0  0  0  0
  -23.9630  -27.2644   19.0696 H   0  0  0  0  0  0
  -23.7270  -30.5845   19.3968 H   0  0  0  0  0  0
  -22.7349  -29.2375   19.8641 H   0  0  0  0  0  0
  -25.1268  -36.1970   25.0830 H   0  0  0  0  0  0
  -20.9959  -28.3254   24.1429 H   0  0  0  0  0  0
  -20.5629  -26.2292   23.3620 H   0  0  0  0  0  0
  -21.6622  -26.7441   22.1237 H   0  0  0  0  0  0
  -19.6885  -25.6320   21.1226 H   0  0  0  0  0  0
  -19.6663  -27.3223   20.6744 H   0  0  0  0  0  0
  -17.4174  -26.6681   21.4032 H   0  0  0  0  0  0
  -18.0317  -26.0092   22.9034 H   0  0  0  0  0  0
  -19.7942  -30.7232   24.2341 H   0  0  0  0  0  0
  -17.5039  -31.6289   24.5165 H   0  0  0  0  0  0
  -15.5365  -30.3043   23.7629 H   0  0  0  0  0  0
  -15.8648  -28.0851   22.7085 H   0  0  0  0  0  0
  -24.5922  -30.7023   25.7813 H   0  0  0  0  0  0
  -24.8910  -32.2854   26.4899 H   0  0  0  0  0  0
  -25.8127  -30.8901   27.0219 H   0  0  0  0  0  0
  -26.2824  -29.6818   24.1128 H   0  0  0  0  0  0
  -27.4078  -29.7275   25.4511 H   0  0  0  0  0  0
  -27.8641  -30.4368   23.9187 H   0  0  0  0  0  0
  -27.2687  -33.3607   26.2035 H   0  0  0  0  0  0
  -28.3864  -32.6850   25.0289 H   0  0  0  0  0  0
  -28.0692  -31.8415   26.5384 H   0  0  0  0  0  0
  -28.2610  -38.0078   24.7538 H   0  0  0  0  0  0
  -28.1051  -36.2626   24.6275 H   0  0  0  0  0  0
  -27.2301  -37.1430   25.8879 H   0  0  0  0  0  0
  -20.9289  -29.8800   21.6963 H   0  0  0  0  0  0
  -26.0168  -38.2868   24.1456 H   0  0  0  0  0  0
  -31.4958  -18.8839   18.7226 H   0  0  0  0  0  0
  -27.9520  -17.4684   22.0562 H   0  0  0  0  0  0
  -28.0298  -19.2093   21.9855 H   0  0  0  0  0  0
  -31.3451  -16.6537   22.6360 H   0  0  0  0  0  0
  -31.7563  -18.1826   21.9001 H   0  0  0  0  0  0
  -28.4474  -17.7054   19.7878 H   0  0  0  0  0  0
  -30.1580  -19.2489   23.0285 H   0  0  0  0  0  0
  -31.0972  -17.1188   19.9352 H   0  0  0  0  0  0
  -29.1263  -16.5354   24.0153 H   0  0  0  0  0  0
  -28.6213  -18.0992   24.6493 H   0  0  0  0  0  0
  -30.2869  -17.5655   24.8526 H   0  0  0  0  0  0
  -30.8964  -24.9774   18.8535 H   0  0  0  0  0  0
  -30.6320  -25.4858   20.5166 H   0  0  0  0  0  0
  -30.6988  -26.6748   19.2251 H   0  0  0  0  0  0
  -29.0778  -25.1154   17.1769 H   0  0  0  0  0  0
  -28.7619  -26.8099   17.5037 H   0  0  0  0  0  0
  -27.4624  -25.6273   17.5552 H   0  0  0  0  0  0
  -27.2816  -23.9994   19.6550 H   0  0  0  0  0  0
  -28.5223  -24.0543   20.8876 H   0  0  0  0  0  0
  -29.6433  -23.4809   18.3901 H   0  0  0  0  0  0
  -28.9391  -15.4671   21.0426 H   0  0  0  0  0  0
  1 25  1  0  0  0
  1 30  2  0  0  0
  1 86  1  0  0  0
  2  3  1  0  0  0
  2 25  1  0  0  0
  2 88  1  0  0  0
  2 89  1  0  0  0
  3  4  1  0  0  0
  3 90  1  0  0  0
  3 91  1  0  0  0
  4  5  1  0  0  0
  4 92  1  0  0  0
  4 93  1  0  0  0
  5  6  1  0  0  0
  5 26  1  0  0  0
  5 94  1  0  0  0
  6 25  1  0  0  0
  6 95  1  0  0  0
  6 96  1  0  0  0
  7  8  2  0  0  0
  7 26  1  0  0  0
  7 29  1  0  0  0
  8  9  1  0  0  0
  8 22  1  0  0  0
  9 10  1  0  0  0
  9 27  2  0  0  0
 10 11  2  0  0  0
 10 15  1  0  0  0
 11 12  1  0  0  0
 11 97  1  0  0  0
 12 13  2  0  0  0
 12 98  1  0  0  0
 13 14  1  0  0  0
 13 31  1  0  0  0
 14 15  2  0  0  0
 14 99  1  0  0  0
 15100  1  0  0  0
 16 17  2  0  0  0
 16 21  1  0  0  0
 16 31  1  0  0  0
 17 18  1  0  0  0
 17101  1  0  0  0
 18 19  2  0  0  0
 18102  1  0  0  0
 19 20  1  0  0  0
 19 24  1  0  0  0
 20 21  2  0  0  0
 20103  1  0  0  0
 21 23  1  0  0  0
 22 28  1  0  0  0
 22 32  2  0  0  0
 26 27  1  0  0  0
 28104  1  0  0  0
 28105  1  0  0  0
 29106  1  0  0  0
 29107  1  0  0  0
 33 34  1  0  0  0
 33 66  1  0  0  0
 33 70  2  0  0  0
 34 36  1  0  0  0
 34 59  1  0  0  0
 34108  1  0  0  0
 35 44  2  0  0  0
 35 45  1  0  0  0
 35 68  1  0  0  0
 36 56  1  0  0  0
 36109  1  0  0  0
 37 39  1  0  0  0
 37 47  1  0  0  0
 37 66  1  0  0  0
 37110  1  0  0  0
 38 43  2  0  0  0
 38 46  1  0  0  0
 38 47  1  0  0  0
 39 64  1  0  0  0
 39 67  2  0  0  0
 40 52  1  0  0  0
 40 53  2  0  0  0
 40 58  1  0  0  0
 41111  1  0  0  0
 41112  1  0  0  0
 41113  1  0  0  0
 41 48  1  0  0  0
 42 43  1  0  0  0
 42 66  1  0  0  0
 42114  1  0  0  0
 42115  1  0  0  0
 43 44  1  0  0  0
 44116  1  0  0  0
 45 46  2  0  0  0
 45117  1  0  0  0
 46118  1  0  0  0
 47119  1  0  0  0
 47120  1  0  0  0
 48 56  1  0  0  0
 48 65  1  0  0  0
 48121  1  0  0  0
 49 50  1  0  0  0
 49 53  1  0  0  0
 49 64  1  0  0  0
 49122  1  0  0  0
 50 51  1  0  0  0
 50123  1  0  0  0
 50124  1  0  0  0
 51 52  1  0  0  0
 51125  1  0  0  0
 51126  1  0  0  0
 52127  1  0  0  0
 52128  1  0  0  0
 53 54  1  0  0  0
 54 55  2  0  0  0
 54129  1  0  0  0
 55 57  1  0  0  0
 55130  1  0  0  0
 56 69  2  0  0  0
 57 58  2  0  0  0
 57131  1  0  0  0
 58132  1  0  0  0
 59 60  1  0  0  0
 59 61  1  0  0  0
 59 62  1  0  0  0
 60133  1  0  0  0
 60134  1  0  0  0
 60135  1  0  0  0
 61136  1  0  0  0
 61137  1  0  0  0
 61138  1  0  0  0
 62139  1  0  0  0
 62140  1  0  0  0
 62141  1  0  0  0
 63 65  1  0  0  0
 63142  1  0  0  0
 63143  1  0  0  0
 63144  1  0  0  0
 64145  1  0  0  0
 65146  1  0  0  0
 68 83  1  0  0  0
 71 72  2  0  0  0
 71 87  1  0  0  0
 71147  1  0  0  0
 72 84  1  0  0  0
 72 76  1  0  0  0
 73 84  2  0  0  0
 73 85  1  0  0  0
 73 87  1  0  0  0
 74 76  1  0  0  0
 74 77  1  0  0  0
 74148  1  0  0  0
 74149  1  0  0  0
 75 77  1  0  0  0
 75 78  1  0  0  0
 75150  1  0  0  0
 75151  1  0  0  0
 76 78  1  0  0  0
 76152  1  0  0  0
 77 79  1  0  0  0
 77153  1  0  0  0
 78 86  1  0  0  0
 78154  1  0  0  0
 79155  1  0  0  0
 79156  1  0  0  0
 79157  1  0  0  0
 80158  1  0  0  0
 80159  1  0  0  0
 80160  1  0  0  0
 80 83  1  0  0  0
 81 83  1  0  0  0
 81161  1  0  0  0
 81162  1  0  0  0
 81163  1  0  0  0
 82 83  1  0  0  0
 82 85  1  0  0  0
 82164  1  0  0  0
 82165  1  0  0  0
 85166  1  0  0  0
 86167  1  0  0  0
M  ISO  4   1 100  68 101  83 101  86 100
M  END
> <chiral flag>
0

> <version>
0

> <s_m_source_file>
/data/baiqing/PycharmProjects/Reinvent-master-3.2/result/LINK_invent/BTK/process_docking_weight1_custom_product_contain_oxygen_bond_distance_aromatic_linkinvent_7_9_3/rearranged_h_0155.sdf

> <i_m_source_file_index>
31

> <r_mmod_Potential_Energy-OPLS-2005>
-61.3494300842285

> <r_mmod_Stretch_Energy-OPLS-2005>
53.485725402832

> <r_mmod_Bend_Energy-OPLS-2005>
177.316162109375

> <r_mmod_Torsional_Energy-OPLS-2005>
251.168975830078

> <r_mmod_Improper_Torsional_Energy-OPLS-2005>
5.94211769104004

> <r_mmod_Van_der_Waal_Energy-OPLS-2005>
121.834983825684

> <r_mmod_Electrostatic_Energy-OPLS-2005>
-483.850555419922

> <r_mmod_Solvation_Energy-OPLS-2005>
-212.266967773438

> <b_mmod_Minimization_Converged-OPLS-2005>
0

> <r_mmod_RMS_Derivative-OPLS-2005>
2.08447408676147

$$$$
31
                    3D
 Structure written by MMmdl.
165175  0  0  1  0            999 V2000
  -30.4875  -15.0334   20.4232 C   0  0  0  0  0  0
  -30.4268  -12.6307   19.5463 C   0  0  0  0  0  0
  -29.5382  -12.5585   18.2801 C   0  0  0  0  0  0
  -28.0576  -12.3567   18.6574 C   0  0  0  0  0  0
  -27.6220  -13.2671   19.8370 C   0  0  2  0  0  0
  -28.6463  -13.3032   20.9909 C   0  0  0  0  0  0
  -25.2373  -13.8221   20.5675 C   0  0  0  0  0  0
  -24.1719  -13.0421   20.9224 C   0  0  0  0  0  0
  -24.6360  -11.6925   20.8693 C   0  0  0  0  0  0
  -23.9037  -10.4294   21.0379 C   0  0  0  0  0  0
  -24.3576   -9.4210   21.9165 C   0  0  0  0  0  0
  -23.6271   -8.2228   22.0726 C   0  0  0  0  0  0
  -22.4251   -8.0262   21.3519 C   0  0  0  0  0  0
  -21.9865   -9.0238   20.4616 C   0  0  0  0  0  0
  -22.7184  -10.2135   20.3036 C   0  0  0  0  0  0
  -21.6861   -6.0722   22.5287 C   0  0  0  0  0  0
  -21.4033   -6.5630   23.8224 C   0  0  0  0  0  0
  -21.3661   -5.6784   24.9172 C   0  0  0  0  0  0
  -21.6058   -4.3048   24.7219 C   0  0  0  0  0  0
  -21.8827   -3.8127   23.4347 C   0  0  0  0  0  0
  -21.9182   -4.6950   22.3403 C   0  0  0  0  0  0
  -22.7744  -13.5194   21.1926 C   0  0  0  0  0  0
  -22.1651   -4.2147   21.0975 F   0  0  0  0  0  0
  -21.5612   -3.4534   25.7731 F   0  0  0  0  0  0
  -29.9236  -13.7440   20.4174 N   0  0  0  0  0  0
  -26.2809  -12.9507   20.3139 N   0  0  0  0  0  0
  -25.9298  -11.6622   20.5611 N   0  0  0  0  0  0
  -22.0384  -12.8179   22.0481 N   0  0  0  0  0  0
  -25.4065  -15.1946   20.4189 N   0  0  0  0  0  0
  -31.6752  -15.0879   20.0795 O   0  0  0  0  0  0
  -21.6616   -6.8868   21.4249 O   0  0  0  0  0  0
  -22.3438  -14.5514   20.6774 O   0  0  0  0  0  0
  -24.6563  -31.8337   23.1748 C   0  0  0  0  0  0
  -25.9311  -32.4632   23.8187 C   0  0  1  0  0  0
  -27.2091  -27.0198   20.1826 C   0  0  0  0  0  0
  -25.6031  -33.8424   24.2099 N   0  0  0  0  0  0
  -23.4643  -30.4484   21.5223 C   0  0  2  0  0  0
  -24.9127  -28.8511   20.1113 C   0  0  0  0  0  0
  -22.7651  -29.4502   22.4803 C   0  0  0  0  0  0
  -18.0337  -28.1403   22.8475 C   0  0  0  0  0  0
  -24.1481  -36.7216   23.2629 C   0  0  0  0  0  0
  -26.0240  -30.6743   21.3878 C   0  0  0  0  0  0
  -26.0924  -29.2699   20.7366 C   0  0  0  0  0  0
  -27.2402  -28.3727   20.7500 C   0  0  0  0  0  0
  -26.0008  -26.7270   19.5141 C   0  0  0  0  0  0
  -24.8835  -27.5976   19.4796 C   0  0  0  0  0  0
  -23.6981  -29.7733   20.1436 C   0  0  0  0  0  0
  -25.4119  -36.3004   24.0302 C   0  0  1  0  0  0
  -20.5962  -28.3741   23.1206 C   0  0  2  0  0  0
  -20.6824  -26.9443   22.5400 C   0  0  0  0  0  0
  -19.5783  -26.6396   21.5228 C   0  0  0  0  0  0
  -18.1964  -26.7941   22.1636 C   0  0  0  0  0  0
  -19.1587  -28.8898   23.2821 C   0  0  0  0  0  0
  -18.9500  -30.1504   23.8824 C   0  0  0  0  0  0
  -17.6475  -30.6588   24.0566 C   0  0  0  0  0  0
  -25.9084  -34.9384   23.5003 C   0  0  0  0  0  0
  -16.5386  -29.9078   23.6321 C   0  0  0  0  0  0
  -16.7315  -28.6517   23.0326 C   0  0  0  0  0  0
  -26.4561  -31.6535   25.0668 C   0  0  0  0  0  0
  -25.3698  -31.3778   26.1327 C   0  0  0  0  0  0
  -27.0398  -30.2906   24.6300 C   0  0  0  0  0  0
  -27.6052  -32.4309   25.7493 C   0  0  0  0  0  0
  -27.5561  -37.1764   24.8446 C   0  0  0  0  0  0
  -21.4341  -29.3036   22.3554 N   0  0  0  0  0  0
  -26.4250  -37.3750   23.9444 N   0  0  0  0  0  0
  -24.7345  -31.0114   22.0836 N   0  0  0  0  0  0
  -23.4256  -28.8060   23.3004 O   0  0  0  0  0  0
  -28.2424  -25.9766   20.2640 O   0  0  0  0  0  0
  -26.5678  -34.8923   22.4585 O   0  0  0  0  0  0
  -23.5656  -32.1221   23.6939 O   0  0  0  0  0  0
  -29.2531  -19.0520   20.7501 C   0  0  0  0  0  0
  -29.6826  -17.7012   20.1276 C   0  0  0  0  0  0
  -29.8790  -17.9273   18.7814 C   0  0  0  0  0  0
  -29.1599  -20.2508   19.9232 C   0  0  0  0  0  0
  -27.9830  -23.8491   18.7354 C   0  0  0  0  0  0
  -28.2315  -22.3130   18.6335 C   0  0  0  0  0  0
  -31.3466  -17.0774   16.7681 C   0  0  0  0  0  0
  -29.9334  -17.1634   16.2330 C   0  0  0  0  0  0
  -30.1738  -16.9144   17.7036 C   0  0  0  0  0  0
  -28.0104  -24.3816   20.1717 C   0  0  1  0  0  0
  -28.8888  -23.0299   20.7422 C   0  0  2  0  0  0
  -32.6961  -22.8624   21.7184 C   0  0  0  0  0  0
  -30.3929  -23.3932   20.7623 C   0  0  0  0  0  0
  -31.3305  -22.3025   21.3084 C   0  0  0  0  0  0
  -28.6463  -21.7141   19.9213 N   0  0  0  0  0  0
  -29.7253  -16.2339   20.6917 N   0  0  0  0  0  0
  -27.8262  -24.5653   17.7429 O   0  0  0  0  0  0
  -29.6822  -19.6426   18.3471 S   0  0  0  0  0  0
  -31.4727  -12.7630   19.2698 H   0  0  0  0  0  0
  -30.3934  -11.6812   20.0825 H   0  0  0  0  0  0
  -29.8703  -11.7475   17.6306 H   0  0  0  0  0  0
  -29.6523  -13.4768   17.7034 H   0  0  0  0  0  0
  -27.9166  -11.3073   18.9193 H   0  0  0  0  0  0
  -27.4203  -12.5403   17.7908 H   0  0  0  0  0  0
  -27.5817  -14.2752   19.4202 H   0  0  0  0  0  0
  -28.7314  -12.3260   21.4717 H   0  0  0  0  0  0
  -28.3183  -13.9915   21.7718 H   0  0  0  0  0  0
  -25.2714   -9.5705   22.4729 H   0  0  0  0  0  0
  -24.0007   -7.4615   22.7426 H   0  0  0  0  0  0
  -21.0800   -8.8719   19.8932 H   0  0  0  0  0  0
  -22.3602  -10.9654   19.6131 H   0  0  0  0  0  0
  -21.2054   -7.6139   23.9748 H   0  0  0  0  0  0
  -21.1477   -6.0477   25.9092 H   0  0  0  0  0  0
  -22.0601   -2.7594   23.2813 H   0  0  0  0  0  0
  -22.3975  -11.9826   22.4880 H   0  0  0  0  0  0
  -21.1019  -13.1242   22.2709 H   0  0  0  0  0  0
  -24.6437  -15.8460   20.5584 H   0  0  0  0  0  0
  -26.2555  -15.6437   20.1012 H   0  0  0  0  0  0
  -26.7391  -32.5246   23.0923 H   0  0  0  0  0  0
  -25.0277  -33.9482   25.0328 H   0  0  0  0  0  0
  -22.7701  -31.2743   21.3611 H   0  0  0  0  0  0
  -23.3757  -35.9524   23.3236 H   0  0  0  0  0  0
  -24.3543  -36.8894   22.2046 H   0  0  0  0  0  0
  -23.7212  -37.6387   23.6686 H   0  0  0  0  0  0
  -26.1808  -31.4175   20.6054 H   0  0  0  0  0  0
  -26.8939  -30.7334   22.0299 H   0  0  0  0  0  0
  -28.1365  -28.6901   21.2655 H   0  0  0  0  0  0
  -25.8758  -25.7680   19.0356 H   0  0  0  0  0  0
  -23.9873  -27.2656   18.9745 H   0  0  0  0  0  0
  -23.8586  -30.5445   19.3884 H   0  0  0  0  0  0
  -22.8051  -29.2327   19.8256 H   0  0  0  0  0  0
  -25.1308  -36.1775   25.0786 H   0  0  0  0  0  0
  -21.0038  -28.3345   24.1338 H   0  0  0  0  0  0
  -20.5732  -26.2374   23.3633 H   0  0  0  0  0  0
  -21.6677  -26.7455   22.1188 H   0  0  0  0  0  0
  -19.6923  -25.6295   21.1278 H   0  0  0  0  0  0
  -19.6694  -27.3185   20.6739 H   0  0  0  0  0  0
  -17.4247  -26.6701   21.4031 H   0  0  0  0  0  0
  -18.0334  -26.0102   22.9043 H   0  0  0  0  0  0
  -19.7985  -30.7374   24.2125 H   0  0  0  0  0  0
  -17.5034  -31.6229   24.5237 H   0  0  0  0  0  0
  -15.5372  -30.2951   23.7677 H   0  0  0  0  0  0
  -15.8752  -28.0836   22.7006 H   0  0  0  0  0  0
  -24.5891  -30.7104   25.7644 H   0  0  0  0  0  0
  -24.8873  -32.2979   26.4633 H   0  0  0  0  0  0
  -25.7949  -30.9033   27.0184 H   0  0  0  0  0  0
  -26.3012  -29.6613   24.1299 H   0  0  0  0  0  0
  -27.3959  -29.7216   25.4903 H   0  0  0  0  0  0
  -27.8962  -30.4070   23.9643 H   0  0  0  0  0  0
  -27.2614  -33.3626   26.1998 H   0  0  0  0  0  0
  -28.3947  -32.6828   25.0395 H   0  0  0  0  0  0
  -28.0637  -31.8491   26.5500 H   0  0  0  0  0  0
  -28.2540  -38.0089   24.7560 H   0  0  0  0  0  0
  -28.1106  -36.2638   24.6206 H   0  0  0  0  0  0
  -27.2301  -37.1340   25.8844 H   0  0  0  0  0  0
  -20.9586  -29.8771   21.6724 H   0  0  0  0  0  0
  -26.0079  -38.2798   24.1483 H   0  0  0  0  0  0
  -28.9724  -19.0701   21.7935 H   0  0  0  0  0  0
  -29.0099  -22.1708   17.8859 H   0  0  0  0  0  0
  -27.3305  -21.8228   18.2674 H   0  0  0  0  0  0
  -31.9147  -18.0053   16.8303 H   0  0  0  0  0  0
  -31.9216  -16.1841   16.5278 H   0  0  0  0  0  0
  -29.5743  -16.3216   15.6441 H   0  0  0  0  0  0
  -29.5653  -18.1351   15.9158 H   0  0  0  0  0  0
  -29.8965  -15.9100   18.0079 H   0  0  0  0  0  0
  -26.9991  -24.2403   20.5532 H   0  0  0  0  0  0
  -28.5721  -22.8313   21.7681 H   0  0  0  0  0  0
  -33.3558  -22.0677   22.0636 H   0  0  0  0  0  0
  -32.5962  -23.5808   22.5350 H   0  0  0  0  0  0
  -33.1815  -23.3706   20.8853 H   0  0  0  0  0  0
  -30.4954  -24.2849   21.3826 H   0  0  0  0  0  0
  -30.7274  -23.6845   19.7657 H   0  0  0  0  0  0
  -30.8695  -21.8083   22.1636 H   0  0  0  0  0  0
  -31.4797  -21.5348   20.5475 H   0  0  0  0  0  0
  -28.9359  -16.0267   21.2846 H   0  0  0  0  0  0
  1 25  1  0  0  0
  1 30  2  0  0  0
  1 86  1  0  0  0
  2  3  1  0  0  0
  2 25  1  0  0  0
  2 89  1  0  0  0
  2 90  1  0  0  0
  3  4  1  0  0  0
  3 91  1  0  0  0
  3 92  1  0  0  0
  4  5  1  0  0  0
  4 93  1  0  0  0
  4 94  1  0  0  0
  5  6  1  0  0  0
  5 26  1  0  0  0
  5 95  1  0  0  0
  6 25  1  0  0  0
  6 96  1  0  0  0
  6 97  1  0  0  0
  7  8  2  0  0  0
  7 26  1  0  0  0
  7 29  1  0  0  0
  8  9  1  0  0  0
  8 22  1  0  0  0
  9 10  1  0  0  0
  9 27  2  0  0  0
 10 11  2  0  0  0
 10 15  1  0  0  0
 11 12  1  0  0  0
 11 98  1  0  0  0
 12 13  2  0  0  0
 12 99  1  0  0  0
 13 14  1  0  0  0
 13 31  1  0  0  0
 14 15  2  0  0  0
 14100  1  0  0  0
 15101  1  0  0  0
 16 17  2  0  0  0
 16 21  1  0  0  0
 16 31  1  0  0  0
 17 18  1  0  0  0
 17102  1  0  0  0
 18 19  2  0  0  0
 18103  1  0  0  0
 19 20  1  0  0  0
 19 24  1  0  0  0
 20 21  2  0  0  0
 20104  1  0  0  0
 21 23  1  0  0  0
 22 28  1  0  0  0
 22 32  2  0  0  0
 26 27  1  0  0  0
 28105  1  0  0  0
 28106  1  0  0  0
 29107  1  0  0  0
 29108  1  0  0  0
 33 34  1  0  0  0
 33 66  1  0  0  0
 33 70  2  0  0  0
 34 36  1  0  0  0
 34 59  1  0  0  0
 34109  1  0  0  0
 35 44  2  0  0  0
 35 45  1  0  0  0
 35 68  1  0  0  0
 36 56  1  0  0  0
 36110  1  0  0  0
 37 39  1  0  0  0
 37 47  1  0  0  0
 37 66  1  0  0  0
 37111  1  0  0  0
 38 43  2  0  0  0
 38 46  1  0  0  0
 38 47  1  0  0  0
 39 64  1  0  0  0
 39 67  2  0  0  0
 40 52  1  0  0  0
 40 53  2  0  0  0
 40 58  1  0  0  0
 41112  1  0  0  0
 41113  1  0  0  0
 41114  1  0  0  0
 41 48  1  0  0  0
 42 43  1  0  0  0
 42 66  1  0  0  0
 42115  1  0  0  0
 42116  1  0  0  0
 43 44  1  0  0  0
 44117  1  0  0  0
 45 46  2  0  0  0
 45118  1  0  0  0
 46119  1  0  0  0
 47120  1  0  0  0
 47121  1  0  0  0
 48 56  1  0  0  0
 48 65  1  0  0  0
 48122  1  0  0  0
 49 50  1  0  0  0
 49 53  1  0  0  0
 49 64  1  0  0  0
 49123  1  0  0  0
 50 51  1  0  0  0
 50124  1  0  0  0
 50125  1  0  0  0
 51 52  1  0  0  0
 51126  1  0  0  0
 51127  1  0  0  0
 52128  1  0  0  0
 52129  1  0  0  0
 53 54  1  0  0  0
 54 55  2  0  0  0
 54130  1  0  0  0
 55 57  1  0  0  0
 55131  1  0  0  0
 56 69  2  0  0  0
 57 58  2  0  0  0
 57132  1  0  0  0
 58133  1  0  0  0
 59 60  1  0  0  0
 59 61  1  0  0  0
 59 62  1  0  0  0
 60134  1  0  0  0
 60135  1  0  0  0
 60136  1  0  0  0
 61137  1  0  0  0
 61138  1  0  0  0
 61139  1  0  0  0
 62140  1  0  0  0
 62141  1  0  0  0
 62142  1  0  0  0
 63 65  1  0  0  0
 63143  1  0  0  0
 63144  1  0  0  0
 63145  1  0  0  0
 64146  1  0  0  0
 65147  1  0  0  0
 68 80  1  0  0  0
 71 72  1  0  0  0
 71 74  2  0  0  0
 71148  1  0  0  0
 72 73  2  0  0  0
 72 86  1  0  0  0
 73 88  1  0  0  0
 73 79  1  0  0  0
 74 85  1  0  0  0
 74 88  1  0  0  0
 75 76  1  0  0  0
 75 80  1  0  0  0
 75 87  2  0  0  0
 76 85  1  0  0  0
 76149  1  0  0  0
 76150  1  0  0  0
 77 78  1  0  0  0
 77 79  1  0  0  0
 77151  1  0  0  0
 77152  1  0  0  0
 78 79  1  0  0  0
 78153  1  0  0  0
 78154  1  0  0  0
 79155  1  0  0  0
 80 81  1  0  0  0
 80156  1  0  0  0
 81 83  1  0  0  0
 81 85  1  0  0  0
 81157  1  0  0  0
 82 84  1  0  0  0
 82158  1  0  0  0
 82159  1  0  0  0
 82160  1  0  0  0
 83 84  1  0  0  0
 83161  1  0  0  0
 83162  1  0  0  0
 84163  1  0  0  0
 84164  1  0  0  0
 86165  1  0  0  0
M  ISO  4   1 100  68 101  80 101  86 100
M  END
> <chiral flag>
0

> <version>
0

> <s_m_source_file>
/data/baiqing/PycharmProjects/Reinvent-master-3.2/result/LINK_invent/BTK/process_docking_weight1_custom_product_contain_oxygen_bond_distance_aromatic_linkinvent_7_9_3/rearranged_h_0155.sdf

> <i_m_source_file_index>
32

> <r_mmod_Potential_Energy-OPLS-2005>
896.410583496094

> <r_mmod_Stretch_Energy-OPLS-2005>
365.98291015625

> <r_mmod_Bend_Energy-OPLS-2005>
380.656677246094

> <r_mmod_Torsional_Energy-OPLS-2005>
269.597198486328

> <r_mmod_Improper_Torsional_Energy-OPLS-2005>
6.71593379974365

> <r_mmod_Van_der_Waal_Energy-OPLS-2005>
102.401336669922

> <r_mmod_Electrostatic_Energy-OPLS-2005>
-271.575805664062

> <r_mmod_Solvation_Energy-OPLS-2005>
-237.2080078125

> <b_mmod_Minimization_Converged-OPLS-2005>
0

> <r_mmod_RMS_Derivative-OPLS-2005>
5.32923269271851

$$$$
32
                    3D
 Structure written by MMmdl.
152160  0  0  1  0            999 V2000
  -30.5979  -14.7130   20.4331 C   0  0  0  0  0  0
  -30.4348  -12.4297   19.4749 C   0  0  0  0  0  0
  -29.5182  -12.5118   18.2324 C   0  0  0  0  0  0
  -28.0369  -12.3552   18.6328 C   0  0  0  0  0  0
  -27.6460  -13.2349   19.8526 C   0  0  2  0  0  0
  -28.6876  -13.1358   20.9893 C   0  0  0  0  0  0
  -25.2513  -13.8207   20.5677 C   0  0  0  0  0  0
  -24.1800  -13.0459   20.9203 C   0  0  0  0  0  0
  -24.6388  -11.6936   20.8729 C   0  0  0  0  0  0
  -23.9070  -10.4306   21.0388 C   0  0  0  0  0  0
  -24.3626   -9.4232   21.9163 C   0  0  0  0  0  0
  -23.6303   -8.2250   22.0738 C   0  0  0  0  0  0
  -22.4279   -8.0273   21.3534 C   0  0  0  0  0  0
  -21.9916   -9.0254   20.4647 C   0  0  0  0  0  0
  -22.7248  -10.2125   20.3053 C   0  0  0  0  0  0
  -21.6844   -6.0740   22.5274 C   0  0  0  0  0  0
  -21.4026   -6.5647   23.8207 C   0  0  0  0  0  0
  -21.3674   -5.6797   24.9164 C   0  0  0  0  0  0
  -21.6040   -4.3053   24.7218 C   0  0  0  0  0  0
  -21.8827   -3.8147   23.4334 C   0  0  0  0  0  0
  -21.9186   -4.6972   22.3392 C   0  0  0  0  0  0
  -22.7818  -13.5234   21.1866 C   0  0  0  0  0  0
  -22.1661   -4.2173   21.0968 F   0  0  0  0  0  0
  -21.5625   -3.4530   25.7725 F   0  0  0  0  0  0
  -29.9960  -13.4794   20.4199 N   0  0  0  0  0  0
  -26.2953  -12.9417   20.3270 N   0  0  0  0  0  0
  -25.9323  -11.6560   20.5713 N   0  0  0  0  0  0
  -22.0463  -12.8234   22.0416 N   0  0  0  0  0  0
  -25.4213  -15.1923   20.4138 N   0  0  0  0  0  0
  -31.7780  -14.8306   20.0842 O   0  0  0  0  0  0
  -21.6646   -6.8865   21.4223 O   0  0  0  0  0  0
  -22.3498  -14.5527   20.6705 O   0  0  0  0  0  0
  -24.6273  -31.8589   23.2008 C   0  0  0  0  0  0
  -25.9123  -32.4763   23.8348 C   0  0  1  0  0  0
  -27.2171  -27.2979   20.1185 C   0  0  0  0  0  0
  -25.5928  -33.8569   24.2257 N   0  0  0  0  0  0
  -23.4207  -30.4863   21.5428 C   0  0  2  0  0  0
  -24.8683  -28.9441   20.1085 C   0  0  0  0  0  0
  -22.7478  -29.4623   22.4894 C   0  0  0  0  0  0
  -18.0293  -28.1365   22.8475 C   0  0  0  0  0  0
  -24.1496  -36.7311   23.2635 C   0  0  0  0  0  0
  -25.9663  -30.7851   21.3760 C   0  0  0  0  0  0
  -26.0395  -29.4119   20.7175 C   0  0  0  0  0  0
  -27.2171  -28.6006   20.7159 C   0  0  0  0  0  0
  -26.0216  -26.9030   19.4701 C   0  0  0  0  0  0
  -24.8623  -27.6949   19.4780 C   0  0  0  0  0  0
  -23.6368  -29.8238   20.1574 C   0  0  0  0  0  0
  -25.4115  -36.3065   24.0317 C   0  0  1  0  0  0
  -20.5897  -28.3662   23.1267 C   0  0  2  0  0  0
  -20.6771  -26.9375   22.5400 C   0  0  0  0  0  0
  -19.5744  -26.6352   21.5196 C   0  0  0  0  0  0
  -18.1932  -26.7905   22.1620 C   0  0  0  0  0  0
  -19.1549  -28.8834   23.2871 C   0  0  0  0  0  0
  -18.9475  -30.1443   23.8878 C   0  0  0  0  0  0
  -17.6470  -30.6562   24.0555 C   0  0  0  0  0  0
  -25.9043  -34.9442   23.5073 C   0  0  0  0  0  0
  -16.5359  -29.9052   23.6334 C   0  0  0  0  0  0
  -16.7280  -28.6479   23.0336 C   0  0  0  0  0  0
  -26.4478  -31.6584   25.0743 C   0  0  0  0  0  0
  -25.3706  -31.3788   26.1478 C   0  0  0  0  0  0
  -27.0311  -30.2982   24.6249 C   0  0  0  0  0  0
  -27.5988  -32.4348   25.7550 C   0  0  0  0  0  0
  -27.5577  -37.1809   24.8448 C   0  0  0  0  0  0
  -21.4184  -29.3038   22.3661 N   0  0  0  0  0  0
  -26.4284  -37.3766   23.9396 N   0  0  0  0  0  0
  -24.6901  -31.0614   22.0950 N   0  0  0  0  0  0
  -23.4204  -28.8135   23.2949 O   0  0  0  0  0  0
  -28.3062  -26.4028   20.1891 O   0  0  0  0  0  0
  -26.5622  -34.8915   22.4646 O   0  0  0  0  0  0
  -23.5431  -32.1392   23.7326 O   0  0  0  0  0  0
  -30.3040  -18.5263   18.0531 C   0  0  0  0  0  0
  -29.9261  -19.7129   18.7135 C   0  0  0  0  0  0
  -30.2875  -17.2825   18.7125 C   0  0  0  0  0  0
  -29.4720  -18.4034   20.7082 C   0  0  0  0  0  0
  -29.4933  -19.7049   20.0605 C   0  0  0  0  0  0
  -29.8862  -17.1698   20.0651 C   0  0  0  0  0  0
  -29.1187  -21.0486   20.7405 C   0  0  0  0  0  0
  -28.9834  -23.8268   20.3726 C   0  0  0  0  0  0
  -28.6603  -22.3354   19.9097 C   0  0  0  0  0  0
  -28.0060  -24.9714   19.8836 C   0  0  0  0  0  0
  -29.0976  -21.1093   22.0060 N   0  0  0  0  0  0
  -29.8142  -15.8274   20.6763 N   0  0  0  0  0  0
  -29.9891  -24.1037   21.0391 O   0  0  0  0  0  0
  -31.4812  -12.5459   19.1858 H   0  0  0  0  0  0
  -30.3629  -11.4471   19.9451 H   0  0  0  0  0  0
  -29.7991  -11.7471   17.5091 H   0  0  0  0  0  0
  -29.6628  -13.4681   17.7287 H   0  0  0  0  0  0
  -27.8719  -11.3037   18.8679 H   0  0  0  0  0  0
  -27.3923  -12.5828   17.7815 H   0  0  0  0  0  0
  -27.6523  -14.2637   19.4904 H   0  0  0  0  0  0
  -28.7115  -12.1294   21.4097 H   0  0  0  0  0  0
  -28.4309  -13.8024   21.8128 H   0  0  0  0  0  0
  -25.2764   -9.5727   22.4737 H   0  0  0  0  0  0
  -24.0043   -7.4651   22.7444 H   0  0  0  0  0  0
  -21.0849   -8.8761   19.8946 H   0  0  0  0  0  0
  -22.3695  -10.9658   19.6160 H   0  0  0  0  0  0
  -21.2044   -7.6156   23.9727 H   0  0  0  0  0  0
  -21.1481   -6.0512   25.9068 H   0  0  0  0  0  0
  -22.0595   -2.7621   23.2809 H   0  0  0  0  0  0
  -22.4094  -11.9936   22.4876 H   0  0  0  0  0  0
  -21.1053  -13.1227   22.2582 H   0  0  0  0  0  0
  -24.6575  -15.8482   20.5353 H   0  0  0  0  0  0
  -26.2685  -15.6298   20.0764 H   0  0  0  0  0  0
  -26.7196  -32.5424   23.1095 H   0  0  0  0  0  0
  -25.0062  -33.9725   25.0395 H   0  0  0  0  0  0
  -22.7138  -31.3067   21.3990 H   0  0  0  0  0  0
  -23.3728  -35.9663   23.3269 H   0  0  0  0  0  0
  -24.3593  -36.8975   22.2052 H   0  0  0  0  0  0
  -23.7288  -37.6518   23.6697 H   0  0  0  0  0  0
  -26.1075  -31.5484   20.6095 H   0  0  0  0  0  0
  -26.8427  -30.8303   22.0110 H   0  0  0  0  0  0
  -28.1119  -28.9539   21.2108 H   0  0  0  0  0  0
  -25.9376  -25.9587   18.9561 H   0  0  0  0  0  0
  -23.9657  -27.3322   18.9964 H   0  0  0  0  0  0
  -23.7522  -30.6006   19.3992 H   0  0  0  0  0  0
  -22.7571  -29.2508   19.8562 H   0  0  0  0  0  0
  -25.1286  -36.1887   25.0806 H   0  0  0  0  0  0
  -21.0019  -28.3237   24.1371 H   0  0  0  0  0  0
  -20.5639  -26.2267   23.3599 H   0  0  0  0  0  0
  -21.6646  -26.7365   22.1218 H   0  0  0  0  0  0
  -19.6894  -25.6252   21.1249 H   0  0  0  0  0  0
  -19.6690  -27.3146   20.6709 H   0  0  0  0  0  0
  -17.4195  -26.6637   21.4037 H   0  0  0  0  0  0
  -18.0344  -26.0052   22.9018 H   0  0  0  0  0  0
  -19.7951  -30.7274   24.2208 H   0  0  0  0  0  0
  -17.5021  -31.6246   24.5146 H   0  0  0  0  0  0
  -15.5360  -30.2935   23.7674 H   0  0  0  0  0  0
  -15.8688  -28.0802   22.7025 H   0  0  0  0  0  0
  -24.5813  -30.7202   25.7844 H   0  0  0  0  0  0
  -24.8993  -32.3000   26.4915 H   0  0  0  0  0  0
  -25.8026  -30.8955   27.0248 H   0  0  0  0  0  0
  -26.2903  -29.6754   24.1224 H   0  0  0  0  0  0
  -27.3894  -29.7233   25.4796 H   0  0  0  0  0  0
  -27.8822  -30.4208   23.9553 H   0  0  0  0  0  0
  -27.2506  -33.3604   26.2149 H   0  0  0  0  0  0
  -28.3810  -32.6992   25.0428 H   0  0  0  0  0  0
  -28.0642  -31.8487   26.5483 H   0  0  0  0  0  0
  -28.2551  -38.0142   24.7493 H   0  0  0  0  0  0
  -28.1114  -36.2668   24.6242 H   0  0  0  0  0  0
  -27.2316  -37.1426   25.8860 H   0  0  0  0  0  0
  -20.9317  -29.8806   21.6940 H   0  0  0  0  0  0
  -26.0143  -38.2832   24.1384 H   0  0  0  0  0  0
  -30.6103  -18.5747   17.0158 H   0  0  0  0  0  0
  -29.9863  -20.6338   18.1569 H   0  0  0  0  0  0
  -30.5721  -16.4040   18.1525 H   0  0  0  0  0  0
  -29.1263  -18.3527   21.7309 H   0  0  0  0  0  0
  -27.5750  -22.2778   19.8162 H   0  0  0  0  0  0
  -29.0251  -22.2614   18.8892 H   0  0  0  0  0  0
  -27.0424  -24.7130   20.3217 H   0  0  0  0  0  0
  -27.9106  -24.8721   18.8022 H   0  0  0  0  0  0
  -29.3887  -20.2317   22.4239 H   0  0  0  0  0  0
  -28.9565  -15.6373   21.1748 H   0  0  0  0  0  0
  1 25  1  0  0  0
  1 30  2  0  0  0
  1 82  1  0  0  0
  2  3  1  0  0  0
  2 25  1  0  0  0
  2 84  1  0  0  0
  2 85  1  0  0  0
  3  4  1  0  0  0
  3 86  1  0  0  0
  3 87  1  0  0  0
  4  5  1  0  0  0
  4 88  1  0  0  0
  4 89  1  0  0  0
  5  6  1  0  0  0
  5 26  1  0  0  0
  5 90  1  0  0  0
  6 25  1  0  0  0
  6 91  1  0  0  0
  6 92  1  0  0  0
  7  8  2  0  0  0
  7 26  1  0  0  0
  7 29  1  0  0  0
  8  9  1  0  0  0
  8 22  1  0  0  0
  9 10  1  0  0  0
  9 27  2  0  0  0
 10 11  2  0  0  0
 10 15  1  0  0  0
 11 12  1  0  0  0
 11 93  1  0  0  0
 12 13  2  0  0  0
 12 94  1  0  0  0
 13 14  1  0  0  0
 13 31  1  0  0  0
 14 15  2  0  0  0
 14 95  1  0  0  0
 15 96  1  0  0  0
 16 17  2  0  0  0
 16 21  1  0  0  0
 16 31  1  0  0  0
 17 18  1  0  0  0
 17 97  1  0  0  0
 18 19  2  0  0  0
 18 98  1  0  0  0
 19 20  1  0  0  0
 19 24  1  0  0  0
 20 21  2  0  0  0
 20 99  1  0  0  0
 21 23  1  0  0  0
 22 28  1  0  0  0
 22 32  2  0  0  0
 26 27  1  0  0  0
 28100  1  0  0  0
 28101  1  0  0  0
 29102  1  0  0  0
 29103  1  0  0  0
 33 34  1  0  0  0
 33 66  1  0  0  0
 33 70  2  0  0  0
 34 36  1  0  0  0
 34 59  1  0  0  0
 34104  1  0  0  0
 35 44  2  0  0  0
 35 45  1  0  0  0
 35 68  1  0  0  0
 36 56  1  0  0  0
 36105  1  0  0  0
 37 39  1  0  0  0
 37 47  1  0  0  0
 37 66  1  0  0  0
 37106  1  0  0  0
 38 43  2  0  0  0
 38 46  1  0  0  0
 38 47  1  0  0  0
 39 64  1  0  0  0
 39 67  2  0  0  0
 40 52  1  0  0  0
 40 53  2  0  0  0
 40 58  1  0  0  0
 41107  1  0  0  0
 41108  1  0  0  0
 41109  1  0  0  0
 41 48  1  0  0  0
 42 43  1  0  0  0
 42 66  1  0  0  0
 42110  1  0  0  0
 42111  1  0  0  0
 43 44  1  0  0  0
 44112  1  0  0  0
 45 46  2  0  0  0
 45113  1  0  0  0
 46114  1  0  0  0
 47115  1  0  0  0
 47116  1  0  0  0
 48 56  1  0  0  0
 48 65  1  0  0  0
 48117  1  0  0  0
 49 50  1  0  0  0
 49 53  1  0  0  0
 49 64  1  0  0  0
 49118  1  0  0  0
 50 51  1  0  0  0
 50119  1  0  0  0
 50120  1  0  0  0
 51 52  1  0  0  0
 51121  1  0  0  0
 51122  1  0  0  0
 52123  1  0  0  0
 52124  1  0  0  0
 53 54  1  0  0  0
 54 55  2  0  0  0
 54125  1  0  0  0
 55 57  1  0  0  0
 55126  1  0  0  0
 56 69  2  0  0  0
 57 58  2  0  0  0
 57127  1  0  0  0
 58128  1  0  0  0
 59 60  1  0  0  0
 59 61  1  0  0  0
 59 62  1  0  0  0
 60129  1  0  0  0
 60130  1  0  0  0
 60131  1  0  0  0
 61132  1  0  0  0
 61133  1  0  0  0
 61134  1  0  0  0
 62135  1  0  0  0
 62136  1  0  0  0
 62137  1  0  0  0
 63 65  1  0  0  0
 63138  1  0  0  0
 63139  1  0  0  0
 63140  1  0  0  0
 64141  1  0  0  0
 65142  1  0  0  0
 68 80  1  0  0  0
 71 72  2  0  0  0
 71 73  1  0  0  0
 71143  1  0  0  0
 72 75  1  0  0  0
 72144  1  0  0  0
 73 76  2  0  0  0
 73145  1  0  0  0
 74 75  2  0  0  0
 74 76  1  0  0  0
 74146  1  0  0  0
 75 77  1  0  0  0
 76 82  1  0  0  0
 77 79  1  0  0  0
 77 81  2  0  0  0
 78 79  1  0  0  0
 78 80  1  0  0  0
 78 83  2  0  0  0
 79147  1  0  0  0
 79148  1  0  0  0
 80149  1  0  0  0
 80150  1  0  0  0
 81151  1  0  0  0
 82152  1  0  0  0
M  ISO  4   1 100  68 101  80 101  82 100
M  END
> <chiral flag>
0

> <version>
0

> <s_m_source_file>
/data/baiqing/PycharmProjects/Reinvent-master-3.2/result/LINK_invent/BTK/process_docking_weight1_custom_product_contain_oxygen_bond_distance_aromatic_linkinvent_7_9_3/rearranged_h_0155.sdf

> <i_m_source_file_index>
33

> <r_mmod_Potential_Energy-OPLS-2005>
115.33260345459

> <r_mmod_Stretch_Energy-OPLS-2005>
105.836242675781

> <r_mmod_Bend_Energy-OPLS-2005>
147.298355102539

> <r_mmod_Torsional_Energy-OPLS-2005>
233.508346557617

> <r_mmod_Improper_Torsional_Energy-OPLS-2005>
5.55439901351929

> <r_mmod_Van_der_Waal_Energy-OPLS-2005>
148.938705444336

> <r_mmod_Electrostatic_Energy-OPLS-2005>
-340.094177246094

> <r_mmod_Solvation_Energy-OPLS-2005>
-257.658905029297

> <b_mmod_Minimization_Converged-OPLS-2005>
0

> <r_mmod_RMS_Derivative-OPLS-2005>
3.30605626106262

$$$$
33
                    3D
 Structure written by MMmdl.
157166  0  0  1  0            999 V2000
  -30.6021  -14.6065   20.5439 C   0  0  0  0  0  0
  -30.4569  -12.3858   19.4267 C   0  0  0  0  0  0
  -29.5066  -12.5100   18.2127 C   0  0  0  0  0  0
  -28.0298  -12.3477   18.6303 C   0  0  0  0  0  0
  -27.6626  -13.2012   19.8720 C   0  0  2  0  0  0
  -28.7106  -12.9975   20.9899 C   0  0  0  0  0  0
  -25.2616  -13.8140   20.5673 C   0  0  0  0  0  0
  -24.1863  -13.0431   20.9186 C   0  0  0  0  0  0
  -24.6409  -11.6895   20.8748 C   0  0  0  0  0  0
  -23.9069  -10.4283   21.0413 C   0  0  0  0  0  0
  -24.3614   -9.4203   21.9201 C   0  0  0  0  0  0
  -23.6285   -8.2239   22.0772 C   0  0  0  0  0  0
  -22.4272   -8.0275   21.3548 C   0  0  0  0  0  0
  -21.9906   -9.0256   20.4655 C   0  0  0  0  0  0
  -22.7238  -10.2133   20.3063 C   0  0  0  0  0  0
  -21.6846   -6.0732   22.5279 C   0  0  0  0  0  0
  -21.4006   -6.5638   23.8213 C   0  0  0  0  0  0
  -21.3653   -5.6792   24.9178 C   0  0  0  0  0  0
  -21.6040   -4.3055   24.7225 C   0  0  0  0  0  0
  -21.8822   -3.8145   23.4349 C   0  0  0  0  0  0
  -21.9195   -4.6962   22.3405 C   0  0  0  0  0  0
  -22.7885  -13.5245   21.1830 C   0  0  0  0  0  0
  -22.1663   -4.2147   21.0982 F   0  0  0  0  0  0
  -21.5630   -3.4539   25.7739 F   0  0  0  0  0  0
  -30.0284  -13.3679   20.4397 N   0  0  0  0  0  0
  -26.3044  -12.9289   20.3355 N   0  0  0  0  0  0
  -25.9335  -11.6458   20.5781 N   0  0  0  0  0  0
  -22.0500  -12.8245   22.0370 N   0  0  0  0  0  0
  -25.4363  -15.1855   20.4063 N   0  0  0  0  0  0
  -31.7336  -14.8495   20.1110 O   0  0  0  0  0  0
  -21.6634   -6.8875   21.4241 O   0  0  0  0  0  0
  -22.3587  -14.5555   20.6678 O   0  0  0  0  0  0
  -24.6210  -31.8621   23.2030 C   0  0  0  0  0  0
  -25.9057  -32.4822   23.8357 C   0  0  1  0  0  0
  -27.2301  -27.3477   20.1218 C   0  0  0  0  0  0
  -25.5898  -33.8614   24.2295 N   0  0  0  0  0  0
  -23.4154  -30.4847   21.5449 C   0  0  2  0  0  0
  -24.8649  -28.9420   20.1130 C   0  0  0  0  0  0
  -22.7470  -29.4620   22.4940 C   0  0  0  0  0  0
  -18.0286  -28.1377   22.8501 C   0  0  0  0  0  0
  -24.1483  -36.7293   23.2647 C   0  0  0  0  0  0
  -25.9520  -30.8044   21.3671 C   0  0  0  0  0  0
  -26.0306  -29.4301   20.7189 C   0  0  0  0  0  0
  -27.2173  -28.6445   20.7131 C   0  0  0  0  0  0
  -26.0471  -26.9081   19.4866 C   0  0  0  0  0  0
  -24.8742  -27.6854   19.4877 C   0  0  0  0  0  0
  -23.6309  -29.8183   20.1608 C   0  0  0  0  0  0
  -25.4109  -36.3107   24.0343 C   0  0  1  0  0  0
  -20.5887  -28.3669   23.1301 C   0  0  2  0  0  0
  -20.6768  -26.9397   22.5404 C   0  0  0  0  0  0
  -19.5749  -26.6384   21.5207 C   0  0  0  0  0  0
  -18.1929  -26.7927   22.1620 C   0  0  0  0  0  0
  -19.1537  -28.8837   23.2913 C   0  0  0  0  0  0
  -18.9465  -30.1440   23.8932 C   0  0  0  0  0  0
  -17.6463  -30.6588   24.0568 C   0  0  0  0  0  0
  -25.9035  -34.9481   23.5115 C   0  0  0  0  0  0
  -16.5358  -29.9086   23.6335 C   0  0  0  0  0  0
  -16.7269  -28.6501   23.0356 C   0  0  0  0  0  0
  -26.4462  -31.6622   25.0707 C   0  0  0  0  0  0
  -25.3711  -31.3711   26.1448 C   0  0  0  0  0  0
  -27.0317  -30.3083   24.6077 C   0  0  0  0  0  0
  -27.6031  -32.4349   25.7472 C   0  0  0  0  0  0
  -27.5581  -37.1808   24.8479 C   0  0  0  0  0  0
  -21.4182  -29.3039   22.3708 N   0  0  0  0  0  0
  -26.4289  -37.3798   23.9425 N   0  0  0  0  0  0
  -24.6822  -31.0652   22.0974 N   0  0  0  0  0  0
  -23.4222  -28.8156   23.2987 O   0  0  0  0  0  0
  -28.3584  -26.5244   20.1374 O   0  0  0  0  0  0
  -26.5600  -34.8940   22.4683 O   0  0  0  0  0  0
  -23.5375  -32.1393   23.7366 O   0  0  0  0  0  0
  -30.4900  -17.9682   20.5683 C   0  0  0  0  0  0
  -30.0133  -19.3164   20.8888 C   0  0  0  0  0  0
  -29.6957  -16.9334   21.0643 C   0  0  0  0  0  0
  -28.8432  -19.2611   21.5897 C   0  0  0  0  0  0
  -30.7974  -20.5719   20.6182 C   0  0  0  0  0  0
  -30.6438  -24.3142   20.5179 C   0  0  0  0  0  0
  -31.3634  -22.9788   20.2675 C   0  0  0  0  0  0
  -29.0292  -22.5496   20.5377 C   0  0  0  0  0  0
  -29.2107  -24.0504   20.0738 C   0  0  1  0  0  0
  -28.1720  -25.1304   20.5789 C   0  0  0  0  0  0
  -30.3741  -21.8929   20.4719 N   0  0  0  0  0  0
  -29.7629  -15.5520   21.0536 N   0  0  0  0  0  0
  -32.1264  -20.3606   20.5387 N   0  3  0  0  0  0
  -28.1745  -20.3250   22.0923 F   0  0  0  0  0  0
  -28.2945  -17.6335   21.8688 S   0  0  0  0  0  0
  -31.4887  -12.5501   19.1112 H   0  0  0  0  0  0
  -30.4278  -11.3775   19.8418 H   0  0  0  0  0  0
  -29.7628  -11.7640   17.4586 H   0  0  0  0  0  0
  -29.6443  -13.4823   17.7365 H   0  0  0  0  0  0
  -27.8629  -11.2924   18.8488 H   0  0  0  0  0  0
  -27.3714  -12.5905   17.7953 H   0  0  0  0  0  0
  -27.6968  -14.2441   19.5570 H   0  0  0  0  0  0
  -28.7249  -11.9550   21.3104 H   0  0  0  0  0  0
  -28.4522  -13.5665   21.8837 H   0  0  0  0  0  0
  -25.2758   -9.5672   22.4782 H   0  0  0  0  0  0
  -23.9984   -7.4630   22.7495 H   0  0  0  0  0  0
  -21.0838   -8.8773   19.8962 H   0  0  0  0  0  0
  -22.3704  -10.9672   19.6167 H   0  0  0  0  0  0
  -21.1988   -7.6146   23.9714 H   0  0  0  0  0  0
  -21.1471   -6.0525   25.9081 H   0  0  0  0  0  0
  -22.0607   -2.7606   23.2851 H   0  0  0  0  0  0
  -22.4075  -11.9878   22.4739 H   0  0  0  0  0  0
  -21.1126  -13.1300   22.2560 H   0  0  0  0  0  0
  -24.6690  -15.8403   20.5102 H   0  0  0  0  0  0
  -26.2798  -15.6183   20.0530 H   0  0  0  0  0  0
  -26.7123  -32.5513   23.1104 H   0  0  0  0  0  0
  -25.0101  -33.9779   25.0478 H   0  0  0  0  0  0
  -22.7064  -31.3022   21.4001 H   0  0  0  0  0  0
  -23.3773  -35.9600   23.3314 H   0  0  0  0  0  0
  -24.3579  -36.8884   22.2060 H   0  0  0  0  0  0
  -23.7190  -37.6482   23.6648 H   0  0  0  0  0  0
  -26.0634  -31.5611   20.5889 H   0  0  0  0  0  0
  -26.8395  -30.8678   21.9846 H   0  0  0  0  0  0
  -28.1129  -29.0157   21.1913 H   0  0  0  0  0  0
  -26.0183  -25.9541   18.9796 H   0  0  0  0  0  0
  -23.9831  -27.3121   19.0009 H   0  0  0  0  0  0
  -23.7443  -30.5934   19.4024 H   0  0  0  0  0  0
  -22.7547  -29.2407   19.8621 H   0  0  0  0  0  0
  -25.1271  -36.1972   25.0831 H   0  0  0  0  0  0
  -20.9984  -28.3216   24.1414 H   0  0  0  0  0  0
  -20.5674  -26.2263   23.3586 H   0  0  0  0  0  0
  -21.6638  -26.7434   22.1187 H   0  0  0  0  0  0
  -19.6921  -25.6304   21.1212 H   0  0  0  0  0  0
  -19.6703  -27.3217   20.6767 H   0  0  0  0  0  0
  -17.4203  -26.6706   21.4008 H   0  0  0  0  0  0
  -18.0325  -26.0042   22.8996 H   0  0  0  0  0  0
  -19.7940  -30.7239   24.2324 H   0  0  0  0  0  0
  -17.5028  -31.6278   24.5144 H   0  0  0  0  0  0
  -15.5358  -30.2994   23.7668 H   0  0  0  0  0  0
  -15.8670  -28.0830   22.7064 H   0  0  0  0  0  0
  -24.5904  -30.7044   25.7766 H   0  0  0  0  0  0
  -24.8884  -32.2857   26.4901 H   0  0  0  0  0  0
  -25.8044  -30.8877   27.0212 H   0  0  0  0  0  0
  -26.2872  -29.6840   24.1127 H   0  0  0  0  0  0
  -27.4131  -29.7302   25.4498 H   0  0  0  0  0  0
  -27.8669  -30.4445   23.9202 H   0  0  0  0  0  0
  -27.2665  -33.3667   26.2024 H   0  0  0  0  0  0
  -28.3853  -32.6882   25.0305 H   0  0  0  0  0  0
  -28.0693  -31.8495   26.5403 H   0  0  0  0  0  0
  -28.2591  -38.0117   24.7542 H   0  0  0  0  0  0
  -28.1072  -36.2641   24.6271 H   0  0  0  0  0  0
  -27.2302  -37.1409   25.8884 H   0  0  0  0  0  0
  -20.9339  -29.8786   21.6958 H   0  0  0  0  0  0
  -26.0180  -38.2872   24.1446 H   0  0  0  0  0  0
  -31.4078  -17.8086   20.0212 H   0  0  0  0  0  0
  -31.0921  -25.1351   19.9567 H   0  0  0  0  0  0
  -30.6888  -24.5719   21.5767 H   0  0  0  0  0  0
  -32.2164  -22.8831   20.9401 H   0  0  0  0  0  0
  -31.7299  -22.9274   19.2412 H   0  0  0  0  0  0
  -28.3006  -22.0244   19.9195 H   0  0  0  0  0  0
  -28.6784  -22.5285   21.5688 H   0  0  0  0  0  0
  -29.1807  -24.0588   18.9829 H   0  0  0  0  0  0
  -28.1895  -25.1427   21.6694 H   0  0  0  0  0  0
  -27.1831  -24.7535   20.3238 H   0  0  0  0  0  0
  -28.9315  -15.1154   21.4227 H   0  0  0  0  0  0
  -32.5078  -19.4470   20.7321 H   0  0  0  0  0  0
  -32.7771  -21.1073   20.3546 H   0  0  0  0  0  0
  1 25  1  0  0  0
  1 30  2  0  0  0
  1 82  1  0  0  0
  2  3  1  0  0  0
  2 25  1  0  0  0
  2 86  1  0  0  0
  2 87  1  0  0  0
  3  4  1  0  0  0
  3 88  1  0  0  0
  3 89  1  0  0  0
  4  5  1  0  0  0
  4 90  1  0  0  0
  4 91  1  0  0  0
  5  6  1  0  0  0
  5 26  1  0  0  0
  5 92  1  0  0  0
  6 25  1  0  0  0
  6 93  1  0  0  0
  6 94  1  0  0  0
  7  8  2  0  0  0
  7 26  1  0  0  0
  7 29  1  0  0  0
  8  9  1  0  0  0
  8 22  1  0  0  0
  9 10  1  0  0  0
  9 27  2  0  0  0
 10 11  2  0  0  0
 10 15  1  0  0  0
 11 12  1  0  0  0
 11 95  1  0  0  0
 12 13  2  0  0  0
 12 96  1  0  0  0
 13 14  1  0  0  0
 13 31  1  0  0  0
 14 15  2  0  0  0
 14 97  1  0  0  0
 15 98  1  0  0  0
 16 17  2  0  0  0
 16 21  1  0  0  0
 16 31  1  0  0  0
 17 18  1  0  0  0
 17 99  1  0  0  0
 18 19  2  0  0  0
 18100  1  0  0  0
 19 20  1  0  0  0
 19 24  1  0  0  0
 20 21  2  0  0  0
 20101  1  0  0  0
 21 23  1  0  0  0
 22 28  1  0  0  0
 22 32  2  0  0  0
 26 27  1  0  0  0
 28102  1  0  0  0
 28103  1  0  0  0
 29104  1  0  0  0
 29105  1  0  0  0
 33 34  1  0  0  0
 33 66  1  0  0  0
 33 70  2  0  0  0
 34 36  1  0  0  0
 34 59  1  0  0  0
 34106  1  0  0  0
 35 44  2  0  0  0
 35 45  1  0  0  0
 35 68  1  0  0  0
 36 56  1  0  0  0
 36107  1  0  0  0
 37 39  1  0  0  0
 37 47  1  0  0  0
 37 66  1  0  0  0
 37108  1  0  0  0
 38 43  2  0  0  0
 38 46  1  0  0  0
 38 47  1  0  0  0
 39 64  1  0  0  0
 39 67  2  0  0  0
 40 52  1  0  0  0
 40 53  2  0  0  0
 40 58  1  0  0  0
 41109  1  0  0  0
 41110  1  0  0  0
 41111  1  0  0  0
 41 48  1  0  0  0
 42 43  1  0  0  0
 42 66  1  0  0  0
 42112  1  0  0  0
 42113  1  0  0  0
 43 44  1  0  0  0
 44114  1  0  0  0
 45 46  2  0  0  0
 45115  1  0  0  0
 46116  1  0  0  0
 47117  1  0  0  0
 47118  1  0  0  0
 48 56  1  0  0  0
 48 65  1  0  0  0
 48119  1  0  0  0
 49 50  1  0  0  0
 49 53  1  0  0  0
 49 64  1  0  0  0
 49120  1  0  0  0
 50 51  1  0  0  0
 50121  1  0  0  0
 50122  1  0  0  0
 51 52  1  0  0  0
 51123  1  0  0  0
 51124  1  0  0  0
 52125  1  0  0  0
 52126  1  0  0  0
 53 54  1  0  0  0
 54 55  2  0  0  0
 54127  1  0  0  0
 55 57  1  0  0  0
 55128  1  0  0  0
 56 69  2  0  0  0
 57 58  2  0  0  0
 57129  1  0  0  0
 58130  1  0  0  0
 59 60  1  0  0  0
 59 61  1  0  0  0
 59 62  1  0  0  0
 60131  1  0  0  0
 60132  1  0  0  0
 60133  1  0  0  0
 61134  1  0  0  0
 61135  1  0  0  0
 61136  1  0  0  0
 62137  1  0  0  0
 62138  1  0  0  0
 62139  1  0  0  0
 63 65  1  0  0  0
 63140  1  0  0  0
 63141  1  0  0  0
 63142  1  0  0  0
 64143  1  0  0  0
 65144  1  0  0  0
 68 80  1  0  0  0
 71 72  1  0  0  0
 71 73  2  0  0  0
 71145  1  0  0  0
 72 74  2  0  0  0
 72 75  1  0  0  0
 73 82  1  0  0  0
 73 85  1  0  0  0
 74 84  1  0  0  0
 74 85  1  0  0  0
 75 81  1  0  0  0
 75 83  2  0  0  0
 76 77  1  0  0  0
 76 79  1  0  0  0
 76146  1  0  0  0
 76147  1  0  0  0
 77 81  1  0  0  0
 77148  1  0  0  0
 77149  1  0  0  0
 78 79  1  0  0  0
 78 81  1  0  0  0
 78150  1  0  0  0
 78151  1  0  0  0
 79 80  1  0  0  0
 79152  1  0  0  0
 80153  1  0  0  0
 80154  1  0  0  0
 82155  1  0  0  0
 83156  1  0  0  0
 83157  1  0  0  0
M  CHG  1  83   1
M  ISO  4   1 100  68 101  80 101  82 100
M  END
> <chiral flag>
0

> <version>
0

> <s_m_source_file>
/data/baiqing/PycharmProjects/Reinvent-master-3.2/result/LINK_invent/BTK/process_docking_weight1_custom_product_contain_oxygen_bond_distance_aromatic_linkinvent_7_9_3/rearranged_h_0155.sdf

> <i_m_source_file_index>
34

> <r_mmod_Potential_Energy-OPLS-2005>
23.9435482025146

> <r_mmod_Stretch_Energy-OPLS-2005>
68.4017333984375

> <r_mmod_Bend_Energy-OPLS-2005>
196.316268920898

> <r_mmod_Torsional_Energy-OPLS-2005>
283.242248535156

> <r_mmod_Improper_Torsional_Energy-OPLS-2005>
4.09054565429688

> <r_mmod_Van_der_Waal_Energy-OPLS-2005>
130.371795654297

> <r_mmod_Electrostatic_Energy-OPLS-2005>
-244.621307373047

> <r_mmod_Solvation_Energy-OPLS-2005>
-451.692565917969

> <b_mmod_Minimization_Converged-OPLS-2005>
0

> <r_mmod_RMS_Derivative-OPLS-2005>
1.77247285842896

$$$$
34
                    3D
 Structure written by MMmdl.
161169  0  0  1  0            999 V2000
  -30.5940  -14.7675   20.4139 C   0  0  0  0  0  0
  -30.4362  -12.4577   19.4723 C   0  0  0  0  0  0
  -29.5193  -12.5208   18.2309 C   0  0  0  0  0  0
  -28.0497  -12.3275   18.6511 C   0  0  0  0  0  0
  -27.6491  -13.2293   19.8520 C   0  0  2  0  0  0
  -28.6952  -13.1702   20.9901 C   0  0  0  0  0  0
  -25.2565  -13.8159   20.5678 C   0  0  0  0  0  0
  -24.1876  -13.0435   20.9236 C   0  0  0  0  0  0
  -24.6448  -11.6910   20.8788 C   0  0  0  0  0  0
  -23.9086  -10.4276   21.0408 C   0  0  0  0  0  0
  -24.3612   -9.4187   21.9178 C   0  0  0  0  0  0
  -23.6344   -8.2190   22.0716 C   0  0  0  0  0  0
  -22.4311   -8.0275   21.3520 C   0  0  0  0  0  0
  -21.9911   -9.0197   20.4575 C   0  0  0  0  0  0
  -22.7222  -10.2100   20.3016 C   0  0  0  0  0  0
  -21.6830   -6.0703   22.5252 C   0  0  0  0  0  0
  -21.3987   -6.5595   23.8185 C   0  0  0  0  0  0
  -21.3701   -5.6759   24.9150 C   0  0  0  0  0  0
  -21.6086   -4.3029   24.7201 C   0  0  0  0  0  0
  -21.8841   -3.8109   23.4321 C   0  0  0  0  0  0
  -21.9191   -4.6925   22.3381 C   0  0  0  0  0  0
  -22.7867  -13.5219   21.1882 C   0  0  0  0  0  0
  -22.1670   -4.2119   21.0951 F   0  0  0  0  0  0
  -21.5665   -3.4525   25.7708 F   0  0  0  0  0  0
  -30.0036  -13.5199   20.4147 N   0  0  0  0  0  0
  -26.3002  -12.9360   20.3256 N   0  0  0  0  0  0
  -25.9399  -11.6507   20.5748 N   0  0  0  0  0  0
  -22.0512  -12.8207   22.0427 N   0  0  0  0  0  0
  -25.4159  -15.1873   20.4006 N   0  0  0  0  0  0
  -31.7617  -14.8927   20.0384 O   0  0  0  0  0  0
  -21.6667   -6.8889   21.4236 O   0  0  0  0  0  0
  -22.3537  -14.5495   20.6728 O   0  0  0  0  0  0
  -24.6393  -31.8623   23.1982 C   0  0  0  0  0  0
  -25.9245  -32.4788   23.8268 C   0  0  1  0  0  0
  -27.2383  -27.3107   20.0972 C   0  0  0  0  0  0
  -25.6087  -33.8573   24.2244 N   0  0  0  0  0  0
  -23.4388  -30.4850   21.5355 C   0  0  2  0  0  0
  -24.8838  -28.9224   20.1195 C   0  0  0  0  0  0
  -22.7557  -29.4710   22.4860 C   0  0  0  0  0  0
  -18.0311  -28.1519   22.8429 C   0  0  0  0  0  0
  -24.1493  -36.7275   23.2622 C   0  0  0  0  0  0
  -25.9776  -30.7776   21.3792 C   0  0  0  0  0  0
  -26.0494  -29.4005   20.7301 C   0  0  0  0  0  0
  -27.2357  -28.6016   20.7141 C   0  0  0  0  0  0
  -26.0539  -26.8905   19.4703 C   0  0  0  0  0  0
  -24.8849  -27.6703   19.4881 C   0  0  0  0  0  0
  -23.6596  -29.8121   20.1561 C   0  0  0  0  0  0
  -25.4121  -36.3078   24.0310 C   0  0  1  0  0  0
  -20.5922  -28.3841   23.1191 C   0  0  2  0  0  0
  -20.6787  -26.9540   22.5346 C   0  0  0  0  0  0
  -19.5740  -26.6430   21.5208 C   0  0  0  0  0  0
  -18.1939  -26.8026   22.1609 C   0  0  0  0  0  0
  -19.1557  -28.8969   23.2826 C   0  0  0  0  0  0
  -18.9500  -30.1574   23.8842 C   0  0  0  0  0  0
  -17.6499  -30.6662   24.0621 C   0  0  0  0  0  0
  -25.9087  -34.9466   23.5039 C   0  0  0  0  0  0
  -16.5392  -29.9219   23.6322 C   0  0  0  0  0  0
  -16.7299  -28.6666   23.0274 C   0  0  0  0  0  0
  -26.4614  -31.6650   25.0677 C   0  0  0  0  0  0
  -25.3850  -31.3844   26.1418 C   0  0  0  0  0  0
  -27.0439  -30.3013   24.6254 C   0  0  0  0  0  0
  -27.6118  -32.4502   25.7490 C   0  0  0  0  0  0
  -27.5585  -37.1796   24.8453 C   0  0  0  0  0  0
  -21.4233  -29.3216   22.3581 N   0  0  0  0  0  0
  -26.4273  -37.3807   23.9444 N   0  0  0  0  0  0
  -24.7032  -31.0591   22.0959 N   0  0  0  0  0  0
  -23.4219  -28.8211   23.2959 O   0  0  0  0  0  0
  -28.3757  -26.5046   19.9871 O   0  0  0  0  0  0
  -26.5597  -34.8984   22.4574 O   0  0  0  0  0  0
  -23.5522  -32.1478   23.7252 O   0  0  0  0  0  0
  -29.0678  -18.3170   20.7511 C   0  0  0  0  0  0
  -29.1470  -19.6115   20.0218 C   0  0  0  0  0  0
  -29.8121  -17.2155   20.2746 C   0  0  0  0  0  0
  -30.0121  -19.4481   18.9475 C   0  0  0  0  0  0
  -28.1272  -23.8691   18.3397 C   0  0  0  0  0  0
  -26.5515  -23.4883   20.2498 C   0  0  0  0  0  0
  -28.9192  -22.4337   20.3091 C   0  0  0  0  0  0
  -28.4561  -25.1453   20.5880 C   0  0  0  0  0  0
  -28.2820  -20.9336   20.2779 C   0  0  2  0  0  0
  -28.0335  -23.7438   19.8818 C   0  0  0  0  0  0
  -30.3521  -20.3699   17.9473 N   0  0  0  0  0  0
  -29.8153  -15.8767   20.7309 N   0  0  0  0  0  0
  -27.5091  -20.7554   21.5211 N   0  3  0  0  0  0
  -30.6879  -17.8076   18.8675 S   0  0  0  0  0  0
  -31.4756  -12.5948   19.1744 H   0  0  0  0  0  0
  -30.3856  -11.4660   19.9318 H   0  0  0  0  0  0
  -29.8080  -11.7496   17.5133 H   0  0  0  0  0  0
  -29.6448  -13.4791   17.7178 H   0  0  0  0  0  0
  -27.9526  -11.2769   18.9417 H   0  0  0  0  0  0
  -27.3720  -12.4776   17.8013 H   0  0  0  0  0  0
  -27.6453  -14.2517   19.4818 H   0  0  0  0  0  0
  -28.7270  -12.1802   21.4439 H   0  0  0  0  0  0
  -28.4246  -13.8640   21.7883 H   0  0  0  0  0  0
  -25.2757   -9.5702   22.4772 H   0  0  0  0  0  0
  -24.0054   -7.4561   22.7417 H   0  0  0  0  0  0
  -21.0821   -8.8695   19.8905 H   0  0  0  0  0  0
  -22.3668  -10.9625   19.6137 H   0  0  0  0  0  0
  -21.1952   -7.6096   23.9699 H   0  0  0  0  0  0
  -21.1541   -6.0463   25.9070 H   0  0  0  0  0  0
  -22.0613   -2.7581   23.2782 H   0  0  0  0  0  0
  -22.4110  -11.9924   22.4883 H   0  0  0  0  0  0
  -21.1045  -13.1144   22.2471 H   0  0  0  0  0  0
  -24.6195  -15.8139   20.4350 H   0  0  0  0  0  0
  -26.2330  -15.6090   19.9742 H   0  0  0  0  0  0
  -26.7304  -32.5466   23.1002 H   0  0  0  0  0  0
  -25.0410  -33.9623   25.0518 H   0  0  0  0  0  0
  -22.7465  -31.3139   21.3775 H   0  0  0  0  0  0
  -23.3816  -35.9552   23.3210 H   0  0  0  0  0  0
  -24.3565  -36.8951   22.2040 H   0  0  0  0  0  0
  -23.7164  -37.6399   23.6722 H   0  0  0  0  0  0
  -26.1145  -31.5297   20.5998 H   0  0  0  0  0  0
  -26.8547  -30.8304   22.0101 H   0  0  0  0  0  0
  -28.1441  -28.9657   21.1693 H   0  0  0  0  0  0
  -26.0396  -25.9649   18.9229 H   0  0  0  0  0  0
  -23.9977  -27.2991   18.9923 H   0  0  0  0  0  0
  -23.8067  -30.5854   19.4056 H   0  0  0  0  0  0
  -22.7830  -29.2504   19.8288 H   0  0  0  0  0  0
  -25.1315  -36.1822   25.0784 H   0  0  0  0  0  0
  -21.0035  -28.3394   24.1324 H   0  0  0  0  0  0
  -20.5684  -26.2496   23.3600 H   0  0  0  0  0  0
  -21.6661  -26.7551   22.1158 H   0  0  0  0  0  0
  -19.6923  -25.6331   21.1297 H   0  0  0  0  0  0
  -19.6661  -27.3172   20.6692 H   0  0  0  0  0  0
  -17.4220  -26.6771   21.4027 H   0  0  0  0  0  0
  -18.0347  -26.0213   22.9019 H   0  0  0  0  0  0
  -19.7987  -30.7426   24.2141 H   0  0  0  0  0  0
  -17.5073  -31.6289   24.5357 H   0  0  0  0  0  0
  -15.5388  -30.3147   23.7685 H   0  0  0  0  0  0
  -15.8703  -28.1048   22.6914 H   0  0  0  0  0  0
  -24.5920  -30.7361   25.7706 H   0  0  0  0  0  0
  -24.9233  -32.3043   26.4988 H   0  0  0  0  0  0
  -25.8090  -30.8827   27.0122 H   0  0  0  0  0  0
  -26.2971  -29.6748   24.1361 H   0  0  0  0  0  0
  -27.4089  -29.7317   25.4820 H   0  0  0  0  0  0
  -27.8921  -30.4131   23.9504 H   0  0  0  0  0  0
  -27.2598  -33.3803   26.1997 H   0  0  0  0  0  0
  -28.3964  -32.7118   25.0382 H   0  0  0  0  0  0
  -28.0848  -31.8777   26.5473 H   0  0  0  0  0  0
  -28.2568  -38.0154   24.7624 H   0  0  0  0  0  0
  -28.1100  -36.2671   24.6113 H   0  0  0  0  0  0
  -27.2313  -37.1236   25.8859 H   0  0  0  0  0  0
  -20.9493  -29.9020   21.6807 H   0  0  0  0  0  0
  -26.0106  -38.2837   24.1570 H   0  0  0  0  0  0
  -28.4186  -18.2007   21.6074 H   0  0  0  0  0  0
  -27.8621  -22.9295   17.8526 H   0  0  0  0  0  0
  -29.1294  -24.1367   18.0031 H   0  0  0  0  0  0
  -27.4389  -24.6138   17.9474 H   0  0  0  0  0  0
  -26.0693  -22.7949   19.5584 H   0  0  0  0  0  0
  -25.9385  -24.3867   20.2565 H   0  0  0  0  0  0
  -26.4492  -23.0843   21.2546 H   0  0  0  0  0  0
  -29.8387  -22.4418   19.7204 H   0  0  0  0  0  0
  -29.2889  -22.5981   21.3205 H   0  0  0  0  0  0
  -29.5187  -25.0770   20.8331 H   0  0  0  0  0  0
  -27.9720  -25.2026   21.5644 H   0  0  0  0  0  0
  -27.5416  -20.9557   19.4725 H   0  0  0  0  0  0
  -30.0435  -21.3400   17.9077 H   0  0  0  0  0  0
  -30.8296  -20.1184   17.0839 H   0  0  0  0  0  0
  -29.0292  -15.6361   21.3130 H   0  0  0  0  0  0
  -28.1388  -20.7712   22.3020 H   0  0  0  0  0  0
  -26.9968  -19.8942   21.5194 H   0  0  0  0  0  0
  -26.8540  -21.5077   21.6276 H   0  0  0  0  0  0
  1 25  1  0  0  0
  1 30  2  0  0  0
  1 82  1  0  0  0
  2  3  1  0  0  0
  2 25  1  0  0  0
  2 85  1  0  0  0
  2 86  1  0  0  0
  3  4  1  0  0  0
  3 87  1  0  0  0
  3 88  1  0  0  0
  4  5  1  0  0  0
  4 89  1  0  0  0
  4 90  1  0  0  0
  5  6  1  0  0  0
  5 26  1  0  0  0
  5 91  1  0  0  0
  6 25  1  0  0  0
  6 92  1  0  0  0
  6 93  1  0  0  0
  7  8  2  0  0  0
  7 26  1  0  0  0
  7 29  1  0  0  0
  8  9  1  0  0  0
  8 22  1  0  0  0
  9 10  1  0  0  0
  9 27  2  0  0  0
 10 11  2  0  0  0
 10 15  1  0  0  0
 11 12  1  0  0  0
 11 94  1  0  0  0
 12 13  2  0  0  0
 12 95  1  0  0  0
 13 14  1  0  0  0
 13 31  1  0  0  0
 14 15  2  0  0  0
 14 96  1  0  0  0
 15 97  1  0  0  0
 16 17  2  0  0  0
 16 21  1  0  0  0
 16 31  1  0  0  0
 17 18  1  0  0  0
 17 98  1  0  0  0
 18 19  2  0  0  0
 18 99  1  0  0  0
 19 20  1  0  0  0
 19 24  1  0  0  0
 20 21  2  0  0  0
 20100  1  0  0  0
 21 23  1  0  0  0
 22 28  1  0  0  0
 22 32  2  0  0  0
 26 27  1  0  0  0
 28101  1  0  0  0
 28102  1  0  0  0
 29103  1  0  0  0
 29104  1  0  0  0
 33 34  1  0  0  0
 33 66  1  0  0  0
 33 70  2  0  0  0
 34 36  1  0  0  0
 34 59  1  0  0  0
 34105  1  0  0  0
 35 44  2  0  0  0
 35 45  1  0  0  0
 35 68  1  0  0  0
 36 56  1  0  0  0
 36106  1  0  0  0
 37 39  1  0  0  0
 37 47  1  0  0  0
 37 66  1  0  0  0
 37107  1  0  0  0
 38 43  2  0  0  0
 38 46  1  0  0  0
 38 47  1  0  0  0
 39 64  1  0  0  0
 39 67  2  0  0  0
 40 52  1  0  0  0
 40 53  2  0  0  0
 40 58  1  0  0  0
 41108  1  0  0  0
 41109  1  0  0  0
 41110  1  0  0  0
 41 48  1  0  0  0
 42 43  1  0  0  0
 42 66  1  0  0  0
 42111  1  0  0  0
 42112  1  0  0  0
 43 44  1  0  0  0
 44113  1  0  0  0
 45 46  2  0  0  0
 45114  1  0  0  0
 46115  1  0  0  0
 47116  1  0  0  0
 47117  1  0  0  0
 48 56  1  0  0  0
 48 65  1  0  0  0
 48118  1  0  0  0
 49 50  1  0  0  0
 49 53  1  0  0  0
 49 64  1  0  0  0
 49119  1  0  0  0
 50 51  1  0  0  0
 50120  1  0  0  0
 50121  1  0  0  0
 51 52  1  0  0  0
 51122  1  0  0  0
 51123  1  0  0  0
 52124  1  0  0  0
 52125  1  0  0  0
 53 54  1  0  0  0
 54 55  2  0  0  0
 54126  1  0  0  0
 55 57  1  0  0  0
 55127  1  0  0  0
 56 69  2  0  0  0
 57 58  2  0  0  0
 57128  1  0  0  0
 58129  1  0  0  0
 59 60  1  0  0  0
 59 61  1  0  0  0
 59 62  1  0  0  0
 60130  1  0  0  0
 60131  1  0  0  0
 60132  1  0  0  0
 61133  1  0  0  0
 61134  1  0  0  0
 61135  1  0  0  0
 62136  1  0  0  0
 62137  1  0  0  0
 62138  1  0  0  0
 63 65  1  0  0  0
 63139  1  0  0  0
 63140  1  0  0  0
 63141  1  0  0  0
 64142  1  0  0  0
 65143  1  0  0  0
 68 78  1  0  0  0
 71 72  1  0  0  0
 71 73  2  0  0  0
 71144  1  0  0  0
 72 74  2  0  0  0
 72 79  1  0  0  0
 73 82  1  0  0  0
 73 84  1  0  0  0
 74 81  1  0  0  0
 74 84  1  0  0  0
 75145  1  0  0  0
 75146  1  0  0  0
 75147  1  0  0  0
 75 80  1  0  0  0
 76 80  1  0  0  0
 76148  1  0  0  0
 76149  1  0  0  0
 76150  1  0  0  0
 77 79  1  0  0  0
 77 80  1  0  0  0
 77151  1  0  0  0
 77152  1  0  0  0
 78 80  1  0  0  0
 78153  1  0  0  0
 78154  1  0  0  0
 79 83  1  0  0  0
 79155  1  0  0  0
 81156  1  0  0  0
 81157  1  0  0  0
 82158  1  0  0  0
 83159  1  0  0  0
 83160  1  0  0  0
 83161  1  0  0  0
M  CHG  1  83   1
M  ISO  4   1 100  68 101  78 101  82 100
M  END
> <chiral flag>
0

> <version>
0

> <s_m_source_file>
/data/baiqing/PycharmProjects/Reinvent-master-3.2/result/LINK_invent/BTK/process_docking_weight1_custom_product_contain_oxygen_bond_distance_aromatic_linkinvent_7_9_3/rearranged_h_0155.sdf

> <i_m_source_file_index>
35

> <r_mmod_Potential_Energy-OPLS-2005>
-17.9356937408447

> <r_mmod_Stretch_Energy-OPLS-2005>
128.36344909668

> <r_mmod_Bend_Energy-OPLS-2005>
195.807357788086

> <r_mmod_Torsional_Energy-OPLS-2005>
268.283935546875

> <r_mmod_Improper_Torsional_Energy-OPLS-2005>
5.37857055664062

> <r_mmod_Van_der_Waal_Energy-OPLS-2005>
116.475914001465

> <r_mmod_Electrostatic_Energy-OPLS-2005>
-275.447875976562

> <r_mmod_Solvation_Energy-OPLS-2005>
-533.372680664062

> <b_mmod_Minimization_Converged-OPLS-2005>
0

> <r_mmod_RMS_Derivative-OPLS-2005>
9.73073577880859

$$$$
35
                    3D
 Structure written by MMmdl.
159168  0  0  1  0            999 V2000
  -30.6418  -14.5245   20.5590 C   0  0  0  0  0  0
  -30.4367  -12.3241   19.4418 C   0  0  0  0  0  0
  -29.5078  -12.4912   18.2175 C   0  0  0  0  0  0
  -28.0286  -12.3385   18.6284 C   0  0  0  0  0  0
  -27.6629  -13.1942   19.8706 C   0  0  2  0  0  0
  -28.6982  -12.9769   20.9982 C   0  0  0  0  0  0
  -25.2652  -13.8126   20.5689 C   0  0  0  0  0  0
  -24.1876  -13.0429   20.9158 C   0  0  0  0  0  0
  -24.6401  -11.6894   20.8718 C   0  0  0  0  0  0
  -23.9063  -10.4287   21.0400 C   0  0  0  0  0  0
  -24.3606   -9.4203   21.9191 C   0  0  0  0  0  0
  -23.6280   -8.2241   22.0760 C   0  0  0  0  0  0
  -22.4259   -8.0290   21.3553 C   0  0  0  0  0  0
  -21.9899   -9.0266   20.4647 C   0  0  0  0  0  0
  -22.7231  -10.2141   20.3057 C   0  0  0  0  0  0
  -21.6851   -6.0745   22.5279 C   0  0  0  0  0  0
  -21.4015   -6.5645   23.8212 C   0  0  0  0  0  0
  -21.3655   -5.6799   24.9177 C   0  0  0  0  0  0
  -21.6040   -4.3063   24.7225 C   0  0  0  0  0  0
  -21.8812   -3.8156   23.4345 C   0  0  0  0  0  0
  -21.9186   -4.6974   22.3403 C   0  0  0  0  0  0
  -22.7901  -13.5265   21.1805 C   0  0  0  0  0  0
  -22.1652   -4.2167   21.0978 F   0  0  0  0  0  0
  -21.5631   -3.4537   25.7732 F   0  0  0  0  0  0
  -30.0279  -13.3112   20.4571 N   0  0  0  0  0  0
  -26.3032  -12.9264   20.3301 N   0  0  0  0  0  0
  -25.9313  -11.6433   20.5722 N   0  0  0  0  0  0
  -22.0497  -12.8294   22.0340 N   0  0  0  0  0  0
  -25.4435  -15.1837   20.4163 N   0  0  0  0  0  0
  -31.7645  -14.7400   20.0892 O   0  0  0  0  0  0
  -21.6629   -6.8885   21.4247 O   0  0  0  0  0  0
  -22.3624  -14.5574   20.6625 O   0  0  0  0  0  0
  -24.6158  -31.8675   23.2067 C   0  0  0  0  0  0
  -25.9056  -32.4810   23.8371 C   0  0  1  0  0  0
  -27.2259  -27.3921   20.1146 C   0  0  0  0  0  0
  -25.5903  -33.8610   24.2307 N   0  0  0  0  0  0
  -23.4052  -30.4903   21.5477 C   0  0  2  0  0  0
  -24.8518  -28.9543   20.1108 C   0  0  0  0  0  0
  -22.7416  -29.4641   22.4959 C   0  0  0  0  0  0
  -18.0323  -28.1356   22.8439 C   0  0  0  0  0  0
  -24.1493  -36.7296   23.2639 C   0  0  0  0  0  0
  -25.9385  -30.8187   21.3703 C   0  0  0  0  0  0
  -26.0126  -29.4522   20.7139 C   0  0  0  0  0  0
  -27.1995  -28.6787   20.7130 C   0  0  0  0  0  0
  -26.0435  -26.9221   19.4965 C   0  0  0  0  0  0
  -24.8639  -27.6909   19.4963 C   0  0  0  0  0  0
  -23.6148  -29.8227   20.1622 C   0  0  0  0  0  0
  -25.4124  -36.3104   24.0336 C   0  0  1  0  0  0
  -20.5887  -28.3706   23.1354 C   0  0  2  0  0  0
  -20.6817  -26.9403   22.5586 C   0  0  0  0  0  0
  -19.5921  -26.6385   21.5247 C   0  0  0  0  0  0
  -18.2021  -26.7937   22.1476 C   0  0  0  0  0  0
  -19.1533  -28.8844   23.2897 C   0  0  0  0  0  0
  -18.9419  -30.1438   23.8913 C   0  0  0  0  0  0
  -17.6408  -30.6563   24.0531 C   0  0  0  0  0  0
  -25.9063  -34.9475   23.5123 C   0  0  0  0  0  0
  -16.5336  -29.9036   23.6252 C   0  0  0  0  0  0
  -16.7297  -28.6443   23.0293 C   0  0  0  0  0  0
  -26.4476  -31.6584   25.0707 C   0  0  0  0  0  0
  -25.3736  -31.3712   26.1449 C   0  0  0  0  0  0
  -27.0333  -30.3022   24.6125 C   0  0  0  0  0  0
  -27.6064  -32.4298   25.7458 C   0  0  0  0  0  0
  -27.5591  -37.1795   24.8467 C   0  0  0  0  0  0
  -21.4141  -29.3026   22.3680 N   0  0  0  0  0  0
  -26.4309  -37.3792   23.9402 N   0  0  0  0  0  0
  -24.6710  -31.0739   22.0991 N   0  0  0  0  0  0
  -23.4172  -28.8192   23.3010 O   0  0  0  0  0  0
  -28.3912  -26.6357   20.1837 O   0  0  0  0  0  0
  -26.5636  -34.8918   22.4691 O   0  0  0  0  0  0
  -23.5341  -32.1458   23.7420 O   0  0  0  0  0  0
  -30.3593  -19.0532   20.1912 C   0  0  0  0  0  0
  -30.5864  -17.6409   20.0523 C   0  0  0  0  0  0
  -29.5229  -19.3852   21.2289 C   0  0  0  0  0  0
  -29.9218  -16.8593   20.9715 C   0  0  0  0  0  0
  -28.9546  -23.1612   21.0814 C   0  0  0  0  0  0
  -27.2303  -23.0287   19.4539 C   0  0  0  0  0  0
  -27.5817  -21.6299   20.0063 C   0  0  0  0  0  0
  -27.8917  -24.0660   20.3911 C   0  0  2  0  0  0
  -26.2952  -23.6868   22.2723 C   0  0  0  0  0  0
  -29.1772  -20.7570   21.8015 C   0  0  0  0  0  0
  -28.4626  -25.3098   19.5930 C   0  0  0  0  0  0
  -28.7191  -21.8397   20.8921 N   0  0  0  0  0  0
  -29.8855  -15.4953   21.1287 N   0  0  0  0  0  0
  -29.8398  -23.6221   21.8111 O   0  0  0  0  0  0
  -26.9381  -24.5747   21.3506 O   0  0  0  0  0  0
  -28.9568  -17.9111   22.0010 S   0  0  0  0  0  0
  -31.4827  -12.4382   19.1533 H   0  0  0  0  0  0
  -30.3523  -11.3157   19.8472 H   0  0  0  0  0  0
  -29.7554  -11.7525   17.4519 H   0  0  0  0  0  0
  -29.6717  -13.4694   17.7606 H   0  0  0  0  0  0
  -27.8615  -11.2836   18.8486 H   0  0  0  0  0  0
  -27.3753  -12.5753   17.7885 H   0  0  0  0  0  0
  -27.7079  -14.2370   19.5591 H   0  0  0  0  0  0
  -28.6841  -11.9345   21.3179 H   0  0  0  0  0  0
  -28.4419  -13.5503   21.8904 H   0  0  0  0  0  0
  -25.2739   -9.5680   22.4787 H   0  0  0  0  0  0
  -23.9969   -7.4642   22.7495 H   0  0  0  0  0  0
  -21.0816   -8.8810   19.8968 H   0  0  0  0  0  0
  -22.3694  -10.9698   19.6179 H   0  0  0  0  0  0
  -21.2011   -7.6154   23.9737 H   0  0  0  0  0  0
  -21.1470   -6.0518   25.9088 H   0  0  0  0  0  0
  -22.0587   -2.7621   23.2836 H   0  0  0  0  0  0
  -22.4077  -11.9957   22.4767 H   0  0  0  0  0  0
  -21.1136  -13.1400   22.2525 H   0  0  0  0  0  0
  -24.6915  -15.8490   20.5543 H   0  0  0  0  0  0
  -26.3044  -15.6198   20.1091 H   0  0  0  0  0  0
  -26.7114  -32.5507   23.1115 H   0  0  0  0  0  0
  -25.0066  -33.9788   25.0455 H   0  0  0  0  0  0
  -22.6975  -31.3099   21.4089 H   0  0  0  0  0  0
  -23.3771  -35.9612   23.3321 H   0  0  0  0  0  0
  -24.3584  -36.8900   22.2050 H   0  0  0  0  0  0
  -23.7231  -37.6493   23.6654 H   0  0  0  0  0  0
  -26.0709  -31.5855   20.6060 H   0  0  0  0  0  0
  -26.8186  -30.8608   21.9999 H   0  0  0  0  0  0
  -28.0901  -29.0569   21.1961 H   0  0  0  0  0  0
  -25.9951  -25.9493   19.0318 H   0  0  0  0  0  0
  -23.9687  -27.3000   19.0329 H   0  0  0  0  0  0
  -23.7189  -30.5969   19.4014 H   0  0  0  0  0  0
  -22.7370  -29.2443   19.8681 H   0  0  0  0  0  0
  -25.1285  -36.1991   25.0832 H   0  0  0  0  0  0
  -20.9957  -28.3366   24.1480 H   0  0  0  0  0  0
  -20.5546  -26.2378   23.3843 H   0  0  0  0  0  0
  -21.6743  -26.7362   22.1553 H   0  0  0  0  0  0
  -19.7171  -25.6272   21.1322 H   0  0  0  0  0  0
  -19.7017  -27.3189   20.6781 H   0  0  0  0  0  0
  -17.4416  -26.6829   21.3722 H   0  0  0  0  0  0
  -18.0266  -25.9960   22.8715 H   0  0  0  0  0  0
  -19.7884  -30.7231   24.2313 H   0  0  0  0  0  0
  -17.4949  -31.6253   24.5120 H   0  0  0  0  0  0
  -15.5313  -30.2900   23.7512 H   0  0  0  0  0  0
  -15.8733  -28.0715   22.6975 H   0  0  0  0  0  0
  -24.5920  -30.7052   25.7768 H   0  0  0  0  0  0
  -24.8919  -32.2884   26.4846 H   0  0  0  0  0  0
  -25.8070  -30.8907   27.0232 H   0  0  0  0  0  0
  -26.2912  -29.6760   24.1169 H   0  0  0  0  0  0
  -27.4096  -29.7261   25.4585 H   0  0  0  0  0  0
  -27.8733  -30.4323   23.9306 H   0  0  0  0  0  0
  -27.2711  -33.3600   26.2038 H   0  0  0  0  0  0
  -28.3857  -32.6846   25.0270 H   0  0  0  0  0  0
  -28.0758  -31.8435   26.5361 H   0  0  0  0  0  0
  -28.2600  -38.0091   24.7508 H   0  0  0  0  0  0
  -28.1084  -36.2625   24.6299 H   0  0  0  0  0  0
  -27.2304  -37.1442   25.8865 H   0  0  0  0  0  0
  -20.9288  -29.8693   21.6876 H   0  0  0  0  0  0
  -26.0208  -38.2875   24.1391 H   0  0  0  0  0  0
  -30.8492  -19.7725   19.5502 H   0  0  0  0  0  0
  -31.2379  -17.2600   19.2792 H   0  0  0  0  0  0
  -26.1551  -23.1768   19.3443 H   0  0  0  0  0  0
  -27.6573  -23.1146   18.4541 H   0  0  0  0  0  0
  -27.8297  -20.9296   19.2068 H   0  0  0  0  0  0
  -26.7466  -21.2105   20.5723 H   0  0  0  0  0  0
  -26.9975  -23.1785   22.9357 H   0  0  0  0  0  0
  -25.6848  -22.9396   21.7652 H   0  0  0  0  0  0
  -25.6255  -24.2620   22.9156 H   0  0  0  0  0  0
  -30.0478  -21.1062   22.3605 H   0  0  0  0  0  0
  -28.3920  -20.6372   22.5505 H   0  0  0  0  0  0
  -28.0359  -25.3578   18.5917 H   0  0  0  0  0  0
  -29.5230  -25.1388   19.4034 H   0  0  0  0  0  0
  -29.0729  -15.1424   21.6115 H   0  0  0  0  0  0
  1 25  1  0  0  0
  1 30  2  0  0  0
  1 83  1  0  0  0
  2  3  1  0  0  0
  2 25  1  0  0  0
  2 87  1  0  0  0
  2 88  1  0  0  0
  3  4  1  0  0  0
  3 89  1  0  0  0
  3 90  1  0  0  0
  4  5  1  0  0  0
  4 91  1  0  0  0
  4 92  1  0  0  0
  5  6  1  0  0  0
  5 26  1  0  0  0
  5 93  1  0  0  0
  6 25  1  0  0  0
  6 94  1  0  0  0
  6 95  1  0  0  0
  7  8  2  0  0  0
  7 26  1  0  0  0
  7 29  1  0  0  0
  8  9  1  0  0  0
  8 22  1  0  0  0
  9 10  1  0  0  0
  9 27  2  0  0  0
 10 11  2  0  0  0
 10 15  1  0  0  0
 11 12  1  0  0  0
 11 96  1  0  0  0
 12 13  2  0  0  0
 12 97  1  0  0  0
 13 14  1  0  0  0
 13 31  1  0  0  0
 14 15  2  0  0  0
 14 98  1  0  0  0
 15 99  1  0  0  0
 16 17  2  0  0  0
 16 21  1  0  0  0
 16 31  1  0  0  0
 17 18  1  0  0  0
 17100  1  0  0  0
 18 19  2  0  0  0
 18101  1  0  0  0
 19 20  1  0  0  0
 19 24  1  0  0  0
 20 21  2  0  0  0
 20102  1  0  0  0
 21 23  1  0  0  0
 22 28  1  0  0  0
 22 32  2  0  0  0
 26 27  1  0  0  0
 28103  1  0  0  0
 28104  1  0  0  0
 29105  1  0  0  0
 29106  1  0  0  0
 33 34  1  0  0  0
 33 66  1  0  0  0
 33 70  2  0  0  0
 34 36  1  0  0  0
 34 59  1  0  0  0
 34107  1  0  0  0
 35 44  2  0  0  0
 35 45  1  0  0  0
 35 68  1  0  0  0
 36 56  1  0  0  0
 36108  1  0  0  0
 37 39  1  0  0  0
 37 47  1  0  0  0
 37 66  1  0  0  0
 37109  1  0  0  0
 38 43  2  0  0  0
 38 46  1  0  0  0
 38 47  1  0  0  0
 39 64  1  0  0  0
 39 67  2  0  0  0
 40 52  1  0  0  0
 40 53  2  0  0  0
 40 58  1  0  0  0
 41110  1  0  0  0
 41111  1  0  0  0
 41112  1  0  0  0
 41 48  1  0  0  0
 42 43  1  0  0  0
 42 66  1  0  0  0
 42113  1  0  0  0
 42114  1  0  0  0
 43 44  1  0  0  0
 44115  1  0  0  0
 45 46  2  0  0  0
 45116  1  0  0  0
 46117  1  0  0  0
 47118  1  0  0  0
 47119  1  0  0  0
 48 56  1  0  0  0
 48 65  1  0  0  0
 48120  1  0  0  0
 49 50  1  0  0  0
 49 53  1  0  0  0
 49 64  1  0  0  0
 49121  1  0  0  0
 50 51  1  0  0  0
 50122  1  0  0  0
 50123  1  0  0  0
 51 52  1  0  0  0
 51124  1  0  0  0
 51125  1  0  0  0
 52126  1  0  0  0
 52127  1  0  0  0
 53 54  1  0  0  0
 54 55  2  0  0  0
 54128  1  0  0  0
 55 57  1  0  0  0
 55129  1  0  0  0
 56 69  2  0  0  0
 57 58  2  0  0  0
 57130  1  0  0  0
 58131  1  0  0  0
 59 60  1  0  0  0
 59 61  1  0  0  0
 59 62  1  0  0  0
 60132  1  0  0  0
 60133  1  0  0  0
 60134  1  0  0  0
 61135  1  0  0  0
 61136  1  0  0  0
 61137  1  0  0  0
 62138  1  0  0  0
 62139  1  0  0  0
 62140  1  0  0  0
 63 65  1  0  0  0
 63141  1  0  0  0
 63142  1  0  0  0
 63143  1  0  0  0
 64144  1  0  0  0
 65145  1  0  0  0
 68 81  1  0  0  0
 71 72  1  0  0  0
 71 73  2  0  0  0
 71146  1  0  0  0
 72 74  2  0  0  0
 72147  1  0  0  0
 73 80  1  0  0  0
 73 86  1  0  0  0
 74 83  1  0  0  0
 74 86  1  0  0  0
 75 78  1  0  0  0
 75 82  1  0  0  0
 75 84  2  0  0  0
 76 77  1  0  0  0
 76 78  1  0  0  0
 76148  1  0  0  0
 76149  1  0  0  0
 77 82  1  0  0  0
 77150  1  0  0  0
 77151  1  0  0  0
 78 81  1  0  0  0
 78 85  1  0  0  0
 79 85  1  0  0  0
 79152  1  0  0  0
 79153  1  0  0  0
 79154  1  0  0  0
 80 82  1  0  0  0
 80155  1  0  0  0
 80156  1  0  0  0
 81157  1  0  0  0
 81158  1  0  0  0
 83159  1  0  0  0
M  ISO  4   1 100  68 101  81 101  83 100
M  END
> <chiral flag>
0

> <version>
0

> <s_m_source_file>
/data/baiqing/PycharmProjects/Reinvent-master-3.2/result/LINK_invent/BTK/process_docking_weight1_custom_product_contain_oxygen_bond_distance_aromatic_linkinvent_7_9_3/rearranged_h_0155.sdf

> <i_m_source_file_index>
36

> <r_mmod_Potential_Energy-OPLS-2005>
55.6115798950195

> <r_mmod_Stretch_Energy-OPLS-2005>
50.7940521240234

> <r_mmod_Bend_Energy-OPLS-2005>
159.713134765625

> <r_mmod_Torsional_Energy-OPLS-2005>
241.750595092773

> <r_mmod_Improper_Torsional_Energy-OPLS-2005>
5.35396194458008

> <r_mmod_Van_der_Waal_Energy-OPLS-2005>
126.152648925781

> <r_mmod_Electrostatic_Energy-OPLS-2005>
-311.733947753906

> <r_mmod_Solvation_Energy-OPLS-2005>
-238.540466308594

> <b_mmod_Minimization_Converged-OPLS-2005>
0

> <r_mmod_RMS_Derivative-OPLS-2005>
3.48057794570923

$$$$
36
                    3D
 Structure written by MMmdl.
147155  0  0  1  0            999 V2000
  -30.5806  -14.7184   20.4707 C   0  0  0  0  0  0
  -30.4459  -12.4386   19.4590 C   0  0  0  0  0  0
  -29.5120  -12.5069   18.2287 C   0  0  0  0  0  0
  -28.0368  -12.3303   18.6433 C   0  0  0  0  0  0
  -27.6471  -13.2179   19.8546 C   0  0  2  0  0  0
  -28.6936  -13.1118   20.9864 C   0  0  0  0  0  0
  -25.2543  -13.8166   20.5679 C   0  0  0  0  0  0
  -24.1821  -13.0432   20.9205 C   0  0  0  0  0  0
  -24.6392  -11.6903   20.8747 C   0  0  0  0  0  0
  -23.9062  -10.4288   21.0412 C   0  0  0  0  0  0
  -24.3614   -9.4204   21.9188 C   0  0  0  0  0  0
  -23.6290   -8.2238   22.0755 C   0  0  0  0  0  0
  -22.4273   -8.0278   21.3545 C   0  0  0  0  0  0
  -21.9908   -9.0252   20.4648 C   0  0  0  0  0  0
  -22.7236  -10.2132   20.3059 C   0  0  0  0  0  0
  -21.6853   -6.0734   22.5279 C   0  0  0  0  0  0
  -21.4013   -6.5638   23.8213 C   0  0  0  0  0  0
  -21.3659   -5.6792   24.9175 C   0  0  0  0  0  0
  -21.6044   -4.3054   24.7226 C   0  0  0  0  0  0
  -21.8820   -3.8146   23.4347 C   0  0  0  0  0  0
  -21.9193   -4.6962   22.3403 C   0  0  0  0  0  0
  -22.7844  -13.5227   21.1867 C   0  0  0  0  0  0
  -22.1662   -4.2148   21.0981 F   0  0  0  0  0  0
  -21.5629   -3.4539   25.7738 F   0  0  0  0  0  0
  -29.9984  -13.4745   20.4135 N   0  0  0  0  0  0
  -26.2960  -12.9344   20.3282 N   0  0  0  0  0  0
  -25.9316  -11.6503   20.5748 N   0  0  0  0  0  0
  -22.0484  -12.8218   22.0421 N   0  0  0  0  0  0
  -25.4237  -15.1891   20.4076 N   0  0  0  0  0  0
  -31.7648  -14.8783   20.1582 O   0  0  0  0  0  0
  -21.6638   -6.8876   21.4239 O   0  0  0  0  0  0
  -22.3533  -14.5535   20.6714 O   0  0  0  0  0  0
  -24.6286  -31.8564   23.1979 C   0  0  0  0  0  0
  -25.9117  -32.4763   23.8329 C   0  0  1  0  0  0
  -27.2296  -27.2879   20.1353 C   0  0  0  0  0  0
  -25.5920  -33.8564   24.2259 N   0  0  0  0  0  0
  -23.4254  -30.4763   21.5408 C   0  0  2  0  0  0
  -24.8749  -28.9180   20.1173 C   0  0  0  0  0  0
  -22.7490  -29.4605   22.4924 C   0  0  0  0  0  0
  -18.0291  -28.1386   22.8490 C   0  0  0  0  0  0
  -24.1488  -36.7286   23.2641 C   0  0  0  0  0  0
  -25.9677  -30.7784   21.3719 C   0  0  0  0  0  0
  -26.0447  -29.4000   20.7200 C   0  0  0  0  0  0
  -27.2286  -28.5989   20.7125 C   0  0  0  0  0  0
  -26.0385  -26.8563   19.5178 C   0  0  0  0  0  0
  -24.8747  -27.6528   19.5059 C   0  0  0  0  0  0
  -23.6440  -29.8032   20.1595 C   0  0  0  0  0  0
  -25.4115  -36.3076   24.0329 C   0  0  1  0  0  0
  -20.5893  -28.3693   23.1278 C   0  0  2  0  0  0
  -20.6778  -26.9413   22.5410 C   0  0  0  0  0  0
  -19.5753  -26.6384   21.5214 C   0  0  0  0  0  0
  -18.1934  -26.7928   22.1627 C   0  0  0  0  0  0
  -19.1543  -28.8857   23.2879 C   0  0  0  0  0  0
  -18.9465  -30.1459   23.8895 C   0  0  0  0  0  0
  -17.6464  -30.6589   24.0564 C   0  0  0  0  0  0
  -25.9053  -34.9445   23.5098 C   0  0  0  0  0  0
  -16.5356  -29.9086   23.6332 C   0  0  0  0  0  0
  -16.7277  -28.6503   23.0354 C   0  0  0  0  0  0
  -26.4494  -31.6582   25.0709 C   0  0  0  0  0  0
  -25.3724  -31.3727   26.1434 C   0  0  0  0  0  0
  -27.0340  -30.3004   24.6173 C   0  0  0  0  0  0
  -27.6051  -32.4318   25.7484 C   0  0  0  0  0  0
  -27.5579  -37.1800   24.8468 C   0  0  0  0  0  0
  -21.4200  -29.3043   22.3668 N   0  0  0  0  0  0
  -26.4293  -37.3771   23.9409 N   0  0  0  0  0  0
  -24.6930  -31.0547   22.0940 N   0  0  0  0  0  0
  -23.4197  -28.8153   23.3025 O   0  0  0  0  0  0
  -28.3393  -26.4257   20.1185 O   0  0  0  0  0  0
  -26.5628  -34.8919   22.4668 O   0  0  0  0  0  0
  -23.5440  -32.1372   23.7288 O   0  0  0  0  0  0
  -30.9317  -18.0092   20.7737 C   0  0  0  0  0  0
  -29.8423  -17.1722   20.5825 C   0  0  0  0  0  0
  -29.4095  -19.7462   20.4202 C   0  0  0  0  0  0
  -28.5751  -23.7651   20.0131 C   0  0  0  0  0  0
  -29.1757  -22.4850   20.7657 C   0  0  0  0  0  0
  -28.2222  -25.1055   20.8115 C   0  0  0  0  0  0
  -30.6756  -19.4154   20.7147 N   0  0  0  0  0  0
  -29.7139  -15.7776   20.6631 N   0  0  0  0  0  0
  -28.8740  -21.0796   20.2823 N   0  0  0  0  0  0
  -28.3568  -23.6954   18.7992 O   0  0  0  0  0  0
  -28.4444  -18.2393   20.2516 S   0  0  0  0  0  0
  -31.4833  -12.5857   19.1535 H   0  0  0  0  0  0
  -30.4053  -11.4516   19.9224 H   0  0  0  0  0  0
  -29.7895  -11.7424   17.5017 H   0  0  0  0  0  0
  -29.6377  -13.4667   17.7250 H   0  0  0  0  0  0
  -27.8901  -11.2795   18.8954 H   0  0  0  0  0  0
  -27.3786  -12.5336   17.7978 H   0  0  0  0  0  0
  -27.6499  -14.2443   19.4882 H   0  0  0  0  0  0
  -28.7249  -12.0989   21.3906 H   0  0  0  0  0  0
  -28.4310  -13.7611   21.8234 H   0  0  0  0  0  0
  -25.2759   -9.5680   22.4762 H   0  0  0  0  0  0
  -24.0001   -7.4629   22.7472 H   0  0  0  0  0  0
  -21.0840   -8.8770   19.8953 H   0  0  0  0  0  0
  -22.3694  -10.9672   19.6167 H   0  0  0  0  0  0
  -21.2005   -7.6147   23.9715 H   0  0  0  0  0  0
  -21.1480   -6.0523   25.9078 H   0  0  0  0  0  0
  -22.0599   -2.7608   23.2848 H   0  0  0  0  0  0
  -22.4098  -11.9876   22.4804 H   0  0  0  0  0  0
  -21.1104  -13.1246   22.2630 H   0  0  0  0  0  0
  -24.6492  -15.8360   20.5098 H   0  0  0  0  0  0
  -26.2564  -15.6291   20.0388 H   0  0  0  0  0  0
  -26.7185  -32.5427   23.1076 H   0  0  0  0  0  0
  -25.0065  -33.9703   25.0402 H   0  0  0  0  0  0
  -22.7213  -31.2975   21.3916 H   0  0  0  0  0  0
  -23.3753  -35.9615   23.3305 H   0  0  0  0  0  0
  -24.3580  -36.8905   22.2055 H   0  0  0  0  0  0
  -23.7236  -37.6486   23.6662 H   0  0  0  0  0  0
  -26.0997  -31.5377   20.5999 H   0  0  0  0  0  0
  -26.8477  -30.8324   22.0014 H   0  0  0  0  0  0
  -28.1308  -28.9691   21.1792 H   0  0  0  0  0  0
  -26.0075  -25.8842   19.0455 H   0  0  0  0  0  0
  -23.9783  -27.2779   19.0310 H   0  0  0  0  0  0
  -23.7678  -30.5757   19.3996 H   0  0  0  0  0  0
  -22.7636  -29.2334   19.8570 H   0  0  0  0  0  0
  -25.1297  -36.1926   25.0822 H   0  0  0  0  0  0
  -20.9988  -28.3267   24.1398 H   0  0  0  0  0  0
  -20.5677  -26.2303   23.3612 H   0  0  0  0  0  0
  -21.6645  -26.7438   22.1205 H   0  0  0  0  0  0
  -19.6913  -25.6295   21.1244 H   0  0  0  0  0  0
  -19.6688  -27.3196   20.6744 H   0  0  0  0  0  0
  -17.4203  -26.6678   21.4029 H   0  0  0  0  0  0
  -18.0335  -26.0071   22.9025 H   0  0  0  0  0  0
  -19.7941  -30.7278   24.2260 H   0  0  0  0  0  0
  -17.5019  -31.6269   24.5166 H   0  0  0  0  0  0
  -15.5356  -30.2988   23.7654 H   0  0  0  0  0  0
  -15.8679  -28.0822   22.7068 H   0  0  0  0  0  0
  -24.5892  -30.7084   25.7762 H   0  0  0  0  0  0
  -24.8924  -32.2897   26.4862 H   0  0  0  0  0  0
  -25.8045  -30.8900   27.0208 H   0  0  0  0  0  0
  -26.2915  -29.6751   24.1200 H   0  0  0  0  0  0
  -27.4041  -29.7264   25.4678 H   0  0  0  0  0  0
  -27.8782  -30.4292   23.9396 H   0  0  0  0  0  0
  -27.2664  -33.3624   26.2048 H   0  0  0  0  0  0
  -28.3869  -32.6866   25.0317 H   0  0  0  0  0  0
  -28.0707  -31.8448   26.5409 H   0  0  0  0  0  0
  -28.2600  -38.0093   24.7512 H   0  0  0  0  0  0
  -28.1071  -36.2625   24.6299 H   0  0  0  0  0  0
  -27.2298  -37.1454   25.8872 H   0  0  0  0  0  0
  -20.9381  -29.8759   21.6870 H   0  0  0  0  0  0
  -26.0174  -38.2846   24.1406 H   0  0  0  0  0  0
  -31.9393  -17.6914   21.0034 H   0  0  0  0  0  0
  -28.8595  -22.5509   21.8072 H   0  0  0  0  0  0
  -30.2594  -22.6060   20.7806 H   0  0  0  0  0  0
  -28.8705  -25.1412   21.6867 H   0  0  0  0  0  0
  -27.2100  -24.9933   21.2008 H   0  0  0  0  0  0
  -28.7675  -15.4606   20.8049 H   0  0  0  0  0  0
  -27.9289  -21.0442   19.9097 H   0  0  0  0  0  0
  1 25  1  0  0  0
  1 30  2  0  0  0
  1 78  1  0  0  0
  2  3  1  0  0  0
  2 25  1  0  0  0
  2 82  1  0  0  0
  2 83  1  0  0  0
  3  4  1  0  0  0
  3 84  1  0  0  0
  3 85  1  0  0  0
  4  5  1  0  0  0
  4 86  1  0  0  0
  4 87  1  0  0  0
  5  6  1  0  0  0
  5 26  1  0  0  0
  5 88  1  0  0  0
  6 25  1  0  0  0
  6 89  1  0  0  0
  6 90  1  0  0  0
  7  8  2  0  0  0
  7 26  1  0  0  0
  7 29  1  0  0  0
  8  9  1  0  0  0
  8 22  1  0  0  0
  9 10  1  0  0  0
  9 27  2  0  0  0
 10 11  2  0  0  0
 10 15  1  0  0  0
 11 12  1  0  0  0
 11 91  1  0  0  0
 12 13  2  0  0  0
 12 92  1  0  0  0
 13 14  1  0  0  0
 13 31  1  0  0  0
 14 15  2  0  0  0
 14 93  1  0  0  0
 15 94  1  0  0  0
 16 17  2  0  0  0
 16 21  1  0  0  0
 16 31  1  0  0  0
 17 18  1  0  0  0
 17 95  1  0  0  0
 18 19  2  0  0  0
 18 96  1  0  0  0
 19 20  1  0  0  0
 19 24  1  0  0  0
 20 21  2  0  0  0
 20 97  1  0  0  0
 21 23  1  0  0  0
 22 28  1  0  0  0
 22 32  2  0  0  0
 26 27  1  0  0  0
 28 98  1  0  0  0
 28 99  1  0  0  0
 29100  1  0  0  0
 29101  1  0  0  0
 33 34  1  0  0  0
 33 66  1  0  0  0
 33 70  2  0  0  0
 34 36  1  0  0  0
 34 59  1  0  0  0
 34102  1  0  0  0
 35 44  2  0  0  0
 35 45  1  0  0  0
 35 68  1  0  0  0
 36 56  1  0  0  0
 36103  1  0  0  0
 37 39  1  0  0  0
 37 47  1  0  0  0
 37 66  1  0  0  0
 37104  1  0  0  0
 38 43  2  0  0  0
 38 46  1  0  0  0
 38 47  1  0  0  0
 39 64  1  0  0  0
 39 67  2  0  0  0
 40 52  1  0  0  0
 40 53  2  0  0  0
 40 58  1  0  0  0
 41105  1  0  0  0
 41106  1  0  0  0
 41107  1  0  0  0
 41 48  1  0  0  0
 42 43  1  0  0  0
 42 66  1  0  0  0
 42108  1  0  0  0
 42109  1  0  0  0
 43 44  1  0  0  0
 44110  1  0  0  0
 45 46  2  0  0  0
 45111  1  0  0  0
 46112  1  0  0  0
 47113  1  0  0  0
 47114  1  0  0  0
 48 56  1  0  0  0
 48 65  1  0  0  0
 48115  1  0  0  0
 49 50  1  0  0  0
 49 53  1  0  0  0
 49 64  1  0  0  0
 49116  1  0  0  0
 50 51  1  0  0  0
 50117  1  0  0  0
 50118  1  0  0  0
 51 52  1  0  0  0
 51119  1  0  0  0
 51120  1  0  0  0
 52121  1  0  0  0
 52122  1  0  0  0
 53 54  1  0  0  0
 54 55  2  0  0  0
 54123  1  0  0  0
 55 57  1  0  0  0
 55124  1  0  0  0
 56 69  2  0  0  0
 57 58  2  0  0  0
 57125  1  0  0  0
 58126  1  0  0  0
 59 60  1  0  0  0
 59 61  1  0  0  0
 59 62  1  0  0  0
 60127  1  0  0  0
 60128  1  0  0  0
 60129  1  0  0  0
 61130  1  0  0  0
 61131  1  0  0  0
 61132  1  0  0  0
 62133  1  0  0  0
 62134  1  0  0  0
 62135  1  0  0  0
 63 65  1  0  0  0
 63136  1  0  0  0
 63137  1  0  0  0
 63138  1  0  0  0
 64139  1  0  0  0
 65140  1  0  0  0
 68 76  1  0  0  0
 71 72  2  0  0  0
 71 77  1  0  0  0
 71141  1  0  0  0
 72 78  1  0  0  0
 72 81  1  0  0  0
 73 77  2  0  0  0
 73 79  1  0  0  0
 73 81  1  0  0  0
 74 75  1  0  0  0
 74 76  1  0  0  0
 74 80  2  0  0  0
 75 79  1  0  0  0
 75142  1  0  0  0
 75143  1  0  0  0
 76144  1  0  0  0
 76145  1  0  0  0
 78146  1  0  0  0
 79147  1  0  0  0
M  ISO  4   1 100  68 101  76 101  78 100
M  END
> <chiral flag>
0

> <version>
0

> <s_m_source_file>
/data/baiqing/PycharmProjects/Reinvent-master-3.2/result/LINK_invent/BTK/process_docking_weight1_custom_product_contain_oxygen_bond_distance_aromatic_linkinvent_7_9_3/rearranged_h_0155.sdf

> <i_m_source_file_index>
37

> <r_mmod_Potential_Energy-OPLS-2005>
48.1307830810547

> <r_mmod_Stretch_Energy-OPLS-2005>
96.8335113525391

> <r_mmod_Bend_Energy-OPLS-2005>
150.57633972168

> <r_mmod_Torsional_Energy-OPLS-2005>
232.719451904297

> <r_mmod_Improper_Torsional_Energy-OPLS-2005>
6.26739740371704

> <r_mmod_Van_der_Waal_Energy-OPLS-2005>
109.829917907715

> <r_mmod_Electrostatic_Energy-OPLS-2005>
-364.983276367188

> <r_mmod_Solvation_Energy-OPLS-2005>
-253.880111694336

> <b_mmod_Minimization_Converged-OPLS-2005>
0

> <r_mmod_RMS_Derivative-OPLS-2005>
0.339222818613052

$$$$
37
                    3D
 Structure written by MMmdl.
154163  0  0  1  0            999 V2000
  -30.5145  -14.8373   20.4654 C   0  0  0  0  0  0
  -30.4513  -12.5141   19.4767 C   0  0  0  0  0  0
  -29.5154  -12.5305   18.2426 C   0  0  0  0  0  0
  -28.0449  -12.3291   18.6603 C   0  0  0  0  0  0
  -27.6432  -13.2283   19.8582 C   0  0  2  0  0  0
  -28.6886  -13.1450   20.9926 C   0  0  0  0  0  0
  -25.2523  -13.8196   20.5730 C   0  0  0  0  0  0
  -24.1799  -13.0448   20.9231 C   0  0  0  0  0  0
  -24.6378  -11.6921   20.8768 C   0  0  0  0  0  0
  -23.9064  -10.4299   21.0422 C   0  0  0  0  0  0
  -24.3616   -9.4207   21.9197 C   0  0  0  0  0  0
  -23.6295   -8.2233   22.0748 C   0  0  0  0  0  0
  -22.4277   -8.0277   21.3535 C   0  0  0  0  0  0
  -21.9914   -9.0256   20.4640 C   0  0  0  0  0  0
  -22.7241  -10.2140   20.3063 C   0  0  0  0  0  0
  -21.6847   -6.0740   22.5289 C   0  0  0  0  0  0
  -21.4004   -6.5638   23.8225 C   0  0  0  0  0  0
  -21.3664   -5.6788   24.9183 C   0  0  0  0  0  0
  -21.6047   -4.3052   24.7229 C   0  0  0  0  0  0
  -21.8817   -3.8150   23.4347 C   0  0  0  0  0  0
  -21.9186   -4.6968   22.3406 C   0  0  0  0  0  0
  -22.7819  -13.5225   21.1901 C   0  0  0  0  0  0
  -22.1659   -4.2154   21.0986 F   0  0  0  0  0  0
  -21.5638   -3.4537   25.7740 F   0  0  0  0  0  0
  -29.9824  -13.5585   20.4233 N   0  0  0  0  0  0
  -26.2937  -12.9383   20.3322 N   0  0  0  0  0  0
  -25.9307  -11.6534   20.5772 N   0  0  0  0  0  0
  -22.0466  -12.8201   22.0447 N   0  0  0  0  0  0
  -25.4256  -15.1922   20.4166 N   0  0  0  0  0  0
  -31.6798  -15.0232   20.0937 O   0  0  0  0  0  0
  -21.6630   -6.8882   21.4245 O   0  0  0  0  0  0
  -22.3513  -14.5539   20.6764 O   0  0  0  0  0  0
  -24.6313  -31.8502   23.1905 C   0  0  0  0  0  0
  -25.9110  -32.4742   23.8278 C   0  0  1  0  0  0
  -27.2265  -27.2019   20.1281 C   0  0  0  0  0  0
  -25.5892  -33.8542   24.2194 N   0  0  0  0  0  0
  -23.4341  -30.4694   21.5359 C   0  0  2  0  0  0
  -24.8849  -28.9063   20.1085 C   0  0  0  0  0  0
  -22.7517  -29.4569   22.4881 C   0  0  0  0  0  0
  -18.0304  -28.1411   22.8528 C   0  0  0  0  0  0
  -24.1474  -36.7230   23.2652 C   0  0  0  0  0  0
  -25.9852  -30.7442   21.3803 C   0  0  0  0  0  0
  -26.0581  -29.3612   20.7222 C   0  0  0  0  0  0
  -27.2266  -28.5215   20.7207 C   0  0  0  0  0  0
  -26.0199  -26.8269   19.4941 C   0  0  0  0  0  0
  -24.8747  -27.6502   19.4852 C   0  0  0  0  0  0
  -23.6565  -29.7977   20.1552 C   0  0  0  0  0  0
  -25.4118  -36.3047   24.0324 C   0  0  1  0  0  0
  -20.5903  -28.3680   23.1287 C   0  0  2  0  0  0
  -20.6761  -26.9388   22.5427 C   0  0  0  0  0  0
  -19.5738  -26.6391   21.5233 C   0  0  0  0  0  0
  -18.1924  -26.7954   22.1647 C   0  0  0  0  0  0
  -19.1568  -28.8860   23.2897 C   0  0  0  0  0  0
  -18.9494  -30.1470   23.8897 C   0  0  0  0  0  0
  -17.6494  -30.6612   24.0581 C   0  0  0  0  0  0
  -25.9068  -34.9433   23.5066 C   0  0  0  0  0  0
  -16.5377  -29.9127   23.6361 C   0  0  0  0  0  0
  -16.7288  -28.6547   23.0376 C   0  0  0  0  0  0
  -26.4469  -31.6603   25.0700 C   0  0  0  0  0  0
  -25.3664  -31.3810   26.1410 C   0  0  0  0  0  0
  -27.0295  -30.3002   24.6209 C   0  0  0  0  0  0
  -27.5995  -32.4345   25.7496 C   0  0  0  0  0  0
  -27.5559  -37.1770   24.8485 C   0  0  0  0  0  0
  -21.4212  -29.3031   22.3656 N   0  0  0  0  0  0
  -26.4276  -37.3755   23.9433 N   0  0  0  0  0  0
  -24.7026  -31.0410   22.0911 N   0  0  0  0  0  0
  -23.4205  -28.8099   23.2977 O   0  0  0  0  0  0
  -28.3284  -26.2946   20.2234 O   0  0  0  0  0  0
  -26.5665  -34.8925   22.4657 O   0  0  0  0  0  0
  -23.5447  -32.1324   23.7183 O   0  0  0  0  0  0
  -30.0992  -18.4862   20.0893 C   0  0  0  0  0  0
  -28.3356  -17.8582   21.4492 C   0  0  0  0  0  0
  -29.4314  -17.3588   20.7770 C   0  0  0  0  0  0
  -29.4740  -19.7718   20.1920 C   0  0  0  0  0  0
  -29.7547  -21.0715   19.4312 C   0  0  0  0  0  0
  -29.7044  -24.8428   18.8319 C   0  0  0  0  0  0
  -29.9392  -23.3667   18.4535 C   0  0  0  0  0  0
  -28.5806  -23.4368   20.3917 C   0  0  0  0  0  0
  -28.4072  -24.8832   19.6264 C   0  0  1  0  0  0
  -29.4045  -22.4677   19.5181 N   0  0  0  0  0  0
  -29.6264  -15.8592   20.8272 N   0  0  0  0  0  0
  -30.5232  -20.7626   18.3692 N   0  3  0  0  0  0
  -28.0892  -19.5993   21.2400 S   0  0  0  0  0  0
  -31.4826  -12.6890   19.1660 H   0  0  0  0  0  0
  -30.4425  -11.5330   19.9535 H   0  0  0  0  0  0
  -29.8090  -11.7580   17.5301 H   0  0  0  0  0  0
  -29.6179  -13.4826   17.7202 H   0  0  0  0  0  0
  -27.9224  -11.2815   18.9358 H   0  0  0  0  0  0
  -27.3773  -12.5025   17.8153 H   0  0  0  0  0  0
  -27.6378  -14.2508   19.4811 H   0  0  0  0  0  0
  -28.7477  -12.1286   21.3842 H   0  0  0  0  0  0
  -28.4000  -13.7713   21.8383 H   0  0  0  0  0  0
  -25.2753   -9.5677   22.4785 H   0  0  0  0  0  0
  -24.0008   -7.4605   22.7442 H   0  0  0  0  0  0
  -21.0859   -8.8770   19.8930 H   0  0  0  0  0  0
  -22.3702  -10.9682   19.6177 H   0  0  0  0  0  0
  -21.1985   -7.6145   23.9735 H   0  0  0  0  0  0
  -21.1494   -6.0514   25.9091 H   0  0  0  0  0  0
  -22.0589   -2.7613   23.2847 H   0  0  0  0  0  0
  -22.4060  -11.9828   22.4792 H   0  0  0  0  0  0
  -21.1090  -13.1232   22.2683 H   0  0  0  0  0  0
  -24.6570  -15.8474   20.5080 H   0  0  0  0  0  0
  -26.2699  -15.6254   20.0662 H   0  0  0  0  0  0
  -26.7175  -32.5378   23.1003 H   0  0  0  0  0  0
  -25.0020  -33.9703   25.0314 H   0  0  0  0  0  0
  -22.7334  -31.2922   21.3843 H   0  0  0  0  0  0
  -23.3769  -35.9531   23.3331 H   0  0  0  0  0  0
  -24.3553  -36.8833   22.2059 H   0  0  0  0  0  0
  -23.7185  -37.6417   23.6670 H   0  0  0  0  0  0
  -26.1298  -31.5019   20.6095 H   0  0  0  0  0  0
  -26.8582  -30.7939   22.0185 H   0  0  0  0  0  0
  -28.1216  -28.8654   21.2213 H   0  0  0  0  0  0
  -25.9076  -25.8610   19.0299 H   0  0  0  0  0  0
  -23.9714  -27.2953   19.0070 H   0  0  0  0  0  0
  -23.7785  -30.5705   19.3945 H   0  0  0  0  0  0
  -22.7749  -29.2290   19.8519 H   0  0  0  0  0  0
  -25.1294  -36.1871   25.0811 H   0  0  0  0  0  0
  -21.0019  -28.3251   24.1396 H   0  0  0  0  0  0
  -20.5635  -26.2279   23.3632 H   0  0  0  0  0  0
  -21.6632  -26.7399   22.1225 H   0  0  0  0  0  0
  -19.6882  -25.6311   21.1251 H   0  0  0  0  0  0
  -19.6688  -27.3221   20.6778 H   0  0  0  0  0  0
  -17.4185  -26.6734   21.4052 H   0  0  0  0  0  0
  -18.0301  -26.0107   22.9039 H   0  0  0  0  0  0
  -19.7972  -30.7304   24.2232 H   0  0  0  0  0  0
  -17.5071  -31.6299   24.5186 H   0  0  0  0  0  0
  -15.5389  -30.3044   23.7692 H   0  0  0  0  0  0
  -15.8687  -28.0884   22.7076 H   0  0  0  0  0  0
  -24.5918  -30.7033   25.7796 H   0  0  0  0  0  0
  -24.8756  -32.3002   26.4630 H   0  0  0  0  0  0
  -25.7964  -30.9204   27.0304 H   0  0  0  0  0  0
  -26.2864  -29.6793   24.1198 H   0  0  0  0  0  0
  -27.3921  -29.7235   25.4725 H   0  0  0  0  0  0
  -27.8771  -30.4273   23.9472 H   0  0  0  0  0  0
  -27.2612  -33.3737   26.1882 H   0  0  0  0  0  0
  -28.3923  -32.6733   25.0392 H   0  0  0  0  0  0
  -28.0504  -31.8574   26.5571 H   0  0  0  0  0  0
  -28.2583  -38.0058   24.7521 H   0  0  0  0  0  0
  -28.1027  -36.2580   24.6317 H   0  0  0  0  0  0
  -27.2269  -37.1419   25.8886 H   0  0  0  0  0  0
  -20.9367  -29.8766   21.6897 H   0  0  0  0  0  0
  -26.0138  -38.2806   24.1494 H   0  0  0  0  0  0
  -30.9786  -18.2996   19.4888 H   0  0  0  0  0  0
  -27.6154  -17.3141   22.0513 H   0  0  0  0  0  0
  -29.6412  -25.4735   17.9437 H   0  0  0  0  0  0
  -30.5363  -25.2095   19.4329 H   0  0  0  0  0  0
  -31.0059  -23.2147   18.2894 H   0  0  0  0  0  0
  -29.4154  -23.1389   17.5234 H   0  0  0  0  0  0
  -27.6095  -23.0003   20.6230 H   0  0  0  0  0  0
  -29.1082  -23.5671   21.3351 H   0  0  0  0  0  0
  -27.6128  -24.7528   18.8956 H   0  0  0  0  0  0
  -28.8073  -15.4040   21.1978 H   0  0  0  0  0  0
  -30.7709  -19.8028   18.1901 H   0  0  0  0  0  0
  -30.8404  -21.4583   17.7130 H   0  0  0  0  0  0
  1 25  1  0  0  0
  1 30  2  0  0  0
  1 81  1  0  0  0
  2  3  1  0  0  0
  2 25  1  0  0  0
  2 84  1  0  0  0
  2 85  1  0  0  0
  3  4  1  0  0  0
  3 86  1  0  0  0
  3 87  1  0  0  0
  4  5  1  0  0  0
  4 88  1  0  0  0
  4 89  1  0  0  0
  5  6  1  0  0  0
  5 26  1  0  0  0
  5 90  1  0  0  0
  6 25  1  0  0  0
  6 91  1  0  0  0
  6 92  1  0  0  0
  7  8  2  0  0  0
  7 26  1  0  0  0
  7 29  1  0  0  0
  8  9  1  0  0  0
  8 22  1  0  0  0
  9 10  1  0  0  0
  9 27  2  0  0  0
 10 11  2  0  0  0
 10 15  1  0  0  0
 11 12  1  0  0  0
 11 93  1  0  0  0
 12 13  2  0  0  0
 12 94  1  0  0  0
 13 14  1  0  0  0
 13 31  1  0  0  0
 14 15  2  0  0  0
 14 95  1  0  0  0
 15 96  1  0  0  0
 16 17  2  0  0  0
 16 21  1  0  0  0
 16 31  1  0  0  0
 17 18  1  0  0  0
 17 97  1  0  0  0
 18 19  2  0  0  0
 18 98  1  0  0  0
 19 20  1  0  0  0
 19 24  1  0  0  0
 20 21  2  0  0  0
 20 99  1  0  0  0
 21 23  1  0  0  0
 22 28  1  0  0  0
 22 32  2  0  0  0
 26 27  1  0  0  0
 28100  1  0  0  0
 28101  1  0  0  0
 29102  1  0  0  0
 29103  1  0  0  0
 33 34  1  0  0  0
 33 66  1  0  0  0
 33 70  2  0  0  0
 34 36  1  0  0  0
 34 59  1  0  0  0
 34104  1  0  0  0
 35 44  2  0  0  0
 35 45  1  0  0  0
 35 68  1  0  0  0
 36 56  1  0  0  0
 36105  1  0  0  0
 37 39  1  0  0  0
 37 47  1  0  0  0
 37 66  1  0  0  0
 37106  1  0  0  0
 38 43  2  0  0  0
 38 46  1  0  0  0
 38 47  1  0  0  0
 39 64  1  0  0  0
 39 67  2  0  0  0
 40 52  1  0  0  0
 40 53  2  0  0  0
 40 58  1  0  0  0
 41107  1  0  0  0
 41108  1  0  0  0
 41109  1  0  0  0
 41 48  1  0  0  0
 42 43  1  0  0  0
 42 66  1  0  0  0
 42110  1  0  0  0
 42111  1  0  0  0
 43 44  1  0  0  0
 44112  1  0  0  0
 45 46  2  0  0  0
 45113  1  0  0  0
 46114  1  0  0  0
 47115  1  0  0  0
 47116  1  0  0  0
 48 56  1  0  0  0
 48 65  1  0  0  0
 48117  1  0  0  0
 49 50  1  0  0  0
 49 53  1  0  0  0
 49 64  1  0  0  0
 49118  1  0  0  0
 50 51  1  0  0  0
 50119  1  0  0  0
 50120  1  0  0  0
 51 52  1  0  0  0
 51121  1  0  0  0
 51122  1  0  0  0
 52123  1  0  0  0
 52124  1  0  0  0
 53 54  1  0  0  0
 54 55  2  0  0  0
 54125  1  0  0  0
 55 57  1  0  0  0
 55126  1  0  0  0
 56 69  2  0  0  0
 57 58  2  0  0  0
 57127  1  0  0  0
 58128  1  0  0  0
 59 60  1  0  0  0
 59 61  1  0  0  0
 59 62  1  0  0  0
 60129  1  0  0  0
 60130  1  0  0  0
 60131  1  0  0  0
 61132  1  0  0  0
 61133  1  0  0  0
 61134  1  0  0  0
 62135  1  0  0  0
 62136  1  0  0  0
 62137  1  0  0  0
 63 65  1  0  0  0
 63138  1  0  0  0
 63139  1  0  0  0
 63140  1  0  0  0
 64141  1  0  0  0
 65142  1  0  0  0
 68 79  1  0  0  0
 71 73  1  0  0  0
 71 74  2  0  0  0
 71143  1  0  0  0
 72 73  2  0  0  0
 72 83  1  0  0  0
 72144  1  0  0  0
 73 81  1  0  0  0
 74 75  1  0  0  0
 74 83  1  0  0  0
 75 80  1  0  0  0
 75 82  2  0  0  0
 76 77  1  0  0  0
 76 79  1  0  0  0
 76145  1  0  0  0
 76146  1  0  0  0
 77 80  1  0  0  0
 77147  1  0  0  0
 77148  1  0  0  0
 78 79  1  0  0  0
 78 80  1  0  0  0
 78149  1  0  0  0
 78150  1  0  0  0
 79151  1  0  0  0
 81152  1  0  0  0
 82153  1  0  0  0
 82154  1  0  0  0
M  CHG  1  82   1
M  ISO  4   1 100  68 101  79 101  81 100
M  END
> <chiral flag>
0

> <version>
0

> <s_m_source_file>
/data/baiqing/PycharmProjects/Reinvent-master-3.2/result/LINK_invent/BTK/process_docking_weight1_custom_product_contain_oxygen_bond_distance_aromatic_linkinvent_7_9_3/rearranged_h_0155.sdf

> <i_m_source_file_index>
38

> <r_mmod_Potential_Energy-OPLS-2005>
315.019317626953

> <r_mmod_Stretch_Energy-OPLS-2005>
175.910064697266

> <r_mmod_Bend_Energy-OPLS-2005>
337.504852294922

> <r_mmod_Torsional_Energy-OPLS-2005>
267.397338867188

> <r_mmod_Improper_Torsional_Energy-OPLS-2005>
4.1916446685791

> <r_mmod_Van_der_Waal_Energy-OPLS-2005>
126.061447143555

> <r_mmod_Electrostatic_Energy-OPLS-2005>
-262.419830322266

> <r_mmod_Solvation_Energy-OPLS-2005>
-461.882385253906

> <b_mmod_Minimization_Converged-OPLS-2005>
0

> <r_mmod_RMS_Derivative-OPLS-2005>
2.92753219604492

$$$$
38
                    3D
 Structure written by MMmdl.
166175  0  0  1  0            999 V2000
  -30.6536  -14.4972   20.5387 C   0  0  0  0  0  0
  -30.4574  -12.3221   19.4103 C   0  0  0  0  0  0
  -29.5108  -12.5016   18.2027 C   0  0  0  0  0  0
  -28.0286  -12.3605   18.6159 C   0  0  0  0  0  0
  -27.6727  -13.1966   19.8733 C   0  0  2  0  0  0
  -28.7160  -12.9629   20.9906 C   0  0  0  0  0  0
  -25.2682  -13.8196   20.5653 C   0  0  0  0  0  0
  -24.1911  -13.0488   20.9179 C   0  0  0  0  0  0
  -24.6429  -11.6951   20.8758 C   0  0  0  0  0  0
  -23.9084  -10.4346   21.0452 C   0  0  0  0  0  0
  -24.3630   -9.4252   21.9224 C   0  0  0  0  0  0
  -23.6301   -8.2275   22.0772 C   0  0  0  0  0  0
  -22.4292   -8.0334   21.3551 C   0  0  0  0  0  0
  -21.9924   -9.0325   20.4666 C   0  0  0  0  0  0
  -22.7260  -10.2207   20.3091 C   0  0  0  0  0  0
  -21.6850   -6.0767   22.5284 C   0  0  0  0  0  0
  -21.4006   -6.5646   23.8228 C   0  0  0  0  0  0
  -21.3641   -5.6786   24.9172 C   0  0  0  0  0  0
  -21.6041   -4.3045   24.7206 C   0  0  0  0  0  0
  -21.8831   -3.8167   23.4315 C   0  0  0  0  0  0
  -21.9193   -4.6985   22.3389 C   0  0  0  0  0  0
  -22.7930  -13.5338   21.1781 C   0  0  0  0  0  0
  -22.1672   -4.2188   21.0962 F   0  0  0  0  0  0
  -21.5616   -3.4513   25.7701 F   0  0  0  0  0  0
  -30.0468  -13.2848   20.4434 N   0  0  0  0  0  0
  -26.3094  -12.9308   20.3328 N   0  0  0  0  0  0
  -25.9353  -11.6491   20.5774 N   0  0  0  0  0  0
  -22.0458  -12.8436   22.0325 N   0  0  0  0  0  0
  -25.4493  -15.1899   20.4061 N   0  0  0  0  0  0
  -31.7951  -14.7123   20.1194 O   0  0  0  0  0  0
  -21.6636   -6.8921   21.4253 O   0  0  0  0  0  0
  -22.3670  -14.5625   20.6561 O   0  0  0  0  0  0
  -24.6283  -31.8618   23.2076 C   0  0  0  0  0  0
  -25.9176  -32.4755   23.8356 C   0  0  1  0  0  0
  -27.2083  -27.3585   20.0858 C   0  0  0  0  0  0
  -25.6020  -33.8562   24.2281 N   0  0  0  0  0  0
  -23.4098  -30.4884   21.5585 C   0  0  2  0  0  0
  -24.8445  -28.9510   20.1237 C   0  0  0  0  0  0
  -22.7459  -29.4618   22.5060 C   0  0  0  0  0  0
  -18.0282  -28.1354   22.8475 C   0  0  0  0  0  0
  -24.1486  -36.7303   23.2638 C   0  0  0  0  0  0
  -25.9483  -30.7986   21.3728 C   0  0  0  0  0  0
  -26.0174  -29.4297   20.7204 C   0  0  0  0  0  0
  -27.1997  -28.6383   20.7075 C   0  0  0  0  0  0
  -26.0054  -26.9327   19.4621 C   0  0  0  0  0  0
  -24.8353  -27.7002   19.5006 C   0  0  0  0  0  0
  -23.6152  -29.8264   20.1737 C   0  0  0  0  0  0
  -25.4105  -36.3053   24.0322 C   0  0  1  0  0  0
  -20.5872  -28.3645   23.1336 C   0  0  2  0  0  0
  -20.6795  -26.9388   22.5428 C   0  0  0  0  0  0
  -19.5786  -26.6360   21.5218 C   0  0  0  0  0  0
  -18.1929  -26.7913   22.1564 C   0  0  0  0  0  0
  -19.1519  -28.8820   23.2868 C   0  0  0  0  0  0
  -18.9465  -30.1445   23.8844 C   0  0  0  0  0  0
  -17.6463  -30.6575   24.0532 C   0  0  0  0  0  0
  -25.9064  -34.9426   23.5079 C   0  0  0  0  0  0
  -16.5352  -29.9049   23.6359 C   0  0  0  0  0  0
  -16.7262  -28.6467   23.0368 C   0  0  0  0  0  0
  -26.4574  -31.6565   25.0729 C   0  0  0  0  0  0
  -25.3832  -31.3833   26.1510 C   0  0  0  0  0  0
  -27.0438  -30.2972   24.6220 C   0  0  0  0  0  0
  -27.6113  -32.4296   25.7543 C   0  0  0  0  0  0
  -27.5575  -37.1799   24.8441 C   0  0  0  0  0  0
  -21.4177  -29.3005   22.3771 N   0  0  0  0  0  0
  -26.4272  -37.3752   23.9403 N   0  0  0  0  0  0
  -24.6809  -31.0661   22.1033 N   0  0  0  0  0  0
  -23.4206  -28.8154   23.3104 O   0  0  0  0  0  0
  -28.3412  -26.5435   20.1176 O   0  0  0  0  0  0
  -26.5583  -34.8916   22.4614 O   0  0  0  0  0  0
  -23.5465  -32.1419   23.7462 O   0  0  0  0  0  0
  -30.6033  -18.9470   19.7237 C   0  0  0  0  0  0
  -30.7024  -17.5501   19.8992 C   0  0  0  0  0  0
  -28.7311  -17.6015   21.3126 C   0  0  0  0  0  0
  -28.6310  -19.0022   21.1436 C   0  0  0  0  0  0
  -29.5966  -19.7015   20.3714 C   0  0  0  0  0  0
  -29.7908  -16.8650   20.7354 C   0  0  0  0  0  0
  -28.9434  -22.9441   18.7071 C   0  0  0  0  0  0
  -29.0947  -23.3601   21.1689 C   0  0  0  0  0  0
  -29.7848  -21.6655   18.8847 C   0  0  0  0  0  0
  -29.8705  -22.0134   21.2979 C   0  0  0  0  0  0
  -29.2428  -24.0529   19.7680 C   0  0  0  0  0  0
  -27.4434  -19.7304   21.7577 C   0  0  0  0  0  0
  -31.0783  -25.5553   20.2856 C   0  0  0  0  0  0
  -28.2240  -25.2250   19.5043 C   0  0  0  0  0  0
  -29.5175  -21.1043   20.2015 N   0  0  0  0  0  0
  -29.8445  -15.4654   21.0159 N   0  0  0  0  0  0
  -30.5903  -24.4629   19.5139 O   0  0  0  0  0  0
  -31.4899  -12.4802   19.0905 H   0  0  0  0  0  0
  -30.4196  -11.3036   19.8006 H   0  0  0  0  0  0
  -29.7555  -11.7715   17.4299 H   0  0  0  0  0  0
  -29.6715  -13.4815   17.7505 H   0  0  0  0  0  0
  -27.8355  -11.3057   18.8076 H   0  0  0  0  0  0
  -27.3825  -12.6448   17.7861 H   0  0  0  0  0  0
  -27.7225  -14.2447   19.5763 H   0  0  0  0  0  0
  -28.7016  -11.9248   21.3245 H   0  0  0  0  0  0
  -28.4712  -13.5477   21.8774 H   0  0  0  0  0  0
  -25.2785   -9.5708   22.4773 H   0  0  0  0  0  0
  -24.0002   -7.4664   22.7488 H   0  0  0  0  0  0
  -21.0844   -8.8902   19.8982 H   0  0  0  0  0  0
  -22.3774  -10.9757   19.6188 H   0  0  0  0  0  0
  -21.2014   -7.6159   23.9748 H   0  0  0  0  0  0
  -21.1425   -6.0489   25.9080 H   0  0  0  0  0  0
  -22.0617   -2.7622   23.2787 H   0  0  0  0  0  0
  -22.3921  -12.0136   22.4883 H   0  0  0  0  0  0
  -21.1100  -13.1641   22.2380 H   0  0  0  0  0  0
  -24.6931  -15.8572   20.5237 H   0  0  0  0  0  0
  -26.3001  -15.6131   20.0560 H   0  0  0  0  0  0
  -26.7232  -32.5420   23.1093 H   0  0  0  0  0  0
  -25.0257  -33.9686   25.0489 H   0  0  0  0  0  0
  -22.7004  -31.3077   21.4232 H   0  0  0  0  0  0
  -23.3703  -35.9690   23.3327 H   0  0  0  0  0  0
  -24.3542  -36.8904   22.2045 H   0  0  0  0  0  0
  -23.7325  -37.6561   23.6626 H   0  0  0  0  0  0
  -26.0697  -31.5539   20.5953 H   0  0  0  0  0  0
  -26.8355  -30.8398   21.9943 H   0  0  0  0  0  0
  -28.1018  -28.9917   21.1884 H   0  0  0  0  0  0
  -25.9015  -25.9972   18.9363 H   0  0  0  0  0  0
  -23.9327  -27.3165   19.0434 H   0  0  0  0  0  0
  -23.7385  -30.5977   19.4144 H   0  0  0  0  0  0
  -22.7340  -29.2585   19.8697 H   0  0  0  0  0  0
  -25.1287  -36.1866   25.0817 H   0  0  0  0  0  0
  -20.9909  -28.3202   24.1483 H   0  0  0  0  0  0
  -20.5755  -26.2243   23.3604 H   0  0  0  0  0  0
  -21.6669  -26.7483   22.1205 H   0  0  0  0  0  0
  -19.6967  -25.6266   21.1262 H   0  0  0  0  0  0
  -19.6776  -27.3170   20.6752 H   0  0  0  0  0  0
  -17.4270  -26.6742   21.3878 H   0  0  0  0  0  0
  -18.0239  -25.9998   22.8882 H   0  0  0  0  0  0
  -19.7948  -30.7258   24.2178 H   0  0  0  0  0  0
  -17.5038  -31.6264   24.5126 H   0  0  0  0  0  0
  -15.5348  -30.2928   23.7756 H   0  0  0  0  0  0
  -15.8653  -28.0778   22.7115 H   0  0  0  0  0  0
  -24.5837  -30.7350   25.7913 H   0  0  0  0  0  0
  -24.9273  -32.3112   26.4973 H   0  0  0  0  0  0
  -25.8165  -30.8958   27.0255 H   0  0  0  0  0  0
  -26.3050  -29.6672   24.1255 H   0  0  0  0  0  0
  -27.4153  -29.7256   25.4742 H   0  0  0  0  0  0
  -27.8894  -30.4231   23.9449 H   0  0  0  0  0  0
  -27.2635  -33.3488   26.2262 H   0  0  0  0  0  0
  -28.3914  -32.7031   25.0425 H   0  0  0  0  0  0
  -28.0809  -31.8350   26.5394 H   0  0  0  0  0  0
  -28.2614  -38.0066   24.7407 H   0  0  0  0  0  0
  -28.1027  -36.2601   24.6284 H   0  0  0  0  0  0
  -27.2301  -37.1493   25.8847 H   0  0  0  0  0  0
  -20.9383  -29.8710   21.6955 H   0  0  0  0  0  0
  -26.0143  -38.2836   24.1361 H   0  0  0  0  0  0
  -31.3213  -19.4375   19.0829 H   0  0  0  0  0  0
  -31.4881  -17.0265   19.3731 H   0  0  0  0  0  0
  -27.9747  -17.0866   21.8910 H   0  0  0  0  0  0
  -27.8909  -22.6547   18.7734 H   0  0  0  0  0  0
  -29.0751  -23.3220   17.6922 H   0  0  0  0  0  0
  -29.3781  -24.0248   21.9831 H   0  0  0  0  0  0
  -28.0390  -23.1480   21.3505 H   0  0  0  0  0  0
  -30.8464  -21.9028   18.7906 H   0  0  0  0  0  0
  -29.5516  -20.9390   18.1048 H   0  0  0  0  0  0
  -29.6885  -21.5516   22.2695 H   0  0  0  0  0  0
  -30.9453  -22.2070   21.2666 H   0  0  0  0  0  0
  -26.8064  -19.0569   22.3296 H   0  0  0  0  0  0
  -26.8307  -20.1828   20.9757 H   0  0  0  0  0  0
  -27.7695  -20.5159   22.4367 H   0  0  0  0  0  0
  -32.1579  -25.4688   20.4002 H   0  0  0  0  0  0
  -30.6512  -25.6062   21.2853 H   0  0  0  0  0  0
  -30.8726  -26.5075   19.7973 H   0  0  0  0  0  0
  -27.2778  -24.7794   19.8065 H   0  0  0  0  0  0
  -28.1768  -25.4007   18.4268 H   0  0  0  0  0  0
  -29.0184  -15.0969   21.4637 H   0  0  0  0  0  0
  1 25  1  0  0  0
  1 30  2  0  0  0
  1 86  1  0  0  0
  2  3  1  0  0  0
  2 25  1  0  0  0
  2 88  1  0  0  0
  2 89  1  0  0  0
  3  4  1  0  0  0
  3 90  1  0  0  0
  3 91  1  0  0  0
  4  5  1  0  0  0
  4 92  1  0  0  0
  4 93  1  0  0  0
  5  6  1  0  0  0
  5 26  1  0  0  0
  5 94  1  0  0  0
  6 25  1  0  0  0
  6 95  1  0  0  0
  6 96  1  0  0  0
  7  8  2  0  0  0
  7 26  1  0  0  0
  7 29  1  0  0  0
  8  9  1  0  0  0
  8 22  1  0  0  0
  9 10  1  0  0  0
  9 27  2  0  0  0
 10 11  2  0  0  0
 10 15  1  0  0  0
 11 12  1  0  0  0
 11 97  1  0  0  0
 12 13  2  0  0  0
 12 98  1  0  0  0
 13 14  1  0  0  0
 13 31  1  0  0  0
 14 15  2  0  0  0
 14 99  1  0  0  0
 15100  1  0  0  0
 16 17  2  0  0  0
 16 21  1  0  0  0
 16 31  1  0  0  0
 17 18  1  0  0  0
 17101  1  0  0  0
 18 19  2  0  0  0
 18102  1  0  0  0
 19 20  1  0  0  0
 19 24  1  0  0  0
 20 21  2  0  0  0
 20103  1  0  0  0
 21 23  1  0  0  0
 22 28  1  0  0  0
 22 32  2  0  0  0
 26 27  1  0  0  0
 28104  1  0  0  0
 28105  1  0  0  0
 29106  1  0  0  0
 29107  1  0  0  0
 33 34  1  0  0  0
 33 66  1  0  0  0
 33 70  2  0  0  0
 34 36  1  0  0  0
 34 59  1  0  0  0
 34108  1  0  0  0
 35 44  2  0  0  0
 35 45  1  0  0  0
 35 68  1  0  0  0
 36 56  1  0  0  0
 36109  1  0  0  0
 37 39  1  0  0  0
 37 47  1  0  0  0
 37 66  1  0  0  0
 37110  1  0  0  0
 38 43  2  0  0  0
 38 46  1  0  0  0
 38 47  1  0  0  0
 39 64  1  0  0  0
 39 67  2  0  0  0
 40 52  1  0  0  0
 40 53  2  0  0  0
 40 58  1  0  0  0
 41111  1  0  0  0
 41112  1  0  0  0
 41113  1  0  0  0
 41 48  1  0  0  0
 42 43  1  0  0  0
 42 66  1  0  0  0
 42114  1  0  0  0
 42115  1  0  0  0
 43 44  1  0  0  0
 44116  1  0  0  0
 45 46  2  0  0  0
 45117  1  0  0  0
 46118  1  0  0  0
 47119  1  0  0  0
 47120  1  0  0  0
 48 56  1  0  0  0
 48 65  1  0  0  0
 48121  1  0  0  0
 49 50  1  0  0  0
 49 53  1  0  0  0
 49 64  1  0  0  0
 49122  1  0  0  0
 50 51  1  0  0  0
 50123  1  0  0  0
 50124  1  0  0  0
 51 52  1  0  0  0
 51125  1  0  0  0
 51126  1  0  0  0
 52127  1  0  0  0
 52128  1  0  0  0
 53 54  1  0  0  0
 54 55  2  0  0  0
 54129  1  0  0  0
 55 57  1  0  0  0
 55130  1  0  0  0
 56 69  2  0  0  0
 57 58  2  0  0  0
 57131  1  0  0  0
 58132  1  0  0  0
 59 60  1  0  0  0
 59 61  1  0  0  0
 59 62  1  0  0  0
 60133  1  0  0  0
 60134  1  0  0  0
 60135  1  0  0  0
 61136  1  0  0  0
 61137  1  0  0  0
 61138  1  0  0  0
 62139  1  0  0  0
 62140  1  0  0  0
 62141  1  0  0  0
 63 65  1  0  0  0
 63142  1  0  0  0
 63143  1  0  0  0
 63144  1  0  0  0
 64145  1  0  0  0
 65146  1  0  0  0
 68 84  1  0  0  0
 71 72  2  0  0  0
 71 75  1  0  0  0
 71147  1  0  0  0
 72 76  1  0  0  0
 72148  1  0  0  0
 73 74  1  0  0  0
 73 76  2  0  0  0
 73149  1  0  0  0
 74 75  2  0  0  0
 74 82  1  0  0  0
 75 85  1  0  0  0
 76 86  1  0  0  0
 77 79  1  0  0  0
 77 81  1  0  0  0
 77150  1  0  0  0
 77151  1  0  0  0
 78 80  1  0  0  0
 78 81  1  0  0  0
 78152  1  0  0  0
 78153  1  0  0  0
 79 85  1  0  0  0
 79154  1  0  0  0
 79155  1  0  0  0
 80 85  1  0  0  0
 80156  1  0  0  0
 80157  1  0  0  0
 81 84  1  0  0  0
 81 87  1  0  0  0
 82158  1  0  0  0
 82159  1  0  0  0
 82160  1  0  0  0
 83 87  1  0  0  0
 83161  1  0  0  0
 83162  1  0  0  0
 83163  1  0  0  0
 84164  1  0  0  0
 84165  1  0  0  0
 86166  1  0  0  0
M  ISO  4   1 100  68 101  84 101  86 100
M  END
> <chiral flag>
0

> <version>
0

> <s_m_source_file>
/data/baiqing/PycharmProjects/Reinvent-master-3.2/result/LINK_invent/BTK/process_docking_weight1_custom_product_contain_oxygen_bond_distance_aromatic_linkinvent_7_9_3/rearranged_h_0155.sdf

> <i_m_source_file_index>
39

> <r_mmod_Potential_Energy-OPLS-2005>
28.0057029724121

> <r_mmod_Stretch_Energy-OPLS-2005>
50.4043922424316

> <r_mmod_Bend_Energy-OPLS-2005>
142.294937133789

> <r_mmod_Torsional_Energy-OPLS-2005>
263.406463623047

> <r_mmod_Improper_Torsional_Energy-OPLS-2005>
6.49278116226196

> <r_mmod_Van_der_Waal_Energy-OPLS-2005>
175.073989868164

> <r_mmod_Electrostatic_Energy-OPLS-2005>
-421.419525146484

> <r_mmod_Solvation_Energy-OPLS-2005>
-213.777877807617

> <b_mmod_Minimization_Converged-OPLS-2005>
0

> <r_mmod_RMS_Derivative-OPLS-2005>
5.16485071182251

$$$$
39
                    3D
 Structure written by MMmdl.
164173  0  0  1  0            999 V2000
  -30.6534  -14.5832   20.5000 C   0  0  0  0  0  0
  -30.4370  -12.3574   19.4459 C   0  0  0  0  0  0
  -29.5098  -12.4963   18.2152 C   0  0  0  0  0  0
  -28.0275  -12.3609   18.6249 C   0  0  0  0  0  0
  -27.6604  -13.2176   19.8648 C   0  0  2  0  0  0
  -28.7027  -13.0507   20.9948 C   0  0  0  0  0  0
  -25.2606  -13.8185   20.5676 C   0  0  0  0  0  0
  -24.1853  -13.0479   20.9173 C   0  0  0  0  0  0
  -24.6400  -11.6943   20.8726 C   0  0  0  0  0  0
  -23.9064  -10.4323   21.0394 C   0  0  0  0  0  0
  -24.3618   -9.4225   21.9167 C   0  0  0  0  0  0
  -23.6298   -8.2245   22.0731 C   0  0  0  0  0  0
  -22.4261   -8.0293   21.3548 C   0  0  0  0  0  0
  -21.9899   -9.0266   20.4648 C   0  0  0  0  0  0
  -22.7234  -10.2152   20.3055 C   0  0  0  0  0  0
  -21.6842   -6.0752   22.5284 C   0  0  0  0  0  0
  -21.4019   -6.5658   23.8223 C   0  0  0  0  0  0
  -21.3660   -5.6802   24.9177 C   0  0  0  0  0  0
  -21.6017   -4.3059   24.7216 C   0  0  0  0  0  0
  -21.8817   -3.8153   23.4346 C   0  0  0  0  0  0
  -21.9194   -4.6977   22.3407 C   0  0  0  0  0  0
  -22.7853  -13.5273   21.1831 C   0  0  0  0  0  0
  -22.1663   -4.2173   21.0969 F   0  0  0  0  0  0
  -21.5648   -3.4541   25.7724 F   0  0  0  0  0  0
  -30.0269  -13.3739   20.4357 N   0  0  0  0  0  0
  -26.3028  -12.9368   20.3300 N   0  0  0  0  0  0
  -25.9331  -11.6512   20.5703 N   0  0  0  0  0  0
  -22.0460  -12.8285   22.0373 N   0  0  0  0  0  0
  -25.4380  -15.1881   20.4148 N   0  0  0  0  0  0
  -31.7952  -14.7525   20.0607 O   0  0  0  0  0  0
  -21.6645   -6.8876   21.4231 O   0  0  0  0  0  0
  -22.3528  -14.5596   20.6699 O   0  0  0  0  0  0
  -24.6210  -31.8679   23.2104 C   0  0  0  0  0  0
  -25.9083  -32.4812   23.8421 C   0  0  1  0  0  0
  -27.2052  -27.3647   20.0944 C   0  0  0  0  0  0
  -25.5928  -33.8609   24.2365 N   0  0  0  0  0  0
  -23.4107  -30.4964   21.5526 C   0  0  2  0  0  0
  -24.8483  -28.9629   20.1091 C   0  0  0  0  0  0
  -22.7458  -29.4653   22.4959 C   0  0  0  0  0  0
  -18.0293  -28.1362   22.8498 C   0  0  0  0  0  0
  -24.1488  -36.7300   23.2638 C   0  0  0  0  0  0
  -25.9502  -30.8106   21.3718 C   0  0  0  0  0  0
  -26.0172  -29.4439   20.7081 C   0  0  0  0  0  0
  -27.2027  -28.6594   20.6865 C   0  0  0  0  0  0
  -26.0064  -26.9190   19.4924 C   0  0  0  0  0  0
  -24.8408  -27.7026   19.4942 C   0  0  0  0  0  0
  -23.6187  -29.8416   20.1632 C   0  0  0  0  0  0
  -25.4101  -36.3101   24.0355 C   0  0  1  0  0  0
  -20.5889  -28.3653   23.1301 C   0  0  2  0  0  0
  -20.6751  -26.9387   22.5396 C   0  0  0  0  0  0
  -19.5731  -26.6378   21.5194 C   0  0  0  0  0  0
  -18.1918  -26.7914   22.1614 C   0  0  0  0  0  0
  -19.1542  -28.8821   23.2899 C   0  0  0  0  0  0
  -18.9468  -30.1422   23.8932 C   0  0  0  0  0  0
  -17.6468  -30.6572   24.0554 C   0  0  0  0  0  0
  -25.9040  -34.9473   23.5156 C   0  0  0  0  0  0
  -16.5366  -29.9074   23.6309 C   0  0  0  0  0  0
  -16.7275  -28.6475   23.0359 C   0  0  0  0  0  0
  -26.4492  -31.6608   25.0770 C   0  0  0  0  0  0
  -25.3770  -31.3737   26.1543 C   0  0  0  0  0  0
  -27.0282  -30.3035   24.6156 C   0  0  0  0  0  0
  -27.6073  -32.4339   25.7508 C   0  0  0  0  0  0
  -27.5586  -37.1795   24.8464 C   0  0  0  0  0  0
  -21.4170  -29.3040   22.3715 N   0  0  0  0  0  0
  -26.4276  -37.3794   23.9433 N   0  0  0  0  0  0
  -24.6807  -31.0734   22.1030 N   0  0  0  0  0  0
  -23.4234  -28.8162   23.2968 O   0  0  0  0  0  0
  -28.3445  -26.5591   20.1282 O   0  0  0  0  0  0
  -26.5596  -34.8918   22.4724 O   0  0  0  0  0  0
  -23.5386  -32.1431   23.7466 O   0  0  0  0  0  0
  -29.2282  -18.2777   18.3611 C   0  0  0  0  0  0
  -29.5880  -19.4715   19.0249 C   0  0  0  0  0  0
  -29.3652  -17.0255   18.9917 C   0  0  0  0  0  0
  -30.1356  -18.1506   21.0045 C   0  0  0  0  0  0
  -30.0518  -19.4346   20.3611 C   0  0  0  0  0  0
  -29.8364  -16.9353   20.3206 C   0  0  0  0  0  0
  -30.6162  -20.6564   21.0184 C   0  0  0  0  0  0
  -30.1314  -24.3328   21.5153 C   0  0  0  0  0  0
  -30.9915  -23.0668   21.5894 C   0  0  0  0  0  0
  -29.0929  -22.6416   20.2014 C   0  0  0  0  0  0
  -29.4104  -24.1888   20.1722 C   0  0  1  0  0  0
  -30.7892  -25.6855   18.7807 C   0  0  0  0  0  0
  -28.1496  -25.1137   19.9905 C   0  0  0  0  0  0
  -30.2306  -21.9804   20.9206 N   0  0  0  0  0  0
  -29.9159  -15.6352   20.9459 N   0  0  0  0  0  0
  -31.6802  -20.4231   21.7925 N   0  3  0  0  0  0
  -30.3426  -24.3603   19.0870 O   0  0  0  0  0  0
  -31.4821  -12.4680   19.1480 H   0  0  0  0  0  0
  -30.3574  -11.3616   19.8806 H   0  0  0  0  0  0
  -29.7587  -11.7388   17.4722 H   0  0  0  0  0  0
  -29.6732  -13.4577   17.7281 H   0  0  0  0  0  0
  -27.8299  -11.3092   18.8324 H   0  0  0  0  0  0
  -27.3846  -12.6251   17.7849 H   0  0  0  0  0  0
  -27.6915  -14.2571   19.5377 H   0  0  0  0  0  0
  -28.6964  -12.0295   21.3766 H   0  0  0  0  0  0
  -28.4541  -13.6823   21.8484 H   0  0  0  0  0  0
  -25.2775   -9.5750   22.4729 H   0  0  0  0  0  0
  -24.0059   -7.4636   22.7447 H   0  0  0  0  0  0
  -21.0833   -8.8788   19.8951 H   0  0  0  0  0  0
  -22.3681  -10.9692   19.6170 H   0  0  0  0  0  0
  -21.2008   -7.6143   23.9736 H   0  0  0  0  0  0
  -21.1475   -6.0517   25.9090 H   0  0  0  0  0  0
  -22.0591   -2.7622   23.2822 H   0  0  0  0  0  0
  -22.4074  -12.0016   22.4884 H   0  0  0  0  0  0
  -21.1054  -13.1323   22.2513 H   0  0  0  0  0  0
  -24.6853  -15.8562   20.5432 H   0  0  0  0  0  0
  -26.2920  -15.6173   20.0830 H   0  0  0  0  0  0
  -26.7155  -32.5477   23.1169 H   0  0  0  0  0  0
  -25.0056  -33.9792   25.0488 H   0  0  0  0  0  0
  -22.6973  -31.3146   21.4204 H   0  0  0  0  0  0
  -23.3754  -35.9623   23.3304 H   0  0  0  0  0  0
  -24.3569  -36.8902   22.2045 H   0  0  0  0  0  0
  -23.7234  -37.6514   23.6632 H   0  0  0  0  0  0
  -26.0821  -31.5785   20.6083 H   0  0  0  0  0  0
  -26.8326  -30.8524   21.9981 H   0  0  0  0  0  0
  -28.1040  -29.0314   21.1482 H   0  0  0  0  0  0
  -25.9200  -25.9582   19.0089 H   0  0  0  0  0  0
  -23.9410  -27.3262   19.0274 H   0  0  0  0  0  0
  -23.7364  -30.6246   19.4135 H   0  0  0  0  0  0
  -22.7365  -29.2753   19.8601 H   0  0  0  0  0  0
  -25.1261  -36.1960   25.0842 H   0  0  0  0  0  0
  -20.9998  -28.3207   24.1419 H   0  0  0  0  0  0
  -20.5592  -26.2290   23.3592 H   0  0  0  0  0  0
  -21.6626  -26.7355   22.1243 H   0  0  0  0  0  0
  -19.6863  -25.6292   21.1222 H   0  0  0  0  0  0
  -19.6653  -27.3195   20.6731 H   0  0  0  0  0  0
  -17.4175  -26.6677   21.4028 H   0  0  0  0  0  0
  -18.0304  -26.0051   22.9005 H   0  0  0  0  0  0
  -19.7937  -30.7209   24.2350 H   0  0  0  0  0  0
  -17.5019  -31.6258   24.5146 H   0  0  0  0  0  0
  -15.5361  -30.2982   23.7587 H   0  0  0  0  0  0
  -15.8679  -28.0777   22.7089 H   0  0  0  0  0  0
  -24.5908  -30.7117   25.7925 H   0  0  0  0  0  0
  -24.8999  -32.2892   26.5050 H   0  0  0  0  0  0
  -25.8141  -30.8881   27.0279 H   0  0  0  0  0  0
  -26.2801  -29.6839   24.1198 H   0  0  0  0  0  0
  -27.4028  -29.7241   25.4608 H   0  0  0  0  0  0
  -27.8676  -30.4351   23.9318 H   0  0  0  0  0  0
  -27.2708  -33.3644   26.2093 H   0  0  0  0  0  0
  -28.3852  -32.6910   25.0310 H   0  0  0  0  0  0
  -28.0777  -31.8473   26.5405 H   0  0  0  0  0  0
  -28.2602  -38.0098   24.7528 H   0  0  0  0  0  0
  -28.1088  -36.2637   24.6245 H   0  0  0  0  0  0
  -27.2324  -37.1406   25.8874 H   0  0  0  0  0  0
  -20.9320  -29.8856   21.7023 H   0  0  0  0  0  0
  -26.0174  -38.2872   24.1445 H   0  0  0  0  0  0
  -28.8712  -18.3097   17.3403 H   0  0  0  0  0  0
  -29.5511  -20.3996   18.4762 H   0  0  0  0  0  0
  -29.0862  -16.1382   18.4468 H   0  0  0  0  0  0
  -30.4907  -18.0846   22.0252 H   0  0  0  0  0  0
  -30.7347  -25.2349   21.5904 H   0  0  0  0  0  0
  -29.4256  -24.3571   22.3472 H   0  0  0  0  0  0
  -31.2632  -22.8432   22.6242 H   0  0  0  0  0  0
  -31.9181  -23.2302   21.0336 H   0  0  0  0  0  0
  -28.9343  -22.2703   19.1908 H   0  0  0  0  0  0
  -28.1763  -22.4484   20.7644 H   0  0  0  0  0  0
  -31.7179  -25.6256   18.2135 H   0  0  0  0  0  0
  -30.9982  -26.2950   19.6596 H   0  0  0  0  0  0
  -30.0724  -26.2207   18.1545 H   0  0  0  0  0  0
  -27.3950  -24.8097   20.7221 H   0  0  0  0  0  0
  -27.7366  -24.8819   19.0083 H   0  0  0  0  0  0
  -29.0891  -15.3671   21.4591 H   0  0  0  0  0  0
  -32.0534  -19.4886   21.8536 H   0  0  0  0  0  0
  -32.1309  -21.1495   22.3170 H   0  0  0  0  0  0
  1 25  1  0  0  0
  1 30  2  0  0  0
  1 85  1  0  0  0
  2  3  1  0  0  0
  2 25  1  0  0  0
  2 88  1  0  0  0
  2 89  1  0  0  0
  3  4  1  0  0  0
  3 90  1  0  0  0
  3 91  1  0  0  0
  4  5  1  0  0  0
  4 92  1  0  0  0
  4 93  1  0  0  0
  5  6  1  0  0  0
  5 26  1  0  0  0
  5 94  1  0  0  0
  6 25  1  0  0  0
  6 95  1  0  0  0
  6 96  1  0  0  0
  7  8  2  0  0  0
  7 26  1  0  0  0
  7 29  1  0  0  0
  8  9  1  0  0  0
  8 22  1  0  0  0
  9 10  1  0  0  0
  9 27  2  0  0  0
 10 11  2  0  0  0
 10 15  1  0  0  0
 11 12  1  0  0  0
 11 97  1  0  0  0
 12 13  2  0  0  0
 12 98  1  0  0  0
 13 14  1  0  0  0
 13 31  1  0  0  0
 14 15  2  0  0  0
 14 99  1  0  0  0
 15100  1  0  0  0
 16 17  2  0  0  0
 16 21  1  0  0  0
 16 31  1  0  0  0
 17 18  1  0  0  0
 17101  1  0  0  0
 18 19  2  0  0  0
 18102  1  0  0  0
 19 20  1  0  0  0
 19 24  1  0  0  0
 20 21  2  0  0  0
 20103  1  0  0  0
 21 23  1  0  0  0
 22 28  1  0  0  0
 22 32  2  0  0  0
 26 27  1  0  0  0
 28104  1  0  0  0
 28105  1  0  0  0
 29106  1  0  0  0
 29107  1  0  0  0
 33 34  1  0  0  0
 33 66  1  0  0  0
 33 70  2  0  0  0
 34 36  1  0  0  0
 34 59  1  0  0  0
 34108  1  0  0  0
 35 44  2  0  0  0
 35 45  1  0  0  0
 35 68  1  0  0  0
 36 56  1  0  0  0
 36109  1  0  0  0
 37 39  1  0  0  0
 37 47  1  0  0  0
 37 66  1  0  0  0
 37110  1  0  0  0
 38 43  2  0  0  0
 38 46  1  0  0  0
 38 47  1  0  0  0
 39 64  1  0  0  0
 39 67  2  0  0  0
 40 52  1  0  0  0
 40 53  2  0  0  0
 40 58  1  0  0  0
 41111  1  0  0  0
 41112  1  0  0  0
 41113  1  0  0  0
 41 48  1  0  0  0
 42 43  1  0  0  0
 42 66  1  0  0  0
 42114  1  0  0  0
 42115  1  0  0  0
 43 44  1  0  0  0
 44116  1  0  0  0
 45 46  2  0  0  0
 45117  1  0  0  0
 46118  1  0  0  0
 47119  1  0  0  0
 47120  1  0  0  0
 48 56  1  0  0  0
 48 65  1  0  0  0
 48121  1  0  0  0
 49 50  1  0  0  0
 49 53  1  0  0  0
 49 64  1  0  0  0
 49122  1  0  0  0
 50 51  1  0  0  0
 50123  1  0  0  0
 50124  1  0  0  0
 51 52  1  0  0  0
 51125  1  0  0  0
 51126  1  0  0  0
 52127  1  0  0  0
 52128  1  0  0  0
 53 54  1  0  0  0
 54 55  2  0  0  0
 54129  1  0  0  0
 55 57  1  0  0  0
 55130  1  0  0  0
 56 69  2  0  0  0
 57 58  2  0  0  0
 57131  1  0  0  0
 58132  1  0  0  0
 59 60  1  0  0  0
 59 61  1  0  0  0
 59 62  1  0  0  0
 60133  1  0  0  0
 60134  1  0  0  0
 60135  1  0  0  0
 61136  1  0  0  0
 61137  1  0  0  0
 61138  1  0  0  0
 62139  1  0  0  0
 62140  1  0  0  0
 62141  1  0  0  0
 63 65  1  0  0  0
 63142  1  0  0  0
 63143  1  0  0  0
 63144  1  0  0  0
 64145  1  0  0  0
 65146  1  0  0  0
 68 83  1  0  0  0
 71 72  2  0  0  0
 71 73  1  0  0  0
 71147  1  0  0  0
 72 75  1  0  0  0
 72148  1  0  0  0
 73 76  2  0  0  0
 73149  1  0  0  0
 74 75  2  0  0  0
 74 76  1  0  0  0
 74150  1  0  0  0
 75 77  1  0  0  0
 76 85  1  0  0  0
 77 84  1  0  0  0
 77 86  2  0  0  0
 78 79  1  0  0  0
 78 81  1  0  0  0
 78151  1  0  0  0
 78152  1  0  0  0
 79 84  1  0  0  0
 79153  1  0  0  0
 79154  1  0  0  0
 80 81  1  0  0  0
 80 84  1  0  0  0
 80155  1  0  0  0
 80156  1  0  0  0
 81 83  1  0  0  0
 81 87  1  0  0  0
 82 87  1  0  0  0
 82157  1  0  0  0
 82158  1  0  0  0
 82159  1  0  0  0
 83160  1  0  0  0
 83161  1  0  0  0
 85162  1  0  0  0
 86163  1  0  0  0
 86164  1  0  0  0
M  CHG  1  86   1
M  ISO  4   1 100  68 101  83 101  85 100
M  END
> <chiral flag>
0

> <version>
0

> <s_m_source_file>
/data/baiqing/PycharmProjects/Reinvent-master-3.2/result/LINK_invent/BTK/process_docking_weight1_custom_product_contain_oxygen_bond_distance_aromatic_linkinvent_7_9_3/rearranged_h_0155.sdf

> <i_m_source_file_index>
40

> <r_mmod_Potential_Energy-OPLS-2005>
-69.6186294555664

> <r_mmod_Stretch_Energy-OPLS-2005>
64.2706527709961

> <r_mmod_Bend_Energy-OPLS-2005>
167.447784423828

> <r_mmod_Torsional_Energy-OPLS-2005>
313.137115478516

> <r_mmod_Improper_Torsional_Energy-OPLS-2005>
6.19818687438965

> <r_mmod_Van_der_Waal_Energy-OPLS-2005>
155.601119995117

> <r_mmod_Electrostatic_Energy-OPLS-2005>
-401.830322265625

> <r_mmod_Solvation_Energy-OPLS-2005>
-406.844055175781

> <b_mmod_Minimization_Converged-OPLS-2005>
0

> <r_mmod_RMS_Derivative-OPLS-2005>
5.95783281326294

$$$$
40
                    3D
 Structure written by MMmdl.
155164  0  0  1  0            999 V2000
  -30.6960  -14.6859   20.4520 C   0  0  0  0  0  0
  -30.4244  -12.4233   19.4486 C   0  0  0  0  0  0
  -29.4906  -12.4635   18.2214 C   0  0  0  0  0  0
  -28.0285  -12.2439   18.6559 C   0  0  0  0  0  0
  -27.6234  -13.1628   19.8313 C   0  0  2  0  0  0
  -28.6889  -13.1746   20.9605 C   0  0  0  0  0  0
  -25.2488  -13.7979   20.5679 C   0  0  0  0  0  0
  -24.1750  -13.0324   20.9250 C   0  0  0  0  0  0
  -24.6285  -11.6789   20.8828 C   0  0  0  0  0  0
  -23.8963  -10.4220   21.0473 C   0  0  0  0  0  0
  -24.3549   -9.4143   21.9229 C   0  0  0  0  0  0
  -23.6244   -8.2175   22.0767 C   0  0  0  0  0  0
  -22.4233   -8.0229   21.3544 C   0  0  0  0  0  0
  -21.9856   -9.0201   20.4652 C   0  0  0  0  0  0
  -22.7164  -10.2086   20.3088 C   0  0  0  0  0  0
  -21.6826   -6.0708   22.5280 C   0  0  0  0  0  0
  -21.3994   -6.5623   23.8210 C   0  0  0  0  0  0
  -21.3654   -5.6783   24.9178 C   0  0  0  0  0  0
  -21.6046   -4.3046   24.7232 C   0  0  0  0  0  0
  -21.8823   -3.8132   23.4356 C   0  0  0  0  0  0
  -21.9185   -4.6942   22.3408 C   0  0  0  0  0  0
  -22.7796  -13.5182   21.1887 C   0  0  0  0  0  0
  -22.1659   -4.2130   21.0985 F   0  0  0  0  0  0
  -21.5636   -3.4534   25.7748 F   0  0  0  0  0  0
  -29.9934  -13.5026   20.3624 N   0  0  0  0  0  0
  -26.2839  -12.9037   20.3289 N   0  0  0  0  0  0
  -25.9184  -11.6270   20.5848 N   0  0  0  0  0  0
  -22.0415  -12.8210   22.0447 N   0  0  0  0  0  0
  -25.4129  -15.1694   20.3984 N   0  0  0  0  0  0
  -31.9075  -14.6980   20.2246 O   0  0  0  0  0  0
  -21.6600   -6.8834   21.4235 O   0  0  0  0  0  0
  -22.3523  -14.5501   20.6719 O   0  0  0  0  0  0
  -24.6214  -31.8620   23.2041 C   0  0  0  0  0  0
  -25.9078  -32.4790   23.8360 C   0  0  1  0  0  0
  -27.2426  -27.3621   20.1036 C   0  0  0  0  0  0
  -25.5909  -33.8591   24.2290 N   0  0  0  0  0  0
  -23.4134  -30.4839   21.5457 C   0  0  2  0  0  0
  -24.8614  -28.9403   20.1119 C   0  0  0  0  0  0
  -22.7449  -29.4628   22.4957 C   0  0  0  0  0  0
  -18.0280  -28.1381   22.8490 C   0  0  0  0  0  0
  -24.1487  -36.7300   23.2638 C   0  0  0  0  0  0
  -25.9490  -30.8050   21.3680 C   0  0  0  0  0  0
  -26.0246  -29.4341   20.7130 C   0  0  0  0  0  0
  -27.2112  -28.6529   20.7050 C   0  0  0  0  0  0
  -26.0479  -26.8969   19.5039 C   0  0  0  0  0  0
  -24.8721  -27.6740   19.5043 C   0  0  0  0  0  0
  -23.6258  -29.8144   20.1614 C   0  0  0  0  0  0
  -25.4110  -36.3092   24.0332 C   0  0  1  0  0  0
  -20.5875  -28.3677   23.1300 C   0  0  2  0  0  0
  -20.6768  -26.9406   22.5414 C   0  0  0  0  0  0
  -19.5745  -26.6384   21.5214 C   0  0  0  0  0  0
  -18.1925  -26.7926   22.1625 C   0  0  0  0  0  0
  -19.1531  -28.8846   23.2891 C   0  0  0  0  0  0
  -18.9456  -30.1451   23.8904 C   0  0  0  0  0  0
  -17.6457  -30.6586   24.0565 C   0  0  0  0  0  0
  -25.9045  -34.9460   23.5113 C   0  0  0  0  0  0
  -16.5348  -29.9085   23.6329 C   0  0  0  0  0  0
  -16.7269  -28.6502   23.0352 C   0  0  0  0  0  0
  -26.4481  -31.6592   25.0717 C   0  0  0  0  0  0
  -25.3731  -31.3716   26.1456 C   0  0  0  0  0  0
  -27.0320  -30.3025   24.6139 C   0  0  0  0  0  0
  -27.6049  -32.4321   25.7483 C   0  0  0  0  0  0
  -27.5583  -37.1797   24.8461 C   0  0  0  0  0  0
  -21.4168  -29.3034   22.3699 N   0  0  0  0  0  0
  -26.4289  -37.3785   23.9415 N   0  0  0  0  0  0
  -24.6798  -31.0664   22.0969 N   0  0  0  0  0  0
  -23.4190  -28.8176   23.3031 O   0  0  0  0  0  0
  -28.4127  -26.6004   20.1670 O   0  0  0  0  0  0
  -26.5616  -34.8923   22.4680 O   0  0  0  0  0  0
  -23.5388  -32.1403   23.7393 O   0  0  0  0  0  0
  -29.4107  -20.9213   21.0296 C   0  0  0  0  0  0
  -29.9313  -19.5701   20.9344 C   0  0  0  0  0  0
  -30.6611  -19.3645   19.8240 C   0  0  0  0  0  0
  -29.7518  -21.7274   19.9437 C   0  0  0  0  0  0
  -28.8179  -24.0550   20.2295 C   0  0  0  0  0  0
  -29.8611  -18.2829   21.7349 C   0  0  0  0  0  0
  -31.2012  -17.9831   19.6411 C   0  0  0  0  0  0
  -30.7096  -17.2112   20.9157 C   0  0  2  0  0  0
  -28.7720  -16.1712   19.9277 C   0  0  0  0  0  0
  -28.6082  -25.3714   19.3939 C   0  0  0  0  0  0
  -29.4415  -23.0261   19.5905 N   0  0  0  0  0  0
  -30.0333  -15.8957   20.6192 N   0  0  0  0  0  0
  -28.4302  -23.9822   21.3993 O   0  0  0  0  0  0
  -30.7482  -20.7859   18.8224 S   0  0  0  0  0  0
  -31.4614  -12.5341   19.1276 H   0  0  0  0  0  0
  -30.3677  -11.4554   19.9492 H   0  0  0  0  0  0
  -29.7825  -11.6984   17.5008 H   0  0  0  0  0  0
  -29.5873  -13.4216   17.7082 H   0  0  0  0  0  0
  -27.9228  -11.1997   18.9533 H   0  0  0  0  0  0
  -27.3553  -12.3883   17.8102 H   0  0  0  0  0  0
  -27.5405  -14.1198   19.3486 H   0  0  0  0  0  0
  -28.7368  -12.2022   21.4525 H   0  0  0  0  0  0
  -28.4260  -13.8937   21.7374 H   0  0  0  0  0  0
  -25.2693   -9.5626   22.4805 H   0  0  0  0  0  0
  -23.9959   -7.4558   22.7472 H   0  0  0  0  0  0
  -21.0795   -8.8713   19.8949 H   0  0  0  0  0  0
  -22.3632  -10.9637   19.6205 H   0  0  0  0  0  0
  -21.1975   -7.6130   23.9706 H   0  0  0  0  0  0
  -21.1478   -6.0516   25.9079 H   0  0  0  0  0  0
  -22.0610   -2.7595   23.2862 H   0  0  0  0  0  0
  -22.4004  -11.9868   22.4850 H   0  0  0  0  0  0
  -21.1045  -13.1273   22.2649 H   0  0  0  0  0  0
  -24.6421  -15.8195   20.5073 H   0  0  0  0  0  0
  -26.2556  -15.6091   20.0538 H   0  0  0  0  0  0
  -26.7147  -32.5476   23.1114 H   0  0  0  0  0  0
  -25.0057  -33.9740   25.0434 H   0  0  0  0  0  0
  -22.7050  -31.3025   21.4027 H   0  0  0  0  0  0
  -23.3753  -35.9628   23.3289 H   0  0  0  0  0  0
  -24.3583  -36.8931   22.2054 H   0  0  0  0  0  0
  -23.7233  -37.6496   23.6666 H   0  0  0  0  0  0
  -26.0726  -31.5686   20.5987 H   0  0  0  0  0  0
  -26.8326  -30.8565   21.9927 H   0  0  0  0  0  0
  -28.1060  -29.0317   21.1789 H   0  0  0  0  0  0
  -25.9774  -25.9187   19.0558 H   0  0  0  0  0  0
  -23.9747  -27.2819   19.0457 H   0  0  0  0  0  0
  -23.7383  -30.5888   19.4017 H   0  0  0  0  0  0
  -22.7478  -29.2378   19.8644 H   0  0  0  0  0  0
  -25.1284  -36.1945   25.0824 H   0  0  0  0  0  0
  -20.9965  -28.3248   24.1421 H   0  0  0  0  0  0
  -20.5674  -26.2286   23.3608 H   0  0  0  0  0  0
  -21.6639  -26.7442   22.1209 H   0  0  0  0  0  0
  -19.6909  -25.6297   21.1238 H   0  0  0  0  0  0
  -19.6683  -27.3199   20.6748 H   0  0  0  0  0  0
  -17.4194  -26.6675   21.4027 H   0  0  0  0  0  0
  -18.0323  -26.0066   22.9019 H   0  0  0  0  0  0
  -19.7931  -30.7265   24.2277 H   0  0  0  0  0  0
  -17.5012  -31.6267   24.5163 H   0  0  0  0  0  0
  -15.5350  -30.2990   23.7649 H   0  0  0  0  0  0
  -15.8669  -28.0824   22.7063 H   0  0  0  0  0  0
  -24.5902  -30.7067   25.7790 H   0  0  0  0  0  0
  -24.8924  -32.2878   26.4899 H   0  0  0  0  0  0
  -25.8070  -30.8886   27.0221 H   0  0  0  0  0  0
  -26.2879  -29.6778   24.1181 H   0  0  0  0  0  0
  -27.4057  -29.7273   25.4620 H   0  0  0  0  0  0
  -27.8729  -30.4326   23.9323 H   0  0  0  0  0  0
  -27.2668  -33.3623   26.2061 H   0  0  0  0  0  0
  -28.3857  -32.6877   25.0308 H   0  0  0  0  0  0
  -28.0719  -31.8445   26.5397 H   0  0  0  0  0  0
  -28.2583  -38.0111   24.7536 H   0  0  0  0  0  0
  -28.1095  -36.2644   24.6248 H   0  0  0  0  0  0
  -27.2307  -37.1400   25.8864 H   0  0  0  0  0  0
  -20.9342  -29.8753   21.6910 H   0  0  0  0  0  0
  -26.0171  -38.2858   24.1431 H   0  0  0  0  0  0
  -28.7970  -21.2384   21.8616 H   0  0  0  0  0  0
  -28.8275  -17.9743   21.8917 H   0  0  0  0  0  0
  -30.2906  -18.4253   22.7273 H   0  0  0  0  0  0
  -32.2902  -17.9971   19.5838 H   0  0  0  0  0  0
  -30.8300  -17.5461   18.7136 H   0  0  0  0  0  0
  -31.5923  -16.9931   21.5202 H   0  0  0  0  0  0
  -28.5924  -17.2250   19.7165 H   0  0  0  0  0  0
  -27.9403  -15.8507   20.5470 H   0  0  0  0  0  0
  -28.7667  -15.7035   18.9432 H   0  0  0  0  0  0
  -27.8547  -25.1951   18.6308 H   0  0  0  0  0  0
  -29.5262  -25.5321   18.8276 H   0  0  0  0  0  0
  -29.7370  -23.2746   18.6555 H   0  0  0  0  0  0
  1 25  1  0  0  0
  1 30  2  0  0  0
  1 82  1  0  0  0
  2  3  1  0  0  0
  2 25  1  0  0  0
  2 85  1  0  0  0
  2 86  1  0  0  0
  3  4  1  0  0  0
  3 87  1  0  0  0
  3 88  1  0  0  0
  4  5  1  0  0  0
  4 89  1  0  0  0
  4 90  1  0  0  0
  5  6  1  0  0  0
  5 26  1  0  0  0
  5 91  1  0  0  0
  6 25  1  0  0  0
  6 92  1  0  0  0
  6 93  1  0  0  0
  7  8  2  0  0  0
  7 26  1  0  0  0
  7 29  1  0  0  0
  8  9  1  0  0  0
  8 22  1  0  0  0
  9 10  1  0  0  0
  9 27  2  0  0  0
 10 11  2  0  0  0
 10 15  1  0  0  0
 11 12  1  0  0  0
 11 94  1  0  0  0
 12 13  2  0  0  0
 12 95  1  0  0  0
 13 14  1  0  0  0
 13 31  1  0  0  0
 14 15  2  0  0  0
 14 96  1  0  0  0
 15 97  1  0  0  0
 16 17  2  0  0  0
 16 21  1  0  0  0
 16 31  1  0  0  0
 17 18  1  0  0  0
 17 98  1  0  0  0
 18 19  2  0  0  0
 18 99  1  0  0  0
 19 20  1  0  0  0
 19 24  1  0  0  0
 20 21  2  0  0  0
 20100  1  0  0  0
 21 23  1  0  0  0
 22 28  1  0  0  0
 22 32  2  0  0  0
 26 27  1  0  0  0
 28101  1  0  0  0
 28102  1  0  0  0
 29103  1  0  0  0
 29104  1  0  0  0
 33 34  1  0  0  0
 33 66  1  0  0  0
 33 70  2  0  0  0
 34 36  1  0  0  0
 34 59  1  0  0  0
 34105  1  0  0  0
 35 44  2  0  0  0
 35 45  1  0  0  0
 35 68  1  0  0  0
 36 56  1  0  0  0
 36106  1  0  0  0
 37 39  1  0  0  0
 37 47  1  0  0  0
 37 66  1  0  0  0
 37107  1  0  0  0
 38 43  2  0  0  0
 38 46  1  0  0  0
 38 47  1  0  0  0
 39 64  1  0  0  0
 39 67  2  0  0  0
 40 52  1  0  0  0
 40 53  2  0  0  0
 40 58  1  0  0  0
 41108  1  0  0  0
 41109  1  0  0  0
 41110  1  0  0  0
 41 48  1  0  0  0
 42 43  1  0  0  0
 42 66  1  0  0  0
 42111  1  0  0  0
 42112  1  0  0  0
 43 44  1  0  0  0
 44113  1  0  0  0
 45 46  2  0  0  0
 45114  1  0  0  0
 46115  1  0  0  0
 47116  1  0  0  0
 47117  1  0  0  0
 48 56  1  0  0  0
 48 65  1  0  0  0
 48118  1  0  0  0
 49 50  1  0  0  0
 49 53  1  0  0  0
 49 64  1  0  0  0
 49119  1  0  0  0
 50 51  1  0  0  0
 50120  1  0  0  0
 50121  1  0  0  0
 51 52  1  0  0  0
 51122  1  0  0  0
 51123  1  0  0  0
 52124  1  0  0  0
 52125  1  0  0  0
 53 54  1  0  0  0
 54 55  2  0  0  0
 54126  1  0  0  0
 55 57  1  0  0  0
 55127  1  0  0  0
 56 69  2  0  0  0
 57 58  2  0  0  0
 57128  1  0  0  0
 58129  1  0  0  0
 59 60  1  0  0  0
 59 61  1  0  0  0
 59 62  1  0  0  0
 60130  1  0  0  0
 60131  1  0  0  0
 60132  1  0  0  0
 61133  1  0  0  0
 61134  1  0  0  0
 61135  1  0  0  0
 62136  1  0  0  0
 62137  1  0  0  0
 62138  1  0  0  0
 63 65  1  0  0  0
 63139  1  0  0  0
 63140  1  0  0  0
 63141  1  0  0  0
 64142  1  0  0  0
 65143  1  0  0  0
 68 80  1  0  0  0
 71 72  1  0  0  0
 71 74  2  0  0  0
 71144  1  0  0  0
 72 73  2  0  0  0
 72 76  1  0  0  0
 73 77  1  0  0  0
 73 84  1  0  0  0
 74 81  1  0  0  0
 74 84  1  0  0  0
 75 80  1  0  0  0
 75 81  1  0  0  0
 75 83  2  0  0  0
 76 78  1  0  0  0
 76145  1  0  0  0
 76146  1  0  0  0
 77 78  1  0  0  0
 77147  1  0  0  0
 77148  1  0  0  0
 78 82  1  0  0  0
 78149  1  0  0  0
 79 82  1  0  0  0
 79150  1  0  0  0
 79151  1  0  0  0
 79152  1  0  0  0
 80153  1  0  0  0
 80154  1  0  0  0
 81155  1  0  0  0
M  ISO  4   1 100  68 101  80 101  82 100
M  END
> <chiral flag>
0

> <version>
0

> <s_m_source_file>
/data/baiqing/PycharmProjects/Reinvent-master-3.2/result/LINK_invent/BTK/process_docking_weight1_custom_product_contain_oxygen_bond_distance_aromatic_linkinvent_7_9_3/rearranged_h_0155.sdf

> <i_m_source_file_index>
41

> <r_mmod_Potential_Energy-OPLS-2005>
264.032775878906

> <r_mmod_Stretch_Energy-OPLS-2005>
71.164436340332

> <r_mmod_Bend_Energy-OPLS-2005>
224.306823730469

> <r_mmod_Torsional_Energy-OPLS-2005>
306.565002441406

> <r_mmod_Improper_Torsional_Energy-OPLS-2005>
5.74673414230347

> <r_mmod_Van_der_Waal_Energy-OPLS-2005>
137.773971557617

> <r_mmod_Electrostatic_Energy-OPLS-2005>
-308.313995361328

> <r_mmod_Solvation_Energy-OPLS-2005>
-231.928970336914

> <b_mmod_Minimization_Converged-OPLS-2005>
0

> <r_mmod_RMS_Derivative-OPLS-2005>
0.287367790937424

$$$$
41
                    3D
 Structure written by MMmdl.
159168  0  0  1  0            999 V2000
  -30.6155  -14.7259   20.4783 C   0  0  0  0  0  0
  -30.4329  -12.4475   19.4632 C   0  0  0  0  0  0
  -29.5076  -12.4979   18.2288 C   0  0  0  0  0  0
  -28.0350  -12.3191   18.6479 C   0  0  0  0  0  0
  -27.6389  -13.2248   19.8450 C   0  0  2  0  0  0
  -28.6842  -13.1575   20.9780 C   0  0  0  0  0  0
  -25.2504  -13.8178   20.5681 C   0  0  0  0  0  0
  -24.1796  -13.0432   20.9217 C   0  0  0  0  0  0
  -24.6386  -11.6911   20.8756 C   0  0  0  0  0  0
  -23.9067  -10.4287   21.0409 C   0  0  0  0  0  0
  -24.3621   -9.4202   21.9188 C   0  0  0  0  0  0
  -23.6296   -8.2237   22.0750 C   0  0  0  0  0  0
  -22.4278   -8.0275   21.3539 C   0  0  0  0  0  0
  -21.9913   -9.0246   20.4644 C   0  0  0  0  0  0
  -22.7237  -10.2128   20.3054 C   0  0  0  0  0  0
  -21.6857   -6.0735   22.5286 C   0  0  0  0  0  0
  -21.4017   -6.5640   23.8219 C   0  0  0  0  0  0
  -21.3657   -5.6789   24.9178 C   0  0  0  0  0  0
  -21.6045   -4.3053   24.7229 C   0  0  0  0  0  0
  -21.8818   -3.8146   23.4349 C   0  0  0  0  0  0
  -21.9194   -4.6965   22.3406 C   0  0  0  0  0  0
  -22.7817  -13.5223   21.1872 C   0  0  0  0  0  0
  -22.1658   -4.2152   21.0982 F   0  0  0  0  0  0
  -21.5629   -3.4535   25.7741 F   0  0  0  0  0  0
  -29.9810  -13.5098   20.3887 N   0  0  0  0  0  0
  -26.2920  -12.9371   20.3251 N   0  0  0  0  0  0
  -25.9315  -11.6528   20.5757 N   0  0  0  0  0  0
  -22.0462  -12.8218   22.0428 N   0  0  0  0  0  0
  -25.4194  -15.1904   20.4082 N   0  0  0  0  0  0
  -31.8151  -14.8130   20.2035 O   0  0  0  0  0  0
  -21.6639   -6.8873   21.4243 O   0  0  0  0  0  0
  -22.3505  -14.5523   20.6707 O   0  0  0  0  0  0
  -24.6290  -31.8549   23.2002 C   0  0  0  0  0  0
  -25.9113  -32.4761   23.8334 C   0  0  1  0  0  0
  -27.2116  -27.2719   20.1363 C   0  0  0  0  0  0
  -25.5910  -33.8565   24.2241 N   0  0  0  0  0  0
  -23.4251  -30.4775   21.5437 C   0  0  2  0  0  0
  -24.8703  -28.9228   20.1147 C   0  0  0  0  0  0
  -22.7493  -29.4579   22.4924 C   0  0  0  0  0  0
  -18.0276  -28.1379   22.8482 C   0  0  0  0  0  0
  -24.1483  -36.7290   23.2637 C   0  0  0  0  0  0
  -25.9692  -30.7726   21.3772 C   0  0  0  0  0  0
  -26.0422  -29.3945   20.7221 C   0  0  0  0  0  0
  -27.2193  -28.5811   20.7200 C   0  0  0  0  0  0
  -26.0209  -26.8608   19.5030 C   0  0  0  0  0  0
  -24.8627  -27.6622   19.4959 C   0  0  0  0  0  0
  -23.6434  -29.8135   20.1590 C   0  0  0  0  0  0
  -25.4111  -36.3076   24.0319 C   0  0  1  0  0  0
  -20.5883  -28.3672   23.1286 C   0  0  2  0  0  0
  -20.6760  -26.9392   22.5413 C   0  0  0  0  0  0
  -19.5740  -26.6372   21.5210 C   0  0  0  0  0  0
  -18.1918  -26.7919   22.1623 C   0  0  0  0  0  0
  -19.1533  -28.8844   23.2875 C   0  0  0  0  0  0
  -18.9462  -30.1452   23.8879 C   0  0  0  0  0  0
  -17.6462  -30.6583   24.0561 C   0  0  0  0  0  0
  -25.9059  -34.9449   23.5087 C   0  0  0  0  0  0
  -16.5349  -29.9082   23.6337 C   0  0  0  0  0  0
  -16.7263  -28.6505   23.0343 C   0  0  0  0  0  0
  -26.4480  -31.6599   25.0728 C   0  0  0  0  0  0
  -25.3711  -31.3757   26.1462 C   0  0  0  0  0  0
  -27.0312  -30.3011   24.6203 C   0  0  0  0  0  0
  -27.6020  -32.4349   25.7513 C   0  0  0  0  0  0
  -27.5583  -37.1790   24.8449 C   0  0  0  0  0  0
  -21.4198  -29.3031   22.3690 N   0  0  0  0  0  0
  -26.4270  -37.3789   23.9431 N   0  0  0  0  0  0
  -24.6936  -31.0534   22.0968 N   0  0  0  0  0  0
  -23.4208  -28.8108   23.3001 O   0  0  0  0  0  0
  -28.3032  -26.3829   20.1485 O   0  0  0  0  0  0
  -26.5653  -34.8928   22.4670 O   0  0  0  0  0  0
  -23.5446  -32.1348   23.7317 O   0  0  0  0  0  0
  -29.6202  -18.4914   20.4827 C   0  0  0  0  0  0
  -31.2134  -17.3872   21.9629 C   0  0  0  0  0  0
  -30.0247  -19.8234   20.9283 C   0  0  0  0  0  0
  -30.2191  -17.2511   20.9754 C   0  0  0  0  0  0
  -31.0452  -19.8357   21.9237 C   0  0  0  0  0  0
  -31.6083  -18.6466   22.4321 C   0  0  0  0  0  0
  -28.3359  -21.2814   19.3551 C   0  0  0  0  0  0
  -28.0088  -22.7995   19.1082 C   0  0  0  0  0  0
  -29.2775  -22.5462   21.1140 C   0  0  0  0  0  0
  -29.5671  -21.2252   20.2747 C   0  0  1  0  0  0
  -28.8096  -23.6770   20.1120 C   0  0  2  0  0  0
  -28.0816  -25.0034   20.6920 C   0  0  0  0  0  0
  -31.5783  -21.0156   22.4378 N   0  0  0  0  0  0
  -29.8342  -15.8695   20.6025 N   0  0  0  0  0  0
  -32.5658  -18.7223   23.3909 F   0  0  0  0  0  0
  -31.4716  -12.5803   19.1562 H   0  0  0  0  0  0
  -30.3822  -11.4712   19.9489 H   0  0  0  0  0  0
  -29.7901  -11.7250   17.5129 H   0  0  0  0  0  0
  -29.6301  -13.4527   17.7148 H   0  0  0  0  0  0
  -27.8998  -11.2715   18.9197 H   0  0  0  0  0  0
  -27.3738  -12.4971   17.7991 H   0  0  0  0  0  0
  -27.6311  -14.2445   19.4607 H   0  0  0  0  0  0
  -28.7200  -12.1580   21.4140 H   0  0  0  0  0  0
  -28.4210  -13.8386   21.7891 H   0  0  0  0  0  0
  -25.2767   -9.5685   22.4764 H   0  0  0  0  0  0
  -24.0013   -7.4626   22.7467 H   0  0  0  0  0  0
  -21.0844   -8.8757   19.8950 H   0  0  0  0  0  0
  -22.3687  -10.9666   19.6161 H   0  0  0  0  0  0
  -21.2001   -7.6146   23.9722 H   0  0  0  0  0  0
  -21.1482   -6.0519   25.9081 H   0  0  0  0  0  0
  -22.0600   -2.7612   23.2852 H   0  0  0  0  0  0
  -22.4077  -11.9892   22.4838 H   0  0  0  0  0  0
  -21.1071  -13.1238   22.2609 H   0  0  0  0  0  0
  -24.6504  -15.8429   20.5175 H   0  0  0  0  0  0
  -26.2612  -15.6311   20.0624 H   0  0  0  0  0  0
  -26.7177  -32.5411   23.1082 H   0  0  0  0  0  0
  -25.0007  -33.9698   25.0352 H   0  0  0  0  0  0
  -22.7192  -31.2977   21.3998 H   0  0  0  0  0  0
  -23.3756  -35.9606   23.3251 H   0  0  0  0  0  0
  -24.3582  -36.8970   22.2060 H   0  0  0  0  0  0
  -23.7211  -37.6464   23.6698 H   0  0  0  0  0  0
  -26.1022  -31.5309   20.6051 H   0  0  0  0  0  0
  -26.8496  -30.8248   22.0060 H   0  0  0  0  0  0
  -28.1201  -28.9339   21.2024 H   0  0  0  0  0  0
  -25.9778  -25.8946   19.0202 H   0  0  0  0  0  0
  -23.9659  -27.2943   19.0167 H   0  0  0  0  0  0
  -23.7757  -30.5918   19.4065 H   0  0  0  0  0  0
  -22.7595  -29.2539   19.8484 H   0  0  0  0  0  0
  -25.1289  -36.1904   25.0804 H   0  0  0  0  0  0
  -20.9961  -28.3233   24.1414 H   0  0  0  0  0  0
  -20.5636  -26.2278   23.3607 H   0  0  0  0  0  0
  -21.6630  -26.7397   22.1223 H   0  0  0  0  0  0
  -19.6899  -25.6281   21.1240 H   0  0  0  0  0  0
  -19.6692  -27.3182   20.6739 H   0  0  0  0  0  0
  -17.4187  -26.6646   21.4028 H   0  0  0  0  0  0
  -18.0331  -26.0064   22.9022 H   0  0  0  0  0  0
  -19.7942  -30.7274   24.2229 H   0  0  0  0  0  0
  -17.5020  -31.6266   24.5160 H   0  0  0  0  0  0
  -15.5351  -30.2983   23.7675 H   0  0  0  0  0  0
  -15.8655  -28.0833   22.7051 H   0  0  0  0  0  0
  -24.5864  -30.7120   25.7813 H   0  0  0  0  0  0
  -24.8933  -32.2934   26.4899 H   0  0  0  0  0  0
  -25.8044  -30.8933   27.0230 H   0  0  0  0  0  0
  -26.2883  -29.6791   24.1193 H   0  0  0  0  0  0
  -27.3943  -29.7247   25.4722 H   0  0  0  0  0  0
  -27.8787  -30.4274   23.9463 H   0  0  0  0  0  0
  -27.2585  -33.3629   26.2095 H   0  0  0  0  0  0
  -28.3839  -32.6945   25.0367 H   0  0  0  0  0  0
  -28.0668  -31.8476   26.5440 H   0  0  0  0  0  0
  -28.2549  -38.0143   24.7587 H   0  0  0  0  0  0
  -28.1136  -36.2682   24.6151 H   0  0  0  0  0  0
  -27.2324  -37.1287   25.8854 H   0  0  0  0  0  0
  -20.9360  -29.8798   21.6948 H   0  0  0  0  0  0
  -26.0138  -38.2837   24.1518 H   0  0  0  0  0  0
  -28.8605  -18.4249   19.7164 H   0  0  0  0  0  0
  -31.6863  -16.5175   22.3932 H   0  0  0  0  0  0
  -28.4932  -20.7380   18.4231 H   0  0  0  0  0  0
  -27.4897  -20.8130   19.8592 H   0  0  0  0  0  0
  -26.9350  -22.9624   19.2084 H   0  0  0  0  0  0
  -28.2710  -23.0839   18.0883 H   0  0  0  0  0  0
  -30.1367  -22.9163   21.6673 H   0  0  0  0  0  0
  -28.4894  -22.3502   21.8424 H   0  0  0  0  0  0
  -30.4193  -21.4757   19.6411 H   0  0  0  0  0  0
  -29.7150  -24.0175   19.6075 H   0  0  0  0  0  0
  -28.4029  -25.0868   21.7303 H   0  0  0  0  0  0
  -27.0169  -24.7887   20.7781 H   0  0  0  0  0  0
  -30.9657  -21.8206   22.4631 H   0  0  0  0  0  0
  -32.1083  -20.9025   23.2968 H   0  0  0  0  0  0
  -28.8431  -15.7078   20.5198 H   0  0  0  0  0  0
  1 25  1  0  0  0
  1 30  2  0  0  0
  1 84  1  0  0  0
  2  3  1  0  0  0
  2 25  1  0  0  0
  2 86  1  0  0  0
  2 87  1  0  0  0
  3  4  1  0  0  0
  3 88  1  0  0  0
  3 89  1  0  0  0
  4  5  1  0  0  0
  4 90  1  0  0  0
  4 91  1  0  0  0
  5  6  1  0  0  0
  5 26  1  0  0  0
  5 92  1  0  0  0
  6 25  1  0  0  0
  6 93  1  0  0  0
  6 94  1  0  0  0
  7  8  2  0  0  0
  7 26  1  0  0  0
  7 29  1  0  0  0
  8  9  1  0  0  0
  8 22  1  0  0  0
  9 10  1  0  0  0
  9 27  2  0  0  0
 10 11  2  0  0  0
 10 15  1  0  0  0
 11 12  1  0  0  0
 11 95  1  0  0  0
 12 13  2  0  0  0
 12 96  1  0  0  0
 13 14  1  0  0  0
 13 31  1  0  0  0
 14 15  2  0  0  0
 14 97  1  0  0  0
 15 98  1  0  0  0
 16 17  2  0  0  0
 16 21  1  0  0  0
 16 31  1  0  0  0
 17 18  1  0  0  0
 17 99  1  0  0  0
 18 19  2  0  0  0
 18100  1  0  0  0
 19 20  1  0  0  0
 19 24  1  0  0  0
 20 21  2  0  0  0
 20101  1  0  0  0
 21 23  1  0  0  0
 22 28  1  0  0  0
 22 32  2  0  0  0
 26 27  1  0  0  0
 28102  1  0  0  0
 28103  1  0  0  0
 29104  1  0  0  0
 29105  1  0  0  0
 33 34  1  0  0  0
 33 66  1  0  0  0
 33 70  2  0  0  0
 34 36  1  0  0  0
 34 59  1  0  0  0
 34106  1  0  0  0
 35 44  2  0  0  0
 35 45  1  0  0  0
 35 68  1  0  0  0
 36 56  1  0  0  0
 36107  1  0  0  0
 37 39  1  0  0  0
 37 47  1  0  0  0
 37 66  1  0  0  0
 37108  1  0  0  0
 38 43  2  0  0  0
 38 46  1  0  0  0
 38 47  1  0  0  0
 39 64  1  0  0  0
 39 67  2  0  0  0
 40 52  1  0  0  0
 40 53  2  0  0  0
 40 58  1  0  0  0
 41109  1  0  0  0
 41110  1  0  0  0
 41111  1  0  0  0
 41 48  1  0  0  0
 42 43  1  0  0  0
 42 66  1  0  0  0
 42112  1  0  0  0
 42113  1  0  0  0
 43 44  1  0  0  0
 44114  1  0  0  0
 45 46  2  0  0  0
 45115  1  0  0  0
 46116  1  0  0  0
 47117  1  0  0  0
 47118  1  0  0  0
 48 56  1  0  0  0
 48 65  1  0  0  0
 48119  1  0  0  0
 49 50  1  0  0  0
 49 53  1  0  0  0
 49 64  1  0  0  0
 49120  1  0  0  0
 50 51  1  0  0  0
 50121  1  0  0  0
 50122  1  0  0  0
 51 52  1  0  0  0
 51123  1  0  0  0
 51124  1  0  0  0
 52125  1  0  0  0
 52126  1  0  0  0
 53 54  1  0  0  0
 54 55  2  0  0  0
 54127  1  0  0  0
 55 57  1  0  0  0
 55128  1  0  0  0
 56 69  2  0  0  0
 57 58  2  0  0  0
 57129  1  0  0  0
 58130  1  0  0  0
 59 60  1  0  0  0
 59 61  1  0  0  0
 59 62  1  0  0  0
 60131  1  0  0  0
 60132  1  0  0  0
 60133  1  0  0  0
 61134  1  0  0  0
 61135  1  0  0  0
 61136  1  0  0  0
 62137  1  0  0  0
 62138  1  0  0  0
 62139  1  0  0  0
 63 65  1  0  0  0
 63140  1  0  0  0
 63141  1  0  0  0
 63142  1  0  0  0
 64143  1  0  0  0
 65144  1  0  0  0
 68 82  1  0  0  0
 71 73  2  0  0  0
 71 74  1  0  0  0
 71145  1  0  0  0
 72 74  2  0  0  0
 72 76  1  0  0  0
 72146  1  0  0  0
 73 75  1  0  0  0
 73 80  1  0  0  0
 74 84  1  0  0  0
 75 76  2  0  0  0
 75 83  1  0  0  0
 76 85  1  0  0  0
 77 78  1  0  0  0
 77 80  1  0  0  0
 77147  1  0  0  0
 77148  1  0  0  0
 78 81  1  0  0  0
 78149  1  0  0  0
 78150  1  0  0  0
 79 80  1  0  0  0
 79 81  1  0  0  0
 79151  1  0  0  0
 79152  1  0  0  0
 80153  1  0  0  0
 81 82  1  0  0  0
 81154  1  0  0  0
 82155  1  0  0  0
 82156  1  0  0  0
 83157  1  0  0  0
 83158  1  0  0  0
 84159  1  0  0  0
M  ISO  4   1 100  68 101  82 101  84 100
M  END
> <chiral flag>
0

> <version>
0

> <s_m_source_file>
/data/baiqing/PycharmProjects/Reinvent-master-3.2/result/LINK_invent/BTK/process_docking_weight1_custom_product_contain_oxygen_bond_distance_aromatic_linkinvent_7_9_3/rearranged_h_0155.sdf

> <i_m_source_file_index>
42

> <r_mmod_Potential_Energy-OPLS-2005>
281.076416015625

> <r_mmod_Stretch_Energy-OPLS-2005>
116.683883666992

> <r_mmod_Bend_Energy-OPLS-2005>
201.20051574707

> <r_mmod_Torsional_Energy-OPLS-2005>
300.515960693359

> <r_mmod_Improper_Torsional_Energy-OPLS-2005>
11.6186456680298

> <r_mmod_Van_der_Waal_Energy-OPLS-2005>
141.041107177734

> <r_mmod_Electrostatic_Energy-OPLS-2005>
-361.917297363281

> <r_mmod_Solvation_Energy-OPLS-2005>
-207.770843505859

> <b_mmod_Minimization_Converged-OPLS-2005>
0

> <r_mmod_RMS_Derivative-OPLS-2005>
1.46613240242004

$$$$
42
                    3D
 Structure written by MMmdl.
148156  0  0  1  0            999 V2000
  -30.6122  -14.7891   20.4234 C   0  0  0  0  0  0
  -30.4315  -12.4741   19.4931 C   0  0  0  0  0  0
  -29.5145  -12.4938   18.2501 C   0  0  0  0  0  0
  -28.0381  -12.3304   18.6585 C   0  0  0  0  0  0
  -27.6373  -13.2448   19.8491 C   0  0  2  0  0  0
  -28.6824  -13.2112   20.9854 C   0  0  0  0  0  0
  -25.2471  -13.8240   20.5743 C   0  0  0  0  0  0
  -24.1791  -13.0454   20.9253 C   0  0  0  0  0  0
  -24.6405  -11.6944   20.8778 C   0  0  0  0  0  0
  -23.9093  -10.4310   21.0426 C   0  0  0  0  0  0
  -24.3632   -9.4206   21.9191 C   0  0  0  0  0  0
  -23.6307   -8.2239   22.0750 C   0  0  0  0  0  0
  -22.4276   -8.0288   21.3545 C   0  0  0  0  0  0
  -21.9924   -9.0269   20.4647 C   0  0  0  0  0  0
  -22.7271  -10.2153   20.3072 C   0  0  0  0  0  0
  -21.6861   -6.0742   22.5281 C   0  0  0  0  0  0
  -21.4026   -6.5646   23.8218 C   0  0  0  0  0  0
  -21.3674   -5.6783   24.9178 C   0  0  0  0  0  0
  -21.6044   -4.3045   24.7204 C   0  0  0  0  0  0
  -21.8813   -3.8150   23.4321 C   0  0  0  0  0  0
  -21.9191   -4.6971   22.3393 C   0  0  0  0  0  0
  -22.7794  -13.5216   21.1870 C   0  0  0  0  0  0
  -22.1653   -4.2167   21.0965 F   0  0  0  0  0  0
  -21.5617   -3.4522   25.7717 F   0  0  0  0  0  0
  -29.9819  -13.5601   20.3984 N   0  0  0  0  0  0
  -26.2919  -12.9477   20.3307 N   0  0  0  0  0  0
  -25.9340  -11.6610   20.5785 N   0  0  0  0  0  0
  -22.0421  -12.8243   22.0439 N   0  0  0  0  0  0
  -25.4082  -15.1964   20.4168 N   0  0  0  0  0  0
  -31.8052  -14.8542   20.1168 O   0  0  0  0  0  0
  -21.6637   -6.8885   21.4248 O   0  0  0  0  0  0
  -22.3496  -14.5503   20.6680 O   0  0  0  0  0  0
  -24.6355  -31.8530   23.1959 C   0  0  0  0  0  0
  -25.9169  -32.4731   23.8320 C   0  0  1  0  0  0
  -27.2078  -27.2150   20.1272 C   0  0  0  0  0  0
  -25.5954  -33.8536   24.2227 N   0  0  0  0  0  0
  -23.4336  -30.4768   21.5415 C   0  0  2  0  0  0
  -24.8790  -28.9258   20.1017 C   0  0  0  0  0  0
  -22.7538  -29.4589   22.4898 C   0  0  0  0  0  0
  -18.0303  -28.1385   22.8489 C   0  0  0  0  0  0
  -24.1488  -36.7269   23.2638 C   0  0  0  0  0  0
  -25.9833  -30.7491   21.3869 C   0  0  0  0  0  0
  -26.0528  -29.3708   20.7220 C   0  0  0  0  0  0
  -27.2183  -28.5281   20.7257 C   0  0  0  0  0  0
  -26.0149  -26.8697   19.4473 C   0  0  0  0  0  0
  -24.8696  -27.6859   19.4512 C   0  0  0  0  0  0
  -23.6520  -29.8177   20.1551 C   0  0  0  0  0  0
  -25.4120  -36.3052   24.0321 C   0  0  1  0  0  0
  -20.5914  -28.3711   23.1254 C   0  0  2  0  0  0
  -20.6792  -26.9422   22.5399 C   0  0  0  0  0  0
  -19.5761  -26.6375   21.5212 C   0  0  0  0  0  0
  -18.1947  -26.7925   22.1626 C   0  0  0  0  0  0
  -19.1561  -28.8863   23.2863 C   0  0  0  0  0  0
  -18.9481  -30.1467   23.8876 C   0  0  0  0  0  0
  -17.6472  -30.6586   24.0563 C   0  0  0  0  0  0
  -25.9077  -34.9422   23.5076 C   0  0  0  0  0  0
  -16.5362  -29.9080   23.6334 C   0  0  0  0  0  0
  -16.7288  -28.6501   23.0355 C   0  0  0  0  0  0
  -26.4509  -31.6585   25.0737 C   0  0  0  0  0  0
  -25.3715  -31.3779   26.1452 C   0  0  0  0  0  0
  -27.0374  -30.2990   24.6285 C   0  0  0  0  0  0
  -27.6040  -32.4345   25.7524 C   0  0  0  0  0  0
  -27.5575  -37.1789   24.8463 C   0  0  0  0  0  0
  -21.4242  -29.3041   22.3636 N   0  0  0  0  0  0
  -26.4280  -37.3762   23.9416 N   0  0  0  0  0  0
  -24.7028  -31.0459   22.0959 N   0  0  0  0  0  0
  -23.4219  -28.8152   23.3030 O   0  0  0  0  0  0
  -28.2674  -26.2623   20.2202 O   0  0  0  0  0  0
  -26.5625  -34.8907   22.4633 O   0  0  0  0  0  0
  -23.5496  -32.1373   23.7227 O   0  0  0  0  0  0
  -29.7527  -19.2640   21.8464 C   0  0  0  0  0  0
  -29.4251  -20.6712   21.8071 C   0  0  0  0  0  0
  -29.7424  -18.7474   20.5731 C   0  0  0  0  0  0
  -29.2069  -21.0217   20.4999 C   0  0  0  0  0  0
  -28.8235  -23.5835   20.5404 C   0  0  0  0  0  0
  -30.1827  -17.3471   19.9479 C   0  0  0  0  0  0
  -28.0123  -24.8022   19.8445 C   0  0  0  0  0  0
  -28.7924  -22.2855   20.0110 N   0  0  0  0  0  0
  -29.8553  -15.9570   20.5347 N   0  0  0  0  0  0
  -29.4598  -23.8321   21.5694 O   0  0  0  0  0  0
  -29.3869  -19.8425   19.7340 O   0  0  0  0  0  0
  -31.4733  -12.5926   19.1909 H   0  0  0  0  0  0
  -30.3789  -11.5084   19.9988 H   0  0  0  0  0  0
  -29.8005  -11.6951   17.5639 H   0  0  0  0  0  0
  -29.6469  -13.4316   17.7088 H   0  0  0  0  0  0
  -27.8883  -11.2860   18.9323 H   0  0  0  0  0  0
  -27.3869  -12.5189   17.8040 H   0  0  0  0  0  0
  -27.6194  -14.2606   19.4548 H   0  0  0  0  0  0
  -28.7197  -12.2260   21.4531 H   0  0  0  0  0  0
  -28.4181  -13.9177   21.7745 H   0  0  0  0  0  0
  -25.2759   -9.5680   22.4779 H   0  0  0  0  0  0
  -24.0009   -7.4627   22.7466 H   0  0  0  0  0  0
  -21.0845   -8.8819   19.8948 H   0  0  0  0  0  0
  -22.3731  -10.9705   19.6191 H   0  0  0  0  0  0
  -21.2033   -7.6154   23.9745 H   0  0  0  0  0  0
  -21.1508   -6.0500   25.9090 H   0  0  0  0  0  0
  -22.0580   -2.7614   23.2811 H   0  0  0  0  0  0
  -22.4015  -11.9950   22.4933 H   0  0  0  0  0  0
  -21.1034  -13.1312   22.2584 H   0  0  0  0  0  0
  -24.6245  -15.8331   20.5161 H   0  0  0  0  0  0
  -26.2451  -15.6525   20.0772 H   0  0  0  0  0  0
  -26.7232  -32.5353   23.1055 H   0  0  0  0  0  0
  -25.0130  -33.9679   25.0389 H   0  0  0  0  0  0
  -22.7310  -31.2997   21.3978 H   0  0  0  0  0  0
  -23.3751  -35.9600   23.3295 H   0  0  0  0  0  0
  -24.3582  -36.8899   22.2054 H   0  0  0  0  0  0
  -23.7241  -37.6467   23.6668 H   0  0  0  0  0  0
  -26.1374  -31.5134   20.6237 H   0  0  0  0  0  0
  -26.8523  -30.7874   22.0313 H   0  0  0  0  0  0
  -28.1097  -28.8642   21.2364 H   0  0  0  0  0  0
  -25.9189  -25.9397   18.9089 H   0  0  0  0  0  0
  -23.9783  -27.3488   18.9397 H   0  0  0  0  0  0
  -23.7761  -30.5946   19.3997 H   0  0  0  0  0  0
  -22.7677  -29.2549   19.8521 H   0  0  0  0  0  0
  -25.1301  -36.1889   25.0810 H   0  0  0  0  0  0
  -21.0004  -28.3277   24.1376 H   0  0  0  0  0  0
  -20.5696  -26.2320   23.3619 H   0  0  0  0  0  0
  -21.6669  -26.7435   22.1197 H   0  0  0  0  0  0
  -19.6922  -25.6282   21.1262 H   0  0  0  0  0  0
  -19.6694  -27.3175   20.6739 H   0  0  0  0  0  0
  -17.4220  -26.6676   21.4022 H   0  0  0  0  0  0
  -18.0333  -26.0070   22.9026 H   0  0  0  0  0  0
  -19.7957  -30.7296   24.2225 H   0  0  0  0  0  0
  -17.5027  -31.6268   24.5172 H   0  0  0  0  0  0
  -15.5364  -30.2967   23.7677 H   0  0  0  0  0  0
  -15.8695  -28.0810   22.7060 H   0  0  0  0  0  0
  -24.5860  -30.7166   25.7785 H   0  0  0  0  0  0
  -24.8954  -32.2978   26.4857 H   0  0  0  0  0  0
  -25.8011  -30.8960   27.0249 H   0  0  0  0  0  0
  -26.2994  -29.6725   24.1263 H   0  0  0  0  0  0
  -27.3980  -29.7273   25.4850 H   0  0  0  0  0  0
  -27.8905  -30.4241   23.9610 H   0  0  0  0  0  0
  -27.2611  -33.3636   26.2089 H   0  0  0  0  0  0
  -28.3859  -32.6927   25.0371 H   0  0  0  0  0  0
  -28.0701  -31.8496   26.5462 H   0  0  0  0  0  0
  -28.2582  -38.0093   24.7519 H   0  0  0  0  0  0
  -28.1081  -36.2629   24.6273 H   0  0  0  0  0  0
  -27.2302  -37.1417   25.8865 H   0  0  0  0  0  0
  -20.9432  -29.8775   21.6850 H   0  0  0  0  0  0
  -26.0154  -38.2832   24.1418 H   0  0  0  0  0  0
  -30.0137  -18.6960   22.7284 H   0  0  0  0  0  0
  -29.3624  -21.3403   22.6536 H   0  0  0  0  0  0
  -31.2682  -17.3907   19.8467 H   0  0  0  0  0  0
  -29.8321  -17.3224   18.9165 H   0  0  0  0  0  0
  -28.1049  -24.7021   18.7622 H   0  0  0  0  0  0
  -26.9808  -24.5532   20.0897 H   0  0  0  0  0  0
  -28.3530  -22.2394   19.1021 H   0  0  0  0  0  0
  -28.8867  -15.8178   20.7783 H   0  0  0  0  0  0
  1 25  1  0  0  0
  1 30  2  0  0  0
  1 79  1  0  0  0
  2  3  1  0  0  0
  2 25  1  0  0  0
  2 82  1  0  0  0
  2 83  1  0  0  0
  3  4  1  0  0  0
  3 84  1  0  0  0
  3 85  1  0  0  0
  4  5  1  0  0  0
  4 86  1  0  0  0
  4 87  1  0  0  0
  5  6  1  0  0  0
  5 26  1  0  0  0
  5 88  1  0  0  0
  6 25  1  0  0  0
  6 89  1  0  0  0
  6 90  1  0  0  0
  7  8  2  0  0  0
  7 26  1  0  0  0
  7 29  1  0  0  0
  8  9  1  0  0  0
  8 22  1  0  0  0
  9 10  1  0  0  0
  9 27  2  0  0  0
 10 11  2  0  0  0
 10 15  1  0  0  0
 11 12  1  0  0  0
 11 91  1  0  0  0
 12 13  2  0  0  0
 12 92  1  0  0  0
 13 14  1  0  0  0
 13 31  1  0  0  0
 14 15  2  0  0  0
 14 93  1  0  0  0
 15 94  1  0  0  0
 16 17  2  0  0  0
 16 21  1  0  0  0
 16 31  1  0  0  0
 17 18  1  0  0  0
 17 95  1  0  0  0
 18 19  2  0  0  0
 18 96  1  0  0  0
 19 20  1  0  0  0
 19 24  1  0  0  0
 20 21  2  0  0  0
 20 97  1  0  0  0
 21 23  1  0  0  0
 22 28  1  0  0  0
 22 32  2  0  0  0
 26 27  1  0  0  0
 28 98  1  0  0  0
 28 99  1  0  0  0
 29100  1  0  0  0
 29101  1  0  0  0
 33 34  1  0  0  0
 33 66  1  0  0  0
 33 70  2  0  0  0
 34 36  1  0  0  0
 34 59  1  0  0  0
 34102  1  0  0  0
 35 44  2  0  0  0
 35 45  1  0  0  0
 35 68  1  0  0  0
 36 56  1  0  0  0
 36103  1  0  0  0
 37 39  1  0  0  0
 37 47  1  0  0  0
 37 66  1  0  0  0
 37104  1  0  0  0
 38 43  2  0  0  0
 38 46  1  0  0  0
 38 47  1  0  0  0
 39 64  1  0  0  0
 39 67  2  0  0  0
 40 52  1  0  0  0
 40 53  2  0  0  0
 40 58  1  0  0  0
 41105  1  0  0  0
 41106  1  0  0  0
 41107  1  0  0  0
 41 48  1  0  0  0
 42 43  1  0  0  0
 42 66  1  0  0  0
 42108  1  0  0  0
 42109  1  0  0  0
 43 44  1  0  0  0
 44110  1  0  0  0
 45 46  2  0  0  0
 45111  1  0  0  0
 46112  1  0  0  0
 47113  1  0  0  0
 47114  1  0  0  0
 48 56  1  0  0  0
 48 65  1  0  0  0
 48115  1  0  0  0
 49 50  1  0  0  0
 49 53  1  0  0  0
 49 64  1  0  0  0
 49116  1  0  0  0
 50 51  1  0  0  0
 50117  1  0  0  0
 50118  1  0  0  0
 51 52  1  0  0  0
 51119  1  0  0  0
 51120  1  0  0  0
 52121  1  0  0  0
 52122  1  0  0  0
 53 54  1  0  0  0
 54 55  2  0  0  0
 54123  1  0  0  0
 55 57  1  0  0  0
 55124  1  0  0  0
 56 69  2  0  0  0
 57 58  2  0  0  0
 57125  1  0  0  0
 58126  1  0  0  0
 59 60  1  0  0  0
 59 61  1  0  0  0
 59 62  1  0  0  0
 60127  1  0  0  0
 60128  1  0  0  0
 60129  1  0  0  0
 61130  1  0  0  0
 61131  1  0  0  0
 61132  1  0  0  0
 62133  1  0  0  0
 62134  1  0  0  0
 62135  1  0  0  0
 63 65  1  0  0  0
 63136  1  0  0  0
 63137  1  0  0  0
 63138  1  0  0  0
 64139  1  0  0  0
 65140  1  0  0  0
 68 77  1  0  0  0
 71 72  1  0  0  0
 71 73  2  0  0  0
 71141  1  0  0  0
 72 74  2  0  0  0
 72142  1  0  0  0
 73 76  1  0  0  0
 73 81  1  0  0  0
 74 78  1  0  0  0
 74 81  1  0  0  0
 75 77  1  0  0  0
 75 78  1  0  0  0
 75 80  2  0  0  0
 76 79  1  0  0  0
 76143  1  0  0  0
 76144  1  0  0  0
 77145  1  0  0  0
 77146  1  0  0  0
 78147  1  0  0  0
 79148  1  0  0  0
M  ISO  4   1 100  68 101  77 101  79 100
M  END
> <chiral flag>
0

> <version>
0

> <s_m_source_file>
/data/baiqing/PycharmProjects/Reinvent-master-3.2/result/LINK_invent/BTK/process_docking_weight1_custom_product_contain_oxygen_bond_distance_aromatic_linkinvent_7_9_3/rearranged_h_0155.sdf

> <i_m_source_file_index>
43

> <r_mmod_Potential_Energy-OPLS-2005>
110.106658935547

> <r_mmod_Stretch_Energy-OPLS-2005>
146.602294921875

> <r_mmod_Bend_Energy-OPLS-2005>
190.734954833984

> <r_mmod_Torsional_Energy-OPLS-2005>
219.901763916016

> <r_mmod_Improper_Torsional_Energy-OPLS-2005>
7.66667795181274

> <r_mmod_Van_der_Waal_Energy-OPLS-2005>
122.649063110352

> <r_mmod_Electrostatic_Energy-OPLS-2005>
-444.176086425781

> <r_mmod_Solvation_Energy-OPLS-2005>
-249.012298583984

> <b_mmod_Minimization_Converged-OPLS-2005>
0

> <r_mmod_RMS_Derivative-OPLS-2005>
2.72105193138123

$$$$
43
                    3D
 Structure written by MMmdl.
154162  0  0  1  0            999 V2000
  -30.5814  -14.7763   20.4610 C   0  0  0  0  0  0
  -30.4400  -12.4769   19.4749 C   0  0  0  0  0  0
  -29.5132  -12.5124   18.2389 C   0  0  0  0  0  0
  -28.0400  -12.3269   18.6541 C   0  0  0  0  0  0
  -27.6409  -13.2294   19.8516 C   0  0  2  0  0  0
  -28.6849  -13.1670   20.9870 C   0  0  0  0  0  0
  -25.2504  -13.8185   20.5700 C   0  0  0  0  0  0
  -24.1797  -13.0430   20.9216 C   0  0  0  0  0  0
  -24.6392  -11.6910   20.8753 C   0  0  0  0  0  0
  -23.9067  -10.4294   21.0412 C   0  0  0  0  0  0
  -24.3618   -9.4214   21.9191 C   0  0  0  0  0  0
  -23.6291   -8.2252   22.0759 C   0  0  0  0  0  0
  -22.4273   -8.0292   21.3551 C   0  0  0  0  0  0
  -21.9910   -9.0264   20.4653 C   0  0  0  0  0  0
  -22.7242  -10.2141   20.3060 C   0  0  0  0  0  0
  -21.6853   -6.0736   22.5278 C   0  0  0  0  0  0
  -21.4016   -6.5641   23.8212 C   0  0  0  0  0  0
  -21.3660   -5.6794   24.9174 C   0  0  0  0  0  0
  -21.6040   -4.3055   24.7223 C   0  0  0  0  0  0
  -21.8818   -3.8147   23.4347 C   0  0  0  0  0  0
  -21.9194   -4.6964   22.3402 C   0  0  0  0  0  0
  -22.7824  -13.5215   21.1872 C   0  0  0  0  0  0
  -22.1661   -4.2149   21.0979 F   0  0  0  0  0  0
  -21.5629   -3.4540   25.7737 F   0  0  0  0  0  0
  -29.9816  -13.5360   20.4037 N   0  0  0  0  0  0
  -26.2927  -12.9389   20.3280 N   0  0  0  0  0  0
  -25.9319  -11.6535   20.5757 N   0  0  0  0  0  0
  -22.0464  -12.8198   22.0420 N   0  0  0  0  0  0
  -25.4176  -15.1903   20.4107 N   0  0  0  0  0  0
  -31.7741  -14.8998   20.1630 O   0  0  0  0  0  0
  -21.6644   -6.8882   21.4242 O   0  0  0  0  0  0
  -22.3513  -14.5525   20.6724 O   0  0  0  0  0  0
  -24.6325  -31.8526   23.1952 C   0  0  0  0  0  0
  -25.9136  -32.4742   23.8314 C   0  0  1  0  0  0
  -27.2251  -27.2437   20.1483 C   0  0  0  0  0  0
  -25.5920  -33.8544   24.2239 N   0  0  0  0  0  0
  -23.4312  -30.4709   21.5398 C   0  0  2  0  0  0
  -24.8801  -28.9064   20.1187 C   0  0  0  0  0  0
  -22.7512  -29.4577   22.4922 C   0  0  0  0  0  0
  -18.0290  -28.1386   22.8482 C   0  0  0  0  0  0
  -24.1492  -36.7282   23.2643 C   0  0  0  0  0  0
  -25.9770  -30.7611   21.3758 C   0  0  0  0  0  0
  -26.0521  -29.3792   20.7236 C   0  0  0  0  0  0
  -27.2306  -28.5637   20.7178 C   0  0  0  0  0  0
  -26.0303  -26.8312   19.5255 C   0  0  0  0  0  0
  -24.8747  -27.6408   19.5073 C   0  0  0  0  0  0
  -23.6518  -29.7970   20.1593 C   0  0  0  0  0  0
  -25.4119  -36.3064   24.0325 C   0  0  1  0  0  0
  -20.5896  -28.3696   23.1276 C   0  0  2  0  0  0
  -20.6781  -26.9414   22.5416 C   0  0  0  0  0  0
  -19.5756  -26.6383   21.5217 C   0  0  0  0  0  0
  -18.1933  -26.7927   22.1626 C   0  0  0  0  0  0
  -19.1544  -28.8859   23.2869 C   0  0  0  0  0  0
  -18.9463  -30.1460   23.8886 C   0  0  0  0  0  0
  -17.6461  -30.6586   24.0559 C   0  0  0  0  0  0
  -25.9058  -34.9434   23.5092 C   0  0  0  0  0  0
  -16.5352  -29.9081   23.6332 C   0  0  0  0  0  0
  -16.7275  -28.6501   23.0348 C   0  0  0  0  0  0
  -26.4497  -31.6572   25.0710 C   0  0  0  0  0  0
  -25.3713  -31.3716   26.1425 C   0  0  0  0  0  0
  -27.0354  -30.2991   24.6204 C   0  0  0  0  0  0
  -27.6048  -32.4320   25.7479 C   0  0  0  0  0  0
  -27.5580  -37.1798   24.8465 C   0  0  0  0  0  0
  -21.4219  -29.3031   22.3664 N   0  0  0  0  0  0
  -26.4296  -37.3764   23.9404 N   0  0  0  0  0  0
  -24.6994  -31.0473   22.0934 N   0  0  0  0  0  0
  -23.4201  -28.8131   23.3041 O   0  0  0  0  0  0
  -28.3354  -26.3676   20.1262 O   0  0  0  0  0  0
  -26.5644  -34.8915   22.4669 O   0  0  0  0  0  0
  -23.5472  -32.1350   23.7239 O   0  0  0  0  0  0
  -27.4655  -20.8038   19.5231 C   0  0  0  0  0  0
  -29.6277  -19.8517   20.5460 C   0  0  0  0  0  0
  -26.9830  -19.5676   19.2722 C   0  0  0  0  0  0
  -29.3378  -18.5001   20.3600 C   0  0  0  0  0  0
  -28.7714  -21.0938   20.1615 C   0  0  0  0  0  0
  -29.1457  -25.0096   21.9243 C   0  0  0  0  0  0
  -28.6088  -23.6579   19.7589 C   0  0  0  0  0  0
  -28.2495  -24.9626   20.6791 C   0  0  2  0  0  0
  -29.1623  -22.3483   20.3775 N   0  0  0  0  0  0
  -25.7400  -19.3470   18.7111 N   0  0  0  0  0  0
  -30.1725  -17.3443   20.6539 N   0  0  0  0  0  0
  -29.7711  -15.8955   20.6495 N   0  0  0  0  0  0
  -27.7970  -18.0207   19.6172 S   0  0  0  0  0  0
  -31.4779  -12.6209   19.1703 H   0  0  0  0  0  0
  -30.4032  -11.5011   19.9618 H   0  0  0  0  0  0
  -29.8027  -11.7383   17.5276 H   0  0  0  0  0  0
  -29.6294  -13.4652   17.7200 H   0  0  0  0  0  0
  -27.9044  -11.2790   18.9234 H   0  0  0  0  0  0
  -27.3807  -12.5112   17.8051 H   0  0  0  0  0  0
  -27.6325  -14.2498   19.4683 H   0  0  0  0  0  0
  -28.7305  -12.1678   21.4225 H   0  0  0  0  0  0
  -28.4137  -13.8415   21.8006 H   0  0  0  0  0  0
  -25.2764   -9.5689   22.4765 H   0  0  0  0  0  0
  -24.0001   -7.4635   22.7471 H   0  0  0  0  0  0
  -21.0848   -8.8781   19.8952 H   0  0  0  0  0  0
  -22.3709  -10.9683   19.6166 H   0  0  0  0  0  0
  -21.2013   -7.6148   23.9717 H   0  0  0  0  0  0
  -21.1482   -6.0524   25.9077 H   0  0  0  0  0  0
  -22.0597   -2.7611   23.2846 H   0  0  0  0  0  0
  -22.4078  -11.9857   22.4803 H   0  0  0  0  0  0
  -21.1080  -13.1225   22.2615 H   0  0  0  0  0  0
  -24.6468  -15.8386   20.5270 H   0  0  0  0  0  0
  -26.2573  -15.6349   20.0640 H   0  0  0  0  0  0
  -26.7196  -32.5392   23.1050 H   0  0  0  0  0  0
  -25.0031  -33.9673   25.0360 H   0  0  0  0  0  0
  -22.7278  -31.2922   21.3890 H   0  0  0  0  0  0
  -23.3757  -35.9612   23.3301 H   0  0  0  0  0  0
  -24.3581  -36.8914   22.2058 H   0  0  0  0  0  0
  -23.7243  -37.6480   23.6675 H   0  0  0  0  0  0
  -26.1164  -31.5184   20.6032 H   0  0  0  0  0  0
  -26.8539  -30.8137   22.0098 H   0  0  0  0  0  0
  -28.1350  -28.9272   21.1853 H   0  0  0  0  0  0
  -25.9877  -25.8597   19.0533 H   0  0  0  0  0  0
  -23.9778  -27.2727   19.0284 H   0  0  0  0  0  0
  -23.7785  -30.5686   19.3989 H   0  0  0  0  0  0
  -22.7703  -29.2289   19.8564 H   0  0  0  0  0  0
  -25.1305  -36.1909   25.0819 H   0  0  0  0  0  0
  -20.9976  -28.3269   24.1401 H   0  0  0  0  0  0
  -20.5680  -26.2300   23.3617 H   0  0  0  0  0  0
  -21.6646  -26.7436   22.1206 H   0  0  0  0  0  0
  -19.6918  -25.6291   21.1246 H   0  0  0  0  0  0
  -19.6695  -27.3194   20.6745 H   0  0  0  0  0  0
  -17.4204  -26.6667   21.4027 H   0  0  0  0  0  0
  -18.0334  -26.0074   22.9027 H   0  0  0  0  0  0
  -19.7936  -30.7281   24.2250 H   0  0  0  0  0  0
  -17.5010  -31.6264   24.5165 H   0  0  0  0  0  0
  -15.5350  -30.2976   23.7665 H   0  0  0  0  0  0
  -15.8675  -28.0818   22.7067 H   0  0  0  0  0  0
  -24.5896  -30.7062   25.7737 H   0  0  0  0  0  0
  -24.8896  -32.2883   26.4839 H   0  0  0  0  0  0
  -25.8024  -30.8890   27.0208 H   0  0  0  0  0  0
  -26.2937  -29.6726   24.1235 H   0  0  0  0  0  0
  -27.4043  -29.7264   25.4722 H   0  0  0  0  0  0
  -27.8811  -30.4270   23.9444 H   0  0  0  0  0  0
  -27.2654  -33.3629   26.2038 H   0  0  0  0  0  0
  -28.3860  -32.6869   25.0303 H   0  0  0  0  0  0
  -28.0716  -31.8459   26.5407 H   0  0  0  0  0  0
  -28.2598  -38.0093   24.7509 H   0  0  0  0  0  0
  -28.1076  -36.2626   24.6299 H   0  0  0  0  0  0
  -27.2299  -37.1455   25.8867 H   0  0  0  0  0  0
  -20.9419  -29.8732   21.6844 H   0  0  0  0  0  0
  -26.0174  -38.2840   24.1397 H   0  0  0  0  0  0
  -26.8445  -21.6521   19.2893 H   0  0  0  0  0  0
  -30.5780  -20.1174   20.9848 H   0  0  0  0  0  0
  -28.8680  -25.8371   22.5774 H   0  0  0  0  0  0
  -30.1922  -25.1399   21.6484 H   0  0  0  0  0  0
  -29.0642  -24.0933   22.5091 H   0  0  0  0  0  0
  -29.3827  -24.0086   19.0755 H   0  0  0  0  0  0
  -27.7681  -23.4803   19.0920 H   0  0  0  0  0  0
  -27.2321  -24.8118   21.0430 H   0  0  0  0  0  0
  -25.0599  -20.0886   18.5771 H   0  0  0  0  0  0
  -25.3523  -18.4137   18.6180 H   0  0  0  0  0  0
  -31.1348  -17.5143   20.9389 H   0  0  0  0  0  0
  -28.7931  -15.7387   20.8480 H   0  0  0  0  0  0
  1 25  1  0  0  0
  1 30  2  0  0  0
  1 82  1  0  0  0
  2  3  1  0  0  0
  2 25  1  0  0  0
  2 84  1  0  0  0
  2 85  1  0  0  0
  3  4  1  0  0  0
  3 86  1  0  0  0
  3 87  1  0  0  0
  4  5  1  0  0  0
  4 88  1  0  0  0
  4 89  1  0  0  0
  5  6  1  0  0  0
  5 26  1  0  0  0
  5 90  1  0  0  0
  6 25  1  0  0  0
  6 91  1  0  0  0
  6 92  1  0  0  0
  7  8  2  0  0  0
  7 26  1  0  0  0
  7 29  1  0  0  0
  8  9  1  0  0  0
  8 22  1  0  0  0
  9 10  1  0  0  0
  9 27  2  0  0  0
 10 11  2  0  0  0
 10 15  1  0  0  0
 11 12  1  0  0  0
 11 93  1  0  0  0
 12 13  2  0  0  0
 12 94  1  0  0  0
 13 14  1  0  0  0
 13 31  1  0  0  0
 14 15  2  0  0  0
 14 95  1  0  0  0
 15 96  1  0  0  0
 16 17  2  0  0  0
 16 21  1  0  0  0
 16 31  1  0  0  0
 17 18  1  0  0  0
 17 97  1  0  0  0
 18 19  2  0  0  0
 18 98  1  0  0  0
 19 20  1  0  0  0
 19 24  1  0  0  0
 20 21  2  0  0  0
 20 99  1  0  0  0
 21 23  1  0  0  0
 22 28  1  0  0  0
 22 32  2  0  0  0
 26 27  1  0  0  0
 28100  1  0  0  0
 28101  1  0  0  0
 29102  1  0  0  0
 29103  1  0  0  0
 33 34  1  0  0  0
 33 66  1  0  0  0
 33 70  2  0  0  0
 34 36  1  0  0  0
 34 59  1  0  0  0
 34104  1  0  0  0
 35 44  2  0  0  0
 35 45  1  0  0  0
 35 68  1  0  0  0
 36 56  1  0  0  0
 36105  1  0  0  0
 37 39  1  0  0  0
 37 47  1  0  0  0
 37 66  1  0  0  0
 37106  1  0  0  0
 38 43  2  0  0  0
 38 46  1  0  0  0
 38 47  1  0  0  0
 39 64  1  0  0  0
 39 67  2  0  0  0
 40 52  1  0  0  0
 40 53  2  0  0  0
 40 58  1  0  0  0
 41107  1  0  0  0
 41108  1  0  0  0
 41109  1  0  0  0
 41 48  1  0  0  0
 42 43  1  0  0  0
 42 66  1  0  0  0
 42110  1  0  0  0
 42111  1  0  0  0
 43 44  1  0  0  0
 44112  1  0  0  0
 45 46  2  0  0  0
 45113  1  0  0  0
 46114  1  0  0  0
 47115  1  0  0  0
 47116  1  0  0  0
 48 56  1  0  0  0
 48 65  1  0  0  0
 48117  1  0  0  0
 49 50  1  0  0  0
 49 53  1  0  0  0
 49 64  1  0  0  0
 49118  1  0  0  0
 50 51  1  0  0  0
 50119  1  0  0  0
 50120  1  0  0  0
 51 52  1  0  0  0
 51121  1  0  0  0
 51122  1  0  0  0
 52123  1  0  0  0
 52124  1  0  0  0
 53 54  1  0  0  0
 54 55  2  0  0  0
 54125  1  0  0  0
 55 57  1  0  0  0
 55126  1  0  0  0
 56 69  2  0  0  0
 57 58  2  0  0  0
 57127  1  0  0  0
 58128  1  0  0  0
 59 60  1  0  0  0
 59 61  1  0  0  0
 59 62  1  0  0  0
 60129  1  0  0  0
 60130  1  0  0  0
 60131  1  0  0  0
 61132  1  0  0  0
 61133  1  0  0  0
 61134  1  0  0  0
 62135  1  0  0  0
 62136  1  0  0  0
 62137  1  0  0  0
 63 65  1  0  0  0
 63138  1  0  0  0
 63139  1  0  0  0
 63140  1  0  0  0
 64141  1  0  0  0
 65142  1  0  0  0
 68 78  1  0  0  0
 71 73  2  0  0  0
 71 75  1  0  0  0
 71143  1  0  0  0
 72 74  2  0  0  0
 72 75  1  0  0  0
 72144  1  0  0  0
 73 80  1  0  0  0
 73 83  1  0  0  0
 74 81  1  0  0  0
 74 83  1  0  0  0
 75 79  2  0  0  0
 76145  1  0  0  0
 76146  1  0  0  0
 76147  1  0  0  0
 76 78  1  0  0  0
 77 78  1  0  0  0
 77 79  1  0  0  0
 77148  1  0  0  0
 77149  1  0  0  0
 78150  1  0  0  0
 80151  1  0  0  0
 80152  1  0  0  0
 81 82  1  0  0  0
 81153  1  0  0  0
 82154  1  0  0  0
M  ISO  4   1 100  68 101  78 101  82 100
M  END
> <chiral flag>
0

> <version>
0

> <s_m_source_file>
/data/baiqing/PycharmProjects/Reinvent-master-3.2/result/LINK_invent/BTK/process_docking_weight1_custom_product_contain_oxygen_bond_distance_aromatic_linkinvent_7_9_3/rearranged_h_0155.sdf

> <i_m_source_file_index>
44

> <r_mmod_Potential_Energy-OPLS-2005>
282.498809814453

> <r_mmod_Stretch_Energy-OPLS-2005>
153.657073974609

> <r_mmod_Bend_Energy-OPLS-2005>
196.635986328125

> <r_mmod_Torsional_Energy-OPLS-2005>
232.920776367188

> <r_mmod_Improper_Torsional_Energy-OPLS-2005>
5.2623610496521

> <r_mmod_Van_der_Waal_Energy-OPLS-2005>
121.098014831543

> <r_mmod_Electrostatic_Energy-OPLS-2005>
-296.250762939453

> <r_mmod_Solvation_Energy-OPLS-2005>
-225.748794555664

> <b_mmod_Minimization_Converged-OPLS-2005>
0

> <r_mmod_RMS_Derivative-OPLS-2005>
0.870335757732391

$$$$
44
                    3D
 Structure written by MMmdl.
154162  0  0  1  0            999 V2000
  -30.6192  -14.7323   20.4552 C   0  0  0  0  0  0
  -30.4280  -12.4450   19.4789 C   0  0  0  0  0  0
  -29.5090  -12.5027   18.2392 C   0  0  0  0  0  0
  -28.0351  -12.3297   18.6523 C   0  0  0  0  0  0
  -27.6413  -13.2314   19.8528 C   0  0  2  0  0  0
  -28.6842  -13.1687   20.9899 C   0  0  0  0  0  0
  -25.2503  -13.8198   20.5696 C   0  0  0  0  0  0
  -24.1793  -13.0440   20.9201 C   0  0  0  0  0  0
  -24.6388  -11.6921   20.8747 C   0  0  0  0  0  0
  -23.9071  -10.4294   21.0409 C   0  0  0  0  0  0
  -24.3620   -9.4209   21.9185 C   0  0  0  0  0  0
  -23.6293   -8.2245   22.0756 C   0  0  0  0  0  0
  -22.4276   -8.0282   21.3546 C   0  0  0  0  0  0
  -21.9913   -9.0258   20.4649 C   0  0  0  0  0  0
  -22.7244  -10.2135   20.3058 C   0  0  0  0  0  0
  -21.6853   -6.0735   22.5280 C   0  0  0  0  0  0
  -21.4014   -6.5639   23.8213 C   0  0  0  0  0  0
  -21.3659   -5.6793   24.9174 C   0  0  0  0  0  0
  -21.6044   -4.3056   24.7225 C   0  0  0  0  0  0
  -21.8820   -3.8148   23.4346 C   0  0  0  0  0  0
  -21.9193   -4.6963   22.3402 C   0  0  0  0  0  0
  -22.7815  -13.5221   21.1862 C   0  0  0  0  0  0
  -22.1661   -4.2148   21.0980 F   0  0  0  0  0  0
  -21.5628   -3.4540   25.7738 F   0  0  0  0  0  0
  -29.9866  -13.5110   20.4083 N   0  0  0  0  0  0
  -26.2931  -12.9406   20.3295 N   0  0  0  0  0  0
  -25.9318  -11.6547   20.5763 N   0  0  0  0  0  0
  -22.0466  -12.8209   22.0422 N   0  0  0  0  0  0
  -25.4184  -15.1918   20.4115 N   0  0  0  0  0  0
  -31.8066  -14.8163   20.1296 O   0  0  0  0  0  0
  -21.6642   -6.8877   21.4242 O   0  0  0  0  0  0
  -22.3498  -14.5528   20.6714 O   0  0  0  0  0  0
  -24.6304  -31.8548   23.1974 C   0  0  0  0  0  0
  -25.9133  -32.4750   23.8320 C   0  0  1  0  0  0
  -27.2198  -27.2601   20.1206 C   0  0  0  0  0  0
  -25.5930  -33.8552   24.2243 N   0  0  0  0  0  0
  -23.4261  -30.4772   21.5406 C   0  0  2  0  0  0
  -24.8712  -28.9219   20.1079 C   0  0  0  0  0  0
  -22.7495  -29.4598   22.4911 C   0  0  0  0  0  0
  -18.0289  -28.1382   22.8481 C   0  0  0  0  0  0
  -24.1488  -36.7281   23.2640 C   0  0  0  0  0  0
  -25.9711  -30.7669   21.3758 C   0  0  0  0  0  0
  -26.0414  -29.3891   20.7169 C   0  0  0  0  0  0
  -27.2136  -28.5686   20.7138 C   0  0  0  0  0  0
  -26.0194  -26.8539   19.4937 C   0  0  0  0  0  0
  -24.8651  -27.6629   19.4881 C   0  0  0  0  0  0
  -23.6428  -29.8095   20.1566 C   0  0  0  0  0  0
  -25.4115  -36.3068   24.0323 C   0  0  1  0  0  0
  -20.5891  -28.3692   23.1266 C   0  0  2  0  0  0
  -20.6774  -26.9408   22.5402 C   0  0  0  0  0  0
  -19.5754  -26.6381   21.5200 C   0  0  0  0  0  0
  -18.1934  -26.7924   22.1616 C   0  0  0  0  0  0
  -19.1542  -28.8851   23.2868 C   0  0  0  0  0  0
  -18.9467  -30.1451   23.8890 C   0  0  0  0  0  0
  -17.6468  -30.6583   24.0558 C   0  0  0  0  0  0
  -25.9057  -34.9437   23.5089 C   0  0  0  0  0  0
  -16.5357  -29.9081   23.6327 C   0  0  0  0  0  0
  -16.7275  -28.6496   23.0354 C   0  0  0  0  0  0
  -26.4501  -31.6581   25.0716 C   0  0  0  0  0  0
  -25.3720  -31.3730   26.1434 C   0  0  0  0  0  0
  -27.0354  -30.3000   24.6207 C   0  0  0  0  0  0
  -27.6053  -32.4325   25.7491 C   0  0  0  0  0  0
  -27.5576  -37.1796   24.8467 C   0  0  0  0  0  0
  -21.4203  -29.3043   22.3656 N   0  0  0  0  0  0
  -26.4289  -37.3767   23.9408 N   0  0  0  0  0  0
  -24.6950  -31.0516   22.0944 N   0  0  0  0  0  0
  -23.4197  -28.8149   23.3014 O   0  0  0  0  0  0
  -28.3419  -26.4038   20.2156 O   0  0  0  0  0  0
  -26.5636  -34.8916   22.4662 O   0  0  0  0  0  0
  -23.5455  -32.1373   23.7273 O   0  0  0  0  0  0
  -29.7143  -19.9192   19.8854 C   0  0  0  0  0  0
  -29.5285  -18.6423   20.5998 C   0  0  0  0  0  0
  -29.0271  -21.0526   20.3494 C   0  0  0  0  0  0
  -28.6375  -18.8599   21.6309 C   0  0  0  0  0  0
  -29.7493  -25.1801   18.7731 C   0  0  0  0  0  0
  -30.3128  -17.3015   20.2607 C   0  0  0  0  0  0
  -28.5395  -23.6854   20.5075 C   0  0  0  0  0  0
  -28.4622  -25.0381   19.5996 C   0  0  1  0  0  0
  -28.1861  -17.9533   22.5821 N   0  0  0  0  0  0
  -29.0178  -22.4126   19.8305 N   0  0  0  0  0  0
  -29.8671  -15.8847   20.6272 N   0  0  0  0  0  0
  -28.0786  -20.5414   21.7260 S   0  0  0  0  0  0
  -31.4704  -12.5607   19.1774 H   0  0  0  0  0  0
  -30.3655  -11.4689   19.9627 H   0  0  0  0  0  0
  -29.7906  -11.7282   17.5242 H   0  0  0  0  0  0
  -29.6395  -13.4566   17.7255 H   0  0  0  0  0  0
  -27.8919  -11.2813   18.9169 H   0  0  0  0  0  0
  -27.3784  -12.5209   17.8028 H   0  0  0  0  0  0
  -27.6363  -14.2527   19.4715 H   0  0  0  0  0  0
  -28.7140  -12.1747   21.4379 H   0  0  0  0  0  0
  -28.4217  -13.8586   21.7937 H   0  0  0  0  0  0
  -25.2761   -9.5685   22.4766 H   0  0  0  0  0  0
  -24.0002   -7.4635   22.7472 H   0  0  0  0  0  0
  -21.0846   -8.8779   19.8950 H   0  0  0  0  0  0
  -22.3703  -10.9677   19.6170 H   0  0  0  0  0  0
  -21.2008   -7.6148   23.9715 H   0  0  0  0  0  0
  -21.1479   -6.0523   25.9077 H   0  0  0  0  0  0
  -22.0599   -2.7609   23.2849 H   0  0  0  0  0  0
  -22.4086  -11.9871   22.4807 H   0  0  0  0  0  0
  -21.1084  -13.1233   22.2633 H   0  0  0  0  0  0
  -24.6569  -15.8482   20.5445 H   0  0  0  0  0  0
  -26.2763  -15.6401   20.1168 H   0  0  0  0  0  0
  -26.7197  -32.5395   23.1058 H   0  0  0  0  0  0
  -25.0067  -33.9685   25.0383 H   0  0  0  0  0  0
  -22.7222  -31.2995   21.3948 H   0  0  0  0  0  0
  -23.3750  -35.9611   23.3304 H   0  0  0  0  0  0
  -24.3577  -36.8907   22.2055 H   0  0  0  0  0  0
  -23.7242  -37.6481   23.6669 H   0  0  0  0  0  0
  -26.1097  -31.5283   20.6070 H   0  0  0  0  0  0
  -26.8484  -30.8169   22.0091 H   0  0  0  0  0  0
  -28.1099  -28.9209   21.2054 H   0  0  0  0  0  0
  -25.9195  -25.8865   19.0294 H   0  0  0  0  0  0
  -23.9642  -27.2963   19.0152 H   0  0  0  0  0  0
  -23.7659  -30.5844   19.3989 H   0  0  0  0  0  0
  -22.7606  -29.2424   19.8537 H   0  0  0  0  0  0
  -25.1298  -36.1914   25.0814 H   0  0  0  0  0  0
  -20.9976  -28.3273   24.1391 H   0  0  0  0  0  0
  -20.5655  -26.2308   23.3610 H   0  0  0  0  0  0
  -21.6646  -26.7424   22.1211 H   0  0  0  0  0  0
  -19.6914  -25.6289   21.1240 H   0  0  0  0  0  0
  -19.6691  -27.3180   20.6721 H   0  0  0  0  0  0
  -17.4200  -26.6658   21.4025 H   0  0  0  0  0  0
  -18.0345  -26.0063   22.9013 H   0  0  0  0  0  0
  -19.7945  -30.7260   24.2264 H   0  0  0  0  0  0
  -17.5028  -31.6266   24.5158 H   0  0  0  0  0  0
  -15.5359  -30.2986   23.7654 H   0  0  0  0  0  0
  -15.8676  -28.0812   22.7080 H   0  0  0  0  0  0
  -24.5900  -30.7076   25.7762 H   0  0  0  0  0  0
  -24.8903  -32.2899   26.4841 H   0  0  0  0  0  0
  -25.8033  -30.8922   27.0224 H   0  0  0  0  0  0
  -26.2940  -29.6744   24.1223 H   0  0  0  0  0  0
  -27.4032  -29.7269   25.4730 H   0  0  0  0  0  0
  -27.8820  -30.4278   23.9456 H   0  0  0  0  0  0
  -27.2660  -33.3631   26.2052 H   0  0  0  0  0  0
  -28.3871  -32.6874   25.0324 H   0  0  0  0  0  0
  -28.0715  -31.8465   26.5422 H   0  0  0  0  0  0
  -28.2594  -38.0092   24.7511 H   0  0  0  0  0  0
  -28.1074  -36.2624   24.6297 H   0  0  0  0  0  0
  -27.2298  -37.1450   25.8871 H   0  0  0  0  0  0
  -20.9387  -29.8778   21.6873 H   0  0  0  0  0  0
  -26.0169  -38.2841   24.1408 H   0  0  0  0  0  0
  -30.3833  -19.9566   19.0379 H   0  0  0  0  0  0
  -29.9247  -24.3136   18.1360 H   0  0  0  0  0  0
  -30.6191  -25.3017   19.4189 H   0  0  0  0  0  0
  -29.6961  -26.0504   18.1181 H   0  0  0  0  0  0
  -31.3165  -17.4118   20.6731 H   0  0  0  0  0  0
  -30.4737  -17.2802   19.1821 H   0  0  0  0  0  0
  -27.5608  -23.5025   20.9533 H   0  0  0  0  0  0
  -29.2137  -23.8738   21.3441 H   0  0  0  0  0  0
  -27.6787  -24.8763   18.8651 H   0  0  0  0  0  0
  -28.6411  -17.0641   22.7588 H   0  0  0  0  0  0
  -27.5945  -18.2409   23.3573 H   0  0  0  0  0  0
  -29.5543  -22.5841   18.9840 H   0  0  0  0  0  0
  -28.8920  -15.7652   20.8538 H   0  0  0  0  0  0
  1 25  1  0  0  0
  1 30  2  0  0  0
  1 81  1  0  0  0
  2  3  1  0  0  0
  2 25  1  0  0  0
  2 83  1  0  0  0
  2 84  1  0  0  0
  3  4  1  0  0  0
  3 85  1  0  0  0
  3 86  1  0  0  0
  4  5  1  0  0  0
  4 87  1  0  0  0
  4 88  1  0  0  0
  5  6  1  0  0  0
  5 26  1  0  0  0
  5 89  1  0  0  0
  6 25  1  0  0  0
  6 90  1  0  0  0
  6 91  1  0  0  0
  7  8  2  0  0  0
  7 26  1  0  0  0
  7 29  1  0  0  0
  8  9  1  0  0  0
  8 22  1  0  0  0
  9 10  1  0  0  0
  9 27  2  0  0  0
 10 11  2  0  0  0
 10 15  1  0  0  0
 11 12  1  0  0  0
 11 92  1  0  0  0
 12 13  2  0  0  0
 12 93  1  0  0  0
 13 14  1  0  0  0
 13 31  1  0  0  0
 14 15  2  0  0  0
 14 94  1  0  0  0
 15 95  1  0  0  0
 16 17  2  0  0  0
 16 21  1  0  0  0
 16 31  1  0  0  0
 17 18  1  0  0  0
 17 96  1  0  0  0
 18 19  2  0  0  0
 18 97  1  0  0  0
 19 20  1  0  0  0
 19 24  1  0  0  0
 20 21  2  0  0  0
 20 98  1  0  0  0
 21 23  1  0  0  0
 22 28  1  0  0  0
 22 32  2  0  0  0
 26 27  1  0  0  0
 28 99  1  0  0  0
 28100  1  0  0  0
 29101  1  0  0  0
 29102  1  0  0  0
 33 34  1  0  0  0
 33 66  1  0  0  0
 33 70  2  0  0  0
 34 36  1  0  0  0
 34 59  1  0  0  0
 34103  1  0  0  0
 35 44  2  0  0  0
 35 45  1  0  0  0
 35 68  1  0  0  0
 36 56  1  0  0  0
 36104  1  0  0  0
 37 39  1  0  0  0
 37 47  1  0  0  0
 37 66  1  0  0  0
 37105  1  0  0  0
 38 43  2  0  0  0
 38 46  1  0  0  0
 38 47  1  0  0  0
 39 64  1  0  0  0
 39 67  2  0  0  0
 40 52  1  0  0  0
 40 53  2  0  0  0
 40 58  1  0  0  0
 41106  1  0  0  0
 41107  1  0  0  0
 41108  1  0  0  0
 41 48  1  0  0  0
 42 43  1  0  0  0
 42 66  1  0  0  0
 42109  1  0  0  0
 42110  1  0  0  0
 43 44  1  0  0  0
 44111  1  0  0  0
 45 46  2  0  0  0
 45112  1  0  0  0
 46113  1  0  0  0
 47114  1  0  0  0
 47115  1  0  0  0
 48 56  1  0  0  0
 48 65  1  0  0  0
 48116  1  0  0  0
 49 50  1  0  0  0
 49 53  1  0  0  0
 49 64  1  0  0  0
 49117  1  0  0  0
 50 51  1  0  0  0
 50118  1  0  0  0
 50119  1  0  0  0
 51 52  1  0  0  0
 51120  1  0  0  0
 51121  1  0  0  0
 52122  1  0  0  0
 52123  1  0  0  0
 53 54  1  0  0  0
 54 55  2  0  0  0
 54124  1  0  0  0
 55 57  1  0  0  0
 55125  1  0  0  0
 56 69  2  0  0  0
 57 58  2  0  0  0
 57126  1  0  0  0
 58127  1  0  0  0
 59 60  1  0  0  0
 59 61  1  0  0  0
 59 62  1  0  0  0
 60128  1  0  0  0
 60129  1  0  0  0
 60130  1  0  0  0
 61131  1  0  0  0
 61132  1  0  0  0
 61133  1  0  0  0
 62134  1  0  0  0
 62135  1  0  0  0
 62136  1  0  0  0
 63 65  1  0  0  0
 63137  1  0  0  0
 63138  1  0  0  0
 63139  1  0  0  0
 64140  1  0  0  0
 65141  1  0  0  0
 68 78  1  0  0  0
 71 72  1  0  0  0
 71 73  2  0  0  0
 71142  1  0  0  0
 72 74  2  0  0  0
 72 76  1  0  0  0
 73 80  1  0  0  0
 73 82  1  0  0  0
 74 79  1  0  0  0
 74 82  1  0  0  0
 75143  1  0  0  0
 75144  1  0  0  0
 75145  1  0  0  0
 75 78  1  0  0  0
 76 81  1  0  0  0
 76146  1  0  0  0
 76147  1  0  0  0
 77 78  1  0  0  0
 77 80  1  0  0  0
 77148  1  0  0  0
 77149  1  0  0  0
 78150  1  0  0  0
 79151  1  0  0  0
 79152  1  0  0  0
 80153  1  0  0  0
 81154  1  0  0  0
M  ISO  4   1 100  68 101  78 101  81 100
M  END
> <chiral flag>
0

> <version>
0

> <s_m_source_file>
/data/baiqing/PycharmProjects/Reinvent-master-3.2/result/LINK_invent/BTK/process_docking_weight1_custom_product_contain_oxygen_bond_distance_aromatic_linkinvent_7_9_3/rearranged_h_0155.sdf

> <i_m_source_file_index>
45

> <r_mmod_Potential_Energy-OPLS-2005>
123.831924438477

> <r_mmod_Stretch_Energy-OPLS-2005>
116.432823181152

> <r_mmod_Bend_Energy-OPLS-2005>
192.298629760742

> <r_mmod_Torsional_Energy-OPLS-2005>
199.328674316406

> <r_mmod_Improper_Torsional_Energy-OPLS-2005>
7.53520917892456

> <r_mmod_Van_der_Waal_Energy-OPLS-2005>
116.533073425293

> <r_mmod_Electrostatic_Energy-OPLS-2005>
-364.231811523438

> <r_mmod_Solvation_Energy-OPLS-2005>
-225.507675170898

> <b_mmod_Minimization_Converged-OPLS-2005>
0

> <r_mmod_RMS_Derivative-OPLS-2005>
0.744448482990265

$$$$
45
                    3D
 Structure written by MMmdl.
149158  0  0  1  0            999 V2000
  -30.6351  -14.7140   20.4654 C   0  0  0  0  0  0
  -30.4290  -12.4350   19.4760 C   0  0  0  0  0  0
  -29.5091  -12.5036   18.2374 C   0  0  0  0  0  0
  -28.0347  -12.3332   18.6502 C   0  0  0  0  0  0
  -27.6442  -13.2314   19.8544 C   0  0  2  0  0  0
  -28.6885  -13.1597   20.9911 C   0  0  0  0  0  0
  -25.2517  -13.8199   20.5700 C   0  0  0  0  0  0
  -24.1805  -13.0442   20.9205 C   0  0  0  0  0  0
  -24.6397  -11.6920   20.8749 C   0  0  0  0  0  0
  -23.9073  -10.4296   21.0407 C   0  0  0  0  0  0
  -24.3622   -9.4209   21.9185 C   0  0  0  0  0  0
  -23.6296   -8.2245   22.0754 C   0  0  0  0  0  0
  -22.4279   -8.0282   21.3544 C   0  0  0  0  0  0
  -21.9915   -9.0257   20.4646 C   0  0  0  0  0  0
  -22.7245  -10.2136   20.3056 C   0  0  0  0  0  0
  -21.6854   -6.0737   22.5279 C   0  0  0  0  0  0
  -21.4015   -6.5641   23.8212 C   0  0  0  0  0  0
  -21.3659   -5.6794   24.9173 C   0  0  0  0  0  0
  -21.6044   -4.3056   24.7224 C   0  0  0  0  0  0
  -21.8819   -3.8148   23.4346 C   0  0  0  0  0  0
  -21.9193   -4.6965   22.3402 C   0  0  0  0  0  0
  -22.7825  -13.5223   21.1865 C   0  0  0  0  0  0
  -22.1662   -4.2150   21.0980 F   0  0  0  0  0  0
  -21.5628   -3.4540   25.7737 F   0  0  0  0  0  0
  -29.9946  -13.4973   20.4121 N   0  0  0  0  0  0
  -26.2950  -12.9409   20.3303 N   0  0  0  0  0  0
  -25.9330  -11.6550   20.5765 N   0  0  0  0  0  0
  -22.0475  -12.8210   22.0422 N   0  0  0  0  0  0
  -25.4201  -15.1924   20.4112 N   0  0  0  0  0  0
  -31.8180  -14.8015   20.1256 O   0  0  0  0  0  0
  -21.6642   -6.8880   21.4241 O   0  0  0  0  0  0
  -22.3508  -14.5528   20.6713 O   0  0  0  0  0  0
  -24.6316  -31.8568   23.2015 C   0  0  0  0  0  0
  -25.9145  -32.4763   23.8351 C   0  0  1  0  0  0
  -27.2116  -27.2629   20.1209 C   0  0  0  0  0  0
  -25.5945  -33.8566   24.2269 N   0  0  0  0  0  0
  -23.4275  -30.4831   21.5451 C   0  0  2  0  0  0
  -24.8733  -28.9392   20.1070 C   0  0  0  0  0  0
  -22.7506  -29.4613   22.4911 C   0  0  0  0  0  0
  -18.0293  -28.1389   22.8485 C   0  0  0  0  0  0
  -24.1489  -36.7281   23.2639 C   0  0  0  0  0  0
  -25.9758  -30.7683   21.3850 C   0  0  0  0  0  0
  -26.0462  -29.3934   20.7233 C   0  0  0  0  0  0
  -27.2169  -28.5664   20.7250 C   0  0  0  0  0  0
  -26.0182  -26.8953   19.4524 C   0  0  0  0  0  0
  -24.8649  -27.6976   19.4608 C   0  0  0  0  0  0
  -23.6450  -29.8254   20.1587 C   0  0  0  0  0  0
  -25.4115  -36.3072   24.0327 C   0  0  1  0  0  0
  -20.5899  -28.3701   23.1265 C   0  0  2  0  0  0
  -20.6782  -26.9418   22.5404 C   0  0  0  0  0  0
  -19.5754  -26.6384   21.5213 C   0  0  0  0  0  0
  -18.1935  -26.7931   22.1627 C   0  0  0  0  0  0
  -19.1548  -28.8862   23.2870 C   0  0  0  0  0  0
  -18.9469  -30.1463   23.8889 C   0  0  0  0  0  0
  -17.6468  -30.6590   24.0563 C   0  0  0  0  0  0
  -25.9058  -34.9443   23.5096 C   0  0  0  0  0  0
  -16.5358  -29.9086   23.6336 C   0  0  0  0  0  0
  -16.7279  -28.6504   23.0356 C   0  0  0  0  0  0
  -26.4509  -31.6587   25.0740 C   0  0  0  0  0  0
  -25.3727  -31.3742   26.1457 C   0  0  0  0  0  0
  -27.0360  -30.3001   24.6237 C   0  0  0  0  0  0
  -27.6060  -32.4332   25.7513 C   0  0  0  0  0  0
  -27.5577  -37.1797   24.8467 C   0  0  0  0  0  0
  -21.4212  -29.3049   22.3654 N   0  0  0  0  0  0
  -26.4289  -37.3772   23.9410 N   0  0  0  0  0  0
  -24.6973  -31.0536   22.0997 N   0  0  0  0  0  0
  -23.4209  -28.8143   23.3000 O   0  0  0  0  0  0
  -28.2843  -26.3381   20.2044 O   0  0  0  0  0  0
  -26.5626  -34.8916   22.4663 O   0  0  0  0  0  0
  -23.5466  -32.1392   23.7308 O   0  0  0  0  0  0
  -29.9790  -20.6862   21.3100 C   0  0  0  0  0  0
  -30.1706  -19.2522   21.2513 C   0  0  0  0  0  0
  -29.3504  -18.5000   20.3468 C   0  0  0  0  0  0
  -29.0937  -21.1372   20.3244 C   0  0  0  0  0  0
  -28.8986  -23.7068   20.4377 C   0  0  0  0  0  0
  -31.0583  -18.0664   21.5266 C   0  0  0  0  0  0
  -30.3157  -17.2856   20.3372 C   0  0  1  0  0  0
  -27.9824  -24.8964   19.8857 C   0  0  0  0  0  0
  -28.6125  -22.4186   20.0152 N   0  0  0  0  0  0
  -29.8892  -15.8604   20.6702 N   0  0  0  0  0  0
  -29.8190  -23.9516   21.2228 O   0  0  0  0  0  0
  -28.6475  -19.7161   19.2758 S   0  0  0  0  0  0
  -31.4720  -12.5458   19.1746 H   0  0  0  0  0  0
  -30.3605  -11.4567   19.9545 H   0  0  0  0  0  0
  -29.7868  -11.7330   17.5170 H   0  0  0  0  0  0
  -29.6418  -13.4605   17.7300 H   0  0  0  0  0  0
  -27.8875  -11.2843   18.9100 H   0  0  0  0  0  0
  -27.3780  -12.5303   17.8020 H   0  0  0  0  0  0
  -27.6417  -14.2544   19.4773 H   0  0  0  0  0  0
  -28.7145  -12.1628   21.4335 H   0  0  0  0  0  0
  -28.4288  -13.8458   21.7988 H   0  0  0  0  0  0
  -25.2767   -9.5684   22.4761 H   0  0  0  0  0  0
  -24.0004   -7.4636   22.7473 H   0  0  0  0  0  0
  -21.0846   -8.8776   19.8952 H   0  0  0  0  0  0
  -22.3703  -10.9675   19.6165 H   0  0  0  0  0  0
  -21.2008   -7.6149   23.9715 H   0  0  0  0  0  0
  -21.1480   -6.0524   25.9077 H   0  0  0  0  0  0
  -22.0598   -2.7610   23.2847 H   0  0  0  0  0  0
  -22.4097  -11.9871   22.4804 H   0  0  0  0  0  0
  -21.1092  -13.1229   22.2633 H   0  0  0  0  0  0
  -24.6504  -15.8440   20.5191 H   0  0  0  0  0  0
  -26.2653  -15.6340   20.0724 H   0  0  0  0  0  0
  -26.7209  -32.5411   23.1089 H   0  0  0  0  0  0
  -25.0100  -33.9709   25.0419 H   0  0  0  0  0  0
  -22.7237  -31.3059   21.4032 H   0  0  0  0  0  0
  -23.3755  -35.9609   23.3303 H   0  0  0  0  0  0
  -24.3577  -36.8901   22.2053 H   0  0  0  0  0  0
  -23.7238  -37.6480   23.6662 H   0  0  0  0  0  0
  -26.1192  -31.5307   20.6181 H   0  0  0  0  0  0
  -26.8518  -30.8122   22.0203 H   0  0  0  0  0  0
  -28.1088  -28.9041   21.2338 H   0  0  0  0  0  0
  -25.9291  -25.9599   18.9218 H   0  0  0  0  0  0
  -23.9710  -27.3494   18.9615 H   0  0  0  0  0  0
  -23.7699  -30.6059   19.4072 H   0  0  0  0  0  0
  -22.7627  -29.2613   19.8509 H   0  0  0  0  0  0
  -25.1296  -36.1918   25.0819 H   0  0  0  0  0  0
  -20.9992  -28.3278   24.1385 H   0  0  0  0  0  0
  -20.5688  -26.2311   23.3610 H   0  0  0  0  0  0
  -21.6648  -26.7445   22.1193 H   0  0  0  0  0  0
  -19.6917  -25.6294   21.1245 H   0  0  0  0  0  0
  -19.6688  -27.3193   20.6742 H   0  0  0  0  0  0
  -17.4204  -26.6680   21.4031 H   0  0  0  0  0  0
  -18.0335  -26.0074   22.9023 H   0  0  0  0  0  0
  -19.7945  -30.7283   24.2253 H   0  0  0  0  0  0
  -17.5022  -31.6270   24.5165 H   0  0  0  0  0  0
  -15.5359  -30.2986   23.7666 H   0  0  0  0  0  0
  -15.8678  -28.0822   22.7075 H   0  0  0  0  0  0
  -24.5908  -30.7083   25.7787 H   0  0  0  0  0  0
  -24.8914  -32.2915   26.4859 H   0  0  0  0  0  0
  -25.8039  -30.8938   27.0248 H   0  0  0  0  0  0
  -26.2953  -29.6744   24.1245 H   0  0  0  0  0  0
  -27.4018  -29.7267   25.4765 H   0  0  0  0  0  0
  -27.8842  -30.4271   23.9506 H   0  0  0  0  0  0
  -27.2666  -33.3643   26.2064 H   0  0  0  0  0  0
  -28.3884  -32.6874   25.0349 H   0  0  0  0  0  0
  -28.0712  -31.8475   26.5451 H   0  0  0  0  0  0
  -28.2594  -38.0095   24.7513 H   0  0  0  0  0  0
  -28.1073  -36.2625   24.6294 H   0  0  0  0  0  0
  -27.2295  -37.1444   25.8870 H   0  0  0  0  0  0
  -20.9395  -29.8782   21.6869 H   0  0  0  0  0  0
  -26.0166  -38.2844   24.1415 H   0  0  0  0  0  0
  -30.5397  -21.3242   21.9792 H   0  0  0  0  0  0
  -30.8932  -17.6352   22.5146 H   0  0  0  0  0  0
  -32.1161  -18.2519   21.3375 H   0  0  0  0  0  0
  -30.9189  -17.3213   19.4279 H   0  0  0  0  0  0
  -26.9971  -24.6469   20.2809 H   0  0  0  0  0  0
  -27.9288  -24.7925   18.8013 H   0  0  0  0  0  0
  -27.8733  -22.4086   19.3246 H   0  0  0  0  0  0
  -28.9226  -15.7269   20.9235 H   0  0  0  0  0  0
  1 25  1  0  0  0
  1 30  2  0  0  0
  1 80  1  0  0  0
  2  3  1  0  0  0
  2 25  1  0  0  0
  2 83  1  0  0  0
  2 84  1  0  0  0
  3  4  1  0  0  0
  3 85  1  0  0  0
  3 86  1  0  0  0
  4  5  1  0  0  0
  4 87  1  0  0  0
  4 88  1  0  0  0
  5  6  1  0  0  0
  5 26  1  0  0  0
  5 89  1  0  0  0
  6 25  1  0  0  0
  6 90  1  0  0  0
  6 91  1  0  0  0
  7  8  2  0  0  0
  7 26  1  0  0  0
  7 29  1  0  0  0
  8  9  1  0  0  0
  8 22  1  0  0  0
  9 10  1  0  0  0
  9 27  2  0  0  0
 10 11  2  0  0  0
 10 15  1  0  0  0
 11 12  1  0  0  0
 11 92  1  0  0  0
 12 13  2  0  0  0
 12 93  1  0  0  0
 13 14  1  0  0  0
 13 31  1  0  0  0
 14 15  2  0  0  0
 14 94  1  0  0  0
 15 95  1  0  0  0
 16 17  2  0  0  0
 16 21  1  0  0  0
 16 31  1  0  0  0
 17 18  1  0  0  0
 17 96  1  0  0  0
 18 19  2  0  0  0
 18 97  1  0  0  0
 19 20  1  0  0  0
 19 24  1  0  0  0
 20 21  2  0  0  0
 20 98  1  0  0  0
 21 23  1  0  0  0
 22 28  1  0  0  0
 22 32  2  0  0  0
 26 27  1  0  0  0
 28 99  1  0  0  0
 28100  1  0  0  0
 29101  1  0  0  0
 29102  1  0  0  0
 33 34  1  0  0  0
 33 66  1  0  0  0
 33 70  2  0  0  0
 34 36  1  0  0  0
 34 59  1  0  0  0
 34103  1  0  0  0
 35 44  2  0  0  0
 35 45  1  0  0  0
 35 68  1  0  0  0
 36 56  1  0  0  0
 36104  1  0  0  0
 37 39  1  0  0  0
 37 47  1  0  0  0
 37 66  1  0  0  0
 37105  1  0  0  0
 38 43  2  0  0  0
 38 46  1  0  0  0
 38 47  1  0  0  0
 39 64  1  0  0  0
 39 67  2  0  0  0
 40 52  1  0  0  0
 40 53  2  0  0  0
 40 58  1  0  0  0
 41106  1  0  0  0
 41107  1  0  0  0
 41108  1  0  0  0
 41 48  1  0  0  0
 42 43  1  0  0  0
 42 66  1  0  0  0
 42109  1  0  0  0
 42110  1  0  0  0
 43 44  1  0  0  0
 44111  1  0  0  0
 45 46  2  0  0  0
 45112  1  0  0  0
 46113  1  0  0  0
 47114  1  0  0  0
 47115  1  0  0  0
 48 56  1  0  0  0
 48 65  1  0  0  0
 48116  1  0  0  0
 49 50  1  0  0  0
 49 53  1  0  0  0
 49 64  1  0  0  0
 49117  1  0  0  0
 50 51  1  0  0  0
 50118  1  0  0  0
 50119  1  0  0  0
 51 52  1  0  0  0
 51120  1  0  0  0
 51121  1  0  0  0
 52122  1  0  0  0
 52123  1  0  0  0
 53 54  1  0  0  0
 54 55  2  0  0  0
 54124  1  0  0  0
 55 57  1  0  0  0
 55125  1  0  0  0
 56 69  2  0  0  0
 57 58  2  0  0  0
 57126  1  0  0  0
 58127  1  0  0  0
 59 60  1  0  0  0
 59 61  1  0  0  0
 59 62  1  0  0  0
 60128  1  0  0  0
 60129  1  0  0  0
 60130  1  0  0  0
 61131  1  0  0  0
 61132  1  0  0  0
 61133  1  0  0  0
 62134  1  0  0  0
 62135  1  0  0  0
 62136  1  0  0  0
 63 65  1  0  0  0
 63137  1  0  0  0
 63138  1  0  0  0
 63139  1  0  0  0
 64140  1  0  0  0
 65141  1  0  0  0
 68 78  1  0  0  0
 71 72  1  0  0  0
 71 74  2  0  0  0
 71142  1  0  0  0
 72 73  2  0  0  0
 72 76  1  0  0  0
 73 77  1  0  0  0
 73 82  1  0  0  0
 74 79  1  0  0  0
 74 82  1  0  0  0
 75 78  1  0  0  0
 75 79  1  0  0  0
 75 81  2  0  0  0
 76 77  1  0  0  0
 76143  1  0  0  0
 76144  1  0  0  0
 77 80  1  0  0  0
 77145  1  0  0  0
 78146  1  0  0  0
 78147  1  0  0  0
 79148  1  0  0  0
 80149  1  0  0  0
M  ISO  4   1 100  68 101  78 101  80 100
M  END
> <chiral flag>
0

> <version>
0

> <s_m_source_file>
/data/baiqing/PycharmProjects/Reinvent-master-3.2/result/LINK_invent/BTK/process_docking_weight1_custom_product_contain_oxygen_bond_distance_aromatic_linkinvent_7_9_3/rearranged_h_0155.sdf

> <i_m_source_file_index>
46

> <r_mmod_Potential_Energy-OPLS-2005>
506.37548828125

> <r_mmod_Stretch_Energy-OPLS-2005>
116.048690795898

> <r_mmod_Bend_Energy-OPLS-2005>
544.257934570312

> <r_mmod_Torsional_Energy-OPLS-2005>
251.425476074219

> <r_mmod_Improper_Torsional_Energy-OPLS-2005>
36.2519340515137

> <r_mmod_Van_der_Waal_Energy-OPLS-2005>
122.483680725098

> <r_mmod_Electrostatic_Energy-OPLS-2005>
-402.678466796875

> <r_mmod_Solvation_Energy-OPLS-2005>
-243.413467407227

> <b_mmod_Minimization_Converged-OPLS-2005>
0

> <r_mmod_RMS_Derivative-OPLS-2005>
0.197782605886459

$$$$
46
                    3D
 Structure written by MMmdl.
148156  0  0  1  0            999 V2000
  -30.5902  -14.7894   20.4505 C   0  0  0  0  0  0
  -30.4374  -12.4795   19.4876 C   0  0  0  0  0  0
  -29.5167  -12.5175   18.2464 C   0  0  0  0  0  0
  -28.0433  -12.3330   18.6570 C   0  0  0  0  0  0
  -27.6433  -13.2352   19.8545 C   0  0  2  0  0  0
  -28.6864  -13.1786   20.9932 C   0  0  0  0  0  0
  -25.2514  -13.8200   20.5697 C   0  0  0  0  0  0
  -24.1807  -13.0440   20.9205 C   0  0  0  0  0  0
  -24.6400  -11.6920   20.8745 C   0  0  0  0  0  0
  -23.9073  -10.4295   21.0406 C   0  0  0  0  0  0
  -24.3625   -9.4207   21.9183 C   0  0  0  0  0  0
  -23.6299   -8.2243   22.0753 C   0  0  0  0  0  0
  -22.4279   -8.0282   21.3543 C   0  0  0  0  0  0
  -21.9915   -9.0257   20.4648 C   0  0  0  0  0  0
  -22.7245  -10.2137   20.3056 C   0  0  0  0  0  0
  -21.6853   -6.0739   22.5281 C   0  0  0  0  0  0
  -21.4015   -6.5641   23.8215 C   0  0  0  0  0  0
  -21.3659   -5.6792   24.9175 C   0  0  0  0  0  0
  -21.6046   -4.3057   24.7225 C   0  0  0  0  0  0
  -21.8818   -3.8148   23.4345 C   0  0  0  0  0  0
  -21.9193   -4.6966   22.3403 C   0  0  0  0  0  0
  -22.7827  -13.5221   21.1868 C   0  0  0  0  0  0
  -22.1660   -4.2151   21.0980 F   0  0  0  0  0  0
  -21.5630   -3.4538   25.7737 F   0  0  0  0  0  0
  -29.9875  -13.5454   20.4177 N   0  0  0  0  0  0
  -26.2947  -12.9413   20.3294 N   0  0  0  0  0  0
  -25.9335  -11.6552   20.5757 N   0  0  0  0  0  0
  -22.0476  -12.8215   22.0428 N   0  0  0  0  0  0
  -25.4195  -15.1925   20.4109 N   0  0  0  0  0  0
  -31.7691  -14.8895   20.0937 O   0  0  0  0  0  0
  -21.6642   -6.8881   21.4241 O   0  0  0  0  0  0
  -22.3510  -14.5522   20.6710 O   0  0  0  0  0  0
  -24.6348  -31.8525   23.1971 C   0  0  0  0  0  0
  -25.9160  -32.4737   23.8327 C   0  0  1  0  0  0
  -27.2160  -27.2220   20.1298 C   0  0  0  0  0  0
  -25.5945  -33.8544   24.2243 N   0  0  0  0  0  0
  -23.4336  -30.4757   21.5408 C   0  0  2  0  0  0
  -24.8813  -28.9210   20.1073 C   0  0  0  0  0  0
  -22.7524  -29.4590   22.4892 C   0  0  0  0  0  0
  -18.0297  -28.1391   22.8480 C   0  0  0  0  0  0
  -24.1492  -36.7276   23.2640 C   0  0  0  0  0  0
  -25.9837  -30.7502   21.3873 C   0  0  0  0  0  0
  -26.0535  -29.3705   20.7275 C   0  0  0  0  0  0
  -27.2197  -28.5316   20.7332 C   0  0  0  0  0  0
  -26.0245  -26.8659   19.4548 C   0  0  0  0  0  0
  -24.8748  -27.6786   19.4593 C   0  0  0  0  0  0
  -23.6547  -29.8125   20.1563 C   0  0  0  0  0  0
  -25.4120  -36.3061   24.0323 C   0  0  1  0  0  0
  -20.5905  -28.3710   23.1255 C   0  0  2  0  0  0
  -20.6784  -26.9422   22.5406 C   0  0  0  0  0  0
  -19.5758  -26.6383   21.5212 C   0  0  0  0  0  0
  -18.1939  -26.7931   22.1625 C   0  0  0  0  0  0
  -19.1552  -28.8867   23.2862 C   0  0  0  0  0  0
  -18.9470  -30.1464   23.8885 C   0  0  0  0  0  0
  -17.6468  -30.6590   24.0561 C   0  0  0  0  0  0
  -25.9065  -34.9431   23.5087 C   0  0  0  0  0  0
  -16.5359  -29.9085   23.6332 C   0  0  0  0  0  0
  -16.7283  -28.6504   23.0353 C   0  0  0  0  0  0
  -26.4511  -31.6578   25.0735 C   0  0  0  0  0  0
  -25.3720  -31.3748   26.1448 C   0  0  0  0  0  0
  -27.0363  -30.2982   24.6266 C   0  0  0  0  0  0
  -27.6059  -32.4330   25.7507 C   0  0  0  0  0  0
  -27.5580  -37.1794   24.8464 C   0  0  0  0  0  0
  -21.4227  -29.3050   22.3638 N   0  0  0  0  0  0
  -26.4291  -37.3763   23.9408 N   0  0  0  0  0  0
  -24.7029  -31.0454   22.0971 N   0  0  0  0  0  0
  -23.4206  -28.8128   23.3004 O   0  0  0  0  0  0
  -28.2890  -26.2886   20.2247 O   0  0  0  0  0  0
  -26.5640  -34.8910   22.4658 O   0  0  0  0  0  0
  -23.5488  -32.1371   23.7238 O   0  0  0  0  0  0
  -30.7933  -17.8575   19.5119 C   0  0  0  0  0  0
  -30.5476  -19.2830   19.4765 C   0  0  0  0  0  0
  -29.9596  -17.2913   20.4495 C   0  0  0  0  0  0
  -29.5756  -19.5691   20.3999 C   0  0  0  0  0  0
  -28.8361  -23.6261   20.5672 C   0  0  0  0  0  0
  -28.9935  -22.1466   19.9162 C   0  0  0  0  0  0
  -28.1000  -24.8393   19.7919 C   0  0  0  0  0  0
  -29.8123  -15.9128   20.7439 N   0  0  0  0  0  0
  -29.0558  -20.8816   20.7809 N   0  0  0  0  0  0
  -29.2768  -23.8150   21.7060 O   0  0  0  0  0  0
  -29.1959  -18.3492   21.0088 O   0  0  0  0  0  0
  -31.4782  -12.6063   19.1860 H   0  0  0  0  0  0
  -30.3883  -11.5044   19.9747 H   0  0  0  0  0  0
  -29.8074  -11.7426   17.5358 H   0  0  0  0  0  0
  -29.6371  -13.4698   17.7275 H   0  0  0  0  0  0
  -27.9066  -11.2845   18.9245 H   0  0  0  0  0  0
  -27.3859  -12.5181   17.8065 H   0  0  0  0  0  0
  -27.6350  -14.2556   19.4706 H   0  0  0  0  0  0
  -28.7296  -12.1810   21.4326 H   0  0  0  0  0  0
  -28.4109  -13.8547   21.8039 H   0  0  0  0  0  0
  -25.2771   -9.5683   22.4759 H   0  0  0  0  0  0
  -24.0009   -7.4631   22.7471 H   0  0  0  0  0  0
  -21.0845   -8.8776   19.8956 H   0  0  0  0  0  0
  -22.3700  -10.9677   19.6168 H   0  0  0  0  0  0
  -21.2007   -7.6149   23.9717 H   0  0  0  0  0  0
  -21.1485   -6.0524   25.9079 H   0  0  0  0  0  0
  -22.0597   -2.7609   23.2843 H   0  0  0  0  0  0
  -22.4095  -11.9877   22.4823 H   0  0  0  0  0  0
  -21.1093  -13.1239   22.2636 H   0  0  0  0  0  0
  -24.6489  -15.8433   20.5168 H   0  0  0  0  0  0
  -26.2630  -15.6334   20.0672 H   0  0  0  0  0  0
  -26.7225  -32.5369   23.1062 H   0  0  0  0  0  0
  -25.0083  -33.9677   25.0383 H   0  0  0  0  0  0
  -22.7320  -31.2995   21.3940 H   0  0  0  0  0  0
  -23.3756  -35.9607   23.3297 H   0  0  0  0  0  0
  -24.3580  -36.8908   22.2056 H   0  0  0  0  0  0
  -23.7244  -37.6473   23.6672 H   0  0  0  0  0  0
  -26.1328  -31.5091   20.6179 H   0  0  0  0  0  0
  -26.8577  -30.7959   22.0257 H   0  0  0  0  0  0
  -28.1101  -28.8654   21.2474 H   0  0  0  0  0  0
  -25.9357  -25.9340   18.9192 H   0  0  0  0  0  0
  -23.9821  -27.3354   18.9548 H   0  0  0  0  0  0
  -23.7845  -30.5904   19.4031 H   0  0  0  0  0  0
  -22.7716  -29.2503   19.8472 H   0  0  0  0  0  0
  -25.1302  -36.1902   25.0815 H   0  0  0  0  0  0
  -20.9996  -28.3293   24.1377 H   0  0  0  0  0  0
  -20.5682  -26.2324   23.3617 H   0  0  0  0  0  0
  -21.6651  -26.7441   22.1202 H   0  0  0  0  0  0
  -19.6921  -25.6290   21.1251 H   0  0  0  0  0  0
  -19.6693  -27.3185   20.6734 H   0  0  0  0  0  0
  -17.4208  -26.6674   21.4029 H   0  0  0  0  0  0
  -18.0343  -26.0076   22.9026 H   0  0  0  0  0  0
  -19.7946  -30.7283   24.2250 H   0  0  0  0  0  0
  -17.5023  -31.6268   24.5167 H   0  0  0  0  0  0
  -15.5360  -30.2984   23.7661 H   0  0  0  0  0  0
  -15.8684  -28.0818   22.7075 H   0  0  0  0  0  0
  -24.5895  -30.7098   25.7775 H   0  0  0  0  0  0
  -24.8914  -32.2924   26.4850 H   0  0  0  0  0  0
  -25.8023  -30.8938   27.0241 H   0  0  0  0  0  0
  -26.2962  -29.6721   24.1269 H   0  0  0  0  0  0
  -27.3992  -29.7260   25.4814 H   0  0  0  0  0  0
  -27.8865  -30.4232   23.9558 H   0  0  0  0  0  0
  -27.2663  -33.3637   26.2062 H   0  0  0  0  0  0
  -28.3878  -32.6878   25.0342 H   0  0  0  0  0  0
  -28.0719  -31.8473   26.5441 H   0  0  0  0  0  0
  -28.2593  -38.0096   24.7513 H   0  0  0  0  0  0
  -28.1081  -36.2627   24.6286 H   0  0  0  0  0  0
  -27.2300  -37.1438   25.8868 H   0  0  0  0  0  0
  -20.9420  -29.8775   21.6839 H   0  0  0  0  0  0
  -26.0166  -38.2835   24.1408 H   0  0  0  0  0  0
  -31.5015  -17.3181   18.8987 H   0  0  0  0  0  0
  -31.0489  -20.0075   18.8510 H   0  0  0  0  0  0
  -29.8922  -22.1766   19.2996 H   0  0  0  0  0  0
  -28.1664  -22.0248   19.2159 H   0  0  0  0  0  0
  -27.0496  -24.5720   19.8791 H   0  0  0  0  0  0
  -28.3497  -24.7657   18.7337 H   0  0  0  0  0  0
  -28.9279  -15.6770   21.1667 H   0  0  0  0  0  0
  -28.3997  -20.8953   21.5581 H   0  0  0  0  0  0
  1 25  1  0  0  0
  1 30  2  0  0  0
  1 78  1  0  0  0
  2  3  1  0  0  0
  2 25  1  0  0  0
  2 82  1  0  0  0
  2 83  1  0  0  0
  3  4  1  0  0  0
  3 84  1  0  0  0
  3 85  1  0  0  0
  4  5  1  0  0  0
  4 86  1  0  0  0
  4 87  1  0  0  0
  5  6  1  0  0  0
  5 26  1  0  0  0
  5 88  1  0  0  0
  6 25  1  0  0  0
  6 89  1  0  0  0
  6 90  1  0  0  0
  7  8  2  0  0  0
  7 26  1  0  0  0
  7 29  1  0  0  0
  8  9  1  0  0  0
  8 22  1  0  0  0
  9 10  1  0  0  0
  9 27  2  0  0  0
 10 11  2  0  0  0
 10 15  1  0  0  0
 11 12  1  0  0  0
 11 91  1  0  0  0
 12 13  2  0  0  0
 12 92  1  0  0  0
 13 14  1  0  0  0
 13 31  1  0  0  0
 14 15  2  0  0  0
 14 93  1  0  0  0
 15 94  1  0  0  0
 16 17  2  0  0  0
 16 21  1  0  0  0
 16 31  1  0  0  0
 17 18  1  0  0  0
 17 95  1  0  0  0
 18 19  2  0  0  0
 18 96  1  0  0  0
 19 20  1  0  0  0
 19 24  1  0  0  0
 20 21  2  0  0  0
 20 97  1  0  0  0
 21 23  1  0  0  0
 22 28  1  0  0  0
 22 32  2  0  0  0
 26 27  1  0  0  0
 28 98  1  0  0  0
 28 99  1  0  0  0
 29100  1  0  0  0
 29101  1  0  0  0
 33 34  1  0  0  0
 33 66  1  0  0  0
 33 70  2  0  0  0
 34 36  1  0  0  0
 34 59  1  0  0  0
 34102  1  0  0  0
 35 44  2  0  0  0
 35 45  1  0  0  0
 35 68  1  0  0  0
 36 56  1  0  0  0
 36103  1  0  0  0
 37 39  1  0  0  0
 37 47  1  0  0  0
 37 66  1  0  0  0
 37104  1  0  0  0
 38 43  2  0  0  0
 38 46  1  0  0  0
 38 47  1  0  0  0
 39 64  1  0  0  0
 39 67  2  0  0  0
 40 52  1  0  0  0
 40 53  2  0  0  0
 40 58  1  0  0  0
 41105  1  0  0  0
 41106  1  0  0  0
 41107  1  0  0  0
 41 48  1  0  0  0
 42 43  1  0  0  0
 42 66  1  0  0  0
 42108  1  0  0  0
 42109  1  0  0  0
 43 44  1  0  0  0
 44110  1  0  0  0
 45 46  2  0  0  0
 45111  1  0  0  0
 46112  1  0  0  0
 47113  1  0  0  0
 47114  1  0  0  0
 48 56  1  0  0  0
 48 65  1  0  0  0
 48115  1  0  0  0
 49 50  1  0  0  0
 49 53  1  0  0  0
 49 64  1  0  0  0
 49116  1  0  0  0
 50 51  1  0  0  0
 50117  1  0  0  0
 50118  1  0  0  0
 51 52  1  0  0  0
 51119  1  0  0  0
 51120  1  0  0  0
 52121  1  0  0  0
 52122  1  0  0  0
 53 54  1  0  0  0
 54 55  2  0  0  0
 54123  1  0  0  0
 55 57  1  0  0  0
 55124  1  0  0  0
 56 69  2  0  0  0
 57 58  2  0  0  0
 57125  1  0  0  0
 58126  1  0  0  0
 59 60  1  0  0  0
 59 61  1  0  0  0
 59 62  1  0  0  0
 60127  1  0  0  0
 60128  1  0  0  0
 60129  1  0  0  0
 61130  1  0  0  0
 61131  1  0  0  0
 61132  1  0  0  0
 62133  1  0  0  0
 62134  1  0  0  0
 62135  1  0  0  0
 63 65  1  0  0  0
 63136  1  0  0  0
 63137  1  0  0  0
 63138  1  0  0  0
 64139  1  0  0  0
 65140  1  0  0  0
 68 77  1  0  0  0
 71 72  1  0  0  0
 71 73  2  0  0  0
 71141  1  0  0  0
 72 74  2  0  0  0
 72142  1  0  0  0
 73 78  1  0  0  0
 73 81  1  0  0  0
 74 79  1  0  0  0
 74 81  1  0  0  0
 75 76  1  0  0  0
 75 77  1  0  0  0
 75 80  2  0  0  0
 76 79  1  0  0  0
 76143  1  0  0  0
 76144  1  0  0  0
 77145  1  0  0  0
 77146  1  0  0  0
 78147  1  0  0  0
 79148  1  0  0  0
M  ISO  4   1 100  68 101  77 101  78 100
M  END
> <chiral flag>
0

> <version>
0

> <s_m_source_file>
/data/baiqing/PycharmProjects/Reinvent-master-3.2/result/LINK_invent/BTK/process_docking_weight1_custom_product_contain_oxygen_bond_distance_aromatic_linkinvent_7_9_3/rearranged_h_0155.sdf

> <i_m_source_file_index>
47

> <r_mmod_Potential_Energy-OPLS-2005>
193.042266845703

> <r_mmod_Stretch_Energy-OPLS-2005>
142.704147338867

> <r_mmod_Bend_Energy-OPLS-2005>
192.762298583984

> <r_mmod_Torsional_Energy-OPLS-2005>
216.503204345703

> <r_mmod_Improper_Torsional_Energy-OPLS-2005>
4.95895957946777

> <r_mmod_Van_der_Waal_Energy-OPLS-2005>
120.631721496582

> <r_mmod_Electrostatic_Energy-OPLS-2005>
-340.916717529297

> <r_mmod_Solvation_Energy-OPLS-2005>
-253.150100708008

> <b_mmod_Minimization_Converged-OPLS-2005>
0

> <r_mmod_RMS_Derivative-OPLS-2005>
0.500250220298767

$$$$
47
                    3D
 Structure written by MMmdl.
155164  0  0  1  0            999 V2000
  -30.5985  -14.6504   20.5119 C   0  0  0  0  0  0
  -30.4479  -12.4018   19.4484 C   0  0  0  0  0  0
  -29.5118  -12.5147   18.2228 C   0  0  0  0  0  0
  -28.0340  -12.3475   18.6330 C   0  0  0  0  0  0
  -27.6567  -13.2108   19.8661 C   0  0  2  0  0  0
  -28.7017  -13.0467   20.9937 C   0  0  0  0  0  0
  -25.2574  -13.8148   20.5657 C   0  0  0  0  0  0
  -24.1841  -13.0430   20.9197 C   0  0  0  0  0  0
  -24.6400  -11.6898   20.8744 C   0  0  0  0  0  0
  -23.9060  -10.4286   21.0408 C   0  0  0  0  0  0
  -24.3613   -9.4204   21.9187 C   0  0  0  0  0  0
  -23.6287   -8.2243   22.0756 C   0  0  0  0  0  0
  -22.4271   -8.0280   21.3544 C   0  0  0  0  0  0
  -21.9902   -9.0257   20.4648 C   0  0  0  0  0  0
  -22.7232  -10.2135   20.3057 C   0  0  0  0  0  0
  -21.6853   -6.0732   22.5277 C   0  0  0  0  0  0
  -21.4014   -6.5639   23.8210 C   0  0  0  0  0  0
  -21.3658   -5.6790   24.9173 C   0  0  0  0  0  0
  -21.6043   -4.3053   24.7224 C   0  0  0  0  0  0
  -21.8822   -3.8144   23.4347 C   0  0  0  0  0  0
  -21.9194   -4.6959   22.3398 C   0  0  0  0  0  0
  -22.7865  -13.5236   21.1856 C   0  0  0  0  0  0
  -22.1663   -4.2143   21.0978 F   0  0  0  0  0  0
  -21.5627   -3.4540   25.7738 F   0  0  0  0  0  0
  -30.0182  -13.4093   20.4388 N   0  0  0  0  0  0
  -26.3003  -12.9320   20.3308 N   0  0  0  0  0  0
  -25.9325  -11.6483   20.5755 N   0  0  0  0  0  0
  -22.0495  -12.8236   22.0408 N   0  0  0  0  0  0
  -25.4274  -15.1860   20.4002 N   0  0  0  0  0  0
  -31.7465  -14.8529   20.1023 O   0  0  0  0  0  0
  -21.6640   -6.8878   21.4239 O   0  0  0  0  0  0
  -22.3556  -14.5543   20.6697 O   0  0  0  0  0  0
  -24.6259  -31.8602   23.2023 C   0  0  0  0  0  0
  -25.9106  -32.4781   23.8358 C   0  0  1  0  0  0
  -27.2287  -27.3239   20.1217 C   0  0  0  0  0  0
  -25.5922  -33.8580   24.2283 N   0  0  0  0  0  0
  -23.4203  -30.4821   21.5448 C   0  0  2  0  0  0
  -24.8692  -28.9362   20.1126 C   0  0  0  0  0  0
  -22.7476  -29.4621   22.4939 C   0  0  0  0  0  0
  -18.0289  -28.1383   22.8486 C   0  0  0  0  0  0
  -24.1488  -36.7295   23.2641 C   0  0  0  0  0  0
  -25.9609  -30.7923   21.3733 C   0  0  0  0  0  0
  -26.0377  -29.4193   20.7167 C   0  0  0  0  0  0
  -27.2232  -28.6255   20.7097 C   0  0  0  0  0  0
  -26.0416  -26.8942   19.4890 C   0  0  0  0  0  0
  -24.8728  -27.6788   19.4885 C   0  0  0  0  0  0
  -23.6361  -29.8157   20.1608 C   0  0  0  0  0  0
  -25.4114  -36.3084   24.0331 C   0  0  1  0  0  0
  -20.5890  -28.3688   23.1284 C   0  0  2  0  0  0
  -20.6777  -26.9410   22.5412 C   0  0  0  0  0  0
  -19.5753  -26.6383   21.5212 C   0  0  0  0  0  0
  -18.1933  -26.7927   22.1624 C   0  0  0  0  0  0
  -19.1541  -28.8852   23.2881 C   0  0  0  0  0  0
  -18.9464  -30.1452   23.8899 C   0  0  0  0  0  0
  -17.6465  -30.6585   24.0562 C   0  0  0  0  0  0
  -25.9049  -34.9454   23.5107 C   0  0  0  0  0  0
  -16.5356  -29.9085   23.6328 C   0  0  0  0  0  0
  -16.7277  -28.6502   23.0351 C   0  0  0  0  0  0
  -26.4490  -31.6588   25.0726 C   0  0  0  0  0  0
  -25.3721  -31.3734   26.1453 C   0  0  0  0  0  0
  -27.0336  -30.3015   24.6177 C   0  0  0  0  0  0
  -27.6051  -32.4322   25.7493 C   0  0  0  0  0  0
  -27.5576  -37.1806   24.8468 C   0  0  0  0  0  0
  -21.4192  -29.3039   22.3675 N   0  0  0  0  0  0
  -26.4295  -37.3775   23.9401 N   0  0  0  0  0  0
  -24.6876  -31.0613   22.0972 N   0  0  0  0  0  0
  -23.4200  -28.8164   23.3022 O   0  0  0  0  0  0
  -28.3354  -26.4647   20.1442 O   0  0  0  0  0  0
  -26.5618  -34.8919   22.4673 O   0  0  0  0  0  0
  -23.5420  -32.1398   23.7347 O   0  0  0  0  0  0
  -30.7544  -17.9755   20.3765 C   0  0  0  0  0  0
  -28.3660  -17.6713   20.9376 C   0  0  0  0  0  0
  -30.4932  -19.3737   20.2268 C   0  0  0  0  0  0
  -29.1199  -19.8833   20.4042 C   0  0  0  0  0  0
  -29.6708  -17.0972   20.7312 C   0  0  0  0  0  0
  -28.0497  -19.0573   20.7740 C   0  0  0  0  0  0
  -30.7537  -20.8466   19.9636 C   0  0  0  0  0  0
  -28.9963  -23.9201   20.1400 C   0  0  0  0  0  0
  -28.8267  -22.4833   20.7775 C   0  0  0  0  0  0
  -28.0784  -25.0972   20.6619 C   0  0  0  0  0  0
  -29.4288  -21.2764   20.0812 N   0  0  0  0  0  0
  -26.7524  -19.5438   20.9563 N   0  0  0  0  0  0
  -29.7642  -15.6481   20.9444 N   0  0  0  0  0  0
  -31.8902  -21.6036   19.7821 N   0  3  0  0  0  0
  -29.8456  -24.1192   19.2633 O   0  0  0  0  0  0
  -31.4864  -12.5449   19.1444 H   0  0  0  0  0  0
  -30.3980  -11.4019   19.8819 H   0  0  0  0  0  0
  -29.7782  -11.7662   17.4751 H   0  0  0  0  0  0
  -29.6501  -13.4854   17.7442 H   0  0  0  0  0  0
  -27.8700  -11.2929   18.8573 H   0  0  0  0  0  0
  -27.3802  -12.5841   17.7923 H   0  0  0  0  0  0
  -27.6791  -14.2487   19.5345 H   0  0  0  0  0  0
  -28.7185  -12.0162   21.3509 H   0  0  0  0  0  0
  -28.4394  -13.6512   21.8630 H   0  0  0  0  0  0
  -25.2763   -9.5678   22.4758 H   0  0  0  0  0  0
  -23.9994   -7.4635   22.7477 H   0  0  0  0  0  0
  -21.0831   -8.8779   19.8957 H   0  0  0  0  0  0
  -22.3694  -10.9677   19.6166 H   0  0  0  0  0  0
  -21.2010   -7.6147   23.9710 H   0  0  0  0  0  0
  -21.1475   -6.0523   25.9074 H   0  0  0  0  0  0
  -22.0601   -2.7604   23.2853 H   0  0  0  0  0  0
  -22.4103  -11.9898   22.4806 H   0  0  0  0  0  0
  -21.1115  -13.1272   22.2603 H   0  0  0  0  0  0
  -24.6468  -15.8285   20.4793 H   0  0  0  0  0  0
  -26.2441  -15.6058   19.9759 H   0  0  0  0  0  0
  -26.7178  -32.5457   23.1113 H   0  0  0  0  0  0
  -25.0060  -33.9728   25.0421 H   0  0  0  0  0  0
  -22.7136  -31.3020   21.4012 H   0  0  0  0  0  0
  -23.3741  -35.9639   23.3322 H   0  0  0  0  0  0
  -24.3574  -36.8893   22.2051 H   0  0  0  0  0  0
  -23.7254  -37.6510   23.6648 H   0  0  0  0  0  0
  -26.0916  -31.5553   20.6046 H   0  0  0  0  0  0
  -26.8416  -30.8423   22.0023 H   0  0  0  0  0  0
  -28.1211  -28.9919   21.1876 H   0  0  0  0  0  0
  -26.0072  -25.9356   18.9916 H   0  0  0  0  0  0
  -23.9795  -27.3055   19.0069 H   0  0  0  0  0  0
  -23.7543  -30.5924   19.4045 H   0  0  0  0  0  0
  -22.7565  -29.2448   19.8582 H   0  0  0  0  0  0
  -25.1293  -36.1942   25.0825 H   0  0  0  0  0  0
  -20.9980  -28.3264   24.1406 H   0  0  0  0  0  0
  -20.5675  -26.2297   23.3611 H   0  0  0  0  0  0
  -21.6644  -26.7437   22.1205 H   0  0  0  0  0  0
  -19.6912  -25.6294   21.1240 H   0  0  0  0  0  0
  -19.6690  -27.3195   20.6742 H   0  0  0  0  0  0
  -17.4200  -26.6672   21.4029 H   0  0  0  0  0  0
  -18.0335  -26.0071   22.9023 H   0  0  0  0  0  0
  -19.7940  -30.7267   24.2270 H   0  0  0  0  0  0
  -17.5020  -31.6263   24.5166 H   0  0  0  0  0  0
  -15.5356  -30.2987   23.7650 H   0  0  0  0  0  0
  -15.8678  -28.0821   22.7066 H   0  0  0  0  0  0
  -24.5889  -30.7090   25.7782 H   0  0  0  0  0  0
  -24.8923  -32.2909   26.4875 H   0  0  0  0  0  0
  -25.8044  -30.8912   27.0230 H   0  0  0  0  0  0
  -26.2915  -29.6765   24.1198 H   0  0  0  0  0  0
  -27.4035  -29.7269   25.4678 H   0  0  0  0  0  0
  -27.8780  -30.4306   23.9402 H   0  0  0  0  0  0
  -27.2663  -33.3618   26.2078 H   0  0  0  0  0  0
  -28.3857  -32.6889   25.0318 H   0  0  0  0  0  0
  -28.0725  -31.8444   26.5403 H   0  0  0  0  0  0
  -28.2611  -38.0085   24.7485 H   0  0  0  0  0  0
  -28.1053  -36.2614   24.6330 H   0  0  0  0  0  0
  -27.2289  -37.1499   25.8872 H   0  0  0  0  0  0
  -20.9367  -29.8765   21.6890 H   0  0  0  0  0  0
  -26.0179  -38.2854   24.1385 H   0  0  0  0  0  0
  -31.7555  -17.5952   20.2331 H   0  0  0  0  0  0
  -27.5621  -17.0092   21.2256 H   0  0  0  0  0  0
  -27.7590  -22.3034   20.8962 H   0  0  0  0  0  0
  -29.2375  -22.5252   21.7857 H   0  0  0  0  0  0
  -28.1852  -25.1361   21.7459 H   0  0  0  0  0  0
  -27.0483  -24.7936   20.4826 H   0  0  0  0  0  0
  -25.9894  -18.8743   20.9710 H   0  0  0  0  0  0
  -26.4911  -20.4104   20.4977 H   0  0  0  0  0  0
  -28.9148  -15.2467   21.3109 H   0  0  0  0  0  0
  -32.8281  -21.2331   19.7738 H   0  0  0  0  0  0
  -31.8953  -22.5960   19.6003 H   0  0  0  0  0  0
  1 25  1  0  0  0
  1 30  2  0  0  0
  1 83  1  0  0  0
  2  3  1  0  0  0
  2 25  1  0  0  0
  2 86  1  0  0  0
  2 87  1  0  0  0
  3  4  1  0  0  0
  3 88  1  0  0  0
  3 89  1  0  0  0
  4  5  1  0  0  0
  4 90  1  0  0  0
  4 91  1  0  0  0
  5  6  1  0  0  0
  5 26  1  0  0  0
  5 92  1  0  0  0
  6 25  1  0  0  0
  6 93  1  0  0  0
  6 94  1  0  0  0
  7  8  2  0  0  0
  7 26  1  0  0  0
  7 29  1  0  0  0
  8  9  1  0  0  0
  8 22  1  0  0  0
  9 10  1  0  0  0
  9 27  2  0  0  0
 10 11  2  0  0  0
 10 15  1  0  0  0
 11 12  1  0  0  0
 11 95  1  0  0  0
 12 13  2  0  0  0
 12 96  1  0  0  0
 13 14  1  0  0  0
 13 31  1  0  0  0
 14 15  2  0  0  0
 14 97  1  0  0  0
 15 98  1  0  0  0
 16 17  2  0  0  0
 16 21  1  0  0  0
 16 31  1  0  0  0
 17 18  1  0  0  0
 17 99  1  0  0  0
 18 19  2  0  0  0
 18100  1  0  0  0
 19 20  1  0  0  0
 19 24  1  0  0  0
 20 21  2  0  0  0
 20101  1  0  0  0
 21 23  1  0  0  0
 22 28  1  0  0  0
 22 32  2  0  0  0
 26 27  1  0  0  0
 28102  1  0  0  0
 28103  1  0  0  0
 29104  1  0  0  0
 29105  1  0  0  0
 33 34  1  0  0  0
 33 66  1  0  0  0
 33 70  2  0  0  0
 34 36  1  0  0  0
 34 59  1  0  0  0
 34106  1  0  0  0
 35 44  2  0  0  0
 35 45  1  0  0  0
 35 68  1  0  0  0
 36 56  1  0  0  0
 36107  1  0  0  0
 37 39  1  0  0  0
 37 47  1  0  0  0
 37 66  1  0  0  0
 37108  1  0  0  0
 38 43  2  0  0  0
 38 46  1  0  0  0
 38 47  1  0  0  0
 39 64  1  0  0  0
 39 67  2  0  0  0
 40 52  1  0  0  0
 40 53  2  0  0  0
 40 58  1  0  0  0
 41109  1  0  0  0
 41110  1  0  0  0
 41111  1  0  0  0
 41 48  1  0  0  0
 42 43  1  0  0  0
 42 66  1  0  0  0
 42112  1  0  0  0
 42113  1  0  0  0
 43 44  1  0  0  0
 44114  1  0  0  0
 45 46  2  0  0  0
 45115  1  0  0  0
 46116  1  0  0  0
 47117  1  0  0  0
 47118  1  0  0  0
 48 56  1  0  0  0
 48 65  1  0  0  0
 48119  1  0  0  0
 49 50  1  0  0  0
 49 53  1  0  0  0
 49 64  1  0  0  0
 49120  1  0  0  0
 50 51  1  0  0  0
 50121  1  0  0  0
 50122  1  0  0  0
 51 52  1  0  0  0
 51123  1  0  0  0
 51124  1  0  0  0
 52125  1  0  0  0
 52126  1  0  0  0
 53 54  1  0  0  0
 54 55  2  0  0  0
 54127  1  0  0  0
 55 57  1  0  0  0
 55128  1  0  0  0
 56 69  2  0  0  0
 57 58  2  0  0  0
 57129  1  0  0  0
 58130  1  0  0  0
 59 60  1  0  0  0
 59 61  1  0  0  0
 59 62  1  0  0  0
 60131  1  0  0  0
 60132  1  0  0  0
 60133  1  0  0  0
 61134  1  0  0  0
 61135  1  0  0  0
 61136  1  0  0  0
 62137  1  0  0  0
 62138  1  0  0  0
 62139  1  0  0  0
 63 65  1  0  0  0
 63140  1  0  0  0
 63141  1  0  0  0
 63142  1  0  0  0
 64143  1  0  0  0
 65144  1  0  0  0
 68 80  1  0  0  0
 71 73  2  0  0  0
 71 75  1  0  0  0
 71145  1  0  0  0
 72 75  2  0  0  0
 72 76  1  0  0  0
 72146  1  0  0  0
 73 74  1  0  0  0
 73 77  1  0  0  0
 74 76  2  0  0  0
 74 81  1  0  0  0
 75 83  1  0  0  0
 76 82  1  0  0  0
 77 81  1  0  0  0
 77 84  2  0  0  0
 78 79  1  0  0  0
 78 80  1  0  0  0
 78 85  2  0  0  0
 79 81  1  0  0  0
 79147  1  0  0  0
 79148  1  0  0  0
 80149  1  0  0  0
 80150  1  0  0  0
 82151  1  0  0  0
 82152  1  0  0  0
 83153  1  0  0  0
 84154  1  0  0  0
 84155  1  0  0  0
M  CHG  1  84   1
M  ISO  4   1 100  68 101  80 101  83 100
M  END
> <chiral flag>
0

> <version>
0

> <s_m_source_file>
/data/baiqing/PycharmProjects/Reinvent-master-3.2/result/LINK_invent/BTK/process_docking_weight1_custom_product_contain_oxygen_bond_distance_aromatic_linkinvent_7_9_3/rearranged_h_0155.sdf

> <i_m_source_file_index>
48

> <r_mmod_Potential_Energy-OPLS-2005>
399.078247070312

> <r_mmod_Stretch_Energy-OPLS-2005>
81.0422897338867

> <r_mmod_Bend_Energy-OPLS-2005>
643.464233398438

> <r_mmod_Torsional_Energy-OPLS-2005>
242.693176269531

> <r_mmod_Improper_Torsional_Energy-OPLS-2005>
12.8735332489014

> <r_mmod_Van_der_Waal_Energy-OPLS-2005>
127.383781433105

> <r_mmod_Electrostatic_Energy-OPLS-2005>
-290.383850097656

> <r_mmod_Solvation_Energy-OPLS-2005>
-467.858703613281

> <b_mmod_Minimization_Converged-OPLS-2005>
0

> <r_mmod_RMS_Derivative-OPLS-2005>
0.754395961761475

$$$$
48
                    3D
 Structure written by MMmdl.
161170  0  0  1  0            999 V2000
  -30.7166  -14.4625   20.5568 C   0  0  0  0  0  0
  -30.4200  -12.2927   19.4292 C   0  0  0  0  0  0
  -29.4994  -12.4921   18.2090 C   0  0  0  0  0  0
  -28.0178  -12.3658   18.6169 C   0  0  0  0  0  0
  -27.6642  -13.2056   19.8759 C   0  0  2  0  0  0
  -28.7048  -12.9944   20.9988 C   0  0  0  0  0  0
  -25.2608  -13.8164   20.5671 C   0  0  0  0  0  0
  -24.1845  -13.0452   20.9149 C   0  0  0  0  0  0
  -24.6371  -11.6913   20.8697 C   0  0  0  0  0  0
  -23.9020  -10.4307   21.0385 C   0  0  0  0  0  0
  -24.3588   -9.4226   21.9175 C   0  0  0  0  0  0
  -23.6272   -8.2258   22.0745 C   0  0  0  0  0  0
  -22.4255   -8.0284   21.3533 C   0  0  0  0  0  0
  -21.9877   -9.0256   20.4641 C   0  0  0  0  0  0
  -22.7183  -10.2146   20.3040 C   0  0  0  0  0  0
  -21.6866   -6.0715   22.5262 C   0  0  0  0  0  0
  -21.4028   -6.5631   23.8194 C   0  0  0  0  0  0
  -21.3657   -5.6785   24.9158 C   0  0  0  0  0  0
  -21.6046   -4.3041   24.7206 C   0  0  0  0  0  0
  -21.8827   -3.8127   23.4333 C   0  0  0  0  0  0
  -21.9200   -4.6947   22.3384 C   0  0  0  0  0  0
  -22.7867  -13.5264   21.1830 C   0  0  0  0  0  0
  -22.1667   -4.2125   21.0963 F   0  0  0  0  0  0
  -21.5608   -3.4530   25.7718 F   0  0  0  0  0  0
  -30.0370  -13.2877   20.4441 N   0  0  0  0  0  0
  -26.3037  -12.9318   20.3360 N   0  0  0  0  0  0
  -25.9305  -11.6483   20.5753 N   0  0  0  0  0  0
  -22.0495  -12.8257   22.0385 N   0  0  0  0  0  0
  -25.4368  -15.1879   20.4096 N   0  0  0  0  0  0
  -31.8530  -14.6077   20.0969 O   0  0  0  0  0  0
  -21.6641   -6.8863   21.4227 O   0  0  0  0  0  0
  -22.3566  -14.5573   20.6673 O   0  0  0  0  0  0
  -24.6178  -31.8690   23.2125 C   0  0  0  0  0  0
  -25.9070  -32.4824   23.8415 C   0  0  1  0  0  0
  -27.2163  -27.4164   20.0718 C   0  0  0  0  0  0
  -25.5916  -33.8619   24.2335 N   0  0  0  0  0  0
  -23.4039  -30.4997   21.5553 C   0  0  2  0  0  0
  -24.8441  -28.9755   20.1118 C   0  0  0  0  0  0
  -22.7412  -29.4689   22.4985 C   0  0  0  0  0  0
  -18.0282  -28.1355   22.8502 C   0  0  0  0  0  0
  -24.1480  -36.7294   23.2638 C   0  0  0  0  0  0
  -25.9426  -30.8261   21.3754 C   0  0  0  0  0  0
  -26.0142  -29.4667   20.7055 C   0  0  0  0  0  0
  -27.2049  -28.6967   20.6818 C   0  0  0  0  0  0
  -26.0201  -26.9633   19.4598 C   0  0  0  0  0  0
  -24.8420  -27.7218   19.4898 C   0  0  0  0  0  0
  -23.6080  -29.8422   20.1681 C   0  0  0  0  0  0
  -25.4103  -36.3103   24.0338 C   0  0  1  0  0  0
  -20.5877  -28.3658   23.1293 C   0  0  2  0  0  0
  -20.6757  -26.9386   22.5408 C   0  0  0  0  0  0
  -19.5738  -26.6361   21.5206 C   0  0  0  0  0  0
  -18.1922  -26.7899   22.1628 C   0  0  0  0  0  0
  -19.1532  -28.8824   23.2897 C   0  0  0  0  0  0
  -18.9464  -30.1429   23.8906 C   0  0  0  0  0  0
  -17.6467  -30.6572   24.0559 C   0  0  0  0  0  0
  -25.9040  -34.9473   23.5133 C   0  0  0  0  0  0
  -16.5358  -29.9072   23.6322 C   0  0  0  0  0  0
  -16.7273  -28.6478   23.0367 C   0  0  0  0  0  0
  -26.4474  -31.6617   25.0760 C   0  0  0  0  0  0
  -25.3724  -31.3789   26.1511 C   0  0  0  0  0  0
  -27.0316  -30.3032   24.6215 C   0  0  0  0  0  0
  -27.6034  -32.4361   25.7511 C   0  0  0  0  0  0
  -27.5579  -37.1796   24.8458 C   0  0  0  0  0  0
  -21.4142  -29.3033   22.3696 N   0  0  0  0  0  0
  -26.4285  -37.3790   23.9414 N   0  0  0  0  0  0
  -24.6729  -31.0789   22.1035 N   0  0  0  0  0  0
  -23.4183  -28.8215   23.3020 O   0  0  0  0  0  0
  -28.3495  -26.6128   20.1005 O   0  0  0  0  0  0
  -26.5607  -34.8920   22.4697 O   0  0  0  0  0  0
  -23.5359  -32.1470   23.7496 O   0  0  0  0  0  0
  -29.2935  -17.8919   20.8767 C   0  0  0  0  0  0
  -31.5858  -17.4339   20.8879 C   0  0  0  0  0  0
  -30.3231  -16.9000   20.9462 C   0  0  0  0  0  0
  -29.7769  -19.1754   20.7070 C   0  0  0  0  0  0
  -30.0940  -23.7198   19.4400 C   0  0  0  0  0  0
  -30.5029  -22.2712   19.7855 C   0  0  0  0  0  0
  -28.5075  -22.8201   20.9517 C   0  0  0  0  0  0
  -29.1469  -24.1730   20.5608 C   0  0  2  0  0  0
  -29.2885  -25.1770   22.7880 C   0  0  0  0  0  0
  -28.9292  -20.4177   20.5090 C   0  0  0  0  0  0
  -28.0570  -25.1919   20.1059 C   0  0  0  0  0  0
  -30.0193  -15.5023   21.0649 N   0  0  0  0  0  0
  -29.5328  -21.7588   20.7842 N   0  3  1  0  0  0
  -29.9582  -24.6611   21.6382 O   0  0  0  0  0  0
  -31.5278  -19.1695   20.6925 S   0  0  0  0  0  0
  -31.4664  -12.3715   19.1278 H   0  0  0  0  0  0
  -30.3101  -11.2843   19.8323 H   0  0  0  0  0  0
  -29.7323  -11.7586   17.4341 H   0  0  0  0  0  0
  -29.6825  -13.4709   17.7638 H   0  0  0  0  0  0
  -27.8198  -11.3108   18.8091 H   0  0  0  0  0  0
  -27.3772  -12.6475   17.7813 H   0  0  0  0  0  0
  -27.7092  -14.2535   19.5783 H   0  0  0  0  0  0
  -28.6749  -11.9613   21.3518 H   0  0  0  0  0  0
  -28.4760  -13.6051   21.8726 H   0  0  0  0  0  0
  -25.2744   -9.5682   22.4731 H   0  0  0  0  0  0
  -23.9976   -7.4648   22.7466 H   0  0  0  0  0  0
  -21.0794   -8.8755   19.8965 H   0  0  0  0  0  0
  -22.3635  -10.9667   19.6129 H   0  0  0  0  0  0
  -21.2047   -7.6145   23.9693 H   0  0  0  0  0  0
  -21.1466   -6.0512   25.9053 H   0  0  0  0  0  0
  -22.0612   -2.7585   23.2846 H   0  0  0  0  0  0
  -22.4115  -11.9946   22.4807 H   0  0  0  0  0  0
  -21.1105  -13.1278   22.2579 H   0  0  0  0  0  0
  -24.6766  -15.8478   20.5253 H   0  0  0  0  0  0
  -26.2848  -15.6173   20.0624 H   0  0  0  0  0  0
  -26.7143  -32.5520   23.1170 H   0  0  0  0  0  0
  -25.0062  -33.9781   25.0477 H   0  0  0  0  0  0
  -22.6953  -31.3199   21.4209 H   0  0  0  0  0  0
  -23.3742  -35.9626   23.3305 H   0  0  0  0  0  0
  -24.3572  -36.8904   22.2051 H   0  0  0  0  0  0
  -23.7234  -37.6497   23.6652 H   0  0  0  0  0  0
  -26.0813  -31.6042   20.6229 H   0  0  0  0  0  0
  -26.8187  -30.8536   22.0122 H   0  0  0  0  0  0
  -28.1040  -29.0707   21.1513 H   0  0  0  0  0  0
  -25.9524  -26.0159   18.9495 H   0  0  0  0  0  0
  -23.9422  -27.3373   19.0298 H   0  0  0  0  0  0
  -23.7099  -30.6203   19.4109 H   0  0  0  0  0  0
  -22.7305  -29.2631   19.8740 H   0  0  0  0  0  0
  -25.1275  -36.1961   25.0831 H   0  0  0  0  0  0
  -20.9996  -28.3226   24.1404 H   0  0  0  0  0  0
  -20.5627  -26.2278   23.3607 H   0  0  0  0  0  0
  -21.6632  -26.7396   22.1226 H   0  0  0  0  0  0
  -19.6894  -25.6278   21.1214 H   0  0  0  0  0  0
  -19.6664  -27.3177   20.6743 H   0  0  0  0  0  0
  -17.4191  -26.6674   21.4030 H   0  0  0  0  0  0
  -18.0318  -26.0023   22.9005 H   0  0  0  0  0  0
  -19.7948  -30.7233   24.2280 H   0  0  0  0  0  0
  -17.5031  -31.6253   24.5155 H   0  0  0  0  0  0
  -15.5361  -30.2981   23.7626 H   0  0  0  0  0  0
  -15.8673  -28.0784   22.7101 H   0  0  0  0  0  0
  -24.5831  -30.7211   25.7860 H   0  0  0  0  0  0
  -24.9008  -32.2994   26.4965 H   0  0  0  0  0  0
  -25.8047  -30.8930   27.0267 H   0  0  0  0  0  0
  -26.2913  -29.6800   24.1187 H   0  0  0  0  0  0
  -27.3949  -29.7276   25.4740 H   0  0  0  0  0  0
  -27.8805  -30.4315   23.9495 H   0  0  0  0  0  0
  -27.2623  -33.3632   26.2130 H   0  0  0  0  0  0
  -28.3799  -32.6987   25.0316 H   0  0  0  0  0  0
  -28.0749  -31.8484   26.5394 H   0  0  0  0  0  0
  -28.2593  -38.0095   24.7509 H   0  0  0  0  0  0
  -28.1077  -36.2630   24.6262 H   0  0  0  0  0  0
  -27.2307  -37.1414   25.8863 H   0  0  0  0  0  0
  -20.9288  -29.8785   21.6949 H   0  0  0  0  0  0
  -26.0167  -38.2864   24.1423 H   0  0  0  0  0  0
  -28.2443  -17.6400   20.9115 H   0  0  0  0  0  0
  -32.5448  -16.9275   20.9206 H   0  0  0  0  0  0
  -29.5695  -23.7082   18.4841 H   0  0  0  0  0  0
  -30.9513  -24.3827   19.3237 H   0  0  0  0  0  0
  -31.4967  -22.2556   20.2334 H   0  0  0  0  0  0
  -30.5429  -21.6461   18.8914 H   0  0  0  0  0  0
  -27.6884  -22.6139   20.2589 H   0  0  0  0  0  0
  -28.0687  -22.8037   21.9478 H   0  0  0  0  0  0
  -30.0356  -25.5002   23.5133 H   0  0  0  0  0  0
  -28.6633  -24.4326   23.2809 H   0  0  0  0  0  0
  -28.6731  -26.0479   22.5592 H   0  0  0  0  0  0
  -28.0674  -20.3191   21.1698 H   0  0  0  0  0  0
  -28.5177  -20.4139   19.4997 H   0  0  0  0  0  0
  -27.2075  -25.0329   20.7742 H   0  0  0  0  0  0
  -27.7217  -24.8898   19.1129 H   0  0  0  0  0  0
  -29.0878  -15.2708   21.3737 H   0  0  0  0  0  0
  -30.0299  -21.6989   21.6609 H   0  0  0  0  0  0
  1 25  1  0  0  0
  1 30  2  0  0  0
  1 82  1  0  0  0
  2  3  1  0  0  0
  2 25  1  0  0  0
  2 86  1  0  0  0
  2 87  1  0  0  0
  3  4  1  0  0  0
  3 88  1  0  0  0
  3 89  1  0  0  0
  4  5  1  0  0  0
  4 90  1  0  0  0
  4 91  1  0  0  0
  5  6  1  0  0  0
  5 26  1  0  0  0
  5 92  1  0  0  0
  6 25  1  0  0  0
  6 93  1  0  0  0
  6 94  1  0  0  0
  7  8  2  0  0  0
  7 26  1  0  0  0
  7 29  1  0  0  0
  8  9  1  0  0  0
  8 22  1  0  0  0
  9 10  1  0  0  0
  9 27  2  0  0  0
 10 11  2  0  0  0
 10 15  1  0  0  0
 11 12  1  0  0  0
 11 95  1  0  0  0
 12 13  2  0  0  0
 12 96  1  0  0  0
 13 14  1  0  0  0
 13 31  1  0  0  0
 14 15  2  0  0  0
 14 97  1  0  0  0
 15 98  1  0  0  0
 16 17  2  0  0  0
 16 21  1  0  0  0
 16 31  1  0  0  0
 17 18  1  0  0  0
 17 99  1  0  0  0
 18 19  2  0  0  0
 18100  1  0  0  0
 19 20  1  0  0  0
 19 24  1  0  0  0
 20 21  2  0  0  0
 20101  1  0  0  0
 21 23  1  0  0  0
 22 28  1  0  0  0
 22 32  2  0  0  0
 26 27  1  0  0  0
 28102  1  0  0  0
 28103  1  0  0  0
 29104  1  0  0  0
 29105  1  0  0  0
 33 34  1  0  0  0
 33 66  1  0  0  0
 33 70  2  0  0  0
 34 36  1  0  0  0
 34 59  1  0  0  0
 34106  1  0  0  0
 35 44  2  0  0  0
 35 45  1  0  0  0
 35 68  1  0  0  0
 36 56  1  0  0  0
 36107  1  0  0  0
 37 39  1  0  0  0
 37 47  1  0  0  0
 37 66  1  0  0  0
 37108  1  0  0  0
 38 43  2  0  0  0
 38 46  1  0  0  0
 38 47  1  0  0  0
 39 64  1  0  0  0
 39 67  2  0  0  0
 40 52  1  0  0  0
 40 53  2  0  0  0
 40 58  1  0  0  0
 41109  1  0  0  0
 41110  1  0  0  0
 41111  1  0  0  0
 41 48  1  0  0  0
 42 43  1  0  0  0
 42 66  1  0  0  0
 42112  1  0  0  0
 42113  1  0  0  0
 43 44  1  0  0  0
 44114  1  0  0  0
 45 46  2  0  0  0
 45115  1  0  0  0
 46116  1  0  0  0
 47117  1  0  0  0
 47118  1  0  0  0
 48 56  1  0  0  0
 48 65  1  0  0  0
 48119  1  0  0  0
 49 50  1  0  0  0
 49 53  1  0  0  0
 49 64  1  0  0  0
 49120  1  0  0  0
 50 51  1  0  0  0
 50121  1  0  0  0
 50122  1  0  0  0
 51 52  1  0  0  0
 51123  1  0  0  0
 51124  1  0  0  0
 52125  1  0  0  0
 52126  1  0  0  0
 53 54  1  0  0  0
 54 55  2  0  0  0
 54127  1  0  0  0
 55 57  1  0  0  0
 55128  1  0  0  0
 56 69  2  0  0  0
 57 58  2  0  0  0
 57129  1  0  0  0
 58130  1  0  0  0
 59 60  1  0  0  0
 59 61  1  0  0  0
 59 62  1  0  0  0
 60131  1  0  0  0
 60132  1  0  0  0
 60133  1  0  0  0
 61134  1  0  0  0
 61135  1  0  0  0
 61136  1  0  0  0
 62137  1  0  0  0
 62138  1  0  0  0
 62139  1  0  0  0
 63 65  1  0  0  0
 63140  1  0  0  0
 63141  1  0  0  0
 63142  1  0  0  0
 64143  1  0  0  0
 65144  1  0  0  0
 68 81  1  0  0  0
 71 73  1  0  0  0
 71 74  2  0  0  0
 71145  1  0  0  0
 72 73  2  0  0  0
 72 85  1  0  0  0
 72146  1  0  0  0
 73 82  1  0  0  0
 74 80  1  0  0  0
 74 85  1  0  0  0
 75 76  1  0  0  0
 75 78  1  0  0  0
 75147  1  0  0  0
 75148  1  0  0  0
 76 83  1  0  0  0
 76149  1  0  0  0
 76150  1  0  0  0
 77 78  1  0  0  0
 77 83  1  0  0  0
 77151  1  0  0  0
 77152  1  0  0  0
 78 81  1  0  0  0
 78 84  1  0  0  0
 79 84  1  0  0  0
 79153  1  0  0  0
 79154  1  0  0  0
 79155  1  0  0  0
 80156  1  0  0  0
 80157  1  0  0  0
 80 83  1  0  0  0
 81158  1  0  0  0
 81159  1  0  0  0
 82160  1  0  0  0
 83161  1  0  0  0
M  CHG  1  83   1
M  ISO  4   1 100  68 101  81 101  82 100
M  END
> <chiral flag>
0

> <version>
0

> <s_m_source_file>
/data/baiqing/PycharmProjects/Reinvent-master-3.2/result/LINK_invent/BTK/process_docking_weight1_custom_product_contain_oxygen_bond_distance_aromatic_linkinvent_7_9_3/rearranged_h_0155.sdf

> <i_m_source_file_index>
49

> <r_mmod_Potential_Energy-OPLS-2005>
-75.1801452636719

> <r_mmod_Stretch_Energy-OPLS-2005>
41.5781478881836

> <r_mmod_Bend_Energy-OPLS-2005>
139.75862121582

> <r_mmod_Torsional_Energy-OPLS-2005>
291.771026611328

> <r_mmod_Improper_Torsional_Energy-OPLS-2005>
3.96275091171265

> <r_mmod_Van_der_Waal_Energy-OPLS-2005>
143.696853637695

> <r_mmod_Electrostatic_Energy-OPLS-2005>
-284.780426025391

> <r_mmod_Solvation_Energy-OPLS-2005>
-428.319274902344

> <b_mmod_Minimization_Converged-OPLS-2005>
0

> <r_mmod_RMS_Derivative-OPLS-2005>
2.73492097854614

$$$$
49
                    3D
 Structure written by MMmdl.
153161  0  0  1  0            999 V2000
  -30.6129  -14.7177   20.4278 C   0  0  0  0  0  0
  -30.4273  -12.4201   19.4886 C   0  0  0  0  0  0
  -29.5134  -12.4777   18.2432 C   0  0  0  0  0  0
  -28.0348  -12.3222   18.6472 C   0  0  0  0  0  0
  -27.6424  -13.2256   19.8453 C   0  0  2  0  0  0
  -28.6811  -13.1564   20.9866 C   0  0  0  0  0  0
  -25.2530  -13.8184   20.5694 C   0  0  0  0  0  0
  -24.1808  -13.0439   20.9199 C   0  0  0  0  0  0
  -24.6366  -11.6907   20.8692 C   0  0  0  0  0  0
  -23.9039  -10.4288   21.0373 C   0  0  0  0  0  0
  -24.3595   -9.4217   21.9162 C   0  0  0  0  0  0
  -23.6286   -8.2240   22.0736 C   0  0  0  0  0  0
  -22.4264   -8.0262   21.3531 C   0  0  0  0  0  0
  -21.9896   -9.0234   20.4628 C   0  0  0  0  0  0
  -22.7211  -10.2119   20.3033 C   0  0  0  0  0  0
  -21.6856   -6.0727   22.5275 C   0  0  0  0  0  0
  -21.4018   -6.5636   23.8205 C   0  0  0  0  0  0
  -21.3664   -5.6785   24.9170 C   0  0  0  0  0  0
  -21.6047   -4.3049   24.7221 C   0  0  0  0  0  0
  -21.8823   -3.8145   23.4339 C   0  0  0  0  0  0
  -21.9201   -4.6956   22.3395 C   0  0  0  0  0  0
  -22.7837  -13.5229   21.1870 C   0  0  0  0  0  0
  -22.1669   -4.2141   21.0971 F   0  0  0  0  0  0
  -21.5633   -3.4538   25.7739 F   0  0  0  0  0  0
  -29.9928  -13.4890   20.4161 N   0  0  0  0  0  0
  -26.2926  -12.9375   20.3227 N   0  0  0  0  0  0
  -25.9286  -11.6521   20.5683 N   0  0  0  0  0  0
  -22.0470  -12.8200   22.0407 N   0  0  0  0  0  0
  -25.4289  -15.1902   20.4159 N   0  0  0  0  0  0
  -31.7977  -14.8116   20.0918 O   0  0  0  0  0  0
  -21.6638   -6.8861   21.4229 O   0  0  0  0  0  0
  -22.3527  -14.5558   20.6758 O   0  0  0  0  0  0
  -24.6313  -31.8570   23.1978 C   0  0  0  0  0  0
  -25.9134  -32.4766   23.8322 C   0  0  1  0  0  0
  -27.2155  -27.2696   20.1148 C   0  0  0  0  0  0
  -25.5929  -33.8562   24.2252 N   0  0  0  0  0  0
  -23.4254  -30.4813   21.5439 C   0  0  2  0  0  0
  -24.8713  -28.9368   20.1077 C   0  0  0  0  0  0
  -22.7505  -29.4606   22.4921 C   0  0  0  0  0  0
  -18.0290  -28.1394   22.8480 C   0  0  0  0  0  0
  -24.1496  -36.7292   23.2629 C   0  0  0  0  0  0
  -25.9708  -30.7769   21.3719 C   0  0  0  0  0  0
  -26.0454  -29.3985   20.7161 C   0  0  0  0  0  0
  -27.2194  -28.5769   20.7124 C   0  0  0  0  0  0
  -26.0172  -26.8883   19.4641 C   0  0  0  0  0  0
  -24.8620  -27.6891   19.4726 C   0  0  0  0  0  0
  -23.6407  -29.8191   20.1593 C   0  0  0  0  0  0
  -25.4117  -36.3069   24.0317 C   0  0  1  0  0  0
  -20.5895  -28.3684   23.1294 C   0  0  2  0  0  0
  -20.6778  -26.9403   22.5417 C   0  0  0  0  0  0
  -19.5753  -26.6392   21.5215 C   0  0  0  0  0  0
  -18.1936  -26.7932   22.1631 C   0  0  0  0  0  0
  -19.1542  -28.8853   23.2885 C   0  0  0  0  0  0
  -18.9460  -30.1461   23.8897 C   0  0  0  0  0  0
  -17.6455  -30.6584   24.0566 C   0  0  0  0  0  0
  -25.9059  -34.9441   23.5086 C   0  0  0  0  0  0
  -16.5348  -29.9082   23.6326 C   0  0  0  0  0  0
  -16.7277  -28.6509   23.0328 C   0  0  0  0  0  0
  -26.4500  -31.6561   25.0686 C   0  0  0  0  0  0
  -25.3715  -31.3707   26.1398 C   0  0  0  0  0  0
  -27.0315  -30.2977   24.6123 C   0  0  0  0  0  0
  -27.6068  -32.4261   25.7474 C   0  0  0  0  0  0
  -27.5579  -37.1802   24.8453 C   0  0  0  0  0  0
  -21.4211  -29.3038   22.3689 N   0  0  0  0  0  0
  -26.4291  -37.3765   23.9400 N   0  0  0  0  0  0
  -24.6955  -31.0553   22.0952 N   0  0  0  0  0  0
  -23.4216  -28.8135   23.3001 O   0  0  0  0  0  0
  -28.2974  -26.3571   20.1862 O   0  0  0  0  0  0
  -26.5635  -34.8912   22.4660 O   0  0  0  0  0  0
  -23.5465  -32.1383   23.7287 O   0  0  0  0  0  0
  -29.6982  -19.6670   18.4924 C   0  0  0  0  0  0
  -29.9539  -18.4509   17.8369 C   0  0  0  0  0  0
  -29.6167  -18.4554   20.5951 C   0  0  0  0  0  0
  -29.5311  -19.7311   19.8912 C   0  0  0  0  0  0
  -30.0573  -17.2318   18.5339 C   0  0  0  0  0  0
  -29.8860  -17.1757   19.9470 C   0  0  0  0  0  0
  -28.9414  -23.7401   20.3907 C   0  0  0  0  0  0
  -28.7940  -22.2655   19.7803 C   0  0  0  0  0  0
  -28.0225  -24.9211   19.8280 C   0  0  0  0  0  0
  -30.2926  -16.0939   17.7672 N   0  0  0  0  0  0
  -29.8453  -15.8519   20.6311 N   0  0  0  0  0  0
  -29.3102  -21.0267   20.5062 N   0  0  0  0  0  0
  -29.7536  -23.9492   21.2982 O   0  0  0  0  0  0
  -31.4726  -12.5249   19.1945 H   0  0  0  0  0  0
  -30.3492  -11.4477   19.9771 H   0  0  0  0  0  0
  -29.7904  -11.6925   17.5372 H   0  0  0  0  0  0
  -29.6532  -13.4218   17.7176 H   0  0  0  0  0  0
  -27.8782  -11.2756   18.9101 H   0  0  0  0  0  0
  -27.3877  -12.5212   17.7923 H   0  0  0  0  0  0
  -27.6427  -14.2447   19.4586 H   0  0  0  0  0  0
  -28.6999  -12.1603   21.4314 H   0  0  0  0  0  0
  -28.4156  -13.8472   21.7872 H   0  0  0  0  0  0
  -25.2730   -9.5732   22.4735 H   0  0  0  0  0  0
  -24.0021   -7.4643   22.7446 H   0  0  0  0  0  0
  -21.0839   -8.8729   19.8918 H   0  0  0  0  0  0
  -22.3651  -10.9652   19.6136 H   0  0  0  0  0  0
  -21.1997   -7.6139   23.9718 H   0  0  0  0  0  0
  -21.1490   -6.0505   25.9079 H   0  0  0  0  0  0
  -22.0599   -2.7603   23.2835 H   0  0  0  0  0  0
  -22.4115  -11.9861   22.4778 H   0  0  0  0  0  0
  -21.1079  -13.1196   22.2584 H   0  0  0  0  0  0
  -24.6691  -15.8515   20.5387 H   0  0  0  0  0  0
  -26.2804  -15.6226   20.0786 H   0  0  0  0  0  0
  -26.7194  -32.5433   23.1063 H   0  0  0  0  0  0
  -25.0025  -33.9689   25.0360 H   0  0  0  0  0  0
  -22.7198  -31.3022   21.4011 H   0  0  0  0  0  0
  -23.3754  -35.9627   23.3273 H   0  0  0  0  0  0
  -24.3601  -36.8935   22.2049 H   0  0  0  0  0  0
  -23.7257  -37.6489   23.6670 H   0  0  0  0  0  0
  -26.0941  -31.5349   20.5967 H   0  0  0  0  0  0
  -26.8563  -30.8391   21.9932 H   0  0  0  0  0  0
  -28.1167  -28.9259   21.2044 H   0  0  0  0  0  0
  -25.9244  -25.9456   18.9472 H   0  0  0  0  0  0
  -23.9635  -27.3329   18.9884 H   0  0  0  0  0  0
  -23.7557  -30.5949   19.4016 H   0  0  0  0  0  0
  -22.7610  -29.2468   19.8617 H   0  0  0  0  0  0
  -25.1301  -36.1910   25.0810 H   0  0  0  0  0  0
  -20.9986  -28.3249   24.1415 H   0  0  0  0  0  0
  -20.5686  -26.2277   23.3607 H   0  0  0  0  0  0
  -21.6648  -26.7437   22.1206 H   0  0  0  0  0  0
  -19.6914  -25.6310   21.1226 H   0  0  0  0  0  0
  -19.6701  -27.3221   20.6759 H   0  0  0  0  0  0
  -17.4204  -26.6670   21.4039 H   0  0  0  0  0  0
  -18.0343  -26.0091   22.9048 H   0  0  0  0  0  0
  -19.7931  -30.7289   24.2263 H   0  0  0  0  0  0
  -17.4999  -31.6261   24.5174 H   0  0  0  0  0  0
  -15.5346  -30.2975   23.7649 H   0  0  0  0  0  0
  -15.8683  -28.0838   22.7013 H   0  0  0  0  0  0
  -24.5907  -30.7046   25.7712 H   0  0  0  0  0  0
  -24.8885  -32.2875   26.4783 H   0  0  0  0  0  0
  -25.8021  -30.8902   27.0188 H   0  0  0  0  0  0
  -26.2871  -29.6746   24.1155 H   0  0  0  0  0  0
  -27.4024  -29.7213   25.4604 H   0  0  0  0  0  0
  -27.8739  -30.4251   23.9320 H   0  0  0  0  0  0
  -27.2712  -33.3587   26.2017 H   0  0  0  0  0  0
  -28.3918  -32.6758   25.0324 H   0  0  0  0  0  0
  -28.0677  -31.8375   26.5415 H   0  0  0  0  0  0
  -28.2572  -38.0118   24.7510 H   0  0  0  0  0  0
  -28.1100  -36.2649   24.6269 H   0  0  0  0  0  0
  -27.2298  -37.1430   25.8854 H   0  0  0  0  0  0
  -20.9378  -29.8768   21.6914 H   0  0  0  0  0  0
  -26.0166  -38.2837   24.1405 H   0  0  0  0  0  0
  -29.6470  -20.5495   17.8746 H   0  0  0  0  0  0
  -30.0658  -18.4708   16.7615 H   0  0  0  0  0  0
  -29.4604  -18.4528   21.6637 H   0  0  0  0  0  0
  -29.2716  -22.3307   18.8051 H   0  0  0  0  0  0
  -27.7328  -22.1100   19.5793 H   0  0  0  0  0  0
  -27.0266  -24.6618   20.1855 H   0  0  0  0  0  0
  -27.9962  -24.8348   18.7421 H   0  0  0  0  0  0
  -30.5633  -16.2494   16.8025 H   0  0  0  0  0  0
  -30.8991  -15.4085   18.2081 H   0  0  0  0  0  0
  -28.9709  -15.6646   21.0971 H   0  0  0  0  0  0
  -29.2358  -21.0625   21.5209 H   0  0  0  0  0  0
  1 25  1  0  0  0
  1 30  2  0  0  0
  1 81  1  0  0  0
  2  3  1  0  0  0
  2 25  1  0  0  0
  2 84  1  0  0  0
  2 85  1  0  0  0
  3  4  1  0  0  0
  3 86  1  0  0  0
  3 87  1  0  0  0
  4  5  1  0  0  0
  4 88  1  0  0  0
  4 89  1  0  0  0
  5  6  1  0  0  0
  5 26  1  0  0  0
  5 90  1  0  0  0
  6 25  1  0  0  0
  6 91  1  0  0  0
  6 92  1  0  0  0
  7  8  2  0  0  0
  7 26  1  0  0  0
  7 29  1  0  0  0
  8  9  1  0  0  0
  8 22  1  0  0  0
  9 10  1  0  0  0
  9 27  2  0  0  0
 10 11  2  0  0  0
 10 15  1  0  0  0
 11 12  1  0  0  0
 11 93  1  0  0  0
 12 13  2  0  0  0
 12 94  1  0  0  0
 13 14  1  0  0  0
 13 31  1  0  0  0
 14 15  2  0  0  0
 14 95  1  0  0  0
 15 96  1  0  0  0
 16 17  2  0  0  0
 16 21  1  0  0  0
 16 31  1  0  0  0
 17 18  1  0  0  0
 17 97  1  0  0  0
 18 19  2  0  0  0
 18 98  1  0  0  0
 19 20  1  0  0  0
 19 24  1  0  0  0
 20 21  2  0  0  0
 20 99  1  0  0  0
 21 23  1  0  0  0
 22 28  1  0  0  0
 22 32  2  0  0  0
 26 27  1  0  0  0
 28100  1  0  0  0
 28101  1  0  0  0
 29102  1  0  0  0
 29103  1  0  0  0
 33 34  1  0  0  0
 33 66  1  0  0  0
 33 70  2  0  0  0
 34 36  1  0  0  0
 34 59  1  0  0  0
 34104  1  0  0  0
 35 44  2  0  0  0
 35 45  1  0  0  0
 35 68  1  0  0  0
 36 56  1  0  0  0
 36105  1  0  0  0
 37 39  1  0  0  0
 37 47  1  0  0  0
 37 66  1  0  0  0
 37106  1  0  0  0
 38 43  2  0  0  0
 38 46  1  0  0  0
 38 47  1  0  0  0
 39 64  1  0  0  0
 39 67  2  0  0  0
 40 52  1  0  0  0
 40 53  2  0  0  0
 40 58  1  0  0  0
 41107  1  0  0  0
 41108  1  0  0  0
 41109  1  0  0  0
 41 48  1  0  0  0
 42 43  1  0  0  0
 42 66  1  0  0  0
 42110  1  0  0  0
 42111  1  0  0  0
 43 44  1  0  0  0
 44112  1  0  0  0
 45 46  2  0  0  0
 45113  1  0  0  0
 46114  1  0  0  0
 47115  1  0  0  0
 47116  1  0  0  0
 48 56  1  0  0  0
 48 65  1  0  0  0
 48117  1  0  0  0
 49 50  1  0  0  0
 49 53  1  0  0  0
 49 64  1  0  0  0
 49118  1  0  0  0
 50 51  1  0  0  0
 50119  1  0  0  0
 50120  1  0  0  0
 51 52  1  0  0  0
 51121  1  0  0  0
 51122  1  0  0  0
 52123  1  0  0  0
 52124  1  0  0  0
 53 54  1  0  0  0
 54 55  2  0  0  0
 54125  1  0  0  0
 55 57  1  0  0  0
 55126  1  0  0  0
 56 69  2  0  0  0
 57 58  2  0  0  0
 57127  1  0  0  0
 58128  1  0  0  0
 59 60  1  0  0  0
 59 61  1  0  0  0
 59 62  1  0  0  0
 60129  1  0  0  0
 60130  1  0  0  0
 60131  1  0  0  0
 61132  1  0  0  0
 61133  1  0  0  0
 61134  1  0  0  0
 62135  1  0  0  0
 62136  1  0  0  0
 62137  1  0  0  0
 63 65  1  0  0  0
 63138  1  0  0  0
 63139  1  0  0  0
 63140  1  0  0  0
 64141  1  0  0  0
 65142  1  0  0  0
 68 79  1  0  0  0
 71 72  2  0  0  0
 71 74  1  0  0  0
 71143  1  0  0  0
 72 75  1  0  0  0
 72144  1  0  0  0
 73 74  2  0  0  0
 73 76  1  0  0  0
 73145  1  0  0  0
 74 82  1  0  0  0
 75 76  2  0  0  0
 75 80  1  0  0  0
 76 81  1  0  0  0
 77 78  1  0  0  0
 77 79  1  0  0  0
 77 83  2  0  0  0
 78 82  1  0  0  0
 78146  1  0  0  0
 78147  1  0  0  0
 79148  1  0  0  0
 79149  1  0  0  0
 80150  1  0  0  0
 80151  1  0  0  0
 81152  1  0  0  0
 82153  1  0  0  0
M  ISO  4   1 100  68 101  79 101  81 100
M  END
> <chiral flag>
0

> <version>
0

> <s_m_source_file>
/data/baiqing/PycharmProjects/Reinvent-master-3.2/result/LINK_invent/BTK/process_docking_weight1_custom_product_contain_oxygen_bond_distance_aromatic_linkinvent_7_9_3/rearranged_h_0155.sdf

> <i_m_source_file_index>
50

> <r_mmod_Potential_Energy-OPLS-2005>
75.8773803710938

> <r_mmod_Stretch_Energy-OPLS-2005>
120.146591186523

> <r_mmod_Bend_Energy-OPLS-2005>
165.210968017578

> <r_mmod_Torsional_Energy-OPLS-2005>
236.199081420898

> <r_mmod_Improper_Torsional_Energy-OPLS-2005>
11.4316492080688

> <r_mmod_Van_der_Waal_Energy-OPLS-2005>
152.876327514648

> <r_mmod_Electrostatic_Energy-OPLS-2005>
-437.691162109375

> <r_mmod_Solvation_Energy-OPLS-2005>
-252.426391601562

> <b_mmod_Minimization_Converged-OPLS-2005>
0

> <r_mmod_RMS_Derivative-OPLS-2005>
2.13174986839294

$$$$
50
                    3D
 Structure written by MMmdl.
155163  0  0  1  0            999 V2000
  -30.6551  -14.4744   20.5052 C   0  0  0  0  0  0
  -30.4182  -12.2848   19.4240 C   0  0  0  0  0  0
  -29.4949  -12.4973   18.2016 C   0  0  0  0  0  0
  -28.0092  -12.3630   18.6002 C   0  0  0  0  0  0
  -27.6544  -13.1867   19.8655 C   0  0  2  0  0  0
  -28.6951  -12.9548   20.9878 C   0  0  0  0  0  0
  -25.2558  -13.8081   20.5593 C   0  0  0  0  0  0
  -24.1784  -13.0404   20.9117 C   0  0  0  0  0  0
  -24.6341  -11.6878   20.8687 C   0  0  0  0  0  0
  -23.9022  -10.4278   21.0399 C   0  0  0  0  0  0
  -24.3615   -9.4226   21.9185 C   0  0  0  0  0  0
  -23.6314   -8.2245   22.0761 C   0  0  0  0  0  0
  -22.4295   -8.0282   21.3556 C   0  0  0  0  0  0
  -21.9893   -9.0238   20.4661 C   0  0  0  0  0  0
  -22.7197  -10.2116   20.3050 C   0  0  0  0  0  0
  -21.6867   -6.0757   22.5301 C   0  0  0  0  0  0
  -21.3994   -6.5661   23.8221 C   0  0  0  0  0  0
  -21.3660   -5.6808   24.9183 C   0  0  0  0  0  0
  -21.6036   -4.3073   24.7236 C   0  0  0  0  0  0
  -21.8829   -3.8164   23.4358 C   0  0  0  0  0  0
  -21.9187   -4.6976   22.3420 C   0  0  0  0  0  0
  -22.7842  -13.5260   21.1795 C   0  0  0  0  0  0
  -22.1681   -4.2170   21.0995 F   0  0  0  0  0  0
  -21.5630   -3.4555   25.7745 F   0  0  0  0  0  0
  -30.0266  -13.2668   20.4460 N   0  0  0  0  0  0
  -26.2974  -12.9197   20.3284 N   0  0  0  0  0  0
  -25.9270  -11.6373   20.5696 N   0  0  0  0  0  0
  -22.0535  -12.8250   22.0380 N   0  0  0  0  0  0
  -25.4235  -15.1751   20.4023 N   0  0  0  0  0  0
  -31.8360  -14.6182   20.1726 O   0  0  0  0  0  0
  -21.6665   -6.8885   21.4254 O   0  0  0  0  0  0
  -22.3567  -14.5592   20.6671 O   0  0  0  0  0  0
  -24.6159  -31.8685   23.2093 C   0  0  0  0  0  0
  -25.9059  -32.4829   23.8384 C   0  0  1  0  0  0
  -27.2246  -27.4307   20.0968 C   0  0  0  0  0  0
  -25.5907  -33.8636   24.2316 N   0  0  0  0  0  0
  -23.4013  -30.4895   21.5552 C   0  0  2  0  0  0
  -24.8462  -28.9542   20.1185 C   0  0  0  0  0  0
  -22.7409  -29.4645   22.5043 C   0  0  0  0  0  0
  -18.0271  -28.1375   22.8517 C   0  0  0  0  0  0
  -24.1499  -36.7309   23.2630 C   0  0  0  0  0  0
  -25.9320  -30.8276   21.3642 C   0  0  0  0  0  0
  -26.0107  -29.4639   20.7110 C   0  0  0  0  0  0
  -27.2069  -28.7110   20.6945 C   0  0  0  0  0  0
  -26.0511  -26.9343   19.4929 C   0  0  0  0  0  0
  -24.8627  -27.6888   19.5039 C   0  0  0  0  0  0
  -23.6075  -29.8209   20.1691 C   0  0  0  0  0  0
  -25.4118  -36.3124   24.0338 C   0  0  1  0  0  0
  -20.5871  -28.3649   23.1362 C   0  0  2  0  0  0
  -20.6778  -26.9389   22.5470 C   0  0  0  0  0  0
  -19.5760  -26.6383   21.5257 C   0  0  0  0  0  0
  -18.1914  -26.7938   22.1620 C   0  0  0  0  0  0
  -19.1526  -28.8829   23.2936 C   0  0  0  0  0  0
  -18.9433  -30.1441   23.8941 C   0  0  0  0  0  0
  -17.6428  -30.6583   24.0576 C   0  0  0  0  0  0
  -25.9049  -34.9493   23.5131 C   0  0  0  0  0  0
  -16.5332  -29.9085   23.6338 C   0  0  0  0  0  0
  -16.7249  -28.6509   23.0355 C   0  0  0  0  0  0
  -26.4482  -31.6621   25.0717 C   0  0  0  0  0  0
  -25.3740  -31.3793   26.1467 C   0  0  0  0  0  0
  -27.0200  -30.3009   24.6120 C   0  0  0  0  0  0
  -27.6105  -32.4293   25.7419 C   0  0  0  0  0  0
  -27.5619  -37.1758   24.8436 C   0  0  0  0  0  0
  -21.4138  -29.3013   22.3764 N   0  0  0  0  0  0
  -26.4289  -37.3806   23.9437 N   0  0  0  0  0  0
  -24.6689  -31.0746   22.1014 N   0  0  0  0  0  0
  -23.4181  -28.8225   23.3119 O   0  0  0  0  0  0
  -28.3614  -26.6579   20.1032 O   0  0  0  0  0  0
  -26.5610  -34.8941   22.4695 O   0  0  0  0  0  0
  -23.5348  -32.1464   23.7475 O   0  0  0  0  0  0
  -27.8211  -17.7917   19.8312 C   0  0  0  0  0  0
  -29.6361  -19.3242   20.3655 C   0  0  0  0  0  0
  -27.4059  -20.1898   19.8724 C   0  0  0  0  0  0
  -29.1773  -18.0014   20.1610 C   0  0  0  0  0  0
  -26.9327  -18.8736   19.6791 C   0  0  0  0  0  0
  -28.7595  -20.4284   20.2333 C   0  0  0  0  0  0
  -30.0990  -16.8514   20.2501 C   0  0  0  0  0  0
  -29.7489  -15.6168   20.6727 C   0  0  0  0  0  0
  -28.8072  -24.2140   20.2256 C   0  0  0  0  0  0
  -28.4152  -22.8511   20.8357 C   0  0  0  0  0  0
  -28.2293  -25.4684   20.9074 C   0  0  0  0  0  0
  -25.6041  -18.6240   19.3193 N   0  0  0  0  0  0
  -29.2757  -21.7232   20.4433 N   0  0  0  0  0  0
  -29.5599  -24.2906   19.2473 O   0  0  0  0  0  0
  -31.4644  -12.3843   19.1327 H   0  0  0  0  0  0
  -30.3066  -11.2677   19.8049 H   0  0  0  0  0  0
  -29.7381  -11.7771   17.4198 H   0  0  0  0  0  0
  -29.6687  -13.4821   17.7652 H   0  0  0  0  0  0
  -27.7934  -11.3057   18.7619 H   0  0  0  0  0  0
  -27.3770  -12.6755   17.7674 H   0  0  0  0  0  0
  -27.6894  -14.2300   19.5610 H   0  0  0  0  0  0
  -28.6705  -11.9158   21.3175 H   0  0  0  0  0  0
  -28.4648  -13.5343   21.8822 H   0  0  0  0  0  0
  -25.2794   -9.5724   22.4714 H   0  0  0  0  0  0
  -24.0061   -7.4653   22.7475 H   0  0  0  0  0  0
  -21.0824   -8.8742   19.9002 H   0  0  0  0  0  0
  -22.3688  -10.9635   19.6131 H   0  0  0  0  0  0
  -21.1992   -7.6177   23.9718 H   0  0  0  0  0  0
  -21.1470   -6.0556   25.9073 H   0  0  0  0  0  0
  -22.0606   -2.7624   23.2853 H   0  0  0  0  0  0
  -22.4240  -11.9972   22.4750 H   0  0  0  0  0  0
  -21.1165  -13.1221   22.2641 H   0  0  0  0  0  0
  -24.6534  -15.8275   20.5154 H   0  0  0  0  0  0
  -26.2805  -15.6170   20.1082 H   0  0  0  0  0  0
  -26.7130  -32.5511   23.1132 H   0  0  0  0  0  0
  -25.0027  -33.9815   25.0441 H   0  0  0  0  0  0
  -22.6921  -31.3061   21.4184 H   0  0  0  0  0  0
  -23.3797  -35.9594   23.3230 H   0  0  0  0  0  0
  -24.3615  -36.8993   22.2056 H   0  0  0  0  0  0
  -23.7175  -37.6463   23.6684 H   0  0  0  0  0  0
  -26.0498  -31.5907   20.5978 H   0  0  0  0  0  0
  -26.8194  -30.8763   21.9862 H   0  0  0  0  0  0
  -28.1031  -29.0977   21.1621 H   0  0  0  0  0  0
  -26.0501  -25.9577   19.0257 H   0  0  0  0  0  0
  -23.9686  -27.2892   19.0430 H   0  0  0  0  0  0
  -23.7091  -30.5962   19.4084 H   0  0  0  0  0  0
  -22.7323  -29.2366   19.8746 H   0  0  0  0  0  0
  -25.1283  -36.1987   25.0819 H   0  0  0  0  0  0
  -20.9946  -28.3220   24.1484 H   0  0  0  0  0  0
  -20.5714  -26.2243   23.3644 H   0  0  0  0  0  0
  -21.6636  -26.7461   22.1221 H   0  0  0  0  0  0
  -19.6918  -25.6304   21.1245 H   0  0  0  0  0  0
  -19.6730  -27.3243   20.6834 H   0  0  0  0  0  0
  -17.4218  -26.6753   21.3977 H   0  0  0  0  0  0
  -18.0258  -26.0054   22.8972 H   0  0  0  0  0  0
  -19.7910  -30.7267   24.2314 H   0  0  0  0  0  0
  -17.4977  -31.6269   24.5161 H   0  0  0  0  0  0
  -15.5330  -30.2987   23.7648 H   0  0  0  0  0  0
  -15.8649  -28.0832   22.7038 H   0  0  0  0  0  0
  -24.5917  -30.7127   25.7810 H   0  0  0  0  0  0
  -24.8911  -32.2971   26.4841 H   0  0  0  0  0  0
  -25.8060  -30.9003   27.0261 H   0  0  0  0  0  0
  -26.2666  -29.6835   24.1196 H   0  0  0  0  0  0
  -27.3915  -29.7224   25.4591 H   0  0  0  0  0  0
  -27.8584  -30.4236   23.9251 H   0  0  0  0  0  0
  -27.2815  -33.3653   26.1947 H   0  0  0  0  0  0
  -28.3917  -32.6747   25.0207 H   0  0  0  0  0  0
  -28.0769  -31.8422   26.5349 H   0  0  0  0  0  0
  -28.2573  -38.0125   24.7593 H   0  0  0  0  0  0
  -28.1185  -36.2660   24.6102 H   0  0  0  0  0  0
  -27.2368  -37.1217   25.8842 H   0  0  0  0  0  0
  -20.9308  -29.8662   21.6918 H   0  0  0  0  0  0
  -26.0208  -38.2874   24.1515 H   0  0  0  0  0  0
  -27.4688  -16.7895   19.6457 H   0  0  0  0  0  0
  -30.6803  -19.4762   20.6144 H   0  0  0  0  0  0
  -26.7170  -21.0034   19.7238 H   0  0  0  0  0  0
  -31.0991  -17.0187   19.8686 H   0  0  0  0  0  0
  -28.7630  -15.4954   21.0926 H   0  0  0  0  0  0
  -27.3717  -22.6762   20.5884 H   0  0  0  0  0  0
  -28.4466  -22.9508   21.9210 H   0  0  0  0  0  0
  -28.7618  -25.6200   21.8458 H   0  0  0  0  0  0
  -27.1922  -25.2681   21.1766 H   0  0  0  0  0  0
  -25.3630  -17.7083   18.9509 H   0  0  0  0  0  0
  -25.0379  -19.3663   18.9192 H   0  0  0  0  0  0
  -30.2347  -21.7708   20.7809 H   0  0  0  0  0  0
  1 25  1  0  0  0
  1 30  2  0  0  0
  1 78  1  0  0  0
  2  3  1  0  0  0
  2 25  1  0  0  0
  2 85  1  0  0  0
  2 86  1  0  0  0
  3  4  1  0  0  0
  3 87  1  0  0  0
  3 88  1  0  0  0
  4  5  1  0  0  0
  4 89  1  0  0  0
  4 90  1  0  0  0
  5  6  1  0  0  0
  5 26  1  0  0  0
  5 91  1  0  0  0
  6 25  1  0  0  0
  6 92  1  0  0  0
  6 93  1  0  0  0
  7  8  2  0  0  0
  7 26  1  0  0  0
  7 29  1  0  0  0
  8  9  1  0  0  0
  8 22  1  0  0  0
  9 10  1  0  0  0
  9 27  2  0  0  0
 10 11  2  0  0  0
 10 15  1  0  0  0
 11 12  1  0  0  0
 11 94  1  0  0  0
 12 13  2  0  0  0
 12 95  1  0  0  0
 13 14  1  0  0  0
 13 31  1  0  0  0
 14 15  2  0  0  0
 14 96  1  0  0  0
 15 97  1  0  0  0
 16 17  2  0  0  0
 16 21  1  0  0  0
 16 31  1  0  0  0
 17 18  1  0  0  0
 17 98  1  0  0  0
 18 19  2  0  0  0
 18 99  1  0  0  0
 19 20  1  0  0  0
 19 24  1  0  0  0
 20 21  2  0  0  0
 20100  1  0  0  0
 21 23  1  0  0  0
 22 28  1  0  0  0
 22 32  2  0  0  0
 26 27  1  0  0  0
 28101  1  0  0  0
 28102  1  0  0  0
 29103  1  0  0  0
 29104  1  0  0  0
 33 34  1  0  0  0
 33 66  1  0  0  0
 33 70  2  0  0  0
 34 36  1  0  0  0
 34 59  1  0  0  0
 34105  1  0  0  0
 35 44  2  0  0  0
 35 45  1  0  0  0
 35 68  1  0  0  0
 36 56  1  0  0  0
 36106  1  0  0  0
 37 39  1  0  0  0
 37 47  1  0  0  0
 37 66  1  0  0  0
 37107  1  0  0  0
 38 43  2  0  0  0
 38 46  1  0  0  0
 38 47  1  0  0  0
 39 64  1  0  0  0
 39 67  2  0  0  0
 40 52  1  0  0  0
 40 53  2  0  0  0
 40 58  1  0  0  0
 41108  1  0  0  0
 41109  1  0  0  0
 41110  1  0  0  0
 41 48  1  0  0  0
 42 43  1  0  0  0
 42 66  1  0  0  0
 42111  1  0  0  0
 42112  1  0  0  0
 43 44  1  0  0  0
 44113  1  0  0  0
 45 46  2  0  0  0
 45114  1  0  0  0
 46115  1  0  0  0
 47116  1  0  0  0
 47117  1  0  0  0
 48 56  1  0  0  0
 48 65  1  0  0  0
 48118  1  0  0  0
 49 50  1  0  0  0
 49 53  1  0  0  0
 49 64  1  0  0  0
 49119  1  0  0  0
 50 51  1  0  0  0
 50120  1  0  0  0
 50121  1  0  0  0
 51 52  1  0  0  0
 51122  1  0  0  0
 51123  1  0  0  0
 52124  1  0  0  0
 52125  1  0  0  0
 53 54  1  0  0  0
 54 55  2  0  0  0
 54126  1  0  0  0
 55 57  1  0  0  0
 55127  1  0  0  0
 56 69  2  0  0  0
 57 58  2  0  0  0
 57128  1  0  0  0
 58129  1  0  0  0
 59 60  1  0  0  0
 59 61  1  0  0  0
 59 62  1  0  0  0
 60130  1  0  0  0
 60131  1  0  0  0
 60132  1  0  0  0
 61133  1  0  0  0
 61134  1  0  0  0
 61135  1  0  0  0
 62136  1  0  0  0
 62137  1  0  0  0
 62138  1  0  0  0
 63 65  1  0  0  0
 63139  1  0  0  0
 63140  1  0  0  0
 63141  1  0  0  0
 64142  1  0  0  0
 65143  1  0  0  0
 68 81  1  0  0  0
 71 74  2  0  0  0
 71 75  1  0  0  0
 71144  1  0  0  0
 72 74  1  0  0  0
 72 76  2  0  0  0
 72145  1  0  0  0
 73 75  2  0  0  0
 73 76  1  0  0  0
 73146  1  0  0  0
 74 77  1  0  0  0
 75 82  1  0  0  0
 76 83  1  0  0  0
 77 78  2  0  0  0
 77147  1  0  0  0
 78148  1  0  0  0
 79 80  1  0  0  0
 79 81  1  0  0  0
 79 84  2  0  0  0
 80 83  1  0  0  0
 80149  1  0  0  0
 80150  1  0  0  0
 81151  1  0  0  0
 81152  1  0  0  0
 82153  1  0  0  0
 82154  1  0  0  0
 83155  1  0  0  0
M  ISO  4   1 100  68 101  78 100  81 101
M  END
> <chiral flag>
0

> <version>
0

> <s_m_source_file>
/data/baiqing/PycharmProjects/Reinvent-master-3.2/result/LINK_invent/BTK/process_docking_weight1_custom_product_contain_oxygen_bond_distance_aromatic_linkinvent_7_9_3/rearranged_h_0155.sdf

> <i_m_source_file_index>
51

> <r_mmod_Potential_Energy-OPLS-2005>
68.5191116333008

> <r_mmod_Stretch_Energy-OPLS-2005>
37.8536186218262

> <r_mmod_Bend_Energy-OPLS-2005>
98.6585845947266

> <r_mmod_Torsional_Energy-OPLS-2005>
218.642578125

> <r_mmod_Improper_Torsional_Energy-OPLS-2005>
13.7239484786987

> <r_mmod_Van_der_Waal_Energy-OPLS-2005>
155.439392089844

> <r_mmod_Electrostatic_Energy-OPLS-2005>
-230.609893798828

> <r_mmod_Solvation_Energy-OPLS-2005>
-242.595779418945

> <b_mmod_Minimization_Converged-OPLS-2005>
0

> <r_mmod_RMS_Derivative-OPLS-2005>
5.30447149276733

$$$$
51
                    3D
 Structure written by MMmdl.
172181  0  0  1  0            999 V2000
  -30.6459  -14.5889   20.5828 C   0  0  0  0  0  0
  -30.4449  -12.3932   19.4271 C   0  0  0  0  0  0
  -29.4978  -12.5332   18.2138 C   0  0  0  0  0  0
  -28.0228  -12.3730   18.6345 C   0  0  0  0  0  0
  -27.6650  -13.2167   19.8865 C   0  0  2  0  0  0
  -28.7139  -13.0019   21.0028 C   0  0  0  0  0  0
  -25.2526  -13.8076   20.5504 C   0  0  0  0  0  0
  -24.1840  -13.0380   20.9195 C   0  0  0  0  0  0
  -24.6436  -11.6875   20.8831 C   0  0  0  0  0  0
  -23.9062  -10.4282   21.0474 C   0  0  0  0  0  0
  -24.3618   -9.4189   21.9227 C   0  0  0  0  0  0
  -23.6294   -8.2230   22.0744 C   0  0  0  0  0  0
  -22.4271   -8.0280   21.3548 C   0  0  0  0  0  0
  -21.9917   -9.0256   20.4654 C   0  0  0  0  0  0
  -22.7237  -10.2131   20.3112 C   0  0  0  0  0  0
  -21.6858   -6.0717   22.5276 C   0  0  0  0  0  0
  -21.3983   -6.5625   23.8214 C   0  0  0  0  0  0
  -21.3671   -5.6784   24.9189 C   0  0  0  0  0  0
  -21.6080   -4.3054   24.7217 C   0  0  0  0  0  0
  -21.8822   -3.8127   23.4342 C   0  0  0  0  0  0
  -21.9199   -4.6942   22.3394 C   0  0  0  0  0  0
  -22.7877  -13.5203   21.1795 C   0  0  0  0  0  0
  -22.1669   -4.2152   21.0961 F   0  0  0  0  0  0
  -21.5660   -3.4524   25.7713 F   0  0  0  0  0  0
  -30.0371  -13.3655   20.4581 N   0  0  0  0  0  0
  -26.3064  -12.9326   20.3459 N   0  0  0  0  0  0
  -25.9389  -11.6488   20.5899 N   0  0  0  0  0  0
  -22.0530  -12.8233   22.0398 N   0  0  0  0  0  0
  -25.4011  -15.1710   20.3346 N   0  0  0  0  0  0
  -31.7107  -14.8551   20.0176 O   0  0  0  0  0  0
  -21.6659   -6.8855   21.4239 O   0  0  0  0  0  0
  -22.3609  -14.5491   20.6577 O   0  0  0  0  0  0
  -24.6237  -31.8588   23.2031 C   0  0  0  0  0  0
  -25.9082  -32.4776   23.8364 C   0  0  1  0  0  0
  -27.2545  -27.3562   20.0882 C   0  0  0  0  0  0
  -25.5902  -33.8583   24.2294 N   0  0  0  0  0  0
  -23.4193  -30.4772   21.5450 C   0  0  2  0  0  0
  -24.8715  -28.9335   20.1079 C   0  0  0  0  0  0
  -22.7470  -29.4605   22.4969 C   0  0  0  0  0  0
  -18.0282  -28.1388   22.8494 C   0  0  0  0  0  0
  -24.1483  -36.7292   23.2644 C   0  0  0  0  0  0
  -25.9560  -30.7943   21.3726 C   0  0  0  0  0  0
  -26.0338  -29.4237   20.7151 C   0  0  0  0  0  0
  -27.2204  -28.6374   20.7111 C   0  0  0  0  0  0
  -26.0664  -26.8986   19.4796 C   0  0  0  0  0  0
  -24.8855  -27.6722   19.4888 C   0  0  0  0  0  0
  -23.6338  -29.8052   20.1618 C   0  0  0  0  0  0
  -25.4106  -36.3089   24.0338 C   0  0  1  0  0  0
  -20.5881  -28.3683   23.1303 C   0  0  2  0  0  0
  -20.6772  -26.9411   22.5415 C   0  0  0  0  0  0
  -19.5759  -26.6385   21.5214 C   0  0  0  0  0  0
  -18.1931  -26.7934   22.1622 C   0  0  0  0  0  0
  -19.1531  -28.8853   23.2893 C   0  0  0  0  0  0
  -18.9460  -30.1454   23.8909 C   0  0  0  0  0  0
  -17.6458  -30.6593   24.0562 C   0  0  0  0  0  0
  -25.9035  -34.9454   23.5119 C   0  0  0  0  0  0
  -16.5351  -29.9086   23.6333 C   0  0  0  0  0  0
  -16.7262  -28.6501   23.0358 C   0  0  0  0  0  0
  -26.4478  -31.6596   25.0730 C   0  0  0  0  0  0
  -25.3713  -31.3713   26.1460 C   0  0  0  0  0  0
  -27.0325  -30.3036   24.6156 C   0  0  0  0  0  0
  -27.6053  -32.4327   25.7477 C   0  0  0  0  0  0
  -27.5579  -37.1802   24.8472 C   0  0  0  0  0  0
  -21.4182  -29.3029   22.3690 N   0  0  0  0  0  0
  -26.4288  -37.3779   23.9414 N   0  0  0  0  0  0
  -24.6847  -31.0607   22.0979 N   0  0  0  0  0  0
  -23.4192  -28.8152   23.3061 O   0  0  0  0  0  0
  -28.3867  -26.5431   20.1906 O   0  0  0  0  0  0
  -26.5616  -34.8917   22.4688 O   0  0  0  0  0  0
  -23.5400  -32.1395   23.7353 O   0  0  0  0  0  0
  -27.9842  -19.2360   21.0002 C   0  0  0  0  0  0
  -28.0687  -16.8460   21.4869 C   0  0  0  0  0  0
  -30.0797  -17.9909   20.7178 C   0  0  0  0  0  0
  -27.3462  -18.0494   21.4052 C   0  0  0  0  0  0
  -29.3594  -19.2452   20.6617 C   0  0  0  0  0  0
  -29.4322  -16.7735   21.1370 C   0  0  0  0  0  0
  -27.5483  -23.9224   18.1079 C   0  0  0  0  0  0
  -28.5498  -24.1838   18.9911 C   0  0  0  0  0  0
  -26.9739  -22.6786   17.5484 C   0  0  0  0  0  0
  -25.9294  -18.0569   21.7585 C   0  0  0  0  0  0
  -27.4594  -21.2819   17.9077 C   0  0  0  0  0  0
  -28.9503  -21.2206   18.1911 C   0  0  0  0  0  0
  -29.5128  -23.1333   19.7067 C   0  0  2  0  0  0
  -30.9972  -23.3787   19.3211 C   0  0  0  0  0  0
  -30.0215  -20.6332   20.3515 C   0  0  0  0  0  0
  -28.8871  -25.7235   19.0902 C   0  0  0  0  0  0
  -25.0376  -18.6126   20.9410 N   0  0  0  0  0  0
  -30.0178  -15.4704   21.3986 N   0  0  0  0  0  0
  -25.5122  -17.4835   22.8843 N   0  3  0  0  0  0
  -29.1774  -21.6473   19.5878 N   0  3  2  0  0  0
  -26.0400  -22.7471   16.7469 O   0  0  0  0  0  0
  -31.4819  -12.5411   19.1163 H   0  0  0  0  0  0
  -30.3945  -11.3800   19.8306 H   0  0  0  0  0  0
  -29.7453  -11.7903   17.4559 H   0  0  0  0  0  0
  -29.6425  -13.5060   17.7432 H   0  0  0  0  0  0
  -27.8603  -11.3156   18.8463 H   0  0  0  0  0  0
  -27.3597  -12.6257   17.8028 H   0  0  0  0  0  0
  -27.6992  -14.2669   19.5939 H   0  0  0  0  0  0
  -28.7216  -11.9553   21.3112 H   0  0  0  0  0  0
  -28.4486  -13.5576   21.9034 H   0  0  0  0  0  0
  -25.2767   -9.5670   22.4796 H   0  0  0  0  0  0
  -24.0043   -7.4594   22.7397 H   0  0  0  0  0  0
  -21.0890   -8.8770   19.8896 H   0  0  0  0  0  0
  -22.3737  -10.9689   19.6227 H   0  0  0  0  0  0
  -21.1924   -7.6125   23.9704 H   0  0  0  0  0  0
  -21.1524   -6.0507   25.9097 H   0  0  0  0  0  0
  -22.0587   -2.7580   23.2834 H   0  0  0  0  0  0
  -22.4164  -11.9911   22.4799 H   0  0  0  0  0  0
  -21.1129  -13.1252   22.2542 H   0  0  0  0  0  0
  -24.5393  -15.6889   20.2055 H   0  0  0  0  0  0
  -26.1390  -15.5002   19.7259 H   0  0  0  0  0  0
  -26.7143  -32.5466   23.1115 H   0  0  0  0  0  0
  -25.0046  -33.9732   25.0436 H   0  0  0  0  0  0
  -22.7145  -31.2972   21.3967 H   0  0  0  0  0  0
  -23.3751  -35.9619   23.3306 H   0  0  0  0  0  0
  -24.3580  -36.8910   22.2060 H   0  0  0  0  0  0
  -23.7229  -37.6491   23.6660 H   0  0  0  0  0  0
  -26.0817  -31.5549   20.6012 H   0  0  0  0  0  0
  -26.8387  -30.8496   21.9982 H   0  0  0  0  0  0
  -28.1089  -29.0005   21.2079 H   0  0  0  0  0  0
  -26.0144  -25.9154   19.0459 H   0  0  0  0  0  0
  -23.9889  -27.2793   19.0304 H   0  0  0  0  0  0
  -23.7454  -30.5772   19.4005 H   0  0  0  0  0  0
  -22.7587  -29.2236   19.8671 H   0  0  0  0  0  0
  -25.1287  -36.1945   25.0830 H   0  0  0  0  0  0
  -20.9967  -28.3237   24.1433 H   0  0  0  0  0  0
  -20.5681  -26.2289   23.3608 H   0  0  0  0  0  0
  -21.6638  -26.7446   22.1209 H   0  0  0  0  0  0
  -19.6916  -25.6290   21.1257 H   0  0  0  0  0  0
  -19.6705  -27.3188   20.6740 H   0  0  0  0  0  0
  -17.4204  -26.6693   21.4013 H   0  0  0  0  0  0
  -18.0325  -26.0064   22.9011 H   0  0  0  0  0  0
  -19.7921  -30.7262   24.2304 H   0  0  0  0  0  0
  -17.5001  -31.6281   24.5142 H   0  0  0  0  0  0
  -15.5348  -30.2994   23.7635 H   0  0  0  0  0  0
  -15.8666  -28.0805   22.7102 H   0  0  0  0  0  0
  -24.5893  -30.7057   25.7784 H   0  0  0  0  0  0
  -24.8885  -32.2864   26.4903 H   0  0  0  0  0  0
  -25.8037  -30.8881   27.0234 H   0  0  0  0  0  0
  -26.2894  -29.6783   24.1193 H   0  0  0  0  0  0
  -27.4072  -29.7292   25.4640 H   0  0  0  0  0  0
  -27.8739  -30.4363   23.9349 H   0  0  0  0  0  0
  -27.2692  -33.3639   26.2056 H   0  0  0  0  0  0
  -28.3846  -32.6875   25.0277 H   0  0  0  0  0  0
  -28.0743  -31.8451   26.5384 H   0  0  0  0  0  0
  -28.2601  -38.0094   24.7512 H   0  0  0  0  0  0
  -28.1067  -36.2631   24.6302 H   0  0  0  0  0  0
  -27.2304  -37.1456   25.8877 H   0  0  0  0  0  0
  -20.9374  -29.8722   21.6870 H   0  0  0  0  0  0
  -26.0176  -38.2852   24.1419 H   0  0  0  0  0  0
  -27.4037  -20.1481   20.9996 H   0  0  0  0  0  0
  -27.5511  -15.9626   21.8377 H   0  0  0  0  0  0
  -31.1402  -17.9775   20.5049 H   0  0  0  0  0  0
  -27.0852  -24.7837   17.6520 H   0  0  0  0  0  0
  -27.2349  -20.6269   17.0641 H   0  0  0  0  0  0
  -26.8801  -20.9033   18.7475 H   0  0  0  0  0  0
  -29.5173  -21.8313   17.4874 H   0  0  0  0  0  0
  -29.3014  -20.2020   18.0191 H   0  0  0  0  0  0
  -29.4277  -23.3634   20.7700 H   0  0  0  0  0  0
  -31.1552  -23.3391   18.2430 H   0  0  0  0  0  0
  -31.6691  -22.6479   19.7669 H   0  0  0  0  0  0
  -31.3609  -24.3423   19.6732 H   0  0  0  0  0  0
  -30.9514  -20.4558   19.8096 H   0  0  0  0  0  0
  -30.2987  -21.0684   21.3135 H   0  0  0  0  0  0
  -28.6018  -26.2193   18.1601 H   0  0  0  0  0  0
  -29.9675  -25.8496   19.0960 H   0  0  0  0  0  0
  -25.3427  -18.9674   20.0501 H   0  0  0  0  0  0
  -24.0457  -18.5377   21.0941 H   0  0  0  0  0  0
  -29.4278  -14.9284   22.0094 H   0  0  0  0  0  0
  -26.1932  -17.1315   23.5394 H   0  0  0  0  0  0
  -24.5363  -17.3415   23.0843 H   0  0  0  0  0  0
  -28.2832  -21.5694   20.0458 H   0  0  0  0  0  0
  1 25  1  0  0  0
  1 30  2  0  0  0
  1 88  1  0  0  0
  2  3  1  0  0  0
  2 25  1  0  0  0
  2 92  1  0  0  0
  2 93  1  0  0  0
  3  4  1  0  0  0
  3 94  1  0  0  0
  3 95  1  0  0  0
  4  5  1  0  0  0
  4 96  1  0  0  0
  4 97  1  0  0  0
  5  6  1  0  0  0
  5 26  1  0  0  0
  5 98  1  0  0  0
  6 25  1  0  0  0
  6 99  1  0  0  0
  6100  1  0  0  0
  7  8  2  0  0  0
  7 26  1  0  0  0
  7 29  1  0  0  0
  8  9  1  0  0  0
  8 22  1  0  0  0
  9 10  1  0  0  0
  9 27  2  0  0  0
 10 11  2  0  0  0
 10 15  1  0  0  0
 11 12  1  0  0  0
 11101  1  0  0  0
 12 13  2  0  0  0
 12102  1  0  0  0
 13 14  1  0  0  0
 13 31  1  0  0  0
 14 15  2  0  0  0
 14103  1  0  0  0
 15104  1  0  0  0
 16 17  2  0  0  0
 16 21  1  0  0  0
 16 31  1  0  0  0
 17 18  1  0  0  0
 17105  1  0  0  0
 18 19  2  0  0  0
 18106  1  0  0  0
 19 20  1  0  0  0
 19 24  1  0  0  0
 20 21  2  0  0  0
 20107  1  0  0  0
 21 23  1  0  0  0
 22 28  1  0  0  0
 22 32  2  0  0  0
 26 27  1  0  0  0
 28108  1  0  0  0
 28109  1  0  0  0
 29110  1  0  0  0
 29111  1  0  0  0
 33 34  1  0  0  0
 33 66  1  0  0  0
 33 70  2  0  0  0
 34 36  1  0  0  0
 34 59  1  0  0  0
 34112  1  0  0  0
 35 44  2  0  0  0
 35 45  1  0  0  0
 35 68  1  0  0  0
 36 56  1  0  0  0
 36113  1  0  0  0
 37 39  1  0  0  0
 37 47  1  0  0  0
 37 66  1  0  0  0
 37114  1  0  0  0
 38 43  2  0  0  0
 38 46  1  0  0  0
 38 47  1  0  0  0
 39 64  1  0  0  0
 39 67  2  0  0  0
 40 52  1  0  0  0
 40 53  2  0  0  0
 40 58  1  0  0  0
 41115  1  0  0  0
 41116  1  0  0  0
 41117  1  0  0  0
 41 48  1  0  0  0
 42 43  1  0  0  0
 42 66  1  0  0  0
 42118  1  0  0  0
 42119  1  0  0  0
 43 44  1  0  0  0
 44120  1  0  0  0
 45 46  2  0  0  0
 45121  1  0  0  0
 46122  1  0  0  0
 47123  1  0  0  0
 47124  1  0  0  0
 48 56  1  0  0  0
 48 65  1  0  0  0
 48125  1  0  0  0
 49 50  1  0  0  0
 49 53  1  0  0  0
 49 64  1  0  0  0
 49126  1  0  0  0
 50 51  1  0  0  0
 50127  1  0  0  0
 50128  1  0  0  0
 51 52  1  0  0  0
 51129  1  0  0  0
 51130  1  0  0  0
 52131  1  0  0  0
 52132  1  0  0  0
 53 54  1  0  0  0
 54 55  2  0  0  0
 54133  1  0  0  0
 55 57  1  0  0  0
 55134  1  0  0  0
 56 69  2  0  0  0
 57 58  2  0  0  0
 57135  1  0  0  0
 58136  1  0  0  0
 59 60  1  0  0  0
 59 61  1  0  0  0
 59 62  1  0  0  0
 60137  1  0  0  0
 60138  1  0  0  0
 60139  1  0  0  0
 61140  1  0  0  0
 61141  1  0  0  0
 61142  1  0  0  0
 62143  1  0  0  0
 62144  1  0  0  0
 62145  1  0  0  0
 63 65  1  0  0  0
 63146  1  0  0  0
 63147  1  0  0  0
 63148  1  0  0  0
 64149  1  0  0  0
 65150  1  0  0  0
 68 86  1  0  0  0
 71 74  2  0  0  0
 71 75  1  0  0  0
 71151  1  0  0  0
 72 74  1  0  0  0
 72 76  2  0  0  0
 72152  1  0  0  0
 73 75  2  0  0  0
 73 76  1  0  0  0
 73153  1  0  0  0
 74 80  1  0  0  0
 75 85  1  0  0  0
 76 88  1  0  0  0
 77 78  2  0  0  0
 77 79  1  0  0  0
 77154  1  0  0  0
 78 83  1  0  0  0
 78 86  1  0  0  0
 79 81  1  0  0  0
 79 91  2  0  0  0
 80 87  1  0  0  0
 80 89  2  0  0  0
 81 82  1  0  0  0
 81155  1  0  0  0
 81156  1  0  0  0
 82 90  1  0  0  0
 82157  1  0  0  0
 82158  1  0  0  0
 83 84  1  0  0  0
 83 90  1  0  0  0
 83159  1  0  0  0
 84160  1  0  0  0
 84161  1  0  0  0
 84162  1  0  0  0
 85163  1  0  0  0
 85164  1  0  0  0
 85 90  1  0  0  0
 86165  1  0  0  0
 86166  1  0  0  0
 87167  1  0  0  0
 87168  1  0  0  0
 88169  1  0  0  0
 89170  1  0  0  0
 89171  1  0  0  0
 90172  1  0  0  0
M  CHG  2  89   1  90   1
M  ISO  4   1 100  68 101  86 101  88 100
M  END
> <chiral flag>
0

> <version>
0

> <s_m_source_file>
/data/baiqing/PycharmProjects/Reinvent-master-3.2/result/LINK_invent/BTK/process_docking_weight1_custom_product_contain_oxygen_bond_distance_aromatic_linkinvent_7_9_3/rearranged_h_0155.sdf

> <i_m_source_file_index>
52

> <r_mmod_Potential_Energy-OPLS-2005>
-347.177764892578

> <r_mmod_Stretch_Energy-OPLS-2005>
85.1474685668945

> <r_mmod_Bend_Energy-OPLS-2005>
202.777801513672

> <r_mmod_Torsional_Energy-OPLS-2005>
264.781677246094

> <r_mmod_Improper_Torsional_Energy-OPLS-2005>
11.4783172607422

> <r_mmod_Van_der_Waal_Energy-OPLS-2005>
141.653533935547

> <r_mmod_Electrostatic_Energy-OPLS-2005>
-146.693481445312

> <r_mmod_Solvation_Energy-OPLS-2005>
-943.27587890625

> <b_mmod_Minimization_Converged-OPLS-2005>
0

> <r_mmod_RMS_Derivative-OPLS-2005>
4.47618818283081

$$$$
52
                    3D
 Structure written by MMmdl.
157166  0  0  1  0            999 V2000
  -30.4459  -15.0071   20.4250 C   0  0  0  0  0  0
  -30.4633  -12.6256   19.4876 C   0  0  0  0  0  0
  -29.5292  -12.5257   18.2554 C   0  0  0  0  0  0
  -28.0662  -12.2908   18.6839 C   0  0  0  0  0  0
  -27.6317  -13.2316   19.8356 C   0  0  2  0  0  0
  -28.6762  -13.2540   20.9709 C   0  0  0  0  0  0
  -25.2503  -13.8178   20.5691 C   0  0  0  0  0  0
  -24.1820  -13.0430   20.9274 C   0  0  0  0  0  0
  -24.6417  -11.6908   20.8787 C   0  0  0  0  0  0
  -23.9090  -10.4289   21.0441 C   0  0  0  0  0  0
  -24.3638   -9.4193   21.9210 C   0  0  0  0  0  0
  -23.6311   -8.2229   22.0762 C   0  0  0  0  0  0
  -22.4288   -8.0287   21.3558 C   0  0  0  0  0  0
  -21.9934   -9.0264   20.4654 C   0  0  0  0  0  0
  -22.7271  -10.2139   20.3075 C   0  0  0  0  0  0
  -21.6849   -6.0753   22.5288 C   0  0  0  0  0  0
  -21.4006   -6.5650   23.8227 C   0  0  0  0  0  0
  -21.3657   -5.6801   24.9186 C   0  0  0  0  0  0
  -21.6040   -4.3065   24.7230 C   0  0  0  0  0  0
  -21.8821   -3.8159   23.4353 C   0  0  0  0  0  0
  -21.9196   -4.6978   22.3407 C   0  0  0  0  0  0
  -22.7842  -13.5218   21.1916 C   0  0  0  0  0  0
  -22.1665   -4.2171   21.0985 F   0  0  0  0  0  0
  -21.5632   -3.4540   25.7742 F   0  0  0  0  0  0
  -29.9392  -13.7062   20.3707 N   0  0  0  0  0  0
  -26.2897  -12.9368   20.3212 N   0  0  0  0  0  0
  -25.9332  -11.6515   20.5744 N   0  0  0  0  0  0
  -22.0472  -12.8198   22.0444 N   0  0  0  0  0  0
  -25.4147  -15.1901   20.4027 N   0  0  0  0  0  0
  -31.6568  -15.1558   20.2113 O   0  0  0  0  0  0
  -21.6639   -6.8888   21.4253 O   0  0  0  0  0  0
  -22.3541  -14.5538   20.6770 O   0  0  0  0  0  0
  -24.6461  -31.8366   23.1772 C   0  0  0  0  0  0
  -25.9202  -32.4644   23.8194 C   0  0  1  0  0  0
  -27.2242  -27.0792   20.1959 C   0  0  0  0  0  0
  -25.5929  -33.8455   24.2125 N   0  0  0  0  0  0
  -23.4509  -30.4517   21.5210 C   0  0  2  0  0  0
  -24.9004  -28.8461   20.1276 C   0  0  0  0  0  0
  -22.7560  -29.4525   22.4799 C   0  0  0  0  0  0
  -18.0308  -28.1423   22.8453 C   0  0  0  0  0  0
  -24.1487  -36.7219   23.2651 C   0  0  0  0  0  0
  -26.0064  -30.6959   21.3774 C   0  0  0  0  0  0
  -26.0756  -29.2944   20.7401 C   0  0  0  0  0  0
  -27.2389  -28.4310   20.7422 C   0  0  0  0  0  0
  -26.0172  -26.7239   19.5627 C   0  0  0  0  0  0
  -24.8843  -27.5763   19.5230 C   0  0  0  0  0  0
  -23.6815  -29.7590   20.1493 C   0  0  0  0  0  0
  -25.4103  -36.2985   24.0320 C   0  0  1  0  0  0
  -20.5917  -28.3748   23.1203 C   0  0  2  0  0  0
  -20.6791  -26.9445   22.5383 C   0  0  0  0  0  0
  -19.5782  -26.6391   21.5184 C   0  0  0  0  0  0
  -18.1958  -26.7956   22.1609 C   0  0  0  0  0  0
  -19.1567  -28.8900   23.2829 C   0  0  0  0  0  0
  -18.9515  -30.1495   23.8869 C   0  0  0  0  0  0
  -17.6520  -30.6610   24.0575 C   0  0  0  0  0  0
  -25.9072  -34.9379   23.5029 C   0  0  0  0  0  0
  -16.5400  -29.9111   23.6368 C   0  0  0  0  0  0
  -16.7305  -28.6543   23.0357 C   0  0  0  0  0  0
  -26.4507  -31.6549   25.0679 C   0  0  0  0  0  0
  -25.3684  -31.3768   26.1372 C   0  0  0  0  0  0
  -27.0404  -30.2962   24.6264 C   0  0  0  0  0  0
  -27.6026  -32.4332   25.7458 C   0  0  0  0  0  0
  -27.5563  -37.1736   24.8456 C   0  0  0  0  0  0
  -21.4246  -29.3075   22.3567 N   0  0  0  0  0  0
  -26.4254  -37.3712   23.9440 N   0  0  0  0  0  0
  -24.7202  -31.0182   22.0814 N   0  0  0  0  0  0
  -23.4183  -28.8092   23.2984 O   0  0  0  0  0  0
  -28.3583  -26.1830   20.1070 O   0  0  0  0  0  0
  -26.5671  -34.8894   22.4630 O   0  0  0  0  0  0
  -23.5562  -32.1264   23.6962 O   0  0  0  0  0  0
  -29.7037  -18.9580   20.3743 C   0  0  0  0  0  0
  -27.9547  -17.7524   21.3137 C   0  0  0  0  0  0
  -29.1708  -17.5655   20.7029 C   0  0  0  0  0  0
  -28.9056  -20.1216   20.7560 C   0  0  0  0  0  0
  -29.1530  -24.5325   21.9585 C   0  0  0  0  0  0
  -28.2886  -23.0867   20.0514 C   0  0  0  0  0  0
  -30.3961  -23.5817   22.0651 C   0  0  0  0  0  0
  -29.0095  -21.7978   20.8924 C   0  0  2  0  0  0
  -28.6523  -24.6752   20.5171 C   0  0  1  0  0  0
  -31.3798  -22.1195   20.3014 C   0  0  0  0  0  0
  -29.4811  -16.0664   20.4200 N   0  0  0  0  0  0
  -30.3459  -22.2493   21.3545 N   0  3  1  0  0  0
  -27.4555  -19.4363   21.4718 S   0  0  0  0  0  0
  -31.4850  -12.8345   19.1677 H   0  0  0  0  0  0
  -30.5043  -11.6738   20.0212 H   0  0  0  0  0  0
  -29.8565  -11.7201   17.5970 H   0  0  0  0  0  0
  -29.5949  -13.4440   17.6701 H   0  0  0  0  0  0
  -27.9883  -11.2546   19.0151 H   0  0  0  0  0  0
  -27.3941  -12.3895   17.8309 H   0  0  0  0  0  0
  -27.5918  -14.2279   19.3963 H   0  0  0  0  0  0
  -28.7845  -12.2683   21.4273 H   0  0  0  0  0  0
  -28.3672  -13.9288   21.7705 H   0  0  0  0  0  0
  -25.2785   -9.5669   22.4785 H   0  0  0  0  0  0
  -24.0027   -7.4614   22.7474 H   0  0  0  0  0  0
  -21.0870   -8.8800   19.8950 H   0  0  0  0  0  0
  -22.3756  -10.9691   19.6185 H   0  0  0  0  0  0
  -21.1984   -7.6157   23.9739 H   0  0  0  0  0  0
  -21.1474   -6.0525   25.9092 H   0  0  0  0  0  0
  -22.0598   -2.7622   23.2845 H   0  0  0  0  0  0
  -22.4069  -11.9835   22.4802 H   0  0  0  0  0  0
  -21.1095  -13.1228   22.2653 H   0  0  0  0  0  0
  -24.6113  -15.8057   20.4648 H   0  0  0  0  0  0
  -26.1762  -15.5981   19.8770 H   0  0  0  0  0  0
  -26.7271  -32.5227   23.0919 H   0  0  0  0  0  0
  -25.0041  -33.9568   25.0251 H   0  0  0  0  0  0
  -22.7592  -31.2793   21.3493 H   0  0  0  0  0  0
  -23.3744  -35.9569   23.3306 H   0  0  0  0  0  0
  -24.3559  -36.8842   22.2066 H   0  0  0  0  0  0
  -23.7260  -37.6426   23.6684 H   0  0  0  0  0  0
  -26.1546  -31.4386   20.5920 H   0  0  0  0  0  0
  -26.8792  -30.7570   22.0139 H   0  0  0  0  0  0
  -28.1502  -28.7876   21.2006 H   0  0  0  0  0  0
  -25.9491  -25.7569   19.0855 H   0  0  0  0  0  0
  -23.9840  -27.2265   19.0349 H   0  0  0  0  0  0
  -23.8243  -30.5221   19.3820 H   0  0  0  0  0  0
  -22.7971  -29.1981   19.8426 H   0  0  0  0  0  0
  -25.1289  -36.1793   25.0812 H   0  0  0  0  0  0
  -21.0027  -28.3359   24.1317 H   0  0  0  0  0  0
  -20.5662  -26.2368   23.3610 H   0  0  0  0  0  0
  -21.6658  -26.7426   22.1202 H   0  0  0  0  0  0
  -19.6947  -25.6288   21.1246 H   0  0  0  0  0  0
  -19.6740  -27.3186   20.6700 H   0  0  0  0  0  0
  -17.4212  -26.6701   21.4021 H   0  0  0  0  0  0
  -18.0388  -26.0108   22.9026 H   0  0  0  0  0  0
  -19.8011  -30.7305   24.2204 H   0  0  0  0  0  0
  -17.5104  -31.6297   24.5184 H   0  0  0  0  0  0
  -15.5415  -30.3038   23.7705 H   0  0  0  0  0  0
  -15.8698  -28.0871   22.7079 H   0  0  0  0  0  0
  -24.5867  -30.7097   25.7689 H   0  0  0  0  0  0
  -24.8862  -32.2976   26.4698 H   0  0  0  0  0  0
  -25.7950  -30.9015   27.0218 H   0  0  0  0  0  0
  -26.3059  -29.6652   24.1236 H   0  0  0  0  0  0
  -27.4035  -29.7254   25.4819 H   0  0  0  0  0  0
  -27.8924  -30.4221   23.9571 H   0  0  0  0  0  0
  -27.2599  -33.3644   26.1975 H   0  0  0  0  0  0
  -28.3846  -32.6873   25.0289 H   0  0  0  0  0  0
  -28.0680  -31.8506   26.5417 H   0  0  0  0  0  0
  -28.2496  -38.0107   24.7545 H   0  0  0  0  0  0
  -28.1132  -36.2629   24.6203 H   0  0  0  0  0  0
  -27.2297  -37.1268   25.8861 H   0  0  0  0  0  0
  -20.9466  -29.8779   21.6725 H   0  0  0  0  0  0
  -26.0105  -38.2759   24.1534 H   0  0  0  0  0  0
  -30.6613  -19.0411   19.8819 H   0  0  0  0  0  0
  -27.2740  -16.9938   21.6841 H   0  0  0  0  0  0
  -29.4379  -25.5107   22.3487 H   0  0  0  0  0  0
  -28.3426  -24.1877   22.6014 H   0  0  0  0  0  0
  -27.2074  -22.9532   20.0885 H   0  0  0  0  0  0
  -28.5498  -22.9789   18.9999 H   0  0  0  0  0  0
  -30.5832  -23.3868   23.1220 H   0  0  0  0  0  0
  -31.2740  -24.1324   21.7230 H   0  0  0  0  0  0
  -28.4531  -21.9155   21.8253 H   0  0  0  0  0  0
  -29.6015  -24.7255   19.9846 H   0  0  0  0  0  0
  -32.3742  -22.3071   20.7039 H   0  0  0  0  0  0
  -31.2006  -22.8190   19.4874 H   0  0  0  0  0  0
  -31.3989  -21.1214   19.8723 H   0  0  0  0  0  0
  -28.6067  -15.5695   20.3739 H   0  0  0  0  0  0
  -30.6118  -21.5774   22.0606 H   0  0  0  0  0  0
  1 25  1  0  0  0
  1 30  2  0  0  0
  1 81  1  0  0  0
  2  3  1  0  0  0
  2 25  1  0  0  0
  2 84  1  0  0  0
  2 85  1  0  0  0
  3  4  1  0  0  0
  3 86  1  0  0  0
  3 87  1  0  0  0
  4  5  1  0  0  0
  4 88  1  0  0  0
  4 89  1  0  0  0
  5  6  1  0  0  0
  5 26  1  0  0  0
  5 90  1  0  0  0
  6 25  1  0  0  0
  6 91  1  0  0  0
  6 92  1  0  0  0
  7  8  2  0  0  0
  7 26  1  0  0  0
  7 29  1  0  0  0
  8  9  1  0  0  0
  8 22  1  0  0  0
  9 10  1  0  0  0
  9 27  2  0  0  0
 10 11  2  0  0  0
 10 15  1  0  0  0
 11 12  1  0  0  0
 11 93  1  0  0  0
 12 13  2  0  0  0
 12 94  1  0  0  0
 13 14  1  0  0  0
 13 31  1  0  0  0
 14 15  2  0  0  0
 14 95  1  0  0  0
 15 96  1  0  0  0
 16 17  2  0  0  0
 16 21  1  0  0  0
 16 31  1  0  0  0
 17 18  1  0  0  0
 17 97  1  0  0  0
 18 19  2  0  0  0
 18 98  1  0  0  0
 19 20  1  0  0  0
 19 24  1  0  0  0
 20 21  2  0  0  0
 20 99  1  0  0  0
 21 23  1  0  0  0
 22 28  1  0  0  0
 22 32  2  0  0  0
 26 27  1  0  0  0
 28100  1  0  0  0
 28101  1  0  0  0
 29102  1  0  0  0
 29103  1  0  0  0
 33 34  1  0  0  0
 33 66  1  0  0  0
 33 70  2  0  0  0
 34 36  1  0  0  0
 34 59  1  0  0  0
 34104  1  0  0  0
 35 44  2  0  0  0
 35 45  1  0  0  0
 35 68  1  0  0  0
 36 56  1  0  0  0
 36105  1  0  0  0
 37 39  1  0  0  0
 37 47  1  0  0  0
 37 66  1  0  0  0
 37106  1  0  0  0
 38 43  2  0  0  0
 38 46  1  0  0  0
 38 47  1  0  0  0
 39 64  1  0  0  0
 39 67  2  0  0  0
 40 52  1  0  0  0
 40 53  2  0  0  0
 40 58  1  0  0  0
 41107  1  0  0  0
 41108  1  0  0  0
 41109  1  0  0  0
 41 48  1  0  0  0
 42 43  1  0  0  0
 42 66  1  0  0  0
 42110  1  0  0  0
 42111  1  0  0  0
 43 44  1  0  0  0
 44112  1  0  0  0
 45 46  2  0  0  0
 45113  1  0  0  0
 46114  1  0  0  0
 47115  1  0  0  0
 47116  1  0  0  0
 48 56  1  0  0  0
 48 65  1  0  0  0
 48117  1  0  0  0
 49 50  1  0  0  0
 49 53  1  0  0  0
 49 64  1  0  0  0
 49118  1  0  0  0
 50 51  1  0  0  0
 50119  1  0  0  0
 50120  1  0  0  0
 51 52  1  0  0  0
 51121  1  0  0  0
 51122  1  0  0  0
 52123  1  0  0  0
 52124  1  0  0  0
 53 54  1  0  0  0
 54 55  2  0  0  0
 54125  1  0  0  0
 55 57  1  0  0  0
 55126  1  0  0  0
 56 69  2  0  0  0
 57 58  2  0  0  0
 57127  1  0  0  0
 58128  1  0  0  0
 59 60  1  0  0  0
 59 61  1  0  0  0
 59 62  1  0  0  0
 60129  1  0  0  0
 60130  1  0  0  0
 60131  1  0  0  0
 61132  1  0  0  0
 61133  1  0  0  0
 61134  1  0  0  0
 62135  1  0  0  0
 62136  1  0  0  0
 62137  1  0  0  0
 63 65  1  0  0  0
 63138  1  0  0  0
 63139  1  0  0  0
 63140  1  0  0  0
 64141  1  0  0  0
 65142  1  0  0  0
 68 79  1  0  0  0
 71 73  1  0  0  0
 71 74  2  0  0  0
 71143  1  0  0  0
 72 73  2  0  0  0
 72 83  1  0  0  0
 72144  1  0  0  0
 73 81  1  0  0  0
 74 83  1  0  0  0
 74 78  1  0  0  0
 75 77  1  0  0  0
 75 79  1  0  0  0
 75145  1  0  0  0
 75146  1  0  0  0
 76 78  1  0  0  0
 76 79  1  0  0  0
 76147  1  0  0  0
 76148  1  0  0  0
 77 82  1  0  0  0
 77149  1  0  0  0
 77150  1  0  0  0
 78 82  1  0  0  0
 78151  1  0  0  0
 79152  1  0  0  0
 80153  1  0  0  0
 80154  1  0  0  0
 80155  1  0  0  0
 80 82  1  0  0  0
 81156  1  0  0  0
 82157  1  0  0  0
M  CHG  1  82   1
M  ISO  4   1 100  68 101  79 101  81 100
M  END
> <chiral flag>
0

> <version>
0

> <s_m_source_file>
/data/baiqing/PycharmProjects/Reinvent-master-3.2/result/LINK_invent/BTK/process_docking_weight1_custom_product_contain_oxygen_bond_distance_aromatic_linkinvent_7_9_3/rearranged_h_0155.sdf

> <i_m_source_file_index>
53

> <r_mmod_Potential_Energy-OPLS-2005>
708.364929199219

> <r_mmod_Stretch_Energy-OPLS-2005>
316.898406982422

> <r_mmod_Bend_Energy-OPLS-2005>
487.435577392578

> <r_mmod_Torsional_Energy-OPLS-2005>
288.606262207031

> <r_mmod_Improper_Torsional_Energy-OPLS-2005>
12.4251718521118

> <r_mmod_Van_der_Waal_Energy-OPLS-2005>
108.801490783691

> <r_mmod_Electrostatic_Energy-OPLS-2005>
-289.362152099609

> <r_mmod_Solvation_Energy-OPLS-2005>
-447.371032714844

> <b_mmod_Minimization_Converged-OPLS-2005>
0

> <r_mmod_RMS_Derivative-OPLS-2005>
3.22665691375732

$$$$
53
                    3D
 Structure written by MMmdl.
149158  0  0  1  0            999 V2000
  -30.6487  -14.8523   20.4447 C   0  0  0  0  0  0
  -30.4167  -12.5355   19.4871 C   0  0  0  0  0  0
  -29.5047  -12.5121   18.2434 C   0  0  0  0  0  0
  -28.0382  -12.3153   18.6653 C   0  0  0  0  0  0
  -27.6261  -13.2470   19.8358 C   0  0  2  0  0  0
  -28.6735  -13.2732   20.9708 C   0  0  0  0  0  0
  -25.2422  -13.8207   20.5703 C   0  0  0  0  0  0
  -24.1755  -13.0428   20.9245 C   0  0  0  0  0  0
  -24.6383  -11.6920   20.8773 C   0  0  0  0  0  0
  -23.9075  -10.4288   21.0415 C   0  0  0  0  0  0
  -24.3626   -9.4201   21.9189 C   0  0  0  0  0  0
  -23.6299   -8.2238   22.0755 C   0  0  0  0  0  0
  -22.4281   -8.0279   21.3545 C   0  0  0  0  0  0
  -21.9919   -9.0253   20.4648 C   0  0  0  0  0  0
  -22.7248  -10.2131   20.3061 C   0  0  0  0  0  0
  -21.6854   -6.0736   22.5279 C   0  0  0  0  0  0
  -21.4014   -6.5640   23.8211 C   0  0  0  0  0  0
  -21.3659   -5.6792   24.9174 C   0  0  0  0  0  0
  -21.6044   -4.3056   24.7224 C   0  0  0  0  0  0
  -21.8819   -3.8147   23.4344 C   0  0  0  0  0  0
  -21.9192   -4.6964   22.3402 C   0  0  0  0  0  0
  -22.7776  -13.5199   21.1891 C   0  0  0  0  0  0
  -22.1662   -4.2149   21.0980 F   0  0  0  0  0  0
  -21.5629   -3.4539   25.7737 F   0  0  0  0  0  0
  -29.9528  -13.6517   20.3596 N   0  0  0  0  0  0
  -26.2864  -12.9455   20.3255 N   0  0  0  0  0  0
  -25.9317  -11.6585   20.5767 N   0  0  0  0  0  0
  -22.0428  -12.8191   22.0448 N   0  0  0  0  0  0
  -25.4012  -15.1927   20.4071 N   0  0  0  0  0  0
  -31.8552  -14.8081   20.1806 O   0  0  0  0  0  0
  -21.6641   -6.8879   21.4241 O   0  0  0  0  0  0
  -22.3460  -14.5501   20.6727 O   0  0  0  0  0  0
  -24.6387  -31.8498   23.1946 C   0  0  0  0  0  0
  -25.9183  -32.4725   23.8312 C   0  0  1  0  0  0
  -27.2071  -27.1869   20.1447 C   0  0  0  0  0  0
  -25.5955  -33.8530   24.2230 N   0  0  0  0  0  0
  -23.4389  -30.4727   21.5396 C   0  0  2  0  0  0
  -24.8867  -28.9123   20.1101 C   0  0  0  0  0  0
  -22.7542  -29.4579   22.4885 C   0  0  0  0  0  0
  -18.0300  -28.1391   22.8479 C   0  0  0  0  0  0
  -24.1492  -36.7268   23.2641 C   0  0  0  0  0  0
  -25.9924  -30.7386   21.3883 C   0  0  0  0  0  0
  -26.0629  -29.3553   20.7296 C   0  0  0  0  0  0
  -27.2278  -28.5073   20.7338 C   0  0  0  0  0  0
  -26.0151  -26.8470   19.4679 C   0  0  0  0  0  0
  -24.8728  -27.6695   19.4638 C   0  0  0  0  0  0
  -23.6618  -29.8082   20.1564 C   0  0  0  0  0  0
  -25.4121  -36.3051   24.0321 C   0  0  1  0  0  0
  -20.5910  -28.3713   23.1246 C   0  0  2  0  0  0
  -20.6786  -26.9423   22.5402 C   0  0  0  0  0  0
  -19.5759  -26.6381   21.5210 C   0  0  0  0  0  0
  -18.1942  -26.7932   22.1624 C   0  0  0  0  0  0
  -19.1555  -28.8870   23.2855 C   0  0  0  0  0  0
  -18.9472  -30.1468   23.8878 C   0  0  0  0  0  0
  -17.6470  -30.6590   24.0557 C   0  0  0  0  0  0
  -25.9068  -34.9423   23.5079 C   0  0  0  0  0  0
  -16.5361  -29.9083   23.6335 C   0  0  0  0  0  0
  -16.7285  -28.6501   23.0357 C   0  0  0  0  0  0
  -26.4520  -31.6574   25.0733 C   0  0  0  0  0  0
  -25.3719  -31.3756   26.1439 C   0  0  0  0  0  0
  -27.0373  -30.2972   24.6286 C   0  0  0  0  0  0
  -27.6063  -32.4328   25.7508 C   0  0  0  0  0  0
  -27.5578  -37.1791   24.8464 C   0  0  0  0  0  0
  -21.4241  -29.3049   22.3626 N   0  0  0  0  0  0
  -26.4290  -37.3757   23.9408 N   0  0  0  0  0  0
  -24.7094  -31.0401   22.0960 N   0  0  0  0  0  0
  -23.4210  -28.8117   23.3008 O   0  0  0  0  0  0
  -28.2489  -26.2074   20.1959 O   0  0  0  0  0  0
  -26.5641  -34.8908   22.4650 O   0  0  0  0  0  0
  -23.5518  -32.1353   23.7197 O   0  0  0  0  0  0
  -29.9206  -20.1305   20.1013 C   0  0  0  0  0  0
  -29.9046  -18.6556   20.2730 C   0  0  0  0  0  0
  -28.7974  -18.1981   20.8608 C   0  0  0  0  0  0
  -28.7826  -20.8212   20.5741 C   0  0  0  0  0  0
  -28.8000  -23.4580   20.2697 C   0  0  0  0  0  0
  -30.7662  -17.4022   19.9940 C   0  0  0  0  0  0
  -28.7653  -16.6727   21.0380 C   0  0  0  0  0  0
  -27.8586  -24.7640   20.5612 C   0  0  0  0  0  0
  -30.0380  -16.1347   20.4455 N   0  0  0  0  0  0
  -28.3462  -22.1790   20.6302 N   0  0  0  0  0  0
  -29.8996  -23.6143   19.7320 O   0  0  0  0  0  0
  -27.7057  -19.5403   21.2380 S   0  0  0  0  0  0
  -31.4563  -12.6440   19.1747 H   0  0  0  0  0  0
  -30.3702  -11.5846   20.0202 H   0  0  0  0  0  0
  -29.8096  -11.7154   17.5636 H   0  0  0  0  0  0
  -29.6087  -13.4467   17.6898 H   0  0  0  0  0  0
  -27.9231  -11.2735   18.9662 H   0  0  0  0  0  0
  -27.3741  -12.4597   17.8122 H   0  0  0  0  0  0
  -27.5902  -14.2467   19.4043 H   0  0  0  0  0  0
  -28.7457  -12.3013   21.4613 H   0  0  0  0  0  0
  -28.3880  -13.9867   21.7441 H   0  0  0  0  0  0
  -25.2766   -9.5680   22.4770 H   0  0  0  0  0  0
  -24.0006   -7.4629   22.7474 H   0  0  0  0  0  0
  -21.0850   -8.8775   19.8953 H   0  0  0  0  0  0
  -22.3706  -10.9674   19.6176 H   0  0  0  0  0  0
  -21.2006   -7.6147   23.9715 H   0  0  0  0  0  0
  -21.1482   -6.0522   25.9077 H   0  0  0  0  0  0
  -22.0599   -2.7609   23.2843 H   0  0  0  0  0  0
  -22.4053  -11.9861   22.4845 H   0  0  0  0  0  0
  -21.1042  -13.1208   22.2651 H   0  0  0  0  0  0
  -24.6244  -15.8362   20.5126 H   0  0  0  0  0  0
  -26.2299  -15.6329   20.0315 H   0  0  0  0  0  0
  -26.7249  -32.5348   23.1046 H   0  0  0  0  0  0
  -25.0096  -33.9656   25.0372 H   0  0  0  0  0  0
  -22.7390  -31.2976   21.3910 H   0  0  0  0  0  0
  -23.3758  -35.9596   23.3295 H   0  0  0  0  0  0
  -24.3579  -36.8901   22.2056 H   0  0  0  0  0  0
  -23.7242  -37.6464   23.6673 H   0  0  0  0  0  0
  -26.1441  -31.4958   20.6180 H   0  0  0  0  0  0
  -26.8648  -30.7856   22.0284 H   0  0  0  0  0  0
  -28.1233  -28.8383   21.2410 H   0  0  0  0  0  0
  -25.9380  -25.9123   18.9336 H   0  0  0  0  0  0
  -23.9799  -27.3320   18.9556 H   0  0  0  0  0  0
  -23.7941  -30.5852   19.4026 H   0  0  0  0  0  0
  -22.7777  -29.2480   19.8468 H   0  0  0  0  0  0
  -25.1308  -36.1888   25.0814 H   0  0  0  0  0  0
  -21.0002  -28.3297   24.1366 H   0  0  0  0  0  0
  -20.5683  -26.2326   23.3615 H   0  0  0  0  0  0
  -21.6653  -26.7436   22.1197 H   0  0  0  0  0  0
  -19.6920  -25.6287   21.1253 H   0  0  0  0  0  0
  -19.6696  -27.3179   20.6730 H   0  0  0  0  0  0
  -17.4210  -26.6672   21.4029 H   0  0  0  0  0  0
  -18.0345  -26.0079   22.9026 H   0  0  0  0  0  0
  -19.7948  -30.7288   24.2239 H   0  0  0  0  0  0
  -17.5024  -31.6270   24.5161 H   0  0  0  0  0  0
  -15.5361  -30.2978   23.7670 H   0  0  0  0  0  0
  -15.8685  -28.0812   22.7085 H   0  0  0  0  0  0
  -24.5886  -30.7118   25.7760 H   0  0  0  0  0  0
  -24.8924  -32.2938   26.4840 H   0  0  0  0  0  0
  -25.8011  -30.8937   27.0233 H   0  0  0  0  0  0
  -26.2979  -29.6706   24.1285 H   0  0  0  0  0  0
  -27.3985  -29.7260   25.4848 H   0  0  0  0  0  0
  -27.8892  -30.4212   23.9596 H   0  0  0  0  0  0
  -27.2667  -33.3642   26.2051 H   0  0  0  0  0  0
  -28.3891  -32.6865   25.0348 H   0  0  0  0  0  0
  -28.0713  -31.8476   26.5453 H   0  0  0  0  0  0
  -28.2593  -38.0091   24.7510 H   0  0  0  0  0  0
  -28.1077  -36.2621   24.6294 H   0  0  0  0  0  0
  -27.2295  -37.1443   25.8867 H   0  0  0  0  0  0
  -20.9440  -29.8770   21.6819 H   0  0  0  0  0  0
  -26.0163  -38.2828   24.1405 H   0  0  0  0  0  0
  -30.7635  -20.6234   19.6370 H   0  0  0  0  0  0
  -31.7214  -17.4779   20.5155 H   0  0  0  0  0  0
  -30.9928  -17.3212   18.9301 H   0  0  0  0  0  0
  -27.9069  -16.2516   20.5222 H   0  0  0  0  0  0
  -28.6960  -16.4056   22.0930 H   0  0  0  0  0  0
  -27.6846  -24.7716   21.6374 H   0  0  0  0  0  0
  -26.8957  -24.4997   20.1323 H   0  0  0  0  0  0
  -27.4325  -22.2561   21.0577 H   0  0  0  0  0  0
  1 25  1  0  0  0
  1 30  2  0  0  0
  1 79  1  0  0  0
  2  3  1  0  0  0
  2 25  1  0  0  0
  2 83  1  0  0  0
  2 84  1  0  0  0
  3  4  1  0  0  0
  3 85  1  0  0  0
  3 86  1  0  0  0
  4  5  1  0  0  0
  4 87  1  0  0  0
  4 88  1  0  0  0
  5  6  1  0  0  0
  5 26  1  0  0  0
  5 89  1  0  0  0
  6 25  1  0  0  0
  6 90  1  0  0  0
  6 91  1  0  0  0
  7  8  2  0  0  0
  7 26  1  0  0  0
  7 29  1  0  0  0
  8  9  1  0  0  0
  8 22  1  0  0  0
  9 10  1  0  0  0
  9 27  2  0  0  0
 10 11  2  0  0  0
 10 15  1  0  0  0
 11 12  1  0  0  0
 11 92  1  0  0  0
 12 13  2  0  0  0
 12 93  1  0  0  0
 13 14  1  0  0  0
 13 31  1  0  0  0
 14 15  2  0  0  0
 14 94  1  0  0  0
 15 95  1  0  0  0
 16 17  2  0  0  0
 16 21  1  0  0  0
 16 31  1  0  0  0
 17 18  1  0  0  0
 17 96  1  0  0  0
 18 19  2  0  0  0
 18 97  1  0  0  0
 19 20  1  0  0  0
 19 24  1  0  0  0
 20 21  2  0  0  0
 20 98  1  0  0  0
 21 23  1  0  0  0
 22 28  1  0  0  0
 22 32  2  0  0  0
 26 27  1  0  0  0
 28 99  1  0  0  0
 28100  1  0  0  0
 29101  1  0  0  0
 29102  1  0  0  0
 33 34  1  0  0  0
 33 66  1  0  0  0
 33 70  2  0  0  0
 34 36  1  0  0  0
 34 59  1  0  0  0
 34103  1  0  0  0
 35 44  2  0  0  0
 35 45  1  0  0  0
 35 68  1  0  0  0
 36 56  1  0  0  0
 36104  1  0  0  0
 37 39  1  0  0  0
 37 47  1  0  0  0
 37 66  1  0  0  0
 37105  1  0  0  0
 38 43  2  0  0  0
 38 46  1  0  0  0
 38 47  1  0  0  0
 39 64  1  0  0  0
 39 67  2  0  0  0
 40 52  1  0  0  0
 40 53  2  0  0  0
 40 58  1  0  0  0
 41106  1  0  0  0
 41107  1  0  0  0
 41108  1  0  0  0
 41 48  1  0  0  0
 42 43  1  0  0  0
 42 66  1  0  0  0
 42109  1  0  0  0
 42110  1  0  0  0
 43 44  1  0  0  0
 44111  1  0  0  0
 45 46  2  0  0  0
 45112  1  0  0  0
 46113  1  0  0  0
 47114  1  0  0  0
 47115  1  0  0  0
 48 56  1  0  0  0
 48 65  1  0  0  0
 48116  1  0  0  0
 49 50  1  0  0  0
 49 53  1  0  0  0
 49 64  1  0  0  0
 49117  1  0  0  0
 50 51  1  0  0  0
 50118  1  0  0  0
 50119  1  0  0  0
 51 52  1  0  0  0
 51120  1  0  0  0
 51121  1  0  0  0
 52122  1  0  0  0
 52123  1  0  0  0
 53 54  1  0  0  0
 54 55  2  0  0  0
 54124  1  0  0  0
 55 57  1  0  0  0
 55125  1  0  0  0
 56 69  2  0  0  0
 57 58  2  0  0  0
 57126  1  0  0  0
 58127  1  0  0  0
 59 60  1  0  0  0
 59 61  1  0  0  0
 59 62  1  0  0  0
 60128  1  0  0  0
 60129  1  0  0  0
 60130  1  0  0  0
 61131  1  0  0  0
 61132  1  0  0  0
 61133  1  0  0  0
 62134  1  0  0  0
 62135  1  0  0  0
 62136  1  0  0  0
 63 65  1  0  0  0
 63137  1  0  0  0
 63138  1  0  0  0
 63139  1  0  0  0
 64140  1  0  0  0
 65141  1  0  0  0
 68 78  1  0  0  0
 71 72  1  0  0  0
 71 74  2  0  0  0
 71142  1  0  0  0
 72 73  2  0  0  0
 72 76  1  0  0  0
 73 77  1  0  0  0
 73 82  1  0  0  0
 74 80  1  0  0  0
 74 82  1  0  0  0
 75 78  1  0  0  0
 75 80  1  0  0  0
 75 81  2  0  0  0
 76 79  1  0  0  0
 76143  1  0  0  0
 76144  1  0  0  0
 77 79  1  0  0  0
 77145  1  0  0  0
 77146  1  0  0  0
 78147  1  0  0  0
 78148  1  0  0  0
 80149  1  0  0  0
M  ISO  4   1 100  68 101  78 101  79 100
M  END
> <chiral flag>
0

> <version>
0

> <s_m_source_file>
/data/baiqing/PycharmProjects/Reinvent-master-3.2/result/LINK_invent/BTK/process_docking_weight1_custom_product_contain_oxygen_bond_distance_aromatic_linkinvent_7_9_3/rearranged_h_0155.sdf

> <i_m_source_file_index>
54

> <r_mmod_Potential_Energy-OPLS-2005>
427.202453613281

> <r_mmod_Stretch_Energy-OPLS-2005>
167.784561157227

> <r_mmod_Bend_Energy-OPLS-2005>
306.031890869141

> <r_mmod_Torsional_Energy-OPLS-2005>
257.585876464844

> <r_mmod_Improper_Torsional_Energy-OPLS-2005>
10.344162940979

> <r_mmod_Van_der_Waal_Energy-OPLS-2005>
111.17017364502

> <r_mmod_Electrostatic_Energy-OPLS-2005>
-329.476287841797

> <r_mmod_Solvation_Energy-OPLS-2005>
-240.983840942383

> <b_mmod_Minimization_Converged-OPLS-2005>
0

> <r_mmod_RMS_Derivative-OPLS-2005>
0.333023279905319

$$$$
54
                    3D
 Structure written by MMmdl.
157165  0  0  1  0            999 V2000
  -30.6382  -14.7110   20.4539 C   0  0  0  0  0  0
  -30.4191  -12.4342   19.4695 C   0  0  0  0  0  0
  -29.5052  -12.5108   18.2286 C   0  0  0  0  0  0
  -28.0301  -12.3436   18.6407 C   0  0  0  0  0  0
  -27.6390  -13.2374   19.8486 C   0  0  2  0  0  0
  -28.6833  -13.1715   20.9842 C   0  0  0  0  0  0
  -25.2492  -13.8218   20.5695 C   0  0  0  0  0  0
  -24.1797  -13.0447   20.9220 C   0  0  0  0  0  0
  -24.6401  -11.6930   20.8756 C   0  0  0  0  0  0
  -23.9089  -10.4296   21.0414 C   0  0  0  0  0  0
  -24.3639   -9.4211   21.9188 C   0  0  0  0  0  0
  -23.6307   -8.2251   22.0757 C   0  0  0  0  0  0
  -22.4286   -8.0292   21.3551 C   0  0  0  0  0  0
  -21.9925   -9.0270   20.4658 C   0  0  0  0  0  0
  -22.7261  -10.2143   20.3064 C   0  0  0  0  0  0
  -21.6851   -6.0750   22.5281 C   0  0  0  0  0  0
  -21.4020   -6.5652   23.8221 C   0  0  0  0  0  0
  -21.3656   -5.6795   24.9178 C   0  0  0  0  0  0
  -21.6043   -4.3059   24.7224 C   0  0  0  0  0  0
  -21.8811   -3.8158   23.4342 C   0  0  0  0  0  0
  -21.9195   -4.6980   22.3401 C   0  0  0  0  0  0
  -22.7818  -13.5228   21.1871 C   0  0  0  0  0  0
  -22.1661   -4.2168   21.0977 F   0  0  0  0  0  0
  -21.5621   -3.4539   25.7733 F   0  0  0  0  0  0
  -29.9860  -13.5028   20.3963 N   0  0  0  0  0  0
  -26.2919  -12.9433   20.3265 N   0  0  0  0  0  0
  -25.9331  -11.6573   20.5751 N   0  0  0  0  0  0
  -22.0465  -12.8216   22.0429 N   0  0  0  0  0  0
  -25.4138  -15.1943   20.4097 N   0  0  0  0  0  0
  -31.8289  -14.7732   20.1355 O   0  0  0  0  0  0
  -21.6637   -6.8896   21.4245 O   0  0  0  0  0  0
  -22.3506  -14.5537   20.6723 O   0  0  0  0  0  0
  -24.6279  -31.8553   23.1952 C   0  0  0  0  0  0
  -25.9125  -32.4754   23.8288 C   0  0  1  0  0  0
  -27.2297  -27.2877   20.1143 C   0  0  0  0  0  0
  -25.5932  -33.8555   24.2235 N   0  0  0  0  0  0
  -23.4215  -30.4742   21.5390 C   0  0  2  0  0  0
  -24.8663  -28.9154   20.1081 C   0  0  0  0  0  0
  -22.7466  -29.4599   22.4928 C   0  0  0  0  0  0
  -18.0278  -28.1389   22.8492 C   0  0  0  0  0  0
  -24.1478  -36.7276   23.2637 C   0  0  0  0  0  0
  -25.9603  -30.7776   21.3636 C   0  0  0  0  0  0
  -26.0335  -29.3997   20.7092 C   0  0  0  0  0  0
  -27.2122  -28.5966   20.6989 C   0  0  0  0  0  0
  -26.0308  -26.8437   19.5189 C   0  0  0  0  0  0
  -24.8683  -27.6447   19.5053 C   0  0  0  0  0  0
  -23.6346  -29.7987   20.1566 C   0  0  0  0  0  0
  -25.4109  -36.3077   24.0324 C   0  0  1  0  0  0
  -20.5873  -28.3689   23.1285 C   0  0  2  0  0  0
  -20.6751  -26.9412   22.5410 C   0  0  0  0  0  0
  -19.5733  -26.6397   21.5203 C   0  0  0  0  0  0
  -18.1921  -26.7929   22.1623 C   0  0  0  0  0  0
  -19.1530  -28.8859   23.2883 C   0  0  0  0  0  0
  -18.9458  -30.1456   23.8902 C   0  0  0  0  0  0
  -17.6462  -30.6592   24.0573 C   0  0  0  0  0  0
  -25.9062  -34.9450   23.5092 C   0  0  0  0  0  0
  -16.5353  -29.9097   23.6336 C   0  0  0  0  0  0
  -16.7267  -28.6510   23.0362 C   0  0  0  0  0  0
  -26.4508  -31.6578   25.0677 C   0  0  0  0  0  0
  -25.3752  -31.3720   26.1417 C   0  0  0  0  0  0
  -27.0339  -30.2993   24.6144 C   0  0  0  0  0  0
  -27.6067  -32.4306   25.7470 C   0  0  0  0  0  0
  -27.5569  -37.1793   24.8473 C   0  0  0  0  0  0
  -21.4177  -29.3044   22.3680 N   0  0  0  0  0  0
  -26.4284  -37.3779   23.9414 N   0  0  0  0  0  0
  -24.6895  -31.0538   22.0905 N   0  0  0  0  0  0
  -23.4178  -28.8162   23.3034 O   0  0  0  0  0  0
  -28.3896  -26.4948   20.1945 O   0  0  0  0  0  0
  -26.5652  -34.8929   22.4671 O   0  0  0  0  0  0
  -23.5444  -32.1369   23.7281 O   0  0  0  0  0  0
  -28.3375  -18.9481   20.8892 C   0  0  0  0  0  0
  -29.6172  -18.5973   20.4883 C   0  0  0  0  0  0
  -28.9477  -21.0938   20.1994 C   0  0  0  0  0  0
  -31.3601  -17.4775   21.9203 C   0  0  0  0  0  0
  -30.2114  -25.1578   19.8567 C   0  0  0  0  0  0
  -28.4672  -25.1484   18.0924 C   0  0  0  0  0  0
  -28.1407  -23.7702   20.2795 C   0  0  0  0  0  0
  -30.4859  -17.2936   20.6646 C   0  0  2  0  0  0
  -28.6861  -25.1445   19.6190 C   0  0  0  0  0  0
  -27.9862  -20.3282   20.7391 N   0  0  0  0  0  0
  -28.9176  -22.5120   19.9547 N   0  0  0  0  0  0
  -29.9177  -15.8757   20.6745 N   0  0  0  0  0  0
  -30.3692  -20.0739   19.8236 S   0  0  0  0  0  0
  -31.4655  -12.5326   19.1753 H   0  0  0  0  0  0
  -30.3361  -11.4586   19.9512 H   0  0  0  0  0  0
  -29.7829  -11.7435   17.5053 H   0  0  0  0  0  0
  -29.6421  -13.4693   17.7250 H   0  0  0  0  0  0
  -27.8772  -11.2943   18.8940 H   0  0  0  0  0  0
  -27.3768  -12.5467   17.7915 H   0  0  0  0  0  0
  -27.6345  -14.2605   19.4734 H   0  0  0  0  0  0
  -28.7091  -12.1801   21.4376 H   0  0  0  0  0  0
  -28.4267  -13.8673   21.7846 H   0  0  0  0  0  0
  -25.2784   -9.5678   22.4766 H   0  0  0  0  0  0
  -24.0014   -7.4635   22.7467 H   0  0  0  0  0  0
  -21.0858   -8.8800   19.8958 H   0  0  0  0  0  0
  -22.3730  -10.9692   19.6174 H   0  0  0  0  0  0
  -21.2019   -7.6159   23.9733 H   0  0  0  0  0  0
  -21.1481   -6.0523   25.9080 H   0  0  0  0  0  0
  -22.0595   -2.7623   23.2831 H   0  0  0  0  0  0
  -22.4075  -11.9888   22.4833 H   0  0  0  0  0  0
  -21.1083  -13.1245   22.2638 H   0  0  0  0  0  0
  -24.6334  -15.8361   20.5003 H   0  0  0  0  0  0
  -26.2478  -15.6334   20.0429 H   0  0  0  0  0  0
  -26.7189  -32.5409   23.1022 H   0  0  0  0  0  0
  -25.0064  -33.9673   25.0374 H   0  0  0  0  0  0
  -22.7182  -31.2963   21.3911 H   0  0  0  0  0  0
  -23.3740  -35.9606   23.3319 H   0  0  0  0  0  0
  -24.3561  -36.8886   22.2048 H   0  0  0  0  0  0
  -23.7222  -37.6478   23.6649 H   0  0  0  0  0  0
  -26.0873  -31.5374   20.5913 H   0  0  0  0  0  0
  -26.8429  -30.8328   21.9895 H   0  0  0  0  0  0
  -28.1104  -28.9684   21.1722 H   0  0  0  0  0  0
  -25.9619  -25.8551   19.0965 H   0  0  0  0  0  0
  -23.9665  -27.2599   19.0481 H   0  0  0  0  0  0
  -23.7492  -30.5690   19.3930 H   0  0  0  0  0  0
  -22.7538  -29.2259   19.8616 H   0  0  0  0  0  0
  -25.1281  -36.1924   25.0812 H   0  0  0  0  0  0
  -20.9968  -28.3265   24.1404 H   0  0  0  0  0  0
  -20.5623  -26.2307   23.3610 H   0  0  0  0  0  0
  -21.6624  -26.7421   22.1228 H   0  0  0  0  0  0
  -19.6893  -25.6318   21.1220 H   0  0  0  0  0  0
  -19.6665  -27.3219   20.6743 H   0  0  0  0  0  0
  -17.4180  -26.6679   21.4039 H   0  0  0  0  0  0
  -18.0332  -26.0065   22.9016 H   0  0  0  0  0  0
  -19.7944  -30.7266   24.2271 H   0  0  0  0  0  0
  -17.5030  -31.6272   24.5183 H   0  0  0  0  0  0
  -15.5359  -30.3012   23.7653 H   0  0  0  0  0  0
  -15.8660  -28.0835   22.7079 H   0  0  0  0  0  0
  -24.5941  -30.7039   25.7769 H   0  0  0  0  0  0
  -24.8923  -32.2885   26.4819 H   0  0  0  0  0  0
  -25.8106  -30.8938   27.0202 H   0  0  0  0  0  0
  -26.2911  -29.6759   24.1152 H   0  0  0  0  0  0
  -27.4004  -29.7236   25.4655 H   0  0  0  0  0  0
  -27.8797  -30.4256   23.9377 H   0  0  0  0  0  0
  -27.2676  -33.3600   26.2053 H   0  0  0  0  0  0
  -28.3902  -32.6869   25.0330 H   0  0  0  0  0  0
  -28.0709  -31.8422   26.5394 H   0  0  0  0  0  0
  -28.2615  -38.0066   24.7511 H   0  0  0  0  0  0
  -28.1036  -36.2599   24.6315 H   0  0  0  0  0  0
  -27.2294  -37.1482   25.8882 H   0  0  0  0  0  0
  -20.9355  -29.8768   21.6889 H   0  0  0  0  0  0
  -26.0160  -38.2850   24.1421 H   0  0  0  0  0  0
  -27.6196  -18.2905   21.3592 H   0  0  0  0  0  0
  -32.0907  -16.6777   22.0366 H   0  0  0  0  0  0
  -30.7509  -17.5082   22.8247 H   0  0  0  0  0  0
  -31.9256  -18.4092   21.8727 H   0  0  0  0  0  0
  -30.7280  -24.3365   19.3603 H   0  0  0  0  0  0
  -30.4387  -25.0928   20.9209 H   0  0  0  0  0  0
  -30.6662  -26.0750   19.4827 H   0  0  0  0  0  0
  -28.8720  -26.0537   17.6393 H   0  0  0  0  0  0
  -27.4207  -25.0734   17.8098 H   0  0  0  0  0  0
  -28.9680  -24.3005   17.6240 H   0  0  0  0  0  0
  -27.0945  -23.6225   20.0077 H   0  0  0  0  0  0
  -28.1486  -23.8822   21.3648 H   0  0  0  0  0  0
  -31.1722  -17.2972   19.8149 H   0  0  0  0  0  0
  -29.7658  -22.7751   19.4652 H   0  0  0  0  0  0
  -28.9341  -15.7730   20.8680 H   0  0  0  0  0  0
  1 25  1  0  0  0
  1 30  2  0  0  0
  1 82  1  0  0  0
  2  3  1  0  0  0
  2 25  1  0  0  0
  2 84  1  0  0  0
  2 85  1  0  0  0
  3  4  1  0  0  0
  3 86  1  0  0  0
  3 87  1  0  0  0
  4  5  1  0  0  0
  4 88  1  0  0  0
  4 89  1  0  0  0
  5  6  1  0  0  0
  5 26  1  0  0  0
  5 90  1  0  0  0
  6 25  1  0  0  0
  6 91  1  0  0  0
  6 92  1  0  0  0
  7  8  2  0  0  0
  7 26  1  0  0  0
  7 29  1  0  0  0
  8  9  1  0  0  0
  8 22  1  0  0  0
  9 10  1  0  0  0
  9 27  2  0  0  0
 10 11  2  0  0  0
 10 15  1  0  0  0
 11 12  1  0  0  0
 11 93  1  0  0  0
 12 13  2  0  0  0
 12 94  1  0  0  0
 13 14  1  0  0  0
 13 31  1  0  0  0
 14 15  2  0  0  0
 14 95  1  0  0  0
 15 96  1  0  0  0
 16 17  2  0  0  0
 16 21  1  0  0  0
 16 31  1  0  0  0
 17 18  1  0  0  0
 17 97  1  0  0  0
 18 19  2  0  0  0
 18 98  1  0  0  0
 19 20  1  0  0  0
 19 24  1  0  0  0
 20 21  2  0  0  0
 20 99  1  0  0  0
 21 23  1  0  0  0
 22 28  1  0  0  0
 22 32  2  0  0  0
 26 27  1  0  0  0
 28100  1  0  0  0
 28101  1  0  0  0
 29102  1  0  0  0
 29103  1  0  0  0
 33 34  1  0  0  0
 33 66  1  0  0  0
 33 70  2  0  0  0
 34 36  1  0  0  0
 34 59  1  0  0  0
 34104  1  0  0  0
 35 44  2  0  0  0
 35 45  1  0  0  0
 35 68  1  0  0  0
 36 56  1  0  0  0
 36105  1  0  0  0
 37 39  1  0  0  0
 37 47  1  0  0  0
 37 66  1  0  0  0
 37106  1  0  0  0
 38 43  2  0  0  0
 38 46  1  0  0  0
 38 47  1  0  0  0
 39 64  1  0  0  0
 39 67  2  0  0  0
 40 52  1  0  0  0
 40 53  2  0  0  0
 40 58  1  0  0  0
 41107  1  0  0  0
 41108  1  0  0  0
 41109  1  0  0  0
 41 48  1  0  0  0
 42 43  1  0  0  0
 42 66  1  0  0  0
 42110  1  0  0  0
 42111  1  0  0  0
 43 44  1  0  0  0
 44112  1  0  0  0
 45 46  2  0  0  0
 45113  1  0  0  0
 46114  1  0  0  0
 47115  1  0  0  0
 47116  1  0  0  0
 48 56  1  0  0  0
 48 65  1  0  0  0
 48117  1  0  0  0
 49 50  1  0  0  0
 49 53  1  0  0  0
 49 64  1  0  0  0
 49118  1  0  0  0
 50 51  1  0  0  0
 50119  1  0  0  0
 50120  1  0  0  0
 51 52  1  0  0  0
 51121  1  0  0  0
 51122  1  0  0  0
 52123  1  0  0  0
 52124  1  0  0  0
 53 54  1  0  0  0
 54 55  2  0  0  0
 54125  1  0  0  0
 55 57  1  0  0  0
 55126  1  0  0  0
 56 69  2  0  0  0
 57 58  2  0  0  0
 57127  1  0  0  0
 58128  1  0  0  0
 59 60  1  0  0  0
 59 61  1  0  0  0
 59 62  1  0  0  0
 60129  1  0  0  0
 60130  1  0  0  0
 60131  1  0  0  0
 61132  1  0  0  0
 61133  1  0  0  0
 61134  1  0  0  0
 62135  1  0  0  0
 62136  1  0  0  0
 62137  1  0  0  0
 63 65  1  0  0  0
 63138  1  0  0  0
 63139  1  0  0  0
 63140  1  0  0  0
 64141  1  0  0  0
 65142  1  0  0  0
 68 79  1  0  0  0
 71 72  2  0  0  0
 71 80  1  0  0  0
 71143  1  0  0  0
 72 78  1  0  0  0
 72 83  1  0  0  0
 73 80  2  0  0  0
 73 81  1  0  0  0
 73 83  1  0  0  0
 74144  1  0  0  0
 74145  1  0  0  0
 74146  1  0  0  0
 74 78  1  0  0  0
 75147  1  0  0  0
 75148  1  0  0  0
 75149  1  0  0  0
 75 79  1  0  0  0
 76 79  1  0  0  0
 76150  1  0  0  0
 76151  1  0  0  0
 76152  1  0  0  0
 77 79  1  0  0  0
 77 81  1  0  0  0
 77153  1  0  0  0
 77154  1  0  0  0
 78 82  1  0  0  0
 78155  1  0  0  0
 81156  1  0  0  0
 82157  1  0  0  0
M  ISO  4   1 100  68 101  79 101  82 100
M  END
> <chiral flag>
0

> <version>
0

> <s_m_source_file>
/data/baiqing/PycharmProjects/Reinvent-master-3.2/result/LINK_invent/BTK/process_docking_weight1_custom_product_contain_oxygen_bond_distance_aromatic_linkinvent_7_9_3/rearranged_h_0155.sdf

> <i_m_source_file_index>
55

> <r_mmod_Potential_Energy-OPLS-2005>
-15.8711051940918

> <r_mmod_Stretch_Energy-OPLS-2005>
101.196182250977

> <r_mmod_Bend_Energy-OPLS-2005>
207.039840698242

> <r_mmod_Torsional_Energy-OPLS-2005>
182.826568603516

> <r_mmod_Improper_Torsional_Energy-OPLS-2005>
5.06641626358032

> <r_mmod_Van_der_Waal_Energy-OPLS-2005>
117.285568237305

> <r_mmod_Electrostatic_Energy-OPLS-2005>
-479.00537109375

> <r_mmod_Solvation_Energy-OPLS-2005>
-218.289672851562

> <b_mmod_Minimization_Converged-OPLS-2005>
0

> <r_mmod_RMS_Derivative-OPLS-2005>
1.75566482543945

$$$$
55
                    3D
 Structure written by MMmdl.
156165  0  0  1  0            999 V2000
  -30.6548  -14.6634   20.4690 C   0  0  0  0  0  0
  -30.4191  -12.4006   19.4655 C   0  0  0  0  0  0
  -29.5022  -12.5013   18.2281 C   0  0  0  0  0  0
  -28.0241  -12.3459   18.6366 C   0  0  0  0  0  0
  -27.6433  -13.2308   19.8545 C   0  0  2  0  0  0
  -28.6885  -13.1366   20.9883 C   0  0  0  0  0  0
  -25.2513  -13.8203   20.5709 C   0  0  0  0  0  0
  -24.1801  -13.0448   20.9212 C   0  0  0  0  0  0
  -24.6392  -11.6924   20.8748 C   0  0  0  0  0  0
  -23.9078  -10.4296   21.0409 C   0  0  0  0  0  0
  -24.3630   -9.4210   21.9190 C   0  0  0  0  0  0
  -23.6303   -8.2249   22.0758 C   0  0  0  0  0  0
  -22.4289   -8.0285   21.3545 C   0  0  0  0  0  0
  -21.9924   -9.0259   20.4645 C   0  0  0  0  0  0
  -22.7253  -10.2135   20.3055 C   0  0  0  0  0  0
  -21.6855   -6.0741   22.5285 C   0  0  0  0  0  0
  -21.4011   -6.5646   23.8214 C   0  0  0  0  0  0
  -21.3659   -5.6797   24.9177 C   0  0  0  0  0  0
  -21.6040   -4.3061   24.7223 C   0  0  0  0  0  0
  -21.8819   -3.8158   23.4345 C   0  0  0  0  0  0
  -21.9194   -4.6973   22.3401 C   0  0  0  0  0  0
  -22.7822  -13.5222   21.1871 C   0  0  0  0  0  0
  -22.1665   -4.2161   21.0977 F   0  0  0  0  0  0
  -21.5629   -3.4546   25.7738 F   0  0  0  0  0  0
  -29.9995  -13.4580   20.4111 N   0  0  0  0  0  0
  -26.2941  -12.9408   20.3302 N   0  0  0  0  0  0
  -25.9323  -11.6550   20.5765 N   0  0  0  0  0  0
  -22.0471  -12.8200   22.0420 N   0  0  0  0  0  0
  -25.4195  -15.1926   20.4125 N   0  0  0  0  0  0
  -31.8413  -14.7249   20.1371 O   0  0  0  0  0  0
  -21.6646   -6.8888   21.4247 O   0  0  0  0  0  0
  -22.3500  -14.5535   20.6732 O   0  0  0  0  0  0
  -24.6279  -31.8571   23.2046 C   0  0  0  0  0  0
  -25.9131  -32.4754   23.8376 C   0  0  1  0  0  0
  -27.2187  -27.3163   20.1290 C   0  0  0  0  0  0
  -25.5949  -33.8563   24.2307 N   0  0  0  0  0  0
  -23.4209  -30.4830   21.5445 C   0  0  2  0  0  0
  -24.8689  -28.9386   20.1086 C   0  0  0  0  0  0
  -22.7468  -29.4626   22.4927 C   0  0  0  0  0  0
  -18.0281  -28.1399   22.8492 C   0  0  0  0  0  0
  -24.1481  -36.7265   23.2643 C   0  0  0  0  0  0
  -25.9613  -30.7906   21.3739 C   0  0  0  0  0  0
  -26.0369  -29.4183   20.7159 C   0  0  0  0  0  0
  -27.2201  -28.6197   20.7142 C   0  0  0  0  0  0
  -26.0340  -26.8905   19.4922 C   0  0  0  0  0  0
  -24.8692  -27.6805   19.4858 C   0  0  0  0  0  0
  -23.6361  -29.8190   20.1588 C   0  0  0  0  0  0
  -25.4105  -36.3069   24.0343 C   0  0  1  0  0  0
  -20.5881  -28.3709   23.1269 C   0  0  2  0  0  0
  -20.6774  -26.9428   22.5408 C   0  0  0  0  0  0
  -19.5745  -26.6396   21.5217 C   0  0  0  0  0  0
  -18.1922  -26.7946   22.1621 C   0  0  0  0  0  0
  -19.1534  -28.8875   23.2874 C   0  0  0  0  0  0
  -18.9458  -30.1475   23.8898 C   0  0  0  0  0  0
  -17.6458  -30.6599   24.0569 C   0  0  0  0  0  0
  -25.9053  -34.9440   23.5121 C   0  0  0  0  0  0
  -16.5350  -29.9095   23.6347 C   0  0  0  0  0  0
  -16.7268  -28.6512   23.0369 C   0  0  0  0  0  0
  -26.4530  -31.6566   25.0739 C   0  0  0  0  0  0
  -25.3774  -31.3669   26.1464 C   0  0  0  0  0  0
  -27.0413  -30.3002   24.6215 C   0  0  0  0  0  0
  -27.6099  -32.4307   25.7497 C   0  0  0  0  0  0
  -27.5582  -37.1770   24.8464 C   0  0  0  0  0  0
  -21.4183  -29.3046   22.3654 N   0  0  0  0  0  0
  -26.4267  -37.3777   23.9450 N   0  0  0  0  0  0
  -24.6886  -31.0598   22.0983 N   0  0  0  0  0  0
  -23.4186  -28.8169   23.3013 O   0  0  0  0  0  0
  -28.3046  -26.4315   20.1703 O   0  0  0  0  0  0
  -26.5600  -34.8904   22.4673 O   0  0  0  0  0  0
  -23.5445  -32.1374   23.7375 O   0  0  0  0  0  0
  -31.3977  -19.0764   20.2265 C   0  0  0  0  0  0
  -31.5027  -17.6530   20.3102 C   0  0  0  0  0  0
  -30.0840  -19.4099   20.4310 C   0  0  0  0  0  0
  -30.2464  -17.1546   20.5561 C   0  0  0  0  0  0
  -27.7225  -22.4877   20.8528 C   0  0  0  0  0  0
  -29.9729  -23.3109   20.3301 C   0  0  0  0  0  0
  -28.1213  -21.0372   20.3797 C   0  0  0  0  0  0
  -30.3445  -21.8639   19.8406 C   0  0  0  0  0  0
  -28.4752  -23.6925   20.1862 C   0  0  0  0  0  0
  -28.0487  -25.1131   20.8121 C   0  0  0  0  0  0
  -29.5634  -20.7621   20.4523 N   0  0  0  0  0  0
  -29.9075  -15.8031   20.7004 N   0  0  0  0  0  0
  -29.3457  -18.2362   20.6422 O   0  0  0  0  0  0
  -28.1434  -23.7052   18.8928 F   0  0  0  0  0  0
  -31.4646  -12.4944   19.1678 H   0  0  0  0  0  0
  -30.3310  -11.4172   19.9304 H   0  0  0  0  0  0
  -29.7701  -11.7384   17.4951 H   0  0  0  0  0  0
  -29.6488  -13.4636   17.7351 H   0  0  0  0  0  0
  -27.8583  -11.2948   18.8753 H   0  0  0  0  0  0
  -27.3729  -12.5692   17.7897 H   0  0  0  0  0  0
  -27.6455  -14.2581   19.4908 H   0  0  0  0  0  0
  -28.6986  -12.1349   21.4201 H   0  0  0  0  0  0
  -28.4378  -13.8158   21.8046 H   0  0  0  0  0  0
  -25.2775   -9.5688   22.4767 H   0  0  0  0  0  0
  -24.0019   -7.4638   22.7474 H   0  0  0  0  0  0
  -21.0865   -8.8764   19.8944 H   0  0  0  0  0  0
  -22.3718  -10.9671   19.6158 H   0  0  0  0  0  0
  -21.1996   -7.6151   23.9722 H   0  0  0  0  0  0
  -21.1483   -6.0529   25.9078 H   0  0  0  0  0  0
  -22.0597   -2.7625   23.2845 H   0  0  0  0  0  0
  -22.4107  -11.9855   22.4784 H   0  0  0  0  0  0
  -21.1082  -13.1197   22.2628 H   0  0  0  0  0  0
  -24.6497  -15.8444   20.5173 H   0  0  0  0  0  0
  -26.2623  -15.6335   20.0673 H   0  0  0  0  0  0
  -26.7203  -32.5426   23.1131 H   0  0  0  0  0  0
  -25.0181  -33.9724   25.0511 H   0  0  0  0  0  0
  -22.7160  -31.3047   21.4012 H   0  0  0  0  0  0
  -23.3766  -35.9566   23.3261 H   0  0  0  0  0  0
  -24.3585  -36.8931   22.2065 H   0  0  0  0  0  0
  -23.7197  -37.6442   23.6684 H   0  0  0  0  0  0
  -26.0949  -31.5564   20.6088 H   0  0  0  0  0  0
  -26.8391  -30.8356   22.0063 H   0  0  0  0  0  0
  -28.1151  -28.9806   21.2013 H   0  0  0  0  0  0
  -26.0036  -25.9207   19.0159 H   0  0  0  0  0  0
  -23.9742  -27.3081   19.0072 H   0  0  0  0  0  0
  -23.7545  -30.5961   19.4024 H   0  0  0  0  0  0
  -22.7553  -29.2491   19.8566 H   0  0  0  0  0  0
  -25.1276  -36.1908   25.0831 H   0  0  0  0  0  0
  -20.9981  -28.3289   24.1387 H   0  0  0  0  0  0
  -20.5695  -26.2323   23.3616 H   0  0  0  0  0  0
  -21.6636  -26.7472   22.1180 H   0  0  0  0  0  0
  -19.6908  -25.6307   21.1253 H   0  0  0  0  0  0
  -19.6680  -27.3202   20.6741 H   0  0  0  0  0  0
  -17.4200  -26.6719   21.4011 H   0  0  0  0  0  0
  -18.0295  -26.0079   22.9004 H   0  0  0  0  0  0
  -19.7932  -30.7293   24.2262 H   0  0  0  0  0  0
  -17.5007  -31.6278   24.5169 H   0  0  0  0  0  0
  -15.5350  -30.2993   23.7678 H   0  0  0  0  0  0
  -15.8663  -28.0824   22.7109 H   0  0  0  0  0  0
  -24.5991  -30.6966   25.7783 H   0  0  0  0  0  0
  -24.8911  -32.2807   26.4885 H   0  0  0  0  0  0
  -25.8113  -30.8865   27.0241 H   0  0  0  0  0  0
  -26.3002  -29.6681   24.1307 H   0  0  0  0  0  0
  -27.4194  -29.7327   25.4731 H   0  0  0  0  0  0
  -27.8819  -30.4306   23.9400 H   0  0  0  0  0  0
  -27.2750  -33.3640   26.2026 H   0  0  0  0  0  0
  -28.3922  -32.6799   25.0316 H   0  0  0  0  0  0
  -28.0741  -31.8452   26.5445 H   0  0  0  0  0  0
  -28.2538  -38.0128   24.7610 H   0  0  0  0  0  0
  -28.1147  -36.2673   24.6161 H   0  0  0  0  0  0
  -27.2317  -37.1248   25.8865 H   0  0  0  0  0  0
  -20.9378  -29.8739   21.6834 H   0  0  0  0  0  0
  -26.0143  -38.2832   24.1519 H   0  0  0  0  0  0
  -32.2160  -19.7554   20.0398 H   0  0  0  0  0  0
  -32.4150  -17.0853   20.1984 H   0  0  0  0  0  0
  -27.8724  -22.5457   21.9322 H   0  0  0  0  0  0
  -26.6488  -22.6148   20.7079 H   0  0  0  0  0  0
  -30.5815  -24.0394   19.7929 H   0  0  0  0  0  0
  -30.2609  -23.4062   21.3783 H   0  0  0  0  0  0
  -27.7902  -20.8845   19.3514 H   0  0  0  0  0  0
  -27.5860  -20.3044   20.9849 H   0  0  0  0  0  0
  -31.4080  -21.7251   20.0317 H   0  0  0  0  0  0
  -30.2217  -21.8095   18.7574 H   0  0  0  0  0  0
  -28.5051  -25.1756   21.8003 H   0  0  0  0  0  0
  -26.9844  -25.0361   21.0368 H   0  0  0  0  0  0
  -28.9431  -15.6238   20.9304 H   0  0  0  0  0  0
  1 25  1  0  0  0
  1 30  2  0  0  0
  1 82  1  0  0  0
  2  3  1  0  0  0
  2 25  1  0  0  0
  2 85  1  0  0  0
  2 86  1  0  0  0
  3  4  1  0  0  0
  3 87  1  0  0  0
  3 88  1  0  0  0
  4  5  1  0  0  0
  4 89  1  0  0  0
  4 90  1  0  0  0
  5  6  1  0  0  0
  5 26  1  0  0  0
  5 91  1  0  0  0
  6 25  1  0  0  0
  6 92  1  0  0  0
  6 93  1  0  0  0
  7  8  2  0  0  0
  7 26  1  0  0  0
  7 29  1  0  0  0
  8  9  1  0  0  0
  8 22  1  0  0  0
  9 10  1  0  0  0
  9 27  2  0  0  0
 10 11  2  0  0  0
 10 15  1  0  0  0
 11 12  1  0  0  0
 11 94  1  0  0  0
 12 13  2  0  0  0
 12 95  1  0  0  0
 13 14  1  0  0  0
 13 31  1  0  0  0
 14 15  2  0  0  0
 14 96  1  0  0  0
 15 97  1  0  0  0
 16 17  2  0  0  0
 16 21  1  0  0  0
 16 31  1  0  0  0
 17 18  1  0  0  0
 17 98  1  0  0  0
 18 19  2  0  0  0
 18 99  1  0  0  0
 19 20  1  0  0  0
 19 24  1  0  0  0
 20 21  2  0  0  0
 20100  1  0  0  0
 21 23  1  0  0  0
 22 28  1  0  0  0
 22 32  2  0  0  0
 26 27  1  0  0  0
 28101  1  0  0  0
 28102  1  0  0  0
 29103  1  0  0  0
 29104  1  0  0  0
 33 34  1  0  0  0
 33 66  1  0  0  0
 33 70  2  0  0  0
 34 36  1  0  0  0
 34 59  1  0  0  0
 34105  1  0  0  0
 35 44  2  0  0  0
 35 45  1  0  0  0
 35 68  1  0  0  0
 36 56  1  0  0  0
 36106  1  0  0  0
 37 39  1  0  0  0
 37 47  1  0  0  0
 37 66  1  0  0  0
 37107  1  0  0  0
 38 43  2  0  0  0
 38 46  1  0  0  0
 38 47  1  0  0  0
 39 64  1  0  0  0
 39 67  2  0  0  0
 40 52  1  0  0  0
 40 53  2  0  0  0
 40 58  1  0  0  0
 41108  1  0  0  0
 41109  1  0  0  0
 41110  1  0  0  0
 41 48  1  0  0  0
 42 43  1  0  0  0
 42 66  1  0  0  0
 42111  1  0  0  0
 42112  1  0  0  0
 43 44  1  0  0  0
 44113  1  0  0  0
 45 46  2  0  0  0
 45114  1  0  0  0
 46115  1  0  0  0
 47116  1  0  0  0
 47117  1  0  0  0
 48 56  1  0  0  0
 48 65  1  0  0  0
 48118  1  0  0  0
 49 50  1  0  0  0
 49 53  1  0  0  0
 49 64  1  0  0  0
 49119  1  0  0  0
 50 51  1  0  0  0
 50120  1  0  0  0
 50121  1  0  0  0
 51 52  1  0  0  0
 51122  1  0  0  0
 51123  1  0  0  0
 52124  1  0  0  0
 52125  1  0  0  0
 53 54  1  0  0  0
 54 55  2  0  0  0
 54126  1  0  0  0
 55 57  1  0  0  0
 55127  1  0  0  0
 56 69  2  0  0  0
 57 58  2  0  0  0
 57128  1  0  0  0
 58129  1  0  0  0
 59 60  1  0  0  0
 59 61  1  0  0  0
 59 62  1  0  0  0
 60130  1  0  0  0
 60131  1  0  0  0
 60132  1  0  0  0
 61133  1  0  0  0
 61134  1  0  0  0
 61135  1  0  0  0
 62136  1  0  0  0
 62137  1  0  0  0
 62138  1  0  0  0
 63 65  1  0  0  0
 63139  1  0  0  0
 63140  1  0  0  0
 63141  1  0  0  0
 64142  1  0  0  0
 65143  1  0  0  0
 68 80  1  0  0  0
 71 72  1  0  0  0
 71 73  2  0  0  0
 71144  1  0  0  0
 72 74  2  0  0  0
 72145  1  0  0  0
 73 81  1  0  0  0
 73 83  1  0  0  0
 74 82  1  0  0  0
 74 83  1  0  0  0
 75 77  1  0  0  0
 75 79  1  0  0  0
 75146  1  0  0  0
 75147  1  0  0  0
 76 78  1  0  0  0
 76 79  1  0  0  0
 76148  1  0  0  0
 76149  1  0  0  0
 77 81  1  0  0  0
 77150  1  0  0  0
 77151  1  0  0  0
 78 81  1  0  0  0
 78152  1  0  0  0
 78153  1  0  0  0
 79 80  1  0  0  0
 79 84  1  0  0  0
 80154  1  0  0  0
 80155  1  0  0  0
 82156  1  0  0  0
M  ISO  4   1 100  68 101  80 101  82 100
M  END
> <chiral flag>
0

> <version>
0

> <s_m_source_file>
/data/baiqing/PycharmProjects/Reinvent-master-3.2/result/LINK_invent/BTK/process_docking_weight1_custom_product_contain_oxygen_bond_distance_aromatic_linkinvent_7_9_3/rearranged_h_0155.sdf

> <i_m_source_file_index>
56

> <r_mmod_Potential_Energy-OPLS-2005>
94.8782806396484

> <r_mmod_Stretch_Energy-OPLS-2005>
86.5847702026367

> <r_mmod_Bend_Energy-OPLS-2005>
159.442565917969

> <r_mmod_Torsional_Energy-OPLS-2005>
263.026550292969

> <r_mmod_Improper_Torsional_Energy-OPLS-2005>
7.0846061706543

> <r_mmod_Van_der_Waal_Energy-OPLS-2005>
134.774780273438

> <r_mmod_Electrostatic_Energy-OPLS-2005>
-392.532897949219

> <r_mmod_Solvation_Energy-OPLS-2005>
-220.950927734375

> <b_mmod_Minimization_Converged-OPLS-2005>
0

> <r_mmod_RMS_Derivative-OPLS-2005>
1.5906640291214

$$$$
56
                    3D
 Structure written by MMmdl.
162171  0  0  1  0            999 V2000
  -30.6750  -14.5118   20.5599 C   0  0  0  0  0  0
  -30.4352  -12.3285   19.4246 C   0  0  0  0  0  0
  -29.5015  -12.5104   18.2088 C   0  0  0  0  0  0
  -28.0231  -12.3612   18.6217 C   0  0  0  0  0  0
  -27.6633  -13.2025   19.8751 C   0  0  2  0  0  0
  -28.7077  -12.9888   20.9959 C   0  0  0  0  0  0
  -25.2594  -13.8135   20.5681 C   0  0  0  0  0  0
  -24.1842  -13.0420   20.9171 C   0  0  0  0  0  0
  -24.6395  -11.6888   20.8727 C   0  0  0  0  0  0
  -23.9058  -10.4277   21.0399 C   0  0  0  0  0  0
  -24.3607   -9.4200   21.9181 C   0  0  0  0  0  0
  -23.6279   -8.2240   22.0757 C   0  0  0  0  0  0
  -22.4262   -8.0275   21.3549 C   0  0  0  0  0  0
  -21.9890   -9.0255   20.4655 C   0  0  0  0  0  0
  -22.7225  -10.2126   20.3059 C   0  0  0  0  0  0
  -21.6853   -6.0722   22.5274 C   0  0  0  0  0  0
  -21.4021   -6.5630   23.8208 C   0  0  0  0  0  0
  -21.3658   -5.6789   24.9168 C   0  0  0  0  0  0
  -21.6039   -4.3048   24.7220 C   0  0  0  0  0  0
  -21.8824   -3.8138   23.4347 C   0  0  0  0  0  0
  -21.9196   -4.6954   22.3401 C   0  0  0  0  0  0
  -22.7868  -13.5233   21.1832 C   0  0  0  0  0  0
  -22.1664   -4.2138   21.0976 F   0  0  0  0  0  0
  -21.5620   -3.4535   25.7738 F   0  0  0  0  0  0
  -30.0390  -13.3105   20.4475 N   0  0  0  0  0  0
  -26.3030  -12.9300   20.3357 N   0  0  0  0  0  0
  -25.9325  -11.6465   20.5759 N   0  0  0  0  0  0
  -22.0504  -12.8244   22.0394 N   0  0  0  0  0  0
  -25.4293  -15.1860   20.4112 N   0  0  0  0  0  0
  -31.7974  -14.7218   20.0876 O   0  0  0  0  0  0
  -21.6636   -6.8865   21.4237 O   0  0  0  0  0  0
  -22.3564  -14.5540   20.6677 O   0  0  0  0  0  0
  -24.6163  -31.8665   23.2100 C   0  0  0  0  0  0
  -25.9045  -32.4819   23.8407 C   0  0  1  0  0  0
  -27.2422  -27.4199   20.1038 C   0  0  0  0  0  0
  -25.5898  -33.8619   24.2341 N   0  0  0  0  0  0
  -23.4078  -30.4887   21.5485 C   0  0  2  0  0  0
  -24.8607  -28.9573   20.1111 C   0  0  0  0  0  0
  -22.7435  -29.4640   22.4963 C   0  0  0  0  0  0
  -18.0282  -28.1372   22.8473 C   0  0  0  0  0  0
  -24.1486  -36.7314   23.2635 C   0  0  0  0  0  0
  -25.9388  -30.8284   21.3679 C   0  0  0  0  0  0
  -26.0207  -29.4617   20.7148 C   0  0  0  0  0  0
  -27.2155  -28.6980   20.7133 C   0  0  0  0  0  0
  -26.0674  -26.9405   19.4870 C   0  0  0  0  0  0
  -24.8795  -27.6953   19.4932 C   0  0  0  0  0  0
  -23.6209  -29.8241   20.1618 C   0  0  0  0  0  0
  -25.4099  -36.3108   24.0341 C   0  0  1  0  0  0
  -20.5873  -28.3664   23.1296 C   0  0  2  0  0  0
  -20.6766  -26.9393   22.5412 C   0  0  0  0  0  0
  -19.5751  -26.6369   21.5202 C   0  0  0  0  0  0
  -18.1928  -26.7917   22.1608 C   0  0  0  0  0  0
  -19.1532  -28.8833   23.2881 C   0  0  0  0  0  0
  -18.9461  -30.1436   23.8899 C   0  0  0  0  0  0
  -17.6463  -30.6569   24.0565 C   0  0  0  0  0  0
  -25.9029  -34.9471   23.5136 C   0  0  0  0  0  0
  -16.5353  -29.9072   23.6324 C   0  0  0  0  0  0
  -16.7273  -28.6495   23.0336 C   0  0  0  0  0  0
  -26.4469  -31.6593   25.0731 C   0  0  0  0  0  0
  -25.3743  -31.3710   26.1490 C   0  0  0  0  0  0
  -27.0293  -30.3033   24.6109 C   0  0  0  0  0  0
  -27.6067  -32.4290   25.7475 C   0  0  0  0  0  0
  -27.5585  -37.1798   24.8453 C   0  0  0  0  0  0
  -21.4158  -29.3027   22.3702 N   0  0  0  0  0  0
  -26.4281  -37.3795   23.9419 N   0  0  0  0  0  0
  -24.6722  -31.0751   22.1006 N   0  0  0  0  0  0
  -23.4193  -28.8178   23.3014 O   0  0  0  0  0  0
  -28.3604  -26.6085   20.1340 O   0  0  0  0  0  0
  -26.5591  -34.8920   22.4698 O   0  0  0  0  0  0
  -23.5350  -32.1420   23.7479 O   0  0  0  0  0  0
  -28.7647  -18.6389   19.4556 C   0  0  0  0  0  0
  -28.8820  -17.2824   19.8292 C   0  0  0  0  0  0
  -30.6720  -19.2006   20.8474 C   0  0  0  0  0  0
  -29.6508  -19.6207   19.9600 C   0  0  0  0  0  0
  -29.9074  -16.8578   20.7022 C   0  0  0  0  0  0
  -30.8013  -17.8331   21.2130 C   0  0  0  0  0  0
  -29.4992  -21.0160   19.4716 C   0  0  0  0  0  0
  -28.9220  -23.5081   22.1748 C   0  0  0  0  0  0
  -29.3986  -22.1211   21.7149 C   0  0  0  0  0  0
  -29.0931  -24.4560   20.9737 C   0  0  1  0  0  0
  -28.9127  -23.4877   19.7663 C   0  0  2  0  0  0
  -27.4850  -23.4855   19.1782 C   0  0  0  0  0  0
  -29.3138  -22.1257   20.2450 N   0  0  0  0  0  0
  -29.9380  -15.4896   21.1206 N   0  0  0  0  0  0
  -28.1224  -25.5595   21.1229 N   0  0  0  0  0  0
  -29.4984  -21.1764   18.1506 N   0  3  0  0  0  0
  -31.7789  -17.4656   22.0772 F   0  0  0  0  0  0
  -31.4776  -12.4404   19.1216 H   0  0  0  0  0  0
  -30.3488  -11.3167   19.8230 H   0  0  0  0  0  0
  -29.7472  -11.7832   17.4336 H   0  0  0  0  0  0
  -29.6627  -13.4948   17.7652 H   0  0  0  0  0  0
  -27.8412  -11.3047   18.8223 H   0  0  0  0  0  0
  -27.3713  -12.6281   17.7889 H   0  0  0  0  0  0
  -27.7024  -14.2473   19.5721 H   0  0  0  0  0  0
  -28.6928  -11.9517   21.3330 H   0  0  0  0  0  0
  -28.4614  -13.5789   21.8795 H   0  0  0  0  0  0
  -25.2754   -9.5670   22.4752 H   0  0  0  0  0  0
  -23.9987   -7.4629   22.7478 H   0  0  0  0  0  0
  -21.0813   -8.8775   19.8967 H   0  0  0  0  0  0
  -22.3685  -10.9664   19.6164 H   0  0  0  0  0  0
  -21.2026   -7.6143   23.9703 H   0  0  0  0  0  0
  -21.1470   -6.0519   25.9066 H   0  0  0  0  0  0
  -22.0608   -2.7601   23.2856 H   0  0  0  0  0  0
  -22.4090  -11.9898   22.4786 H   0  0  0  0  0  0
  -21.1133  -13.1304   22.2598 H   0  0  0  0  0  0
  -24.6573  -15.8349   20.5169 H   0  0  0  0  0  0
  -26.2716  -15.6284   20.0730 H   0  0  0  0  0  0
  -26.7125  -32.5535   23.1185 H   0  0  0  0  0  0
  -25.0054  -33.9786   25.0489 H   0  0  0  0  0  0
  -22.6970  -31.3054   21.4084 H   0  0  0  0  0  0
  -23.3748  -35.9646   23.3279 H   0  0  0  0  0  0
  -24.3603  -36.8950   22.2057 H   0  0  0  0  0  0
  -23.7231  -37.6510   23.6662 H   0  0  0  0  0  0
  -26.0523  -31.5945   20.5997 H   0  0  0  0  0  0
  -26.8254  -30.8849   21.9876 H   0  0  0  0  0  0
  -28.1079  -29.0738   21.1939 H   0  0  0  0  0  0
  -26.0637  -25.9673   19.0229 H   0  0  0  0  0  0
  -23.9896  -27.2992   19.0236 H   0  0  0  0  0  0
  -23.7315  -30.6016   19.4050 H   0  0  0  0  0  0
  -22.7459  -29.2453   19.8610 H   0  0  0  0  0  0
  -25.1265  -36.1976   25.0833 H   0  0  0  0  0  0
  -20.9963  -28.3235   24.1417 H   0  0  0  0  0  0
  -20.5644  -26.2277   23.3605 H   0  0  0  0  0  0
  -21.6645  -26.7418   22.1228 H   0  0  0  0  0  0
  -19.6918  -25.6281   21.1226 H   0  0  0  0  0  0
  -19.6688  -27.3179   20.6731 H   0  0  0  0  0  0
  -17.4199  -26.6656   21.4011 H   0  0  0  0  0  0
  -18.0339  -26.0055   22.9003 H   0  0  0  0  0  0
  -19.7940  -30.7247   24.2269 H   0  0  0  0  0  0
  -17.5021  -31.6250   24.5161 H   0  0  0  0  0  0
  -15.5355  -30.2977   23.7636 H   0  0  0  0  0  0
  -15.8678  -28.0813   22.7042 H   0  0  0  0  0  0
  -24.5899  -30.7075   25.7832 H   0  0  0  0  0  0
  -24.8960  -32.2876   26.4956 H   0  0  0  0  0  0
  -25.8098  -30.8861   27.0236 H   0  0  0  0  0  0
  -26.2837  -29.6794   24.1167 H   0  0  0  0  0  0
  -27.4069  -29.7266   25.4562 H   0  0  0  0  0  0
  -27.8672  -30.4347   23.9261 H   0  0  0  0  0  0
  -27.2718  -33.3578   26.2100 H   0  0  0  0  0  0
  -28.3848  -32.6856   25.0274 H   0  0  0  0  0  0
  -28.0769  -31.8382   26.5347 H   0  0  0  0  0  0
  -28.2573  -38.0126   24.7549 H   0  0  0  0  0  0
  -28.1111  -36.2666   24.6196 H   0  0  0  0  0  0
  -27.2329  -37.1357   25.8861 H   0  0  0  0  0  0
  -20.9323  -29.8768   21.6938 H   0  0  0  0  0  0
  -26.0169  -38.2865   24.1455 H   0  0  0  0  0  0
  -27.9757  -18.9257   18.7728 H   0  0  0  0  0  0
  -28.1763  -16.5705   19.4288 H   0  0  0  0  0  0
  -31.3786  -19.9180   21.2372 H   0  0  0  0  0  0
  -29.4918  -23.8570   23.0365 H   0  0  0  0  0  0
  -27.8781  -23.4369   22.4838 H   0  0  0  0  0  0
  -28.7989  -21.3261   22.1623 H   0  0  0  0  0  0
  -30.4360  -21.9662   22.0155 H   0  0  0  0  0  0
  -30.1060  -24.8603   20.9671 H   0  0  0  0  0  0
  -29.6070  -23.7924   18.9803 H   0  0  0  0  0  0
  -26.7264  -23.6439   19.9448 H   0  0  0  0  0  0
  -27.2318  -22.5568   18.6697 H   0  0  0  0  0  0
  -27.3903  -24.2831   18.4426 H   0  0  0  0  0  0
  -29.0722  -15.1481   21.5049 H   0  0  0  0  0  0
  -28.2704  -26.0066   22.0222 H   0  0  0  0  0  0
  -29.6627  -20.3741   17.5619 H   0  0  0  0  0  0
  -29.4273  -22.0816   17.7201 H   0  0  0  0  0  0
  1 25  1  0  0  0
  1 30  2  0  0  0
  1 84  1  0  0  0
  2  3  1  0  0  0
  2 25  1  0  0  0
  2 88  1  0  0  0
  2 89  1  0  0  0
  3  4  1  0  0  0
  3 90  1  0  0  0
  3 91  1  0  0  0
  4  5  1  0  0  0
  4 92  1  0  0  0
  4 93  1  0  0  0
  5  6  1  0  0  0
  5 26  1  0  0  0
  5 94  1  0  0  0
  6 25  1  0  0  0
  6 95  1  0  0  0
  6 96  1  0  0  0
  7  8  2  0  0  0
  7 26  1  0  0  0
  7 29  1  0  0  0
  8  9  1  0  0  0
  8 22  1  0  0  0
  9 10  1  0  0  0
  9 27  2  0  0  0
 10 11  2  0  0  0
 10 15  1  0  0  0
 11 12  1  0  0  0
 11 97  1  0  0  0
 12 13  2  0  0  0
 12 98  1  0  0  0
 13 14  1  0  0  0
 13 31  1  0  0  0
 14 15  2  0  0  0
 14 99  1  0  0  0
 15100  1  0  0  0
 16 17  2  0  0  0
 16 21  1  0  0  0
 16 31  1  0  0  0
 17 18  1  0  0  0
 17101  1  0  0  0
 18 19  2  0  0  0
 18102  1  0  0  0
 19 20  1  0  0  0
 19 24  1  0  0  0
 20 21  2  0  0  0
 20103  1  0  0  0
 21 23  1  0  0  0
 22 28  1  0  0  0
 22 32  2  0  0  0
 26 27  1  0  0  0
 28104  1  0  0  0
 28105  1  0  0  0
 29106  1  0  0  0
 29107  1  0  0  0
 33 34  1  0  0  0
 33 66  1  0  0  0
 33 70  2  0  0  0
 34 36  1  0  0  0
 34 59  1  0  0  0
 34108  1  0  0  0
 35 44  2  0  0  0
 35 45  1  0  0  0
 35 68  1  0  0  0
 36 56  1  0  0  0
 36109  1  0  0  0
 37 39  1  0  0  0
 37 47  1  0  0  0
 37 66  1  0  0  0
 37110  1  0  0  0
 38 43  2  0  0  0
 38 46  1  0  0  0
 38 47  1  0  0  0
 39 64  1  0  0  0
 39 67  2  0  0  0
 40 52  1  0  0  0
 40 53  2  0  0  0
 40 58  1  0  0  0
 41111  1  0  0  0
 41112  1  0  0  0
 41113  1  0  0  0
 41 48  1  0  0  0
 42 43  1  0  0  0
 42 66  1  0  0  0
 42114  1  0  0  0
 42115  1  0  0  0
 43 44  1  0  0  0
 44116  1  0  0  0
 45 46  2  0  0  0
 45117  1  0  0  0
 46118  1  0  0  0
 47119  1  0  0  0
 47120  1  0  0  0
 48 56  1  0  0  0
 48 65  1  0  0  0
 48121  1  0  0  0
 49 50  1  0  0  0
 49 53  1  0  0  0
 49 64  1  0  0  0
 49122  1  0  0  0
 50 51  1  0  0  0
 50123  1  0  0  0
 50124  1  0  0  0
 51 52  1  0  0  0
 51125  1  0  0  0
 51126  1  0  0  0
 52127  1  0  0  0
 52128  1  0  0  0
 53 54  1  0  0  0
 54 55  2  0  0  0
 54129  1  0  0  0
 55 57  1  0  0  0
 55130  1  0  0  0
 56 69  2  0  0  0
 57 58  2  0  0  0
 57131  1  0  0  0
 58132  1  0  0  0
 59 60  1  0  0  0
 59 61  1  0  0  0
 59 62  1  0  0  0
 60133  1  0  0  0
 60134  1  0  0  0
 60135  1  0  0  0
 61136  1  0  0  0
 61137  1  0  0  0
 61138  1  0  0  0
 62139  1  0  0  0
 62140  1  0  0  0
 62141  1  0  0  0
 63 65  1  0  0  0
 63142  1  0  0  0
 63143  1  0  0  0
 63144  1  0  0  0
 64145  1  0  0  0
 65146  1  0  0  0
 68 85  1  0  0  0
 71 72  2  0  0  0
 71 74  1  0  0  0
 71147  1  0  0  0
 72 75  1  0  0  0
 72148  1  0  0  0
 73 74  2  0  0  0
 73 76  1  0  0  0
 73149  1  0  0  0
 74 77  1  0  0  0
 75 76  2  0  0  0
 75 84  1  0  0  0
 76 87  1  0  0  0
 77 83  1  0  0  0
 77 86  2  0  0  0
 78 79  1  0  0  0
 78 80  1  0  0  0
 78150  1  0  0  0
 78151  1  0  0  0
 79 83  1  0  0  0
 79152  1  0  0  0
 79153  1  0  0  0
 80 81  1  0  0  0
 80 85  1  0  0  0
 80154  1  0  0  0
 81 82  1  0  0  0
 81 83  1  0  0  0
 81155  1  0  0  0
 82156  1  0  0  0
 82157  1  0  0  0
 82158  1  0  0  0
 84159  1  0  0  0
 85160  1  0  0  0
 86161  1  0  0  0
 86162  1  0  0  0
M  CHG  1  86   1
M  ISO  4   1 100  68 101  84 100  85 101
M  END
> <chiral flag>
0

> <version>
0

> <s_m_source_file>
/data/baiqing/PycharmProjects/Reinvent-master-3.2/result/LINK_invent/BTK/process_docking_weight1_custom_product_contain_oxygen_bond_distance_aromatic_linkinvent_7_9_3/rearranged_h_0155.sdf

> <i_m_source_file_index>
57

> <r_mmod_Potential_Energy-OPLS-2005>
-194.332534790039

> <r_mmod_Stretch_Energy-OPLS-2005>
44.4600448608398

> <r_mmod_Bend_Energy-OPLS-2005>
130.804550170898

> <r_mmod_Torsional_Energy-OPLS-2005>
335.524291992188

> <r_mmod_Improper_Torsional_Energy-OPLS-2005>
5.99024534225464

> <r_mmod_Van_der_Waal_Energy-OPLS-2005>
144.203857421875

> <r_mmod_Electrostatic_Energy-OPLS-2005>
-453.832885742188

> <r_mmod_Solvation_Energy-OPLS-2005>
-419.267578125

> <b_mmod_Minimization_Converged-OPLS-2005>
0

> <r_mmod_RMS_Derivative-OPLS-2005>
1.35930395126343

$$$$
57
                    3D
 Structure written by MMmdl.
148156  0  0  1  0            999 V2000
  -30.6498  -14.7477   20.4460 C   0  0  0  0  0  0
  -30.4195  -12.4548   19.4799 C   0  0  0  0  0  0
  -29.5055  -12.5013   18.2377 C   0  0  0  0  0  0
  -28.0329  -12.3286   18.6527 C   0  0  0  0  0  0
  -27.6370  -13.2393   19.8460 C   0  0  2  0  0  0
  -28.6827  -13.2041   20.9823 C   0  0  0  0  0  0
  -25.2488  -13.8217   20.5709 C   0  0  0  0  0  0
  -24.1791  -13.0448   20.9219 C   0  0  0  0  0  0
  -24.6393  -11.6929   20.8755 C   0  0  0  0  0  0
  -23.9075  -10.4299   21.0409 C   0  0  0  0  0  0
  -24.3625   -9.4211   21.9184 C   0  0  0  0  0  0
  -23.6299   -8.2246   22.0753 C   0  0  0  0  0  0
  -22.4281   -8.0284   21.3544 C   0  0  0  0  0  0
  -21.9918   -9.0258   20.4646 C   0  0  0  0  0  0
  -22.7248  -10.2137   20.3057 C   0  0  0  0  0  0
  -21.6855   -6.0737   22.5279 C   0  0  0  0  0  0
  -21.4016   -6.5641   23.8212 C   0  0  0  0  0  0
  -21.3660   -5.6793   24.9174 C   0  0  0  0  0  0
  -21.6044   -4.3056   24.7225 C   0  0  0  0  0  0
  -21.8819   -3.8148   23.4346 C   0  0  0  0  0  0
  -21.9194   -4.6964   22.3402 C   0  0  0  0  0  0
  -22.7810  -13.5220   21.1874 C   0  0  0  0  0  0
  -22.1662   -4.2150   21.0980 F   0  0  0  0  0  0
  -21.5628   -3.4539   25.7737 F   0  0  0  0  0  0
  -29.9823  -13.5411   20.3910 N   0  0  0  0  0  0
  -26.2917  -12.9439   20.3281 N   0  0  0  0  0  0
  -25.9326  -11.6574   20.5761 N   0  0  0  0  0  0
  -22.0461  -12.8205   22.0429 N   0  0  0  0  0  0
  -25.4161  -15.1945   20.4129 N   0  0  0  0  0  0
  -31.8502  -14.7482   20.1602 O   0  0  0  0  0  0
  -21.6644   -6.8881   21.4241 O   0  0  0  0  0  0
  -22.3491  -14.5523   20.6719 O   0  0  0  0  0  0
  -24.6322  -31.8554   23.1996 C   0  0  0  0  0  0
  -25.9146  -32.4755   23.8340 C   0  0  1  0  0  0
  -27.2083  -27.2515   20.1355 C   0  0  0  0  0  0
  -25.5941  -33.8558   24.2259 N   0  0  0  0  0  0
  -23.4291  -30.4798   21.5431 C   0  0  2  0  0  0
  -24.8760  -28.9302   20.1089 C   0  0  0  0  0  0
  -22.7509  -29.4604   22.4907 C   0  0  0  0  0  0
  -18.0294  -28.1388   22.8484 C   0  0  0  0  0  0
  -24.1490  -36.7282   23.2640 C   0  0  0  0  0  0
  -25.9771  -30.7648   21.3835 C   0  0  0  0  0  0
  -26.0486  -29.3873   20.7251 C   0  0  0  0  0  0
  -27.2202  -28.5604   20.7287 C   0  0  0  0  0  0
  -26.0230  -26.8818   19.4626 C   0  0  0  0  0  0
  -24.8692  -27.6858   19.4643 C   0  0  0  0  0  0
  -23.6479  -29.8180   20.1580 C   0  0  0  0  0  0
  -25.4117  -36.3069   24.0326 C   0  0  1  0  0  0
  -20.5900  -28.3701   23.1263 C   0  0  2  0  0  0
  -20.6782  -26.9417   22.5405 C   0  0  0  0  0  0
  -19.5755  -26.6384   21.5211 C   0  0  0  0  0  0
  -18.1937  -26.7930   22.1626 C   0  0  0  0  0  0
  -19.1548  -28.8862   23.2868 C   0  0  0  0  0  0
  -18.9469  -30.1463   23.8887 C   0  0  0  0  0  0
  -17.6467  -30.6588   24.0562 C   0  0  0  0  0  0
  -25.9059  -34.9440   23.5094 C   0  0  0  0  0  0
  -16.5358  -29.9084   23.6333 C   0  0  0  0  0  0
  -16.7280  -28.6503   23.0353 C   0  0  0  0  0  0
  -26.4508  -31.6582   25.0733 C   0  0  0  0  0  0
  -25.3724  -31.3739   26.1447 C   0  0  0  0  0  0
  -27.0361  -30.2996   24.6235 C   0  0  0  0  0  0
  -27.6057  -32.4328   25.7508 C   0  0  0  0  0  0
  -27.5578  -37.1798   24.8466 C   0  0  0  0  0  0
  -21.4215  -29.3047   22.3650 N   0  0  0  0  0  0
  -26.4291  -37.3768   23.9407 N   0  0  0  0  0  0
  -24.6985  -31.0514   22.0980 N   0  0  0  0  0  0
  -23.4206  -28.8140   23.3005 O   0  0  0  0  0  0
  -28.2713  -26.3163   20.1875 O   0  0  0  0  0  0
  -26.5629  -34.8914   22.4662 O   0  0  0  0  0  0
  -23.5469  -32.1382   23.7284 O   0  0  0  0  0  0
  -29.7785  -19.8887   20.4825 C   0  0  0  0  0  0
  -27.6441  -19.6871   20.8549 C   0  0  0  0  0  0
  -28.5741  -20.6899   20.6756 C   0  0  0  0  0  0
  -29.5017  -18.5117   20.5826 C   0  0  0  0  0  0
  -28.0812  -22.1753   20.8083 C   0  0  0  0  0  0
  -30.4023  -17.2461   20.5106 C   0  0  0  0  0  0
  -28.7694  -23.5363   20.3123 C   0  0  0  0  0  0
  -27.9277  -24.9051   20.6163 C   0  0  0  0  0  0
  -29.9323  -15.9354   20.6020 N   0  0  0  0  0  0
  -26.9860  -22.3283   21.3596 O   0  0  0  0  0  0
  -31.6047  -17.4903   20.3582 O   0  0  0  0  0  0
  -28.1620  -18.4088   20.7990 O   0  0  0  0  0  0
  -31.4632  -12.5496   19.1762 H   0  0  0  0  0  0
  -30.3449  -11.4868   19.9781 H   0  0  0  0  0  0
  -29.7882  -11.7211   17.5298 H   0  0  0  0  0  0
  -29.6348  -13.4512   17.7165 H   0  0  0  0  0  0
  -27.8922  -11.2820   18.9253 H   0  0  0  0  0  0
  -27.3749  -12.5109   17.8022 H   0  0  0  0  0  0
  -27.6227  -14.2552   19.4508 H   0  0  0  0  0  0
  -28.7179  -12.2194   21.4508 H   0  0  0  0  0  0
  -28.4195  -13.9110   21.7707 H   0  0  0  0  0  0
  -25.2768   -9.5687   22.4761 H   0  0  0  0  0  0
  -24.0008   -7.4637   22.7472 H   0  0  0  0  0  0
  -21.0849   -8.8777   19.8951 H   0  0  0  0  0  0
  -22.3705  -10.9676   19.6167 H   0  0  0  0  0  0
  -21.2009   -7.6149   23.9716 H   0  0  0  0  0  0
  -21.1482   -6.0523   25.9077 H   0  0  0  0  0  0
  -22.0597   -2.7610   23.2846 H   0  0  0  0  0  0
  -22.4085  -11.9870   22.4817 H   0  0  0  0  0  0
  -21.1076  -13.1221   22.2635 H   0  0  0  0  0  0
  -24.6457  -15.8448   20.5247 H   0  0  0  0  0  0
  -26.2588  -15.6383   20.0719 H   0  0  0  0  0  0
  -26.7212  -32.5402   23.1079 H   0  0  0  0  0  0
  -25.0085  -33.9696   25.0403 H   0  0  0  0  0  0
  -22.7260  -31.3027   21.3988 H   0  0  0  0  0  0
  -23.3753  -35.9613   23.3301 H   0  0  0  0  0  0
  -24.3579  -36.8905   22.2054 H   0  0  0  0  0  0
  -23.7244  -37.6483   23.6665 H   0  0  0  0  0  0
  -26.1199  -31.5252   20.6145 H   0  0  0  0  0  0
  -26.8533  -30.8116   22.0184 H   0  0  0  0  0  0
  -28.1144  -28.9009   21.2319 H   0  0  0  0  0  0
  -25.9656  -25.9428   18.9319 H   0  0  0  0  0  0
  -23.9775  -27.3375   18.9612 H   0  0  0  0  0  0
  -23.7740  -30.5963   19.4045 H   0  0  0  0  0  0
  -22.7657  -29.2534   19.8508 H   0  0  0  0  0  0
  -25.1300  -36.1915   25.0818 H   0  0  0  0  0  0
  -20.9995  -28.3280   24.1383 H   0  0  0  0  0  0
  -20.5684  -26.2311   23.3611 H   0  0  0  0  0  0
  -21.6649  -26.7440   22.1197 H   0  0  0  0  0  0
  -19.6916  -25.6293   21.1246 H   0  0  0  0  0  0
  -19.6691  -27.3190   20.6738 H   0  0  0  0  0  0
  -17.4205  -26.6674   21.4030 H   0  0  0  0  0  0
  -18.0339  -26.0074   22.9026 H   0  0  0  0  0  0
  -19.7944  -30.7283   24.2249 H   0  0  0  0  0  0
  -17.5021  -31.6267   24.5166 H   0  0  0  0  0  0
  -15.5358  -30.2983   23.7663 H   0  0  0  0  0  0
  -15.8681  -28.0820   22.7072 H   0  0  0  0  0  0
  -24.5903  -30.7083   25.7774 H   0  0  0  0  0  0
  -24.8911  -32.2911   26.4851 H   0  0  0  0  0  0
  -25.8034  -30.8930   27.0237 H   0  0  0  0  0  0
  -26.2954  -29.6736   24.1244 H   0  0  0  0  0  0
  -27.4017  -29.7266   25.4767 H   0  0  0  0  0  0
  -27.8843  -30.4263   23.9504 H   0  0  0  0  0  0
  -27.2662  -33.3636   26.2065 H   0  0  0  0  0  0
  -28.3878  -32.6877   25.0344 H   0  0  0  0  0  0
  -28.0714  -31.8467   26.5441 H   0  0  0  0  0  0
  -28.2596  -38.0095   24.7510 H   0  0  0  0  0  0
  -28.1074  -36.2625   24.6297 H   0  0  0  0  0  0
  -27.2295  -37.1452   25.8868 H   0  0  0  0  0  0
  -20.9401  -29.8774   21.6859 H   0  0  0  0  0  0
  -26.0168  -38.2842   24.1406 H   0  0  0  0  0  0
  -30.7732  -20.2803   20.3229 H   0  0  0  0  0  0
  -26.5796  -19.7149   21.0491 H   0  0  0  0  0  0
  -28.9287  -23.4440   19.2387 H   0  0  0  0  0  0
  -29.7569  -23.6022   20.7673 H   0  0  0  0  0  0
  -27.8515  -24.9732   21.7022 H   0  0  0  0  0  0
  -26.9116  -24.6742   20.3078 H   0  0  0  0  0  0
  -28.9422  -15.8494   20.7548 H   0  0  0  0  0  0
  1 25  1  0  0  0
  1 30  2  0  0  0
  1 79  1  0  0  0
  2  3  1  0  0  0
  2 25  1  0  0  0
  2 83  1  0  0  0
  2 84  1  0  0  0
  3  4  1  0  0  0
  3 85  1  0  0  0
  3 86  1  0  0  0
  4  5  1  0  0  0
  4 87  1  0  0  0
  4 88  1  0  0  0
  5  6  1  0  0  0
  5 26  1  0  0  0
  5 89  1  0  0  0
  6 25  1  0  0  0
  6 90  1  0  0  0
  6 91  1  0  0  0
  7  8  2  0  0  0
  7 26  1  0  0  0
  7 29  1  0  0  0
  8  9  1  0  0  0
  8 22  1  0  0  0
  9 10  1  0  0  0
  9 27  2  0  0  0
 10 11  2  0  0  0
 10 15  1  0  0  0
 11 12  1  0  0  0
 11 92  1  0  0  0
 12 13  2  0  0  0
 12 93  1  0  0  0
 13 14  1  0  0  0
 13 31  1  0  0  0
 14 15  2  0  0  0
 14 94  1  0  0  0
 15 95  1  0  0  0
 16 17  2  0  0  0
 16 21  1  0  0  0
 16 31  1  0  0  0
 17 18  1  0  0  0
 17 96  1  0  0  0
 18 19  2  0  0  0
 18 97  1  0  0  0
 19 20  1  0  0  0
 19 24  1  0  0  0
 20 21  2  0  0  0
 20 98  1  0  0  0
 21 23  1  0  0  0
 22 28  1  0  0  0
 22 32  2  0  0  0
 26 27  1  0  0  0
 28 99  1  0  0  0
 28100  1  0  0  0
 29101  1  0  0  0
 29102  1  0  0  0
 33 34  1  0  0  0
 33 66  1  0  0  0
 33 70  2  0  0  0
 34 36  1  0  0  0
 34 59  1  0  0  0
 34103  1  0  0  0
 35 44  2  0  0  0
 35 45  1  0  0  0
 35 68  1  0  0  0
 36 56  1  0  0  0
 36104  1  0  0  0
 37 39  1  0  0  0
 37 47  1  0  0  0
 37 66  1  0  0  0
 37105  1  0  0  0
 38 43  2  0  0  0
 38 46  1  0  0  0
 38 47  1  0  0  0
 39 64  1  0  0  0
 39 67  2  0  0  0
 40 52  1  0  0  0
 40 53  2  0  0  0
 40 58  1  0  0  0
 41106  1  0  0  0
 41107  1  0  0  0
 41108  1  0  0  0
 41 48  1  0  0  0
 42 43  1  0  0  0
 42 66  1  0  0  0
 42109  1  0  0  0
 42110  1  0  0  0
 43 44  1  0  0  0
 44111  1  0  0  0
 45 46  2  0  0  0
 45112  1  0  0  0
 46113  1  0  0  0
 47114  1  0  0  0
 47115  1  0  0  0
 48 56  1  0  0  0
 48 65  1  0  0  0
 48116  1  0  0  0
 49 50  1  0  0  0
 49 53  1  0  0  0
 49 64  1  0  0  0
 49117  1  0  0  0
 50 51  1  0  0  0
 50118  1  0  0  0
 50119  1  0  0  0
 51 52  1  0  0  0
 51120  1  0  0  0
 51121  1  0  0  0
 52122  1  0  0  0
 52123  1  0  0  0
 53 54  1  0  0  0
 54 55  2  0  0  0
 54124  1  0  0  0
 55 57  1  0  0  0
 55125  1  0  0  0
 56 69  2  0  0  0
 57 58  2  0  0  0
 57126  1  0  0  0
 58127  1  0  0  0
 59 60  1  0  0  0
 59 61  1  0  0  0
 59 62  1  0  0  0
 60128  1  0  0  0
 60129  1  0  0  0
 60130  1  0  0  0
 61131  1  0  0  0
 61132  1  0  0  0
 61133  1  0  0  0
 62134  1  0  0  0
 62135  1  0  0  0
 62136  1  0  0  0
 63 65  1  0  0  0
 63137  1  0  0  0
 63138  1  0  0  0
 63139  1  0  0  0
 64140  1  0  0  0
 65141  1  0  0  0
 68 78  1  0  0  0
 71 73  1  0  0  0
 71 74  2  0  0  0
 71142  1  0  0  0
 72 73  2  0  0  0
 72 82  1  0  0  0
 72143  1  0  0  0
 73 75  1  0  0  0
 74 76  1  0  0  0
 74 82  1  0  0  0
 75 77  1  0  0  0
 75 80  2  0  0  0
 76 79  1  0  0  0
 76 81  2  0  0  0
 77 78  1  0  0  0
 77144  1  0  0  0
 77145  1  0  0  0
 78146  1  0  0  0
 78147  1  0  0  0
 79148  1  0  0  0
M  ISO  4   1 100  68 101  78 101  79 100
M  END
> <chiral flag>
0

> <version>
0

> <s_m_source_file>
/data/baiqing/PycharmProjects/Reinvent-master-3.2/result/LINK_invent/BTK/process_docking_weight1_custom_product_contain_oxygen_bond_distance_aromatic_linkinvent_7_9_3/rearranged_h_0155.sdf

> <i_m_source_file_index>
58

> <r_mmod_Potential_Energy-OPLS-2005>
154.936462402344

> <r_mmod_Stretch_Energy-OPLS-2005>
127.628479003906

> <r_mmod_Bend_Energy-OPLS-2005>
188.858444213867

> <r_mmod_Torsional_Energy-OPLS-2005>
251.650680541992

> <r_mmod_Improper_Torsional_Energy-OPLS-2005>
4.99702548980713

> <r_mmod_Van_der_Waal_Energy-OPLS-2005>
134.156051635742

> <r_mmod_Electrostatic_Energy-OPLS-2005>
-417.262756347656

> <r_mmod_Solvation_Energy-OPLS-2005>
-228.880661010742

> <b_mmod_Minimization_Converged-OPLS-2005>
0

> <r_mmod_RMS_Derivative-OPLS-2005>
0.109266705811024

$$$$
58
                    3D
 Structure written by MMmdl.
157166  0  0  1  0            999 V2000
  -30.6254  -14.7086   20.4624 C   0  0  0  0  0  0
  -30.4301  -12.4286   19.4716 C   0  0  0  0  0  0
  -29.5082  -12.5009   18.2345 C   0  0  0  0  0  0
  -28.0330  -12.3338   18.6473 C   0  0  0  0  0  0
  -27.6446  -13.2290   19.8542 C   0  0  2  0  0  0
  -28.6889  -13.1454   20.9895 C   0  0  0  0  0  0
  -25.2517  -13.8198   20.5696 C   0  0  0  0  0  0
  -24.1804  -13.0447   20.9205 C   0  0  0  0  0  0
  -24.6387  -11.6922   20.8750 C   0  0  0  0  0  0
  -23.9064  -10.4299   21.0409 C   0  0  0  0  0  0
  -24.3618   -9.4215   21.9187 C   0  0  0  0  0  0
  -23.6294   -8.2249   22.0757 C   0  0  0  0  0  0
  -22.4279   -8.0280   21.3545 C   0  0  0  0  0  0
  -21.9911   -9.0254   20.4650 C   0  0  0  0  0  0
  -22.7235  -10.2137   20.3060 C   0  0  0  0  0  0
  -21.6856   -6.0731   22.5278 C   0  0  0  0  0  0
  -21.4014   -6.5637   23.8209 C   0  0  0  0  0  0
  -21.3664   -5.6792   24.9173 C   0  0  0  0  0  0
  -21.6046   -4.3053   24.7223 C   0  0  0  0  0  0
  -21.8820   -3.8142   23.4345 C   0  0  0  0  0  0
  -21.9196   -4.6960   22.3401 C   0  0  0  0  0  0
  -22.7825  -13.5236   21.1858 C   0  0  0  0  0  0
  -22.1665   -4.2145   21.0978 F   0  0  0  0  0  0
  -21.5631   -3.4538   25.7736 F   0  0  0  0  0  0
  -29.9965  -13.4858   20.4129 N   0  0  0  0  0  0
  -26.2945  -12.9402   20.3296 N   0  0  0  0  0  0
  -25.9318  -11.6545   20.5760 N   0  0  0  0  0  0
  -22.0461  -12.8236   22.0413 N   0  0  0  0  0  0
  -25.4207  -15.1925   20.4108 N   0  0  0  0  0  0
  -31.8110  -14.7977   20.1275 O   0  0  0  0  0  0
  -21.6646   -6.8874   21.4239 O   0  0  0  0  0  0
  -22.3516  -14.5544   20.6707 O   0  0  0  0  0  0
  -24.6300  -31.8570   23.2004 C   0  0  0  0  0  0
  -25.9132  -32.4764   23.8343 C   0  0  1  0  0  0
  -27.2195  -27.2812   20.1210 C   0  0  0  0  0  0
  -25.5935  -33.8566   24.2271 N   0  0  0  0  0  0
  -23.4253  -30.4810   21.5434 C   0  0  2  0  0  0
  -24.8713  -28.9320   20.1097 C   0  0  0  0  0  0
  -22.7493  -29.4614   22.4918 C   0  0  0  0  0  0
  -18.0291  -28.1386   22.8483 C   0  0  0  0  0  0
  -24.1490  -36.7286   23.2639 C   0  0  0  0  0  0
  -25.9699  -30.7761   21.3771 C   0  0  0  0  0  0
  -26.0424  -29.4008   20.7177 C   0  0  0  0  0  0
  -27.2190  -28.5879   20.7125 C   0  0  0  0  0  0
  -26.0241  -26.8784   19.4812 C   0  0  0  0  0  0
  -24.8663  -27.6783   19.4814 C   0  0  0  0  0  0
  -23.6419  -29.8171   20.1587 C   0  0  0  0  0  0
  -25.4115  -36.3076   24.0329 C   0  0  1  0  0  0
  -20.5894  -28.3698   23.1271 C   0  0  2  0  0  0
  -20.6779  -26.9417   22.5406 C   0  0  0  0  0  0
  -19.5755  -26.6385   21.5208 C   0  0  0  0  0  0
  -18.1935  -26.7929   22.1622 C   0  0  0  0  0  0
  -19.1544  -28.8858   23.2873 C   0  0  0  0  0  0
  -18.9465  -30.1457   23.8894 C   0  0  0  0  0  0
  -17.6464  -30.6588   24.0561 C   0  0  0  0  0  0
  -25.9054  -34.9444   23.5100 C   0  0  0  0  0  0
  -16.5356  -29.9085   23.6330 C   0  0  0  0  0  0
  -16.7277  -28.6502   23.0353 C   0  0  0  0  0  0
  -26.4505  -31.6582   25.0725 C   0  0  0  0  0  0
  -25.3729  -31.3722   26.1446 C   0  0  0  0  0  0
  -27.0351  -30.3002   24.6198 C   0  0  0  0  0  0
  -27.6062  -32.4318   25.7495 C   0  0  0  0  0  0
  -27.5580  -37.1800   24.8466 C   0  0  0  0  0  0
  -21.4203  -29.3047   22.3663 N   0  0  0  0  0  0
  -26.4293  -37.3773   23.9408 N   0  0  0  0  0  0
  -24.6941  -31.0553   22.0970 N   0  0  0  0  0  0
  -23.4204  -28.8148   23.3005 O   0  0  0  0  0  0
  -28.3225  -26.4017   20.1863 O   0  0  0  0  0  0
  -26.5623  -34.8916   22.4668 O   0  0  0  0  0  0
  -23.5453  -32.1382   23.7311 O   0  0  0  0  0  0
  -29.1862  -18.3754   20.8013 C   0  0  0  0  0  0
  -31.2990  -17.7836   20.0163 C   0  0  0  0  0  0
  -30.1201  -17.2793   20.5095 C   0  0  0  0  0  0
  -29.6612  -19.6776   20.5558 C   0  0  0  0  0  0
  -29.4233  -21.5099   22.3085 C   0  0  0  0  0  0
  -29.2841  -22.3494   19.9056 C   0  0  0  0  0  0
  -28.8468  -22.8840   22.6958 C   0  0  0  0  0  0
  -29.0365  -21.0901   20.8814 C   0  0  1  0  0  0
  -29.2377  -23.8886   20.4406 C   0  0  1  0  0  0
  -28.1027  -24.9315   19.9864 C   0  0  0  0  0  0
  -29.8507  -15.8325   20.7063 N   0  0  0  0  0  0
  -29.4667  -23.9664   21.9029 N   0  3  0  0  0  0
  -31.2935  -19.5406   19.9320 S   0  0  0  0  0  0
  -31.4726  -12.5417   19.1694 H   0  0  0  0  0  0
  -30.3633  -11.4482   19.9458 H   0  0  0  0  0  0
  -29.7830  -11.7296   17.5133 H   0  0  0  0  0  0
  -29.6432  -13.4574   17.7269 H   0  0  0  0  0  0
  -27.8820  -11.2846   18.9037 H   0  0  0  0  0  0
  -27.3771  -12.5360   17.7997 H   0  0  0  0  0  0
  -27.6453  -14.2534   19.4809 H   0  0  0  0  0  0
  -28.7134  -12.1437   21.4211 H   0  0  0  0  0  0
  -28.4292  -13.8209   21.8058 H   0  0  0  0  0  0
  -25.2761   -9.5697   22.4766 H   0  0  0  0  0  0
  -24.0002   -7.4647   22.7485 H   0  0  0  0  0  0
  -21.0839   -8.8774   19.8962 H   0  0  0  0  0  0
  -22.3687  -10.9677   19.6172 H   0  0  0  0  0  0
  -21.2004   -7.6145   23.9708 H   0  0  0  0  0  0
  -21.1488   -6.0523   25.9076 H   0  0  0  0  0  0
  -22.0596   -2.7605   23.2843 H   0  0  0  0  0  0
  -22.4069  -11.9900   22.4809 H   0  0  0  0  0  0
  -21.1080  -13.1271   22.2610 H   0  0  0  0  0  0
  -24.6487  -15.8423   20.5153 H   0  0  0  0  0  0
  -26.2614  -15.6331   20.0601 H   0  0  0  0  0  0
  -26.7197  -32.5421   23.1085 H   0  0  0  0  0  0
  -25.0085  -33.9705   25.0419 H   0  0  0  0  0  0
  -22.7208  -31.3030   21.3995 H   0  0  0  0  0  0
  -23.3753  -35.9618   23.3303 H   0  0  0  0  0  0
  -24.3581  -36.8905   22.2053 H   0  0  0  0  0  0
  -23.7243  -37.6489   23.6659 H   0  0  0  0  0  0
  -26.1071  -31.5384   20.6089 H   0  0  0  0  0  0
  -26.8484  -30.8237   22.0092 H   0  0  0  0  0  0
  -28.1155  -28.9419   21.2020 H   0  0  0  0  0  0
  -25.9494  -25.9239   18.9823 H   0  0  0  0  0  0
  -23.9696  -27.3159   18.9976 H   0  0  0  0  0  0
  -23.7660  -30.5944   19.4037 H   0  0  0  0  0  0
  -22.7602  -29.2507   19.8535 H   0  0  0  0  0  0
  -25.1296  -36.1927   25.0823 H   0  0  0  0  0  0
  -20.9987  -28.3274   24.1391 H   0  0  0  0  0  0
  -20.5676  -26.2308   23.3609 H   0  0  0  0  0  0
  -21.6648  -26.7441   22.1202 H   0  0  0  0  0  0
  -19.6917  -25.6294   21.1243 H   0  0  0  0  0  0
  -19.6692  -27.3191   20.6733 H   0  0  0  0  0  0
  -17.4204  -26.6674   21.4024 H   0  0  0  0  0  0
  -18.0338  -26.0072   22.9020 H   0  0  0  0  0  0
  -19.7941  -30.7273   24.2266 H   0  0  0  0  0  0
  -17.5019  -31.6269   24.5162 H   0  0  0  0  0  0
  -15.5356  -30.2986   23.7655 H   0  0  0  0  0  0
  -15.8677  -28.0818   22.7072 H   0  0  0  0  0  0
  -24.5915  -30.7061   25.7774 H   0  0  0  0  0  0
  -24.8908  -32.2885   26.4861 H   0  0  0  0  0  0
  -25.8051  -30.8910   27.0229 H   0  0  0  0  0  0
  -26.2931  -29.6746   24.1224 H   0  0  0  0  0  0
  -27.4041  -29.7268   25.4713 H   0  0  0  0  0  0
  -27.8805  -30.4284   23.9435 H   0  0  0  0  0  0
  -27.2679  -33.3624   26.2064 H   0  0  0  0  0  0
  -28.3877  -32.6867   25.0324 H   0  0  0  0  0  0
  -28.0727  -31.8447   26.5417 H   0  0  0  0  0  0
  -28.2598  -38.0096   24.7513 H   0  0  0  0  0  0
  -28.1076  -36.2627   24.6293 H   0  0  0  0  0  0
  -27.2298  -37.1451   25.8870 H   0  0  0  0  0  0
  -20.9386  -29.8776   21.6876 H   0  0  0  0  0  0
  -26.0173  -38.2849   24.1404 H   0  0  0  0  0  0
  -28.2077  -18.1743   21.2155 H   0  0  0  0  0  0
  -32.1871  -17.2480   19.7010 H   0  0  0  0  0  0
  -29.0599  -20.7611   23.0134 H   0  0  0  0  0  0
  -30.5088  -21.5219   22.4153 H   0  0  0  0  0  0
  -28.6590  -22.2487   19.0178 H   0  0  0  0  0  0
  -30.2970  -22.2244   19.5229 H   0  0  0  0  0  0
  -29.0407  -23.0770   23.7515 H   0  0  0  0  0  0
  -27.7631  -22.9006   22.5709 H   0  0  0  0  0  0
  -27.9543  -20.9515   20.8955 H   0  0  0  0  0  0
  -30.1342  -24.3408   20.0139 H   0  0  0  0  0  0
  -27.1763  -24.6385   20.4824 H   0  0  0  0  0  0
  -27.9345  -24.7807   18.9195 H   0  0  0  0  0  0
  -28.9110  -15.6114   20.9980 H   0  0  0  0  0  0
  -30.4597  -23.9483   22.0761 H   0  0  0  0  0  0
  -29.1366  -24.8597   22.2376 H   0  0  0  0  0  0
  1 25  1  0  0  0
  1 30  2  0  0  0
  1 81  1  0  0  0
  2  3  1  0  0  0
  2 25  1  0  0  0
  2 84  1  0  0  0
  2 85  1  0  0  0
  3  4  1  0  0  0
  3 86  1  0  0  0
  3 87  1  0  0  0
  4  5  1  0  0  0
  4 88  1  0  0  0
  4 89  1  0  0  0
  5  6  1  0  0  0
  5 26  1  0  0  0
  5 90  1  0  0  0
  6 25  1  0  0  0
  6 91  1  0  0  0
  6 92  1  0  0  0
  7  8  2  0  0  0
  7 26  1  0  0  0
  7 29  1  0  0  0
  8  9  1  0  0  0
  8 22  1  0  0  0
  9 10  1  0  0  0
  9 27  2  0  0  0
 10 11  2  0  0  0
 10 15  1  0  0  0
 11 12  1  0  0  0
 11 93  1  0  0  0
 12 13  2  0  0  0
 12 94  1  0  0  0
 13 14  1  0  0  0
 13 31  1  0  0  0
 14 15  2  0  0  0
 14 95  1  0  0  0
 15 96  1  0  0  0
 16 17  2  0  0  0
 16 21  1  0  0  0
 16 31  1  0  0  0
 17 18  1  0  0  0
 17 97  1  0  0  0
 18 19  2  0  0  0
 18 98  1  0  0  0
 19 20  1  0  0  0
 19 24  1  0  0  0
 20 21  2  0  0  0
 20 99  1  0  0  0
 21 23  1  0  0  0
 22 28  1  0  0  0
 22 32  2  0  0  0
 26 27  1  0  0  0
 28100  1  0  0  0
 28101  1  0  0  0
 29102  1  0  0  0
 29103  1  0  0  0
 33 34  1  0  0  0
 33 66  1  0  0  0
 33 70  2  0  0  0
 34 36  1  0  0  0
 34 59  1  0  0  0
 34104  1  0  0  0
 35 44  2  0  0  0
 35 45  1  0  0  0
 35 68  1  0  0  0
 36 56  1  0  0  0
 36105  1  0  0  0
 37 39  1  0  0  0
 37 47  1  0  0  0
 37 66  1  0  0  0
 37106  1  0  0  0
 38 43  2  0  0  0
 38 46  1  0  0  0
 38 47  1  0  0  0
 39 64  1  0  0  0
 39 67  2  0  0  0
 40 52  1  0  0  0
 40 53  2  0  0  0
 40 58  1  0  0  0
 41107  1  0  0  0
 41108  1  0  0  0
 41109  1  0  0  0
 41 48  1  0  0  0
 42 43  1  0  0  0
 42 66  1  0  0  0
 42110  1  0  0  0
 42111  1  0  0  0
 43 44  1  0  0  0
 44112  1  0  0  0
 45 46  2  0  0  0
 45113  1  0  0  0
 46114  1  0  0  0
 47115  1  0  0  0
 47116  1  0  0  0
 48 56  1  0  0  0
 48 65  1  0  0  0
 48117  1  0  0  0
 49 50  1  0  0  0
 49 53  1  0  0  0
 49 64  1  0  0  0
 49118  1  0  0  0
 50 51  1  0  0  0
 50119  1  0  0  0
 50120  1  0  0  0
 51 52  1  0  0  0
 51121  1  0  0  0
 51122  1  0  0  0
 52123  1  0  0  0
 52124  1  0  0  0
 53 54  1  0  0  0
 54 55  2  0  0  0
 54125  1  0  0  0
 55 57  1  0  0  0
 55126  1  0  0  0
 56 69  2  0  0  0
 57 58  2  0  0  0
 57127  1  0  0  0
 58128  1  0  0  0
 59 60  1  0  0  0
 59 61  1  0  0  0
 59 62  1  0  0  0
 60129  1  0  0  0
 60130  1  0  0  0
 60131  1  0  0  0
 61132  1  0  0  0
 61133  1  0  0  0
 61134  1  0  0  0
 62135  1  0  0  0
 62136  1  0  0  0
 62137  1  0  0  0
 63 65  1  0  0  0
 63138  1  0  0  0
 63139  1  0  0  0
 63140  1  0  0  0
 64141  1  0  0  0
 65142  1  0  0  0
 68 80  1  0  0  0
 71 73  1  0  0  0
 71 74  2  0  0  0
 71143  1  0  0  0
 72 73  2  0  0  0
 72 83  1  0  0  0
 72144  1  0  0  0
 73 81  1  0  0  0
 74 83  1  0  0  0
 74 78  1  0  0  0
 75 77  1  0  0  0
 75 78  1  0  0  0
 75145  1  0  0  0
 75146  1  0  0  0
 76 78  1  0  0  0
 76 79  1  0  0  0
 76147  1  0  0  0
 76148  1  0  0  0
 77 82  1  0  0  0
 77149  1  0  0  0
 77150  1  0  0  0
 78151  1  0  0  0
 79 80  1  0  0  0
 79 82  1  0  0  0
 79152  1  0  0  0
 80153  1  0  0  0
 80154  1  0  0  0
 81155  1  0  0  0
 82156  1  0  0  0
 82157  1  0  0  0
M  CHG  1  82   1
M  ISO  4   1 100  68 101  80 101  81 100
M  END
> <chiral flag>
0

> <version>
0

> <s_m_source_file>
/data/baiqing/PycharmProjects/Reinvent-master-3.2/result/LINK_invent/BTK/process_docking_weight1_custom_product_contain_oxygen_bond_distance_aromatic_linkinvent_7_9_3/rearranged_h_0155.sdf

> <i_m_source_file_index>
59

> <r_mmod_Potential_Energy-OPLS-2005>
12.3110218048096

> <r_mmod_Stretch_Energy-OPLS-2005>
110.467315673828

> <r_mmod_Bend_Energy-OPLS-2005>
164.36979675293

> <r_mmod_Torsional_Energy-OPLS-2005>
249.003601074219

> <r_mmod_Improper_Torsional_Energy-OPLS-2005>
4.86874198913574

> <r_mmod_Van_der_Waal_Energy-OPLS-2005>
123.51880645752

> <r_mmod_Electrostatic_Energy-OPLS-2005>
-268.724884033203

> <r_mmod_Solvation_Energy-OPLS-2005>
-442.81982421875

> <b_mmod_Minimization_Converged-OPLS-2005>
0

> <r_mmod_RMS_Derivative-OPLS-2005>
0.500751674175262

$$$$
59
                    3D
 Structure written by MMmdl.
159168  0  0  1  0            999 V2000
  -30.6807  -14.6249   20.4530 C   0  0  0  0  0  0
  -30.4182  -12.3746   19.4631 C   0  0  0  0  0  0
  -29.5038  -12.5017   18.2264 C   0  0  0  0  0  0
  -28.0260  -12.3536   18.6387 C   0  0  0  0  0  0
  -27.6517  -13.2279   19.8651 C   0  0  2  0  0  0
  -28.7010  -13.1211   20.9959 C   0  0  0  0  0  0
  -25.2558  -13.8192   20.5709 C   0  0  0  0  0  0
  -24.1832  -13.0453   20.9191 C   0  0  0  0  0  0
  -24.6424  -11.6933   20.8788 C   0  0  0  0  0  0
  -23.9086  -10.4314   21.0432 C   0  0  0  0  0  0
  -24.3637   -9.4222   21.9188 C   0  0  0  0  0  0
  -23.6308   -8.2256   22.0723 C   0  0  0  0  0  0
  -22.4293   -8.0295   21.3520 C   0  0  0  0  0  0
  -21.9941   -9.0269   20.4632 C   0  0  0  0  0  0
  -22.7276  -10.2158   20.3060 C   0  0  0  0  0  0
  -21.6822   -6.0781   22.5305 C   0  0  0  0  0  0
  -21.4016   -6.5645   23.8259 C   0  0  0  0  0  0
  -21.3662   -5.6796   24.9203 C   0  0  0  0  0  0
  -21.6064   -4.3065   24.7263 C   0  0  0  0  0  0
  -21.8803   -3.8192   23.4370 C   0  0  0  0  0  0
  -21.9148   -4.7010   22.3434 C   0  0  0  0  0  0
  -22.7859  -13.5262   21.1860 C   0  0  0  0  0  0
  -22.1599   -4.2207   21.1018 F   0  0  0  0  0  0
  -21.5654   -3.4535   25.7764 F   0  0  0  0  0  0
  -30.0134  -13.4277   20.4158 N   0  0  0  0  0  0
  -26.3003  -12.9404   20.3387 N   0  0  0  0  0  0
  -25.9359  -11.6550   20.5837 N   0  0  0  0  0  0
  -22.0483  -12.8260   22.0425 N   0  0  0  0  0  0
  -25.4252  -15.1899   20.4130 N   0  0  0  0  0  0
  -31.8670  -14.6846   20.1241 O   0  0  0  0  0  0
  -21.6616   -6.8909   21.4254 O   0  0  0  0  0  0
  -22.3575  -14.5577   20.6710 O   0  0  0  0  0  0
  -24.6248  -31.8607   23.2023 C   0  0  0  0  0  0
  -25.9099  -32.4786   23.8361 C   0  0  1  0  0  0
  -27.2342  -27.3329   20.1398 C   0  0  0  0  0  0
  -25.5917  -33.8588   24.2291 N   0  0  0  0  0  0
  -23.4197  -30.4826   21.5441 C   0  0  2  0  0  0
  -24.8703  -28.9384   20.1151 C   0  0  0  0  0  0
  -22.7474  -29.4630   22.4935 C   0  0  0  0  0  0
  -18.0292  -28.1389   22.8499 C   0  0  0  0  0  0
  -24.1487  -36.7295   23.2642 C   0  0  0  0  0  0
  -25.9577  -30.7999   21.3696 C   0  0  0  0  0  0
  -26.0375  -29.4259   20.7176 C   0  0  0  0  0  0
  -27.2242  -28.6366   20.7173 C   0  0  0  0  0  0
  -26.0512  -26.8993   19.4996 C   0  0  0  0  0  0
  -24.8774  -27.6777   19.4970 C   0  0  0  0  0  0
  -23.6350  -29.8145   20.1610 C   0  0  0  0  0  0
  -25.4110  -36.3089   24.0336 C   0  0  1  0  0  0
  -20.5893  -28.3690   23.1280 C   0  0  2  0  0  0
  -20.6777  -26.9413   22.5416 C   0  0  0  0  0  0
  -19.5759  -26.6380   21.5224 C   0  0  0  0  0  0
  -18.1928  -26.7942   22.1619 C   0  0  0  0  0  0
  -19.1547  -28.8858   23.2890 C   0  0  0  0  0  0
  -18.9468  -30.1461   23.8906 C   0  0  0  0  0  0
  -17.6468  -30.6589   24.0571 C   0  0  0  0  0  0
  -25.9043  -34.9453   23.5112 C   0  0  0  0  0  0
  -16.5364  -29.9089   23.6332 C   0  0  0  0  0  0
  -16.7277  -28.6508   23.0358 C   0  0  0  0  0  0
  -26.4497  -31.6591   25.0727 C   0  0  0  0  0  0
  -25.3736  -31.3724   26.1460 C   0  0  0  0  0  0
  -27.0345  -30.3014   24.6174 C   0  0  0  0  0  0
  -27.6073  -32.4314   25.7487 C   0  0  0  0  0  0
  -27.5583  -37.1795   24.8459 C   0  0  0  0  0  0
  -21.4184  -29.3051   22.3672 N   0  0  0  0  0  0
  -26.4285  -37.3775   23.9412 N   0  0  0  0  0  0
  -24.6861  -31.0640   22.0962 N   0  0  0  0  0  0
  -23.4194  -28.8175   23.3032 O   0  0  0  0  0  0
  -28.3412  -26.4752   20.1904 O   0  0  0  0  0  0
  -26.5611  -34.8914   22.4678 O   0  0  0  0  0  0
  -23.5408  -32.1399   23.7351 O   0  0  0  0  0  0
  -31.0290  -17.3496   19.0713 C   0  0  0  0  0  0
  -30.2415  -17.1253   20.1780 C   0  0  0  0  0  0
  -30.0673  -19.4659   19.9825 C   0  0  0  0  0  0
  -29.2234  -23.2361   19.3283 C   0  0  0  0  0  0
  -28.6716  -22.7350   21.6245 C   0  0  0  0  0  0
  -30.1446  -21.9616   19.3299 C   0  0  0  0  0  0
  -29.5559  -21.4402   21.5751 C   0  0  0  0  0  0
  -29.1175  -23.9270   20.7103 C   0  0  0  0  0  0
  -30.6697  -24.9879   22.2981 C   0  0  0  0  0  0
  -28.0807  -25.1468   20.7855 C   0  0  0  0  0  0
  -29.7019  -18.3560   20.6871 N   0  0  0  0  0  0
  -29.7675  -20.8484   20.2405 N   0  0  0  0  0  0
  -29.9605  -15.7748   20.6741 N   0  0  0  0  0  0
  -30.4462  -24.3658   21.0339 O   0  0  0  0  0  0
  -31.1203  -19.0373   18.6316 S   0  0  0  0  0  0
  -31.4664  -12.4512   19.1705 H   0  0  0  0  0  0
  -30.3164  -11.3888   19.9226 H   0  0  0  0  0  0
  -29.7642  -11.7477   17.4835 H   0  0  0  0  0  0
  -29.6607  -13.4699   17.7459 H   0  0  0  0  0  0
  -27.8536  -11.3015   18.8675 H   0  0  0  0  0  0
  -27.3695  -12.5892   17.7989 H   0  0  0  0  0  0
  -27.6595  -14.2590   19.5148 H   0  0  0  0  0  0
  -28.7074  -12.1201   21.4265 H   0  0  0  0  0  0
  -28.4627  -13.8059   21.8108 H   0  0  0  0  0  0
  -25.2769   -9.5676   22.4780 H   0  0  0  0  0  0
  -24.0019   -7.4630   22.7403 H   0  0  0  0  0  0
  -21.0887   -8.8815   19.8928 H   0  0  0  0  0  0
  -22.3751  -10.9708   19.6179 H   0  0  0  0  0  0
  -21.2023   -7.6147   23.9808 H   0  0  0  0  0  0
  -21.1463   -6.0506   25.9104 H   0  0  0  0  0  0
  -22.0577   -2.7651   23.2872 H   0  0  0  0  0  0
  -22.4063  -11.9913   22.4850 H   0  0  0  0  0  0
  -21.1109  -13.1312   22.2594 H   0  0  0  0  0  0
  -24.6453  -15.8326   20.4901 H   0  0  0  0  0  0
  -26.2813  -15.6406   20.1113 H   0  0  0  0  0  0
  -26.7180  -32.5474   23.1124 H   0  0  0  0  0  0
  -25.0084  -33.9743   25.0449 H   0  0  0  0  0  0
  -22.7135  -31.3021   21.3966 H   0  0  0  0  0  0
  -23.3753  -35.9624   23.3301 H   0  0  0  0  0  0
  -24.3598  -36.8912   22.2060 H   0  0  0  0  0  0
  -23.7224  -37.6486   23.6668 H   0  0  0  0  0  0
  -26.0836  -31.5629   20.5999 H   0  0  0  0  0  0
  -26.8380  -30.8530   21.9979 H   0  0  0  0  0  0
  -28.1180  -29.0076   21.1969 H   0  0  0  0  0  0
  -26.0196  -25.9391   19.0047 H   0  0  0  0  0  0
  -23.9850  -27.2962   19.0193 H   0  0  0  0  0  0
  -23.7495  -30.5875   19.4013 H   0  0  0  0  0  0
  -22.7574  -29.2386   19.8619 H   0  0  0  0  0  0
  -25.1290  -36.1945   25.0826 H   0  0  0  0  0  0
  -21.0000  -28.3276   24.1396 H   0  0  0  0  0  0
  -20.5660  -26.2321   23.3635 H   0  0  0  0  0  0
  -21.6645  -26.7430   22.1210 H   0  0  0  0  0  0
  -19.6906  -25.6282   21.1278 H   0  0  0  0  0  0
  -19.6696  -27.3183   20.6753 H   0  0  0  0  0  0
  -17.4205  -26.6729   21.4000 H   0  0  0  0  0  0
  -18.0288  -26.0065   22.8990 H   0  0  0  0  0  0
  -19.7941  -30.7287   24.2263 H   0  0  0  0  0  0
  -17.5013  -31.6279   24.5165 H   0  0  0  0  0  0
  -15.5345  -30.2998   23.7638 H   0  0  0  0  0  0
  -15.8684  -28.0819   22.7069 H   0  0  0  0  0  0
  -24.5904  -30.7083   25.7778 H   0  0  0  0  0  0
  -24.8952  -32.2897   26.4897 H   0  0  0  0  0  0
  -25.8059  -30.8884   27.0228 H   0  0  0  0  0  0
  -26.2923  -29.6743   24.1219 H   0  0  0  0  0  0
  -27.4066  -29.7279   25.4673 H   0  0  0  0  0  0
  -27.8777  -30.4299   23.9385 H   0  0  0  0  0  0
  -27.2696  -33.3599   26.2097 H   0  0  0  0  0  0
  -28.3863  -32.6885   25.0299 H   0  0  0  0  0  0
  -28.0770  -31.8421   26.5370 H   0  0  0  0  0  0
  -28.2582  -38.0105   24.7520 H   0  0  0  0  0  0
  -28.1090  -36.2641   24.6258 H   0  0  0  0  0  0
  -27.2325  -37.1408   25.8865 H   0  0  0  0  0  0
  -20.9352  -29.8791   21.6906 H   0  0  0  0  0  0
  -26.0176  -38.2844   24.1428 H   0  0  0  0  0  0
  -31.5615  -16.6306   18.4651 H   0  0  0  0  0  0
  -28.2288  -22.9647   18.9683 H   0  0  0  0  0  0
  -29.6119  -23.9503   18.6008 H   0  0  0  0  0  0
  -28.5900  -23.0641   22.6608 H   0  0  0  0  0  0
  -27.6553  -22.4501   21.3485 H   0  0  0  0  0  0
  -31.1651  -22.2700   19.5659 H   0  0  0  0  0  0
  -30.1830  -21.5882   18.3057 H   0  0  0  0  0  0
  -29.1078  -20.6796   22.2177 H   0  0  0  0  0  0
  -30.5347  -21.6575   22.0079 H   0  0  0  0  0  0
  -31.7388  -25.1611   22.4258 H   0  0  0  0  0  0
  -30.3484  -24.3675   23.1338 H   0  0  0  0  0  0
  -30.1866  -25.9618   22.3692 H   0  0  0  0  0  0
  -27.9054  -25.3483   21.8437 H   0  0  0  0  0  0
  -27.1260  -24.7510   20.4429 H   0  0  0  0  0  0
  -29.0546  -15.6488   21.0974 H   0  0  0  0  0  0
  1 25  1  0  0  0
  1 30  2  0  0  0
  1 83  1  0  0  0
  2  3  1  0  0  0
  2 25  1  0  0  0
  2 86  1  0  0  0
  2 87  1  0  0  0
  3  4  1  0  0  0
  3 88  1  0  0  0
  3 89  1  0  0  0
  4  5  1  0  0  0
  4 90  1  0  0  0
  4 91  1  0  0  0
  5  6  1  0  0  0
  5 26  1  0  0  0
  5 92  1  0  0  0
  6 25  1  0  0  0
  6 93  1  0  0  0
  6 94  1  0  0  0
  7  8  2  0  0  0
  7 26  1  0  0  0
  7 29  1  0  0  0
  8  9  1  0  0  0
  8 22  1  0  0  0
  9 10  1  0  0  0
  9 27  2  0  0  0
 10 11  2  0  0  0
 10 15  1  0  0  0
 11 12  1  0  0  0
 11 95  1  0  0  0
 12 13  2  0  0  0
 12 96  1  0  0  0
 13 14  1  0  0  0
 13 31  1  0  0  0
 14 15  2  0  0  0
 14 97  1  0  0  0
 15 98  1  0  0  0
 16 17  2  0  0  0
 16 21  1  0  0  0
 16 31  1  0  0  0
 17 18  1  0  0  0
 17 99  1  0  0  0
 18 19  2  0  0  0
 18100  1  0  0  0
 19 20  1  0  0  0
 19 24  1  0  0  0
 20 21  2  0  0  0
 20101  1  0  0  0
 21 23  1  0  0  0
 22 28  1  0  0  0
 22 32  2  0  0  0
 26 27  1  0  0  0
 28102  1  0  0  0
 28103  1  0  0  0
 29104  1  0  0  0
 29105  1  0  0  0
 33 34  1  0  0  0
 33 66  1  0  0  0
 33 70  2  0  0  0
 34 36  1  0  0  0
 34 59  1  0  0  0
 34106  1  0  0  0
 35 44  2  0  0  0
 35 45  1  0  0  0
 35 68  1  0  0  0
 36 56  1  0  0  0
 36107  1  0  0  0
 37 39  1  0  0  0
 37 47  1  0  0  0
 37 66  1  0  0  0
 37108  1  0  0  0
 38 43  2  0  0  0
 38 46  1  0  0  0
 38 47  1  0  0  0
 39 64  1  0  0  0
 39 67  2  0  0  0
 40 52  1  0  0  0
 40 53  2  0  0  0
 40 58  1  0  0  0
 41109  1  0  0  0
 41110  1  0  0  0
 41111  1  0  0  0
 41 48  1  0  0  0
 42 43  1  0  0  0
 42 66  1  0  0  0
 42112  1  0  0  0
 42113  1  0  0  0
 43 44  1  0  0  0
 44114  1  0  0  0
 45 46  2  0  0  0
 45115  1  0  0  0
 46116  1  0  0  0
 47117  1  0  0  0
 47118  1  0  0  0
 48 56  1  0  0  0
 48 65  1  0  0  0
 48119  1  0  0  0
 49 50  1  0  0  0
 49 53  1  0  0  0
 49 64  1  0  0  0
 49120  1  0  0  0
 50 51  1  0  0  0
 50121  1  0  0  0
 50122  1  0  0  0
 51 52  1  0  0  0
 51123  1  0  0  0
 51124  1  0  0  0
 52125  1  0  0  0
 52126  1  0  0  0
 53 54  1  0  0  0
 54 55  2  0  0  0
 54127  1  0  0  0
 55 57  1  0  0  0
 55128  1  0  0  0
 56 69  2  0  0  0
 57 58  2  0  0  0
 57129  1  0  0  0
 58130  1  0  0  0
 59 60  1  0  0  0
 59 61  1  0  0  0
 59 62  1  0  0  0
 60131  1  0  0  0
 60132  1  0  0  0
 60133  1  0  0  0
 61134  1  0  0  0
 61135  1  0  0  0
 61136  1  0  0  0
 62137  1  0  0  0
 62138  1  0  0  0
 62139  1  0  0  0
 63 65  1  0  0  0
 63140  1  0  0  0
 63141  1  0  0  0
 63142  1  0  0  0
 64143  1  0  0  0
 65144  1  0  0  0
 68 80  1  0  0  0
 71 72  2  0  0  0
 71 85  1  0  0  0
 71145  1  0  0  0
 72 81  1  0  0  0
 72 83  1  0  0  0
 73 81  2  0  0  0
 73 82  1  0  0  0
 73 85  1  0  0  0
 74 76  1  0  0  0
 74 78  1  0  0  0
 74146  1  0  0  0
 74147  1  0  0  0
 75 77  1  0  0  0
 75 78  1  0  0  0
 75148  1  0  0  0
 75149  1  0  0  0
 76 82  1  0  0  0
 76150  1  0  0  0
 76151  1  0  0  0
 77 82  1  0  0  0
 77152  1  0  0  0
 77153  1  0  0  0
 78 80  1  0  0  0
 78 84  1  0  0  0
 79 84  1  0  0  0
 79154  1  0  0  0
 79155  1  0  0  0
 79156  1  0  0  0
 80157  1  0  0  0
 80158  1  0  0  0
 83159  1  0  0  0
M  ISO  4   1 100  68 101  80 101  83 100
M  END
> <chiral flag>
0

> <version>
0

> <s_m_source_file>
/data/baiqing/PycharmProjects/Reinvent-master-3.2/result/LINK_invent/BTK/process_docking_weight1_custom_product_contain_oxygen_bond_distance_aromatic_linkinvent_7_9_3/rearranged_h_0155.sdf

> <i_m_source_file_index>
60

> <r_mmod_Potential_Energy-OPLS-2005>
71.5344848632812

> <r_mmod_Stretch_Energy-OPLS-2005>
78.169303894043

> <r_mmod_Bend_Energy-OPLS-2005>
155.43571472168

> <r_mmod_Torsional_Energy-OPLS-2005>
269.144104003906

> <r_mmod_Improper_Torsional_Energy-OPLS-2005>
6.20557403564453

> <r_mmod_Van_der_Waal_Energy-OPLS-2005>
134.443008422852

> <r_mmod_Electrostatic_Energy-OPLS-2005>
-387.883544921875

> <r_mmod_Solvation_Energy-OPLS-2005>
-231.839004516602

> <b_mmod_Minimization_Converged-OPLS-2005>
0

> <r_mmod_RMS_Derivative-OPLS-2005>
4.01449394226074

$$$$
60
                    3D
 Structure written by MMmdl.
151159  0  0  1  0            999 V2000
  -30.6449  -14.7152   20.5117 C   0  0  0  0  0  0
  -30.4390  -12.4471   19.4824 C   0  0  0  0  0  0
  -29.5112  -12.4916   18.2471 C   0  0  0  0  0  0
  -28.0434  -12.3044   18.6715 C   0  0  0  0  0  0
  -27.6474  -13.2218   19.8570 C   0  0  2  0  0  0
  -28.6901  -13.1611   20.9963 C   0  0  0  0  0  0
  -25.2541  -13.8192   20.5694 C   0  0  0  0  0  0
  -24.1818  -13.0451   20.9195 C   0  0  0  0  0  0
  -24.6383  -11.6920   20.8737 C   0  0  0  0  0  0
  -23.9068  -10.4299   21.0421 C   0  0  0  0  0  0
  -24.3626   -9.4211   21.9191 C   0  0  0  0  0  0
  -23.6291   -8.2257   22.0760 C   0  0  0  0  0  0
  -22.4275   -8.0279   21.3546 C   0  0  0  0  0  0
  -21.9920   -9.0265   20.4655 C   0  0  0  0  0  0
  -22.7253  -10.2138   20.3060 C   0  0  0  0  0  0
  -21.6842   -6.0731   22.5273 C   0  0  0  0  0  0
  -21.4020   -6.5635   23.8211 C   0  0  0  0  0  0
  -21.3649   -5.6787   24.9169 C   0  0  0  0  0  0
  -21.6053   -4.3052   24.7222 C   0  0  0  0  0  0
  -21.8816   -3.8139   23.4339 C   0  0  0  0  0  0
  -21.9204   -4.6961   22.3392 C   0  0  0  0  0  0
  -22.7843  -13.5235   21.1849 C   0  0  0  0  0  0
  -22.1663   -4.2135   21.0973 F   0  0  0  0  0  0
  -21.5629   -3.4540   25.7743 F   0  0  0  0  0  0
  -29.9974  -13.5025   20.4230 N   0  0  0  0  0  0
  -26.2970  -12.9375   20.3316 N   0  0  0  0  0  0
  -25.9320  -11.6523   20.5801 N   0  0  0  0  0  0
  -22.0493  -12.8223   22.0399 N   0  0  0  0  0  0
  -25.4275  -15.1905   20.4042 N   0  0  0  0  0  0
  -31.8180  -14.8042   20.1442 O   0  0  0  0  0  0
  -21.6635   -6.8871   21.4231 O   0  0  0  0  0  0
  -22.3539  -14.5545   20.6694 O   0  0  0  0  0  0
  -24.6331  -31.8504   23.1940 C   0  0  0  0  0  0
  -25.9164  -32.4702   23.8304 C   0  0  1  0  0  0
  -27.2085  -27.2371   20.1711 C   0  0  0  0  0  0
  -25.5957  -33.8508   24.2209 N   0  0  0  0  0  0
  -23.4346  -30.4696   21.5325 C   0  0  2  0  0  0
  -24.8870  -28.9160   20.1037 C   0  0  0  0  0  0
  -22.7531  -29.4559   22.4820 C   0  0  0  0  0  0
  -18.0301  -28.1404   22.8448 C   0  0  0  0  0  0
  -24.1504  -36.7266   23.2637 C   0  0  0  0  0  0
  -25.9821  -30.7522   21.3885 C   0  0  0  0  0  0
  -26.0514  -29.3753   20.7320 C   0  0  0  0  0  0
  -27.2189  -28.5470   20.7536 C   0  0  0  0  0  0
  -26.0335  -26.8537   19.4903 C   0  0  0  0  0  0
  -24.8882  -27.6707   19.4529 C   0  0  0  0  0  0
  -23.6606  -29.8032   20.1454 C   0  0  0  0  0  0
  -25.4117  -36.3040   24.0324 C   0  0  1  0  0  0
  -20.5919  -28.3719   23.1211 C   0  0  2  0  0  0
  -20.6781  -26.9424   22.5371 C   0  0  0  0  0  0
  -19.5755  -26.6398   21.5166 C   0  0  0  0  0  0
  -18.1929  -26.7940   22.1590 C   0  0  0  0  0  0
  -19.1565  -28.8868   23.2818 C   0  0  0  0  0  0
  -18.9481  -30.1451   23.8858 C   0  0  0  0  0  0
  -17.6480  -30.6584   24.0562 C   0  0  0  0  0  0
  -25.9060  -34.9404   23.5058 C   0  0  0  0  0  0
  -16.5375  -29.9069   23.6365 C   0  0  0  0  0  0
  -16.7278  -28.6510   23.0342 C   0  0  0  0  0  0
  -26.4541  -31.6565   25.0724 C   0  0  0  0  0  0
  -25.3774  -31.3759   26.1461 C   0  0  0  0  0  0
  -27.0418  -30.2967   24.6295 C   0  0  0  0  0  0
  -27.6084  -32.4349   25.7477 C   0  0  0  0  0  0
  -27.5576  -37.1761   24.8453 C   0  0  0  0  0  0
  -21.4232  -29.3038   22.3600 N   0  0  0  0  0  0
  -26.4286  -37.3729   23.9416 N   0  0  0  0  0  0
  -24.7008  -31.0446   22.0925 N   0  0  0  0  0  0
  -23.4218  -28.8089   23.2921 O   0  0  0  0  0  0
  -28.2679  -26.3064   20.2407 O   0  0  0  0  0  0
  -26.5636  -34.8908   22.4631 O   0  0  0  0  0  0
  -23.5480  -32.1309   23.7226 O   0  0  0  0  0  0
  -29.3254  -18.3790   20.6528 C   0  0  0  0  0  0
  -31.6067  -17.6729   21.0837 C   0  0  0  0  0  0
  -31.0550  -20.0689   20.9141 C   0  0  0  0  0  0
  -30.2672  -17.2859   20.8383 C   0  0  0  0  0  0
  -29.6925  -19.7906   20.6739 C   0  0  0  0  0  0
  -31.9913  -19.0312   21.1137 C   0  0  0  0  0  0
  -28.6102  -23.6306   20.1998 C   0  0  0  0  0  0
  -28.8122  -22.2730   21.0456 C   0  0  0  0  0  0
  -27.9593  -24.9547   20.8452 C   0  0  0  0  0  0
  -29.8952  -15.8425   20.8152 N   0  0  0  0  0  0
  -28.7888  -20.8907   20.3961 N   0  0  0  0  0  0
  -28.9672  -23.6460   19.0179 O   0  0  0  0  0  0
  -33.2910  -19.3472   21.3267 F   0  0  0  0  0  0
  -31.4764  -12.5720   19.1710 H   0  0  0  0  0  0
  -30.3930  -11.4698   19.9674 H   0  0  0  0  0  0
  -29.7981  -11.7133   17.5370 H   0  0  0  0  0  0
  -29.6285  -13.4434   17.7240 H   0  0  0  0  0  0
  -27.9262  -11.2609   18.9668 H   0  0  0  0  0  0
  -27.3764  -12.4574   17.8234 H   0  0  0  0  0  0
  -27.6483  -14.2397   19.4653 H   0  0  0  0  0  0
  -28.7211  -12.1689   21.4479 H   0  0  0  0  0  0
  -28.4194  -13.8473   21.8004 H   0  0  0  0  0  0
  -25.2770   -9.5674   22.4767 H   0  0  0  0  0  0
  -23.9987   -7.4642   22.7478 H   0  0  0  0  0  0
  -21.0853   -8.8793   19.8953 H   0  0  0  0  0  0
  -22.3723  -10.9682   19.6165 H   0  0  0  0  0  0
  -21.2007   -7.6143   23.9699 H   0  0  0  0  0  0
  -21.1473   -6.0524   25.9068 H   0  0  0  0  0  0
  -22.0608   -2.7605   23.2852 H   0  0  0  0  0  0
  -22.4111  -11.9861   22.4766 H   0  0  0  0  0  0
  -21.1102  -13.1240   22.2613 H   0  0  0  0  0  0
  -24.6610  -15.8470   20.5004 H   0  0  0  0  0  0
  -26.2694  -15.6201   20.0454 H   0  0  0  0  0  0
  -26.7225  -32.5368   23.1039 H   0  0  0  0  0  0
  -25.0172  -33.9627   25.0411 H   0  0  0  0  0  0
  -22.7331  -31.2916   21.3776 H   0  0  0  0  0  0
  -23.3762  -35.9605   23.3290 H   0  0  0  0  0  0
  -24.3587  -36.8907   22.2052 H   0  0  0  0  0  0
  -23.7269  -37.6463   23.6680 H   0  0  0  0  0  0
  -26.1417  -31.5098   20.6220 H   0  0  0  0  0  0
  -26.8524  -30.7885   22.0305 H   0  0  0  0  0  0
  -28.1029  -28.8762   21.2783 H   0  0  0  0  0  0
  -25.9942  -25.8916   18.9998 H   0  0  0  0  0  0
  -24.0085  -27.3311   18.9186 H   0  0  0  0  0  0
  -23.7918  -30.5735   19.3844 H   0  0  0  0  0  0
  -22.7848  -29.2268   19.8390 H   0  0  0  0  0  0
  -25.1290  -36.1858   25.0809 H   0  0  0  0  0  0
  -20.9980  -28.3328   24.1329 H   0  0  0  0  0  0
  -20.5659  -26.2320   23.3577 H   0  0  0  0  0  0
  -21.6634  -26.7427   22.1145 H   0  0  0  0  0  0
  -19.6931  -25.6303   21.1185 H   0  0  0  0  0  0
  -19.6716  -27.3235   20.6715 H   0  0  0  0  0  0
  -17.4187  -26.6687   21.3993 H   0  0  0  0  0  0
  -18.0336  -26.0078   22.8993 H   0  0  0  0  0  0
  -19.7979  -30.7249   24.2220 H   0  0  0  0  0  0
  -17.5065  -31.6265   24.5170 H   0  0  0  0  0  0
  -15.5372  -30.2961   23.7707 H   0  0  0  0  0  0
  -15.8687  -28.0818   22.7058 H   0  0  0  0  0  0
  -24.5958  -30.7071   25.7836 H   0  0  0  0  0  0
  -24.8959  -32.2934   26.4843 H   0  0  0  0  0  0
  -25.8105  -30.8998   27.0268 H   0  0  0  0  0  0
  -26.3033  -29.6640   24.1359 H   0  0  0  0  0  0
  -27.4097  -29.7304   25.4866 H   0  0  0  0  0  0
  -27.8917  -30.4193   23.9576 H   0  0  0  0  0  0
  -27.2689  -33.3677   26.1989 H   0  0  0  0  0  0
  -28.3909  -32.6874   25.0306 H   0  0  0  0  0  0
  -28.0753  -31.8541   26.5433 H   0  0  0  0  0  0
  -28.2551  -38.0096   24.7514 H   0  0  0  0  0  0
  -28.1114  -36.2620   24.6256 H   0  0  0  0  0  0
  -27.2301  -37.1363   25.8857 H   0  0  0  0  0  0
  -20.9432  -29.8812   21.6846 H   0  0  0  0  0  0
  -26.0168  -38.2794   24.1469 H   0  0  0  0  0  0
  -28.2906  -18.1204   20.4836 H   0  0  0  0  0  0
  -32.3735  -16.9341   21.2615 H   0  0  0  0  0  0
  -31.4160  -21.0870   20.9233 H   0  0  0  0  0  0
  -28.0319  -22.2630   21.8058 H   0  0  0  0  0  0
  -29.7456  -22.3838   21.5957 H   0  0  0  0  0  0
  -28.2272  -24.9810   21.9025 H   0  0  0  0  0  0
  -26.8806  -24.7947   20.8312 H   0  0  0  0  0  0
  -28.9258  -15.6432   21.0087 H   0  0  0  0  0  0
  -27.8779  -20.6217   20.0317 H   0  0  0  0  0  0
  1 25  1  0  0  0
  1 30  2  0  0  0
  1 80  1  0  0  0
  2  3  1  0  0  0
  2 25  1  0  0  0
  2 84  1  0  0  0
  2 85  1  0  0  0
  3  4  1  0  0  0
  3 86  1  0  0  0
  3 87  1  0  0  0
  4  5  1  0  0  0
  4 88  1  0  0  0
  4 89  1  0  0  0
  5  6  1  0  0  0
  5 26  1  0  0  0
  5 90  1  0  0  0
  6 25  1  0  0  0
  6 91  1  0  0  0
  6 92  1  0  0  0
  7  8  2  0  0  0
  7 26  1  0  0  0
  7 29  1  0  0  0
  8  9  1  0  0  0
  8 22  1  0  0  0
  9 10  1  0  0  0
  9 27  2  0  0  0
 10 11  2  0  0  0
 10 15  1  0  0  0
 11 12  1  0  0  0
 11 93  1  0  0  0
 12 13  2  0  0  0
 12 94  1  0  0  0
 13 14  1  0  0  0
 13 31  1  0  0  0
 14 15  2  0  0  0
 14 95  1  0  0  0
 15 96  1  0  0  0
 16 17  2  0  0  0
 16 21  1  0  0  0
 16 31  1  0  0  0
 17 18  1  0  0  0
 17 97  1  0  0  0
 18 19  2  0  0  0
 18 98  1  0  0  0
 19 20  1  0  0  0
 19 24  1  0  0  0
 20 21  2  0  0  0
 20 99  1  0  0  0
 21 23  1  0  0  0
 22 28  1  0  0  0
 22 32  2  0  0  0
 26 27  1  0  0  0
 28100  1  0  0  0
 28101  1  0  0  0
 29102  1  0  0  0
 29103  1  0  0  0
 33 34  1  0  0  0
 33 66  1  0  0  0
 33 70  2  0  0  0
 34 36  1  0  0  0
 34 59  1  0  0  0
 34104  1  0  0  0
 35 44  2  0  0  0
 35 45  1  0  0  0
 35 68  1  0  0  0
 36 56  1  0  0  0
 36105  1  0  0  0
 37 39  1  0  0  0
 37 47  1  0  0  0
 37 66  1  0  0  0
 37106  1  0  0  0
 38 43  2  0  0  0
 38 46  1  0  0  0
 38 47  1  0  0  0
 39 64  1  0  0  0
 39 67  2  0  0  0
 40 52  1  0  0  0
 40 53  2  0  0  0
 40 58  1  0  0  0
 41107  1  0  0  0
 41108  1  0  0  0
 41109  1  0  0  0
 41 48  1  0  0  0
 42 43  1  0  0  0
 42 66  1  0  0  0
 42110  1  0  0  0
 42111  1  0  0  0
 43 44  1  0  0  0
 44112  1  0  0  0
 45 46  2  0  0  0
 45113  1  0  0  0
 46114  1  0  0  0
 47115  1  0  0  0
 47116  1  0  0  0
 48 56  1  0  0  0
 48 65  1  0  0  0
 48117  1  0  0  0
 49 50  1  0  0  0
 49 53  1  0  0  0
 49 64  1  0  0  0
 49118  1  0  0  0
 50 51  1  0  0  0
 50119  1  0  0  0
 50120  1  0  0  0
 51 52  1  0  0  0
 51121  1  0  0  0
 51122  1  0  0  0
 52123  1  0  0  0
 52124  1  0  0  0
 53 54  1  0  0  0
 54 55  2  0  0  0
 54125  1  0  0  0
 55 57  1  0  0  0
 55126  1  0  0  0
 56 69  2  0  0  0
 57 58  2  0  0  0
 57127  1  0  0  0
 58128  1  0  0  0
 59 60  1  0  0  0
 59 61  1  0  0  0
 59 62  1  0  0  0
 60129  1  0  0  0
 60130  1  0  0  0
 60131  1  0  0  0
 61132  1  0  0  0
 61133  1  0  0  0
 61134  1  0  0  0
 62135  1  0  0  0
 62136  1  0  0  0
 62137  1  0  0  0
 63 65  1  0  0  0
 63138  1  0  0  0
 63139  1  0  0  0
 63140  1  0  0  0
 64141  1  0  0  0
 65142  1  0  0  0
 68 79  1  0  0  0
 71 74  2  0  0  0
 71 75  1  0  0  0
 71143  1  0  0  0
 72 74  1  0  0  0
 72 76  2  0  0  0
 72144  1  0  0  0
 73 75  2  0  0  0
 73 76  1  0  0  0
 73145  1  0  0  0
 74 80  1  0  0  0
 75 81  1  0  0  0
 76 83  1  0  0  0
 77 78  1  0  0  0
 77 79  1  0  0  0
 77 82  2  0  0  0
 78 81  1  0  0  0
 78146  1  0  0  0
 78147  1  0  0  0
 79148  1  0  0  0
 79149  1  0  0  0
 80150  1  0  0  0
 81151  1  0  0  0
M  ISO  4   1 100  68 101  79 101  80 100
M  END
> <chiral flag>
0

> <version>
0

> <s_m_source_file>
/data/baiqing/PycharmProjects/Reinvent-master-3.2/result/LINK_invent/BTK/process_docking_weight1_custom_product_contain_oxygen_bond_distance_aromatic_linkinvent_7_9_3/rearranged_h_0155.sdf

> <i_m_source_file_index>
61

> <r_mmod_Potential_Energy-OPLS-2005>
244.780563354492

> <r_mmod_Stretch_Energy-OPLS-2005>
124.814971923828

> <r_mmod_Bend_Energy-OPLS-2005>
159.32389831543

> <r_mmod_Torsional_Energy-OPLS-2005>
231.834518432617

> <r_mmod_Improper_Torsional_Energy-OPLS-2005>
6.15762519836426

> <r_mmod_Van_der_Waal_Energy-OPLS-2005>
136.766235351562

> <r_mmod_Electrostatic_Energy-OPLS-2005>
-255.602157592773

> <r_mmod_Solvation_Energy-OPLS-2005>
-250.169021606445

> <b_mmod_Minimization_Converged-OPLS-2005>
0

> <r_mmod_RMS_Derivative-OPLS-2005>
5.09817028045654

$$$$
61
                    3D
 Structure written by MMmdl.
160169  0  0  1  0            999 V2000
  -30.6298  -14.5504   20.5730 C   0  0  0  0  0  0
  -30.4464  -12.3529   19.4284 C   0  0  0  0  0  0
  -29.5082  -12.5149   18.2112 C   0  0  0  0  0  0
  -28.0268  -12.3669   18.6185 C   0  0  0  0  0  0
  -27.6638  -13.2019   19.8750 C   0  0  2  0  0  0
  -28.7056  -12.9741   20.9931 C   0  0  0  0  0  0
  -25.2603  -13.8132   20.5637 C   0  0  0  0  0  0
  -24.1857  -13.0431   20.9183 C   0  0  0  0  0  0
  -24.6398  -11.6890   20.8745 C   0  0  0  0  0  0
  -23.9059  -10.4286   21.0422 C   0  0  0  0  0  0
  -24.3612   -9.4202   21.9204 C   0  0  0  0  0  0
  -23.6282   -8.2237   22.0763 C   0  0  0  0  0  0
  -22.4272   -8.0279   21.3544 C   0  0  0  0  0  0
  -21.9903   -9.0260   20.4655 C   0  0  0  0  0  0
  -22.7224  -10.2142   20.3064 C   0  0  0  0  0  0
  -21.6858   -6.0733   22.5270 C   0  0  0  0  0  0
  -21.4019   -6.5643   23.8202 C   0  0  0  0  0  0
  -21.3651   -5.6789   24.9165 C   0  0  0  0  0  0
  -21.6035   -4.3050   24.7217 C   0  0  0  0  0  0
  -21.8824   -3.8137   23.4341 C   0  0  0  0  0  0
  -21.9196   -4.6956   22.3397 C   0  0  0  0  0  0
  -22.7882  -13.5249   21.1831 C   0  0  0  0  0  0
  -22.1666   -4.2144   21.0977 F   0  0  0  0  0  0
  -21.5617   -3.4533   25.7726 F   0  0  0  0  0  0
  -30.0323  -13.3278   20.4522 N   0  0  0  0  0  0
  -26.3033  -12.9289   20.3323 N   0  0  0  0  0  0
  -25.9321  -11.6461   20.5760 N   0  0  0  0  0  0
  -22.0505  -12.8268   22.0397 N   0  0  0  0  0  0
  -25.4306  -15.1839   20.3949 N   0  0  0  0  0  0
  -31.7514  -14.7911   20.1118 O   0  0  0  0  0  0
  -21.6634   -6.8877   21.4234 O   0  0  0  0  0  0
  -22.3576  -14.5548   20.6661 O   0  0  0  0  0  0
  -24.6176  -31.8637   23.2075 C   0  0  0  0  0  0
  -25.9053  -32.4801   23.8384 C   0  0  1  0  0  0
  -27.2430  -27.3955   20.1159 C   0  0  0  0  0  0
  -25.5898  -33.8599   24.2314 N   0  0  0  0  0  0
  -23.4104  -30.4838   21.5475 C   0  0  2  0  0  0
  -24.8645  -28.9413   20.1201 C   0  0  0  0  0  0
  -22.7434  -29.4616   22.4969 C   0  0  0  0  0  0
  -18.0282  -28.1374   22.8495 C   0  0  0  0  0  0
  -24.1486  -36.7307   23.2640 C   0  0  0  0  0  0
  -25.9427  -30.8158   21.3711 C   0  0  0  0  0  0
  -26.0244  -29.4434   20.7266 C   0  0  0  0  0  0
  -27.2185  -28.6757   20.7274 C   0  0  0  0  0  0
  -26.0702  -26.9183   19.4994 C   0  0  0  0  0  0
  -24.8826  -27.6769   19.5050 C   0  0  0  0  0  0
  -23.6259  -29.8121   20.1647 C   0  0  0  0  0  0
  -25.4101  -36.3091   24.0340 C   0  0  1  0  0  0
  -20.5872  -28.3658   23.1312 C   0  0  2  0  0  0
  -20.6768  -26.9388   22.5421 C   0  0  0  0  0  0
  -19.5749  -26.6376   21.5213 C   0  0  0  0  0  0
  -18.1925  -26.7920   22.1622 C   0  0  0  0  0  0
  -19.1532  -28.8837   23.2898 C   0  0  0  0  0  0
  -18.9453  -30.1444   23.8904 C   0  0  0  0  0  0
  -17.6453  -30.6579   24.0563 C   0  0  0  0  0  0
  -25.9034  -34.9462   23.5124 C   0  0  0  0  0  0
  -16.5347  -29.9075   23.6331 C   0  0  0  0  0  0
  -16.7272  -28.6496   23.0350 C   0  0  0  0  0  0
  -26.4473  -31.6594   25.0727 C   0  0  0  0  0  0
  -25.3730  -31.3733   26.1478 C   0  0  0  0  0  0
  -27.0309  -30.3028   24.6138 C   0  0  0  0  0  0
  -27.6053  -32.4327   25.7475 C   0  0  0  0  0  0
  -27.5584  -37.1795   24.8455 C   0  0  0  0  0  0
  -21.4157  -29.3015   22.3710 N   0  0  0  0  0  0
  -26.4286  -37.3777   23.9414 N   0  0  0  0  0  0
  -24.6746  -31.0706   22.0999 N   0  0  0  0  0  0
  -23.4182  -28.8159   23.3031 O   0  0  0  0  0  0
  -28.3759  -26.6019   20.0548 O   0  0  0  0  0  0
  -26.5595  -34.8913   22.4685 O   0  0  0  0  0  0
  -23.5356  -32.1409   23.7436 O   0  0  0  0  0  0
  -30.6052  -19.2318   20.8704 C   0  0  0  0  0  0
  -30.8243  -17.8220   20.8844 C   0  0  0  0  0  0
  -28.4403  -17.4804   21.0545 C   0  0  0  0  0  0
  -29.3012  -19.7946   20.9577 C   0  0  0  0  0  0
  -29.7376  -16.9201   20.9995 C   0  0  0  0  0  0
  -28.2141  -18.8778   21.0137 C   0  0  0  0  0  0
  -28.6368  -23.6027   19.8851 C   0  0  0  0  0  0
  -28.9418  -24.2989   21.0034 C   0  0  0  0  0  0
  -28.8410  -22.0840   19.7155 C   0  0  0  0  0  0
  -29.5683  -23.5738   22.2000 C   0  0  0  0  0  0
  -30.0756  -22.1341   21.8962 C   0  0  0  0  0  0
  -29.0552  -21.3373   21.0610 C   0  0  2  0  0  0
  -28.6625  -25.8104   21.2274 C   0  0  0  0  0  0
  -26.8926  -19.3256   21.0470 N   0  0  0  0  0  0
  -29.8404  -15.4877   21.1546 N   0  0  0  0  0  0
  -31.4859  -12.4918   19.1254 H   0  0  0  0  0  0
  -30.3860  -11.3385   19.8265 H   0  0  0  0  0  0
  -29.7577  -11.7779   17.4455 H   0  0  0  0  0  0
  -29.6652  -13.4938   17.7550 H   0  0  0  0  0  0
  -27.8407  -11.3098   18.8104 H   0  0  0  0  0  0
  -27.3813  -12.6451   17.7843 H   0  0  0  0  0  0
  -27.7075  -14.2499   19.5795 H   0  0  0  0  0  0
  -28.7042  -11.9279   21.3021 H   0  0  0  0  0  0
  -28.4475  -13.5366   21.8914 H   0  0  0  0  0  0
  -25.2771   -9.5664   22.4777 H   0  0  0  0  0  0
  -23.9979   -7.4626   22.7486 H   0  0  0  0  0  0
  -21.0827   -8.8785   19.8979 H   0  0  0  0  0  0
  -22.3695  -10.9686   19.6168 H   0  0  0  0  0  0
  -21.2030   -7.6153   23.9709 H   0  0  0  0  0  0
  -21.1466   -6.0523   25.9065 H   0  0  0  0  0  0
  -22.0614   -2.7595   23.2851 H   0  0  0  0  0  0
  -22.4105  -11.9927   22.4798 H   0  0  0  0  0  0
  -21.1128  -13.1329   22.2592 H   0  0  0  0  0  0
  -24.6551  -15.8325   20.4717 H   0  0  0  0  0  0
  -26.2512  -15.5961   19.9716 H   0  0  0  0  0  0
  -26.7121  -32.5513   23.1145 H   0  0  0  0  0  0
  -25.0027  -33.9760   25.0441 H   0  0  0  0  0  0
  -22.7003  -31.2999   21.4021 H   0  0  0  0  0  0
  -23.3736  -35.9653   23.3298 H   0  0  0  0  0  0
  -24.3581  -36.8927   22.2056 H   0  0  0  0  0  0
  -23.7250  -37.6512   23.6661 H   0  0  0  0  0  0
  -26.0620  -31.5776   20.5988 H   0  0  0  0  0  0
  -26.8260  -30.8726   21.9949 H   0  0  0  0  0  0
  -28.1154  -29.0587   21.1952 H   0  0  0  0  0  0
  -26.0770  -25.9500   19.0188 H   0  0  0  0  0  0
  -23.9939  -27.2841   19.0304 H   0  0  0  0  0  0
  -23.7362  -30.5841   19.4025 H   0  0  0  0  0  0
  -22.7496  -29.2324   19.8697 H   0  0  0  0  0  0
  -25.1267  -36.1952   25.0832 H   0  0  0  0  0  0
  -20.9972  -28.3233   24.1428 H   0  0  0  0  0  0
  -20.5671  -26.2254   23.3603 H   0  0  0  0  0  0
  -21.6641  -26.7424   22.1220 H   0  0  0  0  0  0
  -19.6912  -25.6291   21.1229 H   0  0  0  0  0  0
  -19.6693  -27.3201   20.6756 H   0  0  0  0  0  0
  -17.4194  -26.6685   21.4024 H   0  0  0  0  0  0
  -18.0308  -26.0060   22.9013 H   0  0  0  0  0  0
  -19.7921  -30.7268   24.2279 H   0  0  0  0  0  0
  -17.4995  -31.6260   24.5161 H   0  0  0  0  0  0
  -15.5347  -30.2976   23.7652 H   0  0  0  0  0  0
  -15.8671  -28.0821   22.7049 H   0  0  0  0  0  0
  -24.5872  -30.7118   25.7811 H   0  0  0  0  0  0
  -24.8954  -32.2908   26.4938 H   0  0  0  0  0  0
  -25.8057  -30.8871   27.0232 H   0  0  0  0  0  0
  -26.2874  -29.6779   24.1179 H   0  0  0  0  0  0
  -27.4049  -29.7281   25.4619 H   0  0  0  0  0  0
  -27.8719  -30.4333   23.9327 H   0  0  0  0  0  0
  -27.2672  -33.3612   26.2093 H   0  0  0  0  0  0
  -28.3832  -32.6923   25.0282 H   0  0  0  0  0  0
  -28.0766  -31.8436   26.5353 H   0  0  0  0  0  0
  -28.2588  -38.0104   24.7508 H   0  0  0  0  0  0
  -28.1091  -36.2636   24.6257 H   0  0  0  0  0  0
  -27.2304  -37.1421   25.8857 H   0  0  0  0  0  0
  -20.9323  -29.8720   21.6913 H   0  0  0  0  0  0
  -26.0170  -38.2852   24.1417 H   0  0  0  0  0  0
  -31.4642  -19.8857   20.8218 H   0  0  0  0  0  0
  -31.8366  -17.4432   20.8485 H   0  0  0  0  0  0
  -27.5902  -16.8186   21.1455 H   0  0  0  0  0  0
  -28.2036  -24.1230   19.0421 H   0  0  0  0  0  0
  -29.6904  -21.9239   19.0501 H   0  0  0  0  0  0
  -27.9673  -21.6741   19.2088 H   0  0  0  0  0  0
  -28.8147  -23.5336   22.9879 H   0  0  0  0  0  0
  -30.3926  -24.1696   22.5934 H   0  0  0  0  0  0
  -30.2674  -21.6203   22.8396 H   0  0  0  0  0  0
  -31.0303  -22.1814   21.3712 H   0  0  0  0  0  0
  -28.1276  -21.4470   21.6235 H   0  0  0  0  0  0
  -29.5508  -26.2478   21.6847 H   0  0  0  0  0  0
  -27.8705  -25.8996   21.9735 H   0  0  0  0  0  0
  -26.1490  -18.6744   20.8163 H   0  0  0  0  0  0
  -26.6946  -20.2727   20.7419 H   0  0  0  0  0  0
  -29.0034  -15.0618   21.5214 H   0  0  0  0  0  0
  1 25  1  0  0  0
  1 30  2  0  0  0
  1 85  1  0  0  0
  2  3  1  0  0  0
  2 25  1  0  0  0
  2 86  1  0  0  0
  2 87  1  0  0  0
  3  4  1  0  0  0
  3 88  1  0  0  0
  3 89  1  0  0  0
  4  5  1  0  0  0
  4 90  1  0  0  0
  4 91  1  0  0  0
  5  6  1  0  0  0
  5 26  1  0  0  0
  5 92  1  0  0  0
  6 25  1  0  0  0
  6 93  1  0  0  0
  6 94  1  0  0  0
  7  8  2  0  0  0
  7 26  1  0  0  0
  7 29  1  0  0  0
  8  9  1  0  0  0
  8 22  1  0  0  0
  9 10  1  0  0  0
  9 27  2  0  0  0
 10 11  2  0  0  0
 10 15  1  0  0  0
 11 12  1  0  0  0
 11 95  1  0  0  0
 12 13  2  0  0  0
 12 96  1  0  0  0
 13 14  1  0  0  0
 13 31  1  0  0  0
 14 15  2  0  0  0
 14 97  1  0  0  0
 15 98  1  0  0  0
 16 17  2  0  0  0
 16 21  1  0  0  0
 16 31  1  0  0  0
 17 18  1  0  0  0
 17 99  1  0  0  0
 18 19  2  0  0  0
 18100  1  0  0  0
 19 20  1  0  0  0
 19 24  1  0  0  0
 20 21  2  0  0  0
 20101  1  0  0  0
 21 23  1  0  0  0
 22 28  1  0  0  0
 22 32  2  0  0  0
 26 27  1  0  0  0
 28102  1  0  0  0
 28103  1  0  0  0
 29104  1  0  0  0
 29105  1  0  0  0
 33 34  1  0  0  0
 33 66  1  0  0  0
 33 70  2  0  0  0
 34 36  1  0  0  0
 34 59  1  0  0  0
 34106  1  0  0  0
 35 44  2  0  0  0
 35 45  1  0  0  0
 35 68  1  0  0  0
 36 56  1  0  0  0
 36107  1  0  0  0
 37 39  1  0  0  0
 37 47  1  0  0  0
 37 66  1  0  0  0
 37108  1  0  0  0
 38 43  2  0  0  0
 38 46  1  0  0  0
 38 47  1  0  0  0
 39 64  1  0  0  0
 39 67  2  0  0  0
 40 52  1  0  0  0
 40 53  2  0  0  0
 40 58  1  0  0  0
 41109  1  0  0  0
 41110  1  0  0  0
 41111  1  0  0  0
 41 48  1  0  0  0
 42 43  1  0  0  0
 42 66  1  0  0  0
 42112  1  0  0  0
 42113  1  0  0  0
 43 44  1  0  0  0
 44114  1  0  0  0
 45 46  2  0  0  0
 45115  1  0  0  0
 46116  1  0  0  0
 47117  1  0  0  0
 47118  1  0  0  0
 48 56  1  0  0  0
 48 65  1  0  0  0
 48119  1  0  0  0
 49 50  1  0  0  0
 49 53  1  0  0  0
 49 64  1  0  0  0
 49120  1  0  0  0
 50 51  1  0  0  0
 50121  1  0  0  0
 50122  1  0  0  0
 51 52  1  0  0  0
 51123  1  0  0  0
 51124  1  0  0  0
 52125  1  0  0  0
 52126  1  0  0  0
 53 54  1  0  0  0
 54 55  2  0  0  0
 54127  1  0  0  0
 55 57  1  0  0  0
 55128  1  0  0  0
 56 69  2  0  0  0
 57 58  2  0  0  0
 57129  1  0  0  0
 58130  1  0  0  0
 59 60  1  0  0  0
 59 61  1  0  0  0
 59 62  1  0  0  0
 60131  1  0  0  0
 60132  1  0  0  0
 60133  1  0  0  0
 61134  1  0  0  0
 61135  1  0  0  0
 61136  1  0  0  0
 62137  1  0  0  0
 62138  1  0  0  0
 62139  1  0  0  0
 63 65  1  0  0  0
 63140  1  0  0  0
 63141  1  0  0  0
 63142  1  0  0  0
 64143  1  0  0  0
 65144  1  0  0  0
 68 83  1  0  0  0
 71 72  2  0  0  0
 71 74  1  0  0  0
 71145  1  0  0  0
 72 75  1  0  0  0
 72146  1  0  0  0
 73 75  2  0  0  0
 73 76  1  0  0  0
 73147  1  0  0  0
 74 76  2  0  0  0
 74 82  1  0  0  0
 75 85  1  0  0  0
 76 84  1  0  0  0
 77 78  2  0  0  0
 77 79  1  0  0  0
 77148  1  0  0  0
 78 80  1  0  0  0
 78 83  1  0  0  0
 79 82  1  0  0  0
 79149  1  0  0  0
 79150  1  0  0  0
 80 81  1  0  0  0
 80151  1  0  0  0
 80152  1  0  0  0
 81 82  1  0  0  0
 81153  1  0  0  0
 81154  1  0  0  0
 82155  1  0  0  0
 83156  1  0  0  0
 83157  1  0  0  0
 84158  1  0  0  0
 84159  1  0  0  0
 85160  1  0  0  0
M  ISO  4   1 100  68 101  83 101  85 100
M  END
> <chiral flag>
0

> <version>
0

> <s_m_source_file>
/data/baiqing/PycharmProjects/Reinvent-master-3.2/result/LINK_invent/BTK/process_docking_weight1_custom_product_contain_oxygen_bond_distance_aromatic_linkinvent_7_9_3/rearranged_h_0155.sdf

> <i_m_source_file_index>
62

> <r_mmod_Potential_Energy-OPLS-2005>
44.6378898620605

> <r_mmod_Stretch_Energy-OPLS-2005>
52.7529182434082

> <r_mmod_Bend_Energy-OPLS-2005>
122.902610778809

> <r_mmod_Torsional_Energy-OPLS-2005>
253.909545898438

> <r_mmod_Improper_Torsional_Energy-OPLS-2005>
7.77893304824829

> <r_mmod_Van_der_Waal_Energy-OPLS-2005>
146.228057861328

> <r_mmod_Electrostatic_Energy-OPLS-2005>
-357.281066894531

> <r_mmod_Solvation_Energy-OPLS-2005>
-204.037353515625

> <b_mmod_Minimization_Converged-OPLS-2005>
0

> <r_mmod_RMS_Derivative-OPLS-2005>
1.88083136081696

$$$$
62
                    3D
 Structure written by MMmdl.
152161  0  0  1  0            999 V2000
  -30.6474  -14.7509   20.4723 C   0  0  0  0  0  0
  -30.4203  -12.4622   19.4847 C   0  0  0  0  0  0
  -29.5052  -12.4985   18.2425 C   0  0  0  0  0  0
  -28.0354  -12.3177   18.6622 C   0  0  0  0  0  0
  -27.6371  -13.2363   19.8483 C   0  0  2  0  0  0
  -28.6802  -13.2043   20.9871 C   0  0  0  0  0  0
  -25.2485  -13.8205   20.5708 C   0  0  0  0  0  0
  -24.1783  -13.0444   20.9216 C   0  0  0  0  0  0
  -24.6383  -11.6926   20.8757 C   0  0  0  0  0  0
  -23.9061  -10.4291   21.0411 C   0  0  0  0  0  0
  -24.3613   -9.4207   21.9190 C   0  0  0  0  0  0
  -23.6291   -8.2244   22.0758 C   0  0  0  0  0  0
  -22.4275   -8.0280   21.3548 C   0  0  0  0  0  0
  -21.9909   -9.0248   20.4648 C   0  0  0  0  0  0
  -22.7234  -10.2131   20.3058 C   0  0  0  0  0  0
  -21.6852   -6.0736   22.5277 C   0  0  0  0  0  0
  -21.4016   -6.5640   23.8210 C   0  0  0  0  0  0
  -21.3659   -5.6794   24.9171 C   0  0  0  0  0  0
  -21.6042   -4.3056   24.7224 C   0  0  0  0  0  0
  -21.8818   -3.8146   23.4345 C   0  0  0  0  0  0
  -21.9192   -4.6960   22.3404 C   0  0  0  0  0  0
  -22.7804  -13.5219   21.1871 C   0  0  0  0  0  0
  -22.1660   -4.2148   21.0980 F   0  0  0  0  0  0
  -21.5626   -3.4543   25.7739 F   0  0  0  0  0  0
  -29.9786  -13.5467   20.3974 N   0  0  0  0  0  0
  -26.2913  -12.9424   20.3288 N   0  0  0  0  0  0
  -25.9319  -11.6562   20.5772 N   0  0  0  0  0  0
  -22.0455  -12.8208   22.0428 N   0  0  0  0  0  0
  -25.4170  -15.1931   20.4133 N   0  0  0  0  0  0
  -31.8326  -14.7904   20.1341 O   0  0  0  0  0  0
  -21.6641   -6.8879   21.4240 O   0  0  0  0  0  0
  -22.3492  -14.5523   20.6712 O   0  0  0  0  0  0
  -24.6355  -31.8526   23.1984 C   0  0  0  0  0  0
  -25.9163  -32.4742   23.8336 C   0  0  1  0  0  0
  -27.2118  -27.2315   20.1328 C   0  0  0  0  0  0
  -25.5935  -33.8545   24.2244 N   0  0  0  0  0  0
  -23.4337  -30.4773   21.5415 C   0  0  2  0  0  0
  -24.8811  -28.9281   20.1067 C   0  0  0  0  0  0
  -22.7531  -29.4588   22.4894 C   0  0  0  0  0  0
  -18.0292  -28.1385   22.8482 C   0  0  0  0  0  0
  -24.1488  -36.7272   23.2642 C   0  0  0  0  0  0
  -25.9858  -30.7561   21.3866 C   0  0  0  0  0  0
  -26.0559  -29.3799   20.7217 C   0  0  0  0  0  0
  -27.2249  -28.5459   20.7215 C   0  0  0  0  0  0
  -26.0166  -26.8679   19.4693 C   0  0  0  0  0  0
  -24.8694  -27.6811   19.4673 C   0  0  0  0  0  0
  -23.6532  -29.8170   20.1565 C   0  0  0  0  0  0
  -25.4121  -36.3054   24.0317 C   0  0  1  0  0  0
  -20.5907  -28.3699   23.1257 C   0  0  2  0  0  0
  -20.6776  -26.9410   22.5403 C   0  0  0  0  0  0
  -19.5744  -26.6376   21.5211 C   0  0  0  0  0  0
  -18.1927  -26.7925   22.1624 C   0  0  0  0  0  0
  -19.1552  -28.8860   23.2857 C   0  0  0  0  0  0
  -18.9467  -30.1456   23.8879 C   0  0  0  0  0  0
  -17.6464  -30.6587   24.0556 C   0  0  0  0  0  0
  -25.9067  -34.9427   23.5086 C   0  0  0  0  0  0
  -16.5355  -29.9083   23.6337 C   0  0  0  0  0  0
  -16.7281  -28.6499   23.0362 C   0  0  0  0  0  0
  -26.4512  -31.6595   25.0750 C   0  0  0  0  0  0
  -25.3722  -31.3743   26.1462 C   0  0  0  0  0  0
  -27.0376  -30.3000   24.6299 C   0  0  0  0  0  0
  -27.6052  -32.4372   25.7514 C   0  0  0  0  0  0
  -27.5574  -37.1787   24.8467 C   0  0  0  0  0  0
  -21.4235  -29.3039   22.3641 N   0  0  0  0  0  0
  -26.4288  -37.3762   23.9405 N   0  0  0  0  0  0
  -24.7038  -31.0481   22.0965 N   0  0  0  0  0  0
  -23.4228  -28.8120   23.2994 O   0  0  0  0  0  0
  -28.2758  -26.2909   20.2250 O   0  0  0  0  0  0
  -26.5647  -34.8895   22.4663 O   0  0  0  0  0  0
  -23.5496  -32.1352   23.7262 O   0  0  0  0  0  0
  -29.3458  -19.8216   20.1227 C   0  0  0  0  0  0
  -29.9579  -18.7574   20.9463 C   0  0  0  0  0  0
  -30.2474  -19.2731   22.1636 C   0  0  0  0  0  0
  -29.2384  -21.1105   20.7173 C   0  0  0  0  0  0
  -28.8975  -23.6629   20.5854 C   0  0  0  0  0  0
  -31.0375  -18.4013   23.0499 C   0  0  0  0  0  0
  -31.5667  -17.3293   22.0746 C   0  0  0  0  0  0
  -30.6474  -17.3236   20.8063 C   0  0  1  0  0  0
  -27.9829  -24.8252   19.9475 C   0  0  0  0  0  0
  -28.7339  -22.3263   20.2034 N   0  0  0  0  0  0
  -29.9775  -15.9428   20.7509 N   0  0  0  0  0  0
  -29.7495  -23.9907   21.4153 O   0  0  0  0  0  0
  -29.8483  -20.9669   22.3656 S   0  0  0  0  0  0
  -31.4649  -12.5607   19.1844 H   0  0  0  0  0  0
  -30.3490  -11.4951   19.9856 H   0  0  0  0  0  0
  -29.7911  -11.7148   17.5397 H   0  0  0  0  0  0
  -29.6275  -13.4467   17.7163 H   0  0  0  0  0  0
  -27.9089  -11.2736   18.9496 H   0  0  0  0  0  0
  -27.3717  -12.4798   17.8122 H   0  0  0  0  0  0
  -27.6238  -14.2504   19.4481 H   0  0  0  0  0  0
  -28.7190  -12.2195   21.4551 H   0  0  0  0  0  0
  -28.4127  -13.9104   21.7752 H   0  0  0  0  0  0
  -25.2755   -9.5694   22.4769 H   0  0  0  0  0  0
  -23.9997   -7.4644   22.7485 H   0  0  0  0  0  0
  -21.0839   -8.8769   19.8957 H   0  0  0  0  0  0
  -22.3689  -10.9671   19.6172 H   0  0  0  0  0  0
  -21.2011   -7.6149   23.9715 H   0  0  0  0  0  0
  -21.1479   -6.0525   25.9076 H   0  0  0  0  0  0
  -22.0595   -2.7611   23.2847 H   0  0  0  0  0  0
  -22.4079  -11.9871   22.4809 H   0  0  0  0  0  0
  -21.1078  -13.1228   22.2647 H   0  0  0  0  0  0
  -24.6486  -15.8458   20.5232 H   0  0  0  0  0  0
  -26.2659  -15.6343   20.0840 H   0  0  0  0  0  0
  -26.7232  -32.5360   23.1071 H   0  0  0  0  0  0
  -25.0049  -33.9687   25.0363 H   0  0  0  0  0  0
  -22.7291  -31.2988   21.3970 H   0  0  0  0  0  0
  -23.3747  -35.9609   23.3321 H   0  0  0  0  0  0
  -24.3566  -36.8893   22.2053 H   0  0  0  0  0  0
  -23.7251  -37.6471   23.6676 H   0  0  0  0  0  0
  -26.1414  -31.5209   20.6247 H   0  0  0  0  0  0
  -26.8552  -30.7918   22.0311 H   0  0  0  0  0  0
  -28.1223  -28.8853   21.2195 H   0  0  0  0  0  0
  -25.9241  -25.9213   18.9579 H   0  0  0  0  0  0
  -23.9725  -27.3332   18.9726 H   0  0  0  0  0  0
  -23.7794  -30.5954   19.4036 H   0  0  0  0  0  0
  -22.7705  -29.2537   19.8489 H   0  0  0  0  0  0
  -25.1306  -36.1886   25.0808 H   0  0  0  0  0  0
  -20.9993  -28.3276   24.1378 H   0  0  0  0  0  0
  -20.5672  -26.2304   23.3608 H   0  0  0  0  0  0
  -21.6639  -26.7419   22.1193 H   0  0  0  0  0  0
  -19.6899  -25.6288   21.1239 H   0  0  0  0  0  0
  -19.6682  -27.3182   20.6738 H   0  0  0  0  0  0
  -17.4196  -26.6672   21.4026 H   0  0  0  0  0  0
  -18.0318  -26.0066   22.9014 H   0  0  0  0  0  0
  -19.7945  -30.7268   24.2246 H   0  0  0  0  0  0
  -17.5024  -31.6269   24.5151 H   0  0  0  0  0  0
  -15.5354  -30.2972   23.7684 H   0  0  0  0  0  0
  -15.8677  -28.0813   22.7097 H   0  0  0  0  0  0
  -24.5911  -30.7084   25.7779 H   0  0  0  0  0  0
  -24.8896  -32.2903   26.4880 H   0  0  0  0  0  0
  -25.8029  -30.8923   27.0248 H   0  0  0  0  0  0
  -26.2988  -29.6721   24.1308 H   0  0  0  0  0  0
  -27.3998  -29.7299   25.4863 H   0  0  0  0  0  0
  -27.8888  -30.4246   23.9605 H   0  0  0  0  0  0
  -27.2657  -33.3697   26.2041 H   0  0  0  0  0  0
  -28.3872  -32.6912   25.0344 H   0  0  0  0  0  0
  -28.0711  -31.8539   26.5466 H   0  0  0  0  0  0
  -28.2593  -38.0079   24.7516 H   0  0  0  0  0  0
  -28.1067  -36.2612   24.6307 H   0  0  0  0  0  0
  -27.2286  -37.1458   25.8866 H   0  0  0  0  0  0
  -20.9428  -29.8771   21.6847 H   0  0  0  0  0  0
  -26.0157  -38.2829   24.1412 H   0  0  0  0  0  0
  -29.0825  -19.6221   19.0937 H   0  0  0  0  0  0
  -30.3947  -17.9598   23.8124 H   0  0  0  0  0  0
  -31.8456  -18.9378   23.5490 H   0  0  0  0  0  0
  -31.6940  -16.3637   22.5643 H   0  0  0  0  0  0
  -32.5646  -17.6364   21.7576 H   0  0  0  0  0  0
  -31.2900  -17.3651   19.9252 H   0  0  0  0  0  0
  -26.9863  -24.5888   20.3220 H   0  0  0  0  0  0
  -27.9577  -24.6775   18.8680 H   0  0  0  0  0  0
  -28.1032  -22.2143   19.4205 H   0  0  0  0  0  0
  -28.9942  -15.8930   20.9691 H   0  0  0  0  0  0
  1 25  1  0  0  0
  1 30  2  0  0  0
  1 81  1  0  0  0
  2  3  1  0  0  0
  2 25  1  0  0  0
  2 84  1  0  0  0
  2 85  1  0  0  0
  3  4  1  0  0  0
  3 86  1  0  0  0
  3 87  1  0  0  0
  4  5  1  0  0  0
  4 88  1  0  0  0
  4 89  1  0  0  0
  5  6  1  0  0  0
  5 26  1  0  0  0
  5 90  1  0  0  0
  6 25  1  0  0  0
  6 91  1  0  0  0
  6 92  1  0  0  0
  7  8  2  0  0  0
  7 26  1  0  0  0
  7 29  1  0  0  0
  8  9  1  0  0  0
  8 22  1  0  0  0
  9 10  1  0  0  0
  9 27  2  0  0  0
 10 11  2  0  0  0
 10 15  1  0  0  0
 11 12  1  0  0  0
 11 93  1  0  0  0
 12 13  2  0  0  0
 12 94  1  0  0  0
 13 14  1  0  0  0
 13 31  1  0  0  0
 14 15  2  0  0  0
 14 95  1  0  0  0
 15 96  1  0  0  0
 16 17  2  0  0  0
 16 21  1  0  0  0
 16 31  1  0  0  0
 17 18  1  0  0  0
 17 97  1  0  0  0
 18 19  2  0  0  0
 18 98  1  0  0  0
 19 20  1  0  0  0
 19 24  1  0  0  0
 20 21  2  0  0  0
 20 99  1  0  0  0
 21 23  1  0  0  0
 22 28  1  0  0  0
 22 32  2  0  0  0
 26 27  1  0  0  0
 28100  1  0  0  0
 28101  1  0  0  0
 29102  1  0  0  0
 29103  1  0  0  0
 33 34  1  0  0  0
 33 66  1  0  0  0
 33 70  2  0  0  0
 34 36  1  0  0  0
 34 59  1  0  0  0
 34104  1  0  0  0
 35 44  2  0  0  0
 35 45  1  0  0  0
 35 68  1  0  0  0
 36 56  1  0  0  0
 36105  1  0  0  0
 37 39  1  0  0  0
 37 47  1  0  0  0
 37 66  1  0  0  0
 37106  1  0  0  0
 38 43  2  0  0  0
 38 46  1  0  0  0
 38 47  1  0  0  0
 39 64  1  0  0  0
 39 67  2  0  0  0
 40 52  1  0  0  0
 40 53  2  0  0  0
 40 58  1  0  0  0
 41107  1  0  0  0
 41108  1  0  0  0
 41109  1  0  0  0
 41 48  1  0  0  0
 42 43  1  0  0  0
 42 66  1  0  0  0
 42110  1  0  0  0
 42111  1  0  0  0
 43 44  1  0  0  0
 44112  1  0  0  0
 45 46  2  0  0  0
 45113  1  0  0  0
 46114  1  0  0  0
 47115  1  0  0  0
 47116  1  0  0  0
 48 56  1  0  0  0
 48 65  1  0  0  0
 48117  1  0  0  0
 49 50  1  0  0  0
 49 53  1  0  0  0
 49 64  1  0  0  0
 49118  1  0  0  0
 50 51  1  0  0  0
 50119  1  0  0  0
 50120  1  0  0  0
 51 52  1  0  0  0
 51121  1  0  0  0
 51122  1  0  0  0
 52123  1  0  0  0
 52124  1  0  0  0
 53 54  1  0  0  0
 54 55  2  0  0  0
 54125  1  0  0  0
 55 57  1  0  0  0
 55126  1  0  0  0
 56 69  2  0  0  0
 57 58  2  0  0  0
 57127  1  0  0  0
 58128  1  0  0  0
 59 60  1  0  0  0
 59 61  1  0  0  0
 59 62  1  0  0  0
 60129  1  0  0  0
 60130  1  0  0  0
 60131  1  0  0  0
 61132  1  0  0  0
 61133  1  0  0  0
 61134  1  0  0  0
 62135  1  0  0  0
 62136  1  0  0  0
 62137  1  0  0  0
 63 65  1  0  0  0
 63138  1  0  0  0
 63139  1  0  0  0
 63140  1  0  0  0
 64141  1  0  0  0
 65142  1  0  0  0
 68 79  1  0  0  0
 71 72  1  0  0  0
 71 74  2  0  0  0
 71143  1  0  0  0
 72 73  2  0  0  0
 72 78  1  0  0  0
 73 76  1  0  0  0
 73 83  1  0  0  0
 74 80  1  0  0  0
 74 83  1  0  0  0
 75 79  1  0  0  0
 75 80  1  0  0  0
 75 82  2  0  0  0
 76 77  1  0  0  0
 76144  1  0  0  0
 76145  1  0  0  0
 77 78  1  0  0  0
 77146  1  0  0  0
 77147  1  0  0  0
 78 81  1  0  0  0
 78148  1  0  0  0
 79149  1  0  0  0
 79150  1  0  0  0
 80151  1  0  0  0
 81152  1  0  0  0
M  ISO  4   1 100  68 101  79 101  81 100
M  END
> <chiral flag>
0

> <version>
0

> <s_m_source_file>
/data/baiqing/PycharmProjects/Reinvent-master-3.2/result/LINK_invent/BTK/process_docking_weight1_custom_product_contain_oxygen_bond_distance_aromatic_linkinvent_7_9_3/rearranged_h_0155.sdf

> <i_m_source_file_index>
63

> <r_mmod_Potential_Energy-OPLS-2005>
188.786682128906

> <r_mmod_Stretch_Energy-OPLS-2005>
136.316436767578

> <r_mmod_Bend_Energy-OPLS-2005>
261.216094970703

> <r_mmod_Torsional_Energy-OPLS-2005>
219.968292236328

> <r_mmod_Improper_Torsional_Energy-OPLS-2005>
7.53589963912964

> <r_mmod_Van_der_Waal_Energy-OPLS-2005>
124.544410705566

> <r_mmod_Electrostatic_Energy-OPLS-2005>
-411.174926757812

> <r_mmod_Solvation_Energy-OPLS-2005>
-250.350448608398

> <b_mmod_Minimization_Converged-OPLS-2005>
0

> <r_mmod_RMS_Derivative-OPLS-2005>
1.42936515808105

$$$$
63
                    3D
 Structure written by MMmdl.
160169  0  0  1  0            999 V2000
  -30.6477  -14.6195   20.4896 C   0  0  0  0  0  0
  -30.4254  -12.3773   19.4565 C   0  0  0  0  0  0
  -29.5029  -12.4998   18.2245 C   0  0  0  0  0  0
  -28.0262  -12.3417   18.6370 C   0  0  0  0  0  0
  -27.6493  -13.2186   19.8613 C   0  0  2  0  0  0
  -28.6933  -13.0885   20.9935 C   0  0  0  0  0  0
  -25.2538  -13.8176   20.5685 C   0  0  0  0  0  0
  -24.1816  -13.0439   20.9207 C   0  0  0  0  0  0
  -24.6385  -11.6913   20.8754 C   0  0  0  0  0  0
  -23.9059  -10.4292   21.0412 C   0  0  0  0  0  0
  -24.3614   -9.4207   21.9187 C   0  0  0  0  0  0
  -23.6290   -8.2242   22.0755 C   0  0  0  0  0  0
  -22.4273   -8.0277   21.3543 C   0  0  0  0  0  0
  -21.9907   -9.0255   20.4651 C   0  0  0  0  0  0
  -22.7235  -10.2134   20.3060 C   0  0  0  0  0  0
  -21.6851   -6.0732   22.5278 C   0  0  0  0  0  0
  -21.4018   -6.5637   23.8212 C   0  0  0  0  0  0
  -21.3662   -5.6792   24.9173 C   0  0  0  0  0  0
  -21.6041   -4.3054   24.7226 C   0  0  0  0  0  0
  -21.8819   -3.8144   23.4348 C   0  0  0  0  0  0
  -21.9193   -4.6959   22.3402 C   0  0  0  0  0  0
  -22.7840  -13.5232   21.1865 C   0  0  0  0  0  0
  -22.1659   -4.2143   21.0980 F   0  0  0  0  0  0
  -21.5627   -3.4539   25.7741 F   0  0  0  0  0  0
  -30.0088  -13.4112   20.4238 N   0  0  0  0  0  0
  -26.2965  -12.9363   20.3319 N   0  0  0  0  0  0
  -25.9312  -11.6519   20.5768 N   0  0  0  0  0  0
  -22.0482  -12.8223   22.0418 N   0  0  0  0  0  0
  -25.4236  -15.1896   20.4065 N   0  0  0  0  0  0
  -31.8219  -14.7265   20.1285 O   0  0  0  0  0  0
  -21.6637   -6.8874   21.4239 O   0  0  0  0  0  0
  -22.3529  -14.5540   20.6708 O   0  0  0  0  0  0
  -24.6217  -31.8624   23.2026 C   0  0  0  0  0  0
  -25.9071  -32.4799   23.8356 C   0  0  1  0  0  0
  -27.2270  -27.3476   20.1014 C   0  0  0  0  0  0
  -25.5894  -33.8601   24.2287 N   0  0  0  0  0  0
  -23.4138  -30.4850   21.5450 C   0  0  2  0  0  0
  -24.8589  -28.9418   20.1086 C   0  0  0  0  0  0
  -22.7451  -29.4628   22.4943 C   0  0  0  0  0  0
  -18.0279  -28.1388   22.8502 C   0  0  0  0  0  0
  -24.1476  -36.7305   23.2641 C   0  0  0  0  0  0
  -25.9508  -30.7999   21.3688 C   0  0  0  0  0  0
  -26.0231  -29.4277   20.7141 C   0  0  0  0  0  0
  -27.2057  -28.6383   20.7067 C   0  0  0  0  0  0
  -26.0358  -26.8985   19.4868 C   0  0  0  0  0  0
  -24.8650  -27.6811   19.4904 C   0  0  0  0  0  0
  -23.6265  -29.8207   20.1586 C   0  0  0  0  0  0
  -25.4103  -36.3104   24.0337 C   0  0  1  0  0  0
  -20.5873  -28.3680   23.1307 C   0  0  2  0  0  0
  -20.6766  -26.9409   22.5421 C   0  0  0  0  0  0
  -19.5739  -26.6386   21.5219 C   0  0  0  0  0  0
  -18.1919  -26.7933   22.1630 C   0  0  0  0  0  0
  -19.1531  -28.8849   23.2902 C   0  0  0  0  0  0
  -18.9458  -30.1455   23.8917 C   0  0  0  0  0  0
  -17.6460  -30.6597   24.0574 C   0  0  0  0  0  0
  -25.9039  -34.9472   23.5119 C   0  0  0  0  0  0
  -16.5350  -29.9104   23.6329 C   0  0  0  0  0  0
  -16.7266  -28.6515   23.0359 C   0  0  0  0  0  0
  -26.4467  -31.6595   25.0714 C   0  0  0  0  0  0
  -25.3718  -31.3723   26.1458 C   0  0  0  0  0  0
  -27.0293  -30.3028   24.6121 C   0  0  0  0  0  0
  -27.6035  -32.4319   25.7486 C   0  0  0  0  0  0
  -27.5574  -37.1814   24.8475 C   0  0  0  0  0  0
  -21.4165  -29.3041   22.3707 N   0  0  0  0  0  0
  -26.4286  -37.3797   23.9417 N   0  0  0  0  0  0
  -24.6809  -31.0660   22.0964 N   0  0  0  0  0  0
  -23.4200  -28.8158   23.2994 O   0  0  0  0  0  0
  -28.3823  -26.5633   20.1546 O   0  0  0  0  0  0
  -26.5620  -34.8939   22.4688 O   0  0  0  0  0  0
  -23.5388  -32.1408   23.7379 O   0  0  0  0  0  0
  -30.6288  -19.9971   20.6560 C   0  0  0  0  0  0
  -29.1063  -18.1137   20.9454 C   0  0  0  0  0  0
  -31.4189  -17.6852   20.3682 C   0  0  0  0  0  0
  -29.3321  -19.5390   20.9566 C   0  0  0  0  0  0
  -31.6575  -19.0814   20.3524 C   0  0  0  0  0  0
  -30.1408  -17.1538   20.6850 C   0  0  0  0  0  0
  -28.6731  -22.7321   20.2694 C   0  0  0  0  0  0
  -28.1391  -23.9847   20.3344 C   0  0  0  0  0  0
  -28.2820  -20.4955   21.4541 C   0  0  0  0  0  0
  -27.0199  -24.0382   21.3328 C   0  0  0  0  0  0
  -26.9681  -22.5933   21.8599 C   0  0  0  0  0  0
  -28.4888  -25.2528   19.4991 C   0  0  0  0  0  0
  -28.0422  -21.8360   21.1566 N   0  0  0  0  0  0
  -32.9343  -19.5675   20.0634 N   0  0  0  0  0  0
  -29.8690  -15.7123   20.7775 N   0  0  0  0  0  0
  -27.4739  -19.9561   22.3716 N   0  3  0  0  0  0
  -31.4702  -12.4791   19.1584 H   0  0  0  0  0  0
  -30.3390  -11.3863   19.9051 H   0  0  0  0  0  0
  -29.7670  -11.7474   17.4800 H   0  0  0  0  0  0
  -29.6488  -13.4692   17.7452 H   0  0  0  0  0  0
  -27.8634  -11.2894   18.8737 H   0  0  0  0  0  0
  -27.3708  -12.5670   17.7950 H   0  0  0  0  0  0
  -27.6645  -14.2515   19.5137 H   0  0  0  0  0  0
  -28.6989  -12.0746   21.3966 H   0  0  0  0  0  0
  -28.4453  -13.7415   21.8318 H   0  0  0  0  0  0
  -25.2761   -9.5677   22.4760 H   0  0  0  0  0  0
  -24.0001   -7.4628   22.7469 H   0  0  0  0  0  0
  -21.0841   -8.8776   19.8953 H   0  0  0  0  0  0
  -22.3699  -10.9674   19.6168 H   0  0  0  0  0  0
  -21.2013   -7.6147   23.9712 H   0  0  0  0  0  0
  -21.1483   -6.0523   25.9075 H   0  0  0  0  0  0
  -22.0596   -2.7606   23.2851 H   0  0  0  0  0  0
  -22.4106  -11.9892   22.4816 H   0  0  0  0  0  0
  -21.1093  -13.1237   22.2618 H   0  0  0  0  0  0
  -24.6454  -15.8343   20.4936 H   0  0  0  0  0  0
  -26.2514  -15.6213   20.0173 H   0  0  0  0  0  0
  -26.7140  -32.5489   23.1109 H   0  0  0  0  0  0
  -25.0037  -33.9752   25.0430 H   0  0  0  0  0  0
  -22.7055  -31.3043   21.4049 H   0  0  0  0  0  0
  -23.3743  -35.9635   23.3314 H   0  0  0  0  0  0
  -24.3563  -36.8912   22.2053 H   0  0  0  0  0  0
  -23.7220  -37.6509   23.6652 H   0  0  0  0  0  0
  -26.0749  -31.5610   20.5974 H   0  0  0  0  0  0
  -26.8348  -30.8525   21.9931 H   0  0  0  0  0  0
  -28.1009  -29.0096   21.1858 H   0  0  0  0  0  0
  -25.9748  -25.9302   19.0156 H   0  0  0  0  0  0
  -23.9693  -27.3022   19.0181 H   0  0  0  0  0  0
  -23.7452  -30.5993   19.4030 H   0  0  0  0  0  0
  -22.7466  -29.2502   19.8551 H   0  0  0  0  0  0
  -25.1278  -36.1965   25.0831 H   0  0  0  0  0  0
  -20.9971  -28.3246   24.1426 H   0  0  0  0  0  0
  -20.5650  -26.2293   23.3618 H   0  0  0  0  0  0
  -21.6640  -26.7437   22.1222 H   0  0  0  0  0  0
  -19.6898  -25.6294   21.1250 H   0  0  0  0  0  0
  -19.6678  -27.3205   20.6756 H   0  0  0  0  0  0
  -17.4189  -26.6695   21.4028 H   0  0  0  0  0  0
  -18.0315  -26.0072   22.9020 H   0  0  0  0  0  0
  -19.7933  -30.7269   24.2296 H   0  0  0  0  0  0
  -17.5017  -31.6280   24.5172 H   0  0  0  0  0  0
  -15.5354  -30.3020   23.7633 H   0  0  0  0  0  0
  -15.8665  -28.0841   22.7070 H   0  0  0  0  0  0
  -24.5910  -30.7039   25.7810 H   0  0  0  0  0  0
  -24.8885  -32.2884   26.4865 H   0  0  0  0  0  0
  -25.8067  -30.8937   27.0242 H   0  0  0  0  0  0
  -26.2850  -29.6814   24.1130 H   0  0  0  0  0  0
  -27.4009  -29.7243   25.4585 H   0  0  0  0  0  0
  -27.8710  -30.4341   23.9323 H   0  0  0  0  0  0
  -27.2652  -33.3625   26.2059 H   0  0  0  0  0  0
  -28.3852  -32.6869   25.0315 H   0  0  0  0  0  0
  -28.0694  -31.8442   26.5406 H   0  0  0  0  0  0
  -28.2615  -38.0090   24.7509 H   0  0  0  0  0  0
  -28.1038  -36.2625   24.6309 H   0  0  0  0  0  0
  -27.2297  -37.1489   25.8880 H   0  0  0  0  0  0
  -20.9326  -29.8792   21.6956 H   0  0  0  0  0  0
  -26.0168  -38.2874   24.1405 H   0  0  0  0  0  0
  -30.8491  -21.0540   20.7006 H   0  0  0  0  0  0
  -28.1207  -17.7419   21.1884 H   0  0  0  0  0  0
  -32.2518  -17.0369   20.1509 H   0  0  0  0  0  0
  -29.4558  -22.3789   19.6128 H   0  0  0  0  0  0
  -26.0824  -24.3172   20.8517 H   0  0  0  0  0  0
  -27.2376  -24.7565   22.1236 H   0  0  0  0  0  0
  -25.9910  -22.1496   21.6608 H   0  0  0  0  0  0
  -27.1300  -22.5824   22.9393 H   0  0  0  0  0  0
  -29.5284  -25.1443   19.1886 H   0  0  0  0  0  0
  -27.9310  -25.2339   18.5638 H   0  0  0  0  0  0
  -33.1764  -20.5041   20.3722 H   0  0  0  0  0  0
  -33.7187  -18.9243   20.1186 H   0  0  0  0  0  0
  -28.9270  -15.4676   21.0407 H   0  0  0  0  0  0
  -27.6662  -19.0225   22.6959 H   0  0  0  0  0  0
  -26.7130  -20.4621   22.7871 H   0  0  0  0  0  0
  1 25  1  0  0  0
  1 30  2  0  0  0
  1 85  1  0  0  0
  2  3  1  0  0  0
  2 25  1  0  0  0
  2 87  1  0  0  0
  2 88  1  0  0  0
  3  4  1  0  0  0
  3 89  1  0  0  0
  3 90  1  0  0  0
  4  5  1  0  0  0
  4 91  1  0  0  0
  4 92  1  0  0  0
  5  6  1  0  0  0
  5 26  1  0  0  0
  5 93  1  0  0  0
  6 25  1  0  0  0
  6 94  1  0  0  0
  6 95  1  0  0  0
  7  8  2  0  0  0
  7 26  1  0  0  0
  7 29  1  0  0  0
  8  9  1  0  0  0
  8 22  1  0  0  0
  9 10  1  0  0  0
  9 27  2  0  0  0
 10 11  2  0  0  0
 10 15  1  0  0  0
 11 12  1  0  0  0
 11 96  1  0  0  0
 12 13  2  0  0  0
 12 97  1  0  0  0
 13 14  1  0  0  0
 13 31  1  0  0  0
 14 15  2  0  0  0
 14 98  1  0  0  0
 15 99  1  0  0  0
 16 17  2  0  0  0
 16 21  1  0  0  0
 16 31  1  0  0  0
 17 18  1  0  0  0
 17100  1  0  0  0
 18 19  2  0  0  0
 18101  1  0  0  0
 19 20  1  0  0  0
 19 24  1  0  0  0
 20 21  2  0  0  0
 20102  1  0  0  0
 21 23  1  0  0  0
 22 28  1  0  0  0
 22 32  2  0  0  0
 26 27  1  0  0  0
 28103  1  0  0  0
 28104  1  0  0  0
 29105  1  0  0  0
 29106  1  0  0  0
 33 34  1  0  0  0
 33 66  1  0  0  0
 33 70  2  0  0  0
 34 36  1  0  0  0
 34 59  1  0  0  0
 34107  1  0  0  0
 35 44  2  0  0  0
 35 45  1  0  0  0
 35 68  1  0  0  0
 36 56  1  0  0  0
 36108  1  0  0  0
 37 39  1  0  0  0
 37 47  1  0  0  0
 37 66  1  0  0  0
 37109  1  0  0  0
 38 43  2  0  0  0
 38 46  1  0  0  0
 38 47  1  0  0  0
 39 64  1  0  0  0
 39 67  2  0  0  0
 40 52  1  0  0  0
 40 53  2  0  0  0
 40 58  1  0  0  0
 41110  1  0  0  0
 41111  1  0  0  0
 41112  1  0  0  0
 41 48  1  0  0  0
 42 43  1  0  0  0
 42 66  1  0  0  0
 42113  1  0  0  0
 42114  1  0  0  0
 43 44  1  0  0  0
 44115  1  0  0  0
 45 46  2  0  0  0
 45116  1  0  0  0
 46117  1  0  0  0
 47118  1  0  0  0
 47119  1  0  0  0
 48 56  1  0  0  0
 48 65  1  0  0  0
 48120  1  0  0  0
 49 50  1  0  0  0
 49 53  1  0  0  0
 49 64  1  0  0  0
 49121  1  0  0  0
 50 51  1  0  0  0
 50122  1  0  0  0
 50123  1  0  0  0
 51 52  1  0  0  0
 51124  1  0  0  0
 51125  1  0  0  0
 52126  1  0  0  0
 52127  1  0  0  0
 53 54  1  0  0  0
 54 55  2  0  0  0
 54128  1  0  0  0
 55 57  1  0  0  0
 55129  1  0  0  0
 56 69  2  0  0  0
 57 58  2  0  0  0
 57130  1  0  0  0
 58131  1  0  0  0
 59 60  1  0  0  0
 59 61  1  0  0  0
 59 62  1  0  0  0
 60132  1  0  0  0
 60133  1  0  0  0
 60134  1  0  0  0
 61135  1  0  0  0
 61136  1  0  0  0
 61137  1  0  0  0
 62138  1  0  0  0
 62139  1  0  0  0
 62140  1  0  0  0
 63 65  1  0  0  0
 63141  1  0  0  0
 63142  1  0  0  0
 63143  1  0  0  0
 64144  1  0  0  0
 65145  1  0  0  0
 68 82  1  0  0  0
 71 74  2  0  0  0
 71 75  1  0  0  0
 71146  1  0  0  0
 72 74  1  0  0  0
 72 76  2  0  0  0
 72147  1  0  0  0
 73 75  2  0  0  0
 73 76  1  0  0  0
 73148  1  0  0  0
 74 79  1  0  0  0
 75 84  1  0  0  0
 76 85  1  0  0  0
 77 78  2  0  0  0
 77 83  1  0  0  0
 77149  1  0  0  0
 78 80  1  0  0  0
 78 82  1  0  0  0
 79 83  1  0  0  0
 79 86  2  0  0  0
 80 81  1  0  0  0
 80150  1  0  0  0
 80151  1  0  0  0
 81 83  1  0  0  0
 81152  1  0  0  0
 81153  1  0  0  0
 82154  1  0  0  0
 82155  1  0  0  0
 84156  1  0  0  0
 84157  1  0  0  0
 85158  1  0  0  0
 86159  1  0  0  0
 86160  1  0  0  0
M  CHG  1  86   1
M  ISO  4   1 100  68 101  82 101  85 100
M  END
> <chiral flag>
0

> <version>
0

> <s_m_source_file>
/data/baiqing/PycharmProjects/Reinvent-master-3.2/result/LINK_invent/BTK/process_docking_weight1_custom_product_contain_oxygen_bond_distance_aromatic_linkinvent_7_9_3/rearranged_h_0155.sdf

> <i_m_source_file_index>
64

> <r_mmod_Potential_Energy-OPLS-2005>
-92.7826538085938

> <r_mmod_Stretch_Energy-OPLS-2005>
73.9570693969727

> <r_mmod_Bend_Energy-OPLS-2005>
203.905426025391

> <r_mmod_Torsional_Energy-OPLS-2005>
197.075347900391

> <r_mmod_Improper_Torsional_Energy-OPLS-2005>
8.96083450317383

> <r_mmod_Van_der_Waal_Energy-OPLS-2005>
154.01025390625

> <r_mmod_Electrostatic_Energy-OPLS-2005>
-348.222320556641

> <r_mmod_Solvation_Energy-OPLS-2005>
-421.532135009766

> <b_mmod_Minimization_Converged-OPLS-2005>
0

> <r_mmod_RMS_Derivative-OPLS-2005>
1.08633840084076

$$$$
64
                    3D
 Structure written by MMmdl.
156164  0  0  1  0            999 V2000
  -30.6975  -14.5992   20.4547 C   0  0  0  0  0  0
  -30.4255  -12.3519   19.4385 C   0  0  0  0  0  0
  -29.4900  -12.4150   18.2149 C   0  0  0  0  0  0
  -28.0141  -12.2791   18.6391 C   0  0  0  0  0  0
  -27.6345  -13.1865   19.8393 C   0  0  2  0  0  0
  -28.6977  -13.1261   20.9609 C   0  0  0  0  0  0
  -25.2490  -13.8053   20.5706 C   0  0  0  0  0  0
  -24.1760  -13.0362   20.9243 C   0  0  0  0  0  0
  -24.6324  -11.6836   20.8811 C   0  0  0  0  0  0
  -23.9003  -10.4245   21.0447 C   0  0  0  0  0  0
  -24.3573   -9.4153   21.9212 C   0  0  0  0  0  0
  -23.6256   -8.2187   22.0765 C   0  0  0  0  0  0
  -22.4238   -8.0236   21.3551 C   0  0  0  0  0  0
  -21.9866   -9.0215   20.4661 C   0  0  0  0  0  0
  -22.7196  -10.2093   20.3084 C   0  0  0  0  0  0
  -21.6825   -6.0700   22.5277 C   0  0  0  0  0  0
  -21.3982   -6.5614   23.8211 C   0  0  0  0  0  0
  -21.3663   -5.6777   24.9175 C   0  0  0  0  0  0
  -21.6045   -4.3040   24.7230 C   0  0  0  0  0  0
  -21.8813   -3.8121   23.4358 C   0  0  0  0  0  0
  -21.9175   -4.6930   22.3404 C   0  0  0  0  0  0
  -22.7802  -13.5197   21.1890 C   0  0  0  0  0  0
  -22.1660   -4.2114   21.0990 F   0  0  0  0  0  0
  -21.5649   -3.4535   25.7755 F   0  0  0  0  0  0
  -30.0065  -13.4192   20.3569 N   0  0  0  0  0  0
  -26.2901  -12.9195   20.3324 N   0  0  0  0  0  0
  -25.9246  -11.6399   20.5847 N   0  0  0  0  0  0
  -22.0418  -12.8219   22.0440 N   0  0  0  0  0  0
  -25.4101  -15.1764   20.4043 N   0  0  0  0  0  0
  -31.9147  -14.6464   20.2645 O   0  0  0  0  0  0
  -21.6608   -6.8838   21.4238 O   0  0  0  0  0  0
  -22.3541  -14.5528   20.6745 O   0  0  0  0  0  0
  -24.6172  -31.8665   23.2077 C   0  0  0  0  0  0
  -25.9049  -32.4818   23.8398 C   0  0  1  0  0  0
  -27.2440  -27.4153   20.1088 C   0  0  0  0  0  0
  -25.5895  -33.8616   24.2331 N   0  0  0  0  0  0
  -23.4089  -30.4868   21.5486 C   0  0  2  0  0  0
  -24.8593  -28.9499   20.1158 C   0  0  0  0  0  0
  -22.7442  -29.4634   22.4985 C   0  0  0  0  0  0
  -18.0284  -28.1370   22.8478 C   0  0  0  0  0  0
  -24.1486  -36.7308   23.2644 C   0  0  0  0  0  0
  -25.9397  -30.8271   21.3635 C   0  0  0  0  0  0
  -26.0205  -29.4602   20.7097 C   0  0  0  0  0  0
  -27.2189  -28.7030   20.6964 C   0  0  0  0  0  0
  -26.0662  -26.9272   19.5031 C   0  0  0  0  0  0
  -24.8774  -27.6832   19.5077 C   0  0  0  0  0  0
  -23.6201  -29.8160   20.1649 C   0  0  0  0  0  0
  -25.4105  -36.3111   24.0345 C   0  0  1  0  0  0
  -20.5885  -28.3652   23.1325 C   0  0  2  0  0  0
  -20.6771  -26.9393   22.5401 C   0  0  0  0  0  0
  -19.5754  -26.6408   21.5184 C   0  0  0  0  0  0
  -18.1930  -26.7927   22.1595 C   0  0  0  0  0  0
  -19.1538  -28.8828   23.2901 C   0  0  0  0  0  0
  -18.9458  -30.1430   23.8921 C   0  0  0  0  0  0
  -17.6455  -30.6569   24.0574 C   0  0  0  0  0  0
  -25.9034  -34.9476   23.5137 C   0  0  0  0  0  0
  -16.5341  -29.9069   23.6328 C   0  0  0  0  0  0
  -16.7269  -28.6489   23.0342 C   0  0  0  0  0  0
  -26.4469  -31.6596   25.0730 C   0  0  0  0  0  0
  -25.3730  -31.3695   26.1479 C   0  0  0  0  0  0
  -27.0309  -30.3043   24.6101 C   0  0  0  0  0  0
  -27.6059  -32.4308   25.7477 C   0  0  0  0  0  0
  -27.5577  -37.1809   24.8467 C   0  0  0  0  0  0
  -21.4165  -29.3028   22.3738 N   0  0  0  0  0  0
  -26.4292  -37.3791   23.9411 N   0  0  0  0  0  0
  -24.6736  -31.0751   22.0983 N   0  0  0  0  0  0
  -23.4203  -28.8178   23.3035 O   0  0  0  0  0  0
  -28.3910  -26.6436   20.1078 O   0  0  0  0  0  0
  -26.5603  -34.8922   22.4702 O   0  0  0  0  0  0
  -23.5352  -32.1420   23.7451 O   0  0  0  0  0  0
  -30.5417  -19.3167   20.6407 C   0  0  0  0  0  0
  -28.6799  -20.0111   21.6800 C   0  0  0  0  0  0
  -29.6947  -20.4477   20.8777 C   0  0  0  0  0  0
  -29.9845  -18.2554   21.3253 C   0  0  0  0  0  0
  -29.1459  -24.2392   20.2296 C   0  0  0  0  0  0
  -29.2783  -16.1485   19.3713 C   0  0  0  0  0  0
  -28.0116  -16.9905   19.5222 C   0  0  0  0  0  0
  -30.3147  -16.7748   21.5380 C   0  0  0  0  0  0
  -29.0729  -22.8682   20.9557 C   0  0  0  0  0  0
  -28.2471  -25.3726   20.7892 C   0  0  0  0  0  0
  -29.8575  -21.7576   20.3693 N   0  0  0  0  0  0
  -29.9776  -15.7691   20.4791 N   0  0  0  0  0  0
  -29.8855  -24.4074   19.2524 O   0  0  0  0  0  0
  -29.5591  -15.7838   18.2250 O   0  0  0  0  0  0
  -28.8523  -18.6876   21.9659 O   0  0  0  0  0  0
  -31.4654  -12.4557   19.1249 H   0  0  0  0  0  0
  -30.3510  -11.3796   19.9289 H   0  0  0  0  0  0
  -29.7424  -11.6164   17.5167 H   0  0  0  0  0  0
  -29.6408  -13.3436   17.6670 H   0  0  0  0  0  0
  -27.8543  -11.2339   18.9076 H   0  0  0  0  0  0
  -27.3574  -12.4734   17.7912 H   0  0  0  0  0  0
  -27.6004  -14.1877   19.4333 H   0  0  0  0  0  0
  -28.7096  -12.1420   21.4322 H   0  0  0  0  0  0
  -28.4582  -13.8423   21.7497 H   0  0  0  0  0  0
  -25.2717   -9.5632   22.4787 H   0  0  0  0  0  0
  -23.9952   -7.4560   22.7473 H   0  0  0  0  0  0
  -21.0795   -8.8731   19.8965 H   0  0  0  0  0  0
  -22.3653  -10.9638   19.6198 H   0  0  0  0  0  0
  -21.1963   -7.6122   23.9717 H   0  0  0  0  0  0
  -21.1508   -6.0512   25.9081 H   0  0  0  0  0  0
  -22.0587   -2.7584   23.2880 H   0  0  0  0  0  0
  -22.3981  -11.9828   22.4770 H   0  0  0  0  0  0
  -21.1066  -13.1311   22.2697 H   0  0  0  0  0  0
  -24.6251  -15.8138   20.4858 H   0  0  0  0  0  0
  -26.2383  -15.6144   20.0303 H   0  0  0  0  0  0
  -26.7130  -32.5536   23.1179 H   0  0  0  0  0  0
  -25.0038  -33.9779   25.0466 H   0  0  0  0  0  0
  -22.6983  -31.3036   21.4065 H   0  0  0  0  0  0
  -23.3742  -35.9649   23.3320 H   0  0  0  0  0  0
  -24.3582  -36.8899   22.2056 H   0  0  0  0  0  0
  -23.7242  -37.6520   23.6640 H   0  0  0  0  0  0
  -26.0570  -31.5932   20.5967 H   0  0  0  0  0  0
  -26.8260  -30.8826   21.9828 H   0  0  0  0  0  0
  -28.1161  -29.0963   21.1531 H   0  0  0  0  0  0
  -26.0637  -25.9579   19.0259 H   0  0  0  0  0  0
  -23.9860  -27.2849   19.0423 H   0  0  0  0  0  0
  -23.7268  -30.5902   19.4053 H   0  0  0  0  0  0
  -22.7449  -29.2332   19.8704 H   0  0  0  0  0  0
  -25.1277  -36.1987   25.0837 H   0  0  0  0  0  0
  -20.9972  -28.3196   24.1446 H   0  0  0  0  0  0
  -20.5654  -26.2250   23.3584 H   0  0  0  0  0  0
  -21.6638  -26.7429   22.1200 H   0  0  0  0  0  0
  -19.6921  -25.6341   21.1169 H   0  0  0  0  0  0
  -19.6705  -27.3262   20.6759 H   0  0  0  0  0  0
  -17.4212  -26.6706   21.3987 H   0  0  0  0  0  0
  -18.0314  -26.0043   22.8963 H   0  0  0  0  0  0
  -19.7938  -30.7241   24.2306 H   0  0  0  0  0  0
  -17.5014  -31.6256   24.5164 H   0  0  0  0  0  0
  -15.5340  -30.2974   23.7643 H   0  0  0  0  0  0
  -15.8673  -28.0810   22.7034 H   0  0  0  0  0  0
  -24.5884  -30.7073   25.7791 H   0  0  0  0  0  0
  -24.8949  -32.2851   26.4969 H   0  0  0  0  0  0
  -25.8082  -30.8812   27.0211 H   0  0  0  0  0  0
  -26.2855  -29.6806   24.1157 H   0  0  0  0  0  0
  -27.4086  -29.7278   25.4556 H   0  0  0  0  0  0
  -27.8687  -30.4371   23.9256 H   0  0  0  0  0  0
  -27.2692  -33.3587   26.2114 H   0  0  0  0  0  0
  -28.3834  -32.6903   25.0278 H   0  0  0  0  0  0
  -28.0779  -31.8399   26.5338 H   0  0  0  0  0  0
  -28.2612  -38.0088   24.7495 H   0  0  0  0  0  0
  -28.1058  -36.2622   24.6318 H   0  0  0  0  0  0
  -27.2303  -37.1491   25.8874 H   0  0  0  0  0  0
  -20.9317  -29.8778   21.6993 H   0  0  0  0  0  0
  -26.0187  -38.2877   24.1389 H   0  0  0  0  0  0
  -31.4475  -19.2788   20.0499 H   0  0  0  0  0  0
  -27.8031  -20.4697   22.1160 H   0  0  0  0  0  0
  -28.2122  -18.0384   19.3074 H   0  0  0  0  0  0
  -27.5928  -16.9040   20.5236 H   0  0  0  0  0  0
  -27.2592  -16.6598   18.8071 H   0  0  0  0  0  0
  -29.8142  -16.4388   22.4481 H   0  0  0  0  0  0
  -31.3798  -16.7121   21.7687 H   0  0  0  0  0  0
  -28.0212  -22.5850   21.0037 H   0  0  0  0  0  0
  -29.4009  -23.0233   21.9839 H   0  0  0  0  0  0
  -28.4988  -25.5215   21.8394 H   0  0  0  0  0  0
  -27.2186  -25.0165   20.7649 H   0  0  0  0  0  0
  -30.7240  -22.0149   19.8988 H   0  0  0  0  0  0
  1 25  1  0  0  0
  1 30  2  0  0  0
  1 82  1  0  0  0
  2  3  1  0  0  0
  2 25  1  0  0  0
  2 86  1  0  0  0
  2 87  1  0  0  0
  3  4  1  0  0  0
  3 88  1  0  0  0
  3 89  1  0  0  0
  4  5  1  0  0  0
  4 90  1  0  0  0
  4 91  1  0  0  0
  5  6  1  0  0  0
  5 26  1  0  0  0
  5 92  1  0  0  0
  6 25  1  0  0  0
  6 93  1  0  0  0
  6 94  1  0  0  0
  7  8  2  0  0  0
  7 26  1  0  0  0
  7 29  1  0  0  0
  8  9  1  0  0  0
  8 22  1  0  0  0
  9 10  1  0  0  0
  9 27  2  0  0  0
 10 11  2  0  0  0
 10 15  1  0  0  0
 11 12  1  0  0  0
 11 95  1  0  0  0
 12 13  2  0  0  0
 12 96  1  0  0  0
 13 14  1  0  0  0
 13 31  1  0  0  0
 14 15  2  0  0  0
 14 97  1  0  0  0
 15 98  1  0  0  0
 16 17  2  0  0  0
 16 21  1  0  0  0
 16 31  1  0  0  0
 17 18  1  0  0  0
 17 99  1  0  0  0
 18 19  2  0  0  0
 18100  1  0  0  0
 19 20  1  0  0  0
 19 24  1  0  0  0
 20 21  2  0  0  0
 20101  1  0  0  0
 21 23  1  0  0  0
 22 28  1  0  0  0
 22 32  2  0  0  0
 26 27  1  0  0  0
 28102  1  0  0  0
 28103  1  0  0  0
 29104  1  0  0  0
 29105  1  0  0  0
 33 34  1  0  0  0
 33 66  1  0  0  0
 33 70  2  0  0  0
 34 36  1  0  0  0
 34 59  1  0  0  0
 34106  1  0  0  0
 35 44  2  0  0  0
 35 45  1  0  0  0
 35 68  1  0  0  0
 36 56  1  0  0  0
 36107  1  0  0  0
 37 39  1  0  0  0
 37 47  1  0  0  0
 37 66  1  0  0  0
 37108  1  0  0  0
 38 43  2  0  0  0
 38 46  1  0  0  0
 38 47  1  0  0  0
 39 64  1  0  0  0
 39 67  2  0  0  0
 40 52  1  0  0  0
 40 53  2  0  0  0
 40 58  1  0  0  0
 41109  1  0  0  0
 41110  1  0  0  0
 41111  1  0  0  0
 41 48  1  0  0  0
 42 43  1  0  0  0
 42 66  1  0  0  0
 42112  1  0  0  0
 42113  1  0  0  0
 43 44  1  0  0  0
 44114  1  0  0  0
 45 46  2  0  0  0
 45115  1  0  0  0
 46116  1  0  0  0
 47117  1  0  0  0
 47118  1  0  0  0
 48 56  1  0  0  0
 48 65  1  0  0  0
 48119  1  0  0  0
 49 50  1  0  0  0
 49 53  1  0  0  0
 49 64  1  0  0  0
 49120  1  0  0  0
 50 51  1  0  0  0
 50121  1  0  0  0
 50122  1  0  0  0
 51 52  1  0  0  0
 51123  1  0  0  0
 51124  1  0  0  0
 52125  1  0  0  0
 52126  1  0  0  0
 53 54  1  0  0  0
 54 55  2  0  0  0
 54127  1  0  0  0
 55 57  1  0  0  0
 55128  1  0  0  0
 56 69  2  0  0  0
 57 58  2  0  0  0
 57129  1  0  0  0
 58130  1  0  0  0
 59 60  1  0  0  0
 59 61  1  0  0  0
 59 62  1  0  0  0
 60131  1  0  0  0
 60132  1  0  0  0
 60133  1  0  0  0
 61134  1  0  0  0
 61135  1  0  0  0
 61136  1  0  0  0
 62137  1  0  0  0
 62138  1  0  0  0
 62139  1  0  0  0
 63 65  1  0  0  0
 63140  1  0  0  0
 63141  1  0  0  0
 63142  1  0  0  0
 64143  1  0  0  0
 65144  1  0  0  0
 68 80  1  0  0  0
 71 73  1  0  0  0
 71 74  2  0  0  0
 71145  1  0  0  0
 72 73  2  0  0  0
 72 85  1  0  0  0
 72146  1  0  0  0
 73 81  1  0  0  0
 74 78  1  0  0  0
 74 85  1  0  0  0
 75 79  1  0  0  0
 75 80  1  0  0  0
 75 83  2  0  0  0
 76 77  1  0  0  0
 76 82  1  0  0  0
 76 84  2  0  0  0
 77147  1  0  0  0
 77148  1  0  0  0
 77149  1  0  0  0
 78 82  1  0  0  0
 78150  1  0  0  0
 78151  1  0  0  0
 79 81  1  0  0  0
 79152  1  0  0  0
 79153  1  0  0  0
 80154  1  0  0  0
 80155  1  0  0  0
 81156  1  0  0  0
M  ISO  4   1 100  68 101  80 101  82 100
M  END
> <chiral flag>
0

> <version>
0

> <s_m_source_file>
/data/baiqing/PycharmProjects/Reinvent-master-3.2/result/LINK_invent/BTK/process_docking_weight1_custom_product_contain_oxygen_bond_distance_aromatic_linkinvent_7_9_3/rearranged_h_0155.sdf

> <i_m_source_file_index>
65

> <r_mmod_Potential_Energy-OPLS-2005>
97.6201934814453

> <r_mmod_Stretch_Energy-OPLS-2005>
50.1984367370605

> <r_mmod_Bend_Energy-OPLS-2005>
121.581123352051

> <r_mmod_Torsional_Energy-OPLS-2005>
324.515747070312

> <r_mmod_Improper_Torsional_Energy-OPLS-2005>
9.50735950469971

> <r_mmod_Van_der_Waal_Energy-OPLS-2005>
139.462020874023

> <r_mmod_Electrostatic_Energy-OPLS-2005>
-352.311828613281

> <r_mmod_Solvation_Energy-OPLS-2005>
-235.327896118164

> <b_mmod_Minimization_Converged-OPLS-2005>
0

> <r_mmod_RMS_Derivative-OPLS-2005>
2.33852362632751

$$$$
65
                    3D
 Structure written by MMmdl.
162171  0  0  1  0            999 V2000
  -30.5456  -14.8812   20.4239 C   0  0  0  0  0  0
  -30.4370  -12.5362   19.5075 C   0  0  0  0  0  0
  -29.5209  -12.5305   18.2609 C   0  0  0  0  0  0
  -28.0506  -12.3251   18.6701 C   0  0  0  0  0  0
  -27.6362  -13.2355   19.8554 C   0  0  2  0  0  0
  -28.6765  -13.2222   20.9978 C   0  0  0  0  0  0
  -25.2478  -13.8184   20.5716 C   0  0  0  0  0  0
  -24.1772  -13.0429   20.9217 C   0  0  0  0  0  0
  -24.6372  -11.6909   20.8751 C   0  0  0  0  0  0
  -23.9052  -10.4286   21.0402 C   0  0  0  0  0  0
  -24.3608   -9.4205   21.9181 C   0  0  0  0  0  0
  -23.6287   -8.2238   22.0748 C   0  0  0  0  0  0
  -22.4268   -8.0274   21.3543 C   0  0  0  0  0  0
  -21.9901   -9.0245   20.4644 C   0  0  0  0  0  0
  -22.7226  -10.2126   20.3054 C   0  0  0  0  0  0
  -21.6851   -6.0730   22.5277 C   0  0  0  0  0  0
  -21.4015   -6.5636   23.8211 C   0  0  0  0  0  0
  -21.3662   -5.6788   24.9173 C   0  0  0  0  0  0
  -21.6041   -4.3051   24.7224 C   0  0  0  0  0  0
  -21.8820   -3.8143   23.4344 C   0  0  0  0  0  0
  -21.9192   -4.6959   22.3402 C   0  0  0  0  0  0
  -22.7795  -13.5213   21.1873 C   0  0  0  0  0  0
  -22.1661   -4.2146   21.0978 F   0  0  0  0  0  0
  -21.5632   -3.4535   25.7736 F   0  0  0  0  0  0
  -29.9690  -13.6164   20.4209 N   0  0  0  0  0  0
  -26.2901  -12.9391   20.3299 N   0  0  0  0  0  0
  -25.9305  -11.6535   20.5762 N   0  0  0  0  0  0
  -22.0444  -12.8201   22.0430 N   0  0  0  0  0  0
  -25.4178  -15.1905   20.4132 N   0  0  0  0  0  0
  -31.7089  -14.9879   20.0211 O   0  0  0  0  0  0
  -21.6638   -6.8868   21.4236 O   0  0  0  0  0  0
  -22.3488  -14.5523   20.6728 O   0  0  0  0  0  0
  -24.6363  -31.8462   23.1874 C   0  0  0  0  0  0
  -25.9156  -32.4707   23.8259 C   0  0  1  0  0  0
  -27.2293  -27.1862   20.1510 C   0  0  0  0  0  0
  -25.5916  -33.8512   24.2183 N   0  0  0  0  0  0
  -23.4385  -30.4611   21.5306 C   0  0  2  0  0  0
  -24.8900  -28.8870   20.1030 C   0  0  0  0  0  0
  -22.7533  -29.4546   22.4868 C   0  0  0  0  0  0
  -18.0296  -28.1392   22.8481 C   0  0  0  0  0  0
  -24.1490  -36.7270   23.2644 C   0  0  0  0  0  0
  -25.9857  -30.7357   21.3755 C   0  0  0  0  0  0
  -26.0578  -29.3493   20.7200 C   0  0  0  0  0  0
  -27.2234  -28.5103   20.7301 C   0  0  0  0  0  0
  -26.0431  -26.8007   19.4951 C   0  0  0  0  0  0
  -24.8925  -27.6260   19.4764 C   0  0  0  0  0  0
  -23.6608  -29.7815   20.1500 C   0  0  0  0  0  0
  -25.4120  -36.3044   24.0317 C   0  0  1  0  0  0
  -20.5904  -28.3707   23.1254 C   0  0  2  0  0  0
  -20.6777  -26.9414   22.5414 C   0  0  0  0  0  0
  -19.5755  -26.6379   21.5216 C   0  0  0  0  0  0
  -18.1935  -26.7931   22.1624 C   0  0  0  0  0  0
  -19.1550  -28.8866   23.2862 C   0  0  0  0  0  0
  -18.9472  -30.1464   23.8887 C   0  0  0  0  0  0
  -17.6470  -30.6589   24.0561 C   0  0  0  0  0  0
  -25.9062  -34.9417   23.5065 C   0  0  0  0  0  0
  -16.5362  -29.9086   23.6333 C   0  0  0  0  0  0
  -16.7282  -28.6504   23.0356 C   0  0  0  0  0  0
  -26.4496  -31.6570   25.0692 C   0  0  0  0  0  0
  -25.3691  -31.3757   26.1397 C   0  0  0  0  0  0
  -27.0355  -30.2975   24.6238 C   0  0  0  0  0  0
  -27.6029  -32.4336   25.7477 C   0  0  0  0  0  0
  -27.5577  -37.1789   24.8463 C   0  0  0  0  0  0
  -21.4229  -29.3036   22.3626 N   0  0  0  0  0  0
  -26.4289  -37.3753   23.9406 N   0  0  0  0  0  0
  -24.7063  -31.0357   22.0874 N   0  0  0  0  0  0
  -23.4198  -28.8115   23.3017 O   0  0  0  0  0  0
  -28.3282  -26.2891   20.2958 O   0  0  0  0  0  0
  -26.5661  -34.8912   22.4651 O   0  0  0  0  0  0
  -23.5497  -32.1313   23.7127 O   0  0  0  0  0  0
  -29.6683  -18.7204   20.6700 C   0  0  0  0  0  0
  -28.3311  -18.4233   18.2788 C   0  0  0  0  0  0
  -29.1982  -19.9643   20.0031 C   0  0  0  0  0  0
  -29.5191  -17.3436   20.1479 C   0  0  0  0  0  0
  -28.4864  -19.7371   18.7871 C   0  0  0  0  0  0
  -28.8443  -17.2707   18.9122 C   0  0  0  0  0  0
  -29.6299  -21.4234   20.4170 C   0  0  0  0  0  0
  -27.7399  -23.4801   20.1857 C   0  0  0  0  0  0
  -28.4921  -24.8334   19.8257 C   0  0  2  0  0  0
  -29.7071  -24.1237   20.5392 C   0  0  0  0  0  0
  -29.8573  -24.4251   22.0439 C   0  0  0  0  0  0
  -31.0518  -24.2990   19.8156 C   0  0  0  0  0  0
  -29.0685  -22.7472   20.3256 N   0  0  0  0  0  0
  -27.9411  -20.7668   18.0069 N   0  0  0  0  0  0
  -29.8094  -16.0145   20.8239 N   0  0  0  0  0  0
  -30.8692  -21.4541   20.9134 N   0  3  0  0  0  0
  -28.6345  -16.0641   18.3321 F   0  0  0  0  0  0
  -31.4766  -12.6741   19.2069 H   0  0  0  0  0  0
  -30.4054  -11.5706   20.0146 H   0  0  0  0  0  0
  -29.8300  -11.7490   17.5661 H   0  0  0  0  0  0
  -29.6232  -13.4760   17.7252 H   0  0  0  0  0  0
  -27.9297  -11.2783   18.9519 H   0  0  0  0  0  0
  -27.3923  -12.4899   17.8164 H   0  0  0  0  0  0
  -27.6090  -14.2456   19.4548 H   0  0  0  0  0  0
  -28.7406  -12.2342   21.4563 H   0  0  0  0  0  0
  -28.3796  -13.9073   21.7927 H   0  0  0  0  0  0
  -25.2753   -9.5692   22.4752 H   0  0  0  0  0  0
  -24.0005   -7.4629   22.7464 H   0  0  0  0  0  0
  -21.0838   -8.8763   19.8944 H   0  0  0  0  0  0
  -22.3684  -10.9665   19.6165 H   0  0  0  0  0  0
  -21.2010   -7.6145   23.9714 H   0  0  0  0  0  0
  -21.1482   -6.0518   25.9076 H   0  0  0  0  0  0
  -22.0598   -2.7606   23.2845 H   0  0  0  0  0  0
  -22.4069  -11.9872   22.4830 H   0  0  0  0  0  0
  -21.1059  -13.1219   22.2633 H   0  0  0  0  0  0
  -24.6456  -15.8405   20.5108 H   0  0  0  0  0  0
  -26.2555  -15.6210   20.0465 H   0  0  0  0  0  0
  -26.7223  -32.5327   23.0993 H   0  0  0  0  0  0
  -25.0021  -33.9629   25.0301 H   0  0  0  0  0  0
  -22.7389  -31.2849   21.3751 H   0  0  0  0  0  0
  -23.3753  -35.9600   23.3295 H   0  0  0  0  0  0
  -24.3575  -36.8914   22.2062 H   0  0  0  0  0  0
  -23.7243  -37.6462   23.6687 H   0  0  0  0  0  0
  -26.1312  -31.4908   20.6017 H   0  0  0  0  0  0
  -26.8603  -30.7898   22.0124 H   0  0  0  0  0  0
  -28.1131  -28.8545   21.2385 H   0  0  0  0  0  0
  -25.9844  -25.8258   19.0327 H   0  0  0  0  0  0
  -23.9970  -27.2667   18.9887 H   0  0  0  0  0  0
  -23.7858  -30.5521   19.3885 H   0  0  0  0  0  0
  -22.7781  -29.2142   19.8492 H   0  0  0  0  0  0
  -25.1308  -36.1877   25.0810 H   0  0  0  0  0  0
  -20.9998  -28.3298   24.1375 H   0  0  0  0  0  0
  -20.5666  -26.2321   23.3629 H   0  0  0  0  0  0
  -21.6646  -26.7421   22.1218 H   0  0  0  0  0  0
  -19.6916  -25.6286   21.1257 H   0  0  0  0  0  0
  -19.6694  -27.3182   20.6741 H   0  0  0  0  0  0
  -17.4205  -26.6678   21.4028 H   0  0  0  0  0  0
  -18.0332  -26.0078   22.9024 H   0  0  0  0  0  0
  -19.7947  -30.7283   24.2253 H   0  0  0  0  0  0
  -17.5024  -31.6268   24.5166 H   0  0  0  0  0  0
  -15.5362  -30.2986   23.7661 H   0  0  0  0  0  0
  -15.8681  -28.0819   22.7078 H   0  0  0  0  0  0
  -24.5862  -30.7113   25.7723 H   0  0  0  0  0  0
  -24.8886  -32.2941   26.4781 H   0  0  0  0  0  0
  -25.7978  -30.8957   27.0203 H   0  0  0  0  0  0
  -26.2955  -29.6707   24.1246 H   0  0  0  0  0  0
  -27.3988  -29.7265   25.4794 H   0  0  0  0  0  0
  -27.8852  -30.4229   23.9523 H   0  0  0  0  0  0
  -27.2614  -33.3648   26.2012 H   0  0  0  0  0  0
  -28.3858  -32.6881   25.0321 H   0  0  0  0  0  0
  -28.0673  -31.8491   26.5429 H   0  0  0  0  0  0
  -28.2588  -38.0093   24.7509 H   0  0  0  0  0  0
  -28.1078  -36.2621   24.6287 H   0  0  0  0  0  0
  -27.2294  -37.1437   25.8866 H   0  0  0  0  0  0
  -20.9430  -29.8734   21.6798 H   0  0  0  0  0  0
  -26.0158  -38.2824   24.1401 H   0  0  0  0  0  0
  -30.1867  -18.8288   21.6111 H   0  0  0  0  0  0
  -27.8043  -18.2696   17.3491 H   0  0  0  0  0  0
  -27.1104  -23.1030   19.3802 H   0  0  0  0  0  0
  -27.1941  -23.5176   21.1294 H   0  0  0  0  0  0
  -28.6476  -24.8677   18.7458 H   0  0  0  0  0  0
  -29.7698  -25.4925   22.2472 H   0  0  0  0  0  0
  -30.8212  -24.1094   22.4425 H   0  0  0  0  0  0
  -29.0936  -23.9280   22.6430 H   0  0  0  0  0  0
  -31.1542  -25.3166   19.4362 H   0  0  0  0  0  0
  -31.1437  -23.6374   18.9536 H   0  0  0  0  0  0
  -31.9129  -24.1193   20.4592 H   0  0  0  0  0  0
  -27.5723  -20.5608   17.0828 H   0  0  0  0  0  0
  -28.2272  -21.7339   18.1080 H   0  0  0  0  0  0
  -29.0327  -15.7268   21.3993 H   0  0  0  0  0  0
  -31.4224  -20.6145   20.9488 H   0  0  0  0  0  0
  -31.2782  -22.3358   21.1671 H   0  0  0  0  0  0
  1 25  1  0  0  0
  1 30  2  0  0  0
  1 85  1  0  0  0
  2  3  1  0  0  0
  2 25  1  0  0  0
  2 88  1  0  0  0
  2 89  1  0  0  0
  3  4  1  0  0  0
  3 90  1  0  0  0
  3 91  1  0  0  0
  4  5  1  0  0  0
  4 92  1  0  0  0
  4 93  1  0  0  0
  5  6  1  0  0  0
  5 26  1  0  0  0
  5 94  1  0  0  0
  6 25  1  0  0  0
  6 95  1  0  0  0
  6 96  1  0  0  0
  7  8  2  0  0  0
  7 26  1  0  0  0
  7 29  1  0  0  0
  8  9  1  0  0  0
  8 22  1  0  0  0
  9 10  1  0  0  0
  9 27  2  0  0  0
 10 11  2  0  0  0
 10 15  1  0  0  0
 11 12  1  0  0  0
 11 97  1  0  0  0
 12 13  2  0  0  0
 12 98  1  0  0  0
 13 14  1  0  0  0
 13 31  1  0  0  0
 14 15  2  0  0  0
 14 99  1  0  0  0
 15100  1  0  0  0
 16 17  2  0  0  0
 16 21  1  0  0  0
 16 31  1  0  0  0
 17 18  1  0  0  0
 17101  1  0  0  0
 18 19  2  0  0  0
 18102  1  0  0  0
 19 20  1  0  0  0
 19 24  1  0  0  0
 20 21  2  0  0  0
 20103  1  0  0  0
 21 23  1  0  0  0
 22 28  1  0  0  0
 22 32  2  0  0  0
 26 27  1  0  0  0
 28104  1  0  0  0
 28105  1  0  0  0
 29106  1  0  0  0
 29107  1  0  0  0
 33 34  1  0  0  0
 33 66  1  0  0  0
 33 70  2  0  0  0
 34 36  1  0  0  0
 34 59  1  0  0  0
 34108  1  0  0  0
 35 44  2  0  0  0
 35 45  1  0  0  0
 35 68  1  0  0  0
 36 56  1  0  0  0
 36109  1  0  0  0
 37 39  1  0  0  0
 37 47  1  0  0  0
 37 66  1  0  0  0
 37110  1  0  0  0
 38 43  2  0  0  0
 38 46  1  0  0  0
 38 47  1  0  0  0
 39 64  1  0  0  0
 39 67  2  0  0  0
 40 52  1  0  0  0
 40 53  2  0  0  0
 40 58  1  0  0  0
 41111  1  0  0  0
 41112  1  0  0  0
 41113  1  0  0  0
 41 48  1  0  0  0
 42 43  1  0  0  0
 42 66  1  0  0  0
 42114  1  0  0  0
 42115  1  0  0  0
 43 44  1  0  0  0
 44116  1  0  0  0
 45 46  2  0  0  0
 45117  1  0  0  0
 46118  1  0  0  0
 47119  1  0  0  0
 47120  1  0  0  0
 48 56  1  0  0  0
 48 65  1  0  0  0
 48121  1  0  0  0
 49 50  1  0  0  0
 49 53  1  0  0  0
 49 64  1  0  0  0
 49122  1  0  0  0
 50 51  1  0  0  0
 50123  1  0  0  0
 50124  1  0  0  0
 51 52  1  0  0  0
 51125  1  0  0  0
 51126  1  0  0  0
 52127  1  0  0  0
 52128  1  0  0  0
 53 54  1  0  0  0
 54 55  2  0  0  0
 54129  1  0  0  0
 55 57  1  0  0  0
 55130  1  0  0  0
 56 69  2  0  0  0
 57 58  2  0  0  0
 57131  1  0  0  0
 58132  1  0  0  0
 59 60  1  0  0  0
 59 61  1  0  0  0
 59 62  1  0  0  0
 60133  1  0  0  0
 60134  1  0  0  0
 60135  1  0  0  0
 61136  1  0  0  0
 61137  1  0  0  0
 61138  1  0  0  0
 62139  1  0  0  0
 62140  1  0  0  0
 62141  1  0  0  0
 63 65  1  0  0  0
 63142  1  0  0  0
 63143  1  0  0  0
 63144  1  0  0  0
 64145  1  0  0  0
 65146  1  0  0  0
 68 79  1  0  0  0
 71 73  2  0  0  0
 71 74  1  0  0  0
 71147  1  0  0  0
 72 75  2  0  0  0
 72 76  1  0  0  0
 72148  1  0  0  0
 73 75  1  0  0  0
 73 77  1  0  0  0
 74 76  2  0  0  0
 74 85  1  0  0  0
 75 84  1  0  0  0
 76 87  1  0  0  0
 77 83  1  0  0  0
 77 86  2  0  0  0
 78 79  1  0  0  0
 78 83  1  0  0  0
 78149  1  0  0  0
 78150  1  0  0  0
 79 80  1  0  0  0
 79151  1  0  0  0
 80 81  1  0  0  0
 80 82  1  0  0  0
 80 83  1  0  0  0
 81152  1  0  0  0
 81153  1  0  0  0
 81154  1  0  0  0
 82155  1  0  0  0
 82156  1  0  0  0
 82157  1  0  0  0
 84158  1  0  0  0
 84159  1  0  0  0
 85160  1  0  0  0
 86161  1  0  0  0
 86162  1  0  0  0
M  CHG  1  86   1
M  ISO  4   1 100  68 101  79 101  85 100
M  END
> <chiral flag>
0

> <version>
0

> <s_m_source_file>
/data/baiqing/PycharmProjects/Reinvent-master-3.2/result/LINK_invent/BTK/process_docking_weight1_custom_product_contain_oxygen_bond_distance_aromatic_linkinvent_7_9_3/rearranged_h_0155.sdf

> <i_m_source_file_index>
66

> <r_mmod_Potential_Energy-OPLS-2005>
377.810394287109

> <r_mmod_Stretch_Energy-OPLS-2005>
198.322662353516

> <r_mmod_Bend_Energy-OPLS-2005>
297.962799072266

> <r_mmod_Torsional_Energy-OPLS-2005>
278.308654785156

> <r_mmod_Improper_Torsional_Energy-OPLS-2005>
9.74625778198242

> <r_mmod_Van_der_Waal_Energy-OPLS-2005>
131.968704223633

> <r_mmod_Electrostatic_Energy-OPLS-2005>
-258.677490234375

> <r_mmod_Solvation_Energy-OPLS-2005>
-428.242340087891

> <b_mmod_Minimization_Converged-OPLS-2005>
0

> <r_mmod_RMS_Derivative-OPLS-2005>
0.785582482814789

$$$$
66
                    3D
 Structure written by MMmdl.
154163  0  0  1  0            999 V2000
  -30.5915  -14.6616   20.5029 C   0  0  0  0  0  0
  -30.4485  -12.4050   19.4521 C   0  0  0  0  0  0
  -29.5131  -12.5106   18.2253 C   0  0  0  0  0  0
  -28.0345  -12.3474   18.6342 C   0  0  0  0  0  0
  -27.6561  -13.2110   19.8661 C   0  0  2  0  0  0
  -28.7018  -13.0519   20.9938 C   0  0  0  0  0  0
  -25.2567  -13.8147   20.5656 C   0  0  0  0  0  0
  -24.1834  -13.0427   20.9194 C   0  0  0  0  0  0
  -24.6394  -11.6896   20.8742 C   0  0  0  0  0  0
  -23.9054  -10.4286   21.0406 C   0  0  0  0  0  0
  -24.3610   -9.4199   21.9180 C   0  0  0  0  0  0
  -23.6283   -8.2237   22.0755 C   0  0  0  0  0  0
  -22.4264   -8.0278   21.3544 C   0  0  0  0  0  0
  -21.9893   -9.0254   20.4648 C   0  0  0  0  0  0
  -22.7227  -10.2132   20.3056 C   0  0  0  0  0  0
  -21.6854   -6.0727   22.5274 C   0  0  0  0  0  0
  -21.4021   -6.5631   23.8205 C   0  0  0  0  0  0
  -21.3658   -5.6788   24.9169 C   0  0  0  0  0  0
  -21.6042   -4.3052   24.7222 C   0  0  0  0  0  0
  -21.8820   -3.8140   23.4344 C   0  0  0  0  0  0
  -21.9196   -4.6954   22.3399 C   0  0  0  0  0  0
  -22.7857  -13.5227   21.1855 C   0  0  0  0  0  0
  -22.1662   -4.2140   21.0971 F   0  0  0  0  0  0
  -21.5625   -3.4535   25.7734 F   0  0  0  0  0  0
  -30.0161  -13.4168   20.4368 N   0  0  0  0  0  0
  -26.2999  -12.9321   20.3312 N   0  0  0  0  0  0
  -25.9323  -11.6485   20.5756 N   0  0  0  0  0  0
  -22.0494  -12.8231   22.0416 N   0  0  0  0  0  0
  -25.4259  -15.1858   20.4001 N   0  0  0  0  0  0
  -31.7433  -14.8603   20.1034 O   0  0  0  0  0  0
  -21.6638   -6.8873   21.4234 O   0  0  0  0  0  0
  -22.3542  -14.5531   20.6699 O   0  0  0  0  0  0
  -24.6264  -31.8592   23.2017 C   0  0  0  0  0  0
  -25.9107  -32.4776   23.8350 C   0  0  1  0  0  0
  -27.2290  -27.3166   20.1239 C   0  0  0  0  0  0
  -25.5920  -33.8578   24.2279 N   0  0  0  0  0  0
  -23.4217  -30.4810   21.5443 C   0  0  2  0  0  0
  -24.8704  -28.9328   20.1133 C   0  0  0  0  0  0
  -22.7479  -29.4616   22.4937 C   0  0  0  0  0  0
  -18.0289  -28.1385   22.8485 C   0  0  0  0  0  0
  -24.1489  -36.7297   23.2640 C   0  0  0  0  0  0
  -25.9627  -30.7892   21.3733 C   0  0  0  0  0  0
  -26.0394  -29.4153   20.7171 C   0  0  0  0  0  0
  -27.2244  -28.6198   20.7098 C   0  0  0  0  0  0
  -26.0412  -26.8876   19.4929 C   0  0  0  0  0  0
  -24.8732  -27.6745   19.4909 C   0  0  0  0  0  0
  -23.6381  -29.8135   20.1605 C   0  0  0  0  0  0
  -25.4113  -36.3085   24.0331 C   0  0  1  0  0  0
  -20.5887  -28.3689   23.1286 C   0  0  2  0  0  0
  -20.6778  -26.9413   22.5413 C   0  0  0  0  0  0
  -19.5753  -26.6384   21.5215 C   0  0  0  0  0  0
  -18.1933  -26.7929   22.1625 C   0  0  0  0  0  0
  -19.1540  -28.8855   23.2880 C   0  0  0  0  0  0
  -18.9462  -30.1458   23.8896 C   0  0  0  0  0  0
  -17.6461  -30.6585   24.0564 C   0  0  0  0  0  0
  -25.9048  -34.9451   23.5106 C   0  0  0  0  0  0
  -16.5354  -29.9085   23.6325 C   0  0  0  0  0  0
  -16.7277  -28.6502   23.0350 C   0  0  0  0  0  0
  -26.4490  -31.6587   25.0723 C   0  0  0  0  0  0
  -25.3725  -31.3742   26.1457 C   0  0  0  0  0  0
  -27.0326  -30.3005   24.6182 C   0  0  0  0  0  0
  -27.6054  -32.4321   25.7485 C   0  0  0  0  0  0
  -27.5577  -37.1811   24.8468 C   0  0  0  0  0  0
  -21.4192  -29.3038   22.3677 N   0  0  0  0  0  0
  -26.4298  -37.3772   23.9398 N   0  0  0  0  0  0
  -24.6890  -31.0598   22.0969 N   0  0  0  0  0  0
  -23.4199  -28.8159   23.3020 O   0  0  0  0  0  0
  -28.3379  -26.4585   20.1407 O   0  0  0  0  0  0
  -26.5617  -34.8918   22.4672 O   0  0  0  0  0  0
  -23.5425  -32.1393   23.7341 O   0  0  0  0  0  0
  -30.7406  -17.9946   20.3366 C   0  0  0  0  0  0
  -28.3441  -17.6986   20.8768 C   0  0  0  0  0  0
  -30.3896  -19.3660   20.1820 C   0  0  0  0  0  0
  -29.0870  -19.9235   20.3113 C   0  0  0  0  0  0
  -29.6551  -17.1142   20.6878 C   0  0  0  0  0  0
  -28.0269  -19.0891   20.6906 C   0  0  0  0  0  0
  -28.9854  -23.9083   20.0538 C   0  0  0  0  0  0
  -30.8576  -20.7626   19.8726 C   0  0  0  0  0  0
  -28.9268  -22.4658   20.7215 C   0  0  0  0  0  0
  -28.0982  -25.0797   20.6463 C   0  0  0  0  0  0
  -29.4209  -21.2707   19.9501 N   0  0  0  0  0  0
  -26.7382  -19.5980   20.8452 N   0  0  0  0  0  0
  -29.7471  -15.6645   20.9105 N   0  0  0  0  0  0
  -29.7208  -24.1122   19.0809 O   0  0  0  0  0  0
  -31.4866  -12.5473   19.1482 H   0  0  0  0  0  0
  -30.3991  -11.4065   19.8898 H   0  0  0  0  0  0
  -29.7787  -11.7558   17.4839 H   0  0  0  0  0  0
  -29.6541  -13.4775   17.7387 H   0  0  0  0  0  0
  -27.8683  -11.2928   18.8589 H   0  0  0  0  0  0
  -27.3833  -12.5853   17.7928 H   0  0  0  0  0  0
  -27.6779  -14.2482   19.5319 H   0  0  0  0  0  0
  -28.7202  -12.0215   21.3533 H   0  0  0  0  0  0
  -28.4403  -13.6590   21.8623 H   0  0  0  0  0  0
  -25.2760   -9.5676   22.4750 H   0  0  0  0  0  0
  -23.9995   -7.4628   22.7474 H   0  0  0  0  0  0
  -21.0821   -8.8772   19.8960 H   0  0  0  0  0  0
  -22.3681  -10.9670   19.6168 H   0  0  0  0  0  0
  -21.2016   -7.6143   23.9705 H   0  0  0  0  0  0
  -21.1478   -6.0521   25.9072 H   0  0  0  0  0  0
  -22.0602   -2.7602   23.2850 H   0  0  0  0  0  0
  -22.4113  -11.9902   22.4821 H   0  0  0  0  0  0
  -21.1118  -13.1271   22.2621 H   0  0  0  0  0  0
  -24.6451  -15.8283   20.4789 H   0  0  0  0  0  0
  -26.2433  -15.6069   19.9797 H   0  0  0  0  0  0
  -26.7182  -32.5451   23.1107 H   0  0  0  0  0  0
  -25.0060  -33.9721   25.0421 H   0  0  0  0  0  0
  -22.7157  -31.3014   21.3997 H   0  0  0  0  0  0
  -23.3738  -35.9646   23.3332 H   0  0  0  0  0  0
  -24.3573  -36.8882   22.2047 H   0  0  0  0  0  0
  -23.7265  -37.6519   23.6640 H   0  0  0  0  0  0
  -26.0940  -31.5522   20.6047 H   0  0  0  0  0  0
  -26.8426  -30.8394   22.0033 H   0  0  0  0  0  0
  -28.1228  -28.9865   21.1863 H   0  0  0  0  0  0
  -26.0065  -25.9272   18.9984 H   0  0  0  0  0  0
  -23.9798  -27.3019   19.0086 H   0  0  0  0  0  0
  -23.7585  -30.5895   19.4037 H   0  0  0  0  0  0
  -22.7580  -29.2437   19.8569 H   0  0  0  0  0  0
  -25.1292  -36.1945   25.0825 H   0  0  0  0  0  0
  -20.9978  -28.3269   24.1409 H   0  0  0  0  0  0
  -20.5678  -26.2299   23.3612 H   0  0  0  0  0  0
  -21.6650  -26.7445   22.1208 H   0  0  0  0  0  0
  -19.6914  -25.6294   21.1244 H   0  0  0  0  0  0
  -19.6686  -27.3194   20.6744 H   0  0  0  0  0  0
  -17.4200  -26.6673   21.4033 H   0  0  0  0  0  0
  -18.0334  -26.0074   22.9021 H   0  0  0  0  0  0
  -19.7939  -30.7275   24.2264 H   0  0  0  0  0  0
  -17.5016  -31.6265   24.5168 H   0  0  0  0  0  0
  -15.5353  -30.2985   23.7653 H   0  0  0  0  0  0
  -15.8679  -28.0821   22.7064 H   0  0  0  0  0  0
  -24.5886  -30.7103   25.7796 H   0  0  0  0  0  0
  -24.8938  -32.2919   26.4884 H   0  0  0  0  0  0
  -25.8048  -30.8918   27.0231 H   0  0  0  0  0  0
  -26.2902  -29.6764   24.1197 H   0  0  0  0  0  0
  -27.4006  -29.7255   25.4689 H   0  0  0  0  0  0
  -27.8778  -30.4283   23.9417 H   0  0  0  0  0  0
  -27.2664  -33.3619   26.2065 H   0  0  0  0  0  0
  -28.3855  -32.6881   25.0306 H   0  0  0  0  0  0
  -28.0728  -31.8447   26.5397 H   0  0  0  0  0  0
  -28.2626  -38.0077   24.7469 H   0  0  0  0  0  0
  -28.1042  -36.2606   24.6350 H   0  0  0  0  0  0
  -27.2291  -37.1534   25.8873 H   0  0  0  0  0  0
  -20.9375  -29.8760   21.6883 H   0  0  0  0  0  0
  -26.0183  -38.2856   24.1365 H   0  0  0  0  0  0
  -31.7536  -17.6436   20.2001 H   0  0  0  0  0  0
  -27.5358  -17.0422   21.1660 H   0  0  0  0  0  0
  -31.2965  -20.8534   18.8774 H   0  0  0  0  0  0
  -31.5127  -21.1712   20.6446 H   0  0  0  0  0  0
  -27.8894  -22.2858   21.0031 H   0  0  0  0  0  0
  -29.4817  -22.5219   21.6583 H   0  0  0  0  0  0
  -28.2562  -25.0937   21.7246 H   0  0  0  0  0  0
  -27.0591  -24.7851   20.5080 H   0  0  0  0  0  0
  -25.9620  -18.9483   20.7830 H   0  0  0  0  0  0
  -26.5447  -20.4762   20.3754 H   0  0  0  0  0  0
  -28.8926  -15.2657   21.2677 H   0  0  0  0  0  0
  1 25  1  0  0  0
  1 30  2  0  0  0
  1 83  1  0  0  0
  2  3  1  0  0  0
  2 25  1  0  0  0
  2 85  1  0  0  0
  2 86  1  0  0  0
  3  4  1  0  0  0
  3 87  1  0  0  0
  3 88  1  0  0  0
  4  5  1  0  0  0
  4 89  1  0  0  0
  4 90  1  0  0  0
  5  6  1  0  0  0
  5 26  1  0  0  0
  5 91  1  0  0  0
  6 25  1  0  0  0
  6 92  1  0  0  0
  6 93  1  0  0  0
  7  8  2  0  0  0
  7 26  1  0  0  0
  7 29  1  0  0  0
  8  9  1  0  0  0
  8 22  1  0  0  0
  9 10  1  0  0  0
  9 27  2  0  0  0
 10 11  2  0  0  0
 10 15  1  0  0  0
 11 12  1  0  0  0
 11 94  1  0  0  0
 12 13  2  0  0  0
 12 95  1  0  0  0
 13 14  1  0  0  0
 13 31  1  0  0  0
 14 15  2  0  0  0
 14 96  1  0  0  0
 15 97  1  0  0  0
 16 17  2  0  0  0
 16 21  1  0  0  0
 16 31  1  0  0  0
 17 18  1  0  0  0
 17 98  1  0  0  0
 18 19  2  0  0  0
 18 99  1  0  0  0
 19 20  1  0  0  0
 19 24  1  0  0  0
 20 21  2  0  0  0
 20100  1  0  0  0
 21 23  1  0  0  0
 22 28  1  0  0  0
 22 32  2  0  0  0
 26 27  1  0  0  0
 28101  1  0  0  0
 28102  1  0  0  0
 29103  1  0  0  0
 29104  1  0  0  0
 33 34  1  0  0  0
 33 66  1  0  0  0
 33 70  2  0  0  0
 34 36  1  0  0  0
 34 59  1  0  0  0
 34105  1  0  0  0
 35 44  2  0  0  0
 35 45  1  0  0  0
 35 68  1  0  0  0
 36 56  1  0  0  0
 36106  1  0  0  0
 37 39  1  0  0  0
 37 47  1  0  0  0
 37 66  1  0  0  0
 37107  1  0  0  0
 38 43  2  0  0  0
 38 46  1  0  0  0
 38 47  1  0  0  0
 39 64  1  0  0  0
 39 67  2  0  0  0
 40 52  1  0  0  0
 40 53  2  0  0  0
 40 58  1  0  0  0
 41108  1  0  0  0
 41109  1  0  0  0
 41110  1  0  0  0
 41 48  1  0  0  0
 42 43  1  0  0  0
 42 66  1  0  0  0
 42111  1  0  0  0
 42112  1  0  0  0
 43 44  1  0  0  0
 44113  1  0  0  0
 45 46  2  0  0  0
 45114  1  0  0  0
 46115  1  0  0  0
 47116  1  0  0  0
 47117  1  0  0  0
 48 56  1  0  0  0
 48 65  1  0  0  0
 48118  1  0  0  0
 49 50  1  0  0  0
 49 53  1  0  0  0
 49 64  1  0  0  0
 49119  1  0  0  0
 50 51  1  0  0  0
 50120  1  0  0  0
 50121  1  0  0  0
 51 52  1  0  0  0
 51122  1  0  0  0
 51123  1  0  0  0
 52124  1  0  0  0
 52125  1  0  0  0
 53 54  1  0  0  0
 54 55  2  0  0  0
 54126  1  0  0  0
 55 57  1  0  0  0
 55127  1  0  0  0
 56 69  2  0  0  0
 57 58  2  0  0  0
 57128  1  0  0  0
 58129  1  0  0  0
 59 60  1  0  0  0
 59 61  1  0  0  0
 59 62  1  0  0  0
 60130  1  0  0  0
 60131  1  0  0  0
 60132  1  0  0  0
 61133  1  0  0  0
 61134  1  0  0  0
 61135  1  0  0  0
 62136  1  0  0  0
 62137  1  0  0  0
 62138  1  0  0  0
 63 65  1  0  0  0
 63139  1  0  0  0
 63140  1  0  0  0
 63141  1  0  0  0
 64142  1  0  0  0
 65143  1  0  0  0
 68 80  1  0  0  0
 71 73  2  0  0  0
 71 75  1  0  0  0
 71144  1  0  0  0
 72 75  2  0  0  0
 72 76  1  0  0  0
 72145  1  0  0  0
 73 74  1  0  0  0
 73 78  1  0  0  0
 74 76  2  0  0  0
 74 81  1  0  0  0
 75 83  1  0  0  0
 76 82  1  0  0  0
 77 79  1  0  0  0
 77 80  1  0  0  0
 77 84  2  0  0  0
 78 81  1  0  0  0
 78146  1  0  0  0
 78147  1  0  0  0
 79 81  1  0  0  0
 79148  1  0  0  0
 79149  1  0  0  0
 80150  1  0  0  0
 80151  1  0  0  0
 82152  1  0  0  0
 82153  1  0  0  0
 83154  1  0  0  0
M  ISO  4   1 100  68 101  80 101  83 100
M  END
> <chiral flag>
0

> <version>
0

> <s_m_source_file>
/data/baiqing/PycharmProjects/Reinvent-master-3.2/result/LINK_invent/BTK/process_docking_weight1_custom_product_contain_oxygen_bond_distance_aromatic_linkinvent_7_9_3/rearranged_h_0155.sdf

> <i_m_source_file_index>
67

> <r_mmod_Potential_Energy-OPLS-2005>
453.204193115234

> <r_mmod_Stretch_Energy-OPLS-2005>
105.85676574707

> <r_mmod_Bend_Energy-OPLS-2005>
509.398010253906

> <r_mmod_Torsional_Energy-OPLS-2005>
223.063613891602

> <r_mmod_Improper_Torsional_Energy-OPLS-2005>
13.0008926391602

> <r_mmod_Van_der_Waal_Energy-OPLS-2005>
130.583084106445

> <r_mmod_Electrostatic_Energy-OPLS-2005>
-315.743194580078

> <r_mmod_Solvation_Energy-OPLS-2005>
-265.967498779297

> <b_mmod_Minimization_Converged-OPLS-2005>
0

> <r_mmod_RMS_Derivative-OPLS-2005>
0.943751573562622

$$$$
67
                    3D
 Structure written by MMmdl.
170179  0  0  1  0            999 V2000
  -30.5760  -14.7795   20.4403 C   0  0  0  0  0  0
  -30.4290  -12.4693   19.4842 C   0  0  0  0  0  0
  -29.5154  -12.5162   18.2378 C   0  0  0  0  0  0
  -28.0390  -12.3403   18.6423 C   0  0  0  0  0  0
  -27.6421  -13.2319   19.8484 C   0  0  2  0  0  0
  -28.6799  -13.1696   20.9899 C   0  0  0  0  0  0
  -25.2532  -13.8187   20.5694 C   0  0  0  0  0  0
  -24.1813  -13.0438   20.9182 C   0  0  0  0  0  0
  -24.6379  -11.6906   20.8696 C   0  0  0  0  0  0
  -23.9043  -10.4293   21.0380 C   0  0  0  0  0  0
  -24.3597   -9.4226   21.9172 C   0  0  0  0  0  0
  -23.6286   -8.2250   22.0741 C   0  0  0  0  0  0
  -22.4277   -8.0276   21.3530 C   0  0  0  0  0  0
  -21.9902   -9.0248   20.4637 C   0  0  0  0  0  0
  -22.7207  -10.2135   20.3043 C   0  0  0  0  0  0
  -21.6859   -6.0730   22.5274 C   0  0  0  0  0  0
  -21.4020   -6.5639   23.8205 C   0  0  0  0  0  0
  -21.3661   -5.6780   24.9171 C   0  0  0  0  0  0
  -21.6043   -4.3041   24.7215 C   0  0  0  0  0  0
  -21.8820   -3.8136   23.4331 C   0  0  0  0  0  0
  -21.9195   -4.6961   22.3386 C   0  0  0  0  0  0
  -22.7832  -13.5245   21.1852 C   0  0  0  0  0  0
  -22.1670   -4.2145   21.0967 F   0  0  0  0  0  0
  -21.5629   -3.4532   25.7725 F   0  0  0  0  0  0
  -29.9833  -13.5330   20.4207 N   0  0  0  0  0  0
  -26.2936  -12.9389   20.3217 N   0  0  0  0  0  0
  -25.9312  -11.6522   20.5670 N   0  0  0  0  0  0
  -22.0462  -12.8236   22.0393 N   0  0  0  0  0  0
  -25.4272  -15.1914   20.4159 N   0  0  0  0  0  0
  -31.7439  -14.8961   20.0517 O   0  0  0  0  0  0
  -21.6633   -6.8883   21.4238 O   0  0  0  0  0  0
  -22.3529  -14.5553   20.6704 O   0  0  0  0  0  0
  -24.6345  -31.8538   23.2001 C   0  0  0  0  0  0
  -25.9153  -32.4758   23.8349 C   0  0  1  0  0  0
  -27.2190  -27.2223   20.1396 C   0  0  0  0  0  0
  -25.5945  -33.8562   24.2251 N   0  0  0  0  0  0
  -23.4317  -30.4750   21.5490 C   0  0  2  0  0  0
  -24.8798  -28.9233   20.1187 C   0  0  0  0  0  0
  -22.7543  -29.4554   22.4972 C   0  0  0  0  0  0
  -18.0278  -28.1381   22.8488 C   0  0  0  0  0  0
  -24.1476  -36.7290   23.2633 C   0  0  0  0  0  0
  -25.9809  -30.7597   21.3817 C   0  0  0  0  0  0
  -26.0558  -29.3769   20.7285 C   0  0  0  0  0  0
  -27.2286  -28.5450   20.7176 C   0  0  0  0  0  0
  -26.0257  -26.8735   19.4666 C   0  0  0  0  0  0
  -24.8769  -27.6845   19.4683 C   0  0  0  0  0  0
  -23.6508  -29.8122   20.1658 C   0  0  0  0  0  0
  -25.4104  -36.3072   24.0323 C   0  0  1  0  0  0
  -20.5888  -28.3674   23.1309 C   0  0  2  0  0  0
  -20.6771  -26.9399   22.5431 C   0  0  0  0  0  0
  -19.5752  -26.6370   21.5224 C   0  0  0  0  0  0
  -18.1925  -26.7924   22.1624 C   0  0  0  0  0  0
  -19.1536  -28.8852   23.2882 C   0  0  0  0  0  0
  -18.9450  -30.1453   23.8895 C   0  0  0  0  0  0
  -17.6453  -30.6591   24.0554 C   0  0  0  0  0  0
  -25.9059  -34.9439   23.5082 C   0  0  0  0  0  0
  -16.5342  -29.9085   23.6330 C   0  0  0  0  0  0
  -16.7265  -28.6497   23.0364 C   0  0  0  0  0  0
  -26.4477  -31.6609   25.0768 C   0  0  0  0  0  0
  -25.3679  -31.3832   26.1495 C   0  0  0  0  0  0
  -27.0287  -30.3008   24.6259 C   0  0  0  0  0  0
  -27.6008  -32.4367   25.7569 C   0  0  0  0  0  0
  -27.5576  -37.1807   24.8451 C   0  0  0  0  0  0
  -21.4244  -29.3018   22.3725 N   0  0  0  0  0  0
  -26.4269  -37.3789   23.9422 N   0  0  0  0  0  0
  -24.7023  -31.0490   22.0989 N   0  0  0  0  0  0
  -23.4250  -28.8069   23.3045 O   0  0  0  0  0  0
  -28.3174  -26.3079   20.1934 O   0  0  0  0  0  0
  -26.5623  -34.8913   22.4648 O   0  0  0  0  0  0
  -23.5491  -32.1339   23.7299 O   0  0  0  0  0  0
  -29.2217  -18.2539   17.8787 C   0  0  0  0  0  0
  -29.4162  -17.1064   18.6642 C   0  0  0  0  0  0
  -29.6843  -18.5583   20.5940 C   0  0  0  0  0  0
  -29.5146  -19.7858   19.8009 C   0  0  0  0  0  0
  -29.3161  -19.5670   18.4002 C   0  0  0  0  0  0
  -29.6858  -17.1995   20.0427 C   0  0  0  0  0  0
  -29.7867  -21.2184   20.3485 C   0  0  0  0  0  0
  -27.3133  -24.0282   19.5408 C   0  0  0  0  0  0
  -27.6979  -22.5243   19.7089 C   0  0  0  0  0  0
  -28.1596  -24.8446   20.5467 C   0  0  1  0  0  0
  -29.5070  -23.9102   20.4709 C   0  0  0  0  0  0
  -29.2989  -20.6721   17.3480 C   0  0  0  0  0  0
  -30.3476  -24.3762   19.2575 C   0  0  0  0  0  0
  -30.3517  -24.0995   21.7523 C   0  0  0  0  0  0
  -27.7293  -25.5863   22.8557 C   0  0  0  0  0  0
  -29.0796  -22.4391   20.2218 N   0  0  0  0  0  0
  -29.8207  -15.9038   20.7724 N   0  0  0  0  0  0
  -30.9485  -21.3016   20.9847 N   0  3  0  0  0  0
  -27.5325  -24.6465   21.7952 O   0  0  0  0  0  0
  -31.4745  -12.5859   19.1920 H   0  0  0  0  0  0
  -30.3620  -11.4902   19.9610 H   0  0  0  0  0  0
  -29.8037  -11.7372   17.5309 H   0  0  0  0  0  0
  -29.6439  -13.4636   17.7112 H   0  0  0  0  0  0
  -27.8878  -11.2889   18.8920 H   0  0  0  0  0  0
  -27.3867  -12.5513   17.7938 H   0  0  0  0  0  0
  -27.6378  -14.2531   19.4679 H   0  0  0  0  0  0
  -28.7224  -12.1707   21.4271 H   0  0  0  0  0  0
  -28.3991  -13.8453   21.7984 H   0  0  0  0  0  0
  -25.2751   -9.5711   22.4742 H   0  0  0  0  0  0
  -24.0003   -7.4643   22.7454 H   0  0  0  0  0  0
  -21.0833   -8.8735   19.8948 H   0  0  0  0  0  0
  -22.3649  -10.9656   19.6137 H   0  0  0  0  0  0
  -21.2024   -7.6143   23.9707 H   0  0  0  0  0  0
  -21.1487   -6.0510   25.9068 H   0  0  0  0  0  0
  -22.0605   -2.7600   23.2810 H   0  0  0  0  0  0
  -22.4075  -11.9910   22.4789 H   0  0  0  0  0  0
  -21.1071  -13.1259   22.2564 H   0  0  0  0  0  0
  -24.6678  -15.8488   20.5550 H   0  0  0  0  0  0
  -26.2748  -15.6305   20.0788 H   0  0  0  0  0  0
  -26.7222  -32.5360   23.1091 H   0  0  0  0  0  0
  -25.0113  -33.9705   25.0410 H   0  0  0  0  0  0
  -22.7246  -31.2948   21.4090 H   0  0  0  0  0  0
  -23.3739  -35.9622   23.3268 H   0  0  0  0  0  0
  -24.3559  -36.8943   22.2052 H   0  0  0  0  0  0
  -23.7224  -37.6480   23.6675 H   0  0  0  0  0  0
  -26.1172  -31.5167   20.6078 H   0  0  0  0  0  0
  -26.8585  -30.8173   22.0134 H   0  0  0  0  0  0
  -28.1326  -28.9026   21.1916 H   0  0  0  0  0  0
  -25.9319  -25.9701   18.8959 H   0  0  0  0  0  0
  -23.9917  -27.3463   18.9490 H   0  0  0  0  0  0
  -23.7804  -30.5878   19.4120 H   0  0  0  0  0  0
  -22.7649  -29.2562   19.8553 H   0  0  0  0  0  0
  -25.1282  -36.1909   25.0818 H   0  0  0  0  0  0
  -20.9954  -28.3220   24.1444 H   0  0  0  0  0  0
  -20.5683  -26.2272   23.3624 H   0  0  0  0  0  0
  -21.6637  -26.7446   22.1214 H   0  0  0  0  0  0
  -19.6918  -25.6276   21.1265 H   0  0  0  0  0  0
  -19.6687  -27.3162   20.6737 H   0  0  0  0  0  0
  -17.4205  -26.6665   21.4012 H   0  0  0  0  0  0
  -18.0316  -26.0070   22.9022 H   0  0  0  0  0  0
  -19.7923  -30.7261   24.2284 H   0  0  0  0  0  0
  -17.5002  -31.6276   24.5147 H   0  0  0  0  0  0
  -15.5339  -30.2983   23.7671 H   0  0  0  0  0  0
  -15.8657  -28.0806   22.7113 H   0  0  0  0  0  0
  -24.5831  -30.7188   25.7866 H   0  0  0  0  0  0
  -24.8891  -32.3039   26.4850 H   0  0  0  0  0  0
  -25.7977  -30.9080   27.0323 H   0  0  0  0  0  0
  -26.2860  -29.6831   24.1202 H   0  0  0  0  0  0
  -27.3842  -29.7220   25.4789 H   0  0  0  0  0  0
  -27.8798  -30.4246   23.9565 H   0  0  0  0  0  0
  -27.2572  -33.3669   26.2109 H   0  0  0  0  0  0
  -28.3861  -32.6941   25.0455 H   0  0  0  0  0  0
  -28.0623  -31.8530   26.5543 H   0  0  0  0  0  0
  -28.2568  -38.0131   24.7538 H   0  0  0  0  0  0
  -28.1098  -36.2665   24.6211 H   0  0  0  0  0  0
  -27.2312  -37.1392   25.8858 H   0  0  0  0  0  0
  -20.9457  -29.8758   21.6925 H   0  0  0  0  0  0
  -26.0129  -38.2850   24.1467 H   0  0  0  0  0  0
  -29.0443  -18.1112   16.8212 H   0  0  0  0  0  0
  -29.3477  -16.1397   18.1852 H   0  0  0  0  0  0
  -29.8560  -18.6695   21.6549 H   0  0  0  0  0  0
  -26.2552  -24.1372   19.7742 H   0  0  0  0  0  0
  -27.5012  -24.3709   18.5240 H   0  0  0  0  0  0
  -27.5544  -21.9891   18.7744 H   0  0  0  0  0  0
  -27.0365  -22.0660   20.4447 H   0  0  0  0  0  0
  -29.8249  -20.3378   16.4517 H   0  0  0  0  0  0
  -29.7917  -21.5904   17.6601 H   0  0  0  0  0  0
  -28.2801  -20.8971   17.0376 H   0  0  0  0  0  0
  -30.4733  -25.4585   19.2394 H   0  0  0  0  0  0
  -29.9030  -24.0829   18.3072 H   0  0  0  0  0  0
  -31.3497  -23.9458   19.2802 H   0  0  0  0  0  0
  -30.4429  -25.1558   21.9936 H   0  0  0  0  0  0
  -31.3823  -23.7666   21.6406 H   0  0  0  0  0  0
  -29.9157  -23.5778   22.6068 H   0  0  0  0  0  0
  -27.2591  -25.2078   23.7637 H   0  0  0  0  0  0
  -27.2567  -26.5439   22.6538 H   0  0  0  0  0  0
  -28.7687  -25.7777   23.1042 H   0  0  0  0  0  0
  -29.0125  -15.6736   21.3311 H   0  0  0  0  0  0
  -31.5620  -20.5023   20.9840 H   0  0  0  0  0  0
  -31.2513  -22.1566   21.4169 H   0  0  0  0  0  0
  1 25  1  0  0  0
  1 30  2  0  0  0
  1 87  1  0  0  0
  2  3  1  0  0  0
  2 25  1  0  0  0
  2 90  1  0  0  0
  2 91  1  0  0  0
  3  4  1  0  0  0
  3 92  1  0  0  0
  3 93  1  0  0  0
  4  5  1  0  0  0
  4 94  1  0  0  0
  4 95  1  0  0  0
  5  6  1  0  0  0
  5 26  1  0  0  0
  5 96  1  0  0  0
  6 25  1  0  0  0
  6 97  1  0  0  0
  6 98  1  0  0  0
  7  8  2  0  0  0
  7 26  1  0  0  0
  7 29  1  0  0  0
  8  9  1  0  0  0
  8 22  1  0  0  0
  9 10  1  0  0  0
  9 27  2  0  0  0
 10 11  2  0  0  0
 10 15  1  0  0  0
 11 12  1  0  0  0
 11 99  1  0  0  0
 12 13  2  0  0  0
 12100  1  0  0  0
 13 14  1  0  0  0
 13 31  1  0  0  0
 14 15  2  0  0  0
 14101  1  0  0  0
 15102  1  0  0  0
 16 17  2  0  0  0
 16 21  1  0  0  0
 16 31  1  0  0  0
 17 18  1  0  0  0
 17103  1  0  0  0
 18 19  2  0  0  0
 18104  1  0  0  0
 19 20  1  0  0  0
 19 24  1  0  0  0
 20 21  2  0  0  0
 20105  1  0  0  0
 21 23  1  0  0  0
 22 28  1  0  0  0
 22 32  2  0  0  0
 26 27  1  0  0  0
 28106  1  0  0  0
 28107  1  0  0  0
 29108  1  0  0  0
 29109  1  0  0  0
 33 34  1  0  0  0
 33 66  1  0  0  0
 33 70  2  0  0  0
 34 36  1  0  0  0
 34 59  1  0  0  0
 34110  1  0  0  0
 35 44  2  0  0  0
 35 45  1  0  0  0
 35 68  1  0  0  0
 36 56  1  0  0  0
 36111  1  0  0  0
 37 39  1  0  0  0
 37 47  1  0  0  0
 37 66  1  0  0  0
 37112  1  0  0  0
 38 43  2  0  0  0
 38 46  1  0  0  0
 38 47  1  0  0  0
 39 64  1  0  0  0
 39 67  2  0  0  0
 40 52  1  0  0  0
 40 53  2  0  0  0
 40 58  1  0  0  0
 41113  1  0  0  0
 41114  1  0  0  0
 41115  1  0  0  0
 41 48  1  0  0  0
 42 43  1  0  0  0
 42 66  1  0  0  0
 42116  1  0  0  0
 42117  1  0  0  0
 43 44  1  0  0  0
 44118  1  0  0  0
 45 46  2  0  0  0
 45119  1  0  0  0
 46120  1  0  0  0
 47121  1  0  0  0
 47122  1  0  0  0
 48 56  1  0  0  0
 48 65  1  0  0  0
 48123  1  0  0  0
 49 50  1  0  0  0
 49 53  1  0  0  0
 49 64  1  0  0  0
 49124  1  0  0  0
 50 51  1  0  0  0
 50125  1  0  0  0
 50126  1  0  0  0
 51 52  1  0  0  0
 51127  1  0  0  0
 51128  1  0  0  0
 52129  1  0  0  0
 52130  1  0  0  0
 53 54  1  0  0  0
 54 55  2  0  0  0
 54131  1  0  0  0
 55 57  1  0  0  0
 55132  1  0  0  0
 56 69  2  0  0  0
 57 58  2  0  0  0
 57133  1  0  0  0
 58134  1  0  0  0
 59 60  1  0  0  0
 59 61  1  0  0  0
 59 62  1  0  0  0
 60135  1  0  0  0
 60136  1  0  0  0
 60137  1  0  0  0
 61138  1  0  0  0
 61139  1  0  0  0
 61140  1  0  0  0
 62141  1  0  0  0
 62142  1  0  0  0
 62143  1  0  0  0
 63 65  1  0  0  0
 63144  1  0  0  0
 63145  1  0  0  0
 63146  1  0  0  0
 64147  1  0  0  0
 65148  1  0  0  0
 68 80  1  0  0  0
 71 72  2  0  0  0
 71 75  1  0  0  0
 71149  1  0  0  0
 72 76  1  0  0  0
 72150  1  0  0  0
 73 74  1  0  0  0
 73 76  2  0  0  0
 73151  1  0  0  0
 74 75  2  0  0  0
 74 77  1  0  0  0
 75 82  1  0  0  0
 76 87  1  0  0  0
 77 86  1  0  0  0
 77 88  2  0  0  0
 78 79  1  0  0  0
 78 80  1  0  0  0
 78152  1  0  0  0
 78153  1  0  0  0
 79 86  1  0  0  0
 79154  1  0  0  0
 79155  1  0  0  0
 80 81  1  0  0  0
 80 89  1  0  0  0
 81 83  1  0  0  0
 81 84  1  0  0  0
 81 86  1  0  0  0
 82156  1  0  0  0
 82157  1  0  0  0
 82158  1  0  0  0
 83159  1  0  0  0
 83160  1  0  0  0
 83161  1  0  0  0
 84162  1  0  0  0
 84163  1  0  0  0
 84164  1  0  0  0
 85 89  1  0  0  0
 85165  1  0  0  0
 85166  1  0  0  0
 85167  1  0  0  0
 87168  1  0  0  0
 88169  1  0  0  0
 88170  1  0  0  0
M  CHG  1  88   1
M  ISO  4   1 100  68 101  80 101  87 100
M  END
> <chiral flag>
0

> <version>
0

> <s_m_source_file>
/data/baiqing/PycharmProjects/Reinvent-master-3.2/result/LINK_invent/BTK/process_docking_weight1_custom_product_contain_oxygen_bond_distance_aromatic_linkinvent_7_9_3/rearranged_h_0155.sdf

> <i_m_source_file_index>
68

> <r_mmod_Potential_Energy-OPLS-2005>
225.462738037109

> <r_mmod_Stretch_Energy-OPLS-2005>
171.517913818359

> <r_mmod_Bend_Energy-OPLS-2005>
239.812591552734

> <r_mmod_Torsional_Energy-OPLS-2005>
358.026153564453

> <r_mmod_Improper_Torsional_Energy-OPLS-2005>
7.30674076080322

> <r_mmod_Van_der_Waal_Energy-OPLS-2005>
147.211761474609

> <r_mmod_Electrostatic_Energy-OPLS-2005>
-421.427703857422

> <r_mmod_Solvation_Energy-OPLS-2005>
-380.00244140625

> <b_mmod_Minimization_Converged-OPLS-2005>
0

> <r_mmod_RMS_Derivative-OPLS-2005>
3.63381290435791

$$$$
68
                    3D
 Structure written by MMmdl.
157166  0  0  1  0            999 V2000
  -30.6237  -14.7547   20.4773 C   0  0  0  0  0  0
  -30.4354  -12.4650   19.4825 C   0  0  0  0  0  0
  -29.5182  -12.4997   18.2420 C   0  0  0  0  0  0
  -28.0446  -12.3177   18.6532 C   0  0  0  0  0  0
  -27.6413  -13.2317   19.8427 C   0  0  2  0  0  0
  -28.6826  -13.1803   20.9811 C   0  0  0  0  0  0
  -25.2519  -13.8191   20.5670 C   0  0  0  0  0  0
  -24.1813  -13.0444   20.9207 C   0  0  0  0  0  0
  -24.6405  -11.6928   20.8750 C   0  0  0  0  0  0
  -23.9074  -10.4310   21.0400 C   0  0  0  0  0  0
  -24.3624   -9.4219   21.9166 C   0  0  0  0  0  0
  -23.6316   -8.2245   22.0725 C   0  0  0  0  0  0
  -22.4300   -8.0276   21.3528 C   0  0  0  0  0  0
  -21.9930   -9.0249   20.4637 C   0  0  0  0  0  0
  -22.7251  -10.2133   20.3057 C   0  0  0  0  0  0
  -21.6852   -6.0744   22.5285 C   0  0  0  0  0  0
  -21.4004   -6.5638   23.8219 C   0  0  0  0  0  0
  -21.3665   -5.6786   24.9179 C   0  0  0  0  0  0
  -21.6057   -4.3055   24.7231 C   0  0  0  0  0  0
  -21.8818   -3.8149   23.4351 C   0  0  0  0  0  0
  -21.9182   -4.6971   22.3406 C   0  0  0  0  0  0
  -22.7834  -13.5226   21.1871 C   0  0  0  0  0  0
  -22.1656   -4.2163   21.0982 F   0  0  0  0  0  0
  -21.5633   -3.4528   25.7736 F   0  0  0  0  0  0
  -29.9873  -13.5343   20.4057 N   0  0  0  0  0  0
  -26.2929  -12.9394   20.3215 N   0  0  0  0  0  0
  -25.9325  -11.6544   20.5715 N   0  0  0  0  0  0
  -22.0461  -12.8247   22.0433 N   0  0  0  0  0  0
  -25.4204  -15.1923   20.4090 N   0  0  0  0  0  0
  -31.8132  -14.8316   20.1500 O   0  0  0  0  0  0
  -21.6640   -6.8890   21.4254 O   0  0  0  0  0  0
  -22.3530  -14.5518   20.6689 O   0  0  0  0  0  0
  -24.6303  -31.8550   23.1956 C   0  0  0  0  0  0
  -25.9118  -32.4757   23.8306 C   0  0  1  0  0  0
  -27.2290  -27.2672   20.1454 C   0  0  0  0  0  0
  -25.5906  -33.8552   24.2225 N   0  0  0  0  0  0
  -23.4275  -30.4725   21.5400 C   0  0  2  0  0  0
  -24.8747  -28.9074   20.1192 C   0  0  0  0  0  0
  -22.7504  -29.4597   22.4937 C   0  0  0  0  0  0
  -18.0287  -28.1392   22.8479 C   0  0  0  0  0  0
  -24.1487  -36.7290   23.2646 C   0  0  0  0  0  0
  -25.9711  -30.7699   21.3727 C   0  0  0  0  0  0
  -26.0459  -29.3896   20.7216 C   0  0  0  0  0  0
  -27.2265  -28.5826   20.7167 C   0  0  0  0  0  0
  -26.0373  -26.8382   19.5287 C   0  0  0  0  0  0
  -24.8745  -27.6383   19.5131 C   0  0  0  0  0  0
  -23.6456  -29.7972   20.1593 C   0  0  0  0  0  0
  -25.4109  -36.3061   24.0327 C   0  0  1  0  0  0
  -20.5887  -28.3689   23.1289 C   0  0  2  0  0  0
  -20.6762  -26.9410   22.5417 C   0  0  0  0  0  0
  -19.5743  -26.6380   21.5212 C   0  0  0  0  0  0
  -18.1920  -26.7934   22.1619 C   0  0  0  0  0  0
  -19.1542  -28.8862   23.2862 C   0  0  0  0  0  0
  -18.9468  -30.1460   23.8875 C   0  0  0  0  0  0
  -17.6467  -30.6585   24.0559 C   0  0  0  0  0  0
  -25.9068  -34.9440   23.5094 C   0  0  0  0  0  0
  -16.5356  -29.9082   23.6333 C   0  0  0  0  0  0
  -16.7271  -28.6507   23.0340 C   0  0  0  0  0  0
  -26.4472  -31.6608   25.0722 C   0  0  0  0  0  0
  -25.3689  -31.3759   26.1453 C   0  0  0  0  0  0
  -27.0348  -30.3036   24.6241 C   0  0  0  0  0  0
  -27.6030  -32.4371   25.7469 C   0  0  0  0  0  0
  -27.5591  -37.1776   24.8439 C   0  0  0  0  0  0
  -21.4210  -29.3032   22.3680 N   0  0  0  0  0  0
  -26.4267  -37.3774   23.9433 N   0  0  0  0  0  0
  -24.6957  -31.0515   22.0924 N   0  0  0  0  0  0
  -23.4199  -28.8176   23.3060 O   0  0  0  0  0  0
  -28.3494  -26.4111   20.1392 O   0  0  0  0  0  0
  -26.5653  -34.8916   22.4675 O   0  0  0  0  0  0
  -23.5454  -32.1369   23.7264 O   0  0  0  0  0  0
  -31.5645  -17.7382   20.9927 C   0  0  0  0  0  0
  -31.9439  -19.0961   21.0382 C   0  0  0  0  0  0
  -29.2942  -18.4506   20.5128 C   0  0  0  0  0  0
  -29.6622  -19.8679   20.5348 C   0  0  0  0  0  0
  -30.2314  -17.3493   20.7163 C   0  0  0  0  0  0
  -31.0254  -20.1408   20.8062 C   0  0  0  0  0  0
  -28.7036  -21.0460   20.2509 C   0  0  0  0  0  0
  -27.7163  -25.0592   22.1409 C   0  0  0  0  0  0
  -29.2109  -25.0602   21.9685 C   0  0  0  0  0  0
  -28.3122  -25.0304   20.7445 C   0  0  0  0  0  0
  -28.2395  -23.6837   19.8816 C   0  0  0  0  0  0
  -27.4678  -20.7484   19.8462 N   0  0  0  0  0  0
  -29.8618  -15.9022   20.6961 N   0  0  0  0  0  0
  -28.9867  -22.4069   20.3504 N   0  3  0  0  0  0
  -31.4813  -21.4190   20.8535 F   0  0  0  0  0  0
  -31.4776  -12.5859   19.1838 H   0  0  0  0  0  0
  -30.3788  -11.4932   19.9762 H   0  0  0  0  0  0
  -29.8101  -11.7157   17.5418 H   0  0  0  0  0  0
  -29.6440  -13.4443   17.7119 H   0  0  0  0  0  0
  -27.9186  -11.2714   18.9345 H   0  0  0  0  0  0
  -27.3870  -12.4787   17.7994 H   0  0  0  0  0  0
  -27.6314  -14.2496   19.4484 H   0  0  0  0  0  0
  -28.7176  -12.1876   21.4320 H   0  0  0  0  0  0
  -28.4067  -13.8689   21.7822 H   0  0  0  0  0  0
  -25.2766   -9.5686   22.4738 H   0  0  0  0  0  0
  -24.0017   -7.4636   22.7445 H   0  0  0  0  0  0
  -21.0848   -8.8795   19.8961 H   0  0  0  0  0  0
  -22.3709  -10.9671   19.6177 H   0  0  0  0  0  0
  -21.1991   -7.6144   23.9739 H   0  0  0  0  0  0
  -21.1486   -6.0503   25.9086 H   0  0  0  0  0  0
  -22.0590   -2.7611   23.2838 H   0  0  0  0  0  0
  -22.4047  -11.9950   22.4928 H   0  0  0  0  0  0
  -21.1055  -13.1257   22.2552 H   0  0  0  0  0  0
  -24.6508  -15.8429   20.5233 H   0  0  0  0  0  0
  -26.2587  -15.6311   20.0529 H   0  0  0  0  0  0
  -26.7206  -32.5407   23.1056 H   0  0  0  0  0  0
  -24.9966  -33.9659   25.0316 H   0  0  0  0  0  0
  -22.7236  -31.2948   21.3898 H   0  0  0  0  0  0
  -23.3763  -35.9605   23.3223 H   0  0  0  0  0  0
  -24.3589  -36.9003   22.2079 H   0  0  0  0  0  0
  -23.7214  -37.6456   23.6732 H   0  0  0  0  0  0
  -26.1100  -31.5318   20.6045 H   0  0  0  0  0  0
  -26.8482  -30.8199   22.0056 H   0  0  0  0  0  0
  -28.1279  -28.9503   21.1865 H   0  0  0  0  0  0
  -26.0037  -25.8643   19.0650 H   0  0  0  0  0  0
  -23.9781  -27.2594   19.0423 H   0  0  0  0  0  0
  -23.7719  -30.5707   19.3994 H   0  0  0  0  0  0
  -22.7645  -29.2288   19.8585 H   0  0  0  0  0  0
  -25.1288  -36.1882   25.0821 H   0  0  0  0  0  0
  -20.9942  -28.3259   24.1422 H   0  0  0  0  0  0
  -20.5650  -26.2300   23.3616 H   0  0  0  0  0  0
  -21.6638  -26.7429   22.1230 H   0  0  0  0  0  0
  -19.6884  -25.6287   21.1253 H   0  0  0  0  0  0
  -19.6688  -27.3174   20.6741 H   0  0  0  0  0  0
  -17.4192  -26.6673   21.4015 H   0  0  0  0  0  0
  -18.0310  -26.0088   22.9042 H   0  0  0  0  0  0
  -19.7952  -30.7270   24.2220 H   0  0  0  0  0  0
  -17.5037  -31.6260   24.5175 H   0  0  0  0  0  0
  -15.5358  -30.2971   23.7679 H   0  0  0  0  0  0
  -15.8674  -28.0819   22.7050 H   0  0  0  0  0  0
  -24.5861  -30.7118   25.7776 H   0  0  0  0  0  0
  -24.8885  -32.2932   26.4892 H   0  0  0  0  0  0
  -25.8018  -30.8931   27.0229 H   0  0  0  0  0  0
  -26.2967  -29.6750   24.1271 H   0  0  0  0  0  0
  -27.4026  -29.7346   25.4791 H   0  0  0  0  0  0
  -27.8819  -30.4319   23.9496 H   0  0  0  0  0  0
  -27.2633  -33.3665   26.2048 H   0  0  0  0  0  0
  -28.3814  -32.6963   25.0279 H   0  0  0  0  0  0
  -28.0736  -31.8515   26.5368 H   0  0  0  0  0  0
  -28.2533  -38.0150   24.7611 H   0  0  0  0  0  0
  -28.1159  -36.2698   24.6089 H   0  0  0  0  0  0
  -27.2329  -37.1206   25.8836 H   0  0  0  0  0  0
  -20.9390  -29.8754   21.6891 H   0  0  0  0  0  0
  -26.0135  -38.2825   24.1513 H   0  0  0  0  0  0
  -32.3303  -17.0029   21.1916 H   0  0  0  0  0  0
  -32.9707  -19.3482   21.2587 H   0  0  0  0  0  0
  -28.2628  -18.1960   20.3226 H   0  0  0  0  0  0
  -27.2604  -25.9766   22.5044 H   0  0  0  0  0  0
  -27.2526  -24.1462   22.5093 H   0  0  0  0  0  0
  -29.7341  -24.1527   22.2562 H   0  0  0  0  0  0
  -29.7415  -25.9825   22.1908 H   0  0  0  0  0  0
  -27.1843  -23.4489   19.7479 H   0  0  0  0  0  0
  -28.6040  -23.9213   18.8821 H   0  0  0  0  0  0
  -27.1978  -19.7828   19.7406 H   0  0  0  0  0  0
  -26.7715  -21.4530   19.6795 H   0  0  0  0  0  0
  -28.8811  -15.7116   20.8304 H   0  0  0  0  0  0
  -29.9582  -22.5779   20.5970 H   0  0  0  0  0  0
  1 25  1  0  0  0
  1 30  2  0  0  0
  1 83  1  0  0  0
  2  3  1  0  0  0
  2 25  1  0  0  0
  2 86  1  0  0  0
  2 87  1  0  0  0
  3  4  1  0  0  0
  3 88  1  0  0  0
  3 89  1  0  0  0
  4  5  1  0  0  0
  4 90  1  0  0  0
  4 91  1  0  0  0
  5  6  1  0  0  0
  5 26  1  0  0  0
  5 92  1  0  0  0
  6 25  1  0  0  0
  6 93  1  0  0  0
  6 94  1  0  0  0
  7  8  2  0  0  0
  7 26  1  0  0  0
  7 29  1  0  0  0
  8  9  1  0  0  0
  8 22  1  0  0  0
  9 10  1  0  0  0
  9 27  2  0  0  0
 10 11  2  0  0  0
 10 15  1  0  0  0
 11 12  1  0  0  0
 11 95  1  0  0  0
 12 13  2  0  0  0
 12 96  1  0  0  0
 13 14  1  0  0  0
 13 31  1  0  0  0
 14 15  2  0  0  0
 14 97  1  0  0  0
 15 98  1  0  0  0
 16 17  2  0  0  0
 16 21  1  0  0  0
 16 31  1  0  0  0
 17 18  1  0  0  0
 17 99  1  0  0  0
 18 19  2  0  0  0
 18100  1  0  0  0
 19 20  1  0  0  0
 19 24  1  0  0  0
 20 21  2  0  0  0
 20101  1  0  0  0
 21 23  1  0  0  0
 22 28  1  0  0  0
 22 32  2  0  0  0
 26 27  1  0  0  0
 28102  1  0  0  0
 28103  1  0  0  0
 29104  1  0  0  0
 29105  1  0  0  0
 33 34  1  0  0  0
 33 66  1  0  0  0
 33 70  2  0  0  0
 34 36  1  0  0  0
 34 59  1  0  0  0
 34106  1  0  0  0
 35 44  2  0  0  0
 35 45  1  0  0  0
 35 68  1  0  0  0
 36 56  1  0  0  0
 36107  1  0  0  0
 37 39  1  0  0  0
 37 47  1  0  0  0
 37 66  1  0  0  0
 37108  1  0  0  0
 38 43  2  0  0  0
 38 46  1  0  0  0
 38 47  1  0  0  0
 39 64  1  0  0  0
 39 67  2  0  0  0
 40 52  1  0  0  0
 40 53  2  0  0  0
 40 58  1  0  0  0
 41109  1  0  0  0
 41110  1  0  0  0
 41111  1  0  0  0
 41 48  1  0  0  0
 42 43  1  0  0  0
 42 66  1  0  0  0
 42112  1  0  0  0
 42113  1  0  0  0
 43 44  1  0  0  0
 44114  1  0  0  0
 45 46  2  0  0  0
 45115  1  0  0  0
 46116  1  0  0  0
 47117  1  0  0  0
 47118  1  0  0  0
 48 56  1  0  0  0
 48 65  1  0  0  0
 48119  1  0  0  0
 49 50  1  0  0  0
 49 53  1  0  0  0
 49 64  1  0  0  0
 49120  1  0  0  0
 50 51  1  0  0  0
 50121  1  0  0  0
 50122  1  0  0  0
 51 52  1  0  0  0
 51123  1  0  0  0
 51124  1  0  0  0
 52125  1  0  0  0
 52126  1  0  0  0
 53 54  1  0  0  0
 54 55  2  0  0  0
 54127  1  0  0  0
 55 57  1  0  0  0
 55128  1  0  0  0
 56 69  2  0  0  0
 57 58  2  0  0  0
 57129  1  0  0  0
 58130  1  0  0  0
 59 60  1  0  0  0
 59 61  1  0  0  0
 59 62  1  0  0  0
 60131  1  0  0  0
 60132  1  0  0  0
 60133  1  0  0  0
 61134  1  0  0  0
 61135  1  0  0  0
 61136  1  0  0  0
 62137  1  0  0  0
 62138  1  0  0  0
 62139  1  0  0  0
 63 65  1  0  0  0
 63140  1  0  0  0
 63141  1  0  0  0
 63142  1  0  0  0
 64143  1  0  0  0
 65144  1  0  0  0
 68 80  1  0  0  0
 71 72  2  0  0  0
 71 75  1  0  0  0
 71145  1  0  0  0
 72 76  1  0  0  0
 72146  1  0  0  0
 73 74  1  0  0  0
 73 75  2  0  0  0
 73147  1  0  0  0
 74 76  2  0  0  0
 74 77  1  0  0  0
 75 83  1  0  0  0
 76 85  1  0  0  0
 77 82  1  0  0  0
 77 84  2  0  0  0
 78 79  1  0  0  0
 78 80  1  0  0  0
 78148  1  0  0  0
 78149  1  0  0  0
 79 80  1  0  0  0
 79150  1  0  0  0
 79151  1  0  0  0
 80 81  1  0  0  0
 81 84  1  0  0  0
 81152  1  0  0  0
 81153  1  0  0  0
 82154  1  0  0  0
 82155  1  0  0  0
 83156  1  0  0  0
 84157  1  0  0  0
M  CHG  1  84   1
M  ISO  4   1 100  68 101  80 101  83 100
M  END
> <chiral flag>
0

> <version>
0

> <s_m_source_file>
/data/baiqing/PycharmProjects/Reinvent-master-3.2/result/LINK_invent/BTK/process_docking_weight1_custom_product_contain_oxygen_bond_distance_aromatic_linkinvent_7_9_3/rearranged_h_0155.sdf

> <i_m_source_file_index>
69

> <r_mmod_Potential_Energy-OPLS-2005>
-50.3688812255859

> <r_mmod_Stretch_Energy-OPLS-2005>
129.585830688477

> <r_mmod_Bend_Energy-OPLS-2005>
165.231170654297

> <r_mmod_Torsional_Energy-OPLS-2005>
287.69677734375

> <r_mmod_Improper_Torsional_Energy-OPLS-2005>
5.44423580169678

> <r_mmod_Van_der_Waal_Energy-OPLS-2005>
138.69010925293

> <r_mmod_Electrostatic_Energy-OPLS-2005>
-434.547149658203

> <r_mmod_Solvation_Energy-OPLS-2005>
-425.499908447266

> <b_mmod_Minimization_Converged-OPLS-2005>
0

> <r_mmod_RMS_Derivative-OPLS-2005>
3.24111366271973

$$$$
69
                    3D
 Structure written by MMmdl.
159168  0  0  1  0            999 V2000
  -30.6493  -14.5489   20.5531 C   0  0  0  0  0  0
  -30.4355  -12.3521   19.4262 C   0  0  0  0  0  0
  -29.4977  -12.5060   18.2081 C   0  0  0  0  0  0
  -28.0166  -12.3627   18.6204 C   0  0  0  0  0  0
  -27.6593  -13.2004   19.8784 C   0  0  2  0  0  0
  -28.7059  -12.9581   20.9873 C   0  0  0  0  0  0
  -25.2597  -13.8143   20.5690 C   0  0  0  0  0  0
  -24.1837  -13.0431   20.9174 C   0  0  0  0  0  0
  -24.6378  -11.6893   20.8742 C   0  0  0  0  0  0
  -23.9042  -10.4284   21.0407 C   0  0  0  0  0  0
  -24.3599   -9.4207   21.9186 C   0  0  0  0  0  0
  -23.6281   -8.2242   22.0757 C   0  0  0  0  0  0
  -22.4267   -8.0275   21.3547 C   0  0  0  0  0  0
  -21.9897   -9.0245   20.4649 C   0  0  0  0  0  0
  -22.7220  -10.2127   20.3053 C   0  0  0  0  0  0
  -21.6846   -6.0730   22.5280 C   0  0  0  0  0  0
  -21.4009   -6.5637   23.8212 C   0  0  0  0  0  0
  -21.3665   -5.6796   24.9179 C   0  0  0  0  0  0
  -21.6036   -4.3056   24.7232 C   0  0  0  0  0  0
  -21.8822   -3.8144   23.4355 C   0  0  0  0  0  0
  -21.9192   -4.6957   22.3407 C   0  0  0  0  0  0
  -22.7864  -13.5244   21.1836 C   0  0  0  0  0  0
  -22.1660   -4.2143   21.0983 F   0  0  0  0  0  0
  -21.5630   -3.4540   25.7746 F   0  0  0  0  0  0
  -30.0145  -13.3406   20.4380 N   0  0  0  0  0  0
  -26.3011  -12.9288   20.3390 N   0  0  0  0  0  0
  -25.9299  -11.6453   20.5773 N   0  0  0  0  0  0
  -22.0492  -12.8240   22.0390 N   0  0  0  0  0  0
  -25.4346  -15.1849   20.4097 N   0  0  0  0  0  0
  -31.7982  -14.7020   20.1207 O   0  0  0  0  0  0
  -21.6631   -6.8874   21.4243 O   0  0  0  0  0  0
  -22.3560  -14.5552   20.6689 O   0  0  0  0  0  0
  -24.6186  -31.8653   23.2095 C   0  0  0  0  0  0
  -25.9067  -32.4806   23.8387 C   0  0  1  0  0  0
  -27.2205  -27.3899   20.1058 C   0  0  0  0  0  0
  -25.5919  -33.8606   24.2312 N   0  0  0  0  0  0
  -23.4097  -30.4880   21.5507 C   0  0  2  0  0  0
  -24.8566  -28.9556   20.1107 C   0  0  0  0  0  0
  -22.7447  -29.4618   22.4974 C   0  0  0  0  0  0
  -18.0275  -28.1375   22.8485 C   0  0  0  0  0  0
  -24.1494  -36.7302   23.2635 C   0  0  0  0  0  0
  -25.9433  -30.8164   21.3725 C   0  0  0  0  0  0
  -26.0198  -29.4474   20.7188 C   0  0  0  0  0  0
  -27.2090  -28.6711   20.7170 C   0  0  0  0  0  0
  -26.0500  -26.9403   19.4619 C   0  0  0  0  0  0
  -24.8679  -27.7016   19.4783 C   0  0  0  0  0  0
  -23.6205  -29.8261   20.1636 C   0  0  0  0  0  0
  -25.4118  -36.3097   24.0330 C   0  0  1  0  0  0
  -20.5872  -28.3656   23.1308 C   0  0  2  0  0  0
  -20.6777  -26.9395   22.5415 C   0  0  0  0  0  0
  -19.5757  -26.6378   21.5207 C   0  0  0  0  0  0
  -18.1929  -26.7924   22.1612 C   0  0  0  0  0  0
  -19.1529  -28.8839   23.2889 C   0  0  0  0  0  0
  -18.9456  -30.1443   23.8902 C   0  0  0  0  0  0
  -17.6453  -30.6591   24.0551 C   0  0  0  0  0  0
  -25.9048  -34.9466   23.5114 C   0  0  0  0  0  0
  -16.5345  -29.9088   23.6325 C   0  0  0  0  0  0
  -16.7263  -28.6502   23.0347 C   0  0  0  0  0  0
  -26.4478  -31.6596   25.0729 C   0  0  0  0  0  0
  -25.3732  -31.3726   26.1462 C   0  0  0  0  0  0
  -27.0302  -30.3031   24.6126 C   0  0  0  0  0  0
  -27.6055  -32.4320   25.7493 C   0  0  0  0  0  0
  -27.5583  -37.1807   24.8462 C   0  0  0  0  0  0
  -21.4168  -29.3014   22.3713 N   0  0  0  0  0  0
  -26.4298  -37.3786   23.9406 N   0  0  0  0  0  0
  -24.6754  -31.0713   22.1021 N   0  0  0  0  0  0
  -23.4201  -28.8160   23.3036 O   0  0  0  0  0  0
  -28.3393  -26.5711   20.0874 O   0  0  0  0  0  0
  -26.5603  -34.8919   22.4672 O   0  0  0  0  0  0
  -23.5367  -32.1421   23.7462 O   0  0  0  0  0  0
  -28.4526  -20.4807   20.0988 C   0  0  0  0  0  0
  -30.3495  -21.3679   20.8810 C   0  0  0  0  0  0
  -29.1437  -21.7101   20.3330 C   0  0  0  0  0  0
  -29.2627  -19.4627   20.5560 C   0  0  0  0  0  0
  -29.0127  -17.4555   22.1491 C   0  0  0  0  0  0
  -29.0978  -15.9286   22.0012 C   0  0  0  0  0  0
  -30.0722  -16.9585   20.0945 C   0  0  0  0  0  0
  -29.0620  -17.9565   20.7150 C   0  0  2  0  0  0
  -27.0097  -24.8798   21.4979 C   0  0  0  0  0  0
  -29.3096  -24.2533   20.4827 C   0  0  0  0  0  0
  -28.3682  -25.4148   20.9817 C   0  0  1  0  0  0
  -29.8632  -15.6525   20.7743 N   0  0  0  0  0  0
  -28.6376  -23.0054   20.0534 N   0  0  0  0  0  0
  -30.4320  -20.0034   21.0256 O   0  0  0  0  0  0
  -31.4741  -12.4807   19.1172 H   0  0  0  0  0  0
  -30.3768  -11.3409   19.8327 H   0  0  0  0  0  0
  -29.7461  -11.7642   17.4478 H   0  0  0  0  0  0
  -29.6545  -13.4816   17.7455 H   0  0  0  0  0  0
  -27.8321  -11.3059   18.8181 H   0  0  0  0  0  0
  -27.3653  -12.6317   17.7884 H   0  0  0  0  0  0
  -27.7045  -14.2500   19.5877 H   0  0  0  0  0  0
  -28.7148  -11.9004   21.2565 H   0  0  0  0  0  0
  -28.4631  -13.4603   21.9187 H   0  0  0  0  0  0
  -25.2742   -9.5682   22.4767 H   0  0  0  0  0  0
  -23.9989   -7.4630   22.7477 H   0  0  0  0  0  0
  -21.0831   -8.8763   19.8951 H   0  0  0  0  0  0
  -22.3682  -10.9666   19.6164 H   0  0  0  0  0  0
  -21.2003   -7.6145   23.9718 H   0  0  0  0  0  0
  -21.1481   -6.0521   25.9082 H   0  0  0  0  0  0
  -22.0596   -2.7604   23.2856 H   0  0  0  0  0  0
  -22.4093  -11.9899   22.4780 H   0  0  0  0  0  0
  -21.1110  -13.1283   22.2584 H   0  0  0  0  0  0
  -24.6737  -15.8457   20.5229 H   0  0  0  0  0  0
  -26.2945  -15.6195   20.0997 H   0  0  0  0  0  0
  -26.7141  -32.5511   23.1151 H   0  0  0  0  0  0
  -25.0081  -33.9761   25.0466 H   0  0  0  0  0  0
  -22.6981  -31.3044   21.4132 H   0  0  0  0  0  0
  -23.3753  -35.9636   23.3303 H   0  0  0  0  0  0
  -24.3587  -36.8921   22.2049 H   0  0  0  0  0  0
  -23.7247  -37.6506   23.6653 H   0  0  0  0  0  0
  -26.0631  -31.5824   20.6051 H   0  0  0  0  0  0
  -26.8292  -30.8685   21.9938 H   0  0  0  0  0  0
  -28.1062  -29.0391   21.1950 H   0  0  0  0  0  0
  -26.0468  -25.9825   18.9607 H   0  0  0  0  0  0
  -23.9780  -27.3214   18.9952 H   0  0  0  0  0  0
  -23.7294  -30.6025   19.4061 H   0  0  0  0  0  0
  -22.7439  -29.2473   19.8661 H   0  0  0  0  0  0
  -25.1293  -36.1954   25.0820 H   0  0  0  0  0  0
  -20.9950  -28.3234   24.1428 H   0  0  0  0  0  0
  -20.5702  -26.2258   23.3600 H   0  0  0  0  0  0
  -21.6648  -26.7457   22.1197 H   0  0  0  0  0  0
  -19.6920  -25.6289   21.1239 H   0  0  0  0  0  0
  -19.6711  -27.3194   20.6747 H   0  0  0  0  0  0
  -17.4201  -26.6656   21.4010 H   0  0  0  0  0  0
  -18.0328  -26.0065   22.9010 H   0  0  0  0  0  0
  -19.7932  -30.7244   24.2292 H   0  0  0  0  0  0
  -17.5014  -31.6275   24.5142 H   0  0  0  0  0  0
  -15.5350  -30.2985   23.7666 H   0  0  0  0  0  0
  -15.8653  -28.0830   22.7062 H   0  0  0  0  0  0
  -24.5900  -30.7079   25.7799 H   0  0  0  0  0  0
  -24.8922  -32.2892   26.4888 H   0  0  0  0  0  0
  -25.8061  -30.8902   27.0238 H   0  0  0  0  0  0
  -26.2849  -29.6800   24.1171 H   0  0  0  0  0  0
  -27.4043  -29.7254   25.4592 H   0  0  0  0  0  0
  -27.8703  -30.4322   23.9301 H   0  0  0  0  0  0
  -27.2679  -33.3627   26.2056 H   0  0  0  0  0  0
  -28.3870  -32.6869   25.0328 H   0  0  0  0  0  0
  -28.0708  -31.8449   26.5416 H   0  0  0  0  0  0
  -28.2599  -38.0109   24.7520 H   0  0  0  0  0  0
  -28.1079  -36.2641   24.6279 H   0  0  0  0  0  0
  -27.2294  -37.1455   25.8862 H   0  0  0  0  0  0
  -20.9334  -29.8728   21.6925 H   0  0  0  0  0  0
  -26.0176  -38.2851   24.1429 H   0  0  0  0  0  0
  -27.4624  -20.3485   19.6855 H   0  0  0  0  0  0
  -31.2102  -21.9224   21.2302 H   0  0  0  0  0  0
  -29.8806  -17.8230   22.6990 H   0  0  0  0  0  0
  -28.1182  -17.7819   22.6808 H   0  0  0  0  0  0
  -28.0812  -15.5525   21.8836 H   0  0  0  0  0  0
  -29.5357  -15.4602   22.8852 H   0  0  0  0  0  0
  -31.0944  -17.2962   20.2719 H   0  0  0  0  0  0
  -29.9328  -16.8690   19.0165 H   0  0  0  0  0  0
  -28.0912  -17.7233   20.2718 H   0  0  0  0  0  0
  -27.1651  -24.0802   22.2219 H   0  0  0  0  0  0
  -26.3943  -24.4735   20.6956 H   0  0  0  0  0  0
  -26.4321  -25.6512   22.0065 H   0  0  0  0  0  0
  -29.9994  -24.0119   21.2931 H   0  0  0  0  0  0
  -29.9364  -24.6205   19.6694 H   0  0  0  0  0  0
  -28.8675  -25.8187   21.8635 H   0  0  0  0  0  0
  -27.6733  -23.0917   19.7444 H   0  0  0  0  0  0
  1 25  1  0  0  0
  1 30  2  0  0  0
  1 82  1  0  0  0
  2  3  1  0  0  0
  2 25  1  0  0  0
  2 85  1  0  0  0
  2 86  1  0  0  0
  3  4  1  0  0  0
  3 87  1  0  0  0
  3 88  1  0  0  0
  4  5  1  0  0  0
  4 89  1  0  0  0
  4 90  1  0  0  0
  5  6  1  0  0  0
  5 26  1  0  0  0
  5 91  1  0  0  0
  6 25  1  0  0  0
  6 92  1  0  0  0
  6 93  1  0  0  0
  7  8  2  0  0  0
  7 26  1  0  0  0
  7 29  1  0  0  0
  8  9  1  0  0  0
  8 22  1  0  0  0
  9 10  1  0  0  0
  9 27  2  0  0  0
 10 11  2  0  0  0
 10 15  1  0  0  0
 11 12  1  0  0  0
 11 94  1  0  0  0
 12 13  2  0  0  0
 12 95  1  0  0  0
 13 14  1  0  0  0
 13 31  1  0  0  0
 14 15  2  0  0  0
 14 96  1  0  0  0
 15 97  1  0  0  0
 16 17  2  0  0  0
 16 21  1  0  0  0
 16 31  1  0  0  0
 17 18  1  0  0  0
 17 98  1  0  0  0
 18 19  2  0  0  0
 18 99  1  0  0  0
 19 20  1  0  0  0
 19 24  1  0  0  0
 20 21  2  0  0  0
 20100  1  0  0  0
 21 23  1  0  0  0
 22 28  1  0  0  0
 22 32  2  0  0  0
 26 27  1  0  0  0
 28101  1  0  0  0
 28102  1  0  0  0
 29103  1  0  0  0
 29104  1  0  0  0
 33 34  1  0  0  0
 33 66  1  0  0  0
 33 70  2  0  0  0
 34 36  1  0  0  0
 34 59  1  0  0  0
 34105  1  0  0  0
 35 44  2  0  0  0
 35 45  1  0  0  0
 35 68  1  0  0  0
 36 56  1  0  0  0
 36106  1  0  0  0
 37 39  1  0  0  0
 37 47  1  0  0  0
 37 66  1  0  0  0
 37107  1  0  0  0
 38 43  2  0  0  0
 38 46  1  0  0  0
 38 47  1  0  0  0
 39 64  1  0  0  0
 39 67  2  0  0  0
 40 52  1  0  0  0
 40 53  2  0  0  0
 40 58  1  0  0  0
 41108  1  0  0  0
 41109  1  0  0  0
 41110  1  0  0  0
 41 48  1  0  0  0
 42 43  1  0  0  0
 42 66  1  0  0  0
 42111  1  0  0  0
 42112  1  0  0  0
 43 44  1  0  0  0
 44113  1  0  0  0
 45 46  2  0  0  0
 45114  1  0  0  0
 46115  1  0  0  0
 47116  1  0  0  0
 47117  1  0  0  0
 48 56  1  0  0  0
 48 65  1  0  0  0
 48118  1  0  0  0
 49 50  1  0  0  0
 49 53  1  0  0  0
 49 64  1  0  0  0
 49119  1  0  0  0
 50 51  1  0  0  0
 50120  1  0  0  0
 50121  1  0  0  0
 51 52  1  0  0  0
 51122  1  0  0  0
 51123  1  0  0  0
 52124  1  0  0  0
 52125  1  0  0  0
 53 54  1  0  0  0
 54 55  2  0  0  0
 54126  1  0  0  0
 55 57  1  0  0  0
 55127  1  0  0  0
 56 69  2  0  0  0
 57 58  2  0  0  0
 57128  1  0  0  0
 58129  1  0  0  0
 59 60  1  0  0  0
 59 61  1  0  0  0
 59 62  1  0  0  0
 60130  1  0  0  0
 60131  1  0  0  0
 60132  1  0  0  0
 61133  1  0  0  0
 61134  1  0  0  0
 61135  1  0  0  0
 62136  1  0  0  0
 62137  1  0  0  0
 62138  1  0  0  0
 63 65  1  0  0  0
 63139  1  0  0  0
 63140  1  0  0  0
 63141  1  0  0  0
 64142  1  0  0  0
 65143  1  0  0  0
 68 81  1  0  0  0
 71 73  1  0  0  0
 71 74  2  0  0  0
 71144  1  0  0  0
 72 73  2  0  0  0
 72 84  1  0  0  0
 72145  1  0  0  0
 73 83  1  0  0  0
 74 84  1  0  0  0
 74 78  1  0  0  0
 75 76  1  0  0  0
 75 78  1  0  0  0
 75146  1  0  0  0
 75147  1  0  0  0
 76 82  1  0  0  0
 76148  1  0  0  0
 76149  1  0  0  0
 77 78  1  0  0  0
 77 82  1  0  0  0
 77150  1  0  0  0
 77151  1  0  0  0
 78152  1  0  0  0
 79153  1  0  0  0
 79154  1  0  0  0
 79155  1  0  0  0
 79 81  1  0  0  0
 80 81  1  0  0  0
 80 83  1  0  0  0
 80156  1  0  0  0
 80157  1  0  0  0
 81158  1  0  0  0
 83159  1  0  0  0
M  ISO  4   1 100  68 101  81 101  82 100
M  END
> <chiral flag>
0

> <version>
0

> <s_m_source_file>
/data/baiqing/PycharmProjects/Reinvent-master-3.2/result/LINK_invent/BTK/process_docking_weight1_custom_product_contain_oxygen_bond_distance_aromatic_linkinvent_7_9_3/rearranged_h_0155.sdf

> <i_m_source_file_index>
70

> <r_mmod_Potential_Energy-OPLS-2005>
213.428344726562

> <r_mmod_Stretch_Energy-OPLS-2005>
51.1043548583984

> <r_mmod_Bend_Energy-OPLS-2005>
164.572250366211

> <r_mmod_Torsional_Energy-OPLS-2005>
357.432800292969

> <r_mmod_Improper_Torsional_Energy-OPLS-2005>
13.5576171875

> <r_mmod_Van_der_Waal_Energy-OPLS-2005>
126.463455200195

> <r_mmod_Electrostatic_Energy-OPLS-2005>
-317.032440185547

> <r_mmod_Solvation_Energy-OPLS-2005>
-206.11701965332

> <b_mmod_Minimization_Converged-OPLS-2005>
0

> <r_mmod_RMS_Derivative-OPLS-2005>
1.51744556427002

$$$$
70
                    3D
 Structure written by MMmdl.
164173  0  0  1  0            999 V2000
  -30.6492  -14.5406   20.5377 C   0  0  0  0  0  0
  -30.4305  -12.3380   19.4408 C   0  0  0  0  0  0
  -29.5034  -12.5091   18.2173 C   0  0  0  0  0  0
  -28.0234  -12.3603   18.6242 C   0  0  0  0  0  0
  -27.6580  -13.2081   19.8725 C   0  0  2  0  0  0
  -28.6969  -13.0077   20.9988 C   0  0  0  0  0  0
  -25.2572  -13.8162   20.5669 C   0  0  0  0  0  0
  -24.1825  -13.0439   20.9167 C   0  0  0  0  0  0
  -24.6381  -11.6906   20.8722 C   0  0  0  0  0  0
  -23.9046  -10.4292   21.0397 C   0  0  0  0  0  0
  -24.3604   -9.4215   21.9176 C   0  0  0  0  0  0
  -23.6288   -8.2245   22.0751 C   0  0  0  0  0  0
  -22.4268   -8.0277   21.3543 C   0  0  0  0  0  0
  -21.9900   -9.0244   20.4642 C   0  0  0  0  0  0
  -22.7222  -10.2127   20.3047 C   0  0  0  0  0  0
  -21.6851   -6.0730   22.5278 C   0  0  0  0  0  0
  -21.4011   -6.5636   23.8212 C   0  0  0  0  0  0
  -21.3661   -5.6788   24.9175 C   0  0  0  0  0  0
  -21.6047   -4.3051   24.7222 C   0  0  0  0  0  0
  -21.8820   -3.8144   23.4346 C   0  0  0  0  0  0
  -21.9194   -4.6960   22.3404 C   0  0  0  0  0  0
  -22.7853  -13.5240   21.1845 C   0  0  0  0  0  0
  -22.1661   -4.2147   21.0979 F   0  0  0  0  0  0
  -21.5632   -3.4533   25.7736 F   0  0  0  0  0  0
  -30.0244  -13.3308   20.4512 N   0  0  0  0  0  0
  -26.2997  -12.9325   20.3334 N   0  0  0  0  0  0
  -25.9306  -11.6486   20.5749 N   0  0  0  0  0  0
  -22.0486  -12.8230   22.0392 N   0  0  0  0  0  0
  -25.4323  -15.1879   20.4093 N   0  0  0  0  0  0
  -31.7866  -14.7241   20.0900 O   0  0  0  0  0  0
  -21.6643   -6.8871   21.4239 O   0  0  0  0  0  0
  -22.3548  -14.5556   20.6709 O   0  0  0  0  0  0
  -24.6187  -31.8641   23.2062 C   0  0  0  0  0  0
  -25.9062  -32.4805   23.8365 C   0  0  1  0  0  0
  -27.2338  -27.3908   20.0938 C   0  0  0  0  0  0
  -25.5915  -33.8607   24.2301 N   0  0  0  0  0  0
  -23.4085  -30.4871   21.5466 C   0  0  2  0  0  0
  -24.8532  -28.9461   20.1092 C   0  0  0  0  0  0
  -22.7432  -29.4643   22.4961 C   0  0  0  0  0  0
  -18.0271  -28.1381   22.8502 C   0  0  0  0  0  0
  -24.1485  -36.7299   23.2644 C   0  0  0  0  0  0
  -25.9410  -30.8138   21.3654 C   0  0  0  0  0  0
  -26.0142  -29.4449   20.7123 C   0  0  0  0  0  0
  -27.2015  -28.6715   20.7053 C   0  0  0  0  0  0
  -26.0532  -26.9204   19.4769 C   0  0  0  0  0  0
  -24.8702  -27.6846   19.4896 C   0  0  0  0  0  0
  -23.6173  -29.8180   20.1610 C   0  0  0  0  0  0
  -25.4109  -36.3102   24.0342 C   0  0  1  0  0  0
  -20.5867  -28.3672   23.1305 C   0  0  2  0  0  0
  -20.6762  -26.9403   22.5416 C   0  0  0  0  0  0
  -19.5740  -26.6379   21.5215 C   0  0  0  0  0  0
  -18.1912  -26.7934   22.1620 C   0  0  0  0  0  0
  -19.1522  -28.8841   23.2902 C   0  0  0  0  0  0
  -18.9454  -30.1450   23.8906 C   0  0  0  0  0  0
  -17.6458  -30.6595   24.0566 C   0  0  0  0  0  0
  -25.9042  -34.9473   23.5117 C   0  0  0  0  0  0
  -16.5345  -29.9100   23.6332 C   0  0  0  0  0  0
  -16.7260  -28.6514   23.0356 C   0  0  0  0  0  0
  -26.4476  -31.6608   25.0721 C   0  0  0  0  0  0
  -25.3742  -31.3732   26.1476 C   0  0  0  0  0  0
  -27.0322  -30.3056   24.6117 C   0  0  0  0  0  0
  -27.6047  -32.4342   25.7474 C   0  0  0  0  0  0
  -27.5576  -37.1801   24.8470 C   0  0  0  0  0  0
  -21.4150  -29.3038   22.3714 N   0  0  0  0  0  0
  -26.4290  -37.3790   23.9416 N   0  0  0  0  0  0
  -24.6747  -31.0707   22.0973 N   0  0  0  0  0  0
  -23.4190  -28.8184   23.3009 O   0  0  0  0  0  0
  -28.4061  -26.6488   20.1438 O   0  0  0  0  0  0
  -26.5601  -34.8936   22.4674 O   0  0  0  0  0  0
  -23.5372  -32.1407   23.7439 O   0  0  0  0  0  0
  -30.6192  -17.5706   19.7572 C   0  0  0  0  0  0
  -30.5561  -19.0063   19.8219 C   0  0  0  0  0  0
  -29.8769  -19.4725   20.9256 C   0  0  0  0  0  0
  -30.0073  -16.9075   20.7979 C   0  0  0  0  0  0
  -28.0657  -24.0895   21.6230 C   0  0  0  0  0  0
  -28.0377  -22.6092   22.0507 C   0  0  0  0  0  0
  -29.0529  -22.8079   19.9165 C   0  0  0  0  0  0
  -28.1047  -24.0418   20.1007 C   0  0  2  0  0  0
  -31.2238  -19.8904   18.8099 C   0  0  0  0  0  0
  -26.5517  -23.2180   18.3880 C   0  0  0  0  0  0
  -29.7928  -20.9010   21.4696 C   0  0  0  0  0  0
  -28.5702  -25.3963   19.4266 C   0  0  0  0  0  0
  -29.8977  -15.5569   21.0347 N   0  0  0  0  0  0
  -28.6977  -21.8119   20.9785 N   0  3  1  0  0  0
  -26.7621  -23.7188   19.7077 O   0  0  0  0  0  0
  -29.2597  -18.1039   21.8494 S   0  0  0  0  0  0
  -31.4750  -12.4505   19.1442 H   0  0  0  0  0  0
  -30.3460  -11.3300   19.8493 H   0  0  0  0  0  0
  -29.7554  -11.7767   17.4491 H   0  0  0  0  0  0
  -29.6615  -13.4906   17.7666 H   0  0  0  0  0  0
  -27.8427  -11.3043   18.8283 H   0  0  0  0  0  0
  -27.3742  -12.6213   17.7878 H   0  0  0  0  0  0
  -27.6951  -14.2532   19.5646 H   0  0  0  0  0  0
  -28.6834  -11.9738   21.3466 H   0  0  0  0  0  0
  -28.4489  -13.6120   21.8727 H   0  0  0  0  0  0
  -25.2753   -9.5698   22.4744 H   0  0  0  0  0  0
  -24.0003   -7.4638   22.7468 H   0  0  0  0  0  0
  -21.0835   -8.8753   19.8943 H   0  0  0  0  0  0
  -22.3681  -10.9658   19.6148 H   0  0  0  0  0  0
  -21.1996   -7.6144   23.9714 H   0  0  0  0  0  0
  -21.1482   -6.0517   25.9077 H   0  0  0  0  0  0
  -22.0598   -2.7606   23.2842 H   0  0  0  0  0  0
  -22.4082  -11.9880   22.4773 H   0  0  0  0  0  0
  -21.1107  -13.1268   22.2596 H   0  0  0  0  0  0
  -24.6677  -15.8465   20.5116 H   0  0  0  0  0  0
  -26.2902  -15.6229   20.0923 H   0  0  0  0  0  0
  -26.7140  -32.5487   23.1127 H   0  0  0  0  0  0
  -25.0116  -33.9761   25.0482 H   0  0  0  0  0  0
  -22.7008  -31.3066   21.4046 H   0  0  0  0  0  0
  -23.3758  -35.9621   23.3319 H   0  0  0  0  0  0
  -24.3584  -36.8898   22.2056 H   0  0  0  0  0  0
  -23.7224  -37.6503   23.6650 H   0  0  0  0  0  0
  -26.0611  -31.5768   20.5950 H   0  0  0  0  0  0
  -26.8270  -30.8645   21.9866 H   0  0  0  0  0  0
  -28.0966  -29.0518   21.1781 H   0  0  0  0  0  0
  -26.0203  -25.9592   18.9903 H   0  0  0  0  0  0
  -23.9783  -27.2950   19.0179 H   0  0  0  0  0  0
  -23.7266  -30.5935   19.4019 H   0  0  0  0  0  0
  -22.7401  -29.2404   19.8636 H   0  0  0  0  0  0
  -25.1284  -36.1957   25.0834 H   0  0  0  0  0  0
  -20.9960  -28.3230   24.1423 H   0  0  0  0  0  0
  -20.5649  -26.2283   23.3605 H   0  0  0  0  0  0
  -21.6628  -26.7423   22.1202 H   0  0  0  0  0  0
  -19.6901  -25.6289   21.1240 H   0  0  0  0  0  0
  -19.6694  -27.3196   20.6753 H   0  0  0  0  0  0
  -17.4194  -26.6708   21.4008 H   0  0  0  0  0  0
  -18.0290  -26.0059   22.8989 H   0  0  0  0  0  0
  -19.7938  -30.7257   24.2266 H   0  0  0  0  0  0
  -17.5025  -31.6277   24.5170 H   0  0  0  0  0  0
  -15.5348  -30.3009   23.7660 H   0  0  0  0  0  0
  -15.8658  -28.0838   22.7058 H   0  0  0  0  0  0
  -24.5910  -30.7077   25.7827 H   0  0  0  0  0  0
  -24.8941  -32.2896   26.4920 H   0  0  0  0  0  0
  -25.8094  -30.8912   27.0238 H   0  0  0  0  0  0
  -26.2871  -29.6801   24.1191 H   0  0  0  0  0  0
  -27.4123  -29.7307   25.4567 H   0  0  0  0  0  0
  -27.8690  -30.4387   23.9259 H   0  0  0  0  0  0
  -27.2667  -33.3649   26.2036 H   0  0  0  0  0  0
  -28.3858  -32.6885   25.0302 H   0  0  0  0  0  0
  -28.0719  -31.8485   26.5397 H   0  0  0  0  0  0
  -28.2599  -38.0092   24.7508 H   0  0  0  0  0  0
  -28.1057  -36.2621   24.6292 H   0  0  0  0  0  0
  -27.2299  -37.1446   25.8875 H   0  0  0  0  0  0
  -20.9315  -29.8795   21.6965 H   0  0  0  0  0  0
  -26.0178  -38.2865   24.1418 H   0  0  0  0  0  0
  -31.1350  -17.0742   18.9468 H   0  0  0  0  0  0
  -28.9718  -24.5655   22.0008 H   0  0  0  0  0  0
  -27.2155  -24.6561   22.0043 H   0  0  0  0  0  0
  -27.0050  -22.2679   22.1317 H   0  0  0  0  0  0
  -28.4860  -22.4938   23.0376 H   0  0  0  0  0  0
  -30.0800  -23.1405   20.0768 H   0  0  0  0  0  0
  -29.0336  -22.3746   18.9182 H   0  0  0  0  0  0
  -31.7199  -19.3068   18.0336 H   0  0  0  0  0  0
  -31.9841  -20.5211   19.2711 H   0  0  0  0  0  0
  -30.5042  -20.5398   18.3126 H   0  0  0  0  0  0
  -25.4819  -23.2102   18.1797 H   0  0  0  0  0  0
  -26.8988  -22.1898   18.2841 H   0  0  0  0  0  0
  -27.0267  -23.8230   17.6171 H   0  0  0  0  0  0
  -30.7569  -21.3948   21.3421 H   0  0  0  0  0  0
  -29.7006  -20.7993   22.5511 H   0  0  0  0  0  0
  -28.1966  -25.4976   18.4087 H   0  0  0  0  0  0
  -29.6493  -25.3247   19.2942 H   0  0  0  0  0  0
  -29.0709  -15.2650   21.5339 H   0  0  0  0  0  0
  -27.9692  -21.2160   20.6130 H   0  0  0  0  0  0
  1 25  1  0  0  0
  1 30  2  0  0  0
  1 83  1  0  0  0
  2  3  1  0  0  0
  2 25  1  0  0  0
  2 87  1  0  0  0
  2 88  1  0  0  0
  3  4  1  0  0  0
  3 89  1  0  0  0
  3 90  1  0  0  0
  4  5  1  0  0  0
  4 91  1  0  0  0
  4 92  1  0  0  0
  5  6  1  0  0  0
  5 26  1  0  0  0
  5 93  1  0  0  0
  6 25  1  0  0  0
  6 94  1  0  0  0
  6 95  1  0  0  0
  7  8  2  0  0  0
  7 26  1  0  0  0
  7 29  1  0  0  0
  8  9  1  0  0  0
  8 22  1  0  0  0
  9 10  1  0  0  0
  9 27  2  0  0  0
 10 11  2  0  0  0
 10 15  1  0  0  0
 11 12  1  0  0  0
 11 96  1  0  0  0
 12 13  2  0  0  0
 12 97  1  0  0  0
 13 14  1  0  0  0
 13 31  1  0  0  0
 14 15  2  0  0  0
 14 98  1  0  0  0
 15 99  1  0  0  0
 16 17  2  0  0  0
 16 21  1  0  0  0
 16 31  1  0  0  0
 17 18  1  0  0  0
 17100  1  0  0  0
 18 19  2  0  0  0
 18101  1  0  0  0
 19 20  1  0  0  0
 19 24  1  0  0  0
 20 21  2  0  0  0
 20102  1  0  0  0
 21 23  1  0  0  0
 22 28  1  0  0  0
 22 32  2  0  0  0
 26 27  1  0  0  0
 28103  1  0  0  0
 28104  1  0  0  0
 29105  1  0  0  0
 29106  1  0  0  0
 33 34  1  0  0  0
 33 66  1  0  0  0
 33 70  2  0  0  0
 34 36  1  0  0  0
 34 59  1  0  0  0
 34107  1  0  0  0
 35 44  2  0  0  0
 35 45  1  0  0  0
 35 68  1  0  0  0
 36 56  1  0  0  0
 36108  1  0  0  0
 37 39  1  0  0  0
 37 47  1  0  0  0
 37 66  1  0  0  0
 37109  1  0  0  0
 38 43  2  0  0  0
 38 46  1  0  0  0
 38 47  1  0  0  0
 39 64  1  0  0  0
 39 67  2  0  0  0
 40 52  1  0  0  0
 40 53  2  0  0  0
 40 58  1  0  0  0
 41110  1  0  0  0
 41111  1  0  0  0
 41112  1  0  0  0
 41 48  1  0  0  0
 42 43  1  0  0  0
 42 66  1  0  0  0
 42113  1  0  0  0
 42114  1  0  0  0
 43 44  1  0  0  0
 44115  1  0  0  0
 45 46  2  0  0  0
 45116  1  0  0  0
 46117  1  0  0  0
 47118  1  0  0  0
 47119  1  0  0  0
 48 56  1  0  0  0
 48 65  1  0  0  0
 48120  1  0  0  0
 49 50  1  0  0  0
 49 53  1  0  0  0
 49 64  1  0  0  0
 49121  1  0  0  0
 50 51  1  0  0  0
 50122  1  0  0  0
 50123  1  0  0  0
 51 52  1  0  0  0
 51124  1  0  0  0
 51125  1  0  0  0
 52126  1  0  0  0
 52127  1  0  0  0
 53 54  1  0  0  0
 54 55  2  0  0  0
 54128  1  0  0  0
 55 57  1  0  0  0
 55129  1  0  0  0
 56 69  2  0  0  0
 57 58  2  0  0  0
 57130  1  0  0  0
 58131  1  0  0  0
 59 60  1  0  0  0
 59 61  1  0  0  0
 59 62  1  0  0  0
 60132  1  0  0  0
 60133  1  0  0  0
 60134  1  0  0  0
 61135  1  0  0  0
 61136  1  0  0  0
 61137  1  0  0  0
 62138  1  0  0  0
 62139  1  0  0  0
 62140  1  0  0  0
 63 65  1  0  0  0
 63141  1  0  0  0
 63142  1  0  0  0
 63143  1  0  0  0
 64144  1  0  0  0
 65145  1  0  0  0
 68 82  1  0  0  0
 71 72  1  0  0  0
 71 74  2  0  0  0
 71146  1  0  0  0
 72 73  2  0  0  0
 72 79  1  0  0  0
 73 81  1  0  0  0
 73 86  1  0  0  0
 74 83  1  0  0  0
 74 86  1  0  0  0
 75 76  1  0  0  0
 75 78  1  0  0  0
 75147  1  0  0  0
 75148  1  0  0  0
 76 84  1  0  0  0
 76149  1  0  0  0
 76150  1  0  0  0
 77 78  1  0  0  0
 77 84  1  0  0  0
 77151  1  0  0  0
 77152  1  0  0  0
 78 82  1  0  0  0
 78 85  1  0  0  0
 79153  1  0  0  0
 79154  1  0  0  0
 79155  1  0  0  0
 80 85  1  0  0  0
 80156  1  0  0  0
 80157  1  0  0  0
 80158  1  0  0  0
 81159  1  0  0  0
 81160  1  0  0  0
 81 84  1  0  0  0
 82161  1  0  0  0
 82162  1  0  0  0
 83163  1  0  0  0
 84164  1  0  0  0
M  CHG  1  84   1
M  ISO  4   1 100  68 101  82 101  83 100
M  END
> <chiral flag>
0

> <version>
0

> <s_m_source_file>
/data/baiqing/PycharmProjects/Reinvent-master-3.2/result/LINK_invent/BTK/process_docking_weight1_custom_product_contain_oxygen_bond_distance_aromatic_linkinvent_7_9_3/rearranged_h_0155.sdf

> <i_m_source_file_index>
71

> <r_mmod_Potential_Energy-OPLS-2005>
-72.7608871459961

> <r_mmod_Stretch_Energy-OPLS-2005>
50.7251586914062

> <r_mmod_Bend_Energy-OPLS-2005>
167.955917358398

> <r_mmod_Torsional_Energy-OPLS-2005>
280.138031005859

> <r_mmod_Improper_Torsional_Energy-OPLS-2005>
4.02531719207764

> <r_mmod_Van_der_Waal_Energy-OPLS-2005>
122.997169494629

> <r_mmod_Electrostatic_Energy-OPLS-2005>
-298.023162841797

> <r_mmod_Solvation_Energy-OPLS-2005>
-422.537261962891

> <b_mmod_Minimization_Converged-OPLS-2005>
0

> <r_mmod_RMS_Derivative-OPLS-2005>
1.26535654067993

$$$$
71
                    3D
 Structure written by MMmdl.
156165  0  0  1  0            999 V2000
  -30.6131  -14.7626   20.4432 C   0  0  0  0  0  0
  -30.4296  -12.4620   19.4871 C   0  0  0  0  0  0
  -29.5130  -12.5076   18.2442 C   0  0  0  0  0  0
  -28.0392  -12.3306   18.6551 C   0  0  0  0  0  0
  -27.6410  -13.2359   19.8516 C   0  0  2  0  0  0
  -28.6834  -13.1842   20.9907 C   0  0  0  0  0  0
  -25.2506  -13.8207   20.5706 C   0  0  0  0  0  0
  -24.1801  -13.0444   20.9212 C   0  0  0  0  0  0
  -24.6398  -11.6925   20.8752 C   0  0  0  0  0  0
  -23.9076  -10.4298   21.0408 C   0  0  0  0  0  0
  -24.3626   -9.4212   21.9186 C   0  0  0  0  0  0
  -23.6299   -8.2246   22.0755 C   0  0  0  0  0  0
  -22.4279   -8.0286   21.3545 C   0  0  0  0  0  0
  -21.9919   -9.0260   20.4646 C   0  0  0  0  0  0
  -22.7249  -10.2138   20.3057 C   0  0  0  0  0  0
  -21.6856   -6.0741   22.5278 C   0  0  0  0  0  0
  -21.4014   -6.5644   23.8212 C   0  0  0  0  0  0
  -21.3658   -5.6795   24.9174 C   0  0  0  0  0  0
  -21.6046   -4.3059   24.7223 C   0  0  0  0  0  0
  -21.8818   -3.8151   23.4344 C   0  0  0  0  0  0
  -21.9192   -4.6967   22.3401 C   0  0  0  0  0  0
  -22.7822  -13.5223   21.1871 C   0  0  0  0  0  0
  -22.1662   -4.2155   21.0979 F   0  0  0  0  0  0
  -21.5627   -3.4540   25.7735 F   0  0  0  0  0  0
  -29.9862  -13.5339   20.4123 N   0  0  0  0  0  0
  -26.2934  -12.9421   20.3287 N   0  0  0  0  0  0
  -25.9329  -11.6559   20.5757 N   0  0  0  0  0  0
  -22.0466  -12.8210   22.0422 N   0  0  0  0  0  0
  -25.4199  -15.1934   20.4127 N   0  0  0  0  0  0
  -31.8019  -14.8332   20.1186 O   0  0  0  0  0  0
  -21.6642   -6.8884   21.4241 O   0  0  0  0  0  0
  -22.3509  -14.5532   20.6722 O   0  0  0  0  0  0
  -24.6337  -31.8542   23.1977 C   0  0  0  0  0  0
  -25.9154  -32.4748   23.8328 C   0  0  1  0  0  0
  -27.2124  -27.2395   20.1332 C   0  0  0  0  0  0
  -25.5947  -33.8552   24.2252 N   0  0  0  0  0  0
  -23.4306  -30.4780   21.5412 C   0  0  2  0  0  0
  -24.8775  -28.9265   20.1060 C   0  0  0  0  0  0
  -22.7516  -29.4599   22.4898 C   0  0  0  0  0  0
  -18.0296  -28.1391   22.8485 C   0  0  0  0  0  0
  -24.1490  -36.7275   23.2640 C   0  0  0  0  0  0
  -25.9791  -30.7595   21.3826 C   0  0  0  0  0  0
  -26.0493  -29.3812   20.7234 C   0  0  0  0  0  0
  -27.2181  -28.5494   20.7284 C   0  0  0  0  0  0
  -26.0240  -26.8739   19.4600 C   0  0  0  0  0  0
  -24.8719  -27.6822   19.4612 C   0  0  0  0  0  0
  -23.6491  -29.8149   20.1561 C   0  0  0  0  0  0
  -25.4116  -36.3060   24.0323 C   0  0  1  0  0  0
  -20.5903  -28.3704   23.1263 C   0  0  2  0  0  0
  -20.6783  -26.9419   22.5406 C   0  0  0  0  0  0
  -19.5755  -26.6383   21.5215 C   0  0  0  0  0  0
  -18.1935  -26.7935   22.1624 C   0  0  0  0  0  0
  -19.1551  -28.8864   23.2870 C   0  0  0  0  0  0
  -18.9471  -30.1466   23.8887 C   0  0  0  0  0  0
  -17.6469  -30.6591   24.0564 C   0  0  0  0  0  0
  -25.9059  -34.9434   23.5086 C   0  0  0  0  0  0
  -16.5360  -29.9086   23.6336 C   0  0  0  0  0  0
  -16.7281  -28.6504   23.0355 C   0  0  0  0  0  0
  -26.4512  -31.6578   25.0724 C   0  0  0  0  0  0
  -25.3723  -31.3741   26.1438 C   0  0  0  0  0  0
  -27.0367  -30.2992   24.6231 C   0  0  0  0  0  0
  -27.6065  -32.4323   25.7495 C   0  0  0  0  0  0
  -27.5574  -37.1794   24.8468 C   0  0  0  0  0  0
  -21.4221  -29.3049   22.3650 N   0  0  0  0  0  0
  -26.4288  -37.3763   23.9408 N   0  0  0  0  0  0
  -24.7002  -31.0494   22.0963 N   0  0  0  0  0  0
  -23.4213  -28.8138   23.2999 O   0  0  0  0  0  0
  -28.2858  -26.3129   20.2271 O   0  0  0  0  0  0
  -26.5632  -34.8912   22.4655 O   0  0  0  0  0  0
  -23.5482  -32.1372   23.7260 O   0  0  0  0  0  0
  -29.4989  -18.5385   20.7670 C   0  0  0  0  0  0
  -30.6182  -19.9802   19.1537 C   0  0  0  0  0  0
  -30.9237  -17.5416   19.0716 C   0  0  0  0  0  0
  -29.7518  -19.8925   20.2624 C   0  0  0  0  0  0
  -30.0954  -17.3260   20.2005 C   0  0  0  0  0  0
  -31.1797  -18.8320   18.5651 C   0  0  0  0  0  0
  -28.7271  -23.7761   20.9948 C   0  0  0  0  0  0
  -29.3341  -21.2196   20.9301 C   0  0  0  0  0  0
  -28.3955  -24.2128   18.6966 C   0  0  0  0  0  0
  -28.5872  -22.6793   18.9233 C   0  0  0  0  0  0
  -28.0211  -24.8262   20.0514 C   0  0  2  0  0  0
  -28.9437  -22.4471   20.3452 N   0  0  0  0  0  0
  -29.8638  -15.9195   20.6689 N   0  0  0  0  0  0
  -29.4212  -21.1842   22.2605 N   0  3  0  0  0  0
  -29.0090  -23.9965   22.1780 O   0  0  0  0  0  0
  -32.0020  -18.9751   17.4980 F   0  0  0  0  0  0
  -31.4726  -12.5762   19.1866 H   0  0  0  0  0  0
  -30.3679  -11.4887   19.9762 H   0  0  0  0  0  0
  -29.7991  -11.7296   17.5350 H   0  0  0  0  0  0
  -29.6395  -13.4586   17.7244 H   0  0  0  0  0  0
  -27.8996  -11.2830   18.9239 H   0  0  0  0  0  0
  -27.3823  -12.5156   17.8043 H   0  0  0  0  0  0
  -27.6323  -14.2551   19.4647 H   0  0  0  0  0  0
  -28.7192  -12.1913   21.4418 H   0  0  0  0  0  0
  -28.4140  -13.8742   21.7918 H   0  0  0  0  0  0
  -25.2770   -9.5687   22.4763 H   0  0  0  0  0  0
  -24.0007   -7.4637   22.7476 H   0  0  0  0  0  0
  -21.0853   -8.8781   19.8949 H   0  0  0  0  0  0
  -22.3712  -10.9678   19.6168 H   0  0  0  0  0  0
  -21.2007   -7.6152   23.9719 H   0  0  0  0  0  0
  -21.1480   -6.0525   25.9078 H   0  0  0  0  0  0
  -22.0597   -2.7614   23.2841 H   0  0  0  0  0  0
  -22.4078  -11.9864   22.4800 H   0  0  0  0  0  0
  -21.1081  -13.1230   22.2627 H   0  0  0  0  0  0
  -24.6503  -15.8450   20.5209 H   0  0  0  0  0  0
  -26.2635  -15.6326   20.0668 H   0  0  0  0  0  0
  -26.7218  -32.5398   23.1065 H   0  0  0  0  0  0
  -25.0106  -33.9693   25.0406 H   0  0  0  0  0  0
  -22.7280  -31.3011   21.3953 H   0  0  0  0  0  0
  -23.3757  -35.9604   23.3303 H   0  0  0  0  0  0
  -24.3583  -36.8900   22.2056 H   0  0  0  0  0  0
  -23.7243  -37.6473   23.6668 H   0  0  0  0  0  0
  -26.1221  -31.5191   20.6128 H   0  0  0  0  0  0
  -26.8555  -30.8074   22.0169 H   0  0  0  0  0  0
  -28.1092  -28.8872   21.2385 H   0  0  0  0  0  0
  -25.9480  -25.9356   18.9329 H   0  0  0  0  0  0
  -23.9792  -27.3352   18.9589 H   0  0  0  0  0  0
  -23.7745  -30.5926   19.4021 H   0  0  0  0  0  0
  -22.7670  -29.2500   19.8493 H   0  0  0  0  0  0
  -25.1300  -36.1896   25.0815 H   0  0  0  0  0  0
  -20.9997  -28.3286   24.1382 H   0  0  0  0  0  0
  -20.5688  -26.2318   23.3616 H   0  0  0  0  0  0
  -21.6649  -26.7442   22.1195 H   0  0  0  0  0  0
  -19.6919  -25.6293   21.1247 H   0  0  0  0  0  0
  -19.6688  -27.3194   20.6747 H   0  0  0  0  0  0
  -17.4204  -26.6689   21.4025 H   0  0  0  0  0  0
  -18.0329  -26.0078   22.9019 H   0  0  0  0  0  0
  -19.7948  -30.7287   24.2246 H   0  0  0  0  0  0
  -17.5021  -31.6269   24.5169 H   0  0  0  0  0  0
  -15.5361  -30.2983   23.7664 H   0  0  0  0  0  0
  -15.8683  -28.0819   22.7073 H   0  0  0  0  0  0
  -24.5913  -30.7072   25.7770 H   0  0  0  0  0  0
  -24.8898  -32.2914   26.4821 H   0  0  0  0  0  0
  -25.8032  -30.8952   27.0240 H   0  0  0  0  0  0
  -26.2960  -29.6727   24.1249 H   0  0  0  0  0  0
  -27.4039  -29.7267   25.4759 H   0  0  0  0  0  0
  -27.8843  -30.4266   23.9493 H   0  0  0  0  0  0
  -27.2683  -33.3654   26.2015 H   0  0  0  0  0  0
  -28.3905  -32.6830   25.0336 H   0  0  0  0  0  0
  -28.0694  -31.8477   26.5456 H   0  0  0  0  0  0
  -28.2590  -38.0092   24.7508 H   0  0  0  0  0  0
  -28.1069  -36.2621   24.6297 H   0  0  0  0  0  0
  -27.2294  -37.1442   25.8872 H   0  0  0  0  0  0
  -20.9405  -29.8777   21.6860 H   0  0  0  0  0  0
  -26.0162  -38.2834   24.1409 H   0  0  0  0  0  0
  -28.8587  -18.4335   21.6319 H   0  0  0  0  0  0
  -30.9171  -20.9403   18.7629 H   0  0  0  0  0  0
  -31.3871  -16.7151   18.5567 H   0  0  0  0  0  0
  -27.6217  -24.4044   17.9534 H   0  0  0  0  0  0
  -29.3192  -24.6547   18.3215 H   0  0  0  0  0  0
  -29.3316  -22.2963   18.2284 H   0  0  0  0  0  0
  -27.6548  -22.1526   18.7121 H   0  0  0  0  0  0
  -26.9718  -24.6210   20.2598 H   0  0  0  0  0  0
  -28.9668  -15.7525   21.0994 H   0  0  0  0  0  0
  -29.7614  -20.3592   22.7276 H   0  0  0  0  0  0
  -29.2710  -22.0338   22.7889 H   0  0  0  0  0  0
  1 25  1  0  0  0
  1 30  2  0  0  0
  1 83  1  0  0  0
  2  3  1  0  0  0
  2 25  1  0  0  0
  2 87  1  0  0  0
  2 88  1  0  0  0
  3  4  1  0  0  0
  3 89  1  0  0  0
  3 90  1  0  0  0
  4  5  1  0  0  0
  4 91  1  0  0  0
  4 92  1  0  0  0
  5  6  1  0  0  0
  5 26  1  0  0  0
  5 93  1  0  0  0
  6 25  1  0  0  0
  6 94  1  0  0  0
  6 95  1  0  0  0
  7  8  2  0  0  0
  7 26  1  0  0  0
  7 29  1  0  0  0
  8  9  1  0  0  0
  8 22  1  0  0  0
  9 10  1  0  0  0
  9 27  2  0  0  0
 10 11  2  0  0  0
 10 15  1  0  0  0
 11 12  1  0  0  0
 11 96  1  0  0  0
 12 13  2  0  0  0
 12 97  1  0  0  0
 13 14  1  0  0  0
 13 31  1  0  0  0
 14 15  2  0  0  0
 14 98  1  0  0  0
 15 99  1  0  0  0
 16 17  2  0  0  0
 16 21  1  0  0  0
 16 31  1  0  0  0
 17 18  1  0  0  0
 17100  1  0  0  0
 18 19  2  0  0  0
 18101  1  0  0  0
 19 20  1  0  0  0
 19 24  1  0  0  0
 20 21  2  0  0  0
 20102  1  0  0  0
 21 23  1  0  0  0
 22 28  1  0  0  0
 22 32  2  0  0  0
 26 27  1  0  0  0
 28103  1  0  0  0
 28104  1  0  0  0
 29105  1  0  0  0
 29106  1  0  0  0
 33 34  1  0  0  0
 33 66  1  0  0  0
 33 70  2  0  0  0
 34 36  1  0  0  0
 34 59  1  0  0  0
 34107  1  0  0  0
 35 44  2  0  0  0
 35 45  1  0  0  0
 35 68  1  0  0  0
 36 56  1  0  0  0
 36108  1  0  0  0
 37 39  1  0  0  0
 37 47  1  0  0  0
 37 66  1  0  0  0
 37109  1  0  0  0
 38 43  2  0  0  0
 38 46  1  0  0  0
 38 47  1  0  0  0
 39 64  1  0  0  0
 39 67  2  0  0  0
 40 52  1  0  0  0
 40 53  2  0  0  0
 40 58  1  0  0  0
 41110  1  0  0  0
 41111  1  0  0  0
 41112  1  0  0  0
 41 48  1  0  0  0
 42 43  1  0  0  0
 42 66  1  0  0  0
 42113  1  0  0  0
 42114  1  0  0  0
 43 44  1  0  0  0
 44115  1  0  0  0
 45 46  2  0  0  0
 45116  1  0  0  0
 46117  1  0  0  0
 47118  1  0  0  0
 47119  1  0  0  0
 48 56  1  0  0  0
 48 65  1  0  0  0
 48120  1  0  0  0
 49 50  1  0  0  0
 49 53  1  0  0  0
 49 64  1  0  0  0
 49121  1  0  0  0
 50 51  1  0  0  0
 50122  1  0  0  0
 50123  1  0  0  0
 51 52  1  0  0  0
 51124  1  0  0  0
 51125  1  0  0  0
 52126  1  0  0  0
 52127  1  0  0  0
 53 54  1  0  0  0
 54 55  2  0  0  0
 54128  1  0  0  0
 55 57  1  0  0  0
 55129  1  0  0  0
 56 69  2  0  0  0
 57 58  2  0  0  0
 57130  1  0  0  0
 58131  1  0  0  0
 59 60  1  0  0  0
 59 61  1  0  0  0
 59 62  1  0  0  0
 60132  1  0  0  0
 60133  1  0  0  0
 60134  1  0  0  0
 61135  1  0  0  0
 61136  1  0  0  0
 61137  1  0  0  0
 62138  1  0  0  0
 62139  1  0  0  0
 62140  1  0  0  0
 63 65  1  0  0  0
 63141  1  0  0  0
 63142  1  0  0  0
 63143  1  0  0  0
 64144  1  0  0  0
 65145  1  0  0  0
 68 81  1  0  0  0
 71 74  2  0  0  0
 71 75  1  0  0  0
 71146  1  0  0  0
 72 74  1  0  0  0
 72 76  2  0  0  0
 72147  1  0  0  0
 73 75  2  0  0  0
 73 76  1  0  0  0
 73148  1  0  0  0
 74 78  1  0  0  0
 75 83  1  0  0  0
 76 86  1  0  0  0
 77 81  1  0  0  0
 77 82  1  0  0  0
 77 85  2  0  0  0
 78 82  1  0  0  0
 78 84  2  0  0  0
 79 80  1  0  0  0
 79 81  1  0  0  0
 79149  1  0  0  0
 79150  1  0  0  0
 80 82  1  0  0  0
 80151  1  0  0  0
 80152  1  0  0  0
 81153  1  0  0  0
 83154  1  0  0  0
 84155  1  0  0  0
 84156  1  0  0  0
M  CHG  1  84   1
M  ISO  4   1 100  68 101  81 101  83 100
M  END
> <chiral flag>
0

> <version>
0

> <s_m_source_file>
/data/baiqing/PycharmProjects/Reinvent-master-3.2/result/LINK_invent/BTK/process_docking_weight1_custom_product_contain_oxygen_bond_distance_aromatic_linkinvent_7_9_3/rearranged_h_0155.sdf

> <i_m_source_file_index>
72

> <r_mmod_Potential_Energy-OPLS-2005>
-6.39928865432739

> <r_mmod_Stretch_Energy-OPLS-2005>
138.715606689453

> <r_mmod_Bend_Energy-OPLS-2005>
205.215957641602

> <r_mmod_Torsional_Energy-OPLS-2005>
257.478759765625

> <r_mmod_Improper_Torsional_Energy-OPLS-2005>
5.89092826843262

> <r_mmod_Van_der_Waal_Energy-OPLS-2005>
147.979522705078

> <r_mmod_Electrostatic_Energy-OPLS-2005>
-425.472351074219

> <r_mmod_Solvation_Energy-OPLS-2005>
-435.077484130859

> <b_mmod_Minimization_Converged-OPLS-2005>
0

> <r_mmod_RMS_Derivative-OPLS-2005>
0.568199276924133

$$$$
72
                    3D
 Structure written by MMmdl.
149158  0  0  1  0            999 V2000
  -30.5560  -14.8170   20.4314 C   0  0  0  0  0  0
  -30.4422  -12.4918   19.4903 C   0  0  0  0  0  0
  -29.5210  -12.5191   18.2475 C   0  0  0  0  0  0
  -28.0458  -12.3300   18.6530 C   0  0  0  0  0  0
  -27.6392  -13.2355   19.8449 C   0  0  2  0  0  0
  -28.6804  -13.1864   20.9825 C   0  0  0  0  0  0
  -25.2501  -13.8200   20.5694 C   0  0  0  0  0  0
  -24.1798  -13.0437   20.9202 C   0  0  0  0  0  0
  -24.6395  -11.6915   20.8736 C   0  0  0  0  0  0
  -23.9074  -10.4290   21.0403 C   0  0  0  0  0  0
  -24.3624   -9.4207   21.9182 C   0  0  0  0  0  0
  -23.6299   -8.2243   22.0754 C   0  0  0  0  0  0
  -22.4279   -8.0279   21.3546 C   0  0  0  0  0  0
  -21.9915   -9.0253   20.4644 C   0  0  0  0  0  0
  -22.7246  -10.2133   20.3052 C   0  0  0  0  0  0
  -21.6854   -6.0736   22.5281 C   0  0  0  0  0  0
  -21.4016   -6.5641   23.8214 C   0  0  0  0  0  0
  -21.3660   -5.6796   24.9176 C   0  0  0  0  0  0
  -21.6044   -4.3059   24.7228 C   0  0  0  0  0  0
  -21.8819   -3.8146   23.4351 C   0  0  0  0  0  0
  -21.9194   -4.6962   22.3406 C   0  0  0  0  0  0
  -22.7818  -13.5209   21.1874 C   0  0  0  0  0  0
  -22.1660   -4.2147   21.0984 F   0  0  0  0  0  0
  -21.5630   -3.4542   25.7741 F   0  0  0  0  0  0
  -29.9817  -13.5575   20.4153 N   0  0  0  0  0  0
  -26.2923  -12.9410   20.3240 N   0  0  0  0  0  0
  -25.9324  -11.6549   20.5719 N   0  0  0  0  0  0
  -22.0476  -12.8187   22.0431 N   0  0  0  0  0  0
  -25.4196  -15.1929   20.4144 N   0  0  0  0  0  0
  -31.7552  -14.9059   20.1473 O   0  0  0  0  0  0
  -21.6642   -6.8878   21.4242 O   0  0  0  0  0  0
  -22.3489  -14.5513   20.6727 O   0  0  0  0  0  0
  -24.6353  -31.8516   23.1937 C   0  0  0  0  0  0
  -25.9158  -32.4736   23.8304 C   0  0  1  0  0  0
  -27.2206  -27.2208   20.1506 C   0  0  0  0  0  0
  -25.5940  -33.8538   24.2227 N   0  0  0  0  0  0
  -23.4350  -30.4710   21.5381 C   0  0  2  0  0  0
  -24.8851  -28.9076   20.1138 C   0  0  0  0  0  0
  -22.7523  -29.4581   22.4894 C   0  0  0  0  0  0
  -18.0294  -28.1393   22.8480 C   0  0  0  0  0  0
  -24.1491  -36.7272   23.2640 C   0  0  0  0  0  0
  -25.9837  -30.7531   21.3790 C   0  0  0  0  0  0
  -26.0585  -29.3703   20.7246 C   0  0  0  0  0  0
  -27.2327  -28.5423   20.7250 C   0  0  0  0  0  0
  -26.0263  -26.8332   19.5094 C   0  0  0  0  0  0
  -24.8761  -27.6488   19.4923 C   0  0  0  0  0  0
  -23.6574  -29.8000   20.1567 C   0  0  0  0  0  0
  -25.4120  -36.3056   24.0321 C   0  0  1  0  0  0
  -20.5901  -28.3709   23.1257 C   0  0  2  0  0  0
  -20.6780  -26.9421   22.5407 C   0  0  0  0  0  0
  -19.5757  -26.6384   21.5210 C   0  0  0  0  0  0
  -18.1937  -26.7933   22.1621 C   0  0  0  0  0  0
  -19.1549  -28.8868   23.2861 C   0  0  0  0  0  0
  -18.9470  -30.1466   23.8882 C   0  0  0  0  0  0
  -17.6469  -30.6592   24.0561 C   0  0  0  0  0  0
  -25.9066  -34.9429   23.5078 C   0  0  0  0  0  0
  -16.5359  -29.9088   23.6335 C   0  0  0  0  0  0
  -16.7281  -28.6506   23.0356 C   0  0  0  0  0  0
  -26.4510  -31.6577   25.0713 C   0  0  0  0  0  0
  -25.3715  -31.3745   26.1422 C   0  0  0  0  0  0
  -27.0364  -30.2987   24.6233 C   0  0  0  0  0  0
  -27.6052  -32.4330   25.7494 C   0  0  0  0  0  0
  -27.5581  -37.1789   24.8462 C   0  0  0  0  0  0
  -21.4224  -29.3046   22.3639 N   0  0  0  0  0  0
  -26.4289  -37.3763   23.9411 N   0  0  0  0  0  0
  -24.7039  -31.0444   22.0931 N   0  0  0  0  0  0
  -23.4201  -28.8128   23.3018 O   0  0  0  0  0  0
  -28.2936  -26.2897   20.1664 O   0  0  0  0  0  0
  -26.5645  -34.8916   22.4652 O   0  0  0  0  0  0
  -23.5491  -32.1353   23.7207 O   0  0  0  0  0  0
  -29.6753  -18.6989   21.0055 C   0  0  0  0  0  0
  -29.4389  -18.5516   19.6954 C   0  0  0  0  0  0
  -29.1247  -20.9578   20.5146 C   0  0  0  0  0  0
  -28.6408  -23.5577   20.0902 C   0  0  0  0  0  0
  -30.0504  -17.3375   21.6365 C   0  0  0  0  0  0
  -29.5787  -17.1023   19.2365 C   0  0  0  0  0  0
  -29.6980  -16.2027   20.5515 C   0  0  1  0  0  0
  -28.0595  -24.9134   20.7745 C   0  0  0  0  0  0
  -29.4856  -20.0460   21.4839 N   0  0  0  0  0  0
  -28.8000  -22.3852   20.8357 N   0  0  0  0  0  0
  -28.9294  -23.5864   18.8907 O   0  0  0  0  0  0
  -29.0011  -20.1014   18.9285 S   0  0  0  0  0  0
  -31.4817  -12.6287   19.1887 H   0  0  0  0  0  0
  -30.3998  -11.5178   19.9804 H   0  0  0  0  0  0
  -29.8159  -11.7438   17.5395 H   0  0  0  0  0  0
  -29.6380  -13.4704   17.7259 H   0  0  0  0  0  0
  -27.9102  -11.2820   18.9229 H   0  0  0  0  0  0
  -27.3916  -12.5103   17.7992 H   0  0  0  0  0  0
  -27.6257  -14.2520   19.4522 H   0  0  0  0  0  0
  -28.7254  -12.1892   21.4227 H   0  0  0  0  0  0
  -28.4036  -13.8616   21.7931 H   0  0  0  0  0  0
  -25.2773   -9.5683   22.4748 H   0  0  0  0  0  0
  -24.0011   -7.4634   22.7472 H   0  0  0  0  0  0
  -21.0850   -8.8771   19.8946 H   0  0  0  0  0  0
  -22.3708  -10.9669   19.6156 H   0  0  0  0  0  0
  -21.2009   -7.6151   23.9714 H   0  0  0  0  0  0
  -21.1482   -6.0529   25.9080 H   0  0  0  0  0  0
  -22.0597   -2.7607   23.2856 H   0  0  0  0  0  0
  -22.4109  -11.9853   22.4813 H   0  0  0  0  0  0
  -21.1089  -13.1193   22.2644 H   0  0  0  0  0  0
  -24.6543  -15.8481   20.5314 H   0  0  0  0  0  0
  -26.2721  -15.6347   20.0960 H   0  0  0  0  0  0
  -26.7225  -32.5377   23.1044 H   0  0  0  0  0  0
  -25.0072  -33.9667   25.0362 H   0  0  0  0  0  0
  -22.7334  -31.2939   21.3869 H   0  0  0  0  0  0
  -23.3765  -35.9591   23.3281 H   0  0  0  0  0  0
  -24.3580  -36.8924   22.2059 H   0  0  0  0  0  0
  -23.7231  -37.6457   23.6687 H   0  0  0  0  0  0
  -26.1261  -31.5110   20.6074 H   0  0  0  0  0  0
  -26.8593  -30.8050   22.0146 H   0  0  0  0  0  0
  -28.1330  -28.8931   21.2098 H   0  0  0  0  0  0
  -25.9731  -25.8650   19.0310 H   0  0  0  0  0  0
  -23.9793  -27.2894   19.0067 H   0  0  0  0  0  0
  -23.7861  -30.5738   19.3990 H   0  0  0  0  0  0
  -22.7750  -29.2350   19.8506 H   0  0  0  0  0  0
  -25.1304  -36.1891   25.0812 H   0  0  0  0  0  0
  -20.9991  -28.3294   24.1380 H   0  0  0  0  0  0
  -20.5680  -26.2318   23.3615 H   0  0  0  0  0  0
  -21.6648  -26.7439   22.1205 H   0  0  0  0  0  0
  -19.6918  -25.6291   21.1249 H   0  0  0  0  0  0
  -19.6697  -27.3184   20.6733 H   0  0  0  0  0  0
  -17.4205  -26.6676   21.4026 H   0  0  0  0  0  0
  -18.0340  -26.0079   22.9023 H   0  0  0  0  0  0
  -19.7946  -30.7284   24.2246 H   0  0  0  0  0  0
  -17.5026  -31.6270   24.5167 H   0  0  0  0  0  0
  -15.5360  -30.2987   23.7669 H   0  0  0  0  0  0
  -15.8680  -28.0820   22.7083 H   0  0  0  0  0  0
  -24.5877  -30.7118   25.7738 H   0  0  0  0  0  0
  -24.8925  -32.2926   26.4838 H   0  0  0  0  0  0
  -25.8013  -30.8913   27.0205 H   0  0  0  0  0  0
  -26.2962  -29.6724   24.1243 H   0  0  0  0  0  0
  -27.4012  -29.7267   25.4775 H   0  0  0  0  0  0
  -27.8853  -30.4248   23.9509 H   0  0  0  0  0  0
  -27.2651  -33.3640   26.2042 H   0  0  0  0  0  0
  -28.3879  -32.6876   25.0336 H   0  0  0  0  0  0
  -28.0700  -31.8474   26.5437 H   0  0  0  0  0  0
  -28.2579  -38.0106   24.7534 H   0  0  0  0  0  0
  -28.1098  -36.2636   24.6258 H   0  0  0  0  0  0
  -27.2300  -37.1400   25.8864 H   0  0  0  0  0  0
  -20.9418  -29.8763   21.6831 H   0  0  0  0  0  0
  -26.0160  -38.2829   24.1435 H   0  0  0  0  0  0
  -29.5040  -17.1664   22.5642 H   0  0  0  0  0  0
  -31.1127  -17.3081   21.8805 H   0  0  0  0  0  0
  -30.4673  -16.9936   18.6133 H   0  0  0  0  0  0
  -28.7215  -16.7998   18.6343 H   0  0  0  0  0  0
  -28.6754  -15.9155   20.7899 H   0  0  0  0  0  0
  -28.4667  -24.9545   21.7847 H   0  0  0  0  0  0
  -26.9903  -24.7510   20.9126 H   0  0  0  0  0  0
  -28.6335  -22.5340   21.8200 H   0  0  0  0  0  0
  1 25  1  0  0  0
  1 30  2  0  0  0
  1 77  1  0  0  0
  2  3  1  0  0  0
  2 25  1  0  0  0
  2 83  1  0  0  0
  2 84  1  0  0  0
  3  4  1  0  0  0
  3 85  1  0  0  0
  3 86  1  0  0  0
  4  5  1  0  0  0
  4 87  1  0  0  0
  4 88  1  0  0  0
  5  6  1  0  0  0
  5 26  1  0  0  0
  5 89  1  0  0  0
  6 25  1  0  0  0
  6 90  1  0  0  0
  6 91  1  0  0  0
  7  8  2  0  0  0
  7 26  1  0  0  0
  7 29  1  0  0  0
  8  9  1  0  0  0
  8 22  1  0  0  0
  9 10  1  0  0  0
  9 27  2  0  0  0
 10 11  2  0  0  0
 10 15  1  0  0  0
 11 12  1  0  0  0
 11 92  1  0  0  0
 12 13  2  0  0  0
 12 93  1  0  0  0
 13 14  1  0  0  0
 13 31  1  0  0  0
 14 15  2  0  0  0
 14 94  1  0  0  0
 15 95  1  0  0  0
 16 17  2  0  0  0
 16 21  1  0  0  0
 16 31  1  0  0  0
 17 18  1  0  0  0
 17 96  1  0  0  0
 18 19  2  0  0  0
 18 97  1  0  0  0
 19 20  1  0  0  0
 19 24  1  0  0  0
 20 21  2  0  0  0
 20 98  1  0  0  0
 21 23  1  0  0  0
 22 28  1  0  0  0
 22 32  2  0  0  0
 26 27  1  0  0  0
 28 99  1  0  0  0
 28100  1  0  0  0
 29101  1  0  0  0
 29102  1  0  0  0
 33 34  1  0  0  0
 33 66  1  0  0  0
 33 70  2  0  0  0
 34 36  1  0  0  0
 34 59  1  0  0  0
 34103  1  0  0  0
 35 44  2  0  0  0
 35 45  1  0  0  0
 35 68  1  0  0  0
 36 56  1  0  0  0
 36104  1  0  0  0
 37 39  1  0  0  0
 37 47  1  0  0  0
 37 66  1  0  0  0
 37105  1  0  0  0
 38 43  2  0  0  0
 38 46  1  0  0  0
 38 47  1  0  0  0
 39 64  1  0  0  0
 39 67  2  0  0  0
 40 52  1  0  0  0
 40 53  2  0  0  0
 40 58  1  0  0  0
 41106  1  0  0  0
 41107  1  0  0  0
 41108  1  0  0  0
 41 48  1  0  0  0
 42 43  1  0  0  0
 42 66  1  0  0  0
 42109  1  0  0  0
 42110  1  0  0  0
 43 44  1  0  0  0
 44111  1  0  0  0
 45 46  2  0  0  0
 45112  1  0  0  0
 46113  1  0  0  0
 47114  1  0  0  0
 47115  1  0  0  0
 48 56  1  0  0  0
 48 65  1  0  0  0
 48116  1  0  0  0
 49 50  1  0  0  0
 49 53  1  0  0  0
 49 64  1  0  0  0
 49117  1  0  0  0
 50 51  1  0  0  0
 50118  1  0  0  0
 50119  1  0  0  0
 51 52  1  0  0  0
 51120  1  0  0  0
 51121  1  0  0  0
 52122  1  0  0  0
 52123  1  0  0  0
 53 54  1  0  0  0
 54 55  2  0  0  0
 54124  1  0  0  0
 55 57  1  0  0  0
 55125  1  0  0  0
 56 69  2  0  0  0
 57 58  2  0  0  0
 57126  1  0  0  0
 58127  1  0  0  0
 59 60  1  0  0  0
 59 61  1  0  0  0
 59 62  1  0  0  0
 60128  1  0  0  0
 60129  1  0  0  0
 60130  1  0  0  0
 61131  1  0  0  0
 61132  1  0  0  0
 61133  1  0  0  0
 62134  1  0  0  0
 62135  1  0  0  0
 62136  1  0  0  0
 63 65  1  0  0  0
 63137  1  0  0  0
 63138  1  0  0  0
 63139  1  0  0  0
 64140  1  0  0  0
 65141  1  0  0  0
 68 78  1  0  0  0
 71 72  2  0  0  0
 71 75  1  0  0  0
 71 79  1  0  0  0
 72 76  1  0  0  0
 72 82  1  0  0  0
 73 79  2  0  0  0
 73 80  1  0  0  0
 73 82  1  0  0  0
 74 78  1  0  0  0
 74 80  1  0  0  0
 74 81  2  0  0  0
 75 77  1  0  0  0
 75142  1  0  0  0
 75143  1  0  0  0
 76 77  1  0  0  0
 76144  1  0  0  0
 76145  1  0  0  0
 77146  1  0  0  0
 78147  1  0  0  0
 78148  1  0  0  0
 80149  1  0  0  0
M  ISO  4   1 100  68 101  77 100  78 101
M  END
> <chiral flag>
0

> <version>
0

> <s_m_source_file>
/data/baiqing/PycharmProjects/Reinvent-master-3.2/result/LINK_invent/BTK/process_docking_weight1_custom_product_contain_oxygen_bond_distance_aromatic_linkinvent_7_9_3/rearranged_h_0155.sdf

> <i_m_source_file_index>
73

> <r_mmod_Potential_Energy-OPLS-2005>
213.018844604492

> <r_mmod_Stretch_Energy-OPLS-2005>
148.5546875

> <r_mmod_Bend_Energy-OPLS-2005>
262.331481933594

> <r_mmod_Torsional_Energy-OPLS-2005>
212.297912597656

> <r_mmod_Improper_Torsional_Energy-OPLS-2005>
5.36278486251831

> <r_mmod_Van_der_Waal_Energy-OPLS-2005>
103.595611572266

> <r_mmod_Electrostatic_Energy-OPLS-2005>
-397.673706054688

> <r_mmod_Solvation_Energy-OPLS-2005>
-237.134475708008

> <b_mmod_Minimization_Converged-OPLS-2005>
0

> <r_mmod_RMS_Derivative-OPLS-2005>
0.543900489807129

$$$$
73
                    3D
 Structure written by MMmdl.
164173  0  0  1  0            999 V2000
  -30.5906  -14.7819   20.4586 C   0  0  0  0  0  0
  -30.4346  -12.4792   19.4822 C   0  0  0  0  0  0
  -29.5114  -12.5138   18.2432 C   0  0  0  0  0  0
  -28.0372  -12.3342   18.6536 C   0  0  0  0  0  0
  -27.6404  -13.2342   19.8533 C   0  0  2  0  0  0
  -28.6835  -13.1750   20.9911 C   0  0  0  0  0  0
  -25.2504  -13.8206   20.5708 C   0  0  0  0  0  0
  -24.1789  -13.0448   20.9202 C   0  0  0  0  0  0
  -24.6386  -11.6920   20.8752 C   0  0  0  0  0  0
  -23.9066  -10.4296   21.0408 C   0  0  0  0  0  0
  -24.3620   -9.4208   21.9188 C   0  0  0  0  0  0
  -23.6295   -8.2249   22.0759 C   0  0  0  0  0  0
  -22.4281   -8.0287   21.3545 C   0  0  0  0  0  0
  -21.9915   -9.0256   20.4645 C   0  0  0  0  0  0
  -22.7244  -10.2134   20.3055 C   0  0  0  0  0  0
  -21.6853   -6.0738   22.5280 C   0  0  0  0  0  0
  -21.4016   -6.5643   23.8210 C   0  0  0  0  0  0
  -21.3657   -5.6792   24.9171 C   0  0  0  0  0  0
  -21.6043   -4.3059   24.7227 C   0  0  0  0  0  0
  -21.8817   -3.8151   23.4345 C   0  0  0  0  0  0
  -21.9191   -4.6962   22.3404 C   0  0  0  0  0  0
  -22.7813  -13.5229   21.1873 C   0  0  0  0  0  0
  -22.1661   -4.2155   21.0982 F   0  0  0  0  0  0
  -21.5627   -3.4546   25.7736 F   0  0  0  0  0  0
  -29.9817  -13.5434   20.4123 N   0  0  0  0  0  0
  -26.2927  -12.9407   20.3292 N   0  0  0  0  0  0
  -25.9317  -11.6543   20.5758 N   0  0  0  0  0  0
  -22.0457  -12.8199   22.0419 N   0  0  0  0  0  0
  -25.4209  -15.1935   20.4146 N   0  0  0  0  0  0
  -31.7768  -14.8776   20.1277 O   0  0  0  0  0  0
  -21.6647   -6.8885   21.4243 O   0  0  0  0  0  0
  -22.3494  -14.5536   20.6729 O   0  0  0  0  0  0
  -24.6307  -31.8528   23.1936 C   0  0  0  0  0  0
  -25.9119  -32.4737   23.8311 C   0  0  1  0  0  0
  -27.2335  -27.2586   20.1323 C   0  0  0  0  0  0
  -25.5906  -33.8544   24.2225 N   0  0  0  0  0  0
  -23.4275  -30.4720   21.5364 C   0  0  2  0  0  0
  -24.8782  -28.9151   20.1081 C   0  0  0  0  0  0
  -22.7511  -29.4568   22.4893 C   0  0  0  0  0  0
  -18.0292  -28.1394   22.8468 C   0  0  0  0  0  0
  -24.1485  -36.7264   23.2638 C   0  0  0  0  0  0
  -25.9735  -30.7659   21.3746 C   0  0  0  0  0  0
  -26.0463  -29.3872   20.7172 C   0  0  0  0  0  0
  -27.2216  -28.5701   20.7180 C   0  0  0  0  0  0
  -26.0368  -26.8484   19.5017 C   0  0  0  0  0  0
  -24.8796  -27.6545   19.4900 C   0  0  0  0  0  0
  -23.6462  -29.8001   20.1539 C   0  0  0  0  0  0
  -25.4115  -36.3050   24.0324 C   0  0  1  0  0  0
  -20.5899  -28.3691   23.1283 C   0  0  2  0  0  0
  -20.6775  -26.9409   22.5416 C   0  0  0  0  0  0
  -19.5749  -26.6380   21.5211 C   0  0  0  0  0  0
  -18.1923  -26.7931   22.1620 C   0  0  0  0  0  0
  -19.1550  -28.8857   23.2857 C   0  0  0  0  0  0
  -18.9484  -30.1460   23.8878 C   0  0  0  0  0  0
  -17.6483  -30.6587   24.0565 C   0  0  0  0  0  0
  -25.9067  -34.9427   23.5092 C   0  0  0  0  0  0
  -16.5367  -29.9088   23.6351 C   0  0  0  0  0  0
  -16.7279  -28.6513   23.0347 C   0  0  0  0  0  0
  -26.4503  -31.6573   25.0704 C   0  0  0  0  0  0
  -25.3718  -31.3743   26.1428 C   0  0  0  0  0  0
  -27.0350  -30.2986   24.6187 C   0  0  0  0  0  0
  -27.6062  -32.4317   25.7464 C   0  0  0  0  0  0
  -27.5593  -37.1764   24.8458 C   0  0  0  0  0  0
  -21.4216  -29.3023   22.3658 N   0  0  0  0  0  0
  -26.4280  -37.3766   23.9445 N   0  0  0  0  0  0
  -24.6953  -31.0488   22.0914 N   0  0  0  0  0  0
  -23.4210  -28.8113   23.2992 O   0  0  0  0  0  0
  -28.3607  -26.4070   20.2325 O   0  0  0  0  0  0
  -26.5650  -34.8908   22.4665 O   0  0  0  0  0  0
  -23.5452  -32.1369   23.7232 O   0  0  0  0  0  0
  -31.2038  -17.9403   19.9018 C   0  0  0  0  0  0
  -29.2553  -18.4768   20.8327 C   0  0  0  0  0  0
  -30.0533  -17.3721   20.5053 C   0  0  0  0  0  0
  -31.1083  -19.3206   19.9048 C   0  0  0  0  0  0
  -32.5277  -20.0417   17.9448 C   0  0  0  0  0  0
  -27.5615  -22.8964   21.1055 C   0  0  0  0  0  0
  -27.8723  -21.3570   21.0525 C   0  0  0  0  0  0
  -29.6072  -22.4719   19.9264 C   0  0  0  0  0  0
  -28.7724  -23.6837   20.5448 C   0  0  1  0  0  0
  -29.3877  -21.1644   20.8262 C   0  0  2  0  0  0
  -28.4650  -25.0186   19.6609 C   0  0  0  0  0  0
  -32.1923  -20.2551   19.4189 C   0  0  2  0  0  0
  -33.5335  -20.5331   17.3456 N   0  0  0  0  0  0
  -29.8697  -19.7230   20.4651 N   0  0  0  0  0  0
  -29.8051  -15.9109   20.7106 N   0  0  0  0  0  0
  -33.4004  -20.1039   20.2433 N   0  3  0  0  0  0
  -31.4738  -12.6121   19.1778 H   0  0  0  0  0  0
  -30.3901  -11.5053   19.9712 H   0  0  0  0  0  0
  -29.7985  -11.7347   17.5362 H   0  0  0  0  0  0
  -29.6317  -13.4630   17.7194 H   0  0  0  0  0  0
  -27.8943  -11.2849   18.9150 H   0  0  0  0  0  0
  -27.3808  -12.5261   17.8043 H   0  0  0  0  0  0
  -27.6314  -14.2560   19.4715 H   0  0  0  0  0  0
  -28.7272  -12.1753   21.4262 H   0  0  0  0  0  0
  -28.4104  -13.8510   21.8034 H   0  0  0  0  0  0
  -25.2757   -9.5692   22.4763 H   0  0  0  0  0  0
  -24.0003   -7.4641   22.7476 H   0  0  0  0  0  0
  -21.0853   -8.8767   19.8945 H   0  0  0  0  0  0
  -22.3702  -10.9671   19.6167 H   0  0  0  0  0  0
  -21.2010   -7.6146   23.9715 H   0  0  0  0  0  0
  -21.1482   -6.0526   25.9072 H   0  0  0  0  0  0
  -22.0596   -2.7611   23.2844 H   0  0  0  0  0  0
  -22.4074  -11.9851   22.4777 H   0  0  0  0  0  0
  -21.1077  -13.1215   22.2638 H   0  0  0  0  0  0
  -24.6550  -15.8482   20.5289 H   0  0  0  0  0  0
  -26.2689  -15.6323   20.0794 H   0  0  0  0  0  0
  -26.7174  -32.5387   23.1043 H   0  0  0  0  0  0
  -25.0044  -33.9685   25.0364 H   0  0  0  0  0  0
  -22.7235  -31.2923   21.3850 H   0  0  0  0  0  0
  -23.3758  -35.9577   23.3266 H   0  0  0  0  0  0
  -24.3578  -36.8945   22.2058 H   0  0  0  0  0  0
  -23.7231  -37.6449   23.6690 H   0  0  0  0  0  0
  -26.1118  -31.5253   20.6034 H   0  0  0  0  0  0
  -26.8503  -30.8153   22.0087 H   0  0  0  0  0  0
  -28.1147  -28.9272   21.2115 H   0  0  0  0  0  0
  -25.9455  -25.8802   19.0369 H   0  0  0  0  0  0
  -23.9829  -27.2831   19.0129 H   0  0  0  0  0  0
  -23.7643  -30.5738   19.3944 H   0  0  0  0  0  0
  -22.7656  -29.2304   19.8509 H   0  0  0  0  0  0
  -25.1281  -36.1878   25.0815 H   0  0  0  0  0  0
  -20.9999  -28.3284   24.1400 H   0  0  0  0  0  0
  -20.5689  -26.2296   23.3620 H   0  0  0  0  0  0
  -21.6640  -26.7433   22.1194 H   0  0  0  0  0  0
  -19.6925  -25.6291   21.1236 H   0  0  0  0  0  0
  -19.6701  -27.3202   20.6742 H   0  0  0  0  0  0
  -17.4198  -26.6687   21.4009 H   0  0  0  0  0  0
  -18.0308  -26.0074   22.9022 H   0  0  0  0  0  0
  -19.7962  -30.7271   24.2231 H   0  0  0  0  0  0
  -17.5034  -31.6262   24.5166 H   0  0  0  0  0  0
  -15.5365  -30.2979   23.7678 H   0  0  0  0  0  0
  -15.8682  -28.0827   22.7067 H   0  0  0  0  0  0
  -24.5907  -30.7074   25.7779 H   0  0  0  0  0  0
  -24.8874  -32.2895   26.4824 H   0  0  0  0  0  0
  -25.8023  -30.8966   27.0234 H   0  0  0  0  0  0
  -26.2926  -29.6723   24.1223 H   0  0  0  0  0  0
  -27.4059  -29.7270   25.4708 H   0  0  0  0  0  0
  -27.8790  -30.4267   23.9411 H   0  0  0  0  0  0
  -27.2702  -33.3664   26.1958 H   0  0  0  0  0  0
  -28.3901  -32.6808   25.0300 H   0  0  0  0  0  0
  -28.0660  -31.8477   26.5439 H   0  0  0  0  0  0
  -28.2542  -38.0125   24.7577 H   0  0  0  0  0  0
  -28.1148  -36.2656   24.6163 H   0  0  0  0  0  0
  -27.2306  -37.1280   25.8855 H   0  0  0  0  0  0
  -20.9397  -29.8752   21.6878 H   0  0  0  0  0  0
  -26.0150  -38.2826   24.1498 H   0  0  0  0  0  0
  -32.0553  -17.3934   19.5193 H   0  0  0  0  0  0
  -28.2949  -18.5020   21.3292 H   0  0  0  0  0  0
  -31.8151  -19.4066   17.4106 H   0  0  0  0  0  0
  -27.3751  -23.2103   22.1336 H   0  0  0  0  0  0
  -26.6523  -23.1215   20.5472 H   0  0  0  0  0  0
  -27.3286  -20.9173   20.2147 H   0  0  0  0  0  0
  -27.5253  -20.8509   21.9540 H   0  0  0  0  0  0
  -30.6390  -22.8069   19.8778 H   0  0  0  0  0  0
  -29.2766  -22.2761   18.9053 H   0  0  0  0  0  0
  -29.3537  -24.0241   21.4028 H   0  0  0  0  0  0
  -29.8704  -21.3852   21.7797 H   0  0  0  0  0  0
  -27.6817  -24.7963   18.9423 H   0  0  0  0  0  0
  -29.3432  -25.1226   19.0217 H   0  0  0  0  0  0
  -31.8955  -21.2836   19.5250 H   0  0  0  0  0  0
  -34.1146  -21.1238   17.9284 H   0  0  0  0  0  0
  -28.8699  -15.6817   21.0103 H   0  0  0  0  0  0
  -33.8617  -19.2426   20.0193 H   0  0  0  0  0  0
  -33.1481  -20.1024   21.2138 H   0  0  0  0  0  0
  -34.0348  -20.8634   20.0783 H   0  0  0  0  0  0
  1 25  1  0  0  0
  1 30  2  0  0  0
  1 85  1  0  0  0
  2  3  1  0  0  0
  2 25  1  0  0  0
  2 87  1  0  0  0
  2 88  1  0  0  0
  3  4  1  0  0  0
  3 89  1  0  0  0
  3 90  1  0  0  0
  4  5  1  0  0  0
  4 91  1  0  0  0
  4 92  1  0  0  0
  5  6  1  0  0  0
  5 26  1  0  0  0
  5 93  1  0  0  0
  6 25  1  0  0  0
  6 94  1  0  0  0
  6 95  1  0  0  0
  7  8  2  0  0  0
  7 26  1  0  0  0
  7 29  1  0  0  0
  8  9  1  0  0  0
  8 22  1  0  0  0
  9 10  1  0  0  0
  9 27  2  0  0  0
 10 11  2  0  0  0
 10 15  1  0  0  0
 11 12  1  0  0  0
 11 96  1  0  0  0
 12 13  2  0  0  0
 12 97  1  0  0  0
 13 14  1  0  0  0
 13 31  1  0  0  0
 14 15  2  0  0  0
 14 98  1  0  0  0
 15 99  1  0  0  0
 16 17  2  0  0  0
 16 21  1  0  0  0
 16 31  1  0  0  0
 17 18  1  0  0  0
 17100  1  0  0  0
 18 19  2  0  0  0
 18101  1  0  0  0
 19 20  1  0  0  0
 19 24  1  0  0  0
 20 21  2  0  0  0
 20102  1  0  0  0
 21 23  1  0  0  0
 22 28  1  0  0  0
 22 32  2  0  0  0
 26 27  1  0  0  0
 28103  1  0  0  0
 28104  1  0  0  0
 29105  1  0  0  0
 29106  1  0  0  0
 33 34  1  0  0  0
 33 66  1  0  0  0
 33 70  2  0  0  0
 34 36  1  0  0  0
 34 59  1  0  0  0
 34107  1  0  0  0
 35 44  2  0  0  0
 35 45  1  0  0  0
 35 68  1  0  0  0
 36 56  1  0  0  0
 36108  1  0  0  0
 37 39  1  0  0  0
 37 47  1  0  0  0
 37 66  1  0  0  0
 37109  1  0  0  0
 38 43  2  0  0  0
 38 46  1  0  0  0
 38 47  1  0  0  0
 39 64  1  0  0  0
 39 67  2  0  0  0
 40 52  1  0  0  0
 40 53  2  0  0  0
 40 58  1  0  0  0
 41110  1  0  0  0
 41111  1  0  0  0
 41112  1  0  0  0
 41 48  1  0  0  0
 42 43  1  0  0  0
 42 66  1  0  0  0
 42113  1  0  0  0
 42114  1  0  0  0
 43 44  1  0  0  0
 44115  1  0  0  0
 45 46  2  0  0  0
 45116  1  0  0  0
 46117  1  0  0  0
 47118  1  0  0  0
 47119  1  0  0  0
 48 56  1  0  0  0
 48 65  1  0  0  0
 48120  1  0  0  0
 49 50  1  0  0  0
 49 53  1  0  0  0
 49 64  1  0  0  0
 49121  1  0  0  0
 50 51  1  0  0  0
 50122  1  0  0  0
 50123  1  0  0  0
 51 52  1  0  0  0
 51124  1  0  0  0
 51125  1  0  0  0
 52126  1  0  0  0
 52127  1  0  0  0
 53 54  1  0  0  0
 54 55  2  0  0  0
 54128  1  0  0  0
 55 57  1  0  0  0
 55129  1  0  0  0
 56 69  2  0  0  0
 57 58  2  0  0  0
 57130  1  0  0  0
 58131  1  0  0  0
 59 60  1  0  0  0
 59 61  1  0  0  0
 59 62  1  0  0  0
 60132  1  0  0  0
 60133  1  0  0  0
 60134  1  0  0  0
 61135  1  0  0  0
 61136  1  0  0  0
 61137  1  0  0  0
 62138  1  0  0  0
 62139  1  0  0  0
 62140  1  0  0  0
 63 65  1  0  0  0
 63141  1  0  0  0
 63142  1  0  0  0
 63143  1  0  0  0
 64144  1  0  0  0
 65145  1  0  0  0
 68 81  1  0  0  0
 71 73  1  0  0  0
 71 74  2  0  0  0
 71146  1  0  0  0
 72 73  2  0  0  0
 72 84  1  0  0  0
 72147  1  0  0  0
 73 85  1  0  0  0
 74 82  1  0  0  0
 74 84  1  0  0  0
 75 82  1  0  0  0
 75 83  2  0  0  0
 75148  1  0  0  0
 76 77  1  0  0  0
 76 79  1  0  0  0
 76149  1  0  0  0
 76150  1  0  0  0
 77 80  1  0  0  0
 77151  1  0  0  0
 77152  1  0  0  0
 78 79  1  0  0  0
 78 80  1  0  0  0
 78153  1  0  0  0
 78154  1  0  0  0
 79 81  1  0  0  0
 79155  1  0  0  0
 80 84  1  0  0  0
 80156  1  0  0  0
 81157  1  0  0  0
 81158  1  0  0  0
 82 86  1  0  0  0
 82159  1  0  0  0
 83160  1  0  0  0
 85161  1  0  0  0
 86162  1  0  0  0
 86163  1  0  0  0
 86164  1  0  0  0
M  CHG  1  86   1
M  ISO  4   1 100  68 101  81 101  85 100
M  END
> <chiral flag>
0

> <version>
0

> <s_m_source_file>
/data/baiqing/PycharmProjects/Reinvent-master-3.2/result/LINK_invent/BTK/process_docking_weight1_custom_product_contain_oxygen_bond_distance_aromatic_linkinvent_7_9_3/rearranged_h_0155.sdf

> <i_m_source_file_index>
74

> <r_mmod_Potential_Energy-OPLS-2005>
-25.0619583129883

> <r_mmod_Stretch_Energy-OPLS-2005>
135.09992980957

> <r_mmod_Bend_Energy-OPLS-2005>
245.795547485352

> <r_mmod_Torsional_Energy-OPLS-2005>
280.455047607422

> <r_mmod_Improper_Torsional_Energy-OPLS-2005>
5.21615076065063

> <r_mmod_Van_der_Waal_Energy-OPLS-2005>
118.150238037109

> <r_mmod_Electrostatic_Energy-OPLS-2005>
-382.689971923828

> <r_mmod_Solvation_Energy-OPLS-2005>
-519.918090820312

> <b_mmod_Minimization_Converged-OPLS-2005>
0

> <r_mmod_RMS_Derivative-OPLS-2005>
2.48976397514343

$$$$
74
                    3D
 Structure written by MMmdl.
163172  0  0  1  0            999 V2000
  -30.7038  -14.4987   20.5703 C   0  0  0  0  0  0
  -30.4228  -12.3294   19.4179 C   0  0  0  0  0  0
  -29.4892  -12.5200   18.2042 C   0  0  0  0  0  0
  -28.0123  -12.3734   18.6210 C   0  0  0  0  0  0
  -27.6603  -13.2139   19.8782 C   0  0  2  0  0  0
  -28.7080  -13.0074   20.9957 C   0  0  0  0  0  0
  -25.2560  -13.8182   20.5710 C   0  0  0  0  0  0
  -24.1826  -13.0451   20.9199 C   0  0  0  0  0  0
  -24.6393  -11.6918   20.8768 C   0  0  0  0  0  0
  -23.9073  -10.4301   21.0434 C   0  0  0  0  0  0
  -24.3626   -9.4207   21.9208 C   0  0  0  0  0  0
  -23.6291   -8.2248   22.0780 C   0  0  0  0  0  0
  -22.4272   -8.0290   21.3568 C   0  0  0  0  0  0
  -21.9929   -9.0262   20.4664 C   0  0  0  0  0  0
  -22.7255  -10.2138   20.3065 C   0  0  0  0  0  0
  -21.6841   -6.0742   22.5288 C   0  0  0  0  0  0
  -21.4012   -6.5644   23.8221 C   0  0  0  0  0  0
  -21.3660   -5.6792   24.9184 C   0  0  0  0  0  0
  -21.6040   -4.3058   24.7226 C   0  0  0  0  0  0
  -21.8816   -3.8148   23.4351 C   0  0  0  0  0  0
  -21.9195   -4.6974   22.3412 C   0  0  0  0  0  0
  -22.7841  -13.5244   21.1841 C   0  0  0  0  0  0
  -22.1664   -4.2158   21.0993 F   0  0  0  0  0  0
  -21.5629   -3.4545   25.7740 F   0  0  0  0  0  0
  -30.0344  -13.3194   20.4363 N   0  0  0  0  0  0
  -26.3026  -12.9369   20.3439 N   0  0  0  0  0  0
  -25.9330  -11.6518   20.5831 N   0  0  0  0  0  0
  -22.0453  -12.8259   22.0384 N   0  0  0  0  0  0
  -25.4205  -15.1908   20.4050 N   0  0  0  0  0  0
  -31.8364  -14.6763   20.1106 O   0  0  0  0  0  0
  -21.6633   -6.8895   21.4254 O   0  0  0  0  0  0
  -22.3533  -14.5537   20.6646 O   0  0  0  0  0  0
  -24.6187  -31.8650   23.2106 C   0  0  0  0  0  0
  -25.9071  -32.4804   23.8396 C   0  0  1  0  0  0
  -27.2420  -27.3980   20.0750 C   0  0  0  0  0  0
  -25.5917  -33.8604   24.2320 N   0  0  0  0  0  0
  -23.4085  -30.4893   21.5535 C   0  0  2  0  0  0
  -24.8542  -28.9553   20.1154 C   0  0  0  0  0  0
  -22.7428  -29.4636   22.4996 C   0  0  0  0  0  0
  -18.0266  -28.1383   22.8497 C   0  0  0  0  0  0
  -24.1490  -36.7310   23.2638 C   0  0  0  0  0  0
  -25.9439  -30.8121   21.3757 C   0  0  0  0  0  0
  -26.0177  -29.4450   20.7201 C   0  0  0  0  0  0
  -27.2060  -28.6698   20.7079 C   0  0  0  0  0  0
  -26.0498  -26.9436   19.4561 C   0  0  0  0  0  0
  -24.8664  -27.7027   19.4856 C   0  0  0  0  0  0
  -23.6182  -29.8256   20.1677 C   0  0  0  0  0  0
  -25.4111  -36.3099   24.0332 C   0  0  1  0  0  0
  -20.5857  -28.3673   23.1317 C   0  0  2  0  0  0
  -20.6762  -26.9406   22.5417 C   0  0  0  0  0  0
  -19.5734  -26.6385   21.5223 C   0  0  0  0  0  0
  -18.1911  -26.7935   22.1620 C   0  0  0  0  0  0
  -19.1515  -28.8847   23.2899 C   0  0  0  0  0  0
  -18.9442  -30.1460   23.8898 C   0  0  0  0  0  0
  -17.6443  -30.6593   24.0560 C   0  0  0  0  0  0
  -25.9046  -34.9463   23.5123 C   0  0  0  0  0  0
  -16.5333  -29.9088   23.6336 C   0  0  0  0  0  0
  -16.7252  -28.6505   23.0358 C   0  0  0  0  0  0
  -26.4478  -31.6590   25.0739 C   0  0  0  0  0  0
  -25.3737  -31.3706   26.1484 C   0  0  0  0  0  0
  -27.0308  -30.3021   24.6157 C   0  0  0  0  0  0
  -27.6053  -32.4304   25.7503 C   0  0  0  0  0  0
  -27.5588  -37.1801   24.8452 C   0  0  0  0  0  0
  -21.4150  -29.3039   22.3736 N   0  0  0  0  0  0
  -26.4289  -37.3795   23.9415 N   0  0  0  0  0  0
  -24.6757  -31.0702   22.1042 N   0  0  0  0  0  0
  -23.4181  -28.8164   23.3039 O   0  0  0  0  0  0
  -28.4142  -26.6426   20.1002 O   0  0  0  0  0  0
  -26.5606  -34.8917   22.4684 O   0  0  0  0  0  0
  -23.5367  -32.1423   23.7470 O   0  0  0  0  0  0
  -31.5922  -18.4416   22.8063 C   0  0  0  0  0  0
  -31.5023  -19.4448   21.8205 C   0  0  0  0  0  0
  -31.0864  -17.1510   22.5604 C   0  0  0  0  0  0
  -30.3373  -17.8832   20.3563 C   0  0  0  0  0  0
  -30.8625  -19.1910   20.5871 C   0  0  0  0  0  0
  -30.4810  -16.8497   21.3229 C   0  0  0  0  0  0
  -30.8884  -20.2123   19.5052 C   0  0  0  0  0  0
  -30.0227  -23.6273   18.3401 C   0  0  0  0  0  0
  -29.2995  -23.4076   20.7109 C   0  0  0  0  0  0
  -31.0895  -22.5419   18.5779 C   0  0  0  0  0  0
  -30.3239  -22.2522   20.9118 C   0  0  0  0  0  0
  -29.6633  -24.4355   19.6058 C   0  0  0  0  0  0
  -28.5036  -25.4427   19.2896 C   0  0  0  0  0  0
  -30.6914  -21.5690   19.6388 N   0  0  0  0  0  0
  -29.9966  -15.5230   21.0926 N   0  0  0  0  0  0
  -31.1727  -19.7420   18.2916 N   0  3  0  0  0  0
  -30.7454  -25.1286   19.9691 F   0  0  0  0  0  0
  -31.4649  -12.4351   19.1096 H   0  0  0  0  0  0
  -30.3310  -11.3192   19.8201 H   0  0  0  0  0  0
  -29.7309  -11.7996   17.4216 H   0  0  0  0  0  0
  -29.6475  -13.5073   17.7673 H   0  0  0  0  0  0
  -27.8251  -11.3162   18.8155 H   0  0  0  0  0  0
  -27.3586  -12.6498   17.7928 H   0  0  0  0  0  0
  -27.6997  -14.2608   19.5763 H   0  0  0  0  0  0
  -28.6935  -11.9731   21.3421 H   0  0  0  0  0  0
  -28.4737  -13.6116   21.8741 H   0  0  0  0  0  0
  -25.2783   -9.5676   22.4782 H   0  0  0  0  0  0
  -23.9991   -7.4638   22.7506 H   0  0  0  0  0  0
  -21.0875   -8.8788   19.8960 H   0  0  0  0  0  0
  -22.3735  -10.9684   19.6166 H   0  0  0  0  0  0
  -21.1989   -7.6144   23.9734 H   0  0  0  0  0  0
  -21.1489   -6.0526   25.9095 H   0  0  0  0  0  0
  -22.0590   -2.7611   23.2853 H   0  0  0  0  0  0
  -22.4027  -11.9909   22.4785 H   0  0  0  0  0  0
  -21.1068  -13.1319   22.2551 H   0  0  0  0  0  0
  -24.6388  -15.8338   20.4742 H   0  0  0  0  0  0
  -26.2592  -15.6303   20.0469 H   0  0  0  0  0  0
  -26.7142  -32.5499   23.1152 H   0  0  0  0  0  0
  -25.0071  -33.9766   25.0469 H   0  0  0  0  0  0
  -22.6990  -31.3084   21.4156 H   0  0  0  0  0  0
  -23.3755  -35.9635   23.3267 H   0  0  0  0  0  0
  -24.3592  -36.8962   22.2056 H   0  0  0  0  0  0
  -23.7231  -37.6500   23.6675 H   0  0  0  0  0  0
  -26.0668  -31.5767   20.6070 H   0  0  0  0  0  0
  -26.8284  -30.8609   21.9986 H   0  0  0  0  0  0
  -28.0996  -29.0434   21.1888 H   0  0  0  0  0  0
  -25.9824  -26.0023   18.9364 H   0  0  0  0  0  0
  -23.9737  -27.3192   19.0094 H   0  0  0  0  0  0
  -23.7280  -30.6028   19.4105 H   0  0  0  0  0  0
  -22.7406  -29.2480   19.8707 H   0  0  0  0  0  0
  -25.1283  -36.1956   25.0826 H   0  0  0  0  0  0
  -20.9938  -28.3233   24.1442 H   0  0  0  0  0  0
  -20.5679  -26.2272   23.3605 H   0  0  0  0  0  0
  -21.6628  -26.7458   22.1200 H   0  0  0  0  0  0
  -19.6895  -25.6298   21.1247 H   0  0  0  0  0  0
  -19.6681  -27.3200   20.6756 H   0  0  0  0  0  0
  -17.4187  -26.6699   21.4010 H   0  0  0  0  0  0
  -18.0285  -26.0068   22.9004 H   0  0  0  0  0  0
  -19.7918  -30.7286   24.2252 H   0  0  0  0  0  0
  -17.4997  -31.6279   24.5152 H   0  0  0  0  0  0
  -15.5335  -30.2990   23.7672 H   0  0  0  0  0  0
  -15.8648  -28.0835   22.7070 H   0  0  0  0  0  0
  -24.5888  -30.7086   25.7809 H   0  0  0  0  0  0
  -24.8963  -32.2872   26.4964 H   0  0  0  0  0  0
  -25.8083  -30.8833   27.0225 H   0  0  0  0  0  0
  -26.2866  -29.6781   24.1197 H   0  0  0  0  0  0
  -27.4032  -29.7258   25.4638 H   0  0  0  0  0  0
  -27.8723  -30.4307   23.9346 H   0  0  0  0  0  0
  -27.2689  -33.3617   26.2068 H   0  0  0  0  0  0
  -28.3877  -32.6837   25.0337 H   0  0  0  0  0  0
  -28.0701  -31.8428   26.5431 H   0  0  0  0  0  0
  -28.2562  -38.0140   24.7563 H   0  0  0  0  0  0
  -28.1127  -36.2677   24.6196 H   0  0  0  0  0  0
  -27.2312  -37.1347   25.8852 H   0  0  0  0  0  0
  -20.9308  -29.8795   21.6985 H   0  0  0  0  0  0
  -26.0168  -38.2859   24.1452 H   0  0  0  0  0  0
  -32.0789  -18.6549   23.7477 H   0  0  0  0  0  0
  -31.9632  -20.4024   22.0123 H   0  0  0  0  0  0
  -31.1835  -16.3899   23.3206 H   0  0  0  0  0  0
  -29.8620  -17.6515   19.4123 H   0  0  0  0  0  0
  -29.1285  -23.1567   17.9290 H   0  0  0  0  0  0
  -30.3855  -24.3064   17.5677 H   0  0  0  0  0  0
  -29.1742  -23.9405   21.6534 H   0  0  0  0  0  0
  -28.3295  -22.9605   20.4917 H   0  0  0  0  0  0
  -32.0284  -23.0107   18.8799 H   0  0  0  0  0  0
  -31.3030  -22.0673   17.6201 H   0  0  0  0  0  0
  -29.8988  -21.5455   21.6253 H   0  0  0  0  0  0
  -31.2327  -22.6466   21.3697 H   0  0  0  0  0  0
  -27.5943  -24.8488   19.3391 H   0  0  0  0  0  0
  -28.5915  -25.7828   18.2557 H   0  0  0  0  0  0
  -29.0643  -15.3103   21.4125 H   0  0  0  0  0  0
  -31.3895  -18.7626   18.1881 H   0  0  0  0  0  0
  -31.1463  -20.3206   17.4705 H   0  0  0  0  0  0
  1 25  1  0  0  0
  1 30  2  0  0  0
  1 85  1  0  0  0
  2  3  1  0  0  0
  2 25  1  0  0  0
  2 88  1  0  0  0
  2 89  1  0  0  0
  3  4  1  0  0  0
  3 90  1  0  0  0
  3 91  1  0  0  0
  4  5  1  0  0  0
  4 92  1  0  0  0
  4 93  1  0  0  0
  5  6  1  0  0  0
  5 26  1  0  0  0
  5 94  1  0  0  0
  6 25  1  0  0  0
  6 95  1  0  0  0
  6 96  1  0  0  0
  7  8  2  0  0  0
  7 26  1  0  0  0
  7 29  1  0  0  0
  8  9  1  0  0  0
  8 22  1  0  0  0
  9 10  1  0  0  0
  9 27  2  0  0  0
 10 11  2  0  0  0
 10 15  1  0  0  0
 11 12  1  0  0  0
 11 97  1  0  0  0
 12 13  2  0  0  0
 12 98  1  0  0  0
 13 14  1  0  0  0
 13 31  1  0  0  0
 14 15  2  0  0  0
 14 99  1  0  0  0
 15100  1  0  0  0
 16 17  2  0  0  0
 16 21  1  0  0  0
 16 31  1  0  0  0
 17 18  1  0  0  0
 17101  1  0  0  0
 18 19  2  0  0  0
 18102  1  0  0  0
 19 20  1  0  0  0
 19 24  1  0  0  0
 20 21  2  0  0  0
 20103  1  0  0  0
 21 23  1  0  0  0
 22 28  1  0  0  0
 22 32  2  0  0  0
 26 27  1  0  0  0
 28104  1  0  0  0
 28105  1  0  0  0
 29106  1  0  0  0
 29107  1  0  0  0
 33 34  1  0  0  0
 33 66  1  0  0  0
 33 70  2  0  0  0
 34 36  1  0  0  0
 34 59  1  0  0  0
 34108  1  0  0  0
 35 44  2  0  0  0
 35 45  1  0  0  0
 35 68  1  0  0  0
 36 56  1  0  0  0
 36109  1  0  0  0
 37 39  1  0  0  0
 37 47  1  0  0  0
 37 66  1  0  0  0
 37110  1  0  0  0
 38 43  2  0  0  0
 38 46  1  0  0  0
 38 47  1  0  0  0
 39 64  1  0  0  0
 39 67  2  0  0  0
 40 52  1  0  0  0
 40 53  2  0  0  0
 40 58  1  0  0  0
 41111  1  0  0  0
 41112  1  0  0  0
 41113  1  0  0  0
 41 48  1  0  0  0
 42 43  1  0  0  0
 42 66  1  0  0  0
 42114  1  0  0  0
 42115  1  0  0  0
 43 44  1  0  0  0
 44116  1  0  0  0
 45 46  2  0  0  0
 45117  1  0  0  0
 46118  1  0  0  0
 47119  1  0  0  0
 47120  1  0  0  0
 48 56  1  0  0  0
 48 65  1  0  0  0
 48121  1  0  0  0
 49 50  1  0  0  0
 49 53  1  0  0  0
 49 64  1  0  0  0
 49122  1  0  0  0
 50 51  1  0  0  0
 50123  1  0  0  0
 50124  1  0  0  0
 51 52  1  0  0  0
 51125  1  0  0  0
 51126  1  0  0  0
 52127  1  0  0  0
 52128  1  0  0  0
 53 54  1  0  0  0
 54 55  2  0  0  0
 54129  1  0  0  0
 55 57  1  0  0  0
 55130  1  0  0  0
 56 69  2  0  0  0
 57 58  2  0  0  0
 57131  1  0  0  0
 58132  1  0  0  0
 59 60  1  0  0  0
 59 61  1  0  0  0
 59 62  1  0  0  0
 60133  1  0  0  0
 60134  1  0  0  0
 60135  1  0  0  0
 61136  1  0  0  0
 61137  1  0  0  0
 61138  1  0  0  0
 62139  1  0  0  0
 62140  1  0  0  0
 62141  1  0  0  0
 63 65  1  0  0  0
 63142  1  0  0  0
 63143  1  0  0  0
 63144  1  0  0  0
 64145  1  0  0  0
 65146  1  0  0  0
 68 83  1  0  0  0
 71 72  2  0  0  0
 71 73  1  0  0  0
 71147  1  0  0  0
 72 75  1  0  0  0
 72148  1  0  0  0
 73 76  2  0  0  0
 73149  1  0  0  0
 74 75  2  0  0  0
 74 76  1  0  0  0
 74150  1  0  0  0
 75 77  1  0  0  0
 76 85  1  0  0  0
 77 84  1  0  0  0
 77 86  2  0  0  0
 78 80  1  0  0  0
 78 82  1  0  0  0
 78151  1  0  0  0
 78152  1  0  0  0
 79 81  1  0  0  0
 79 82  1  0  0  0
 79153  1  0  0  0
 79154  1  0  0  0
 80 84  1  0  0  0
 80155  1  0  0  0
 80156  1  0  0  0
 81 84  1  0  0  0
 81157  1  0  0  0
 81158  1  0  0  0
 82 83  1  0  0  0
 82 87  1  0  0  0
 83159  1  0  0  0
 83160  1  0  0  0
 85161  1  0  0  0
 86162  1  0  0  0
 86163  1  0  0  0
M  CHG  1  86   1
M  ISO  4   1 100  68 101  83 101  85 100
M  END
> <chiral flag>
0

> <version>
0

> <s_m_source_file>
/data/baiqing/PycharmProjects/Reinvent-master-3.2/result/LINK_invent/BTK/process_docking_weight1_custom_product_contain_oxygen_bond_distance_aromatic_linkinvent_7_9_3/rearranged_h_0155.sdf

> <i_m_source_file_index>
75

> <r_mmod_Potential_Energy-OPLS-2005>
-172.699920654297

> <r_mmod_Stretch_Energy-OPLS-2005>
50.6791305541992

> <r_mmod_Bend_Energy-OPLS-2005>
118.441436767578

> <r_mmod_Torsional_Energy-OPLS-2005>
277.714050292969

> <r_mmod_Improper_Torsional_Energy-OPLS-2005>
4.85115242004395

> <r_mmod_Van_der_Waal_Energy-OPLS-2005>
170.316604614258

> <r_mmod_Electrostatic_Energy-OPLS-2005>
-407.072357177734

> <r_mmod_Solvation_Energy-OPLS-2005>
-405.100830078125

> <b_mmod_Minimization_Converged-OPLS-2005>
0

> <r_mmod_RMS_Derivative-OPLS-2005>
2.11598134040833

$$$$
75
                    3D
 Structure written by MMmdl.
150158  0  0  1  0            999 V2000
  -30.7344  -14.5315   20.5036 C   0  0  0  0  0  0
  -30.3997  -12.3318   19.4395 C   0  0  0  0  0  0
  -29.4857  -12.4869   18.2102 C   0  0  0  0  0  0
  -28.0105  -12.3471   18.6296 C   0  0  0  0  0  0
  -27.6464  -13.2247   19.8591 C   0  0  2  0  0  0
  -28.6951  -13.0974   20.9876 C   0  0  0  0  0  0
  -25.2517  -13.8208   20.5708 C   0  0  0  0  0  0
  -24.1785  -13.0470   20.9220 C   0  0  0  0  0  0
  -24.6373  -11.6943   20.8793 C   0  0  0  0  0  0
  -23.9053  -10.4319   21.0435 C   0  0  0  0  0  0
  -24.3610   -9.4225   21.9201 C   0  0  0  0  0  0
  -23.6286   -8.2258   22.0766 C   0  0  0  0  0  0
  -22.4271   -8.0300   21.3547 C   0  0  0  0  0  0
  -21.9909   -9.0281   20.4649 C   0  0  0  0  0  0
  -22.7242  -10.2159   20.3066 C   0  0  0  0  0  0
  -21.6858   -6.0739   22.5282 C   0  0  0  0  0  0
  -21.4023   -6.5638   23.8220 C   0  0  0  0  0  0
  -21.3655   -5.6783   24.9173 C   0  0  0  0  0  0
  -21.6045   -4.3052   24.7222 C   0  0  0  0  0  0
  -21.8818   -3.8148   23.4344 C   0  0  0  0  0  0
  -21.9197   -4.6965   22.3403 C   0  0  0  0  0  0
  -22.7807  -13.5268   21.1854 C   0  0  0  0  0  0
  -22.1662   -4.2149   21.0981 F   0  0  0  0  0  0
  -21.5624   -3.4538   25.7739 F   0  0  0  0  0  0
  -30.0122  -13.3785   20.4035 N   0  0  0  0  0  0
  -26.2950  -12.9406   20.3343 N   0  0  0  0  0  0
  -25.9305  -11.6556   20.5821 N   0  0  0  0  0  0
  -22.0425  -12.8279   22.0401 N   0  0  0  0  0  0
  -25.4217  -15.1925   20.4076 N   0  0  0  0  0  0
  -31.9145  -14.5429   20.1458 O   0  0  0  0  0  0
  -21.6642   -6.8889   21.4242 O   0  0  0  0  0  0
  -22.3500  -14.5587   20.6710 O   0  0  0  0  0  0
  -24.6177  -31.8654   23.2077 C   0  0  0  0  0  0
  -25.9060  -32.4812   23.8377 C   0  0  1  0  0  0
  -27.2273  -27.4061   20.1027 C   0  0  0  0  0  0
  -25.5909  -33.8612   24.2305 N   0  0  0  0  0  0
  -23.4069  -30.4896   21.5496 C   0  0  2  0  0  0
  -24.8531  -28.9521   20.1128 C   0  0  0  0  0  0
  -22.7428  -29.4653   22.4978 C   0  0  0  0  0  0
  -18.0277  -28.1372   22.8494 C   0  0  0  0  0  0
  -24.1488  -36.7305   23.2639 C   0  0  0  0  0  0
  -25.9391  -30.8248   21.3636 C   0  0  0  0  0  0
  -26.0168  -29.4580   20.7076 C   0  0  0  0  0  0
  -27.2121  -28.6957   20.6906 C   0  0  0  0  0  0
  -26.0484  -26.9243   19.4955 C   0  0  0  0  0  0
  -24.8657  -27.6872   19.5003 C   0  0  0  0  0  0
  -23.6156  -29.8211   20.1650 C   0  0  0  0  0  0
  -25.4112  -36.3098   24.0328 C   0  0  1  0  0  0
  -20.5870  -28.3657   23.1308 C   0  0  2  0  0  0
  -20.6769  -26.9407   22.5373 C   0  0  0  0  0  0
  -19.5738  -26.6407   21.5181 C   0  0  0  0  0  0
  -18.1922  -26.7929   22.1591 C   0  0  0  0  0  0
  -19.1528  -28.8826   23.2904 C   0  0  0  0  0  0
  -18.9452  -30.1426   23.8918 C   0  0  0  0  0  0
  -17.6454  -30.6564   24.0569 C   0  0  0  0  0  0
  -25.9043  -34.9466   23.5112 C   0  0  0  0  0  0
  -16.5348  -29.9072   23.6328 C   0  0  0  0  0  0
  -16.7263  -28.6493   23.0343 C   0  0  0  0  0  0
  -26.4475  -31.6605   25.0717 C   0  0  0  0  0  0
  -25.3747  -31.3709   26.1471 C   0  0  0  0  0  0
  -27.0311  -30.3044   24.6113 C   0  0  0  0  0  0
  -27.6036  -32.4339   25.7486 C   0  0  0  0  0  0
  -27.5575  -37.1810   24.8464 C   0  0  0  0  0  0
  -21.4142  -29.3052   22.3730 N   0  0  0  0  0  0
  -26.4294  -37.3784   23.9403 N   0  0  0  0  0  0
  -24.6731  -31.0750   22.0985 N   0  0  0  0  0  0
  -23.4189  -28.8179   23.3014 O   0  0  0  0  0  0
  -28.3610  -26.6154   20.1119 O   0  0  0  0  0  0
  -26.5604  -34.8925   22.4671 O   0  0  0  0  0  0
  -23.5363  -32.1407   23.7465 O   0  0  0  0  0  0
  -30.1966  -19.3450   20.0407 C   0  0  0  0  0  0
  -28.1548  -19.6114   20.9111 C   0  0  0  0  0  0
  -29.1386  -20.2760   20.2304 C   0  0  0  0  0  0
  -29.8093  -18.1621   20.6316 C   0  0  0  0  0  0
  -30.6307  -16.9259   20.8273 C   0  0  0  0  0  0
  -28.7460  -24.1260   19.9606 C   0  0  0  0  0  0
  -28.4578  -22.6913   20.4962 C   0  0  0  0  0  0
  -28.1915  -25.3291   20.7675 C   0  0  0  0  0  0
  -29.1477  -21.6100   19.7639 N   0  0  0  0  0  0
  -30.0631  -15.6876   20.7700 N   0  0  0  0  0  0
  -31.8440  -17.1144   20.9880 O   0  0  0  0  0  0
  -29.4225  -24.2909   18.9376 O   0  0  0  0  0  0
  -28.5484  -18.3116   21.1545 O   0  0  0  0  0  0
  -31.4463  -12.3887   19.1347 H   0  0  0  0  0  0
  -30.2788  -11.3442   19.8876 H   0  0  0  0  0  0
  -29.7325  -11.7359   17.4592 H   0  0  0  0  0  0
  -29.6499  -13.4562   17.7374 H   0  0  0  0  0  0
  -27.8382  -11.2955   18.8622 H   0  0  0  0  0  0
  -27.3515  -12.5797   17.7924 H   0  0  0  0  0  0
  -27.6627  -14.2585   19.5133 H   0  0  0  0  0  0
  -28.6810  -12.0920   21.4122 H   0  0  0  0  0  0
  -28.4681  -13.7790   21.8089 H   0  0  0  0  0  0
  -25.2756   -9.5701   22.4768 H   0  0  0  0  0  0
  -24.0001   -7.4648   22.7490 H   0  0  0  0  0  0
  -21.0837   -8.8801   19.8947 H   0  0  0  0  0  0
  -22.3713  -10.9694   19.6162 H   0  0  0  0  0  0
  -21.2024   -7.6149   23.9722 H   0  0  0  0  0  0
  -21.1465   -6.0514   25.9073 H   0  0  0  0  0  0
  -22.0598   -2.7610   23.2848 H   0  0  0  0  0  0
  -22.4039  -11.9950   22.4798 H   0  0  0  0  0  0
  -21.1030  -13.1299   22.2576 H   0  0  0  0  0  0
  -24.6504  -15.8439   20.5045 H   0  0  0  0  0  0
  -26.2640  -15.6277   20.0538 H   0  0  0  0  0  0
  -26.7143  -32.5517   23.1151 H   0  0  0  0  0  0
  -25.0069  -33.9776   25.0458 H   0  0  0  0  0  0
  -22.6970  -31.3073   21.4100 H   0  0  0  0  0  0
  -23.3741  -35.9649   23.3314 H   0  0  0  0  0  0
  -24.3575  -36.8912   22.2052 H   0  0  0  0  0  0
  -23.7263  -37.6520   23.6654 H   0  0  0  0  0  0
  -26.0595  -31.5952   20.6001 H   0  0  0  0  0  0
  -26.8237  -30.8730   21.9869 H   0  0  0  0  0  0
  -28.1117  -29.0850   21.1458 H   0  0  0  0  0  0
  -26.0400  -25.9542   19.0191 H   0  0  0  0  0  0
  -23.9731  -27.2972   19.0317 H   0  0  0  0  0  0
  -23.7229  -30.5955   19.4039 H   0  0  0  0  0  0
  -22.7382  -29.2405   19.8726 H   0  0  0  0  0  0
  -25.1298  -36.1947   25.0822 H   0  0  0  0  0  0
  -20.9976  -28.3192   24.1422 H   0  0  0  0  0  0
  -20.5700  -26.2254   23.3537 H   0  0  0  0  0  0
  -21.6632  -26.7465   22.1136 H   0  0  0  0  0  0
  -19.6898  -25.6336   21.1172 H   0  0  0  0  0  0
  -19.6681  -27.3239   20.6726 H   0  0  0  0  0  0
  -17.4192  -26.6718   21.3983 H   0  0  0  0  0  0
  -18.0312  -26.0039   22.8955 H   0  0  0  0  0  0
  -19.7933  -30.7238   24.2294 H   0  0  0  0  0  0
  -17.5005  -31.6243   24.5174 H   0  0  0  0  0  0
  -15.5349  -30.2972   23.7644 H   0  0  0  0  0  0
  -15.8659  -28.0822   22.7048 H   0  0  0  0  0  0
  -24.5899  -30.7081   25.7802 H   0  0  0  0  0  0
  -24.8968  -32.2870   26.4952 H   0  0  0  0  0  0
  -25.8104  -30.8845   27.0208 H   0  0  0  0  0  0
  -26.2855  -29.6801   24.1172 H   0  0  0  0  0  0
  -27.4078  -29.7282   25.4572 H   0  0  0  0  0  0
  -27.8690  -30.4344   23.9262 H   0  0  0  0  0  0
  -27.2630  -33.3617   26.2094 H   0  0  0  0  0  0
  -28.3831  -32.6948   25.0316 H   0  0  0  0  0  0
  -28.0733  -31.8463   26.5387 H   0  0  0  0  0  0
  -28.2602  -38.0094   24.7491 H   0  0  0  0  0  0
  -28.1060  -36.2625   24.6317 H   0  0  0  0  0  0
  -27.2287  -37.1495   25.8867 H   0  0  0  0  0  0
  -20.9297  -29.8812   21.6981 H   0  0  0  0  0  0
  -26.0170  -38.2855   24.1410 H   0  0  0  0  0  0
  -31.1522  -19.5080   19.5604 H   0  0  0  0  0  0
  -27.1744  -19.8830   21.2792 H   0  0  0  0  0  0
  -27.3813  -22.5210   20.4536 H   0  0  0  0  0  0
  -28.7461  -22.6578   21.5476 H   0  0  0  0  0  0
  -28.7319  -25.3644   21.7143 H   0  0  0  0  0  0
  -27.1500  -25.1272   21.0193 H   0  0  0  0  0  0
  -29.9539  -21.9259   19.2282 H   0  0  0  0  0  0
  -29.0596  -15.6476   20.8108 H   0  0  0  0  0  0
  1 25  1  0  0  0
  1 30  2  0  0  0
  1 80  1  0  0  0
  2  3  1  0  0  0
  2 25  1  0  0  0
  2 84  1  0  0  0
  2 85  1  0  0  0
  3  4  1  0  0  0
  3 86  1  0  0  0
  3 87  1  0  0  0
  4  5  1  0  0  0
  4 88  1  0  0  0
  4 89  1  0  0  0
  5  6  1  0  0  0
  5 26  1  0  0  0
  5 90  1  0  0  0
  6 25  1  0  0  0
  6 91  1  0  0  0
  6 92  1  0  0  0
  7  8  2  0  0  0
  7 26  1  0  0  0
  7 29  1  0  0  0
  8  9  1  0  0  0
  8 22  1  0  0  0
  9 10  1  0  0  0
  9 27  2  0  0  0
 10 11  2  0  0  0
 10 15  1  0  0  0
 11 12  1  0  0  0
 11 93  1  0  0  0
 12 13  2  0  0  0
 12 94  1  0  0  0
 13 14  1  0  0  0
 13 31  1  0  0  0
 14 15  2  0  0  0
 14 95  1  0  0  0
 15 96  1  0  0  0
 16 17  2  0  0  0
 16 21  1  0  0  0
 16 31  1  0  0  0
 17 18  1  0  0  0
 17 97  1  0  0  0
 18 19  2  0  0  0
 18 98  1  0  0  0
 19 20  1  0  0  0
 19 24  1  0  0  0
 20 21  2  0  0  0
 20 99  1  0  0  0
 21 23  1  0  0  0
 22 28  1  0  0  0
 22 32  2  0  0  0
 26 27  1  0  0  0
 28100  1  0  0  0
 28101  1  0  0  0
 29102  1  0  0  0
 29103  1  0  0  0
 33 34  1  0  0  0
 33 66  1  0  0  0
 33 70  2  0  0  0
 34 36  1  0  0  0
 34 59  1  0  0  0
 34104  1  0  0  0
 35 44  2  0  0  0
 35 45  1  0  0  0
 35 68  1  0  0  0
 36 56  1  0  0  0
 36105  1  0  0  0
 37 39  1  0  0  0
 37 47  1  0  0  0
 37 66  1  0  0  0
 37106  1  0  0  0
 38 43  2  0  0  0
 38 46  1  0  0  0
 38 47  1  0  0  0
 39 64  1  0  0  0
 39 67  2  0  0  0
 40 52  1  0  0  0
 40 53  2  0  0  0
 40 58  1  0  0  0
 41107  1  0  0  0
 41108  1  0  0  0
 41109  1  0  0  0
 41 48  1  0  0  0
 42 43  1  0  0  0
 42 66  1  0  0  0
 42110  1  0  0  0
 42111  1  0  0  0
 43 44  1  0  0  0
 44112  1  0  0  0
 45 46  2  0  0  0
 45113  1  0  0  0
 46114  1  0  0  0
 47115  1  0  0  0
 47116  1  0  0  0
 48 56  1  0  0  0
 48 65  1  0  0  0
 48117  1  0  0  0
 49 50  1  0  0  0
 49 53  1  0  0  0
 49 64  1  0  0  0
 49118  1  0  0  0
 50 51  1  0  0  0
 50119  1  0  0  0
 50120  1  0  0  0
 51 52  1  0  0  0
 51121  1  0  0  0
 51122  1  0  0  0
 52123  1  0  0  0
 52124  1  0  0  0
 53 54  1  0  0  0
 54 55  2  0  0  0
 54125  1  0  0  0
 55 57  1  0  0  0
 55126  1  0  0  0
 56 69  2  0  0  0
 57 58  2  0  0  0
 57127  1  0  0  0
 58128  1  0  0  0
 59 60  1  0  0  0
 59 61  1  0  0  0
 59 62  1  0  0  0
 60129  1  0  0  0
 60130  1  0  0  0
 60131  1  0  0  0
 61132  1  0  0  0
 61133  1  0  0  0
 61134  1  0  0  0
 62135  1  0  0  0
 62136  1  0  0  0
 62137  1  0  0  0
 63 65  1  0  0  0
 63138  1  0  0  0
 63139  1  0  0  0
 63140  1  0  0  0
 64141  1  0  0  0
 65142  1  0  0  0
 68 78  1  0  0  0
 71 73  1  0  0  0
 71 74  2  0  0  0
 71143  1  0  0  0
 72 73  2  0  0  0
 72 83  1  0  0  0
 72144  1  0  0  0
 73 79  1  0  0  0
 74 75  1  0  0  0
 74 83  1  0  0  0
 75 80  1  0  0  0
 75 81  2  0  0  0
 76 77  1  0  0  0
 76 78  1  0  0  0
 76 82  2  0  0  0
 77 79  1  0  0  0
 77145  1  0  0  0
 77146  1  0  0  0
 78147  1  0  0  0
 78148  1  0  0  0
 79149  1  0  0  0
 80150  1  0  0  0
M  ISO  4   1 100  68 101  78 101  80 100
M  END
> <chiral flag>
0

> <version>
0

> <s_m_source_file>
/data/baiqing/PycharmProjects/Reinvent-master-3.2/result/LINK_invent/BTK/process_docking_weight1_custom_product_contain_oxygen_bond_distance_aromatic_linkinvent_7_9_3/rearranged_h_0155.sdf

> <i_m_source_file_index>
76

> <r_mmod_Potential_Energy-OPLS-2005>
-70.0253601074219

> <r_mmod_Stretch_Energy-OPLS-2005>
44.4468650817871

> <r_mmod_Bend_Energy-OPLS-2005>
118.598747253418

> <r_mmod_Torsional_Energy-OPLS-2005>
250.792953491211

> <r_mmod_Improper_Torsional_Energy-OPLS-2005>
8.24952125549316

> <r_mmod_Van_der_Waal_Energy-OPLS-2005>
135.602386474609

> <r_mmod_Electrostatic_Energy-OPLS-2005>
-400.305297851562

> <r_mmod_Solvation_Energy-OPLS-2005>
-255.331039428711

> <b_mmod_Minimization_Converged-OPLS-2005>
0

> <r_mmod_RMS_Derivative-OPLS-2005>
2.12982654571533

$$$$
76
                    3D
 Structure written by MMmdl.
160169  0  0  1  0            999 V2000
  -30.6572  -14.5736   20.5114 C   0  0  0  0  0  0
  -30.4268  -12.3540   19.4429 C   0  0  0  0  0  0
  -29.4993  -12.5036   18.2172 C   0  0  0  0  0  0
  -28.0201  -12.3577   18.6271 C   0  0  0  0  0  0
  -27.6540  -13.2151   19.8687 C   0  0  2  0  0  0
  -28.6992  -13.0495   20.9958 C   0  0  0  0  0  0
  -25.2555  -13.8177   20.5691 C   0  0  0  0  0  0
  -24.1818  -13.0446   20.9198 C   0  0  0  0  0  0
  -24.6383  -11.6911   20.8743 C   0  0  0  0  0  0
  -23.9053  -10.4300   21.0410 C   0  0  0  0  0  0
  -24.3604   -9.4219   21.9194 C   0  0  0  0  0  0
  -23.6290   -8.2251   22.0758 C   0  0  0  0  0  0
  -22.4281   -8.0282   21.3540 C   0  0  0  0  0  0
  -21.9915   -9.0252   20.4640 C   0  0  0  0  0  0
  -22.7233  -10.2138   20.3057 C   0  0  0  0  0  0
  -21.6850   -6.0736   22.5272 C   0  0  0  0  0  0
  -21.4008   -6.5637   23.8204 C   0  0  0  0  0  0
  -21.3659   -5.6792   24.9169 C   0  0  0  0  0  0
  -21.6049   -4.3056   24.7218 C   0  0  0  0  0  0
  -21.8815   -3.8148   23.4337 C   0  0  0  0  0  0
  -21.9192   -4.6965   22.3393 C   0  0  0  0  0  0
  -22.7840  -13.5235   21.1859 C   0  0  0  0  0  0
  -22.1660   -4.2151   21.0973 F   0  0  0  0  0  0
  -21.5636   -3.4538   25.7738 F   0  0  0  0  0  0
  -30.0193  -13.3689   20.4313 N   0  0  0  0  0  0
  -26.2985  -12.9353   20.3359 N   0  0  0  0  0  0
  -25.9313  -11.6504   20.5774 N   0  0  0  0  0  0
  -22.0478  -12.8217   22.0400 N   0  0  0  0  0  0
  -25.4271  -15.1899   20.4066 N   0  0  0  0  0  0
  -31.8224  -14.7129   20.1272 O   0  0  0  0  0  0
  -21.6635   -6.8883   21.4239 O   0  0  0  0  0  0
  -22.3536  -14.5553   20.6730 O   0  0  0  0  0  0
  -24.6233  -31.8613   23.2066 C   0  0  0  0  0  0
  -25.9094  -32.4790   23.8390 C   0  0  1  0  0  0
  -27.2252  -27.3671   20.1137 C   0  0  0  0  0  0
  -25.5920  -33.8591   24.2312 N   0  0  0  0  0  0
  -23.4142  -30.4845   21.5478 C   0  0  2  0  0  0
  -24.8617  -28.9446   20.1104 C   0  0  0  0  0  0
  -22.7449  -29.4636   22.4973 C   0  0  0  0  0  0
  -18.0271  -28.1401   22.8505 C   0  0  0  0  0  0
  -24.1474  -36.7281   23.2654 C   0  0  0  0  0  0
  -25.9497  -30.8099   21.3665 C   0  0  0  0  0  0
  -26.0277  -29.4404   20.7097 C   0  0  0  0  0  0
  -27.2172  -28.6622   20.7008 C   0  0  0  0  0  0
  -26.0446  -26.9086   19.4924 C   0  0  0  0  0  0
  -24.8694  -27.6825   19.4931 C   0  0  0  0  0  0
  -23.6258  -29.8182   20.1626 C   0  0  0  0  0  0
  -25.4101  -36.3088   24.0345 C   0  0  1  0  0  0
  -20.5866  -28.3691   23.1309 C   0  0  2  0  0  0
  -20.6751  -26.9420   22.5425 C   0  0  0  0  0  0
  -19.5722  -26.6395   21.5231 C   0  0  0  0  0  0
  -18.1896  -26.7950   22.1628 C   0  0  0  0  0  0
  -19.1527  -28.8867   23.2897 C   0  0  0  0  0  0
  -18.9451  -30.1473   23.8910 C   0  0  0  0  0  0
  -17.6452  -30.6606   24.0578 C   0  0  0  0  0  0
  -25.9046  -34.9458   23.5127 C   0  0  0  0  0  0
  -16.5342  -29.9104   23.6352 C   0  0  0  0  0  0
  -16.7264  -28.6521   23.0381 C   0  0  0  0  0  0
  -26.4503  -31.6606   25.0756 C   0  0  0  0  0  0
  -25.3753  -31.3680   26.1485 C   0  0  0  0  0  0
  -27.0383  -30.3064   24.6179 C   0  0  0  0  0  0
  -27.6051  -32.4358   25.7522 C   0  0  0  0  0  0
  -27.5568  -37.1798   24.8481 C   0  0  0  0  0  0
  -21.4168  -29.3041   22.3710 N   0  0  0  0  0  0
  -26.4280  -37.3780   23.9431 N   0  0  0  0  0  0
  -24.6811  -31.0666   22.0988 N   0  0  0  0  0  0
  -23.4188  -28.8185   23.3046 O   0  0  0  0  0  0
  -28.3329  -26.5270   20.1557 O   0  0  0  0  0  0
  -26.5603  -34.8916   22.4685 O   0  0  0  0  0  0
  -23.5406  -32.1393   23.7424 O   0  0  0  0  0  0
  -31.1761  -19.0993   20.4348 C   0  0  0  0  0  0
  -31.2985  -17.6703   20.5197 C   0  0  0  0  0  0
  -29.8937  -19.5820   20.5627 C   0  0  0  0  0  0
  -30.1154  -16.9932   20.7231 C   0  0  0  0  0  0
  -27.7151  -22.7157   20.9529 C   0  0  0  0  0  0
  -29.9587  -23.4344   20.2534 C   0  0  0  0  0  0
  -28.0231  -21.2640   20.4812 C   0  0  0  0  0  0
  -30.2765  -21.9599   19.8355 C   0  0  0  0  0  0
  -28.4551  -23.8436   20.1731 C   0  0  0  0  0  0
  -28.5832  -24.4233   17.7981 C   0  0  0  0  0  0
  -28.1079  -25.2486   20.8391 C   0  0  0  0  0  0
  -29.4551  -20.9461   20.5241 N   0  0  0  0  0  0
  -29.8765  -15.6377   20.8536 N   0  0  0  0  0  0
  -27.8939  -23.7645   18.8557 O   0  0  0  0  0  0
  -28.8173  -18.1959   20.8162 S   0  0  0  0  0  0
  -31.4705  -12.4621   19.1411 H   0  0  0  0  0  0
  -30.3407  -11.3548   19.8717 H   0  0  0  0  0  0
  -29.7517  -11.7617   17.4583 H   0  0  0  0  0  0
  -29.6544  -13.4789   17.7529 H   0  0  0  0  0  0
  -27.8379  -11.3038   18.8394 H   0  0  0  0  0  0
  -27.3704  -12.6162   17.7901 H   0  0  0  0  0  0
  -27.6793  -14.2549   19.5413 H   0  0  0  0  0  0
  -28.6944  -12.0271   21.3764 H   0  0  0  0  0  0
  -28.4595  -13.6844   21.8501 H   0  0  0  0  0  0
  -25.2742   -9.5697   22.4777 H   0  0  0  0  0  0
  -23.9989   -7.4646   22.7485 H   0  0  0  0  0  0
  -21.0849   -8.8766   19.8943 H   0  0  0  0  0  0
  -22.3691  -10.9677   19.6164 H   0  0  0  0  0  0
  -21.1992   -7.6143   23.9705 H   0  0  0  0  0  0
  -21.1492   -6.0529   25.9074 H   0  0  0  0  0  0
  -22.0597   -2.7613   23.2838 H   0  0  0  0  0  0
  -22.4083  -11.9852   22.4738 H   0  0  0  0  0  0
  -21.1110  -13.1258   22.2634 H   0  0  0  0  0  0
  -24.6567  -15.8426   20.5029 H   0  0  0  0  0  0
  -26.2696  -15.6241   20.0521 H   0  0  0  0  0  0
  -26.7172  -32.5469   23.1152 H   0  0  0  0  0  0
  -25.0142  -33.9749   25.0512 H   0  0  0  0  0  0
  -22.7076  -31.3051   21.4059 H   0  0  0  0  0  0
  -23.3760  -35.9593   23.3311 H   0  0  0  0  0  0
  -24.3564  -36.8914   22.2074 H   0  0  0  0  0  0
  -23.7197  -37.6463   23.6681 H   0  0  0  0  0  0
  -26.0666  -31.5748   20.5977 H   0  0  0  0  0  0
  -26.8347  -30.8638   21.9889 H   0  0  0  0  0  0
  -28.1138  -29.0343   21.1771 H   0  0  0  0  0  0
  -26.0279  -25.9332   19.0265 H   0  0  0  0  0  0
  -23.9750  -27.2953   19.0244 H   0  0  0  0  0  0
  -23.7368  -30.5944   19.4042 H   0  0  0  0  0  0
  -22.7470  -29.2431   19.8659 H   0  0  0  0  0  0
  -25.1280  -36.1948   25.0837 H   0  0  0  0  0  0
  -20.9956  -28.3258   24.1428 H   0  0  0  0  0  0
  -20.5677  -26.2301   23.3615 H   0  0  0  0  0  0
  -21.6616  -26.7446   22.1205 H   0  0  0  0  0  0
  -19.6873  -25.6305   21.1264 H   0  0  0  0  0  0
  -19.6669  -27.3206   20.6760 H   0  0  0  0  0  0
  -17.4174  -26.6763   21.4013 H   0  0  0  0  0  0
  -18.0245  -26.0083   22.9000 H   0  0  0  0  0  0
  -19.7921  -30.7299   24.2285 H   0  0  0  0  0  0
  -17.4997  -31.6286   24.5174 H   0  0  0  0  0  0
  -15.5346  -30.3012   23.7669 H   0  0  0  0  0  0
  -15.8661  -28.0844   22.7104 H   0  0  0  0  0  0
  -24.5974  -30.6974   25.7813 H   0  0  0  0  0  0
  -24.8886  -32.2808   26.4926 H   0  0  0  0  0  0
  -25.8115  -30.8875   27.0255 H   0  0  0  0  0  0
  -26.2961  -29.6771   24.1257 H   0  0  0  0  0  0
  -27.4185  -29.7358   25.4668 H   0  0  0  0  0  0
  -27.8764  -30.4425   23.9339 H   0  0  0  0  0  0
  -27.2684  -33.3704   26.2026 H   0  0  0  0  0  0
  -28.3892  -32.6849   25.0358 H   0  0  0  0  0  0
  -28.0681  -31.8529   26.5500 H   0  0  0  0  0  0
  -28.2580  -38.0097   24.7527 H   0  0  0  0  0  0
  -28.1059  -36.2622   24.6313 H   0  0  0  0  0  0
  -27.2277  -37.1468   25.8881 H   0  0  0  0  0  0
  -20.9354  -29.8793   21.6942 H   0  0  0  0  0  0
  -26.0159  -38.2850   24.1451 H   0  0  0  0  0  0
  -32.0538  -19.7116   20.2863 H   0  0  0  0  0  0
  -32.2690  -17.2020   20.4324 H   0  0  0  0  0  0
  -27.9614  -22.7904   22.0132 H   0  0  0  0  0  0
  -26.6379  -22.8789   20.8926 H   0  0  0  0  0  0
  -30.5728  -24.1244   19.6741 H   0  0  0  0  0  0
  -30.2954  -23.5659   21.2832 H   0  0  0  0  0  0
  -27.6603  -21.1223   19.4610 H   0  0  0  0  0  0
  -27.4614  -20.5712   21.1089 H   0  0  0  0  0  0
  -31.3344  -21.7787   20.0261 H   0  0  0  0  0  0
  -30.1354  -21.8455   18.7598 H   0  0  0  0  0  0
  -28.0061  -24.3137   16.8795 H   0  0  0  0  0  0
  -29.5621  -23.9833   17.6107 H   0  0  0  0  0  0
  -28.7069  -25.4892   17.9765 H   0  0  0  0  0  0
  -28.6629  -25.3155   21.7758 H   0  0  0  0  0  0
  -27.0696  -25.1965   21.1709 H   0  0  0  0  0  0
  -28.9361  -15.3845   21.1165 H   0  0  0  0  0  0
  1 25  1  0  0  0
  1 30  2  0  0  0
  1 83  1  0  0  0
  2  3  1  0  0  0
  2 25  1  0  0  0
  2 86  1  0  0  0
  2 87  1  0  0  0
  3  4  1  0  0  0
  3 88  1  0  0  0
  3 89  1  0  0  0
  4  5  1  0  0  0
  4 90  1  0  0  0
  4 91  1  0  0  0
  5  6  1  0  0  0
  5 26  1  0  0  0
  5 92  1  0  0  0
  6 25  1  0  0  0
  6 93  1  0  0  0
  6 94  1  0  0  0
  7  8  2  0  0  0
  7 26  1  0  0  0
  7 29  1  0  0  0
  8  9  1  0  0  0
  8 22  1  0  0  0
  9 10  1  0  0  0
  9 27  2  0  0  0
 10 11  2  0  0  0
 10 15  1  0  0  0
 11 12  1  0  0  0
 11 95  1  0  0  0
 12 13  2  0  0  0
 12 96  1  0  0  0
 13 14  1  0  0  0
 13 31  1  0  0  0
 14 15  2  0  0  0
 14 97  1  0  0  0
 15 98  1  0  0  0
 16 17  2  0  0  0
 16 21  1  0  0  0
 16 31  1  0  0  0
 17 18  1  0  0  0
 17 99  1  0  0  0
 18 19  2  0  0  0
 18100  1  0  0  0
 19 20  1  0  0  0
 19 24  1  0  0  0
 20 21  2  0  0  0
 20101  1  0  0  0
 21 23  1  0  0  0
 22 28  1  0  0  0
 22 32  2  0  0  0
 26 27  1  0  0  0
 28102  1  0  0  0
 28103  1  0  0  0
 29104  1  0  0  0
 29105  1  0  0  0
 33 34  1  0  0  0
 33 66  1  0  0  0
 33 70  2  0  0  0
 34 36  1  0  0  0
 34 59  1  0  0  0
 34106  1  0  0  0
 35 44  2  0  0  0
 35 45  1  0  0  0
 35 68  1  0  0  0
 36 56  1  0  0  0
 36107  1  0  0  0
 37 39  1  0  0  0
 37 47  1  0  0  0
 37 66  1  0  0  0
 37108  1  0  0  0
 38 43  2  0  0  0
 38 46  1  0  0  0
 38 47  1  0  0  0
 39 64  1  0  0  0
 39 67  2  0  0  0
 40 52  1  0  0  0
 40 53  2  0  0  0
 40 58  1  0  0  0
 41109  1  0  0  0
 41110  1  0  0  0
 41111  1  0  0  0
 41 48  1  0  0  0
 42 43  1  0  0  0
 42 66  1  0  0  0
 42112  1  0  0  0
 42113  1  0  0  0
 43 44  1  0  0  0
 44114  1  0  0  0
 45 46  2  0  0  0
 45115  1  0  0  0
 46116  1  0  0  0
 47117  1  0  0  0
 47118  1  0  0  0
 48 56  1  0  0  0
 48 65  1  0  0  0
 48119  1  0  0  0
 49 50  1  0  0  0
 49 53  1  0  0  0
 49 64  1  0  0  0
 49120  1  0  0  0
 50 51  1  0  0  0
 50121  1  0  0  0
 50122  1  0  0  0
 51 52  1  0  0  0
 51123  1  0  0  0
 51124  1  0  0  0
 52125  1  0  0  0
 52126  1  0  0  0
 53 54  1  0  0  0
 54 55  2  0  0  0
 54127  1  0  0  0
 55 57  1  0  0  0
 55128  1  0  0  0
 56 69  2  0  0  0
 57 58  2  0  0  0
 57129  1  0  0  0
 58130  1  0  0  0
 59 60  1  0  0  0
 59 61  1  0  0  0
 59 62  1  0  0  0
 60131  1  0  0  0
 60132  1  0  0  0
 60133  1  0  0  0
 61134  1  0  0  0
 61135  1  0  0  0
 61136  1  0  0  0
 62137  1  0  0  0
 62138  1  0  0  0
 62139  1  0  0  0
 63 65  1  0  0  0
 63140  1  0  0  0
 63141  1  0  0  0
 63142  1  0  0  0
 64143  1  0  0  0
 65144  1  0  0  0
 68 81  1  0  0  0
 71 72  1  0  0  0
 71 73  2  0  0  0
 71145  1  0  0  0
 72 74  2  0  0  0
 72146  1  0  0  0
 73 82  1  0  0  0
 73 85  1  0  0  0
 74 83  1  0  0  0
 74 85  1  0  0  0
 75 77  1  0  0  0
 75 79  1  0  0  0
 75147  1  0  0  0
 75148  1  0  0  0
 76 78  1  0  0  0
 76 79  1  0  0  0
 76149  1  0  0  0
 76150  1  0  0  0
 77 82  1  0  0  0
 77151  1  0  0  0
 77152  1  0  0  0
 78 82  1  0  0  0
 78153  1  0  0  0
 78154  1  0  0  0
 79 81  1  0  0  0
 79 84  1  0  0  0
 80 84  1  0  0  0
 80155  1  0  0  0
 80156  1  0  0  0
 80157  1  0  0  0
 81158  1  0  0  0
 81159  1  0  0  0
 83160  1  0  0  0
M  ISO  4   1 100  68 101  81 101  83 100
M  END
> <chiral flag>
0

> <version>
0

> <s_m_source_file>
/data/baiqing/PycharmProjects/Reinvent-master-3.2/result/LINK_invent/BTK/process_docking_weight1_custom_product_contain_oxygen_bond_distance_aromatic_linkinvent_7_9_3/rearranged_h_0155.sdf

> <i_m_source_file_index>
77

> <r_mmod_Potential_Energy-OPLS-2005>
54.6286926269531

> <r_mmod_Stretch_Energy-OPLS-2005>
59.6886367797852

> <r_mmod_Bend_Energy-OPLS-2005>
138.06201171875

> <r_mmod_Torsional_Energy-OPLS-2005>
266.635986328125

> <r_mmod_Improper_Torsional_Energy-OPLS-2005>
7.01047992706299

> <r_mmod_Van_der_Waal_Energy-OPLS-2005>
134.728012084961

> <r_mmod_Electrostatic_Energy-OPLS-2005>
-359.580200195312

> <r_mmod_Solvation_Energy-OPLS-2005>
-224.059707641602

> <b_mmod_Minimization_Converged-OPLS-2005>
0

> <r_mmod_RMS_Derivative-OPLS-2005>
1.57672429084778

$$$$
77
                    3D
 Structure written by MMmdl.
164173  0  0  1  0            999 V2000
  -30.7054  -14.4732   20.5154 C   0  0  0  0  0  0
  -30.4216  -12.2894   19.4285 C   0  0  0  0  0  0
  -29.4979  -12.4888   18.2088 C   0  0  0  0  0  0
  -28.0165  -12.3644   18.6195 C   0  0  0  0  0  0
  -27.6620  -13.2015   19.8779 C   0  0  2  0  0  0
  -28.7101  -13.0032   20.9983 C   0  0  0  0  0  0
  -25.2594  -13.8146   20.5692 C   0  0  0  0  0  0
  -24.1841  -13.0424   20.9184 C   0  0  0  0  0  0
  -24.6397  -11.6892   20.8739 C   0  0  0  0  0  0
  -23.9066  -10.4280   21.0401 C   0  0  0  0  0  0
  -24.3616   -9.4199   21.9184 C   0  0  0  0  0  0
  -23.6299   -8.2231   22.0751 C   0  0  0  0  0  0
  -22.4282   -8.0269   21.3534 C   0  0  0  0  0  0
  -21.9911   -9.0247   20.4641 C   0  0  0  0  0  0
  -22.7236  -10.2128   20.3050 C   0  0  0  0  0  0
  -21.6850   -6.0727   22.5274 C   0  0  0  0  0  0
  -21.4007   -6.5640   23.8208 C   0  0  0  0  0  0
  -21.3660   -5.6794   24.9175 C   0  0  0  0  0  0
  -21.6046   -4.3056   24.7228 C   0  0  0  0  0  0
  -21.8818   -3.8141   23.4350 C   0  0  0  0  0  0
  -21.9187   -4.6955   22.3406 C   0  0  0  0  0  0
  -22.7859  -13.5224   21.1839 C   0  0  0  0  0  0
  -22.1658   -4.2139   21.0981 F   0  0  0  0  0  0
  -21.5640   -3.4539   25.7739 F   0  0  0  0  0  0
  -30.0424  -13.2876   20.4392 N   0  0  0  0  0  0
  -26.3031  -12.9299   20.3400 N   0  0  0  0  0  0
  -25.9324  -11.6465   20.5800 N   0  0  0  0  0  0
  -22.0484  -12.8227   22.0393 N   0  0  0  0  0  0
  -25.4328  -15.1868   20.4089 N   0  0  0  0  0  0
  -31.8567  -14.6353   20.1037 O   0  0  0  0  0  0
  -21.6642   -6.8871   21.4236 O   0  0  0  0  0  0
  -22.3550  -14.5535   20.6692 O   0  0  0  0  0  0
  -24.6151  -31.8693   23.2101 C   0  0  0  0  0  0
  -25.9045  -32.4832   23.8405 C   0  0  1  0  0  0
  -27.2322  -27.4418   20.1035 C   0  0  0  0  0  0
  -25.5909  -33.8629   24.2338 N   0  0  0  0  0  0
  -23.4022  -30.4932   21.5505 C   0  0  2  0  0  0
  -24.8492  -28.9618   20.1130 C   0  0  0  0  0  0
  -22.7421  -29.4672   22.4993 C   0  0  0  0  0  0
  -18.0273  -28.1381   22.8501 C   0  0  0  0  0  0
  -24.1482  -36.7313   23.2641 C   0  0  0  0  0  0
  -25.9298  -30.8393   21.3612 C   0  0  0  0  0  0
  -26.0095  -29.4749   20.7075 C   0  0  0  0  0  0
  -27.2068  -28.7232   20.6977 C   0  0  0  0  0  0
  -26.0604  -26.9510   19.4850 C   0  0  0  0  0  0
  -24.8690  -27.6985   19.4985 C   0  0  0  0  0  0
  -23.6106  -29.8273   20.1649 C   0  0  0  0  0  0
  -25.4103  -36.3114   24.0348 C   0  0  1  0  0  0
  -20.5865  -28.3675   23.1316 C   0  0  2  0  0  0
  -20.6766  -26.9415   22.5414 C   0  0  0  0  0  0
  -19.5740  -26.6392   21.5220 C   0  0  0  0  0  0
  -18.1919  -26.7927   22.1635 C   0  0  0  0  0  0
  -19.1521  -28.8848   23.2901 C   0  0  0  0  0  0
  -18.9454  -30.1457   23.8906 C   0  0  0  0  0  0
  -17.6454  -30.6584   24.0577 C   0  0  0  0  0  0
  -25.9039  -34.9482   23.5135 C   0  0  0  0  0  0
  -16.5345  -29.9092   23.6328 C   0  0  0  0  0  0
  -16.7265  -28.6510   23.0351 C   0  0  0  0  0  0
  -26.4478  -31.6602   25.0722 C   0  0  0  0  0  0
  -25.3755  -31.3707   26.1480 C   0  0  0  0  0  0
  -27.0321  -30.3049   24.6093 C   0  0  0  0  0  0
  -27.6043  -32.4335   25.7481 C   0  0  0  0  0  0
  -27.5580  -37.1810   24.8471 C   0  0  0  0  0  0
  -21.4148  -29.3038   22.3726 N   0  0  0  0  0  0
  -26.4289  -37.3797   23.9421 N   0  0  0  0  0  0
  -24.6674  -31.0813   22.0993 N   0  0  0  0  0  0
  -23.4193  -28.8227   23.3044 O   0  0  0  0  0  0
  -28.3743  -26.6690   20.1429 O   0  0  0  0  0  0
  -26.5601  -34.8930   22.4694 O   0  0  0  0  0  0
  -23.5344  -32.1435   23.7504 O   0  0  0  0  0  0
  -30.3924  -17.9506   20.4586 C   0  0  0  0  0  0
  -29.6899  -18.9485   18.3372 C   0  0  0  0  0  0
  -29.2618  -16.5962   18.7674 C   0  0  0  0  0  0
  -30.2994  -19.0833   19.6039 C   0  0  0  0  0  0
  -29.8804  -16.6954   20.0365 C   0  0  0  0  0  0
  -29.1653  -17.7153   17.9242 C   0  0  0  0  0  0
  -30.9238  -20.3742   19.9406 C   0  0  0  0  0  0
  -28.1776  -22.8679   20.2644 C   0  0  0  0  0  0
  -30.3528  -24.0836   20.2933 C   0  0  0  0  0  0
  -28.8352  -21.6807   19.5352 C   0  0  0  0  0  0
  -31.0365  -22.8610   19.6405 C   0  0  0  0  0  0
  -28.8538  -24.2210   19.9560 C   0  0  0  0  0  0
  -28.1770  -25.3716   20.7445 C   0  0  0  0  0  0
  -30.2900  -21.5795   19.8277 N   0  0  0  0  0  0
  -29.9530  -15.5324   20.8636 N   0  0  0  0  0  0
  -32.1988  -20.3467   20.3188 N   0  3  0  0  0  0
  -28.6388  -24.5267   18.5874 O   0  0  0  0  0  0
  -28.5821  -17.6013   16.7067 F   0  0  0  0  0  0
  -31.4682  -12.3730   19.1300 H   0  0  0  0  0  0
  -30.3076  -11.2825   19.8325 H   0  0  0  0  0  0
  -29.7312  -11.7522   17.4383 H   0  0  0  0  0  0
  -29.6807  -13.4648   17.7580 H   0  0  0  0  0  0
  -27.8172  -11.3103   18.8127 H   0  0  0  0  0  0
  -27.3699  -12.6460   17.7877 H   0  0  0  0  0  0
  -27.6899  -14.2452   19.5779 H   0  0  0  0  0  0
  -28.6804  -11.9774   21.3678 H   0  0  0  0  0  0
  -28.4845  -13.6338   21.8594 H   0  0  0  0  0  0
  -25.2752   -9.5686   22.4768 H   0  0  0  0  0  0
  -24.0001   -7.4622   22.7478 H   0  0  0  0  0  0
  -21.0831   -8.8772   19.8960 H   0  0  0  0  0  0
  -22.3686  -10.9673   19.6166 H   0  0  0  0  0  0
  -21.2000   -7.6141   23.9715 H   0  0  0  0  0  0
  -21.1487   -6.0523   25.9085 H   0  0  0  0  0  0
  -22.0599   -2.7600   23.2858 H   0  0  0  0  0  0
  -22.4075  -11.9886   22.4798 H   0  0  0  0  0  0
  -21.1103  -13.1272   22.2583 H   0  0  0  0  0  0
  -24.6668  -15.8429   20.5181 H   0  0  0  0  0  0
  -26.2912  -15.6291   20.1092 H   0  0  0  0  0  0
  -26.7124  -32.5552   23.1183 H   0  0  0  0  0  0
  -25.0096  -33.9790   25.0511 H   0  0  0  0  0  0
  -22.6902  -31.3091   21.4128 H   0  0  0  0  0  0
  -23.3742  -35.9645   23.3306 H   0  0  0  0  0  0
  -24.3577  -36.8917   22.2052 H   0  0  0  0  0  0
  -23.7230  -37.6522   23.6646 H   0  0  0  0  0  0
  -26.0398  -31.6072   20.5941 H   0  0  0  0  0  0
  -26.8182  -30.8927   21.9792 H   0  0  0  0  0  0
  -28.1000  -29.1117   21.1679 H   0  0  0  0  0  0
  -26.0615  -25.9815   19.0052 H   0  0  0  0  0  0
  -23.9770  -27.2967   19.0376 H   0  0  0  0  0  0
  -23.7180  -30.6023   19.4051 H   0  0  0  0  0  0
  -22.7340  -29.2473   19.8704 H   0  0  0  0  0  0
  -25.1269  -36.1981   25.0842 H   0  0  0  0  0  0
  -20.9958  -28.3231   24.1439 H   0  0  0  0  0  0
  -20.5681  -26.2291   23.3606 H   0  0  0  0  0  0
  -21.6638  -26.7465   22.1203 H   0  0  0  0  0  0
  -19.6903  -25.6309   21.1245 H   0  0  0  0  0  0
  -19.6664  -27.3209   20.6756 H   0  0  0  0  0  0
  -17.4196  -26.6697   21.4025 H   0  0  0  0  0  0
  -18.0299  -26.0052   22.9012 H   0  0  0  0  0  0
  -19.7930  -30.7279   24.2263 H   0  0  0  0  0  0
  -17.5010  -31.6260   24.5194 H   0  0  0  0  0  0
  -15.5348  -30.3007   23.7638 H   0  0  0  0  0  0
  -15.8665  -28.0844   22.7049 H   0  0  0  0  0  0
  -24.5907  -30.7077   25.7824 H   0  0  0  0  0  0
  -24.8979  -32.2869   26.4957 H   0  0  0  0  0  0
  -25.8113  -30.8855   27.0223 H   0  0  0  0  0  0
  -26.2867  -29.6791   24.1173 H   0  0  0  0  0  0
  -27.4130  -29.7294   25.4541 H   0  0  0  0  0  0
  -27.8676  -30.4367   23.9214 H   0  0  0  0  0  0
  -27.2642  -33.3614   26.2086 H   0  0  0  0  0  0
  -28.3829  -32.6938   25.0300 H   0  0  0  0  0  0
  -28.0748  -31.8465   26.5377 H   0  0  0  0  0  0
  -28.2609  -38.0097   24.7519 H   0  0  0  0  0  0
  -28.1066  -36.2637   24.6287 H   0  0  0  0  0  0
  -27.2313  -37.1450   25.8878 H   0  0  0  0  0  0
  -20.9315  -29.8772   21.6954 H   0  0  0  0  0  0
  -26.0182  -38.2882   24.1400 H   0  0  0  0  0  0
  -30.8752  -18.0413   21.4223 H   0  0  0  0  0  0
  -29.6483  -19.7853   17.6547 H   0  0  0  0  0  0
  -28.8684  -15.6602   18.4071 H   0  0  0  0  0  0
  -28.1944  -22.6808   21.3392 H   0  0  0  0  0  0
  -27.1225  -22.9069   19.9908 H   0  0  0  0  0  0
  -30.8825  -24.9913   20.0011 H   0  0  0  0  0  0
  -30.4777  -24.0093   21.3745 H   0  0  0  0  0  0
  -28.6916  -21.7900   18.4590 H   0  0  0  0  0  0
  -28.3064  -20.7743   19.8340 H   0  0  0  0  0  0
  -32.0571  -22.8041   20.0179 H   0  0  0  0  0  0
  -31.1299  -23.0370   18.5675 H   0  0  0  0  0  0
  -28.5832  -25.4092   21.7563 H   0  0  0  0  0  0
  -27.1233  -25.1323   20.8889 H   0  0  0  0  0  0
  -29.0816  -15.2666   21.2982 H   0  0  0  0  0  0
  -32.6902  -19.4656   20.3325 H   0  0  0  0  0  0
  -32.6827  -21.1730   20.6243 H   0  0  0  0  0  0
  -28.6920  -25.4773   18.5220 H   0  0  0  0  0  0
  1 25  1  0  0  0
  1 30  2  0  0  0
  1 85  1  0  0  0
  2  3  1  0  0  0
  2 25  1  0  0  0
  2 89  1  0  0  0
  2 90  1  0  0  0
  3  4  1  0  0  0
  3 91  1  0  0  0
  3 92  1  0  0  0
  4  5  1  0  0  0
  4 93  1  0  0  0
  4 94  1  0  0  0
  5  6  1  0  0  0
  5 26  1  0  0  0
  5 95  1  0  0  0
  6 25  1  0  0  0
  6 96  1  0  0  0
  6 97  1  0  0  0
  7  8  2  0  0  0
  7 26  1  0  0  0
  7 29  1  0  0  0
  8  9  1  0  0  0
  8 22  1  0  0  0
  9 10  1  0  0  0
  9 27  2  0  0  0
 10 11  2  0  0  0
 10 15  1  0  0  0
 11 12  1  0  0  0
 11 98  1  0  0  0
 12 13  2  0  0  0
 12 99  1  0  0  0
 13 14  1  0  0  0
 13 31  1  0  0  0
 14 15  2  0  0  0
 14100  1  0  0  0
 15101  1  0  0  0
 16 17  2  0  0  0
 16 21  1  0  0  0
 16 31  1  0  0  0
 17 18  1  0  0  0
 17102  1  0  0  0
 18 19  2  0  0  0
 18103  1  0  0  0
 19 20  1  0  0  0
 19 24  1  0  0  0
 20 21  2  0  0  0
 20104  1  0  0  0
 21 23  1  0  0  0
 22 28  1  0  0  0
 22 32  2  0  0  0
 26 27  1  0  0  0
 28105  1  0  0  0
 28106  1  0  0  0
 29107  1  0  0  0
 29108  1  0  0  0
 33 34  1  0  0  0
 33 66  1  0  0  0
 33 70  2  0  0  0
 34 36  1  0  0  0
 34 59  1  0  0  0
 34109  1  0  0  0
 35 44  2  0  0  0
 35 45  1  0  0  0
 35 68  1  0  0  0
 36 56  1  0  0  0
 36110  1  0  0  0
 37 39  1  0  0  0
 37 47  1  0  0  0
 37 66  1  0  0  0
 37111  1  0  0  0
 38 43  2  0  0  0
 38 46  1  0  0  0
 38 47  1  0  0  0
 39 64  1  0  0  0
 39 67  2  0  0  0
 40 52  1  0  0  0
 40 53  2  0  0  0
 40 58  1  0  0  0
 41112  1  0  0  0
 41113  1  0  0  0
 41114  1  0  0  0
 41 48  1  0  0  0
 42 43  1  0  0  0
 42 66  1  0  0  0
 42115  1  0  0  0
 42116  1  0  0  0
 43 44  1  0  0  0
 44117  1  0  0  0
 45 46  2  0  0  0
 45118  1  0  0  0
 46119  1  0  0  0
 47120  1  0  0  0
 47121  1  0  0  0
 48 56  1  0  0  0
 48 65  1  0  0  0
 48122  1  0  0  0
 49 50  1  0  0  0
 49 53  1  0  0  0
 49 64  1  0  0  0
 49123  1  0  0  0
 50 51  1  0  0  0
 50124  1  0  0  0
 50125  1  0  0  0
 51 52  1  0  0  0
 51126  1  0  0  0
 51127  1  0  0  0
 52128  1  0  0  0
 52129  1  0  0  0
 53 54  1  0  0  0
 54 55  2  0  0  0
 54130  1  0  0  0
 55 57  1  0  0  0
 55131  1  0  0  0
 56 69  2  0  0  0
 57 58  2  0  0  0
 57132  1  0  0  0
 58133  1  0  0  0
 59 60  1  0  0  0
 59 61  1  0  0  0
 59 62  1  0  0  0
 60134  1  0  0  0
 60135  1  0  0  0
 60136  1  0  0  0
 61137  1  0  0  0
 61138  1  0  0  0
 61139  1  0  0  0
 62140  1  0  0  0
 62141  1  0  0  0
 62142  1  0  0  0
 63 65  1  0  0  0
 63143  1  0  0  0
 63144  1  0  0  0
 63145  1  0  0  0
 64146  1  0  0  0
 65147  1  0  0  0
 68 83  1  0  0  0
 71 74  2  0  0  0
 71 75  1  0  0  0
 71148  1  0  0  0
 72 74  1  0  0  0
 72 76  2  0  0  0
 72149  1  0  0  0
 73 75  2  0  0  0
 73 76  1  0  0  0
 73150  1  0  0  0
 74 77  1  0  0  0
 75 85  1  0  0  0
 76 88  1  0  0  0
 77 84  1  0  0  0
 77 86  2  0  0  0
 78 80  1  0  0  0
 78 82  1  0  0  0
 78151  1  0  0  0
 78152  1  0  0  0
 79 81  1  0  0  0
 79 82  1  0  0  0
 79153  1  0  0  0
 79154  1  0  0  0
 80 84  1  0  0  0
 80155  1  0  0  0
 80156  1  0  0  0
 81 84  1  0  0  0
 81157  1  0  0  0
 81158  1  0  0  0
 82 83  1  0  0  0
 82 87  1  0  0  0
 83159  1  0  0  0
 83160  1  0  0  0
 85161  1  0  0  0
 86162  1  0  0  0
 86163  1  0  0  0
 87164  1  0  0  0
M  CHG  1  86   1
M  ISO  4   1 100  68 101  83 101  85 100
M  END
> <chiral flag>
0

> <version>
0

> <s_m_source_file>
/data/baiqing/PycharmProjects/Reinvent-master-3.2/result/LINK_invent/BTK/process_docking_weight1_custom_product_contain_oxygen_bond_distance_aromatic_linkinvent_7_9_3/rearranged_h_0155.sdf

> <i_m_source_file_index>
78

> <r_mmod_Potential_Energy-OPLS-2005>
-174.063323974609

> <r_mmod_Stretch_Energy-OPLS-2005>
40.8405990600586

> <r_mmod_Bend_Energy-OPLS-2005>
99.905029296875

> <r_mmod_Torsional_Energy-OPLS-2005>
348.241760253906

> <r_mmod_Improper_Torsional_Energy-OPLS-2005>
9.36813735961914

> <r_mmod_Van_der_Waal_Energy-OPLS-2005>
165.718521118164

> <r_mmod_Electrostatic_Energy-OPLS-2005>
-443.245056152344

> <r_mmod_Solvation_Energy-OPLS-2005>
-410.227935791016

> <b_mmod_Minimization_Converged-OPLS-2005>
0

> <r_mmod_RMS_Derivative-OPLS-2005>
1.63209068775177

$$$$
78
                    3D
 Structure written by MMmdl.
154163  0  0  1  0            999 V2000
  -30.6180  -14.8006   20.4264 C   0  0  0  0  0  0
  -30.4301  -12.4864   19.4889 C   0  0  0  0  0  0
  -29.5171  -12.5149   18.2438 C   0  0  0  0  0  0
  -28.0422  -12.3364   18.6534 C   0  0  0  0  0  0
  -27.6398  -13.2445   19.8466 C   0  0  2  0  0  0
  -28.6844  -13.2176   20.9844 C   0  0  0  0  0  0
  -25.2503  -13.8213   20.5707 C   0  0  0  0  0  0
  -24.1802  -13.0448   20.9216 C   0  0  0  0  0  0
  -24.6402  -11.6932   20.8746 C   0  0  0  0  0  0
  -23.9076  -10.4308   21.0399 C   0  0  0  0  0  0
  -24.3624   -9.4220   21.9173 C   0  0  0  0  0  0
  -23.6300   -8.2253   22.0744 C   0  0  0  0  0  0
  -22.4281   -8.0288   21.3539 C   0  0  0  0  0  0
  -21.9922   -9.0260   20.4642 C   0  0  0  0  0  0
  -22.7250  -10.2143   20.3050 C   0  0  0  0  0  0
  -21.6854   -6.0740   22.5274 C   0  0  0  0  0  0
  -21.4015   -6.5637   23.8211 C   0  0  0  0  0  0
  -21.3663   -5.6789   24.9170 C   0  0  0  0  0  0
  -21.6045   -4.3049   24.7219 C   0  0  0  0  0  0
  -21.8819   -3.8143   23.4341 C   0  0  0  0  0  0
  -21.9195   -4.6963   22.3400 C   0  0  0  0  0  0
  -22.7825  -13.5227   21.1861 C   0  0  0  0  0  0
  -22.1664   -4.2148   21.0978 F   0  0  0  0  0  0
  -21.5635   -3.4534   25.7735 F   0  0  0  0  0  0
  -29.9816  -13.5732   20.3969 N   0  0  0  0  0  0
  -26.2940  -12.9443   20.3276 N   0  0  0  0  0  0
  -25.9340  -11.6571   20.5739 N   0  0  0  0  0  0
  -22.0463  -12.8226   22.0412 N   0  0  0  0  0  0
  -25.4188  -15.1940   20.4134 N   0  0  0  0  0  0
  -31.8188  -14.8351   20.1463 O   0  0  0  0  0  0
  -21.6642   -6.8886   21.4239 O   0  0  0  0  0  0
  -22.3520  -14.5527   20.6695 O   0  0  0  0  0  0
  -24.6350  -31.8513   23.1939 C   0  0  0  0  0  0
  -25.9163  -32.4725   23.8310 C   0  0  1  0  0  0
  -27.2274  -27.2287   20.1237 C   0  0  0  0  0  0
  -25.5949  -33.8531   24.2239 N   0  0  0  0  0  0
  -23.4350  -30.4723   21.5368 C   0  0  2  0  0  0
  -24.8837  -28.9137   20.1059 C   0  0  0  0  0  0
  -22.7533  -29.4584   22.4880 C   0  0  0  0  0  0
  -18.0300  -28.1388   22.8478 C   0  0  0  0  0  0
  -24.1497  -36.7270   23.2641 C   0  0  0  0  0  0
  -25.9830  -30.7529   21.3794 C   0  0  0  0  0  0
  -26.0562  -29.3729   20.7188 C   0  0  0  0  0  0
  -27.2269  -28.5418   20.7188 C   0  0  0  0  0  0
  -26.0260  -26.8439   19.4856 C   0  0  0  0  0  0
  -24.8760  -27.6585   19.4786 C   0  0  0  0  0  0
  -23.6559  -29.8033   20.1540 C   0  0  0  0  0  0
  -25.4120  -36.3049   24.0328 C   0  0  1  0  0  0
  -20.5906  -28.3707   23.1249 C   0  0  2  0  0  0
  -20.6780  -26.9419   22.5399 C   0  0  0  0  0  0
  -19.5757  -26.6380   21.5205 C   0  0  0  0  0  0
  -18.1940  -26.7932   22.1619 C   0  0  0  0  0  0
  -19.1551  -28.8864   23.2861 C   0  0  0  0  0  0
  -18.9474  -30.1458   23.8884 C   0  0  0  0  0  0
  -17.6472  -30.6587   24.0557 C   0  0  0  0  0  0
  -25.9063  -34.9424   23.5084 C   0  0  0  0  0  0
  -16.5363  -29.9081   23.6329 C   0  0  0  0  0  0
  -16.7284  -28.6499   23.0351 C   0  0  0  0  0  0
  -26.4519  -31.6559   25.0716 C   0  0  0  0  0  0
  -25.3738  -31.3719   26.1435 C   0  0  0  0  0  0
  -27.0369  -30.2964   24.6237 C   0  0  0  0  0  0
  -27.6072  -32.4306   25.7494 C   0  0  0  0  0  0
  -27.5578  -37.1792   24.8463 C   0  0  0  0  0  0
  -21.4231  -29.3048   22.3631 N   0  0  0  0  0  0
  -26.4284  -37.3756   23.9412 N   0  0  0  0  0  0
  -24.7035  -31.0451   22.0926 N   0  0  0  0  0  0
  -23.4212  -28.8129   23.2997 O   0  0  0  0  0  0
  -28.3106  -26.3096   20.2209 O   0  0  0  0  0  0
  -26.5640  -34.8907   22.4657 O   0  0  0  0  0  0
  -23.5491  -32.1349   23.7208 O   0  0  0  0  0  0
  -29.4043  -18.6123   20.5757 C   0  0  0  0  0  0
  -30.7928  -20.0910   19.2327 C   0  0  0  0  0  0
  -31.2385  -17.6721   19.2972 C   0  0  0  0  0  0
  -29.6920  -19.9789   20.1083 C   0  0  0  0  0  0
  -30.1655  -17.4126   20.1850 C   0  0  0  0  0  0
  -31.5466  -18.9689   18.8404 C   0  0  0  0  0  0
  -28.6523  -23.7450   20.2129 C   0  0  0  0  0  0
  -28.2686  -24.9802   19.6780 C   0  0  0  0  0  0
  -29.1529  -23.4444   21.6063 C   0  0  0  0  0  0
  -28.6547  -22.3304   19.5247 C   0  0  0  0  0  0
  -29.5969  -21.9410   21.6265 C   0  0  0  0  0  0
  -29.0058  -21.2191   20.4887 N   0  0  0  0  0  0
  -29.8769  -15.9828   20.5915 N   0  0  0  0  0  0
  -32.5972  -19.1414   18.0013 F   0  0  0  0  0  0
  -31.4736  -12.5989   19.1885 H   0  0  0  0  0  0
  -30.3712  -11.5201   19.9918 H   0  0  0  0  0  0
  -29.8088  -11.7323   17.5418 H   0  0  0  0  0  0
  -29.6411  -13.4616   17.7160 H   0  0  0  0  0  0
  -27.9012  -11.2884   18.9203 H   0  0  0  0  0  0
  -27.3880  -12.5224   17.8006 H   0  0  0  0  0  0
  -27.6218  -14.2598   19.4486 H   0  0  0  0  0  0
  -28.7330  -12.2326   21.4523 H   0  0  0  0  0  0
  -28.4112  -13.9218   21.7721 H   0  0  0  0  0  0
  -25.2763   -9.5696   22.4750 H   0  0  0  0  0  0
  -24.0004   -7.4650   22.7466 H   0  0  0  0  0  0
  -21.0850   -8.8783   19.8962 H   0  0  0  0  0  0
  -22.3698  -10.9678   19.6162 H   0  0  0  0  0  0
  -21.2004   -7.6146   23.9714 H   0  0  0  0  0  0
  -21.1488   -6.0516   25.9077 H   0  0  0  0  0  0
  -22.0596   -2.7605   23.2833 H   0  0  0  0  0  0
  -22.4079  -11.9896   22.4818 H   0  0  0  0  0  0
  -21.1074  -13.1252   22.2591 H   0  0  0  0  0  0
  -24.6470  -15.8439   20.5171 H   0  0  0  0  0  0
  -26.2609  -15.6345   20.0651 H   0  0  0  0  0  0
  -26.7237  -32.5370   23.1055 H   0  0  0  0  0  0
  -25.0097  -33.9663   25.0386 H   0  0  0  0  0  0
  -22.7329  -31.2946   21.3861 H   0  0  0  0  0  0
  -23.3758  -35.9601   23.3289 H   0  0  0  0  0  0
  -24.3589  -36.8904   22.2054 H   0  0  0  0  0  0
  -23.7248  -37.6469   23.6673 H   0  0  0  0  0  0
  -26.1300  -31.5129   20.6104 H   0  0  0  0  0  0
  -26.8570  -30.8001   22.0179 H   0  0  0  0  0  0
  -28.1219  -28.8837   21.2198 H   0  0  0  0  0  0
  -25.9373  -25.8755   19.0164 H   0  0  0  0  0  0
  -23.9765  -27.2990   18.9979 H   0  0  0  0  0  0
  -23.7842  -30.5765   19.3957 H   0  0  0  0  0  0
  -22.7741  -29.2371   19.8490 H   0  0  0  0  0  0
  -25.1303  -36.1887   25.0821 H   0  0  0  0  0  0
  -21.0007  -28.3295   24.1367 H   0  0  0  0  0  0
  -20.5662  -26.2331   23.3617 H   0  0  0  0  0  0
  -21.6653  -26.7431   22.1206 H   0  0  0  0  0  0
  -19.6919  -25.6287   21.1244 H   0  0  0  0  0  0
  -19.6687  -27.3182   20.6728 H   0  0  0  0  0  0
  -17.4210  -26.6678   21.4019 H   0  0  0  0  0  0
  -18.0341  -26.0070   22.9013 H   0  0  0  0  0  0
  -19.7950  -30.7274   24.2254 H   0  0  0  0  0  0
  -17.5027  -31.6265   24.5160 H   0  0  0  0  0  0
  -15.5361  -30.2978   23.7653 H   0  0  0  0  0  0
  -15.8690  -28.0808   22.7074 H   0  0  0  0  0  0
  -24.5924  -30.7052   25.7768 H   0  0  0  0  0  0
  -24.8914  -32.2883   26.4843 H   0  0  0  0  0  0
  -25.8054  -30.8915   27.0225 H   0  0  0  0  0  0
  -26.2958  -29.6695   24.1259 H   0  0  0  0  0  0
  -27.4024  -29.7249   25.4781 H   0  0  0  0  0  0
  -27.8856  -30.4213   23.9506 H   0  0  0  0  0  0
  -27.2683  -33.3617   26.2049 H   0  0  0  0  0  0
  -28.3895  -32.6843   25.0329 H   0  0  0  0  0  0
  -28.0728  -31.8443   26.5426 H   0  0  0  0  0  0
  -28.2587  -38.0098   24.7516 H   0  0  0  0  0  0
  -28.1085  -36.2631   24.6279 H   0  0  0  0  0  0
  -27.2306  -37.1426   25.8868 H   0  0  0  0  0  0
  -20.9427  -29.8779   21.6837 H   0  0  0  0  0  0
  -26.0159  -38.2830   24.1401 H   0  0  0  0  0  0
  -28.5717  -18.4851   21.2534 H   0  0  0  0  0  0
  -31.0973  -21.0562   18.8569 H   0  0  0  0  0  0
  -31.8607  -16.8762   18.9213 H   0  0  0  0  0  0
  -27.9428  -25.0171   18.6479 H   0  0  0  0  0  0
  -28.3291  -23.6025   22.3025 H   0  0  0  0  0  0
  -29.9629  -24.1161   21.8919 H   0  0  0  0  0  0
  -29.3497  -22.3568   18.6854 H   0  0  0  0  0  0
  -27.6668  -22.1422   19.1023 H   0  0  0  0  0  0
  -29.3213  -21.4675   22.5706 H   0  0  0  0  0  0
  -30.6856  -21.8884   21.5559 H   0  0  0  0  0  0
  -28.9469  -15.8254   20.9477 H   0  0  0  0  0  0
  1 25  1  0  0  0
  1 30  2  0  0  0
  1 83  1  0  0  0
  2  3  1  0  0  0
  2 25  1  0  0  0
  2 85  1  0  0  0
  2 86  1  0  0  0
  3  4  1  0  0  0
  3 87  1  0  0  0
  3 88  1  0  0  0
  4  5  1  0  0  0
  4 89  1  0  0  0
  4 90  1  0  0  0
  5  6  1  0  0  0
  5 26  1  0  0  0
  5 91  1  0  0  0
  6 25  1  0  0  0
  6 92  1  0  0  0
  6 93  1  0  0  0
  7  8  2  0  0  0
  7 26  1  0  0  0
  7 29  1  0  0  0
  8  9  1  0  0  0
  8 22  1  0  0  0
  9 10  1  0  0  0
  9 27  2  0  0  0
 10 11  2  0  0  0
 10 15  1  0  0  0
 11 12  1  0  0  0
 11 94  1  0  0  0
 12 13  2  0  0  0
 12 95  1  0  0  0
 13 14  1  0  0  0
 13 31  1  0  0  0
 14 15  2  0  0  0
 14 96  1  0  0  0
 15 97  1  0  0  0
 16 17  2  0  0  0
 16 21  1  0  0  0
 16 31  1  0  0  0
 17 18  1  0  0  0
 17 98  1  0  0  0
 18 19  2  0  0  0
 18 99  1  0  0  0
 19 20  1  0  0  0
 19 24  1  0  0  0
 20 21  2  0  0  0
 20100  1  0  0  0
 21 23  1  0  0  0
 22 28  1  0  0  0
 22 32  2  0  0  0
 26 27  1  0  0  0
 28101  1  0  0  0
 28102  1  0  0  0
 29103  1  0  0  0
 29104  1  0  0  0
 33 34  1  0  0  0
 33 66  1  0  0  0
 33 70  2  0  0  0
 34 36  1  0  0  0
 34 59  1  0  0  0
 34105  1  0  0  0
 35 44  2  0  0  0
 35 45  1  0  0  0
 35 68  1  0  0  0
 36 56  1  0  0  0
 36106  1  0  0  0
 37 39  1  0  0  0
 37 47  1  0  0  0
 37 66  1  0  0  0
 37107  1  0  0  0
 38 43  2  0  0  0
 38 46  1  0  0  0
 38 47  1  0  0  0
 39 64  1  0  0  0
 39 67  2  0  0  0
 40 52  1  0  0  0
 40 53  2  0  0  0
 40 58  1  0  0  0
 41108  1  0  0  0
 41109  1  0  0  0
 41110  1  0  0  0
 41 48  1  0  0  0
 42 43  1  0  0  0
 42 66  1  0  0  0
 42111  1  0  0  0
 42112  1  0  0  0
 43 44  1  0  0  0
 44113  1  0  0  0
 45 46  2  0  0  0
 45114  1  0  0  0
 46115  1  0  0  0
 47116  1  0  0  0
 47117  1  0  0  0
 48 56  1  0  0  0
 48 65  1  0  0  0
 48118  1  0  0  0
 49 50  1  0  0  0
 49 53  1  0  0  0
 49 64  1  0  0  0
 49119  1  0  0  0
 50 51  1  0  0  0
 50120  1  0  0  0
 50121  1  0  0  0
 51 52  1  0  0  0
 51122  1  0  0  0
 51123  1  0  0  0
 52124  1  0  0  0
 52125  1  0  0  0
 53 54  1  0  0  0
 54 55  2  0  0  0
 54126  1  0  0  0
 55 57  1  0  0  0
 55127  1  0  0  0
 56 69  2  0  0  0
 57 58  2  0  0  0
 57128  1  0  0  0
 58129  1  0  0  0
 59 60  1  0  0  0
 59 61  1  0  0  0
 59 62  1  0  0  0
 60130  1  0  0  0
 60131  1  0  0  0
 60132  1  0  0  0
 61133  1  0  0  0
 61134  1  0  0  0
 61135  1  0  0  0
 62136  1  0  0  0
 62137  1  0  0  0
 62138  1  0  0  0
 63 65  1  0  0  0
 63139  1  0  0  0
 63140  1  0  0  0
 63141  1  0  0  0
 64142  1  0  0  0
 65143  1  0  0  0
 68 78  1  0  0  0
 71 74  2  0  0  0
 71 75  1  0  0  0
 71144  1  0  0  0
 72 74  1  0  0  0
 72 76  2  0  0  0
 72145  1  0  0  0
 73 75  2  0  0  0
 73 76  1  0  0  0
 73146  1  0  0  0
 74 82  1  0  0  0
 75 83  1  0  0  0
 76 84  1  0  0  0
 77 78  2  0  0  0
 77 79  1  0  0  0
 77 80  1  0  0  0
 78147  1  0  0  0
 79 81  1  0  0  0
 79148  1  0  0  0
 79149  1  0  0  0
 80 82  1  0  0  0
 80150  1  0  0  0
 80151  1  0  0  0
 81 82  1  0  0  0
 81152  1  0  0  0
 81153  1  0  0  0
 83154  1  0  0  0
M  ISO  4   1 100  68 101  78 101  83 100
M  END
> <chiral flag>
0

> <version>
0

> <s_m_source_file>
/data/baiqing/PycharmProjects/Reinvent-master-3.2/result/LINK_invent/BTK/process_docking_weight1_custom_product_contain_oxygen_bond_distance_aromatic_linkinvent_7_9_3/rearranged_h_0155.sdf

> <i_m_source_file_index>
79

> <r_mmod_Potential_Energy-OPLS-2005>
316.026245117188

> <r_mmod_Stretch_Energy-OPLS-2005>
143.226623535156

> <r_mmod_Bend_Energy-OPLS-2005>
197.0732421875

> <r_mmod_Torsional_Energy-OPLS-2005>
262.226257324219

> <r_mmod_Improper_Torsional_Energy-OPLS-2005>
9.44891929626465

> <r_mmod_Van_der_Waal_Energy-OPLS-2005>
139.074951171875

> <r_mmod_Electrostatic_Energy-OPLS-2005>
-322.344451904297

> <r_mmod_Solvation_Energy-OPLS-2005>
-223.49870300293

> <b_mmod_Minimization_Converged-OPLS-2005>
0

> <r_mmod_RMS_Derivative-OPLS-2005>
1.43954408168793

$$$$
79
                    3D
 Structure written by MMmdl.
153162  0  0  1  0            999 V2000
  -30.6492  -14.7562   20.4678 C   0  0  0  0  0  0
  -30.4197  -12.4666   19.4806 C   0  0  0  0  0  0
  -29.5013  -12.4934   18.2403 C   0  0  0  0  0  0
  -28.0327  -12.3146   18.6617 C   0  0  0  0  0  0
  -27.6363  -13.2369   19.8447 C   0  0  2  0  0  0
  -28.6803  -13.2111   20.9833 C   0  0  0  0  0  0
  -25.2493  -13.8205   20.5707 C   0  0  0  0  0  0
  -24.1789  -13.0448   20.9220 C   0  0  0  0  0  0
  -24.6391  -11.6929   20.8766 C   0  0  0  0  0  0
  -23.9074  -10.4299   21.0413 C   0  0  0  0  0  0
  -24.3625   -9.4210   21.9190 C   0  0  0  0  0  0
  -23.6297   -8.2242   22.0754 C   0  0  0  0  0  0
  -22.4282   -8.0277   21.3538 C   0  0  0  0  0  0
  -21.9918   -9.0256   20.4642 C   0  0  0  0  0  0
  -22.7248  -10.2134   20.3055 C   0  0  0  0  0  0
  -21.6851   -6.0739   22.5282 C   0  0  0  0  0  0
  -21.4015   -6.5649   23.8213 C   0  0  0  0  0  0
  -21.3655   -5.6798   24.9172 C   0  0  0  0  0  0
  -21.6042   -4.3062   24.7221 C   0  0  0  0  0  0
  -21.8817   -3.8158   23.4343 C   0  0  0  0  0  0
  -21.9193   -4.6967   22.3402 C   0  0  0  0  0  0
  -22.7811  -13.5215   21.1884 C   0  0  0  0  0  0
  -22.1664   -4.2155   21.0978 F   0  0  0  0  0  0
  -21.5621   -3.4549   25.7739 F   0  0  0  0  0  0
  -29.9789  -13.5524   20.3922 N   0  0  0  0  0  0
  -26.2915  -12.9424   20.3275 N   0  0  0  0  0  0
  -25.9324  -11.6567   20.5773 N   0  0  0  0  0  0
  -22.0479  -12.8185   22.0435 N   0  0  0  0  0  0
  -25.4197  -15.1923   20.4126 N   0  0  0  0  0  0
  -31.8312  -14.7963   20.1191 O   0  0  0  0  0  0
  -21.6639   -6.8879   21.4242 O   0  0  0  0  0  0
  -22.3492  -14.5524   20.6741 O   0  0  0  0  0  0
  -24.6350  -31.8522   23.1967 C   0  0  0  0  0  0
  -25.9165  -32.4738   23.8336 C   0  0  1  0  0  0
  -27.2159  -27.2242   20.1259 C   0  0  0  0  0  0
  -25.5941  -33.8547   24.2224 N   0  0  0  0  0  0
  -23.4347  -30.4745   21.5398 C   0  0  2  0  0  0
  -24.8833  -28.9242   20.1062 C   0  0  0  0  0  0
  -22.7533  -29.4580   22.4893 C   0  0  0  0  0  0
  -18.0287  -28.1394   22.8482 C   0  0  0  0  0  0
  -24.1492  -36.7272   23.2644 C   0  0  0  0  0  0
  -25.9869  -30.7476   21.3907 C   0  0  0  0  0  0
  -26.0549  -29.3708   20.7278 C   0  0  0  0  0  0
  -27.2198  -28.5314   20.7316 C   0  0  0  0  0  0
  -26.0248  -26.8728   19.4476 C   0  0  0  0  0  0
  -24.8768  -27.6858   19.4530 C   0  0  0  0  0  0
  -23.6538  -29.8111   20.1561 C   0  0  0  0  0  0
  -25.4126  -36.3051   24.0310 C   0  0  1  0  0  0
  -20.5897  -28.3705   23.1255 C   0  0  2  0  0  0
  -20.6776  -26.9414   22.5401 C   0  0  0  0  0  0
  -19.5743  -26.6373   21.5220 C   0  0  0  0  0  0
  -18.1918  -26.7934   22.1623 C   0  0  0  0  0  0
  -19.1544  -28.8869   23.2858 C   0  0  0  0  0  0
  -18.9468  -30.1469   23.8876 C   0  0  0  0  0  0
  -17.6469  -30.6592   24.0556 C   0  0  0  0  0  0
  -25.9068  -34.9425   23.5066 C   0  0  0  0  0  0
  -16.5357  -29.9077   23.6347 C   0  0  0  0  0  0
  -16.7274  -28.6501   23.0360 C   0  0  0  0  0  0
  -26.4519  -31.6602   25.0754 C   0  0  0  0  0  0
  -25.3713  -31.3764   26.1449 C   0  0  0  0  0  0
  -27.0396  -30.3009   24.6314 C   0  0  0  0  0  0
  -27.6045  -32.4401   25.7505 C   0  0  0  0  0  0
  -27.5574  -37.1779   24.8463 C   0  0  0  0  0  0
  -21.4230  -29.3043   22.3645 N   0  0  0  0  0  0
  -26.4289  -37.3756   23.9395 N   0  0  0  0  0  0
  -24.7034  -31.0456   22.0967 N   0  0  0  0  0  0
  -23.4211  -28.8115   23.3004 O   0  0  0  0  0  0
  -28.2962  -26.3012   20.2277 O   0  0  0  0  0  0
  -26.5648  -34.8901   22.4636 O   0  0  0  0  0  0
  -23.5489  -32.1364   23.7229 O   0  0  0  0  0  0
  -29.5319  -19.8618   20.1415 C   0  0  0  0  0  0
  -29.8541  -18.7350   21.0496 C   0  0  0  0  0  0
  -29.1609  -21.1029   20.7238 C   0  0  0  0  0  0
  -29.6750  -19.1785   22.3370 C   0  0  0  0  0  0
  -28.7627  -23.6532   20.6463 C   0  0  0  0  0  0
  -31.6002  -17.3038   22.0586 C   0  0  0  0  0  0
  -30.8249  -17.4234   23.3952 C   0  0  0  0  0  0
  -30.6239  -17.3460   20.8511 C   0  0  1  0  0  0
  -28.1906  -24.8608   19.7469 C   0  0  0  0  0  0
  -28.8594  -22.3542   20.1344 N   0  0  0  0  0  0
  -29.9816  -15.9455   20.7649 N   0  0  0  0  0  0
  -29.1075  -23.9103   21.8038 O   0  0  0  0  0  0
  -30.0403  -18.6174   23.5122 O   0  0  0  0  0  0
  -29.0867  -20.8296   22.4562 S   0  0  0  0  0  0
  -31.4621  -12.5683   19.1746 H   0  0  0  0  0  0
  -30.3547  -11.5014   19.9855 H   0  0  0  0  0  0
  -29.7857  -11.7039   17.5432 H   0  0  0  0  0  0
  -29.6214  -13.4358   17.7035 H   0  0  0  0  0  0
  -27.9047  -11.2713   18.9517 H   0  0  0  0  0  0
  -27.3681  -12.4743   17.8121 H   0  0  0  0  0  0
  -27.6199  -14.2489   19.4387 H   0  0  0  0  0  0
  -28.7206  -12.2296   21.4572 H   0  0  0  0  0  0
  -28.4112  -13.9213   21.7672 H   0  0  0  0  0  0
  -25.2768   -9.5679   22.4771 H   0  0  0  0  0  0
  -24.0011   -7.4624   22.7472 H   0  0  0  0  0  0
  -21.0857   -8.8773   19.8942 H   0  0  0  0  0  0
  -22.3717  -10.9674   19.6166 H   0  0  0  0  0  0
  -21.2016   -7.6156   23.9715 H   0  0  0  0  0  0
  -21.1472   -6.0534   25.9073 H   0  0  0  0  0  0
  -22.0598   -2.7623   23.2845 H   0  0  0  0  0  0
  -22.4123  -11.9839   22.4789 H   0  0  0  0  0  0
  -21.1091  -13.1179   22.2668 H   0  0  0  0  0  0
  -24.6542  -15.8480   20.5233 H   0  0  0  0  0  0
  -26.2659  -15.6299   20.0722 H   0  0  0  0  0  0
  -26.7229  -32.5359   23.1063 H   0  0  0  0  0  0
  -25.0110  -33.9703   25.0388 H   0  0  0  0  0  0
  -22.7304  -31.2955   21.3902 H   0  0  0  0  0  0
  -23.3755  -35.9602   23.3304 H   0  0  0  0  0  0
  -24.3584  -36.8909   22.2059 H   0  0  0  0  0  0
  -23.7236  -37.6460   23.6696 H   0  0  0  0  0  0
  -26.1477  -31.5100   20.6269 H   0  0  0  0  0  0
  -26.8574  -30.7862   22.0341 H   0  0  0  0  0  0
  -28.1108  -28.8618   21.2454 H   0  0  0  0  0  0
  -25.9211  -25.9503   18.9012 H   0  0  0  0  0  0
  -23.9886  -27.3464   18.9398 H   0  0  0  0  0  0
  -23.7721  -30.5860   19.3978 H   0  0  0  0  0  0
  -22.7755  -29.2381   19.8544 H   0  0  0  0  0  0
  -25.1304  -36.1893   25.0798 H   0  0  0  0  0  0
  -21.0002  -28.3291   24.1374 H   0  0  0  0  0  0
  -20.5707  -26.2304   23.3605 H   0  0  0  0  0  0
  -21.6628  -26.7437   22.1155 H   0  0  0  0  0  0
  -19.6898  -25.6284   21.1241 H   0  0  0  0  0  0
  -19.6681  -27.3188   20.6753 H   0  0  0  0  0  0
  -17.4186  -26.6700   21.4016 H   0  0  0  0  0  0
  -18.0300  -26.0071   22.9014 H   0  0  0  0  0  0
  -19.7948  -30.7292   24.2228 H   0  0  0  0  0  0
  -17.5014  -31.6280   24.5145 H   0  0  0  0  0  0
  -15.5354  -30.2963   23.7703 H   0  0  0  0  0  0
  -15.8665  -28.0816   22.7088 H   0  0  0  0  0  0
  -24.5887  -30.7127   25.7747 H   0  0  0  0  0  0
  -24.8918  -32.2943   26.4873 H   0  0  0  0  0  0
  -25.7997  -30.8923   27.0231 H   0  0  0  0  0  0
  -26.3025  -29.6712   24.1317 H   0  0  0  0  0  0
  -27.4021  -29.7325   25.4888 H   0  0  0  0  0  0
  -27.8919  -30.4254   23.9624 H   0  0  0  0  0  0
  -27.2643  -33.3735   26.1998 H   0  0  0  0  0  0
  -28.3874  -32.6922   25.0338 H   0  0  0  0  0  0
  -28.0690  -31.8599   26.5477 H   0  0  0  0  0  0
  -28.2570  -38.0093   24.7525 H   0  0  0  0  0  0
  -28.1088  -36.2617   24.6287 H   0  0  0  0  0  0
  -27.2288  -37.1421   25.8865 H   0  0  0  0  0  0
  -20.9437  -29.8784   21.6846 H   0  0  0  0  0  0
  -26.0164  -38.2822   24.1412 H   0  0  0  0  0  0
  -29.6713  -19.7383   19.0772 H   0  0  0  0  0  0
  -32.2182  -16.4069   22.0713 H   0  0  0  0  0  0
  -32.3088  -18.1308   21.9834 H   0  0  0  0  0  0
  -31.5300  -17.3999   24.2265 H   0  0  0  0  0  0
  -30.1707  -16.5614   23.5258 H   0  0  0  0  0  0
  -31.2244  -17.4362   19.9451 H   0  0  0  0  0  0
  -27.1634  -24.5503   19.5865 H   0  0  0  0  0  0
  -28.6768  -24.8090   18.7722 H   0  0  0  0  0  0
  -28.6564  -22.3097   19.1442 H   0  0  0  0  0  0
  -28.9952  -15.8815   20.9643 H   0  0  0  0  0  0
  1 25  1  0  0  0
  1 30  2  0  0  0
  1 81  1  0  0  0
  2  3  1  0  0  0
  2 25  1  0  0  0
  2 85  1  0  0  0
  2 86  1  0  0  0
  3  4  1  0  0  0
  3 87  1  0  0  0
  3 88  1  0  0  0
  4  5  1  0  0  0
  4 89  1  0  0  0
  4 90  1  0  0  0
  5  6  1  0  0  0
  5 26  1  0  0  0
  5 91  1  0  0  0
  6 25  1  0  0  0
  6 92  1  0  0  0
  6 93  1  0  0  0
  7  8  2  0  0  0
  7 26  1  0  0  0
  7 29  1  0  0  0
  8  9  1  0  0  0
  8 22  1  0  0  0
  9 10  1  0  0  0
  9 27  2  0  0  0
 10 11  2  0  0  0
 10 15  1  0  0  0
 11 12  1  0  0  0
 11 94  1  0  0  0
 12 13  2  0  0  0
 12 95  1  0  0  0
 13 14  1  0  0  0
 13 31  1  0  0  0
 14 15  2  0  0  0
 14 96  1  0  0  0
 15 97  1  0  0  0
 16 17  2  0  0  0
 16 21  1  0  0  0
 16 31  1  0  0  0
 17 18  1  0  0  0
 17 98  1  0  0  0
 18 19  2  0  0  0
 18 99  1  0  0  0
 19 20  1  0  0  0
 19 24  1  0  0  0
 20 21  2  0  0  0
 20100  1  0  0  0
 21 23  1  0  0  0
 22 28  1  0  0  0
 22 32  2  0  0  0
 26 27  1  0  0  0
 28101  1  0  0  0
 28102  1  0  0  0
 29103  1  0  0  0
 29104  1  0  0  0
 33 34  1  0  0  0
 33 66  1  0  0  0
 33 70  2  0  0  0
 34 36  1  0  0  0
 34 59  1  0  0  0
 34105  1  0  0  0
 35 44  2  0  0  0
 35 45  1  0  0  0
 35 68  1  0  0  0
 36 56  1  0  0  0
 36106  1  0  0  0
 37 39  1  0  0  0
 37 47  1  0  0  0
 37 66  1  0  0  0
 37107  1  0  0  0
 38 43  2  0  0  0
 38 46  1  0  0  0
 38 47  1  0  0  0
 39 64  1  0  0  0
 39 67  2  0  0  0
 40 52  1  0  0  0
 40 53  2  0  0  0
 40 58  1  0  0  0
 41108  1  0  0  0
 41109  1  0  0  0
 41110  1  0  0  0
 41 48  1  0  0  0
 42 43  1  0  0  0
 42 66  1  0  0  0
 42111  1  0  0  0
 42112  1  0  0  0
 43 44  1  0  0  0
 44113  1  0  0  0
 45 46  2  0  0  0
 45114  1  0  0  0
 46115  1  0  0  0
 47116  1  0  0  0
 47117  1  0  0  0
 48 56  1  0  0  0
 48 65  1  0  0  0
 48118  1  0  0  0
 49 50  1  0  0  0
 49 53  1  0  0  0
 49 64  1  0  0  0
 49119  1  0  0  0
 50 51  1  0  0  0
 50120  1  0  0  0
 50121  1  0  0  0
 51 52  1  0  0  0
 51122  1  0  0  0
 51123  1  0  0  0
 52124  1  0  0  0
 52125  1  0  0  0
 53 54  1  0  0  0
 54 55  2  0  0  0
 54126  1  0  0  0
 55 57  1  0  0  0
 55127  1  0  0  0
 56 69  2  0  0  0
 57 58  2  0  0  0
 57128  1  0  0  0
 58129  1  0  0  0
 59 60  1  0  0  0
 59 61  1  0  0  0
 59 62  1  0  0  0
 60130  1  0  0  0
 60131  1  0  0  0
 60132  1  0  0  0
 61133  1  0  0  0
 61134  1  0  0  0
 61135  1  0  0  0
 62136  1  0  0  0
 62137  1  0  0  0
 62138  1  0  0  0
 63 65  1  0  0  0
 63139  1  0  0  0
 63140  1  0  0  0
 63141  1  0  0  0
 64142  1  0  0  0
 65143  1  0  0  0
 68 79  1  0  0  0
 71 72  1  0  0  0
 71 73  2  0  0  0
 71144  1  0  0  0
 72 74  2  0  0  0
 72 78  1  0  0  0
 73 80  1  0  0  0
 73 84  1  0  0  0
 74 83  1  0  0  0
 74 84  1  0  0  0
 75 79  1  0  0  0
 75 80  1  0  0  0
 75 82  2  0  0  0
 76 77  1  0  0  0
 76 78  1  0  0  0
 76145  1  0  0  0
 76146  1  0  0  0
 77 83  1  0  0  0
 77147  1  0  0  0
 77148  1  0  0  0
 78 81  1  0  0  0
 78149  1  0  0  0
 79150  1  0  0  0
 79151  1  0  0  0
 80152  1  0  0  0
 81153  1  0  0  0
M  ISO  4   1 100  68 101  79 101  81 100
M  END
> <chiral flag>
0

> <version>
0

> <s_m_source_file>
/data/baiqing/PycharmProjects/Reinvent-master-3.2/result/LINK_invent/BTK/process_docking_weight1_custom_product_contain_oxygen_bond_distance_aromatic_linkinvent_7_9_3/rearranged_h_0155.sdf

> <i_m_source_file_index>
80

> <r_mmod_Potential_Energy-OPLS-2005>
163.98860168457

> <r_mmod_Stretch_Energy-OPLS-2005>
140.314208984375

> <r_mmod_Bend_Energy-OPLS-2005>
207.707473754883

> <r_mmod_Torsional_Energy-OPLS-2005>
215.754531860352

> <r_mmod_Improper_Torsional_Energy-OPLS-2005>
7.00328016281128

> <r_mmod_Van_der_Waal_Energy-OPLS-2005>
140.19548034668

> <r_mmod_Electrostatic_Energy-OPLS-2005>
-389.891571044922

> <r_mmod_Solvation_Energy-OPLS-2005>
-259.78857421875

> <b_mmod_Minimization_Converged-OPLS-2005>
0

> <r_mmod_RMS_Derivative-OPLS-2005>
2.0890634059906

$$$$
80
                    3D
 Structure written by MMmdl.
155164  0  0  1  0            999 V2000
  -30.5855  -14.7695   20.5270 C   0  0  0  0  0  0
  -30.4511  -12.4944   19.4541 C   0  0  0  0  0  0
  -29.5086  -12.5342   18.2277 C   0  0  0  0  0  0
  -28.0346  -12.3453   18.6431 C   0  0  0  0  0  0
  -27.6503  -13.2177   19.8683 C   0  0  2  0  0  0
  -28.7042  -13.0544   20.9837 C   0  0  0  0  0  0
  -25.2548  -13.8170   20.5724 C   0  0  0  0  0  0
  -24.1813  -13.0433   20.9191 C   0  0  0  0  0  0
  -24.6378  -11.6909   20.8739 C   0  0  0  0  0  0
  -23.9057  -10.4293   21.0406 C   0  0  0  0  0  0
  -24.3613   -9.4210   21.9183 C   0  0  0  0  0  0
  -23.6286   -8.2248   22.0760 C   0  0  0  0  0  0
  -22.4267   -8.0289   21.3548 C   0  0  0  0  0  0
  -21.9898   -9.0262   20.4649 C   0  0  0  0  0  0
  -22.7230  -10.2139   20.3055 C   0  0  0  0  0  0
  -21.6847   -6.0735   22.5281 C   0  0  0  0  0  0
  -21.4013   -6.5642   23.8213 C   0  0  0  0  0  0
  -21.3658   -5.6796   24.9178 C   0  0  0  0  0  0
  -21.6039   -4.3056   24.7226 C   0  0  0  0  0  0
  -21.8819   -3.8148   23.4348 C   0  0  0  0  0  0
  -21.9189   -4.6965   22.3404 C   0  0  0  0  0  0
  -22.7834  -13.5241   21.1840 C   0  0  0  0  0  0
  -22.1656   -4.2152   21.0979 F   0  0  0  0  0  0
  -21.5626   -3.4539   25.7734 F   0  0  0  0  0  0
  -29.9857  -13.5193   20.4267 N   0  0  0  0  0  0
  -26.2979  -12.9345   20.3370 N   0  0  0  0  0  0
  -25.9310  -11.6499   20.5768 N   0  0  0  0  0  0
  -22.0462  -12.8254   22.0405 N   0  0  0  0  0  0
  -25.4262  -15.1895   20.4182 N   0  0  0  0  0  0
  -31.7401  -14.8945   20.0982 O   0  0  0  0  0  0
  -21.6637   -6.8881   21.4242 O   0  0  0  0  0  0
  -22.3528  -14.5538   20.6673 O   0  0  0  0  0  0
  -24.6339  -31.8530   23.1967 C   0  0  0  0  0  0
  -25.9158  -32.4739   23.8311 C   0  0  1  0  0  0
  -27.2252  -27.2496   20.1242 C   0  0  0  0  0  0
  -25.5956  -33.8542   24.2246 N   0  0  0  0  0  0
  -23.4311  -30.4764   21.5397 C   0  0  2  0  0  0
  -24.8797  -28.9217   20.1121 C   0  0  0  0  0  0
  -22.7520  -29.4598   22.4895 C   0  0  0  0  0  0
  -18.0307  -28.1378   22.8481 C   0  0  0  0  0  0
  -24.1492  -36.7280   23.2635 C   0  0  0  0  0  0
  -25.9793  -30.7644   21.3768 C   0  0  0  0  0  0
  -26.0540  -29.3859   20.7179 C   0  0  0  0  0  0
  -27.2297  -28.5638   20.7101 C   0  0  0  0  0  0
  -26.0221  -26.8605   19.4891 C   0  0  0  0  0  0
  -24.8689  -27.6667   19.4895 C   0  0  0  0  0  0
  -23.6519  -29.8100   20.1575 C   0  0  0  0  0  0
  -25.4117  -36.3057   24.0320 C   0  0  1  0  0  0
  -20.5905  -28.3717   23.1275 C   0  0  2  0  0  0
  -20.6799  -26.9421   22.5434 C   0  0  0  0  0  0
  -19.5792  -26.6372   21.5226 C   0  0  0  0  0  0
  -18.1969  -26.7919   22.1629 C   0  0  0  0  0  0
  -19.1551  -28.8862   23.2869 C   0  0  0  0  0  0
  -18.9458  -30.1464   23.8876 C   0  0  0  0  0  0
  -17.6456  -30.6584   24.0540 C   0  0  0  0  0  0
  -25.9058  -34.9427   23.5082 C   0  0  0  0  0  0
  -16.5355  -29.9071   23.6315 C   0  0  0  0  0  0
  -16.7292  -28.6483   23.0348 C   0  0  0  0  0  0
  -26.4520  -31.6571   25.0708 C   0  0  0  0  0  0
  -25.3740  -31.3735   26.1432 C   0  0  0  0  0  0
  -27.0372  -30.2984   24.6202 C   0  0  0  0  0  0
  -27.6066  -32.4318   25.7495 C   0  0  0  0  0  0
  -27.5577  -37.1797   24.8465 C   0  0  0  0  0  0
  -21.4220  -29.3060   22.3654 N   0  0  0  0  0  0
  -26.4289  -37.3757   23.9408 N   0  0  0  0  0  0
  -24.7004  -31.0489   22.0943 N   0  0  0  0  0  0
  -23.4211  -28.8133   23.2999 O   0  0  0  0  0  0
  -28.3148  -26.3388   20.1845 O   0  0  0  0  0  0
  -26.5623  -34.8903   22.4644 O   0  0  0  0  0  0
  -23.5486  -32.1357   23.7256 O   0  0  0  0  0  0
  -27.8589  -19.2248   23.6963 C   0  0  0  0  0  0
  -28.0696  -17.8584   23.4967 C   0  0  0  0  0  0
  -28.2883  -20.1520   22.7303 C   0  0  0  0  0  0
  -28.7538  -17.4518   22.3460 C   0  0  0  0  0  0
  -29.2440  -18.3425   21.3812 C   0  0  0  0  0  0
  -28.9554  -19.7950   21.5185 C   0  0  0  0  0  0
  -28.5121  -22.1519   20.5632 C   0  0  0  0  0  0
  -28.9908  -15.9963   22.0282 C   0  0  0  0  0  0
  -29.9977  -17.3834   20.3859 C   0  0  0  0  0  0
  -29.0801  -23.6449   20.3570 C   0  0  0  0  0  0
  -28.0364  -24.8589   20.0299 C   0  0  0  0  0  0
  -29.8169  -15.9122   20.8207 N   0  0  0  0  0  0
  -29.2886  -20.9897   20.6871 N   0  0  0  0  0  0
  -27.2835  -22.0465   20.6018 O   0  0  0  0  0  0
  -31.4796  -12.6628   19.1316 H   0  0  0  0  0  0
  -30.4521  -11.5019   19.9089 H   0  0  0  0  0  0
  -29.7944  -11.7683   17.5049 H   0  0  0  0  0  0
  -29.6212  -13.4905   17.7149 H   0  0  0  0  0  0
  -27.8928  -11.2911   18.8863 H   0  0  0  0  0  0
  -27.3718  -12.5542   17.8022 H   0  0  0  0  0  0
  -27.6668  -14.2553   19.5337 H   0  0  0  0  0  0
  -28.7737  -12.0027   21.2632 H   0  0  0  0  0  0
  -28.4261  -13.5376   21.9139 H   0  0  0  0  0  0
  -25.2755   -9.5690   22.4763 H   0  0  0  0  0  0
  -23.9988   -7.4640   22.7487 H   0  0  0  0  0  0
  -21.0822   -8.8784   19.8958 H   0  0  0  0  0  0
  -22.3684  -10.9680   19.6170 H   0  0  0  0  0  0
  -21.2012   -7.6150   23.9723 H   0  0  0  0  0  0
  -21.1470   -6.0520   25.9079 H   0  0  0  0  0  0
  -22.0595   -2.7610   23.2846 H   0  0  0  0  0  0
  -22.4056  -11.9933   22.4840 H   0  0  0  0  0  0
  -21.1082  -13.1300   22.2587 H   0  0  0  0  0  0
  -24.6643  -15.8459   20.5494 H   0  0  0  0  0  0
  -26.2869  -15.6373   20.1309 H   0  0  0  0  0  0
  -26.7228  -32.5387   23.1054 H   0  0  0  0  0  0
  -25.0120  -33.9665   25.0407 H   0  0  0  0  0  0
  -22.7277  -31.2986   21.3908 H   0  0  0  0  0  0
  -23.3738  -35.9629   23.3297 H   0  0  0  0  0  0
  -24.3579  -36.8904   22.2050 H   0  0  0  0  0  0
  -23.7262  -37.6486   23.6662 H   0  0  0  0  0  0
  -26.1157  -31.5252   20.6066 H   0  0  0  0  0  0
  -26.8573  -30.8151   22.0091 H   0  0  0  0  0  0
  -28.1289  -28.9152   21.1964 H   0  0  0  0  0  0
  -25.9344  -25.9032   18.9986 H   0  0  0  0  0  0
  -23.9689  -27.3019   19.0146 H   0  0  0  0  0  0
  -23.7802  -30.5831   19.3993 H   0  0  0  0  0  0
  -22.7715  -29.2439   19.8494 H   0  0  0  0  0  0
  -25.1297  -36.1895   25.0811 H   0  0  0  0  0  0
  -20.9988  -28.3305   24.1401 H   0  0  0  0  0  0
  -20.5682  -26.2330   23.3646 H   0  0  0  0  0  0
  -21.6669  -26.7433   22.1249 H   0  0  0  0  0  0
  -19.6966  -25.6275   21.1279 H   0  0  0  0  0  0
  -19.6744  -27.3168   20.6749 H   0  0  0  0  0  0
  -17.4242  -26.6648   21.4035 H   0  0  0  0  0  0
  -18.0374  -26.0064   22.9029 H   0  0  0  0  0  0
  -19.7929  -30.7288   24.2240 H   0  0  0  0  0  0
  -17.5001  -31.6275   24.5115 H   0  0  0  0  0  0
  -15.5351  -30.2957   23.7631 H   0  0  0  0  0  0
  -15.8701  -28.0785   22.7068 H   0  0  0  0  0  0
  -24.5904  -30.7098   25.7759 H   0  0  0  0  0  0
  -24.8950  -32.2914   26.4850 H   0  0  0  0  0  0
  -25.8055  -30.8913   27.0211 H   0  0  0  0  0  0
  -26.2962  -29.6721   24.1221 H   0  0  0  0  0  0
  -27.4043  -29.7258   25.4728 H   0  0  0  0  0  0
  -27.8840  -30.4247   23.9454 H   0  0  0  0  0  0
  -27.2658  -33.3610   26.2074 H   0  0  0  0  0  0
  -28.3883  -32.6893   25.0336 H   0  0  0  0  0  0
  -28.0726  -31.8443   26.5416 H   0  0  0  0  0  0
  -28.2594  -38.0094   24.7487 H   0  0  0  0  0  0
  -28.1069  -36.2614   24.6314 H   0  0  0  0  0  0
  -27.2289  -37.1480   25.8869 H   0  0  0  0  0  0
  -20.9404  -29.8807   21.6878 H   0  0  0  0  0  0
  -26.0158  -38.2827   24.1400 H   0  0  0  0  0  0
  -27.3554  -19.5666   24.5903 H   0  0  0  0  0  0
  -27.7179  -17.1347   24.2196 H   0  0  0  0  0  0
  -28.0850  -21.1869   22.9671 H   0  0  0  0  0  0
  -28.0043  -15.5706   21.8532 H   0  0  0  0  0  0
  -29.4589  -15.4925   22.8760 H   0  0  0  0  0  0
  -31.0580  -17.6381   20.3641 H   0  0  0  0  0  0
  -29.6059  -17.5199   19.3775 H   0  0  0  0  0  0
  -29.8589  -23.6182   19.5952 H   0  0  0  0  0  0
  -29.5877  -23.8950   21.2881 H   0  0  0  0  0  0
  -27.1333  -24.6564   20.6064 H   0  0  0  0  0  0
  -27.7614  -24.7163   18.9843 H   0  0  0  0  0  0
  -30.2502  -21.0567   20.3805 H   0  0  0  0  0  0
  1 25  1  0  0  0
  1 30  2  0  0  0
  1 82  1  0  0  0
  2  3  1  0  0  0
  2 25  1  0  0  0
  2 85  1  0  0  0
  2 86  1  0  0  0
  3  4  1  0  0  0
  3 87  1  0  0  0
  3 88  1  0  0  0
  4  5  1  0  0  0
  4 89  1  0  0  0
  4 90  1  0  0  0
  5  6  1  0  0  0
  5 26  1  0  0  0
  5 91  1  0  0  0
  6 25  1  0  0  0
  6 92  1  0  0  0
  6 93  1  0  0  0
  7  8  2  0  0  0
  7 26  1  0  0  0
  7 29  1  0  0  0
  8  9  1  0  0  0
  8 22  1  0  0  0
  9 10  1  0  0  0
  9 27  2  0  0  0
 10 11  2  0  0  0
 10 15  1  0  0  0
 11 12  1  0  0  0
 11 94  1  0  0  0
 12 13  2  0  0  0
 12 95  1  0  0  0
 13 14  1  0  0  0
 13 31  1  0  0  0
 14 15  2  0  0  0
 14 96  1  0  0  0
 15 97  1  0  0  0
 16 17  2  0  0  0
 16 21  1  0  0  0
 16 31  1  0  0  0
 17 18  1  0  0  0
 17 98  1  0  0  0
 18 19  2  0  0  0
 18 99  1  0  0  0
 19 20  1  0  0  0
 19 24  1  0  0  0
 20 21  2  0  0  0
 20100  1  0  0  0
 21 23  1  0  0  0
 22 28  1  0  0  0
 22 32  2  0  0  0
 26 27  1  0  0  0
 28101  1  0  0  0
 28102  1  0  0  0
 29103  1  0  0  0
 29104  1  0  0  0
 33 34  1  0  0  0
 33 66  1  0  0  0
 33 70  2  0  0  0
 34 36  1  0  0  0
 34 59  1  0  0  0
 34105  1  0  0  0
 35 44  2  0  0  0
 35 45  1  0  0  0
 35 68  1  0  0  0
 36 56  1  0  0  0
 36106  1  0  0  0
 37 39  1  0  0  0
 37 47  1  0  0  0
 37 66  1  0  0  0
 37107  1  0  0  0
 38 43  2  0  0  0
 38 46  1  0  0  0
 38 47  1  0  0  0
 39 64  1  0  0  0
 39 67  2  0  0  0
 40 52  1  0  0  0
 40 53  2  0  0  0
 40 58  1  0  0  0
 41108  1  0  0  0
 41109  1  0  0  0
 41110  1  0  0  0
 41 48  1  0  0  0
 42 43  1  0  0  0
 42 66  1  0  0  0
 42111  1  0  0  0
 42112  1  0  0  0
 43 44  1  0  0  0
 44113  1  0  0  0
 45 46  2  0  0  0
 45114  1  0  0  0
 46115  1  0  0  0
 47116  1  0  0  0
 47117  1  0  0  0
 48 56  1  0  0  0
 48 65  1  0  0  0
 48118  1  0  0  0
 49 50  1  0  0  0
 49 53  1  0  0  0
 49 64  1  0  0  0
 49119  1  0  0  0
 50 51  1  0  0  0
 50120  1  0  0  0
 50121  1  0  0  0
 51 52  1  0  0  0
 51122  1  0  0  0
 51123  1  0  0  0
 52124  1  0  0  0
 52125  1  0  0  0
 53 54  1  0  0  0
 54 55  2  0  0  0
 54126  1  0  0  0
 55 57  1  0  0  0
 55127  1  0  0  0
 56 69  2  0  0  0
 57 58  2  0  0  0
 57128  1  0  0  0
 58129  1  0  0  0
 59 60  1  0  0  0
 59 61  1  0  0  0
 59 62  1  0  0  0
 60130  1  0  0  0
 60131  1  0  0  0
 60132  1  0  0  0
 61133  1  0  0  0
 61134  1  0  0  0
 61135  1  0  0  0
 62136  1  0  0  0
 62137  1  0  0  0
 62138  1  0  0  0
 63 65  1  0  0  0
 63139  1  0  0  0
 63140  1  0  0  0
 63141  1  0  0  0
 64142  1  0  0  0
 65143  1  0  0  0
 68 81  1  0  0  0
 71 72  2  0  0  0
 71 73  1  0  0  0
 71144  1  0  0  0
 72 74  1  0  0  0
 72145  1  0  0  0
 73 76  2  0  0  0
 73146  1  0  0  0
 74 75  2  0  0  0
 74 78  1  0  0  0
 75 76  1  0  0  0
 75 79  1  0  0  0
 76 83  1  0  0  0
 77 80  1  0  0  0
 77 83  1  0  0  0
 77 84  2  0  0  0
 78 82  1  0  0  0
 78147  1  0  0  0
 78148  1  0  0  0
 79 82  1  0  0  0
 79149  1  0  0  0
 79150  1  0  0  0
 80 81  1  0  0  0
 80151  1  0  0  0
 80152  1  0  0  0
 81153  1  0  0  0
 81154  1  0  0  0
 83155  1  0  0  0
M  ISO  4   1 100  68 101  81 101  82 100
M  END
> <chiral flag>
0

> <version>
0

> <s_m_source_file>
/data/baiqing/PycharmProjects/Reinvent-master-3.2/result/LINK_invent/BTK/process_docking_weight1_custom_product_contain_oxygen_bond_distance_aromatic_linkinvent_7_9_3/rearranged_h_0155.sdf

> <i_m_source_file_index>
81

> <r_mmod_Potential_Energy-OPLS-2005>
343.000305175781

> <r_mmod_Stretch_Energy-OPLS-2005>
154.007995605469

> <r_mmod_Bend_Energy-OPLS-2005>
257.476989746094

> <r_mmod_Torsional_Energy-OPLS-2005>
277.397430419922

> <r_mmod_Improper_Torsional_Energy-OPLS-2005>
9.32083892822266

> <r_mmod_Van_der_Waal_Energy-OPLS-2005>
150.108154296875

> <r_mmod_Electrostatic_Energy-OPLS-2005>
-363.883728027344

> <r_mmod_Solvation_Energy-OPLS-2005>
-230.435501098633

> <b_mmod_Minimization_Converged-OPLS-2005>
0

> <r_mmod_RMS_Derivative-OPLS-2005>
1.79433143138885

$$$$
81
                    3D
 Structure written by MMmdl.
150158  0  0  1  0            999 V2000
  -30.5975  -14.7775   20.4421 C   0  0  0  0  0  0
  -30.4362  -12.4700   19.4829 C   0  0  0  0  0  0
  -29.5151  -12.5107   18.2424 C   0  0  0  0  0  0
  -28.0419  -12.3316   18.6548 C   0  0  0  0  0  0
  -27.6435  -13.2340   19.8524 C   0  0  2  0  0  0
  -28.6872  -13.1781   20.9904 C   0  0  0  0  0  0
  -25.2523  -13.8200   20.5710 C   0  0  0  0  0  0
  -24.1809  -13.0449   20.9209 C   0  0  0  0  0  0
  -24.6399  -11.6925   20.8736 C   0  0  0  0  0  0
  -23.9066  -10.4303   21.0391 C   0  0  0  0  0  0
  -24.3612   -9.4217   21.9172 C   0  0  0  0  0  0
  -23.6293   -8.2245   22.0739 C   0  0  0  0  0  0
  -22.4266   -8.0281   21.3543 C   0  0  0  0  0  0
  -21.9905   -9.0250   20.4641 C   0  0  0  0  0  0
  -22.7229  -10.2136   20.3054 C   0  0  0  0  0  0
  -21.6857   -6.0731   22.5272 C   0  0  0  0  0  0
  -21.4019   -6.5632   23.8206 C   0  0  0  0  0  0
  -21.3665   -5.6784   24.9169 C   0  0  0  0  0  0
  -21.6046   -4.3050   24.7219 C   0  0  0  0  0  0
  -21.8822   -3.8141   23.4341 C   0  0  0  0  0  0
  -21.9198   -4.6957   22.3399 C   0  0  0  0  0  0
  -22.7833  -13.5230   21.1875 C   0  0  0  0  0  0
  -22.1666   -4.2144   21.0978 F   0  0  0  0  0  0
  -21.5628   -3.4538   25.7735 F   0  0  0  0  0  0
  -29.9886  -13.5384   20.4108 N   0  0  0  0  0  0
  -26.2946  -12.9411   20.3282 N   0  0  0  0  0  0
  -25.9330  -11.6550   20.5737 N   0  0  0  0  0  0
  -22.0479  -12.8220   22.0431 N   0  0  0  0  0  0
  -25.4225  -15.1921   20.4149 N   0  0  0  0  0  0
  -31.7808  -14.8711   20.0988 O   0  0  0  0  0  0
  -21.6641   -6.8866   21.4234 O   0  0  0  0  0  0
  -22.3521  -14.5535   20.6722 O   0  0  0  0  0  0
  -24.6349  -31.8522   23.1965 C   0  0  0  0  0  0
  -25.9158  -32.4744   23.8327 C   0  0  1  0  0  0
  -27.2240  -27.2238   20.1261 C   0  0  0  0  0  0
  -25.5936  -33.8547   24.2246 N   0  0  0  0  0  0
  -23.4350  -30.4734   21.5404 C   0  0  2  0  0  0
  -24.8843  -28.9189   20.1093 C   0  0  0  0  0  0
  -22.7531  -29.4580   22.4901 C   0  0  0  0  0  0
  -18.0298  -28.1389   22.8479 C   0  0  0  0  0  0
  -24.1496  -36.7280   23.2640 C   0  0  0  0  0  0
  -25.9856  -30.7501   21.3867 C   0  0  0  0  0  0
  -26.0567  -29.3705   20.7268 C   0  0  0  0  0  0
  -27.2253  -28.5338   20.7291 C   0  0  0  0  0  0
  -26.0288  -26.8615   19.4613 C   0  0  0  0  0  0
  -24.8784  -27.6736   19.4665 C   0  0  0  0  0  0
  -23.6562  -29.8085   20.1570 C   0  0  0  0  0  0
  -25.4123  -36.3064   24.0325 C   0  0  1  0  0  0
  -20.5905  -28.3704   23.1257 C   0  0  2  0  0  0
  -20.6785  -26.9415   22.5409 C   0  0  0  0  0  0
  -19.5758  -26.6380   21.5212 C   0  0  0  0  0  0
  -18.1941  -26.7929   22.1624 C   0  0  0  0  0  0
  -19.1555  -28.8866   23.2860 C   0  0  0  0  0  0
  -18.9470  -30.1465   23.8881 C   0  0  0  0  0  0
  -17.6467  -30.6585   24.0559 C   0  0  0  0  0  0
  -25.9064  -34.9435   23.5094 C   0  0  0  0  0  0
  -16.5356  -29.9078   23.6327 C   0  0  0  0  0  0
  -16.7286  -28.6497   23.0347 C   0  0  0  0  0  0
  -26.4502  -31.6582   25.0738 C   0  0  0  0  0  0
  -25.3700  -31.3758   26.1445 C   0  0  0  0  0  0
  -27.0353  -30.2983   24.6280 C   0  0  0  0  0  0
  -27.6059  -32.4325   25.7500 C   0  0  0  0  0  0
  -27.5585  -37.1796   24.8463 C   0  0  0  0  0  0
  -21.4233  -29.3042   22.3645 N   0  0  0  0  0  0
  -26.4298  -37.3760   23.9407 N   0  0  0  0  0  0
  -24.7043  -31.0447   22.0965 N   0  0  0  0  0  0
  -23.4214  -28.8121   23.3016 O   0  0  0  0  0  0
  -28.3075  -26.3007   20.2157 O   0  0  0  0  0  0
  -26.5639  -34.8910   22.4666 O   0  0  0  0  0  0
  -23.5486  -32.1371   23.7220 O   0  0  0  0  0  0
  -30.8813  -17.8268   19.4985 C   0  0  0  0  0  0
  -30.6557  -19.2514   19.4775 C   0  0  0  0  0  0
  -29.9938  -17.2813   20.4029 C   0  0  0  0  0  0
  -29.6407  -19.5748   20.3436 C   0  0  0  0  0  0
  -28.8735  -23.6395   20.5190 C   0  0  0  0  0  0
  -29.0163  -22.1621   19.8617 C   0  0  0  0  0  0
  -28.1749  -24.8635   19.7271 C   0  0  0  0  0  0
  -31.3867  -20.1656   18.7199 N   0  0  0  0  0  0
  -29.8221  -15.9078   20.7071 N   0  0  0  0  0  0
  -29.1443  -20.8997   20.7257 N   0  0  0  0  0  0
  -29.3026  -23.8195   21.6637 O   0  0  0  0  0  0
  -29.2218  -18.3562   20.9332 O   0  0  0  0  0  0
  -31.4775  -12.5937   19.1785 H   0  0  0  0  0  0
  -30.3826  -11.4941   19.9698 H   0  0  0  0  0  0
  -29.8008  -11.7321   17.5347 H   0  0  0  0  0  0
  -29.6405  -13.4612   17.7203 H   0  0  0  0  0  0
  -27.9015  -11.2837   18.9196 H   0  0  0  0  0  0
  -27.3857  -12.5201   17.8037 H   0  0  0  0  0  0
  -27.6367  -14.2541   19.4677 H   0  0  0  0  0  0
  -28.7275  -12.1825   21.4366 H   0  0  0  0  0  0
  -28.4161  -13.8625   21.7954 H   0  0  0  0  0  0
  -25.2758   -9.5701   22.4748 H   0  0  0  0  0  0
  -24.0008   -7.4636   22.7459 H   0  0  0  0  0  0
  -21.0830   -8.8764   19.8950 H   0  0  0  0  0  0
  -22.3668  -10.9670   19.6166 H   0  0  0  0  0  0
  -21.2006   -7.6141   23.9707 H   0  0  0  0  0  0
  -21.1487   -6.0517   25.9071 H   0  0  0  0  0  0
  -22.0597   -2.7603   23.2846 H   0  0  0  0  0  0
  -22.4110  -11.9893   22.4832 H   0  0  0  0  0  0
  -21.1091  -13.1236   22.2629 H   0  0  0  0  0  0
  -24.6550  -15.8447   20.5291 H   0  0  0  0  0  0
  -26.2647  -15.6315   20.0668 H   0  0  0  0  0  0
  -26.7231  -32.5375   23.1067 H   0  0  0  0  0  0
  -25.0068  -33.9681   25.0381 H   0  0  0  0  0  0
  -22.7333  -31.2968   21.3926 H   0  0  0  0  0  0
  -23.3755  -35.9617   23.3311 H   0  0  0  0  0  0
  -24.3583  -36.8892   22.2053 H   0  0  0  0  0  0
  -23.7260  -37.6488   23.6658 H   0  0  0  0  0  0
  -26.1357  -31.5101   20.6185 H   0  0  0  0  0  0
  -26.8577  -30.7952   22.0272 H   0  0  0  0  0  0
  -28.1175  -28.8723   21.2377 H   0  0  0  0  0  0
  -25.9342  -25.9262   18.9337 H   0  0  0  0  0  0
  -23.9843  -27.3251   18.9682 H   0  0  0  0  0  0
  -23.7853  -30.5850   19.4027 H   0  0  0  0  0  0
  -22.7746  -29.2439   19.8491 H   0  0  0  0  0  0
  -25.1307  -36.1911   25.0817 H   0  0  0  0  0  0
  -20.9996  -28.3286   24.1378 H   0  0  0  0  0  0
  -20.5678  -26.2316   23.3623 H   0  0  0  0  0  0
  -21.6654  -26.7430   22.1206 H   0  0  0  0  0  0
  -19.6919  -25.6286   21.1255 H   0  0  0  0  0  0
  -19.6692  -27.3182   20.6736 H   0  0  0  0  0  0
  -17.4208  -26.6672   21.4027 H   0  0  0  0  0  0
  -18.0338  -26.0076   22.9027 H   0  0  0  0  0  0
  -19.7944  -30.7289   24.2242 H   0  0  0  0  0  0
  -17.5016  -31.6262   24.5169 H   0  0  0  0  0  0
  -15.5355  -30.2971   23.7662 H   0  0  0  0  0  0
  -15.8689  -28.0813   22.7063 H   0  0  0  0  0  0
  -24.5880  -30.7104   25.7766 H   0  0  0  0  0  0
  -24.8883  -32.2938   26.4827 H   0  0  0  0  0  0
  -25.7990  -30.8960   27.0253 H   0  0  0  0  0  0
  -26.2960  -29.6722   24.1274 H   0  0  0  0  0  0
  -27.3965  -29.7263   25.4837 H   0  0  0  0  0  0
  -27.8870  -30.4227   23.9589 H   0  0  0  0  0  0
  -27.2675  -33.3631   26.2068 H   0  0  0  0  0  0
  -28.3862  -32.6876   25.0316 H   0  0  0  0  0  0
  -28.0741  -31.8461   26.5417 H   0  0  0  0  0  0
  -28.2602  -38.0090   24.7503 H   0  0  0  0  0  0
  -28.1079  -36.2624   24.6295 H   0  0  0  0  0  0
  -27.2305  -37.1454   25.8864 H   0  0  0  0  0  0
  -20.9436  -29.8765   21.6837 H   0  0  0  0  0  0
  -26.0179  -38.2839   24.1382 H   0  0  0  0  0  0
  -31.6076  -17.2731   18.9210 H   0  0  0  0  0  0
  -29.8709  -22.2172   19.1902 H   0  0  0  0  0  0
  -28.1494  -22.0246   19.2138 H   0  0  0  0  0  0
  -27.1302  -24.5669   19.7083 H   0  0  0  0  0  0
  -28.5242  -24.8307   18.6946 H   0  0  0  0  0  0
  -31.8682  -19.8458   17.8867 H   0  0  0  0  0  0
  -31.0140  -21.1047   18.6428 H   0  0  0  0  0  0
  -28.9284  -15.6811   21.1150 H   0  0  0  0  0  0
  -28.4885  -20.8899   21.5007 H   0  0  0  0  0  0
  1 25  1  0  0  0
  1 30  2  0  0  0
  1 79  1  0  0  0
  2  3  1  0  0  0
  2 25  1  0  0  0
  2 83  1  0  0  0
  2 84  1  0  0  0
  3  4  1  0  0  0
  3 85  1  0  0  0
  3 86  1  0  0  0
  4  5  1  0  0  0
  4 87  1  0  0  0
  4 88  1  0  0  0
  5  6  1  0  0  0
  5 26  1  0  0  0
  5 89  1  0  0  0
  6 25  1  0  0  0
  6 90  1  0  0  0
  6 91  1  0  0  0
  7  8  2  0  0  0
  7 26  1  0  0  0
  7 29  1  0  0  0
  8  9  1  0  0  0
  8 22  1  0  0  0
  9 10  1  0  0  0
  9 27  2  0  0  0
 10 11  2  0  0  0
 10 15  1  0  0  0
 11 12  1  0  0  0
 11 92  1  0  0  0
 12 13  2  0  0  0
 12 93  1  0  0  0
 13 14  1  0  0  0
 13 31  1  0  0  0
 14 15  2  0  0  0
 14 94  1  0  0  0
 15 95  1  0  0  0
 16 17  2  0  0  0
 16 21  1  0  0  0
 16 31  1  0  0  0
 17 18  1  0  0  0
 17 96  1  0  0  0
 18 19  2  0  0  0
 18 97  1  0  0  0
 19 20  1  0  0  0
 19 24  1  0  0  0
 20 21  2  0  0  0
 20 98  1  0  0  0
 21 23  1  0  0  0
 22 28  1  0  0  0
 22 32  2  0  0  0
 26 27  1  0  0  0
 28 99  1  0  0  0
 28100  1  0  0  0
 29101  1  0  0  0
 29102  1  0  0  0
 33 34  1  0  0  0
 33 66  1  0  0  0
 33 70  2  0  0  0
 34 36  1  0  0  0
 34 59  1  0  0  0
 34103  1  0  0  0
 35 44  2  0  0  0
 35 45  1  0  0  0
 35 68  1  0  0  0
 36 56  1  0  0  0
 36104  1  0  0  0
 37 39  1  0  0  0
 37 47  1  0  0  0
 37 66  1  0  0  0
 37105  1  0  0  0
 38 43  2  0  0  0
 38 46  1  0  0  0
 38 47  1  0  0  0
 39 64  1  0  0  0
 39 67  2  0  0  0
 40 52  1  0  0  0
 40 53  2  0  0  0
 40 58  1  0  0  0
 41106  1  0  0  0
 41107  1  0  0  0
 41108  1  0  0  0
 41 48  1  0  0  0
 42 43  1  0  0  0
 42 66  1  0  0  0
 42109  1  0  0  0
 42110  1  0  0  0
 43 44  1  0  0  0
 44111  1  0  0  0
 45 46  2  0  0  0
 45112  1  0  0  0
 46113  1  0  0  0
 47114  1  0  0  0
 47115  1  0  0  0
 48 56  1  0  0  0
 48 65  1  0  0  0
 48116  1  0  0  0
 49 50  1  0  0  0
 49 53  1  0  0  0
 49 64  1  0  0  0
 49117  1  0  0  0
 50 51  1  0  0  0
 50118  1  0  0  0
 50119  1  0  0  0
 51 52  1  0  0  0
 51120  1  0  0  0
 51121  1  0  0  0
 52122  1  0  0  0
 52123  1  0  0  0
 53 54  1  0  0  0
 54 55  2  0  0  0
 54124  1  0  0  0
 55 57  1  0  0  0
 55125  1  0  0  0
 56 69  2  0  0  0
 57 58  2  0  0  0
 57126  1  0  0  0
 58127  1  0  0  0
 59 60  1  0  0  0
 59 61  1  0  0  0
 59 62  1  0  0  0
 60128  1  0  0  0
 60129  1  0  0  0
 60130  1  0  0  0
 61131  1  0  0  0
 61132  1  0  0  0
 61133  1  0  0  0
 62134  1  0  0  0
 62135  1  0  0  0
 62136  1  0  0  0
 63 65  1  0  0  0
 63137  1  0  0  0
 63138  1  0  0  0
 63139  1  0  0  0
 64140  1  0  0  0
 65141  1  0  0  0
 68 77  1  0  0  0
 71 72  1  0  0  0
 71 73  2  0  0  0
 71142  1  0  0  0
 72 74  2  0  0  0
 72 78  1  0  0  0
 73 79  1  0  0  0
 73 82  1  0  0  0
 74 80  1  0  0  0
 74 82  1  0  0  0
 75 76  1  0  0  0
 75 77  1  0  0  0
 75 81  2  0  0  0
 76 80  1  0  0  0
 76143  1  0  0  0
 76144  1  0  0  0
 77145  1  0  0  0
 77146  1  0  0  0
 78147  1  0  0  0
 78148  1  0  0  0
 79149  1  0  0  0
 80150  1  0  0  0
M  ISO  4   1 100  68 101  77 101  79 100
M  END
> <chiral flag>
0

> <version>
0

> <s_m_source_file>
/data/baiqing/PycharmProjects/Reinvent-master-3.2/result/LINK_invent/BTK/process_docking_weight1_custom_product_contain_oxygen_bond_distance_aromatic_linkinvent_7_9_3/rearranged_h_0155.sdf

> <i_m_source_file_index>
82

> <r_mmod_Potential_Energy-OPLS-2005>
188.446487426758

> <r_mmod_Stretch_Energy-OPLS-2005>
144.540298461914

> <r_mmod_Bend_Energy-OPLS-2005>
205.565979003906

> <r_mmod_Torsional_Energy-OPLS-2005>
220.037445068359

> <r_mmod_Improper_Torsional_Energy-OPLS-2005>
8.62212657928467

> <r_mmod_Van_der_Waal_Energy-OPLS-2005>
121.776710510254

> <r_mmod_Electrostatic_Energy-OPLS-2005>
-350.114044189453

> <r_mmod_Solvation_Energy-OPLS-2005>
-266.942352294922

> <b_mmod_Minimization_Converged-OPLS-2005>
0

> <r_mmod_RMS_Derivative-OPLS-2005>
1.74929785728455

$$$$
82
                    3D
 Structure written by MMmdl.
163172  0  0  1  0            999 V2000
  -30.6587  -14.5098   20.5201 C   0  0  0  0  0  0
  -30.4266  -12.3150   19.4096 C   0  0  0  0  0  0
  -29.4893  -12.4928   18.1959 C   0  0  0  0  0  0
  -28.0113  -12.3481   18.6145 C   0  0  0  0  0  0
  -27.6596  -13.1952   19.8664 C   0  0  2  0  0  0
  -28.7083  -12.9956   20.9849 C   0  0  0  0  0  0
  -25.2634  -13.8152   20.5667 C   0  0  0  0  0  0
  -24.1864  -13.0438   20.9171 C   0  0  0  0  0  0
  -24.6399  -11.6906   20.8740 C   0  0  0  0  0  0
  -23.9056  -10.4297   21.0409 C   0  0  0  0  0  0
  -24.3616   -9.4214   21.9180 C   0  0  0  0  0  0
  -23.6294   -8.2251   22.0762 C   0  0  0  0  0  0
  -22.4274   -8.0302   21.3562 C   0  0  0  0  0  0
  -21.9909   -9.0257   20.4647 C   0  0  0  0  0  0
  -22.7232  -10.2138   20.3054 C   0  0  0  0  0  0
  -21.6862   -6.0746   22.5265 C   0  0  0  0  0  0
  -21.4014   -6.5648   23.8199 C   0  0  0  0  0  0
  -21.3655   -5.6805   24.9164 C   0  0  0  0  0  0
  -21.6047   -4.3064   24.7218 C   0  0  0  0  0  0
  -21.8821   -3.8158   23.4332 C   0  0  0  0  0  0
  -21.9189   -4.6972   22.3387 C   0  0  0  0  0  0
  -22.7890  -13.5262   21.1798 C   0  0  0  0  0  0
  -22.1666   -4.2163   21.0964 F   0  0  0  0  0  0
  -21.5619   -3.4538   25.7724 F   0  0  0  0  0  0
  -30.0285  -13.3082   20.4153 N   0  0  0  0  0  0
  -26.3038  -12.9278   20.3361 N   0  0  0  0  0  0
  -25.9319  -11.6457   20.5772 N   0  0  0  0  0  0
  -22.0524  -12.8271   22.0366 N   0  0  0  0  0  0
  -25.4386  -15.1848   20.4018 N   0  0  0  0  0  0
  -31.8212  -14.6997   20.1513 O   0  0  0  0  0  0
  -21.6653   -6.8889   21.4240 O   0  0  0  0  0  0
  -22.3595  -14.5574   20.6654 O   0  0  0  0  0  0
  -24.6191  -31.8664   23.2122 C   0  0  0  0  0  0
  -25.9067  -32.4782   23.8406 C   0  0  1  0  0  0
  -27.1843  -27.3824   20.0885 C   0  0  0  0  0  0
  -25.5928  -33.8590   24.2335 N   0  0  0  0  0  0
  -23.4045  -30.4969   21.5544 C   0  0  2  0  0  0
  -24.8360  -28.9656   20.1044 C   0  0  0  0  0  0
  -22.7434  -29.4627   22.4963 C   0  0  0  0  0  0
  -18.0269  -28.1332   22.8469 C   0  0  0  0  0  0
  -24.1517  -36.7323   23.2641 C   0  0  0  0  0  0
  -25.9388  -30.8106   21.3684 C   0  0  0  0  0  0
  -26.0062  -29.4450   20.7126 C   0  0  0  0  0  0
  -27.1865  -28.6589   20.7073 C   0  0  0  0  0  0
  -26.0082  -26.9503   19.4368 C   0  0  0  0  0  0
  -24.8307  -27.7166   19.4678 C   0  0  0  0  0  0
  -23.6108  -29.8466   20.1630 C   0  0  0  0  0  0
  -25.4109  -36.3075   24.0342 C   0  0  1  0  0  0
  -20.5873  -28.3643   23.1289 C   0  0  2  0  0  0
  -20.6773  -26.9370   22.5393 C   0  0  0  0  0  0
  -19.5756  -26.6353   21.5171 C   0  0  0  0  0  0
  -18.1919  -26.7878   22.1583 C   0  0  0  0  0  0
  -19.1518  -28.8811   23.2867 C   0  0  0  0  0  0
  -18.9455  -30.1419   23.8871 C   0  0  0  0  0  0
  -17.6458  -30.6559   24.0533 C   0  0  0  0  0  0
  -25.9033  -34.9455   23.5124 C   0  0  0  0  0  0
  -16.5352  -29.9051   23.6299 C   0  0  0  0  0  0
  -16.7248  -28.6468   23.0318 C   0  0  0  0  0  0
  -26.4470  -31.6571   25.0753 C   0  0  0  0  0  0
  -25.3724  -31.3649   26.1493 C   0  0  0  0  0  0
  -27.0277  -30.3027   24.6089 C   0  0  0  0  0  0
  -27.6061  -32.4298   25.7487 C   0  0  0  0  0  0
  -27.5579  -37.1826   24.8454 C   0  0  0  0  0  0
  -21.4161  -29.3030   22.3722 N   0  0  0  0  0  0
  -26.4291  -37.3764   23.9393 N   0  0  0  0  0  0
  -24.6736  -31.0747   22.1029 N   0  0  0  0  0  0
  -23.4204  -28.8109   23.2961 O   0  0  0  0  0  0
  -28.2662  -26.5261   20.1654 O   0  0  0  0  0  0
  -26.5606  -34.8904   22.4691 O   0  0  0  0  0  0
  -23.5386  -32.1443   23.7514 O   0  0  0  0  0  0
  -30.7555  -17.5333   21.9205 C   0  0  0  0  0  0
  -30.7813  -18.9598   21.7583 C   0  0  0  0  0  0
  -30.1538  -19.3948   20.6088 C   0  0  0  0  0  0
  -30.1137  -16.8612   20.9109 C   0  0  0  0  0  0
  -29.9972  -20.7306   20.0169 C   0  0  0  0  0  0
  -28.5703  -23.2860   22.3163 C   0  0  0  0  0  0
  -28.7844  -21.8028   21.9520 C   0  0  0  0  0  0
  -29.1423  -23.1085   19.9759 C   0  0  0  0  0  0
  -28.9945  -24.1673   21.1076 C   0  0  1  0  0  0
  -31.0532  -25.3667   20.5186 C   0  0  0  0  0  0
  -27.9230  -25.2957   20.8656 C   0  0  0  0  0  0
  -29.4186  -21.8078   20.6313 N   0  0  0  0  0  0
  -31.4456  -19.7413   22.7146 N   0  0  0  0  0  0
  -29.8326  -15.5287   20.8350 N   0  0  0  0  0  0
  -30.4451  -20.8882   18.7588 N   0  3  0  0  0  0
  -30.2382  -24.7541   21.5139 O   0  0  0  0  0  0
  -29.5349  -18.0102   19.7197 S   0  0  0  0  0  0
  -31.4696  -12.4230   19.1108 H   0  0  0  0  0  0
  -30.3342  -11.3106   19.8248 H   0  0  0  0  0  0
  -29.7314  -11.7604   17.4253 H   0  0  0  0  0  0
  -29.6481  -13.4728   17.7438 H   0  0  0  0  0  0
  -27.8232  -11.2923   18.8147 H   0  0  0  0  0  0
  -27.3588  -12.6199   17.7838 H   0  0  0  0  0  0
  -27.6937  -14.2376   19.5505 H   0  0  0  0  0  0
  -28.6982  -11.9658   21.3457 H   0  0  0  0  0  0
  -28.4775  -13.6109   21.8561 H   0  0  0  0  0  0
  -25.2758   -9.5698   22.4755 H   0  0  0  0  0  0
  -23.9996   -7.4660   22.7492 H   0  0  0  0  0  0
  -21.0848   -8.8783   19.8950 H   0  0  0  0  0  0
  -22.3695  -10.9688   19.6171 H   0  0  0  0  0  0
  -21.2031   -7.6160   23.9709 H   0  0  0  0  0  0
  -21.1468   -6.0533   25.9069 H   0  0  0  0  0  0
  -22.0605   -2.7622   23.2821 H   0  0  0  0  0  0
  -22.4146  -11.9927   22.4736 H   0  0  0  0  0  0
  -21.1137  -13.1301   22.2535 H   0  0  0  0  0  0
  -24.6713  -15.8410   20.4959 H   0  0  0  0  0  0
  -26.2838  -15.6156   20.0483 H   0  0  0  0  0  0
  -26.7124  -32.5446   23.1142 H   0  0  0  0  0  0
  -25.0063  -33.9714   25.0477 H   0  0  0  0  0  0
  -22.6909  -31.3146   21.4241 H   0  0  0  0  0  0
  -23.3739  -35.9705   23.3288 H   0  0  0  0  0  0
  -24.3620  -36.8957   22.2062 H   0  0  0  0  0  0
  -23.7335  -37.6558   23.6659 H   0  0  0  0  0  0
  -26.0635  -31.5745   20.6001 H   0  0  0  0  0  0
  -26.8249  -30.8593   21.9898 H   0  0  0  0  0  0
  -28.0822  -29.0018   21.2098 H   0  0  0  0  0  0
  -25.9813  -26.0070   18.9129 H   0  0  0  0  0  0
  -23.9256  -27.3517   18.9934 H   0  0  0  0  0  0
  -23.7273  -30.6289   19.4112 H   0  0  0  0  0  0
  -22.7265  -29.2851   19.8604 H   0  0  0  0  0  0
  -25.1291  -36.1923   25.0844 H   0  0  0  0  0  0
  -20.9944  -28.3201   24.1416 H   0  0  0  0  0  0
  -20.5664  -26.2248   23.3593 H   0  0  0  0  0  0
  -21.6636  -26.7394   22.1190 H   0  0  0  0  0  0
  -19.6917  -25.6253   21.1221 H   0  0  0  0  0  0
  -19.6695  -27.3147   20.6681 H   0  0  0  0  0  0
  -17.4195  -26.6604   21.3975 H   0  0  0  0  0  0
  -18.0314  -26.0004   22.8969 H   0  0  0  0  0  0
  -19.7935  -30.7214   24.2248 H   0  0  0  0  0  0
  -17.5014  -31.6236   24.5134 H   0  0  0  0  0  0
  -15.5345  -30.2952   23.7653 H   0  0  0  0  0  0
  -15.8638  -28.0807   22.7030 H   0  0  0  0  0  0
  -24.5919  -30.6953   25.7831 H   0  0  0  0  0  0
  -24.8867  -32.2793   26.4944 H   0  0  0  0  0  0
  -25.8096  -30.8835   27.0255 H   0  0  0  0  0  0
  -26.2780  -29.6813   24.1173 H   0  0  0  0  0  0
  -27.4093  -29.7231   25.4501 H   0  0  0  0  0  0
  -27.8619  -30.4356   23.9188 H   0  0  0  0  0  0
  -27.2682  -33.3607   26.2043 H   0  0  0  0  0  0
  -28.3858  -32.6848   25.0291 H   0  0  0  0  0  0
  -28.0722  -31.8428   26.5406 H   0  0  0  0  0  0
  -28.2577  -38.0144   24.7486 H   0  0  0  0  0  0
  -28.1111  -36.2678   24.6287 H   0  0  0  0  0  0
  -27.2310  -37.1468   25.8866 H   0  0  0  0  0  0
  -20.9319  -29.8850   21.7036 H   0  0  0  0  0  0
  -26.0171  -38.2847   24.1382 H   0  0  0  0  0  0
  -31.2055  -17.0454   22.7728 H   0  0  0  0  0  0
  -29.1563  -23.5342   23.2012 H   0  0  0  0  0  0
  -27.5254  -23.4412   22.5906 H   0  0  0  0  0  0
  -27.8265  -21.2794   21.8882 H   0  0  0  0  0  0
  -29.3849  -21.3036   22.7072 H   0  0  0  0  0  0
  -29.9031  -23.3657   19.2463 H   0  0  0  0  0  0
  -28.2045  -22.9952   19.4272 H   0  0  0  0  0  0
  -30.5151  -26.0393   19.8537 H   0  0  0  0  0  0
  -31.5660  -24.6318   19.9022 H   0  0  0  0  0  0
  -31.8157  -25.9618   21.0186 H   0  0  0  0  0  0
  -27.5615  -25.6232   21.8416 H   0  0  0  0  0  0
  -27.0571  -24.8097   20.4149 H   0  0  0  0  0  0
  -31.9492  -19.2262   23.4302 H   0  0  0  0  0  0
  -32.0162  -20.5001   22.3596 H   0  0  0  0  0  0
  -28.8589  -15.2740   20.9041 H   0  0  0  0  0  0
  -30.9380  -20.1365   18.2995 H   0  0  0  0  0  0
  -30.3756  -21.7675   18.2725 H   0  0  0  0  0  0
  1 25  1  0  0  0
  1 30  2  0  0  0
  1 84  1  0  0  0
  2  3  1  0  0  0
  2 25  1  0  0  0
  2 88  1  0  0  0
  2 89  1  0  0  0
  3  4  1  0  0  0
  3 90  1  0  0  0
  3 91  1  0  0  0
  4  5  1  0  0  0
  4 92  1  0  0  0
  4 93  1  0  0  0
  5  6  1  0  0  0
  5 26  1  0  0  0
  5 94  1  0  0  0
  6 25  1  0  0  0
  6 95  1  0  0  0
  6 96  1  0  0  0
  7  8  2  0  0  0
  7 26  1  0  0  0
  7 29  1  0  0  0
  8  9  1  0  0  0
  8 22  1  0  0  0
  9 10  1  0  0  0
  9 27  2  0  0  0
 10 11  2  0  0  0
 10 15  1  0  0  0
 11 12  1  0  0  0
 11 97  1  0  0  0
 12 13  2  0  0  0
 12 98  1  0  0  0
 13 14  1  0  0  0
 13 31  1  0  0  0
 14 15  2  0  0  0
 14 99  1  0  0  0
 15100  1  0  0  0
 16 17  2  0  0  0
 16 21  1  0  0  0
 16 31  1  0  0  0
 17 18  1  0  0  0
 17101  1  0  0  0
 18 19  2  0  0  0
 18102  1  0  0  0
 19 20  1  0  0  0
 19 24  1  0  0  0
 20 21  2  0  0  0
 20103  1  0  0  0
 21 23  1  0  0  0
 22 28  1  0  0  0
 22 32  2  0  0  0
 26 27  1  0  0  0
 28104  1  0  0  0
 28105  1  0  0  0
 29106  1  0  0  0
 29107  1  0  0  0
 33 34  1  0  0  0
 33 66  1  0  0  0
 33 70  2  0  0  0
 34 36  1  0  0  0
 34 59  1  0  0  0
 34108  1  0  0  0
 35 44  2  0  0  0
 35 45  1  0  0  0
 35 68  1  0  0  0
 36 56  1  0  0  0
 36109  1  0  0  0
 37 39  1  0  0  0
 37 47  1  0  0  0
 37 66  1  0  0  0
 37110  1  0  0  0
 38 43  2  0  0  0
 38 46  1  0  0  0
 38 47  1  0  0  0
 39 64  1  0  0  0
 39 67  2  0  0  0
 40 52  1  0  0  0
 40 53  2  0  0  0
 40 58  1  0  0  0
 41111  1  0  0  0
 41112  1  0  0  0
 41113  1  0  0  0
 41 48  1  0  0  0
 42 43  1  0  0  0
 42 66  1  0  0  0
 42114  1  0  0  0
 42115  1  0  0  0
 43 44  1  0  0  0
 44116  1  0  0  0
 45 46  2  0  0  0
 45117  1  0  0  0
 46118  1  0  0  0
 47119  1  0  0  0
 47120  1  0  0  0
 48 56  1  0  0  0
 48 65  1  0  0  0
 48121  1  0  0  0
 49 50  1  0  0  0
 49 53  1  0  0  0
 49 64  1  0  0  0
 49122  1  0  0  0
 50 51  1  0  0  0
 50123  1  0  0  0
 50124  1  0  0  0
 51 52  1  0  0  0
 51125  1  0  0  0
 51126  1  0  0  0
 52127  1  0  0  0
 52128  1  0  0  0
 53 54  1  0  0  0
 54 55  2  0  0  0
 54129  1  0  0  0
 55 57  1  0  0  0
 55130  1  0  0  0
 56 69  2  0  0  0
 57 58  2  0  0  0
 57131  1  0  0  0
 58132  1  0  0  0
 59 60  1  0  0  0
 59 61  1  0  0  0
 59 62  1  0  0  0
 60133  1  0  0  0
 60134  1  0  0  0
 60135  1  0  0  0
 61136  1  0  0  0
 61137  1  0  0  0
 61138  1  0  0  0
 62139  1  0  0  0
 62140  1  0  0  0
 62141  1  0  0  0
 63 65  1  0  0  0
 63142  1  0  0  0
 63143  1  0  0  0
 63144  1  0  0  0
 64145  1  0  0  0
 65146  1  0  0  0
 68 81  1  0  0  0
 71 72  1  0  0  0
 71 74  2  0  0  0
 71147  1  0  0  0
 72 73  2  0  0  0
 72 83  1  0  0  0
 73 75  1  0  0  0
 73 87  1  0  0  0
 74 84  1  0  0  0
 74 87  1  0  0  0
 75 82  1  0  0  0
 75 85  2  0  0  0
 76 77  1  0  0  0
 76 79  1  0  0  0
 76148  1  0  0  0
 76149  1  0  0  0
 77 82  1  0  0  0
 77150  1  0  0  0
 77151  1  0  0  0
 78 79  1  0  0  0
 78 82  1  0  0  0
 78152  1  0  0  0
 78153  1  0  0  0
 79 81  1  0  0  0
 79 86  1  0  0  0
 80 86  1  0  0  0
 80154  1  0  0  0
 80155  1  0  0  0
 80156  1  0  0  0
 81157  1  0  0  0
 81158  1  0  0  0
 83159  1  0  0  0
 83160  1  0  0  0
 84161  1  0  0  0
 85162  1  0  0  0
 85163  1  0  0  0
M  CHG  1  85   1
M  ISO  4   1 100  68 101  81 101  84 100
M  END
> <chiral flag>
0

> <version>
0

> <s_m_source_file>
/data/baiqing/PycharmProjects/Reinvent-master-3.2/result/LINK_invent/BTK/process_docking_weight1_custom_product_contain_oxygen_bond_distance_aromatic_linkinvent_7_9_3/rearranged_h_0155.sdf

> <i_m_source_file_index>
83

> <r_mmod_Potential_Energy-OPLS-2005>
62.8785743713379

> <r_mmod_Stretch_Energy-OPLS-2005>
44.3321800231934

> <r_mmod_Bend_Energy-OPLS-2005>
145.074401855469

> <r_mmod_Torsional_Energy-OPLS-2005>
365.705139160156

> <r_mmod_Improper_Torsional_Energy-OPLS-2005>
11.1773071289062

> <r_mmod_Van_der_Waal_Energy-OPLS-2005>
134.920059204102

> <r_mmod_Electrostatic_Energy-OPLS-2005>
-218.3828125

> <r_mmod_Solvation_Energy-OPLS-2005>
-449.29296875

> <b_mmod_Minimization_Converged-OPLS-2005>
0

> <r_mmod_RMS_Derivative-OPLS-2005>
5.11927270889282

$$$$
83
                    3D
 Structure written by MMmdl.
162171  0  0  1  0            999 V2000
  -30.6346  -14.6727   20.5260 C   0  0  0  0  0  0
  -30.4366  -12.4172   19.4725 C   0  0  0  0  0  0
  -29.5129  -12.4808   18.2373 C   0  0  0  0  0  0
  -28.0393  -12.3093   18.6582 C   0  0  0  0  0  0
  -27.6481  -13.2149   19.8525 C   0  0  2  0  0  0
  -28.6874  -13.1206   20.9912 C   0  0  0  0  0  0
  -25.2519  -13.8183   20.5634 C   0  0  0  0  0  0
  -24.1784  -13.0445   20.9195 C   0  0  0  0  0  0
  -24.6351  -11.6910   20.8767 C   0  0  0  0  0  0
  -23.9029  -10.4310   21.0413 C   0  0  0  0  0  0
  -24.3579   -9.4223   21.9176 C   0  0  0  0  0  0
  -23.6280   -8.2259   22.0751 C   0  0  0  0  0  0
  -22.4257   -8.0280   21.3564 C   0  0  0  0  0  0
  -21.9886   -9.0236   20.4655 C   0  0  0  0  0  0
  -22.7210  -10.2135   20.3061 C   0  0  0  0  0  0
  -21.6844   -6.0720   22.5263 C   0  0  0  0  0  0
  -21.3996   -6.5627   23.8186 C   0  0  0  0  0  0
  -21.3659   -5.6783   24.9163 C   0  0  0  0  0  0
  -21.6063   -4.3045   24.7237 C   0  0  0  0  0  0
  -21.8814   -3.8129   23.4355 C   0  0  0  0  0  0
  -21.9189   -4.6946   22.3401 C   0  0  0  0  0  0
  -22.7843  -13.5247   21.1885 C   0  0  0  0  0  0
  -22.1670   -4.2127   21.0997 F   0  0  0  0  0  0
  -21.5640   -3.4532   25.7747 F   0  0  0  0  0  0
  -29.9988  -13.4614   20.4234 N   0  0  0  0  0  0
  -26.2943  -12.9379   20.3270 N   0  0  0  0  0  0
  -25.9278  -11.6523   20.5808 N   0  0  0  0  0  0
  -22.0451  -12.8226   22.0429 N   0  0  0  0  0  0
  -25.4295  -15.1883   20.3983 N   0  0  0  0  0  0
  -31.8092  -14.7927   20.1734 O   0  0  0  0  0  0
  -21.6649   -6.8854   21.4236 O   0  0  0  0  0  0
  -22.3556  -14.5520   20.6690 O   0  0  0  0  0  0
  -24.6259  -31.8673   23.2099 C   0  0  0  0  0  0
  -25.9103  -32.4807   23.8382 C   0  0  1  0  0  0
  -27.2559  -27.3679   20.1450 C   0  0  0  0  0  0
  -25.5976  -33.8637   24.2338 N   0  0  0  0  0  0
  -23.4178  -30.4884   21.5465 C   0  0  2  0  0  0
  -24.8732  -28.9425   20.1188 C   0  0  0  0  0  0
  -22.7451  -29.4709   22.4982 C   0  0  0  0  0  0
  -18.0282  -28.1443   22.8498 C   0  0  0  0  0  0
  -24.1446  -36.7277   23.2620 C   0  0  0  0  0  0
  -25.9510  -30.8230   21.3594 C   0  0  0  0  0  0
  -26.0333  -29.4433   20.7208 C   0  0  0  0  0  0
  -27.2269  -28.6714   20.7180 C   0  0  0  0  0  0
  -26.0747  -26.9134   19.5146 C   0  0  0  0  0  0
  -24.8948  -27.6836   19.5008 C   0  0  0  0  0  0
  -23.6330  -29.8121   20.1677 C   0  0  0  0  0  0
  -25.4067  -36.3105   24.0332 C   0  0  1  0  0  0
  -20.5879  -28.3800   23.1253 C   0  0  2  0  0  0
  -20.6773  -26.9507   22.5422 C   0  0  0  0  0  0
  -19.5727  -26.6435   21.5236 C   0  0  0  0  0  0
  -18.1898  -26.7998   22.1636 C   0  0  0  0  0  0
  -19.1542  -28.8899   23.2902 C   0  0  0  0  0  0
  -18.9471  -30.1447   23.8984 C   0  0  0  0  0  0
  -17.6494  -30.6633   24.0560 C   0  0  0  0  0  0
  -25.9027  -34.9493   23.5099 C   0  0  0  0  0  0
  -16.5358  -29.9177   23.6268 C   0  0  0  0  0  0
  -16.7267  -28.6555   23.0356 C   0  0  0  0  0  0
  -26.4539  -31.6572   25.0675 C   0  0  0  0  0  0
  -25.3803  -31.3697   26.1408 C   0  0  0  0  0  0
  -27.0303  -30.3004   24.5984 C   0  0  0  0  0  0
  -27.6123  -32.4281   25.7489 C   0  0  0  0  0  0
  -27.5537  -37.1764   24.8486 C   0  0  0  0  0  0
  -21.4191  -29.3135   22.3667 N   0  0  0  0  0  0
  -26.4264  -37.3784   23.9414 N   0  0  0  0  0  0
  -24.6806  -31.0814   22.0936 N   0  0  0  0  0  0
  -23.4181  -28.8240   23.3044 O   0  0  0  0  0  0
  -28.4072  -26.5653   20.2403 O   0  0  0  0  0  0
  -26.5582  -34.8937   22.4645 O   0  0  0  0  0  0
  -23.5403  -32.1484   23.7372 O   0  0  0  0  0  0
  -30.8108  -20.0003   20.8167 C   0  0  0  0  0  0
  -29.1717  -18.2148   20.6168 C   0  0  0  0  0  0
  -31.4709  -17.6523   21.1547 C   0  0  0  0  0  0
  -29.4687  -19.6328   20.6188 C   0  0  0  0  0  0
  -31.7897  -19.0310   21.1078 C   0  0  0  0  0  0
  -30.1620  -17.1976   20.8548 C   0  0  0  0  0  0
  -28.4616  -20.6948   20.2453 C   0  0  0  0  0  0
  -29.3744  -24.3804   21.2236 C   0  0  0  0  0  0
  -28.3116  -24.3616   19.0610 C   0  0  0  0  0  0
  -29.1450  -22.8373   21.4318 C   0  0  0  0  0  0
  -27.8583  -22.8861   19.2199 C   0  0  0  0  0  0
  -28.2579  -25.1057   20.4036 C   0  0  0  0  0  0
  -28.6404  -22.0721   20.2252 N   0  0  0  0  0  0
  -33.0932  -19.4507   21.3457 N   0  0  0  0  0  0
  -29.8431  -15.7630   20.8217 N   0  0  0  0  0  0
  -27.2476  -20.2825   19.8704 N   0  3  0  0  0  0
  -27.1240  -24.8269   21.0562 F   0  0  0  0  0  0
  -31.4761  -12.5386   19.1840 H   0  0  0  0  0  0
  -30.3760  -11.4416   19.9515 H   0  0  0  0  0  0
  -29.7926  -11.6992   17.5233 H   0  0  0  0  0  0
  -29.6422  -13.4272   17.7122 H   0  0  0  0  0  0
  -27.9045  -11.2645   18.9299 H   0  0  0  0  0  0
  -27.3744  -12.4800   17.8109 H   0  0  0  0  0  0
  -27.6567  -14.2358   19.4673 H   0  0  0  0  0  0
  -28.7212  -12.1168   21.4132 H   0  0  0  0  0  0
  -28.4286  -13.7858   21.8179 H   0  0  0  0  0  0
  -25.2704   -9.5710   22.4763 H   0  0  0  0  0  0
  -23.9956   -7.4674   22.7443 H   0  0  0  0  0  0
  -21.0829   -8.8752   19.8967 H   0  0  0  0  0  0
  -22.3622  -10.9673   19.6176 H   0  0  0  0  0  0
  -21.1965   -7.6108   23.9685 H   0  0  0  0  0  0
  -21.1504   -6.0520   25.9068 H   0  0  0  0  0  0
  -22.0599   -2.7589   23.2873 H   0  0  0  0  0  0
  -22.4064  -11.9878   22.4770 H   0  0  0  0  0  0
  -21.1109  -13.1343   22.2655 H   0  0  0  0  0  0
  -24.6560  -15.8401   20.4770 H   0  0  0  0  0  0
  -26.2569  -15.6069   19.9989 H   0  0  0  0  0  0
  -26.7157  -32.5547   23.1138 H   0  0  0  0  0  0
  -25.0053  -33.9802   25.0439 H   0  0  0  0  0  0
  -22.7184  -31.3142   21.3982 H   0  0  0  0  0  0
  -23.3731  -35.9581   23.3308 H   0  0  0  0  0  0
  -24.3519  -36.8859   22.2022 H   0  0  0  0  0  0
  -23.7194  -37.6477   23.6640 H   0  0  0  0  0  0
  -26.0432  -31.5772   20.5706 H   0  0  0  0  0  0
  -26.8479  -30.9081   21.9599 H   0  0  0  0  0  0
  -28.1171  -29.0571   21.1900 H   0  0  0  0  0  0
  -26.0359  -25.9390   19.0504 H   0  0  0  0  0  0
  -24.0074  -27.2975   19.0228 H   0  0  0  0  0  0
  -23.7591  -30.5932   19.4209 H   0  0  0  0  0  0
  -22.7493  -29.2408   19.8575 H   0  0  0  0  0  0
  -25.1247  -36.1921   25.0825 H   0  0  0  0  0  0
  -21.0027  -28.3413   24.1376 H   0  0  0  0  0  0
  -20.5661  -26.2420   23.3701 H   0  0  0  0  0  0
  -21.6628  -26.7496   22.1197 H   0  0  0  0  0  0
  -19.6913  -25.6372   21.1211 H   0  0  0  0  0  0
  -19.6612  -27.3327   20.6825 H   0  0  0  0  0  0
  -17.4154  -26.6760   21.4047 H   0  0  0  0  0  0
  -18.0255  -26.0190   22.9066 H   0  0  0  0  0  0
  -19.7942  -30.7210   24.2481 H   0  0  0  0  0  0
  -17.5041  -31.6347   24.5158 H   0  0  0  0  0  0
  -15.5356  -30.3105   23.7573 H   0  0  0  0  0  0
  -15.8665  -28.0868   22.7099 H   0  0  0  0  0  0
  -24.5957  -30.7080   25.7730 H   0  0  0  0  0  0
  -24.9025  -32.2888   26.4850 H   0  0  0  0  0  0
  -25.8145  -30.8845   27.0153 H   0  0  0  0  0  0
  -26.2799  -29.6878   24.0930 H   0  0  0  0  0  0
  -27.3999  -29.7094   25.4371 H   0  0  0  0  0  0
  -27.8702  -30.4305   23.9132 H   0  0  0  0  0  0
  -27.2701  -33.3538   26.2129 H   0  0  0  0  0  0
  -28.3943  -32.6897   25.0363 H   0  0  0  0  0  0
  -28.0798  -31.8363   26.5365 H   0  0  0  0  0  0
  -28.2557  -38.0040   24.7488 H   0  0  0  0  0  0
  -28.1015  -36.2579   24.6359 H   0  0  0  0  0  0
  -27.2282  -37.1472   25.8898 H   0  0  0  0  0  0
  -20.9448  -29.8795   21.6789 H   0  0  0  0  0  0
  -26.0144  -38.2815   24.1541 H   0  0  0  0  0  0
  -31.1006  -21.0352   20.7282 H   0  0  0  0  0  0
  -28.1704  -17.8977   20.3794 H   0  0  0  0  0  0
  -32.2466  -16.9459   21.4083 H   0  0  0  0  0  0
  -29.4515  -24.8465   22.2091 H   0  0  0  0  0  0
  -30.3547  -24.5300   20.7655 H   0  0  0  0  0  0
  -29.3249  -24.4005   18.6559 H   0  0  0  0  0  0
  -27.7174  -24.8539   18.2955 H   0  0  0  0  0  0
  -28.4215  -22.7246   22.2454 H   0  0  0  0  0  0
  -30.0557  -22.4141   21.8463 H   0  0  0  0  0  0
  -27.9594  -22.4207   18.2333 H   0  0  0  0  0  0
  -26.7895  -22.8740   19.4384 H   0  0  0  0  0  0
  -33.2335  -20.4501   21.4537 H   0  0  0  0  0  0
  -33.6268  -18.9178   22.0226 H   0  0  0  0  0  0
  -28.8646  -15.5458   20.9346 H   0  0  0  0  0  0
  -26.9893  -19.3182   20.0244 H   0  0  0  0  0  0
  -26.5009  -20.9521   19.8113 H   0  0  0  0  0  0
  1 25  1  0  0  0
  1 30  2  0  0  0
  1 85  1  0  0  0
  2  3  1  0  0  0
  2 25  1  0  0  0
  2 88  1  0  0  0
  2 89  1  0  0  0
  3  4  1  0  0  0
  3 90  1  0  0  0
  3 91  1  0  0  0
  4  5  1  0  0  0
  4 92  1  0  0  0
  4 93  1  0  0  0
  5  6  1  0  0  0
  5 26  1  0  0  0
  5 94  1  0  0  0
  6 25  1  0  0  0
  6 95  1  0  0  0
  6 96  1  0  0  0
  7  8  2  0  0  0
  7 26  1  0  0  0
  7 29  1  0  0  0
  8  9  1  0  0  0
  8 22  1  0  0  0
  9 10  1  0  0  0
  9 27  2  0  0  0
 10 11  2  0  0  0
 10 15  1  0  0  0
 11 12  1  0  0  0
 11 97  1  0  0  0
 12 13  2  0  0  0
 12 98  1  0  0  0
 13 14  1  0  0  0
 13 31  1  0  0  0
 14 15  2  0  0  0
 14 99  1  0  0  0
 15100  1  0  0  0
 16 17  2  0  0  0
 16 21  1  0  0  0
 16 31  1  0  0  0
 17 18  1  0  0  0
 17101  1  0  0  0
 18 19  2  0  0  0
 18102  1  0  0  0
 19 20  1  0  0  0
 19 24  1  0  0  0
 20 21  2  0  0  0
 20103  1  0  0  0
 21 23  1  0  0  0
 22 28  1  0  0  0
 22 32  2  0  0  0
 26 27  1  0  0  0
 28104  1  0  0  0
 28105  1  0  0  0
 29106  1  0  0  0
 29107  1  0  0  0
 33 34  1  0  0  0
 33 66  1  0  0  0
 33 70  2  0  0  0
 34 36  1  0  0  0
 34 59  1  0  0  0
 34108  1  0  0  0
 35 44  2  0  0  0
 35 45  1  0  0  0
 35 68  1  0  0  0
 36 56  1  0  0  0
 36109  1  0  0  0
 37 39  1  0  0  0
 37 47  1  0  0  0
 37 66  1  0  0  0
 37110  1  0  0  0
 38 43  2  0  0  0
 38 46  1  0  0  0
 38 47  1  0  0  0
 39 64  1  0  0  0
 39 67  2  0  0  0
 40 52  1  0  0  0
 40 53  2  0  0  0
 40 58  1  0  0  0
 41111  1  0  0  0
 41112  1  0  0  0
 41113  1  0  0  0
 41 48  1  0  0  0
 42 43  1  0  0  0
 42 66  1  0  0  0
 42114  1  0  0  0
 42115  1  0  0  0
 43 44  1  0  0  0
 44116  1  0  0  0
 45 46  2  0  0  0
 45117  1  0  0  0
 46118  1  0  0  0
 47119  1  0  0  0
 47120  1  0  0  0
 48 56  1  0  0  0
 48 65  1  0  0  0
 48121  1  0  0  0
 49 50  1  0  0  0
 49 53  1  0  0  0
 49 64  1  0  0  0
 49122  1  0  0  0
 50 51  1  0  0  0
 50123  1  0  0  0
 50124  1  0  0  0
 51 52  1  0  0  0
 51125  1  0  0  0
 51126  1  0  0  0
 52127  1  0  0  0
 52128  1  0  0  0
 53 54  1  0  0  0
 54 55  2  0  0  0
 54129  1  0  0  0
 55 57  1  0  0  0
 55130  1  0  0  0
 56 69  2  0  0  0
 57 58  2  0  0  0
 57131  1  0  0  0
 58132  1  0  0  0
 59 60  1  0  0  0
 59 61  1  0  0  0
 59 62  1  0  0  0
 60133  1  0  0  0
 60134  1  0  0  0
 60135  1  0  0  0
 61136  1  0  0  0
 61137  1  0  0  0
 61138  1  0  0  0
 62139  1  0  0  0
 62140  1  0  0  0
 62141  1  0  0  0
 63 65  1  0  0  0
 63142  1  0  0  0
 63143  1  0  0  0
 63144  1  0  0  0
 64145  1  0  0  0
 65146  1  0  0  0
 68 82  1  0  0  0
 71 74  2  0  0  0
 71 75  1  0  0  0
 71147  1  0  0  0
 72 74  1  0  0  0
 72 76  2  0  0  0
 72148  1  0  0  0
 73 75  2  0  0  0
 73 76  1  0  0  0
 73149  1  0  0  0
 74 77  1  0  0  0
 75 84  1  0  0  0
 76 85  1  0  0  0
 77 83  1  0  0  0
 77 86  2  0  0  0
 78 80  1  0  0  0
 78 82  1  0  0  0
 78150  1  0  0  0
 78151  1  0  0  0
 79 81  1  0  0  0
 79 82  1  0  0  0
 79152  1  0  0  0
 79153  1  0  0  0
 80 83  1  0  0  0
 80154  1  0  0  0
 80155  1  0  0  0
 81 83  1  0  0  0
 81156  1  0  0  0
 81157  1  0  0  0
 82 87  1  0  0  0
 84158  1  0  0  0
 84159  1  0  0  0
 85160  1  0  0  0
 86161  1  0  0  0
 86162  1  0  0  0
M  CHG  1  86   1
M  ISO  4   1 100  68 101  82 101  85 100
M  END
> <chiral flag>
0

> <version>
0

> <s_m_source_file>
/data/baiqing/PycharmProjects/Reinvent-master-3.2/result/LINK_invent/BTK/process_docking_weight1_custom_product_contain_oxygen_bond_distance_aromatic_linkinvent_7_9_3/rearranged_h_0155.sdf

> <i_m_source_file_index>
84

> <r_mmod_Potential_Energy-OPLS-2005>
-55.3732414245605

> <r_mmod_Stretch_Energy-OPLS-2005>
83.1290435791016

> <r_mmod_Bend_Energy-OPLS-2005>
139.400924682617

> <r_mmod_Torsional_Energy-OPLS-2005>
328.095031738281

> <r_mmod_Improper_Torsional_Energy-OPLS-2005>
12.9422988891602

> <r_mmod_Van_der_Waal_Energy-OPLS-2005>
168.259796142578

> <r_mmod_Electrostatic_Energy-OPLS-2005>
-410.276123046875

> <r_mmod_Solvation_Energy-OPLS-2005>
-426.761322021484

> <b_mmod_Minimization_Converged-OPLS-2005>
0

> <r_mmod_RMS_Derivative-OPLS-2005>
9.9655122756958

$$$$
84
                    3D
 Structure written by MMmdl.
158167  0  0  1  0            999 V2000
  -30.6944  -14.5956   20.4773 C   0  0  0  0  0  0
  -30.4103  -12.3756   19.4159 C   0  0  0  0  0  0
  -29.4777  -12.4975   18.1939 C   0  0  0  0  0  0
  -28.0062  -12.3404   18.6216 C   0  0  0  0  0  0
  -27.6425  -13.2230   19.8454 C   0  0  2  0  0  0
  -28.6972  -13.1186   20.9687 C   0  0  0  0  0  0
  -25.2541  -13.8194   20.5701 C   0  0  0  0  0  0
  -24.1821  -13.0468   20.9235 C   0  0  0  0  0  0
  -24.6413  -11.6931   20.8783 C   0  0  0  0  0  0
  -23.9092  -10.4299   21.0439 C   0  0  0  0  0  0
  -24.3638   -9.4209   21.9214 C   0  0  0  0  0  0
  -23.6321   -8.2238   22.0760 C   0  0  0  0  0  0
  -22.4294   -8.0287   21.3555 C   0  0  0  0  0  0
  -21.9947   -9.0256   20.4644 C   0  0  0  0  0  0
  -22.7273  -10.2143   20.3076 C   0  0  0  0  0  0
  -21.6864   -6.0765   22.5300 C   0  0  0  0  0  0
  -21.4000   -6.5657   23.8228 C   0  0  0  0  0  0
  -21.3652   -5.6814   24.9187 C   0  0  0  0  0  0
  -21.6036   -4.3077   24.7241 C   0  0  0  0  0  0
  -21.8814   -3.8167   23.4360 C   0  0  0  0  0  0
  -21.9186   -4.6992   22.3414 C   0  0  0  0  0  0
  -22.7836  -13.5256   21.1868 C   0  0  0  0  0  0
  -22.1658   -4.2170   21.1002 F   0  0  0  0  0  0
  -21.5628   -3.4562   25.7758 F   0  0  0  0  0  0
  -30.0054  -13.4204   20.3758 N   0  0  0  0  0  0
  -26.2958  -12.9386   20.3306 N   0  0  0  0  0  0
  -25.9342  -11.6530   20.5786 N   0  0  0  0  0  0
  -22.0472  -12.8212   22.0392 N   0  0  0  0  0  0
  -25.4263  -15.1917   20.4087 N   0  0  0  0  0  0
  -31.8795  -14.6640   20.1501 O   0  0  0  0  0  0
  -21.6650   -6.8897   21.4255 O   0  0  0  0  0  0
  -22.3516  -14.5577   20.6749 O   0  0  0  0  0  0
  -24.6257  -31.8608   23.2067 C   0  0  0  0  0  0
  -25.9105  -32.4775   23.8393 C   0  0  1  0  0  0
  -27.1975  -27.3101   20.1177 C   0  0  0  0  0  0
  -25.5923  -33.8583   24.2320 N   0  0  0  0  0  0
  -23.4220  -30.4836   21.5480 C   0  0  2  0  0  0
  -24.8656  -28.9478   20.1006 C   0  0  0  0  0  0
  -22.7485  -29.4615   22.4931 C   0  0  0  0  0  0
  -18.0277  -28.1412   22.8491 C   0  0  0  0  0  0
  -24.1491  -36.7276   23.2637 C   0  0  0  0  0  0
  -25.9634  -30.7831   21.3841 C   0  0  0  0  0  0
  -26.0337  -29.4122   20.7224 C   0  0  0  0  0  0
  -27.2056  -28.5995   20.7329 C   0  0  0  0  0  0
  -26.0275  -26.9209   19.4358 C   0  0  0  0  0  0
  -24.8648  -27.7080   19.4468 C   0  0  0  0  0  0
  -23.6361  -29.8298   20.1587 C   0  0  0  0  0  0
  -25.4112  -36.3085   24.0333 C   0  0  1  0  0  0
  -20.5877  -28.3705   23.1289 C   0  0  2  0  0  0
  -20.6750  -26.9426   22.5409 C   0  0  0  0  0  0
  -19.5713  -26.6398   21.5231 C   0  0  0  0  0  0
  -18.1903  -26.7947   22.1642 C   0  0  0  0  0  0
  -19.1538  -28.8868   23.2890 C   0  0  0  0  0  0
  -18.9463  -30.1472   23.8913 C   0  0  0  0  0  0
  -17.6464  -30.6597   24.0570 C   0  0  0  0  0  0
  -25.9046  -34.9446   23.5117 C   0  0  0  0  0  0
  -16.5352  -29.9101   23.6355 C   0  0  0  0  0  0
  -16.7263  -28.6529   23.0353 C   0  0  0  0  0  0
  -26.4500  -31.6566   25.0740 C   0  0  0  0  0  0
  -25.3722  -31.3724   26.1467 C   0  0  0  0  0  0
  -27.0330  -30.2990   24.6184 C   0  0  0  0  0  0
  -27.6136  -32.4263   25.7432 C   0  0  0  0  0  0
  -27.5574  -37.1796   24.8473 C   0  0  0  0  0  0
  -21.4189  -29.3075   22.3699 N   0  0  0  0  0  0
  -26.4301  -37.3776   23.9401 N   0  0  0  0  0  0
  -24.6889  -31.0607   22.1021 N   0  0  0  0  0  0
  -23.4196  -28.8164   23.3019 O   0  0  0  0  0  0
  -28.2439  -26.3879   20.1965 O   0  0  0  0  0  0
  -26.5626  -34.8904   22.4692 O   0  0  0  0  0  0
  -23.5414  -32.1431   23.7350 O   0  0  0  0  0  0
  -29.9514  -18.3150   20.5507 C   0  0  0  0  0  0
  -31.6952  -19.5508   21.7111 C   0  0  0  0  0  0
  -31.6360  -17.1231   21.8691 C   0  0  0  0  0  0
  -30.5357  -19.5916   20.8951 C   0  0  0  0  0  0
  -30.5147  -17.0637   21.0125 C   0  0  0  0  0  0
  -32.2209  -18.3490   22.2117 C   0  0  0  0  0  0
  -29.7501  -23.5059   21.3460 C   0  0  0  0  0  0
  -28.6753  -23.7924   20.5861 C   0  0  0  0  0  0
  -30.5270  -22.1815   21.3604 C   0  0  0  0  0  0
  -28.1240  -22.6774   19.6747 C   0  0  0  0  0  0
  -28.5540  -21.2096   20.0691 C   0  0  0  0  0  0
  -30.0633  -21.0219   20.4027 C   0  0  2  0  0  0
  -27.8345  -25.0989   20.8067 C   0  0  0  0  0  0
  -29.9786  -15.7439   20.6985 N   0  0  0  0  0  0
  -33.3006  -18.3730   23.0269 F   0  0  0  0  0  0
  -31.4501  -12.4736   19.0989 H   0  0  0  0  0  0
  -30.3260  -11.3866   19.8689 H   0  0  0  0  0  0
  -29.7306  -11.7458   17.4444 H   0  0  0  0  0  0
  -29.6123  -13.4665   17.7101 H   0  0  0  0  0  0
  -27.8457  -11.2881   18.8561 H   0  0  0  0  0  0
  -27.3425  -12.5672   17.7834 H   0  0  0  0  0  0
  -27.6446  -14.2504   19.4808 H   0  0  0  0  0  0
  -28.7044  -12.1213   21.4082 H   0  0  0  0  0  0
  -28.4627  -13.8118   21.7791 H   0  0  0  0  0  0
  -25.2790   -9.5694   22.4783 H   0  0  0  0  0  0
  -24.0045   -7.4630   22.7473 H   0  0  0  0  0  0
  -21.0887   -8.8777   19.8929 H   0  0  0  0  0  0
  -22.3756  -10.9688   19.6166 H   0  0  0  0  0  0
  -21.1975   -7.6158   23.9742 H   0  0  0  0  0  0
  -21.1475   -6.0542   25.9095 H   0  0  0  0  0  0
  -22.0591   -2.7632   23.2869 H   0  0  0  0  0  0
  -22.4058  -11.9839   22.4726 H   0  0  0  0  0  0
  -21.1084  -13.1204   22.2585 H   0  0  0  0  0  0
  -24.6637  -15.8517   20.5111 H   0  0  0  0  0  0
  -26.2744  -15.6249   20.0670 H   0  0  0  0  0  0
  -26.7137  -32.5413   23.1110 H   0  0  0  0  0  0
  -25.0079  -33.9767   25.0461 H   0  0  0  0  0  0
  -22.7181  -31.3037   21.4027 H   0  0  0  0  0  0
  -23.3784  -35.9573   23.3272 H   0  0  0  0  0  0
  -24.3615  -36.8972   22.2073 H   0  0  0  0  0  0
  -23.7224  -37.6446   23.6685 H   0  0  0  0  0  0
  -26.1014  -31.5438   20.6151 H   0  0  0  0  0  0
  -26.8436  -30.8273   22.0128 H   0  0  0  0  0  0
  -28.0880  -28.9252   21.2628 H   0  0  0  0  0  0
  -25.9954  -25.9737   18.9159 H   0  0  0  0  0  0
  -23.9759  -27.3547   18.9436 H   0  0  0  0  0  0
  -23.7558  -30.6105   19.4068 H   0  0  0  0  0  0
  -22.7536  -29.2657   19.8511 H   0  0  0  0  0  0
  -25.1296  -36.1941   25.0829 H   0  0  0  0  0  0
  -20.9976  -28.3261   24.1402 H   0  0  0  0  0  0
  -20.5714  -26.2314   23.3620 H   0  0  0  0  0  0
  -21.6593  -26.7464   22.1153 H   0  0  0  0  0  0
  -19.6887  -25.6332   21.1225 H   0  0  0  0  0  0
  -19.6637  -27.3217   20.6777 H   0  0  0  0  0  0
  -17.4169  -26.6745   21.4030 H   0  0  0  0  0  0
  -18.0259  -26.0091   22.9028 H   0  0  0  0  0  0
  -19.7944  -30.7283   24.2284 H   0  0  0  0  0  0
  -17.5001  -31.6266   24.5188 H   0  0  0  0  0  0
  -15.5348  -30.2985   23.7682 H   0  0  0  0  0  0
  -15.8665  -28.0838   22.7070 H   0  0  0  0  0  0
  -24.5810  -30.7208   25.7746 H   0  0  0  0  0  0
  -24.8994  -32.2892   26.4988 H   0  0  0  0  0  0
  -25.7982  -30.8755   27.0187 H   0  0  0  0  0  0
  -26.2871  -29.6717   24.1286 H   0  0  0  0  0  0
  -27.4137  -29.7299   25.4682 H   0  0  0  0  0  0
  -27.8698  -30.4320   23.9335 H   0  0  0  0  0  0
  -27.2910  -33.3713   26.1809 H   0  0  0  0  0  0
  -28.3992  -32.6574   25.0215 H   0  0  0  0  0  0
  -28.0670  -31.8445   26.5475 H   0  0  0  0  0  0
  -28.2601  -38.0082   24.7472 H   0  0  0  0  0  0
  -28.1092  -36.2616   24.6346 H   0  0  0  0  0  0
  -27.2278  -37.1459   25.8882 H   0  0  0  0  0  0
  -20.9377  -29.8859   21.6953 H   0  0  0  0  0  0
  -26.0196  -38.2870   24.1368 H   0  0  0  0  0  0
  -29.0845  -18.2921   19.9049 H   0  0  0  0  0  0
  -32.2275  -20.4482   21.9883 H   0  0  0  0  0  0
  -32.0744  -16.2236   22.2768 H   0  0  0  0  0  0
  -30.0869  -24.2396   22.0671 H   0  0  0  0  0  0
  -30.4446  -21.8410   22.3954 H   0  0  0  0  0  0
  -31.5820  -22.4134   21.1926 H   0  0  0  0  0  0
  -28.4297  -22.8931   18.6496 H   0  0  0  0  0  0
  -27.0317  -22.7131   19.6703 H   0  0  0  0  0  0
  -28.2864  -20.5396   19.2496 H   0  0  0  0  0  0
  -27.9620  -20.8821   20.9231 H   0  0  0  0  0  0
  -30.5935  -21.1781   19.4617 H   0  0  0  0  0  0
  -27.8371  -25.2742   21.8836 H   0  0  0  0  0  0
  -26.7959  -24.8327   20.6015 H   0  0  0  0  0  0
  -28.9751  -15.6527   20.6811 H   0  0  0  0  0  0
  1 25  1  0  0  0
  1 30  2  0  0  0
  1 84  1  0  0  0
  2  3  1  0  0  0
  2 25  1  0  0  0
  2 86  1  0  0  0
  2 87  1  0  0  0
  3  4  1  0  0  0
  3 88  1  0  0  0
  3 89  1  0  0  0
  4  5  1  0  0  0
  4 90  1  0  0  0
  4 91  1  0  0  0
  5  6  1  0  0  0
  5 26  1  0  0  0
  5 92  1  0  0  0
  6 25  1  0  0  0
  6 93  1  0  0  0
  6 94  1  0  0  0
  7  8  2  0  0  0
  7 26  1  0  0  0
  7 29  1  0  0  0
  8  9  1  0  0  0
  8 22  1  0  0  0
  9 10  1  0  0  0
  9 27  2  0  0  0
 10 11  2  0  0  0
 10 15  1  0  0  0
 11 12  1  0  0  0
 11 95  1  0  0  0
 12 13  2  0  0  0
 12 96  1  0  0  0
 13 14  1  0  0  0
 13 31  1  0  0  0
 14 15  2  0  0  0
 14 97  1  0  0  0
 15 98  1  0  0  0
 16 17  2  0  0  0
 16 21  1  0  0  0
 16 31  1  0  0  0
 17 18  1  0  0  0
 17 99  1  0  0  0
 18 19  2  0  0  0
 18100  1  0  0  0
 19 20  1  0  0  0
 19 24  1  0  0  0
 20 21  2  0  0  0
 20101  1  0  0  0
 21 23  1  0  0  0
 22 28  1  0  0  0
 22 32  2  0  0  0
 26 27  1  0  0  0
 28102  1  0  0  0
 28103  1  0  0  0
 29104  1  0  0  0
 29105  1  0  0  0
 33 34  1  0  0  0
 33 66  1  0  0  0
 33 70  2  0  0  0
 34 36  1  0  0  0
 34 59  1  0  0  0
 34106  1  0  0  0
 35 44  2  0  0  0
 35 45  1  0  0  0
 35 68  1  0  0  0
 36 56  1  0  0  0
 36107  1  0  0  0
 37 39  1  0  0  0
 37 47  1  0  0  0
 37 66  1  0  0  0
 37108  1  0  0  0
 38 43  2  0  0  0
 38 46  1  0  0  0
 38 47  1  0  0  0
 39 64  1  0  0  0
 39 67  2  0  0  0
 40 52  1  0  0  0
 40 53  2  0  0  0
 40 58  1  0  0  0
 41109  1  0  0  0
 41110  1  0  0  0
 41111  1  0  0  0
 41 48  1  0  0  0
 42 43  1  0  0  0
 42 66  1  0  0  0
 42112  1  0  0  0
 42113  1  0  0  0
 43 44  1  0  0  0
 44114  1  0  0  0
 45 46  2  0  0  0
 45115  1  0  0  0
 46116  1  0  0  0
 47117  1  0  0  0
 47118  1  0  0  0
 48 56  1  0  0  0
 48 65  1  0  0  0
 48119  1  0  0  0
 49 50  1  0  0  0
 49 53  1  0  0  0
 49 64  1  0  0  0
 49120  1  0  0  0
 50 51  1  0  0  0
 50121  1  0  0  0
 50122  1  0  0  0
 51 52  1  0  0  0
 51123  1  0  0  0
 51124  1  0  0  0
 52125  1  0  0  0
 52126  1  0  0  0
 53 54  1  0  0  0
 54 55  2  0  0  0
 54127  1  0  0  0
 55 57  1  0  0  0
 55128  1  0  0  0
 56 69  2  0  0  0
 57 58  2  0  0  0
 57129  1  0  0  0
 58130  1  0  0  0
 59 60  1  0  0  0
 59 61  1  0  0  0
 59 62  1  0  0  0
 60131  1  0  0  0
 60132  1  0  0  0
 60133  1  0  0  0
 61134  1  0  0  0
 61135  1  0  0  0
 61136  1  0  0  0
 62137  1  0  0  0
 62138  1  0  0  0
 62139  1  0  0  0
 63 65  1  0  0  0
 63140  1  0  0  0
 63141  1  0  0  0
 63142  1  0  0  0
 64143  1  0  0  0
 65144  1  0  0  0
 68 83  1  0  0  0
 71 74  2  0  0  0
 71 75  1  0  0  0
 71145  1  0  0  0
 72 74  1  0  0  0
 72 76  2  0  0  0
 72146  1  0  0  0
 73 75  2  0  0  0
 73 76  1  0  0  0
 73147  1  0  0  0
 74 82  1  0  0  0
 75 84  1  0  0  0
 76 85  1  0  0  0
 77 78  2  0  0  0
 77 79  1  0  0  0
 77148  1  0  0  0
 78 80  1  0  0  0
 78 83  1  0  0  0
 79 82  1  0  0  0
 79149  1  0  0  0
 79150  1  0  0  0
 80 81  1  0  0  0
 80151  1  0  0  0
 80152  1  0  0  0
 81 82  1  0  0  0
 81153  1  0  0  0
 81154  1  0  0  0
 82155  1  0  0  0
 83156  1  0  0  0
 83157  1  0  0  0
 84158  1  0  0  0
M  ISO  4   1 100  68 101  83 101  84 100
M  END
> <chiral flag>
0

> <version>
0

> <s_m_source_file>
/data/baiqing/PycharmProjects/Reinvent-master-3.2/result/LINK_invent/BTK/process_docking_weight1_custom_product_contain_oxygen_bond_distance_aromatic_linkinvent_7_9_3/rearranged_h_0155.sdf

> <i_m_source_file_index>
85

> <r_mmod_Potential_Energy-OPLS-2005>
153.862350463867

> <r_mmod_Stretch_Energy-OPLS-2005>
79.1543197631836

> <r_mmod_Bend_Energy-OPLS-2005>
134.890670776367

> <r_mmod_Torsional_Energy-OPLS-2005>
257.510620117188

> <r_mmod_Improper_Torsional_Energy-OPLS-2005>
6.49311017990112

> <r_mmod_Van_der_Waal_Energy-OPLS-2005>
160.565155029297

> <r_mmod_Electrostatic_Energy-OPLS-2005>
-343.556030273438

> <r_mmod_Solvation_Energy-OPLS-2005>
-198.376266479492

> <b_mmod_Minimization_Converged-OPLS-2005>
0

> <r_mmod_RMS_Derivative-OPLS-2005>
4.69380044937134

$$$$
85
                    3D
 Structure written by MMmdl.
157166  0  0  1  0            999 V2000
  -30.5707  -14.7659   20.5134 C   0  0  0  0  0  0
  -30.4466  -12.4732   19.4913 C   0  0  0  0  0  0
  -29.5282  -12.5366   18.2486 C   0  0  0  0  0  0
  -28.0502  -12.3566   18.6442 C   0  0  0  0  0  0
  -27.6537  -13.2297   19.8640 C   0  0  2  0  0  0
  -28.6903  -13.1275   21.0062 C   0  0  0  0  0  0
  -25.2532  -13.8173   20.5636 C   0  0  0  0  0  0
  -24.1821  -13.0415   20.9158 C   0  0  0  0  0  0
  -24.6404  -11.6893   20.8722 C   0  0  0  0  0  0
  -23.9060  -10.4276   21.0399 C   0  0  0  0  0  0
  -24.3617   -9.4186   21.9185 C   0  0  0  0  0  0
  -23.6295   -8.2207   22.0752 C   0  0  0  0  0  0
  -22.4279   -8.0272   21.3545 C   0  0  0  0  0  0
  -21.9911   -9.0238   20.4628 C   0  0  0  0  0  0
  -22.7234  -10.2108   20.3029 C   0  0  0  0  0  0
  -21.6842   -6.0715   22.5297 C   0  0  0  0  0  0
  -21.4008   -6.5629   23.8230 C   0  0  0  0  0  0
  -21.3658   -5.6785   24.9200 C   0  0  0  0  0  0
  -21.6069   -4.3039   24.7241 C   0  0  0  0  0  0
  -21.8819   -3.8130   23.4354 C   0  0  0  0  0  0
  -21.9182   -4.6951   22.3407 C   0  0  0  0  0  0
  -22.7846  -13.5193   21.1823 C   0  0  0  0  0  0
  -22.1651   -4.2133   21.0984 F   0  0  0  0  0  0
  -21.5636   -3.4521   25.7750 F   0  0  0  0  0  0
  -29.9951  -13.5110   20.4545 N   0  0  0  0  0  0
  -26.2993  -12.9386   20.3280 N   0  0  0  0  0  0
  -25.9351  -11.6517   20.5716 N   0  0  0  0  0  0
  -22.0473  -12.8218   22.0392 N   0  0  0  0  0  0
  -25.4182  -15.1901   20.4034 N   0  0  0  0  0  0
  -31.7158  -14.9244   20.0719 O   0  0  0  0  0  0
  -21.6616   -6.8896   21.4278 O   0  0  0  0  0  0
  -22.3546  -14.5494   20.6657 O   0  0  0  0  0  0
  -24.6360  -31.8549   23.2000 C   0  0  0  0  0  0
  -25.9208  -32.4737   23.8345 C   0  0  1  0  0  0
  -27.1968  -27.2172   20.1692 C   0  0  0  0  0  0
  -25.5998  -33.8530   24.2269 N   0  0  0  0  0  0
  -23.4321  -30.4839   21.5394 C   0  0  2  0  0  0
  -24.8772  -28.9270   20.1116 C   0  0  0  0  0  0
  -22.7507  -29.4641   22.4855 C   0  0  0  0  0  0
  -18.0292  -28.1387   22.8455 C   0  0  0  0  0  0
  -24.1505  -36.7246   23.2647 C   0  0  0  0  0  0
  -25.9835  -30.7611   21.3838 C   0  0  0  0  0  0
  -26.0550  -29.3811   20.7232 C   0  0  0  0  0  0
  -27.2182  -28.5427   20.7344 C   0  0  0  0  0  0
  -26.0028  -26.8550   19.5002 C   0  0  0  0  0  0
  -24.8593  -27.6735   19.4883 C   0  0  0  0  0  0
  -23.6575  -29.8278   20.1527 C   0  0  0  0  0  0
  -25.4130  -36.3038   24.0335 C   0  0  1  0  0  0
  -20.5900  -28.3732   23.1201 C   0  0  2  0  0  0
  -20.6770  -26.9446   22.5371 C   0  0  0  0  0  0
  -19.5760  -26.6383   21.5165 C   0  0  0  0  0  0
  -18.1942  -26.7928   22.1578 C   0  0  0  0  0  0
  -19.1548  -28.8858   23.2824 C   0  0  0  0  0  0
  -18.9480  -30.1454   23.8877 C   0  0  0  0  0  0
  -17.6486  -30.6585   24.0548 C   0  0  0  0  0  0
  -25.9084  -34.9422   23.5088 C   0  0  0  0  0  0
  -16.5376  -29.9091   23.6330 C   0  0  0  0  0  0
  -16.7277  -28.6499   23.0360 C   0  0  0  0  0  0
  -26.4573  -31.6551   25.0744 C   0  0  0  0  0  0
  -25.3804  -31.3680   26.1464 C   0  0  0  0  0  0
  -27.0412  -30.2949   24.6270 C   0  0  0  0  0  0
  -27.6138  -32.4270   25.7509 C   0  0  0  0  0  0
  -27.5570  -37.1784   24.8467 C   0  0  0  0  0  0
  -21.4215  -29.3074   22.3568 N   0  0  0  0  0  0
  -26.4285  -37.3749   23.9425 N   0  0  0  0  0  0
  -24.7024  -31.0506   22.0979 N   0  0  0  0  0  0
  -23.4182  -28.8196   23.2971 O   0  0  0  0  0  0
  -28.2306  -26.2488   20.3087 O   0  0  0  0  0  0
  -26.5616  -34.8883   22.4650 O   0  0  0  0  0  0
  -23.5501  -32.1380   23.7289 O   0  0  0  0  0  0
  -29.6244  -17.6693   19.3003 C   0  0  0  0  0  0
  -29.7162  -17.2680   20.6137 C   0  0  0  0  0  0
  -29.2418  -19.6336   20.8681 C   0  0  0  0  0  0
  -28.7598  -23.5925   20.8332 C   0  0  0  0  0  0
  -26.8331  -20.6361   22.7853 C   0  0  0  0  0  0
  -26.1783  -21.7001   21.8824 C   0  0  0  0  0  0
  -28.3460  -20.8983   22.9513 C   0  0  0  0  0  0
  -26.9649  -21.8609   20.5598 C   0  0  0  0  0  0
  -29.0760  -21.0592   21.5841 C   0  0  2  0  0  0
  -27.8450  -24.7748   20.2020 C   0  0  0  0  0  0
  -29.4930  -18.4132   21.4735 N   0  0  0  0  0  0
  -28.3613  -22.2365   20.8643 N   0  0  0  0  0  0
  -29.8202  -15.8329   21.0103 N   0  0  0  0  0  0
  -29.8521  -23.9222   21.3079 O   0  0  0  0  0  0
  -29.2494  -19.3907   19.1163 S   0  0  0  0  0  0
  -31.4896  -12.6112   19.2006 H   0  0  0  0  0  0
  -30.3977  -11.4821   19.9455 H   0  0  0  0  0  0
  -29.8217  -11.7768   17.5235 H   0  0  0  0  0  0
  -29.6590  -13.4974   17.7506 H   0  0  0  0  0  0
  -27.8885  -11.3026   18.8749 H   0  0  0  0  0  0
  -27.4015  -12.5829   17.7984 H   0  0  0  0  0  0
  -27.6588  -14.2605   19.5074 H   0  0  0  0  0  0
  -28.7358  -12.1076   21.3926 H   0  0  0  0  0  0
  -28.4081  -13.7557   21.8495 H   0  0  0  0  0  0
  -25.2778   -9.5667   22.4737 H   0  0  0  0  0  0
  -24.0013   -7.4582   22.7451 H   0  0  0  0  0  0
  -21.0837   -8.8738   19.8937 H   0  0  0  0  0  0
  -22.3713  -10.9628   19.6097 H   0  0  0  0  0  0
  -21.1994   -7.6148   23.9741 H   0  0  0  0  0  0
  -21.1497   -6.0503   25.9113 H   0  0  0  0  0  0
  -22.0599   -2.7587   23.2830 H   0  0  0  0  0  0
  -22.4087  -11.9897   22.4818 H   0  0  0  0  0  0
  -21.1085  -13.1288   22.2523 H   0  0  0  0  0  0
  -24.6359  -15.8310   20.4888 H   0  0  0  0  0  0
  -26.2576  -15.6333   20.0538 H   0  0  0  0  0  0
  -26.7285  -32.5359   23.1068 H   0  0  0  0  0  0
  -25.0214  -33.9658   25.0457 H   0  0  0  0  0  0
  -22.7328  -31.3104   21.3957 H   0  0  0  0  0  0
  -23.3755  -35.9590   23.3329 H   0  0  0  0  0  0
  -24.3586  -36.8844   22.2057 H   0  0  0  0  0  0
  -23.7255  -37.6461   23.6644 H   0  0  0  0  0  0
  -26.1298  -31.5234   20.6158 H   0  0  0  0  0  0
  -26.8570  -30.8023   22.0256 H   0  0  0  0  0  0
  -28.1115  -28.8800   21.2447 H   0  0  0  0  0  0
  -25.9024  -25.8970   19.0155 H   0  0  0  0  0  0
  -23.9532  -27.3155   19.0174 H   0  0  0  0  0  0
  -23.8106  -30.6121   19.4093 H   0  0  0  0  0  0
  -22.7689  -29.2851   19.8273 H   0  0  0  0  0  0
  -25.1307  -36.1882   25.0822 H   0  0  0  0  0  0
  -20.9994  -28.3337   24.1318 H   0  0  0  0  0  0
  -20.5624  -26.2384   23.3602 H   0  0  0  0  0  0
  -21.6654  -26.7446   22.1214 H   0  0  0  0  0  0
  -19.6952  -25.6278   21.1233 H   0  0  0  0  0  0
  -19.6698  -27.3156   20.6668 H   0  0  0  0  0  0
  -17.4218  -26.6647   21.3985 H   0  0  0  0  0  0
  -18.0384  -26.0073   22.8984 H   0  0  0  0  0  0
  -19.7975  -30.7227   24.2267 H   0  0  0  0  0  0
  -17.5075  -31.6268   24.5157 H   0  0  0  0  0  0
  -15.5379  -30.3003   23.7668 H   0  0  0  0  0  0
  -15.8677  -28.0799   22.7120 H   0  0  0  0  0  0
  -24.6017  -30.6986   25.7782 H   0  0  0  0  0  0
  -24.8946  -32.2827   26.4872 H   0  0  0  0  0  0
  -25.8147  -30.8879   27.0250 H   0  0  0  0  0  0
  -26.2997  -29.6654   24.1336 H   0  0  0  0  0  0
  -27.4101  -29.7257   25.4816 H   0  0  0  0  0  0
  -27.8885  -30.4153   23.9512 H   0  0  0  0  0  0
  -27.2788  -33.3593   26.2042 H   0  0  0  0  0  0
  -28.3980  -32.6772   25.0359 H   0  0  0  0  0  0
  -28.0790  -31.8424   26.5450 H   0  0  0  0  0  0
  -28.2590  -38.0078   24.7511 H   0  0  0  0  0  0
  -28.1058  -36.2602   24.6300 H   0  0  0  0  0  0
  -27.2287  -37.1450   25.8870 H   0  0  0  0  0  0
  -20.9426  -29.8780   21.6740 H   0  0  0  0  0  0
  -26.0146  -38.2823   24.1419 H   0  0  0  0  0  0
  -29.7001  -17.0535   18.4134 H   0  0  0  0  0  0
  -26.6763  -19.6455   22.3529 H   0  0  0  0  0  0
  -26.3346  -20.6094   23.7568 H   0  0  0  0  0  0
  -26.1395  -22.6526   22.4133 H   0  0  0  0  0  0
  -25.1406  -21.4231   21.6847 H   0  0  0  0  0  0
  -28.8102  -20.1057   23.5430 H   0  0  0  0  0  0
  -28.4766  -21.8023   23.5487 H   0  0  0  0  0  0
  -26.4625  -22.5712   19.9030 H   0  0  0  0  0  0
  -26.9343  -20.9204   20.0115 H   0  0  0  0  0  0
  -30.0934  -21.3871   21.8048 H   0  0  0  0  0  0
  -26.8632  -24.6561   20.6624 H   0  0  0  0  0  0
  -27.7331  -24.5424   19.1402 H   0  0  0  0  0  0
  -29.0692  -15.5263   21.6119 H   0  0  0  0  0  0
  1 25  1  0  0  0
  1 30  2  0  0  0
  1 83  1  0  0  0
  2  3  1  0  0  0
  2 25  1  0  0  0
  2 86  1  0  0  0
  2 87  1  0  0  0
  3  4  1  0  0  0
  3 88  1  0  0  0
  3 89  1  0  0  0
  4  5  1  0  0  0
  4 90  1  0  0  0
  4 91  1  0  0  0
  5  6  1  0  0  0
  5 26  1  0  0  0
  5 92  1  0  0  0
  6 25  1  0  0  0
  6 93  1  0  0  0
  6 94  1  0  0  0
  7  8  2  0  0  0
  7 26  1  0  0  0
  7 29  1  0  0  0
  8  9  1  0  0  0
  8 22  1  0  0  0
  9 10  1  0  0  0
  9 27  2  0  0  0
 10 11  2  0  0  0
 10 15  1  0  0  0
 11 12  1  0  0  0
 11 95  1  0  0  0
 12 13  2  0  0  0
 12 96  1  0  0  0
 13 14  1  0  0  0
 13 31  1  0  0  0
 14 15  2  0  0  0
 14 97  1  0  0  0
 15 98  1  0  0  0
 16 17  2  0  0  0
 16 21  1  0  0  0
 16 31  1  0  0  0
 17 18  1  0  0  0
 17 99  1  0  0  0
 18 19  2  0  0  0
 18100  1  0  0  0
 19 20  1  0  0  0
 19 24  1  0  0  0
 20 21  2  0  0  0
 20101  1  0  0  0
 21 23  1  0  0  0
 22 28  1  0  0  0
 22 32  2  0  0  0
 26 27  1  0  0  0
 28102  1  0  0  0
 28103  1  0  0  0
 29104  1  0  0  0
 29105  1  0  0  0
 33 34  1  0  0  0
 33 66  1  0  0  0
 33 70  2  0  0  0
 34 36  1  0  0  0
 34 59  1  0  0  0
 34106  1  0  0  0
 35 44  2  0  0  0
 35 45  1  0  0  0
 35 68  1  0  0  0
 36 56  1  0  0  0
 36107  1  0  0  0
 37 39  1  0  0  0
 37 47  1  0  0  0
 37 66  1  0  0  0
 37108  1  0  0  0
 38 43  2  0  0  0
 38 46  1  0  0  0
 38 47  1  0  0  0
 39 64  1  0  0  0
 39 67  2  0  0  0
 40 52  1  0  0  0
 40 53  2  0  0  0
 40 58  1  0  0  0
 41109  1  0  0  0
 41110  1  0  0  0
 41111  1  0  0  0
 41 48  1  0  0  0
 42 43  1  0  0  0
 42 66  1  0  0  0
 42112  1  0  0  0
 42113  1  0  0  0
 43 44  1  0  0  0
 44114  1  0  0  0
 45 46  2  0  0  0
 45115  1  0  0  0
 46116  1  0  0  0
 47117  1  0  0  0
 47118  1  0  0  0
 48 56  1  0  0  0
 48 65  1  0  0  0
 48119  1  0  0  0
 49 50  1  0  0  0
 49 53  1  0  0  0
 49 64  1  0  0  0
 49120  1  0  0  0
 50 51  1  0  0  0
 50121  1  0  0  0
 50122  1  0  0  0
 51 52  1  0  0  0
 51123  1  0  0  0
 51124  1  0  0  0
 52125  1  0  0  0
 52126  1  0  0  0
 53 54  1  0  0  0
 54 55  2  0  0  0
 54127  1  0  0  0
 55 57  1  0  0  0
 55128  1  0  0  0
 56 69  2  0  0  0
 57 58  2  0  0  0
 57129  1  0  0  0
 58130  1  0  0  0
 59 60  1  0  0  0
 59 61  1  0  0  0
 59 62  1  0  0  0
 60131  1  0  0  0
 60132  1  0  0  0
 60133  1  0  0  0
 61134  1  0  0  0
 61135  1  0  0  0
 61136  1  0  0  0
 62137  1  0  0  0
 62138  1  0  0  0
 62139  1  0  0  0
 63 65  1  0  0  0
 63140  1  0  0  0
 63141  1  0  0  0
 63142  1  0  0  0
 64143  1  0  0  0
 65144  1  0  0  0
 68 80  1  0  0  0
 71 72  2  0  0  0
 71 85  1  0  0  0
 71145  1  0  0  0
 72 81  1  0  0  0
 72 83  1  0  0  0
 73 81  2  0  0  0
 73 85  1  0  0  0
 73 79  1  0  0  0
 74 80  1  0  0  0
 74 82  1  0  0  0
 74 84  2  0  0  0
 75 76  1  0  0  0
 75 77  1  0  0  0
 75146  1  0  0  0
 75147  1  0  0  0
 76 78  1  0  0  0
 76148  1  0  0  0
 76149  1  0  0  0
 77 79  1  0  0  0
 77150  1  0  0  0
 77151  1  0  0  0
 78 82  1  0  0  0
 78152  1  0  0  0
 78153  1  0  0  0
 79 82  1  0  0  0
 79154  1  0  0  0
 80155  1  0  0  0
 80156  1  0  0  0
 83157  1  0  0  0
M  ISO  4   1 100  68 101  80 101  83 100
M  END
> <chiral flag>
0

> <version>
0

> <s_m_source_file>
/data/baiqing/PycharmProjects/Reinvent-master-3.2/result/LINK_invent/BTK/process_docking_weight1_custom_product_contain_oxygen_bond_distance_aromatic_linkinvent_7_9_3/rearranged_h_0155.sdf

> <i_m_source_file_index>
86

> <r_mmod_Potential_Energy-OPLS-2005>
289.051544189453

> <r_mmod_Stretch_Energy-OPLS-2005>
158.568832397461

> <r_mmod_Bend_Energy-OPLS-2005>
187.667877197266

> <r_mmod_Torsional_Energy-OPLS-2005>
293.090942382812

> <r_mmod_Improper_Torsional_Energy-OPLS-2005>
5.55309724807739

> <r_mmod_Van_der_Waal_Energy-OPLS-2005>
122.775787353516

> <r_mmod_Electrostatic_Energy-OPLS-2005>
-347.738403320312

> <r_mmod_Solvation_Energy-OPLS-2005>
-243.123794555664

> <b_mmod_Minimization_Converged-OPLS-2005>
0

> <r_mmod_RMS_Derivative-OPLS-2005>
5.09416389465332

$$$$
86
                    3D
 Structure written by MMmdl.
149157  0  0  1  0            999 V2000
  -30.6147  -14.7199   20.4714 C   0  0  0  0  0  0
  -30.4331  -12.4384   19.4687 C   0  0  0  0  0  0
  -29.5057  -12.4959   18.2341 C   0  0  0  0  0  0
  -28.0327  -12.3206   18.6514 C   0  0  0  0  0  0
  -27.6417  -13.2234   19.8506 C   0  0  2  0  0  0
  -28.6871  -13.1449   20.9862 C   0  0  0  0  0  0
  -25.2514  -13.8186   20.5688 C   0  0  0  0  0  0
  -24.1800  -13.0442   20.9210 C   0  0  0  0  0  0
  -24.6380  -11.6916   20.8757 C   0  0  0  0  0  0
  -23.9061  -10.4296   21.0415 C   0  0  0  0  0  0
  -24.3612   -9.4206   21.9189 C   0  0  0  0  0  0
  -23.6287   -8.2241   22.0753 C   0  0  0  0  0  0
  -22.4274   -8.0276   21.3540 C   0  0  0  0  0  0
  -21.9908   -9.0253   20.4643 C   0  0  0  0  0  0
  -22.7237  -10.2134   20.3059 C   0  0  0  0  0  0
  -21.6851   -6.0734   22.5273 C   0  0  0  0  0  0
  -21.4013   -6.5639   23.8206 C   0  0  0  0  0  0
  -21.3657   -5.6793   24.9168 C   0  0  0  0  0  0
  -21.6043   -4.3057   24.7221 C   0  0  0  0  0  0
  -21.8819   -3.8146   23.4345 C   0  0  0  0  0  0
  -21.9192   -4.6960   22.3400 C   0  0  0  0  0  0
  -22.7822  -13.5223   21.1874 C   0  0  0  0  0  0
  -22.1660   -4.2149   21.0977 F   0  0  0  0  0  0
  -21.5630   -3.4539   25.7734 F   0  0  0  0  0  0
  -29.9921  -13.4937   20.4078 N   0  0  0  0  0  0
  -26.2927  -12.9375   20.3273 N   0  0  0  0  0  0
  -25.9311  -11.6532   20.5770 N   0  0  0  0  0  0
  -22.0469  -12.8206   22.0424 N   0  0  0  0  0  0
  -25.4225  -15.1908   20.4090 N   0  0  0  0  0  0
  -31.8032  -14.8180   20.1481 O   0  0  0  0  0  0
  -21.6636   -6.8877   21.4236 O   0  0  0  0  0  0
  -22.3507  -14.5532   20.6726 O   0  0  0  0  0  0
  -24.6300  -31.8565   23.2002 C   0  0  0  0  0  0
  -25.9134  -32.4757   23.8337 C   0  0  1  0  0  0
  -27.2213  -27.2767   20.1224 C   0  0  0  0  0  0
  -25.5937  -33.8559   24.2262 N   0  0  0  0  0  0
  -23.4262  -30.4806   21.5429 C   0  0  2  0  0  0
  -24.8740  -28.9328   20.1093 C   0  0  0  0  0  0
  -22.7498  -29.4610   22.4907 C   0  0  0  0  0  0
  -18.0289  -28.1379   22.8470 C   0  0  0  0  0  0
  -24.1493  -36.7284   23.2641 C   0  0  0  0  0  0
  -25.9724  -30.7740   21.3786 C   0  0  0  0  0  0
  -26.0465  -29.3994   20.7173 C   0  0  0  0  0  0
  -27.2236  -28.5852   20.7124 C   0  0  0  0  0  0
  -26.0232  -26.8796   19.4818 C   0  0  0  0  0  0
  -24.8676  -27.6811   19.4795 C   0  0  0  0  0  0
  -23.6444  -29.8172   20.1582 C   0  0  0  0  0  0
  -25.4118  -36.3069   24.0335 C   0  0  1  0  0  0
  -20.5894  -28.3692   23.1260 C   0  0  2  0  0  0
  -20.6775  -26.9408   22.5400 C   0  0  0  0  0  0
  -19.5756  -26.6379   21.5197 C   0  0  0  0  0  0
  -18.1933  -26.7920   22.1612 C   0  0  0  0  0  0
  -19.1545  -28.8853   23.2856 C   0  0  0  0  0  0
  -18.9470  -30.1448   23.8884 C   0  0  0  0  0  0
  -17.6473  -30.6579   24.0560 C   0  0  0  0  0  0
  -25.9060  -34.9439   23.5098 C   0  0  0  0  0  0
  -16.5363  -29.9078   23.6333 C   0  0  0  0  0  0
  -16.7279  -28.6500   23.0349 C   0  0  0  0  0  0
  -26.4505  -31.6585   25.0727 C   0  0  0  0  0  0
  -25.3732  -31.3742   26.1455 C   0  0  0  0  0  0
  -27.0359  -30.3003   24.6213 C   0  0  0  0  0  0
  -27.6055  -32.4337   25.7492 C   0  0  0  0  0  0
  -27.5582  -37.1788   24.8462 C   0  0  0  0  0  0
  -21.4208  -29.3049   22.3659 N   0  0  0  0  0  0
  -26.4291  -37.3768   23.9419 N   0  0  0  0  0  0
  -24.6954  -31.0537   22.0972 N   0  0  0  0  0  0
  -23.4208  -28.8143   23.2993 O   0  0  0  0  0  0
  -28.3117  -26.3789   20.1889 O   0  0  0  0  0  0
  -26.5625  -34.8911   22.4661 O   0  0  0  0  0  0
  -23.5456  -32.1383   23.7307 O   0  0  0  0  0  0
  -31.3163  -19.2387   20.6260 C   0  0  0  0  0  0
  -30.0929  -19.8888   20.5824 C   0  0  0  0  0  0
  -30.0703  -17.2845   20.6278 C   0  0  0  0  0  0
  -29.1162  -23.8362   20.3932 C   0  0  0  0  0  0
  -28.8094  -22.2600   20.3272 C   0  0  0  0  0  0
  -28.0057  -24.9171   20.0229 C   0  0  0  0  0  0
  -31.2992  -17.8257   20.6355 N   0  0  0  0  0  0
  -32.5397  -19.9089   20.6695 N   0  0  0  0  0  0
  -29.9757  -21.3389   20.5856 N   0  0  0  0  0  0
  -29.8125  -15.8272   20.6896 N   0  0  0  0  0  0
  -30.2490  -24.2065   20.7243 O   0  0  0  0  0  0
  -28.8329  -18.6191   20.5788 S   0  0  0  0  0  0
  -31.4729  -12.5643   19.1625 H   0  0  0  0  0  0
  -30.3781  -11.4605   19.9501 H   0  0  0  0  0  0
  -29.7850  -11.7213   17.5186 H   0  0  0  0  0  0
  -29.6298  -13.4494   17.7190 H   0  0  0  0  0  0
  -27.8941  -11.2736   18.9229 H   0  0  0  0  0  0
  -27.3718  -12.5039   17.8033 H   0  0  0  0  0  0
  -27.6393  -14.2441   19.4686 H   0  0  0  0  0  0
  -28.7170  -12.1426   21.4164 H   0  0  0  0  0  0
  -28.4226  -13.8179   21.8033 H   0  0  0  0  0  0
  -25.2761   -9.5679   22.4763 H   0  0  0  0  0  0
  -23.9996   -7.4631   22.7474 H   0  0  0  0  0  0
  -21.0842   -8.8776   19.8948 H   0  0  0  0  0  0
  -22.3699  -10.9675   19.6168 H   0  0  0  0  0  0
  -21.2005   -7.6145   23.9706 H   0  0  0  0  0  0
  -21.1480   -6.0525   25.9070 H   0  0  0  0  0  0
  -22.0603   -2.7609   23.2842 H   0  0  0  0  0  0
  -22.4096  -11.9866   22.4803 H   0  0  0  0  0  0
  -21.1088  -13.1231   22.2649 H   0  0  0  0  0  0
  -24.6526  -15.8430   20.5145 H   0  0  0  0  0  0
  -26.2564  -15.6259   20.0372 H   0  0  0  0  0  0
  -26.7197  -32.5405   23.1075 H   0  0  0  0  0  0
  -25.0092  -33.9700   25.0411 H   0  0  0  0  0  0
  -22.7224  -31.3030   21.3968 H   0  0  0  0  0  0
  -23.3762  -35.9609   23.3294 H   0  0  0  0  0  0
  -24.3586  -36.8920   22.2056 H   0  0  0  0  0  0
  -23.7238  -37.6478   23.6675 H   0  0  0  0  0  0
  -26.1119  -31.5380   20.6129 H   0  0  0  0  0  0
  -26.8502  -30.8189   22.0124 H   0  0  0  0  0  0
  -28.1195  -28.9371   21.2043 H   0  0  0  0  0  0
  -25.9400  -25.9247   18.9848 H   0  0  0  0  0  0
  -23.9708  -27.3206   18.9941 H   0  0  0  0  0  0
  -23.7685  -30.5956   19.4043 H   0  0  0  0  0  0
  -22.7633  -29.2506   19.8508 H   0  0  0  0  0  0
  -25.1290  -36.1920   25.0830 H   0  0  0  0  0  0
  -20.9972  -28.3268   24.1386 H   0  0  0  0  0  0
  -20.5655  -26.2305   23.3604 H   0  0  0  0  0  0
  -21.6639  -26.7417   22.1203 H   0  0  0  0  0  0
  -19.6925  -25.6289   21.1231 H   0  0  0  0  0  0
  -19.6704  -27.3183   20.6721 H   0  0  0  0  0  0
  -17.4199  -26.6666   21.4014 H   0  0  0  0  0  0
  -18.0336  -26.0055   22.9004 H   0  0  0  0  0  0
  -19.7954  -30.7250   24.2256 H   0  0  0  0  0  0
  -17.5037  -31.6259   24.5157 H   0  0  0  0  0  0
  -15.5362  -30.2976   23.7668 H   0  0  0  0  0  0
  -15.8679  -28.0816   22.7068 H   0  0  0  0  0  0
  -24.5905  -30.7088   25.7790 H   0  0  0  0  0  0
  -24.8925  -32.2912   26.4865 H   0  0  0  0  0  0
  -25.8049  -30.8932   27.0240 H   0  0  0  0  0  0
  -26.2943  -29.6737   24.1244 H   0  0  0  0  0  0
  -27.4049  -29.7278   25.4733 H   0  0  0  0  0  0
  -27.8815  -30.4279   23.9455 H   0  0  0  0  0  0
  -27.2660  -33.3649   26.2039 H   0  0  0  0  0  0
  -28.3869  -32.6886   25.0319 H   0  0  0  0  0  0
  -28.0719  -31.8491   26.5430 H   0  0  0  0  0  0
  -28.2579  -38.0102   24.7514 H   0  0  0  0  0  0
  -28.1095  -36.2629   24.6273 H   0  0  0  0  0  0
  -27.2302  -37.1417   25.8865 H   0  0  0  0  0  0
  -20.9393  -29.8796   21.6888 H   0  0  0  0  0  0
  -26.0174  -38.2844   24.1426 H   0  0  0  0  0  0
  -28.3971  -22.0411   19.3413 H   0  0  0  0  0  0
  -28.0190  -22.0431   21.0465 H   0  0  0  0  0  0
  -27.1235  -24.6735   20.6156 H   0  0  0  0  0  0
  -27.7454  -24.7396   18.9798 H   0  0  0  0  0  0
  -32.5272  -20.8665   20.9964 H   0  0  0  0  0  0
  -33.3492  -19.3872   20.9834 H   0  0  0  0  0  0
  -30.8609  -21.8386   20.5727 H   0  0  0  0  0  0
  -28.8494  -15.5902   20.8626 H   0  0  0  0  0  0
  1 25  1  0  0  0
  1 30  2  0  0  0
  1 80  1  0  0  0
  2  3  1  0  0  0
  2 25  1  0  0  0
  2 83  1  0  0  0
  2 84  1  0  0  0
  3  4  1  0  0  0
  3 85  1  0  0  0
  3 86  1  0  0  0
  4  5  1  0  0  0
  4 87  1  0  0  0
  4 88  1  0  0  0
  5  6  1  0  0  0
  5 26  1  0  0  0
  5 89  1  0  0  0
  6 25  1  0  0  0
  6 90  1  0  0  0
  6 91  1  0  0  0
  7  8  2  0  0  0
  7 26  1  0  0  0
  7 29  1  0  0  0
  8  9  1  0  0  0
  8 22  1  0  0  0
  9 10  1  0  0  0
  9 27  2  0  0  0
 10 11  2  0  0  0
 10 15  1  0  0  0
 11 12  1  0  0  0
 11 92  1  0  0  0
 12 13  2  0  0  0
 12 93  1  0  0  0
 13 14  1  0  0  0
 13 31  1  0  0  0
 14 15  2  0  0  0
 14 94  1  0  0  0
 15 95  1  0  0  0
 16 17  2  0  0  0
 16 21  1  0  0  0
 16 31  1  0  0  0
 17 18  1  0  0  0
 17 96  1  0  0  0
 18 19  2  0  0  0
 18 97  1  0  0  0
 19 20  1  0  0  0
 19 24  1  0  0  0
 20 21  2  0  0  0
 20 98  1  0  0  0
 21 23  1  0  0  0
 22 28  1  0  0  0
 22 32  2  0  0  0
 26 27  1  0  0  0
 28 99  1  0  0  0
 28100  1  0  0  0
 29101  1  0  0  0
 29102  1  0  0  0
 33 34  1  0  0  0
 33 66  1  0  0  0
 33 70  2  0  0  0
 34 36  1  0  0  0
 34 59  1  0  0  0
 34103  1  0  0  0
 35 44  2  0  0  0
 35 45  1  0  0  0
 35 68  1  0  0  0
 36 56  1  0  0  0
 36104  1  0  0  0
 37 39  1  0  0  0
 37 47  1  0  0  0
 37 66  1  0  0  0
 37105  1  0  0  0
 38 43  2  0  0  0
 38 46  1  0  0  0
 38 47  1  0  0  0
 39 64  1  0  0  0
 39 67  2  0  0  0
 40 52  1  0  0  0
 40 53  2  0  0  0
 40 58  1  0  0  0
 41106  1  0  0  0
 41107  1  0  0  0
 41108  1  0  0  0
 41 48  1  0  0  0
 42 43  1  0  0  0
 42 66  1  0  0  0
 42109  1  0  0  0
 42110  1  0  0  0
 43 44  1  0  0  0
 44111  1  0  0  0
 45 46  2  0  0  0
 45112  1  0  0  0
 46113  1  0  0  0
 47114  1  0  0  0
 47115  1  0  0  0
 48 56  1  0  0  0
 48 65  1  0  0  0
 48116  1  0  0  0
 49 50  1  0  0  0
 49 53  1  0  0  0
 49 64  1  0  0  0
 49117  1  0  0  0
 50 51  1  0  0  0
 50118  1  0  0  0
 50119  1  0  0  0
 51 52  1  0  0  0
 51120  1  0  0  0
 51121  1  0  0  0
 52122  1  0  0  0
 52123  1  0  0  0
 53 54  1  0  0  0
 54 55  2  0  0  0
 54124  1  0  0  0
 55 57  1  0  0  0
 55125  1  0  0  0
 56 69  2  0  0  0
 57 58  2  0  0  0
 57126  1  0  0  0
 58127  1  0  0  0
 59 60  1  0  0  0
 59 61  1  0  0  0
 59 62  1  0  0  0
 60128  1  0  0  0
 60129  1  0  0  0
 60130  1  0  0  0
 61131  1  0  0  0
 61132  1  0  0  0
 61133  1  0  0  0
 62134  1  0  0  0
 62135  1  0  0  0
 62136  1  0  0  0
 63 65  1  0  0  0
 63137  1  0  0  0
 63138  1  0  0  0
 63139  1  0  0  0
 64140  1  0  0  0
 65141  1  0  0  0
 68 76  1  0  0  0
 71 72  2  0  0  0
 71 77  1  0  0  0
 71 78  1  0  0  0
 72 79  1  0  0  0
 72 82  1  0  0  0
 73 77  2  0  0  0
 73 80  1  0  0  0
 73 82  1  0  0  0
 74 75  1  0  0  0
 74 76  1  0  0  0
 74 81  2  0  0  0
 75 79  1  0  0  0
 75142  1  0  0  0
 75143  1  0  0  0
 76144  1  0  0  0
 76145  1  0  0  0
 78146  1  0  0  0
 78147  1  0  0  0
 79148  1  0  0  0
 80149  1  0  0  0
M  ISO  4   1 100  68 101  76 101  80 100
M  END
> <chiral flag>
0

> <version>
0

> <s_m_source_file>
/data/baiqing/PycharmProjects/Reinvent-master-3.2/result/LINK_invent/BTK/process_docking_weight1_custom_product_contain_oxygen_bond_distance_aromatic_linkinvent_7_9_3/rearranged_h_0155.sdf

> <i_m_source_file_index>
87

> <r_mmod_Potential_Energy-OPLS-2005>
35.7672805786133

> <r_mmod_Stretch_Energy-OPLS-2005>
104.856491088867

> <r_mmod_Bend_Energy-OPLS-2005>
177.126602172852

> <r_mmod_Torsional_Energy-OPLS-2005>
197.910293579102

> <r_mmod_Improper_Torsional_Energy-OPLS-2005>
8.99618148803711

> <r_mmod_Van_der_Waal_Energy-OPLS-2005>
123.123634338379

> <r_mmod_Electrostatic_Energy-OPLS-2005>
-379.316528320312

> <r_mmod_Solvation_Energy-OPLS-2005>
-273.726654052734

> <b_mmod_Minimization_Converged-OPLS-2005>
0

> <r_mmod_RMS_Derivative-OPLS-2005>
1.15006816387177

$$$$
87
                    3D
 Structure written by MMmdl.
160169  0  0  1  0            999 V2000
  -30.6106  -14.7209   20.4570 C   0  0  0  0  0  0
  -30.4352  -12.4345   19.4731 C   0  0  0  0  0  0
  -29.5114  -12.4967   18.2368 C   0  0  0  0  0  0
  -28.0347  -12.3362   18.6468 C   0  0  0  0  0  0
  -27.6452  -13.2292   19.8559 C   0  0  2  0  0  0
  -28.6893  -13.1456   20.9908 C   0  0  0  0  0  0
  -25.2512  -13.8177   20.5708 C   0  0  0  0  0  0
  -24.1810  -13.0416   20.9252 C   0  0  0  0  0  0
  -24.6410  -11.6906   20.8798 C   0  0  0  0  0  0
  -23.9085  -10.4287   21.0447 C   0  0  0  0  0  0
  -24.3633   -9.4187   21.9199 C   0  0  0  0  0  0
  -23.6303   -8.2225   22.0750 C   0  0  0  0  0  0
  -22.4280   -8.0280   21.3544 C   0  0  0  0  0  0
  -21.9926   -9.0260   20.4633 C   0  0  0  0  0  0
  -22.7276  -10.2129   20.3059 C   0  0  0  0  0  0
  -21.6845   -6.0745   22.5294 C   0  0  0  0  0  0
  -21.4020   -6.5659   23.8236 C   0  0  0  0  0  0
  -21.3641   -5.6806   24.9198 C   0  0  0  0  0  0
  -21.6028   -4.3070   24.7237 C   0  0  0  0  0  0
  -21.8813   -3.8157   23.4363 C   0  0  0  0  0  0
  -21.9189   -4.6969   22.3415 C   0  0  0  0  0  0
  -22.7820  -13.5187   21.1889 C   0  0  0  0  0  0
  -22.1647   -4.2154   21.0980 F   0  0  0  0  0  0
  -21.5625   -3.4545   25.7741 F   0  0  0  0  0  0
  -29.9948  -13.4911   20.4135 N   0  0  0  0  0  0
  -26.2953  -12.9386   20.3308 N   0  0  0  0  0  0
  -25.9340  -11.6533   20.5790 N   0  0  0  0  0  0
  -22.0474  -12.8154   22.0425 N   0  0  0  0  0  0
  -25.4176  -15.1883   20.4045 N   0  0  0  0  0  0
  -31.7972  -14.8160   20.1263 O   0  0  0  0  0  0
  -21.6623   -6.8888   21.4253 O   0  0  0  0  0  0
  -22.3499  -14.5484   20.6722 O   0  0  0  0  0  0
  -24.6294  -31.8575   23.2004 C   0  0  0  0  0  0
  -25.9133  -32.4765   23.8342 C   0  0  1  0  0  0
  -27.2127  -27.2808   20.1219 C   0  0  0  0  0  0
  -25.5942  -33.8565   24.2272 N   0  0  0  0  0  0
  -23.4237  -30.4829   21.5451 C   0  0  2  0  0  0
  -24.8683  -28.9340   20.1116 C   0  0  0  0  0  0
  -22.7486  -29.4617   22.4923 C   0  0  0  0  0  0
  -18.0285  -28.1380   22.8492 C   0  0  0  0  0  0
  -24.1486  -36.7277   23.2639 C   0  0  0  0  0  0
  -25.9688  -30.7785   21.3763 C   0  0  0  0  0  0
  -26.0412  -29.4035   20.7156 C   0  0  0  0  0  0
  -27.2180  -28.5906   20.7064 C   0  0  0  0  0  0
  -26.0132  -26.8734   19.4948 C   0  0  0  0  0  0
  -24.8587  -27.6767   19.4907 C   0  0  0  0  0  0
  -23.6399  -29.8203   20.1605 C   0  0  0  0  0  0
  -25.4119  -36.3074   24.0324 C   0  0  1  0  0  0
  -20.5890  -28.3695   23.1276 C   0  0  2  0  0  0
  -20.6777  -26.9414   22.5413 C   0  0  0  0  0  0
  -19.5750  -26.6391   21.5218 C   0  0  0  0  0  0
  -18.1930  -26.7932   22.1622 C   0  0  0  0  0  0
  -19.1538  -28.8859   23.2882 C   0  0  0  0  0  0
  -18.9460  -30.1463   23.8888 C   0  0  0  0  0  0
  -17.6461  -30.6591   24.0564 C   0  0  0  0  0  0
  -25.9059  -34.9445   23.5105 C   0  0  0  0  0  0
  -16.5351  -29.9087   23.6334 C   0  0  0  0  0  0
  -16.7274  -28.6501   23.0364 C   0  0  0  0  0  0
  -26.4512  -31.6576   25.0720 C   0  0  0  0  0  0
  -25.3740  -31.3706   26.1441 C   0  0  0  0  0  0
  -27.0366  -30.2995   24.6188 C   0  0  0  0  0  0
  -27.6067  -32.4317   25.7495 C   0  0  0  0  0  0
  -27.5584  -37.1793   24.8463 C   0  0  0  0  0  0
  -21.4196  -29.3041   22.3660 N   0  0  0  0  0  0
  -26.4289  -37.3782   23.9414 N   0  0  0  0  0  0
  -24.6936  -31.0559   22.0969 N   0  0  0  0  0  0
  -23.4205  -28.8158   23.3015 O   0  0  0  0  0  0
  -28.3153  -26.4023   20.1745 O   0  0  0  0  0  0
  -26.5621  -34.8915   22.4661 O   0  0  0  0  0  0
  -23.5454  -32.1385   23.7318 O   0  0  0  0  0  0
  -29.1618  -18.3928   20.8205 C   0  0  0  0  0  0
  -31.1724  -17.7766   19.8165 C   0  0  0  0  0  0
  -30.0602  -17.2858   20.4535 C   0  0  0  0  0  0
  -29.6070  -19.6894   20.4960 C   0  0  0  0  0  0
  -29.1867  -22.9859   22.6210 C   0  0  0  0  0  0
  -29.5466  -21.5413   22.2388 C   0  0  0  0  0  0
  -29.8702  -23.9883   21.6821 C   0  0  0  0  0  0
  -29.1866  -22.3430   19.8030 C   0  0  0  0  0  0
  -29.0297  -21.1195   20.8502 C   0  0  1  0  0  0
  -29.3377  -23.9162   20.2350 C   0  0  2  0  0  0
  -30.4074  -24.5258   19.2994 C   0  0  0  0  0  0
  -28.0892  -24.9226   20.0611 C   0  0  0  0  0  0
  -29.8232  -15.8387   20.7008 N   0  0  0  0  0  0
  -31.1631  -19.5303   19.7039 S   0  0  0  0  0  0
  -31.4756  -12.5575   19.1677 H   0  0  0  0  0  0
  -30.3808  -11.4551   19.9509 H   0  0  0  0  0  0
  -29.7832  -11.7188   17.5226 H   0  0  0  0  0  0
  -29.6483  -13.4491   17.7238 H   0  0  0  0  0  0
  -27.8755  -11.2874   18.8975 H   0  0  0  0  0  0
  -27.3833  -12.5461   17.7976 H   0  0  0  0  0  0
  -27.6445  -14.2541   19.4843 H   0  0  0  0  0  0
  -28.7166  -12.1436   21.4213 H   0  0  0  0  0  0
  -28.4291  -13.8187   21.8102 H   0  0  0  0  0  0
  -25.2781   -9.5636   22.4764 H   0  0  0  0  0  0
  -24.0000   -7.4600   22.7474 H   0  0  0  0  0  0
  -21.0854   -8.8801   19.8935 H   0  0  0  0  0  0
  -22.3763  -10.9672   19.6156 H   0  0  0  0  0  0
  -21.2026   -7.6174   23.9739 H   0  0  0  0  0  0
  -21.1462   -6.0543   25.9103 H   0  0  0  0  0  0
  -22.0606   -2.7617   23.2864 H   0  0  0  0  0  0
  -22.4169  -11.9850   22.4806 H   0  0  0  0  0  0
  -21.1082  -13.1160   22.2610 H   0  0  0  0  0  0
  -24.6417  -15.8355   20.4973 H   0  0  0  0  0  0
  -26.2401  -15.6140   19.9975 H   0  0  0  0  0  0
  -26.7195  -32.5429   23.1090 H   0  0  0  0  0  0
  -25.0111  -33.9702   25.0426 H   0  0  0  0  0  0
  -22.7182  -31.3045   21.4031 H   0  0  0  0  0  0
  -23.3767  -35.9586   23.3279 H   0  0  0  0  0  0
  -24.3584  -36.8931   22.2061 H   0  0  0  0  0  0
  -23.7221  -37.6460   23.6676 H   0  0  0  0  0  0
  -26.1054  -31.5428   20.6100 H   0  0  0  0  0  0
  -26.8474  -30.8249   22.0086 H   0  0  0  0  0  0
  -28.1182  -28.9468   21.1878 H   0  0  0  0  0  0
  -25.9308  -25.9137   19.0090 H   0  0  0  0  0  0
  -23.9588  -27.3113   19.0158 H   0  0  0  0  0  0
  -23.7632  -30.5992   19.4065 H   0  0  0  0  0  0
  -22.7571  -29.2560   19.8548 H   0  0  0  0  0  0
  -25.1298  -36.1925   25.0817 H   0  0  0  0  0  0
  -20.9974  -28.3278   24.1399 H   0  0  0  0  0  0
  -20.5689  -26.2300   23.3614 H   0  0  0  0  0  0
  -21.6642  -26.7447   22.1211 H   0  0  0  0  0  0
  -19.6913  -25.6305   21.1242 H   0  0  0  0  0  0
  -19.6690  -27.3195   20.6737 H   0  0  0  0  0  0
  -17.4205  -26.6697   21.4015 H   0  0  0  0  0  0
  -18.0310  -26.0069   22.9008 H   0  0  0  0  0  0
  -19.7937  -30.7283   24.2258 H   0  0  0  0  0  0
  -17.5013  -31.6261   24.5177 H   0  0  0  0  0  0
  -15.5353  -30.2985   23.7656 H   0  0  0  0  0  0
  -15.8679  -28.0818   22.7078 H   0  0  0  0  0  0
  -24.5917  -30.7060   25.7760 H   0  0  0  0  0  0
  -24.8923  -32.2866   26.4862 H   0  0  0  0  0  0
  -25.8068  -30.8884   27.0216 H   0  0  0  0  0  0
  -26.2944  -29.6732   24.1221 H   0  0  0  0  0  0
  -27.4073  -29.7270   25.4702 H   0  0  0  0  0  0
  -27.8810  -30.4283   23.9414 H   0  0  0  0  0  0
  -27.2678  -33.3629   26.2047 H   0  0  0  0  0  0
  -28.3884  -32.6864   25.0325 H   0  0  0  0  0  0
  -28.0716  -31.8452   26.5431 H   0  0  0  0  0  0
  -28.2580  -38.0110   24.7544 H   0  0  0  0  0  0
  -28.1107  -36.2642   24.6257 H   0  0  0  0  0  0
  -27.2304  -37.1411   25.8865 H   0  0  0  0  0  0
  -20.9366  -29.8773   21.6881 H   0  0  0  0  0  0
  -26.0168  -38.2849   24.1435 H   0  0  0  0  0  0
  -28.2351  -18.2017   21.3433 H   0  0  0  0  0  0
  -32.0138  -17.2294   19.4083 H   0  0  0  0  0  0
  -29.5169  -23.1745   23.6426 H   0  0  0  0  0  0
  -28.1046  -23.1295   22.6140 H   0  0  0  0  0  0
  -29.1461  -20.8592   22.9909 H   0  0  0  0  0  0
  -30.6301  -21.4227   22.2739 H   0  0  0  0  0  0
  -30.9440  -23.7923   21.6942 H   0  0  0  0  0  0
  -29.7555  -25.0010   22.0730 H   0  0  0  0  0  0
  -28.4144  -22.2549   19.0391 H   0  0  0  0  0  0
  -30.0962  -22.0982   19.2592 H   0  0  0  0  0  0
  -27.9516  -20.9980   20.9697 H   0  0  0  0  0  0
  -31.3365  -23.9554   19.2981 H   0  0  0  0  0  0
  -30.6666  -25.5425   19.5970 H   0  0  0  0  0  0
  -30.0475  -24.5733   18.2701 H   0  0  0  0  0  0
  -27.3127  -24.6426   20.7745 H   0  0  0  0  0  0
  -27.6774  -24.7230   19.0726 H   0  0  0  0  0  0
  -28.8959  -15.6067   21.0232 H   0  0  0  0  0  0
  1 25  1  0  0  0
  1 30  2  0  0  0
  1 83  1  0  0  0
  2  3  1  0  0  0
  2 25  1  0  0  0
  2 85  1  0  0  0
  2 86  1  0  0  0
  3  4  1  0  0  0
  3 87  1  0  0  0
  3 88  1  0  0  0
  4  5  1  0  0  0
  4 89  1  0  0  0
  4 90  1  0  0  0
  5  6  1  0  0  0
  5 26  1  0  0  0
  5 91  1  0  0  0
  6 25  1  0  0  0
  6 92  1  0  0  0
  6 93  1  0  0  0
  7  8  2  0  0  0
  7 26  1  0  0  0
  7 29  1  0  0  0
  8  9  1  0  0  0
  8 22  1  0  0  0
  9 10  1  0  0  0
  9 27  2  0  0  0
 10 11  2  0  0  0
 10 15  1  0  0  0
 11 12  1  0  0  0
 11 94  1  0  0  0
 12 13  2  0  0  0
 12 95  1  0  0  0
 13 14  1  0  0  0
 13 31  1  0  0  0
 14 15  2  0  0  0
 14 96  1  0  0  0
 15 97  1  0  0  0
 16 17  2  0  0  0
 16 21  1  0  0  0
 16 31  1  0  0  0
 17 18  1  0  0  0
 17 98  1  0  0  0
 18 19  2  0  0  0
 18 99  1  0  0  0
 19 20  1  0  0  0
 19 24  1  0  0  0
 20 21  2  0  0  0
 20100  1  0  0  0
 21 23  1  0  0  0
 22 28  1  0  0  0
 22 32  2  0  0  0
 26 27  1  0  0  0
 28101  1  0  0  0
 28102  1  0  0  0
 29103  1  0  0  0
 29104  1  0  0  0
 33 34  1  0  0  0
 33 66  1  0  0  0
 33 70  2  0  0  0
 34 36  1  0  0  0
 34 59  1  0  0  0
 34105  1  0  0  0
 35 44  2  0  0  0
 35 45  1  0  0  0
 35 68  1  0  0  0
 36 56  1  0  0  0
 36106  1  0  0  0
 37 39  1  0  0  0
 37 47  1  0  0  0
 37 66  1  0  0  0
 37107  1  0  0  0
 38 43  2  0  0  0
 38 46  1  0  0  0
 38 47  1  0  0  0
 39 64  1  0  0  0
 39 67  2  0  0  0
 40 52  1  0  0  0
 40 53  2  0  0  0
 40 58  1  0  0  0
 41108  1  0  0  0
 41109  1  0  0  0
 41110  1  0  0  0
 41 48  1  0  0  0
 42 43  1  0  0  0
 42 66  1  0  0  0
 42111  1  0  0  0
 42112  1  0  0  0
 43 44  1  0  0  0
 44113  1  0  0  0
 45 46  2  0  0  0
 45114  1  0  0  0
 46115  1  0  0  0
 47116  1  0  0  0
 47117  1  0  0  0
 48 56  1  0  0  0
 48 65  1  0  0  0
 48118  1  0  0  0
 49 50  1  0  0  0
 49 53  1  0  0  0
 49 64  1  0  0  0
 49119  1  0  0  0
 50 51  1  0  0  0
 50120  1  0  0  0
 50121  1  0  0  0
 51 52  1  0  0  0
 51122  1  0  0  0
 51123  1  0  0  0
 52124  1  0  0  0
 52125  1  0  0  0
 53 54  1  0  0  0
 54 55  2  0  0  0
 54126  1  0  0  0
 55 57  1  0  0  0
 55127  1  0  0  0
 56 69  2  0  0  0
 57 58  2  0  0  0
 57128  1  0  0  0
 58129  1  0  0  0
 59 60  1  0  0  0
 59 61  1  0  0  0
 59 62  1  0  0  0
 60130  1  0  0  0
 60131  1  0  0  0
 60132  1  0  0  0
 61133  1  0  0  0
 61134  1  0  0  0
 61135  1  0  0  0
 62136  1  0  0  0
 62137  1  0  0  0
 62138  1  0  0  0
 63 65  1  0  0  0
 63139  1  0  0  0
 63140  1  0  0  0
 63141  1  0  0  0
 64142  1  0  0  0
 65143  1  0  0  0
 68 82  1  0  0  0
 71 73  1  0  0  0
 71 74  2  0  0  0
 71144  1  0  0  0
 72 73  2  0  0  0
 72 84  1  0  0  0
 72145  1  0  0  0
 73 83  1  0  0  0
 74 84  1  0  0  0
 74 79  1  0  0  0
 75 76  1  0  0  0
 75 77  1  0  0  0
 75146  1  0  0  0
 75147  1  0  0  0
 76 79  1  0  0  0
 76148  1  0  0  0
 76149  1  0  0  0
 77 80  1  0  0  0
 77150  1  0  0  0
 77151  1  0  0  0
 78 79  1  0  0  0
 78 80  1  0  0  0
 78152  1  0  0  0
 78153  1  0  0  0
 79154  1  0  0  0
 80 81  1  0  0  0
 80 82  1  0  0  0
 81155  1  0  0  0
 81156  1  0  0  0
 81157  1  0  0  0
 82158  1  0  0  0
 82159  1  0  0  0
 83160  1  0  0  0
M  ISO  4   1 100  68 101  82 101  83 100
M  END
> <chiral flag>
0

> <version>
0

> <s_m_source_file>
/data/baiqing/PycharmProjects/Reinvent-master-3.2/result/LINK_invent/BTK/process_docking_weight1_custom_product_contain_oxygen_bond_distance_aromatic_linkinvent_7_9_3/rearranged_h_0155.sdf

> <i_m_source_file_index>
88

> <r_mmod_Potential_Energy-OPLS-2005>
178.264373779297

> <r_mmod_Stretch_Energy-OPLS-2005>
117.705276489258

> <r_mmod_Bend_Energy-OPLS-2005>
169.721435546875

> <r_mmod_Torsional_Energy-OPLS-2005>
240.315093994141

> <r_mmod_Improper_Torsional_Energy-OPLS-2005>
4.96782922744751

> <r_mmod_Van_der_Waal_Energy-OPLS-2005>
127.888542175293

> <r_mmod_Electrostatic_Energy-OPLS-2005>
-358.606689453125

> <r_mmod_Solvation_Energy-OPLS-2005>
-197.490875244141

> <b_mmod_Minimization_Converged-OPLS-2005>
0

> <r_mmod_RMS_Derivative-OPLS-2005>
2.32359027862549

$$$$
88
                    3D
 Structure written by MMmdl.
162170  0  0  1  0            999 V2000
  -30.7336  -14.3943   20.6815 C   0  0  0  0  0  0
  -30.4334  -12.2991   19.3999 C   0  0  0  0  0  0
  -29.4953  -12.5212   18.1973 C   0  0  0  0  0  0
  -28.0205  -12.3674   18.6110 C   0  0  0  0  0  0
  -27.6716  -13.1938   19.8766 C   0  0  2  0  0  0
  -28.7065  -12.9322   20.9922 C   0  0  0  0  0  0
  -25.2666  -13.8146   20.5659 C   0  0  0  0  0  0
  -24.1877  -13.0449   20.9139 C   0  0  0  0  0  0
  -24.6401  -11.6897   20.8697 C   0  0  0  0  0  0
  -23.9048  -10.4299   21.0390 C   0  0  0  0  0  0
  -24.3595   -9.4217   21.9185 C   0  0  0  0  0  0
  -23.6268   -8.2262   22.0767 C   0  0  0  0  0  0
  -22.4258   -8.0288   21.3549 C   0  0  0  0  0  0
  -21.9877   -9.0262   20.4663 C   0  0  0  0  0  0
  -22.7209  -10.2146   20.3059 C   0  0  0  0  0  0
  -21.6858   -6.0724   22.5274 C   0  0  0  0  0  0
  -21.4020   -6.5631   23.8208 C   0  0  0  0  0  0
  -21.3658   -5.6789   24.9169 C   0  0  0  0  0  0
  -21.6039   -4.3048   24.7225 C   0  0  0  0  0  0
  -21.8820   -3.8138   23.4350 C   0  0  0  0  0  0
  -21.9198   -4.6951   22.3398 C   0  0  0  0  0  0
  -22.7916  -13.5276   21.1805 C   0  0  0  0  0  0
  -22.1667   -4.2131   21.0980 F   0  0  0  0  0  0
  -21.5621   -3.4534   25.7741 F   0  0  0  0  0  0
  -30.0562  -13.2353   20.4690 N   0  0  0  0  0  0
  -26.3076  -12.9281   20.3332 N   0  0  0  0  0  0
  -25.9322  -11.6449   20.5710 N   0  0  0  0  0  0
  -22.0535  -12.8305   22.0366 N   0  0  0  0  0  0
  -25.4479  -15.1849   20.4119 N   0  0  0  0  0  0
  -31.7342  -14.7300   20.0391 O   0  0  0  0  0  0
  -21.6641   -6.8869   21.4235 O   0  0  0  0  0  0
  -22.3624  -14.5595   20.6650 O   0  0  0  0  0  0
  -24.6129  -31.8697   23.2111 C   0  0  0  0  0  0
  -25.9023  -32.4839   23.8411 C   0  0  1  0  0  0
  -27.2325  -27.4467   20.0978 C   0  0  0  0  0  0
  -25.5881  -33.8637   24.2337 N   0  0  0  0  0  0
  -23.4006  -30.4914   21.5528 C   0  0  2  0  0  0
  -24.8465  -28.9576   20.1187 C   0  0  0  0  0  0
  -22.7404  -29.4650   22.5009 C   0  0  0  0  0  0
  -18.0270  -28.1374   22.8498 C   0  0  0  0  0  0
  -24.1481  -36.7324   23.2630 C   0  0  0  0  0  0
  -25.9282  -30.8390   21.3614 C   0  0  0  0  0  0
  -26.0067  -29.4730   20.7118 C   0  0  0  0  0  0
  -27.2056  -28.7262   20.6949 C   0  0  0  0  0  0
  -26.0577  -26.9413   19.5020 C   0  0  0  0  0  0
  -24.8656  -27.6894   19.5120 C   0  0  0  0  0  0
  -23.6083  -29.8241   20.1674 C   0  0  0  0  0  0
  -25.4095  -36.3122   24.0341 C   0  0  1  0  0  0
  -20.5857  -28.3652   23.1330 C   0  0  2  0  0  0
  -20.6755  -26.9391   22.5420 C   0  0  0  0  0  0
  -19.5729  -26.6384   21.5214 C   0  0  0  0  0  0
  -18.1912  -26.7922   22.1632 C   0  0  0  0  0  0
  -19.1521  -28.8830   23.2912 C   0  0  0  0  0  0
  -18.9447  -30.1438   23.8921 C   0  0  0  0  0  0
  -17.6450  -30.6578   24.0569 C   0  0  0  0  0  0
  -25.9029  -34.9491   23.5139 C   0  0  0  0  0  0
  -16.5343  -29.9086   23.6322 C   0  0  0  0  0  0
  -16.7259  -28.6502   23.0345 C   0  0  0  0  0  0
  -26.4451  -31.6613   25.0736 C   0  0  0  0  0  0
  -25.3724  -31.3732   26.1496 C   0  0  0  0  0  0
  -27.0265  -30.3054   24.6093 C   0  0  0  0  0  0
  -27.6045  -32.4326   25.7475 C   0  0  0  0  0  0
  -27.5596  -37.1783   24.8443 C   0  0  0  0  0  0
  -21.4133  -29.3021   22.3746 N   0  0  0  0  0  0
  -26.4276  -37.3815   23.9438 N   0  0  0  0  0  0
  -24.6656  -31.0810   22.1005 N   0  0  0  0  0  0
  -23.4183  -28.8198   23.3049 O   0  0  0  0  0  0
  -28.3972  -26.7183   20.0725 O   0  0  0  0  0  0
  -26.5604  -34.8937   22.4708 O   0  0  0  0  0  0
  -23.5321  -32.1445   23.7511 O   0  0  0  0  0  0
  -30.3546  -18.8634   21.3742 C   0  0  0  0  0  0
  -30.6670  -17.5063   21.1122 C   0  0  0  0  0  0
  -28.9036  -18.1806   23.1953 C   0  0  0  0  0  0
  -29.4719  -19.2212   22.4250 C   0  0  0  0  0  0
  -30.0873  -16.4813   21.9001 C   0  0  0  0  0  0
  -29.2059  -16.8350   22.9365 C   0  0  0  0  0  0
  -29.1459  -20.6364   22.7720 C   0  0  0  0  0  0
  -29.4269  -24.5078   20.1597 C   0  0  0  0  0  0
  -31.4369  -22.9647   20.4712 C   0  0  0  0  0  0
  -31.0996  -24.9280   21.9742 C   0  0  0  0  0  0
  -28.3050  -25.4223   20.6795 C   0  0  0  0  0  0
  -29.5796  -22.9198   22.1947 C   0  0  0  0  0  0
  -30.3621  -23.8171   21.1903 C   0  0  0  0  0  0
  -28.5952  -20.9852   23.8594 N   0  0  0  0  0  0
  -30.2898  -15.0841   21.7401 N   0  0  0  0  0  0
  -29.5860  -24.3573   18.9423 O   0  0  0  0  0  0
  -29.4829  -21.5432   21.7869 O   0  0  0  0  0  0
  -28.6391  -15.8620   23.6918 F   0  0  0  0  0  0
  -31.4749  -12.4170   19.0961 H   0  0  0  0  0  0
  -30.3506  -11.2743   19.7656 H   0  0  0  0  0  0
  -29.7302  -11.8126   17.4027 H   0  0  0  0  0  0
  -29.6611  -13.5158   17.7791 H   0  0  0  0  0  0
  -27.8393  -11.3091   18.8005 H   0  0  0  0  0  0
  -27.3671  -12.6421   17.7824 H   0  0  0  0  0  0
  -27.7322  -14.2460   19.5991 H   0  0  0  0  0  0
  -28.6714  -11.8874   21.3020 H   0  0  0  0  0  0
  -28.4301  -13.4985   21.8824 H   0  0  0  0  0  0
  -25.2742   -9.5686   22.4757 H   0  0  0  0  0  0
  -23.9965   -7.4654   22.7497 H   0  0  0  0  0  0
  -21.0802   -8.8782   19.8982 H   0  0  0  0  0  0
  -22.3663  -10.9675   19.6162 H   0  0  0  0  0  0
  -21.2023   -7.6143   23.9702 H   0  0  0  0  0  0
  -21.1475   -6.0526   25.9071 H   0  0  0  0  0  0
  -22.0600   -2.7594   23.2869 H   0  0  0  0  0  0
  -22.4104  -11.9929   22.4720 H   0  0  0  0  0  0
  -21.1170  -13.1380   22.2583 H   0  0  0  0  0  0
  -24.7000  -15.8561   20.5499 H   0  0  0  0  0  0
  -26.3205  -15.6117   20.1265 H   0  0  0  0  0  0
  -26.7109  -32.5556   23.1192 H   0  0  0  0  0  0
  -25.0011  -33.9810   25.0467 H   0  0  0  0  0  0
  -22.6869  -31.3061   21.4146 H   0  0  0  0  0  0
  -23.3746  -35.9650   23.3273 H   0  0  0  0  0  0
  -24.3589  -36.8954   22.2049 H   0  0  0  0  0  0
  -23.7218  -37.6522   23.6648 H   0  0  0  0  0  0
  -26.0361  -31.6032   20.5903 H   0  0  0  0  0  0
  -26.8179  -30.8967   21.9768 H   0  0  0  0  0  0
  -28.1041  -29.1209   21.1479 H   0  0  0  0  0  0
  -26.0614  -25.9743   19.0195 H   0  0  0  0  0  0
  -23.9752  -27.2865   19.0488 H   0  0  0  0  0  0
  -23.7163  -30.6007   19.4089 H   0  0  0  0  0  0
  -22.7327  -29.2437   19.8709 H   0  0  0  0  0  0
  -25.1255  -36.1986   25.0830 H   0  0  0  0  0  0
  -20.9946  -28.3212   24.1451 H   0  0  0  0  0  0
  -20.5643  -26.2258   23.3601 H   0  0  0  0  0  0
  -21.6627  -26.7426   22.1217 H   0  0  0  0  0  0
  -19.6884  -25.6303   21.1220 H   0  0  0  0  0  0
  -19.6666  -27.3215   20.6762 H   0  0  0  0  0  0
  -17.4174  -26.6669   21.4042 H   0  0  0  0  0  0
  -18.0319  -26.0064   22.9028 H   0  0  0  0  0  0
  -19.7923  -30.7247   24.2304 H   0  0  0  0  0  0
  -17.5003  -31.6260   24.5172 H   0  0  0  0  0  0
  -15.5341  -30.2991   23.7631 H   0  0  0  0  0  0
  -15.8662  -28.0827   22.7044 H   0  0  0  0  0  0
  -24.5886  -30.7082   25.7848 H   0  0  0  0  0  0
  -24.8923  -32.2894   26.4946 H   0  0  0  0  0  0
  -25.8077  -30.8906   27.0255 H   0  0  0  0  0  0
  -26.2801  -29.6842   24.1128 H   0  0  0  0  0  0
  -27.4019  -29.7266   25.4541 H   0  0  0  0  0  0
  -27.8644  -30.4379   23.9247 H   0  0  0  0  0  0
  -27.2677  -33.3604   26.2112 H   0  0  0  0  0  0
  -28.3805  -32.6925   25.0263 H   0  0  0  0  0  0
  -28.0771  -31.8422   26.5334 H   0  0  0  0  0  0
  -28.2548  -38.0149   24.7614 H   0  0  0  0  0  0
  -28.1160  -36.2696   24.6093 H   0  0  0  0  0  0
  -27.2351  -37.1221   25.8850 H   0  0  0  0  0  0
  -20.9282  -29.8759   21.6991 H   0  0  0  0  0  0
  -26.0167  -38.2877   24.1518 H   0  0  0  0  0  0
  -30.8080  -19.6331   20.7650 H   0  0  0  0  0  0
  -31.3486  -17.2719   20.3066 H   0  0  0  0  0  0
  -28.2183  -18.3977   24.0008 H   0  0  0  0  0  0
  -32.0870  -23.5795   19.8477 H   0  0  0  0  0  0
  -30.9892  -22.2070   19.8263 H   0  0  0  0  0  0
  -32.0708  -22.4437   21.1897 H   0  0  0  0  0  0
  -31.5433  -25.6687   21.3071 H   0  0  0  0  0  0
  -31.9092  -24.5151   22.5774 H   0  0  0  0  0  0
  -30.4362  -25.4594   22.6581 H   0  0  0  0  0  0
  -28.3638  -25.5311   21.7623 H   0  0  0  0  0  0
  -27.3560  -24.9330   20.4622 H   0  0  0  0  0  0
  -28.5761  -23.3086   22.3806 H   0  0  0  0  0  0
  -30.1004  -22.9713   23.1542 H   0  0  0  0  0  0
  -28.4367  -20.1901   24.4685 H   0  0  0  0  0  0
  -29.6858  -14.5376   22.3362 H   0  0  0  0  0  0
  1 25  1  0  0  0
  1 30  2  0  0  0
  1 85  1  0  0  0
  2  3  1  0  0  0
  2 25  1  0  0  0
  2 89  1  0  0  0
  2 90  1  0  0  0
  3  4  1  0  0  0
  3 91  1  0  0  0
  3 92  1  0  0  0
  4  5  1  0  0  0
  4 93  1  0  0  0
  4 94  1  0  0  0
  5  6  1  0  0  0
  5 26  1  0  0  0
  5 95  1  0  0  0
  6 25  1  0  0  0
  6 96  1  0  0  0
  6 97  1  0  0  0
  7  8  2  0  0  0
  7 26  1  0  0  0
  7 29  1  0  0  0
  8  9  1  0  0  0
  8 22  1  0  0  0
  9 10  1  0  0  0
  9 27  2  0  0  0
 10 11  2  0  0  0
 10 15  1  0  0  0
 11 12  1  0  0  0
 11 98  1  0  0  0
 12 13  2  0  0  0
 12 99  1  0  0  0
 13 14  1  0  0  0
 13 31  1  0  0  0
 14 15  2  0  0  0
 14100  1  0  0  0
 15101  1  0  0  0
 16 17  2  0  0  0
 16 21  1  0  0  0
 16 31  1  0  0  0
 17 18  1  0  0  0
 17102  1  0  0  0
 18 19  2  0  0  0
 18103  1  0  0  0
 19 20  1  0  0  0
 19 24  1  0  0  0
 20 21  2  0  0  0
 20104  1  0  0  0
 21 23  1  0  0  0
 22 28  1  0  0  0
 22 32  2  0  0  0
 26 27  1  0  0  0
 28105  1  0  0  0
 28106  1  0  0  0
 29107  1  0  0  0
 29108  1  0  0  0
 33 34  1  0  0  0
 33 66  1  0  0  0
 33 70  2  0  0  0
 34 36  1  0  0  0
 34 59  1  0  0  0
 34109  1  0  0  0
 35 44  2  0  0  0
 35 45  1  0  0  0
 35 68  1  0  0  0
 36 56  1  0  0  0
 36110  1  0  0  0
 37 39  1  0  0  0
 37 47  1  0  0  0
 37 66  1  0  0  0
 37111  1  0  0  0
 38 43  2  0  0  0
 38 46  1  0  0  0
 38 47  1  0  0  0
 39 64  1  0  0  0
 39 67  2  0  0  0
 40 52  1  0  0  0
 40 53  2  0  0  0
 40 58  1  0  0  0
 41112  1  0  0  0
 41113  1  0  0  0
 41114  1  0  0  0
 41 48  1  0  0  0
 42 43  1  0  0  0
 42 66  1  0  0  0
 42115  1  0  0  0
 42116  1  0  0  0
 43 44  1  0  0  0
 44117  1  0  0  0
 45 46  2  0  0  0
 45118  1  0  0  0
 46119  1  0  0  0
 47120  1  0  0  0
 47121  1  0  0  0
 48 56  1  0  0  0
 48 65  1  0  0  0
 48122  1  0  0  0
 49 50  1  0  0  0
 49 53  1  0  0  0
 49 64  1  0  0  0
 49123  1  0  0  0
 50 51  1  0  0  0
 50124  1  0  0  0
 50125  1  0  0  0
 51 52  1  0  0  0
 51126  1  0  0  0
 51127  1  0  0  0
 52128  1  0  0  0
 52129  1  0  0  0
 53 54  1  0  0  0
 54 55  2  0  0  0
 54130  1  0  0  0
 55 57  1  0  0  0
 55131  1  0  0  0
 56 69  2  0  0  0
 57 58  2  0  0  0
 57132  1  0  0  0
 58133  1  0  0  0
 59 60  1  0  0  0
 59 61  1  0  0  0
 59 62  1  0  0  0
 60134  1  0  0  0
 60135  1  0  0  0
 60136  1  0  0  0
 61137  1  0  0  0
 61138  1  0  0  0
 61139  1  0  0  0
 62140  1  0  0  0
 62141  1  0  0  0
 62142  1  0  0  0
 63 65  1  0  0  0
 63143  1  0  0  0
 63144  1  0  0  0
 63145  1  0  0  0
 64146  1  0  0  0
 65147  1  0  0  0
 68 81  1  0  0  0
 71 72  2  0  0  0
 71 74  1  0  0  0
 71148  1  0  0  0
 72 75  1  0  0  0
 72149  1  0  0  0
 73 74  2  0  0  0
 73 76  1  0  0  0
 73150  1  0  0  0
 74 77  1  0  0  0
 75 76  2  0  0  0
 75 85  1  0  0  0
 76 88  1  0  0  0
 77 84  2  0  0  0
 77 87  1  0  0  0
 78 81  1  0  0  0
 78 83  1  0  0  0
 78 86  2  0  0  0
 79151  1  0  0  0
 79152  1  0  0  0
 79153  1  0  0  0
 79 83  1  0  0  0
 80 83  1  0  0  0
 80154  1  0  0  0
 80155  1  0  0  0
 80156  1  0  0  0
 81157  1  0  0  0
 81158  1  0  0  0
 82 83  1  0  0  0
 82 87  1  0  0  0
 82159  1  0  0  0
 82160  1  0  0  0
 84161  1  0  0  0
 85162  1  0  0  0
M  ISO  4   1 100  68 101  81 101  85 100
M  END
> <chiral flag>
0

> <version>
0

> <s_m_source_file>
/data/baiqing/PycharmProjects/Reinvent-master-3.2/result/LINK_invent/BTK/process_docking_weight1_custom_product_contain_oxygen_bond_distance_aromatic_linkinvent_7_9_3/rearranged_h_0155.sdf

> <i_m_source_file_index>
89

> <r_mmod_Potential_Energy-OPLS-2005>
-74.6371994018555

> <r_mmod_Stretch_Energy-OPLS-2005>
39.2038040161133

> <r_mmod_Bend_Energy-OPLS-2005>
105.666389465332

> <r_mmod_Torsional_Energy-OPLS-2005>
252.356842041016

> <r_mmod_Improper_Torsional_Energy-OPLS-2005>
4.57799816131592

> <r_mmod_Van_der_Waal_Energy-OPLS-2005>
171.625366210938

> <r_mmod_Electrostatic_Energy-OPLS-2005>
-437.163757324219

> <r_mmod_Solvation_Energy-OPLS-2005>
-219.547164916992

> <b_mmod_Minimization_Converged-OPLS-2005>
0

> <r_mmod_RMS_Derivative-OPLS-2005>
2.31032538414001

$$$$
89
                    3D
 Structure written by MMmdl.
156165  0  0  1  0            999 V2000
  -30.6075  -14.6757   20.4909 C   0  0  0  0  0  0
  -30.4435  -12.4141   19.4562 C   0  0  0  0  0  0
  -29.5106  -12.5102   18.2272 C   0  0  0  0  0  0
  -28.0343  -12.3404   18.6391 C   0  0  0  0  0  0
  -27.6521  -13.2167   19.8611 C   0  0  2  0  0  0
  -28.6984  -13.0865   20.9918 C   0  0  0  0  0  0
  -25.2564  -13.8167   20.5690 C   0  0  0  0  0  0
  -24.1836  -13.0437   20.9210 C   0  0  0  0  0  0
  -24.6402  -11.6906   20.8756 C   0  0  0  0  0  0
  -23.9070  -10.4291   21.0412 C   0  0  0  0  0  0
  -24.3620   -9.4203   21.9188 C   0  0  0  0  0  0
  -23.6294   -8.2239   22.0756 C   0  0  0  0  0  0
  -22.4276   -8.0280   21.3546 C   0  0  0  0  0  0
  -21.9913   -9.0256   20.4650 C   0  0  0  0  0  0
  -22.7242  -10.2135   20.3060 C   0  0  0  0  0  0
  -21.6851   -6.0740   22.5282 C   0  0  0  0  0  0
  -21.4012   -6.5644   23.8216 C   0  0  0  0  0  0
  -21.3659   -5.6795   24.9178 C   0  0  0  0  0  0
  -21.6045   -4.3058   24.7227 C   0  0  0  0  0  0
  -21.8819   -3.8151   23.4347 C   0  0  0  0  0  0
  -21.9192   -4.6968   22.3403 C   0  0  0  0  0  0
  -22.7855  -13.5231   21.1860 C   0  0  0  0  0  0
  -22.1660   -4.2155   21.0979 F   0  0  0  0  0  0
  -21.5630   -3.4541   25.7739 F   0  0  0  0  0  0
  -30.0104  -13.4406   20.4263 N   0  0  0  0  0  0
  -26.2988  -12.9345   20.3311 N   0  0  0  0  0  0
  -25.9329  -11.6505   20.5762 N   0  0  0  0  0  0
  -22.0488  -12.8229   22.0412 N   0  0  0  0  0  0
  -25.4272  -15.1889   20.4072 N   0  0  0  0  0  0
  -31.7747  -14.8351   20.1201 O   0  0  0  0  0  0
  -21.6637   -6.8880   21.4244 O   0  0  0  0  0  0
  -22.3548  -14.5541   20.6702 O   0  0  0  0  0  0
  -24.6289  -31.8590   23.2024 C   0  0  0  0  0  0
  -25.9129  -32.4775   23.8355 C   0  0  1  0  0  0
  -27.2213  -27.2966   20.1176 C   0  0  0  0  0  0
  -25.5937  -33.8575   24.2277 N   0  0  0  0  0  0
  -23.4229  -30.4844   21.5457 C   0  0  2  0  0  0
  -24.8691  -28.9384   20.1146 C   0  0  0  0  0  0
  -22.7484  -29.4630   22.4929 C   0  0  0  0  0  0
  -18.0291  -28.1384   22.8489 C   0  0  0  0  0  0
  -24.1490  -36.7289   23.2635 C   0  0  0  0  0  0
  -25.9680  -30.7824   21.3786 C   0  0  0  0  0  0
  -26.0412  -29.4082   20.7208 C   0  0  0  0  0  0
  -27.2212  -28.6002   20.7117 C   0  0  0  0  0  0
  -26.0272  -26.8962   19.4797 C   0  0  0  0  0  0
  -24.8654  -27.6873   19.4847 C   0  0  0  0  0  0
  -23.6387  -29.8209   20.1615 C   0  0  0  0  0  0
  -25.4116  -36.3079   24.0327 C   0  0  1  0  0  0
  -20.5892  -28.3695   23.1273 C   0  0  2  0  0  0
  -20.6777  -26.9414   22.5406 C   0  0  0  0  0  0
  -19.5750  -26.6382   21.5211 C   0  0  0  0  0  0
  -18.1932  -26.7926   22.1625 C   0  0  0  0  0  0
  -19.1543  -28.8856   23.2876 C   0  0  0  0  0  0
  -18.9466  -30.1457   23.8894 C   0  0  0  0  0  0
  -17.6464  -30.6586   24.0564 C   0  0  0  0  0  0
  -25.9056  -34.9450   23.5101 C   0  0  0  0  0  0
  -16.5356  -29.9082   23.6330 C   0  0  0  0  0  0
  -16.7279  -28.6499   23.0354 C   0  0  0  0  0  0
  -26.4502  -31.6586   25.0731 C   0  0  0  0  0  0
  -25.3732  -31.3728   26.1454 C   0  0  0  0  0  0
  -27.0345  -30.3003   24.6202 C   0  0  0  0  0  0
  -27.6058  -32.4322   25.7506 C   0  0  0  0  0  0
  -27.5588  -37.1790   24.8455 C   0  0  0  0  0  0
  -21.4196  -29.3049   22.3666 N   0  0  0  0  0  0
  -26.4285  -37.3782   23.9419 N   0  0  0  0  0  0
  -24.6922  -31.0587   22.0984 N   0  0  0  0  0  0
  -23.4198  -28.8160   23.3009 O   0  0  0  0  0  0
  -28.3288  -26.4251   20.1431 O   0  0  0  0  0  0
  -26.5625  -34.8921   22.4669 O   0  0  0  0  0  0
  -23.5448  -32.1399   23.7339 O   0  0  0  0  0  0
  -31.0472  -19.3605   20.3480 C   0  0  0  0  0  0
  -28.7530  -19.4175   21.0463 C   0  0  0  0  0  0
  -31.0313  -17.9276   20.3431 C   0  0  0  0  0  0
  -28.7395  -17.9853   21.0487 C   0  0  0  0  0  0
  -29.9211  -20.1561   20.7228 C   0  0  0  0  0  0
  -29.8776  -17.1889   20.7229 C   0  0  0  0  0  0
  -29.3247  -24.1441   20.8974 C   0  0  0  0  0  0
  -30.0643  -21.6604   20.9538 C   0  0  0  0  0  0
  -27.6588  -24.0232   19.2417 C   0  0  0  0  0  0
  -28.0743  -22.5841   19.6571 C   0  0  0  0  0  0
  -28.0940  -24.9629   20.3887 C   0  0  2  0  0  0
  -29.2382  -22.7071   20.5483 N   0  0  0  0  0  0
  -29.7772  -15.7227   20.8153 N   0  0  0  0  0  0
  -31.1442  -21.9770   21.6724 N   0  3  0  0  0  0
  -30.2490  -24.6286   21.5618 O   0  0  0  0  0  0
  -31.4830  -12.5495   19.1522 H   0  0  0  0  0  0
  -30.3906  -11.4216   19.9066 H   0  0  0  0  0  0
  -29.7820  -11.7547   17.4886 H   0  0  0  0  0  0
  -29.6454  -13.4765   17.7384 H   0  0  0  0  0  0
  -27.8776  -11.2877   18.8766 H   0  0  0  0  0  0
  -27.3788  -12.5614   17.7957 H   0  0  0  0  0  0
  -27.6639  -14.2487   19.5109 H   0  0  0  0  0  0
  -28.7198  -12.0670   21.3802 H   0  0  0  0  0  0
  -28.4391  -13.7217   21.8404 H   0  0  0  0  0  0
  -25.2765   -9.5679   22.4761 H   0  0  0  0  0  0
  -24.0006   -7.4632   22.7472 H   0  0  0  0  0  0
  -21.0846   -8.8775   19.8954 H   0  0  0  0  0  0
  -22.3702  -10.9676   19.6171 H   0  0  0  0  0  0
  -21.2001   -7.6150   23.9723 H   0  0  0  0  0  0
  -21.1482   -6.0523   25.9081 H   0  0  0  0  0  0
  -22.0598   -2.7613   23.2846 H   0  0  0  0  0  0
  -22.4091  -11.9889   22.4804 H   0  0  0  0  0  0
  -21.1107  -13.1265   22.2605 H   0  0  0  0  0  0
  -24.6515  -15.8358   20.5007 H   0  0  0  0  0  0
  -26.2515  -15.6188   20.0090 H   0  0  0  0  0  0
  -26.7196  -32.5436   23.1102 H   0  0  0  0  0  0
  -25.0085  -33.9720   25.0421 H   0  0  0  0  0  0
  -22.7181  -31.3060   21.4023 H   0  0  0  0  0  0
  -23.3760  -35.9611   23.3273 H   0  0  0  0  0  0
  -24.3588  -36.8936   22.2053 H   0  0  0  0  0  0
  -23.7229  -37.6478   23.6673 H   0  0  0  0  0  0
  -26.1044  -31.5452   20.6107 H   0  0  0  0  0  0
  -26.8466  -30.8292   22.0104 H   0  0  0  0  0  0
  -28.1202  -28.9575   21.1940 H   0  0  0  0  0  0
  -25.9613  -25.9652   18.9507 H   0  0  0  0  0  0
  -23.9718  -27.3258   18.9947 H   0  0  0  0  0  0
  -23.7607  -30.5977   19.4057 H   0  0  0  0  0  0
  -22.7579  -29.2527   19.8569 H   0  0  0  0  0  0
  -25.1293  -36.1925   25.0817 H   0  0  0  0  0  0
  -20.9993  -28.3273   24.1389 H   0  0  0  0  0  0
  -20.5676  -26.2308   23.3611 H   0  0  0  0  0  0
  -21.6645  -26.7436   22.1201 H   0  0  0  0  0  0
  -19.6909  -25.6292   21.1243 H   0  0  0  0  0  0
  -19.6685  -27.3190   20.6740 H   0  0  0  0  0  0
  -17.4201  -26.6681   21.4026 H   0  0  0  0  0  0
  -18.0332  -26.0065   22.9019 H   0  0  0  0  0  0
  -19.7940  -30.7277   24.2259 H   0  0  0  0  0  0
  -17.5017  -31.6267   24.5162 H   0  0  0  0  0  0
  -15.5355  -30.2984   23.7652 H   0  0  0  0  0  0
  -15.8679  -28.0817   22.7072 H   0  0  0  0  0  0
  -24.5910  -30.7073   25.7785 H   0  0  0  0  0  0
  -24.8922  -32.2896   26.4873 H   0  0  0  0  0  0
  -25.8056  -30.8913   27.0233 H   0  0  0  0  0  0
  -26.2924  -29.6752   24.1223 H   0  0  0  0  0  0
  -27.4024  -29.7265   25.4718 H   0  0  0  0  0  0
  -27.8805  -30.4277   23.9444 H   0  0  0  0  0  0
  -27.2662  -33.3619   26.2086 H   0  0  0  0  0  0
  -28.3871  -32.6888   25.0339 H   0  0  0  0  0  0
  -28.0723  -31.8446   26.5423 H   0  0  0  0  0  0
  -28.2565  -38.0129   24.7567 H   0  0  0  0  0  0
  -28.1127  -36.2663   24.6197 H   0  0  0  0  0  0
  -27.2316  -37.1336   25.8857 H   0  0  0  0  0  0
  -20.9372  -29.8785   21.6887 H   0  0  0  0  0  0
  -26.0161  -38.2847   24.1460 H   0  0  0  0  0  0
  -31.9752  -19.8550   20.0941 H   0  0  0  0  0  0
  -27.8652  -19.9440   21.3679 H   0  0  0  0  0  0
  -31.9363  -17.4039   20.0702 H   0  0  0  0  0  0
  -27.8233  -17.4938   21.3448 H   0  0  0  0  0  0
  -26.5827  -24.0241   19.0868 H   0  0  0  0  0  0
  -28.1334  -24.3048   18.3011 H   0  0  0  0  0  0
  -28.3008  -21.9745   18.7807 H   0  0  0  0  0  0
  -27.2626  -22.0947   20.1976 H   0  0  0  0  0  0
  -27.3583  -24.8889   21.1914 H   0  0  0  0  0  0
  -28.8707  -15.3955   21.1084 H   0  0  0  0  0  0
  -31.7431  -21.2518   22.0349 H   0  0  0  0  0  0
  -31.3209  -22.9470   21.9022 H   0  0  0  0  0  0
  1 25  1  0  0  0
  1 30  2  0  0  0
  1 83  1  0  0  0
  2  3  1  0  0  0
  2 25  1  0  0  0
  2 86  1  0  0  0
  2 87  1  0  0  0
  3  4  1  0  0  0
  3 88  1  0  0  0
  3 89  1  0  0  0
  4  5  1  0  0  0
  4 90  1  0  0  0
  4 91  1  0  0  0
  5  6  1  0  0  0
  5 26  1  0  0  0
  5 92  1  0  0  0
  6 25  1  0  0  0
  6 93  1  0  0  0
  6 94  1  0  0  0
  7  8  2  0  0  0
  7 26  1  0  0  0
  7 29  1  0  0  0
  8  9  1  0  0  0
  8 22  1  0  0  0
  9 10  1  0  0  0
  9 27  2  0  0  0
 10 11  2  0  0  0
 10 15  1  0  0  0
 11 12  1  0  0  0
 11 95  1  0  0  0
 12 13  2  0  0  0
 12 96  1  0  0  0
 13 14  1  0  0  0
 13 31  1  0  0  0
 14 15  2  0  0  0
 14 97  1  0  0  0
 15 98  1  0  0  0
 16 17  2  0  0  0
 16 21  1  0  0  0
 16 31  1  0  0  0
 17 18  1  0  0  0
 17 99  1  0  0  0
 18 19  2  0  0  0
 18100  1  0  0  0
 19 20  1  0  0  0
 19 24  1  0  0  0
 20 21  2  0  0  0
 20101  1  0  0  0
 21 23  1  0  0  0
 22 28  1  0  0  0
 22 32  2  0  0  0
 26 27  1  0  0  0
 28102  1  0  0  0
 28103  1  0  0  0
 29104  1  0  0  0
 29105  1  0  0  0
 33 34  1  0  0  0
 33 66  1  0  0  0
 33 70  2  0  0  0
 34 36  1  0  0  0
 34 59  1  0  0  0
 34106  1  0  0  0
 35 44  2  0  0  0
 35 45  1  0  0  0
 35 68  1  0  0  0
 36 56  1  0  0  0
 36107  1  0  0  0
 37 39  1  0  0  0
 37 47  1  0  0  0
 37 66  1  0  0  0
 37108  1  0  0  0
 38 43  2  0  0  0
 38 46  1  0  0  0
 38 47  1  0  0  0
 39 64  1  0  0  0
 39 67  2  0  0  0
 40 52  1  0  0  0
 40 53  2  0  0  0
 40 58  1  0  0  0
 41109  1  0  0  0
 41110  1  0  0  0
 41111  1  0  0  0
 41 48  1  0  0  0
 42 43  1  0  0  0
 42 66  1  0  0  0
 42112  1  0  0  0
 42113  1  0  0  0
 43 44  1  0  0  0
 44114  1  0  0  0
 45 46  2  0  0  0
 45115  1  0  0  0
 46116  1  0  0  0
 47117  1  0  0  0
 47118  1  0  0  0
 48 56  1  0  0  0
 48 65  1  0  0  0
 48119  1  0  0  0
 49 50  1  0  0  0
 49 53  1  0  0  0
 49 64  1  0  0  0
 49120  1  0  0  0
 50 51  1  0  0  0
 50121  1  0  0  0
 50122  1  0  0  0
 51 52  1  0  0  0
 51123  1  0  0  0
 51124  1  0  0  0
 52125  1  0  0  0
 52126  1  0  0  0
 53 54  1  0  0  0
 54 55  2  0  0  0
 54127  1  0  0  0
 55 57  1  0  0  0
 55128  1  0  0  0
 56 69  2  0  0  0
 57 58  2  0  0  0
 57129  1  0  0  0
 58130  1  0  0  0
 59 60  1  0  0  0
 59 61  1  0  0  0
 59 62  1  0  0  0
 60131  1  0  0  0
 60132  1  0  0  0
 60133  1  0  0  0
 61134  1  0  0  0
 61135  1  0  0  0
 61136  1  0  0  0
 62137  1  0  0  0
 62138  1  0  0  0
 62139  1  0  0  0
 63 65  1  0  0  0
 63140  1  0  0  0
 63141  1  0  0  0
 63142  1  0  0  0
 64143  1  0  0  0
 65144  1  0  0  0
 68 81  1  0  0  0
 71 73  2  0  0  0
 71 75  1  0  0  0
 71145  1  0  0  0
 72 74  1  0  0  0
 72 75  2  0  0  0
 72146  1  0  0  0
 73 76  1  0  0  0
 73147  1  0  0  0
 74 76  2  0  0  0
 74148  1  0  0  0
 75 78  1  0  0  0
 76 83  1  0  0  0
 77 81  1  0  0  0
 77 82  1  0  0  0
 77 85  2  0  0  0
 78 82  1  0  0  0
 78 84  2  0  0  0
 79 80  1  0  0  0
 79 81  1  0  0  0
 79149  1  0  0  0
 79150  1  0  0  0
 80 82  1  0  0  0
 80151  1  0  0  0
 80152  1  0  0  0
 81153  1  0  0  0
 83154  1  0  0  0
 84155  1  0  0  0
 84156  1  0  0  0
M  CHG  1  84   1
M  ISO  4   1 100  68 101  81 101  83 100
M  END
> <chiral flag>
0

> <version>
0

> <s_m_source_file>
/data/baiqing/PycharmProjects/Reinvent-master-3.2/result/LINK_invent/BTK/process_docking_weight1_custom_product_contain_oxygen_bond_distance_aromatic_linkinvent_7_9_3/rearranged_h_0155.sdf

> <i_m_source_file_index>
90

> <r_mmod_Potential_Energy-OPLS-2005>
-52.8116264343262

> <r_mmod_Stretch_Energy-OPLS-2005>
92.7973480224609

> <r_mmod_Bend_Energy-OPLS-2005>
192.360244750977

> <r_mmod_Torsional_Energy-OPLS-2005>
251.776412963867

> <r_mmod_Improper_Torsional_Energy-OPLS-2005>
5.63258504867554

> <r_mmod_Van_der_Waal_Energy-OPLS-2005>
148.558074951172

> <r_mmod_Electrostatic_Energy-OPLS-2005>
-383.345428466797

> <r_mmod_Solvation_Energy-OPLS-2005>
-419.998626708984

> <b_mmod_Minimization_Converged-OPLS-2005>
0

> <r_mmod_RMS_Derivative-OPLS-2005>
0.635141491889954

$$$$
90
                    3D
 Structure written by MMmdl.
155164  0  0  1  0            999 V2000
  -30.5861  -14.8565   20.4676 C   0  0  0  0  0  0
  -30.4323  -12.5377   19.4839 C   0  0  0  0  0  0
  -29.5118  -12.5268   18.2424 C   0  0  0  0  0  0
  -28.0414  -12.3275   18.6559 C   0  0  0  0  0  0
  -27.6323  -13.2405   19.8410 C   0  0  2  0  0  0
  -28.6753  -13.2060   20.9736 C   0  0  0  0  0  0
  -25.2462  -13.8202   20.5677 C   0  0  0  0  0  0
  -24.1774  -13.0436   20.9204 C   0  0  0  0  0  0
  -24.6384  -11.6918   20.8745 C   0  0  0  0  0  0
  -23.9066  -10.4290   21.0405 C   0  0  0  0  0  0
  -24.3618   -9.4207   21.9185 C   0  0  0  0  0  0
  -23.6289   -8.2243   22.0751 C   0  0  0  0  0  0
  -22.4274   -8.0277   21.3538 C   0  0  0  0  0  0
  -21.9909   -9.0253   20.4642 C   0  0  0  0  0  0
  -22.7237  -10.2133   20.3051 C   0  0  0  0  0  0
  -21.6856   -6.0731   22.5275 C   0  0  0  0  0  0
  -21.4013   -6.5636   23.8208 C   0  0  0  0  0  0
  -21.3658   -5.6788   24.9171 C   0  0  0  0  0  0
  -21.6042   -4.3050   24.7219 C   0  0  0  0  0  0
  -21.8820   -3.8142   23.4342 C   0  0  0  0  0  0
  -21.9193   -4.6958   22.3399 C   0  0  0  0  0  0
  -22.7797  -13.5211   21.1875 C   0  0  0  0  0  0
  -22.1660   -4.2143   21.0977 F   0  0  0  0  0  0
  -21.5631   -3.4537   25.7731 F   0  0  0  0  0  0
  -29.9565  -13.6194   20.3905 N   0  0  0  0  0  0
  -26.2887  -12.9425   20.3239 N   0  0  0  0  0  0
  -25.9315  -11.6560   20.5730 N   0  0  0  0  0  0
  -22.0459  -12.8201   22.0446 N   0  0  0  0  0  0
  -25.4133  -15.1924   20.4069 N   0  0  0  0  0  0
  -31.7784  -14.8972   20.1371 O   0  0  0  0  0  0
  -21.6638   -6.8875   21.4237 O   0  0  0  0  0  0
  -22.3471  -14.5518   20.6724 O   0  0  0  0  0  0
  -24.6395  -31.8491   23.1927 C   0  0  0  0  0  0
  -25.9194  -32.4715   23.8303 C   0  0  1  0  0  0
  -27.2094  -27.1858   20.1403 C   0  0  0  0  0  0
  -25.5971  -33.8523   24.2213 N   0  0  0  0  0  0
  -23.4398  -30.4709   21.5378 C   0  0  2  0  0  0
  -24.8877  -28.9082   20.1086 C   0  0  0  0  0  0
  -22.7552  -29.4569   22.4875 C   0  0  0  0  0  0
  -18.0300  -28.1398   22.8479 C   0  0  0  0  0  0
  -24.1489  -36.7247   23.2643 C   0  0  0  0  0  0
  -25.9934  -30.7360   21.3871 C   0  0  0  0  0  0
  -26.0642  -29.3528   20.7266 C   0  0  0  0  0  0
  -27.2297  -28.5066   20.7280 C   0  0  0  0  0  0
  -26.0151  -26.8374   19.4749 C   0  0  0  0  0  0
  -24.8730  -27.6618   19.4676 C   0  0  0  0  0  0
  -23.6624  -29.8049   20.1546 C   0  0  0  0  0  0
  -25.4116  -36.3033   24.0320 C   0  0  1  0  0  0
  -20.5912  -28.3712   23.1247 C   0  0  2  0  0  0
  -20.6791  -26.9420   22.5406 C   0  0  0  0  0  0
  -19.5760  -26.6371   21.5217 C   0  0  0  0  0  0
  -18.1936  -26.7939   22.1617 C   0  0  0  0  0  0
  -19.1558  -28.8872   23.2856 C   0  0  0  0  0  0
  -18.9478  -30.1476   23.8878 C   0  0  0  0  0  0
  -17.6473  -30.6598   24.0559 C   0  0  0  0  0  0
  -25.9071  -34.9414   23.5059 C   0  0  0  0  0  0
  -16.5362  -29.9086   23.6347 C   0  0  0  0  0  0
  -16.7284  -28.6507   23.0360 C   0  0  0  0  0  0
  -26.4529  -31.6583   25.0732 C   0  0  0  0  0  0
  -25.3719  -31.3768   26.1434 C   0  0  0  0  0  0
  -27.0397  -30.2987   24.6298 C   0  0  0  0  0  0
  -27.6076  -32.4344   25.7498 C   0  0  0  0  0  0
  -27.5568  -37.1768   24.8462 C   0  0  0  0  0  0
  -21.4247  -29.3047   22.3625 N   0  0  0  0  0  0
  -26.4272  -37.3750   23.9420 N   0  0  0  0  0  0
  -24.7108  -31.0391   22.0942 N   0  0  0  0  0  0
  -23.4218  -28.8109   23.3001 O   0  0  0  0  0  0
  -28.2565  -26.2129   20.1697 O   0  0  0  0  0  0
  -26.5643  -34.8911   22.4630 O   0  0  0  0  0  0
  -23.5522  -32.1346   23.7171 O   0  0  0  0  0  0
  -29.3244  -19.9665   19.6409 C   0  0  0  0  0  0
  -29.5454  -18.5505   20.0465 C   0  0  0  0  0  0
  -29.3798  -18.3517   21.3515 C   0  0  0  0  0  0
  -28.9497  -20.8597   20.6743 C   0  0  0  0  0  0
  -28.7149  -23.4475   20.1125 C   0  0  0  0  0  0
  -29.9027  -17.1501   19.4761 C   0  0  0  0  0  0
  -29.6099  -16.9127   21.8196 C   0  0  0  0  0  0
  -30.8340  -16.8742   22.7561 C   0  0  0  0  0  0
  -28.3684  -16.4261   22.5846 C   0  0  0  0  0  0
  -27.9138  -24.7828   20.6208 C   0  0  0  0  0  0
  -29.8490  -16.0702   20.5660 N   0  0  0  0  0  0
  -28.5241  -22.2206   20.7693 N   0  0  0  0  0  0
  -29.4677  -23.5334   19.1382 O   0  0  0  0  0  0
  -28.9264  -19.8584   22.1626 S   0  0  0  0  0  0
  -31.4683  -12.6796   19.1714 H   0  0  0  0  0  0
  -30.4095  -11.5717   19.9916 H   0  0  0  0  0  0
  -29.8168  -11.7405   17.5507 H   0  0  0  0  0  0
  -29.6141  -13.4681   17.7003 H   0  0  0  0  0  0
  -27.9207  -11.2817   18.9406 H   0  0  0  0  0  0
  -27.3792  -12.4896   17.8046 H   0  0  0  0  0  0
  -27.6149  -14.2570   19.4471 H   0  0  0  0  0  0
  -28.7458  -12.2077   21.4081 H   0  0  0  0  0  0
  -28.3731  -13.8605   21.7824 H   0  0  0  0  0  0
  -25.2765   -9.5684   22.4756 H   0  0  0  0  0  0
  -23.9994   -7.4630   22.7473 H   0  0  0  0  0  0
  -21.0835   -8.8770   19.8949 H   0  0  0  0  0  0
  -22.3697  -10.9669   19.6155 H   0  0  0  0  0  0
  -21.2004   -7.6137   23.9711 H   0  0  0  0  0  0
  -21.1478   -6.0518   25.9073 H   0  0  0  0  0  0
  -22.0602   -2.7602   23.2844 H   0  0  0  0  0  0
  -22.4081  -11.9860   22.4818 H   0  0  0  0  0  0
  -21.1076  -13.1222   22.2658 H   0  0  0  0  0  0
  -24.6504  -15.8490   20.5282 H   0  0  0  0  0  0
  -26.2706  -15.6345   20.1006 H   0  0  0  0  0  0
  -26.7262  -32.5329   23.1039 H   0  0  0  0  0  0
  -25.0165  -33.9656   25.0389 H   0  0  0  0  0  0
  -22.7405  -31.2956   21.3867 H   0  0  0  0  0  0
  -23.3774  -35.9558   23.3283 H   0  0  0  0  0  0
  -24.3581  -36.8897   22.2063 H   0  0  0  0  0  0
  -23.7219  -37.6426   23.6695 H   0  0  0  0  0  0
  -26.1488  -31.4938   20.6178 H   0  0  0  0  0  0
  -26.8649  -30.7795   22.0292 H   0  0  0  0  0  0
  -28.1280  -28.8380   21.2302 H   0  0  0  0  0  0
  -25.9443  -25.8901   18.9610 H   0  0  0  0  0  0
  -23.9781  -27.3202   18.9656 H   0  0  0  0  0  0
  -23.7934  -30.5821   19.4006 H   0  0  0  0  0  0
  -22.7787  -29.2441   19.8449 H   0  0  0  0  0  0
  -25.1297  -36.1854   25.0810 H   0  0  0  0  0  0
  -20.9999  -28.3298   24.1371 H   0  0  0  0  0  0
  -20.5694  -26.2325   23.3622 H   0  0  0  0  0  0
  -21.6652  -26.7439   22.1187 H   0  0  0  0  0  0
  -19.6929  -25.6280   21.1252 H   0  0  0  0  0  0
  -19.6707  -27.3174   20.6746 H   0  0  0  0  0  0
  -17.4212  -26.6722   21.4007 H   0  0  0  0  0  0
  -18.0311  -26.0073   22.8998 H   0  0  0  0  0  0
  -19.7953  -30.7302   24.2232 H   0  0  0  0  0  0
  -17.5023  -31.6277   24.5160 H   0  0  0  0  0  0
  -15.5363  -30.2985   23.7695 H   0  0  0  0  0  0
  -15.8682  -28.0814   22.7095 H   0  0  0  0  0  0
  -24.5928  -30.7078   25.7761 H   0  0  0  0  0  0
  -24.8875  -32.2944   26.4785 H   0  0  0  0  0  0
  -25.8005  -30.9008   27.0261 H   0  0  0  0  0  0
  -26.3013  -29.6705   24.1305 H   0  0  0  0  0  0
  -27.4034  -29.7288   25.4858 H   0  0  0  0  0  0
  -27.8910  -30.4241   23.9600 H   0  0  0  0  0  0
  -27.2699  -33.3695   26.1977 H   0  0  0  0  0  0
  -28.3940  -32.6815   25.0349 H   0  0  0  0  0  0
  -28.0694  -31.8527   26.5485 H   0  0  0  0  0  0
  -28.2562  -38.0090   24.7534 H   0  0  0  0  0  0
  -28.1087  -36.2618   24.6248 H   0  0  0  0  0  0
  -27.2294  -37.1359   25.8867 H   0  0  0  0  0  0
  -20.9451  -29.8771   21.6818 H   0  0  0  0  0  0
  -26.0134  -38.2808   24.1461 H   0  0  0  0  0  0
  -29.4085  -20.2613   18.6040 H   0  0  0  0  0  0
  -30.8961  -17.1711   19.0261 H   0  0  0  0  0  0
  -29.2086  -16.8736   18.6820 H   0  0  0  0  0  0
  -30.6857  -17.5229   23.6199 H   0  0  0  0  0  0
  -31.7342  -17.2177   22.2449 H   0  0  0  0  0  0
  -31.0295  -15.8721   23.1392 H   0  0  0  0  0  0
  -28.0802  -17.1427   23.3540 H   0  0  0  0  0  0
  -28.5470  -15.4874   23.1049 H   0  0  0  0  0  0
  -27.5112  -16.3052   21.9231 H   0  0  0  0  0  0
  -27.9950  -24.7899   21.7077 H   0  0  0  0  0  0
  -26.8635  -24.5667   20.4319 H   0  0  0  0  0  0
  -27.9411  -22.3680   21.5826 H   0  0  0  0  0  0
  1 25  1  0  0  0
  1 30  2  0  0  0
  1 81  1  0  0  0
  2  3  1  0  0  0
  2 25  1  0  0  0
  2 85  1  0  0  0
  2 86  1  0  0  0
  3  4  1  0  0  0
  3 87  1  0  0  0
  3 88  1  0  0  0
  4  5  1  0  0  0
  4 89  1  0  0  0
  4 90  1  0  0  0
  5  6  1  0  0  0
  5 26  1  0  0  0
  5 91  1  0  0  0
  6 25  1  0  0  0
  6 92  1  0  0  0
  6 93  1  0  0  0
  7  8  2  0  0  0
  7 26  1  0  0  0
  7 29  1  0  0  0
  8  9  1  0  0  0
  8 22  1  0  0  0
  9 10  1  0  0  0
  9 27  2  0  0  0
 10 11  2  0  0  0
 10 15  1  0  0  0
 11 12  1  0  0  0
 11 94  1  0  0  0
 12 13  2  0  0  0
 12 95  1  0  0  0
 13 14  1  0  0  0
 13 31  1  0  0  0
 14 15  2  0  0  0
 14 96  1  0  0  0
 15 97  1  0  0  0
 16 17  2  0  0  0
 16 21  1  0  0  0
 16 31  1  0  0  0
 17 18  1  0  0  0
 17 98  1  0  0  0
 18 19  2  0  0  0
 18 99  1  0  0  0
 19 20  1  0  0  0
 19 24  1  0  0  0
 20 21  2  0  0  0
 20100  1  0  0  0
 21 23  1  0  0  0
 22 28  1  0  0  0
 22 32  2  0  0  0
 26 27  1  0  0  0
 28101  1  0  0  0
 28102  1  0  0  0
 29103  1  0  0  0
 29104  1  0  0  0
 33 34  1  0  0  0
 33 66  1  0  0  0
 33 70  2  0  0  0
 34 36  1  0  0  0
 34 59  1  0  0  0
 34105  1  0  0  0
 35 44  2  0  0  0
 35 45  1  0  0  0
 35 68  1  0  0  0
 36 56  1  0  0  0
 36106  1  0  0  0
 37 39  1  0  0  0
 37 47  1  0  0  0
 37 66  1  0  0  0
 37107  1  0  0  0
 38 43  2  0  0  0
 38 46  1  0  0  0
 38 47  1  0  0  0
 39 64  1  0  0  0
 39 67  2  0  0  0
 40 52  1  0  0  0
 40 53  2  0  0  0
 40 58  1  0  0  0
 41108  1  0  0  0
 41109  1  0  0  0
 41110  1  0  0  0
 41 48  1  0  0  0
 42 43  1  0  0  0
 42 66  1  0  0  0
 42111  1  0  0  0
 42112  1  0  0  0
 43 44  1  0  0  0
 44113  1  0  0  0
 45 46  2  0  0  0
 45114  1  0  0  0
 46115  1  0  0  0
 47116  1  0  0  0
 47117  1  0  0  0
 48 56  1  0  0  0
 48 65  1  0  0  0
 48118  1  0  0  0
 49 50  1  0  0  0
 49 53  1  0  0  0
 49 64  1  0  0  0
 49119  1  0  0  0
 50 51  1  0  0  0
 50120  1  0  0  0
 50121  1  0  0  0
 51 52  1  0  0  0
 51122  1  0  0  0
 51123  1  0  0  0
 52124  1  0  0  0
 52125  1  0  0  0
 53 54  1  0  0  0
 54 55  2  0  0  0
 54126  1  0  0  0
 55 57  1  0  0  0
 55127  1  0  0  0
 56 69  2  0  0  0
 57 58  2  0  0  0
 57128  1  0  0  0
 58129  1  0  0  0
 59 60  1  0  0  0
 59 61  1  0  0  0
 59 62  1  0  0  0
 60130  1  0  0  0
 60131  1  0  0  0
 60132  1  0  0  0
 61133  1  0  0  0
 61134  1  0  0  0
 61135  1  0  0  0
 62136  1  0  0  0
 62137  1  0  0  0
 62138  1  0  0  0
 63 65  1  0  0  0
 63139  1  0  0  0
 63140  1  0  0  0
 63141  1  0  0  0
 64142  1  0  0  0
 65143  1  0  0  0
 68 80  1  0  0  0
 71 72  1  0  0  0
 71 74  2  0  0  0
 71144  1  0  0  0
 72 73  2  0  0  0
 72 76  1  0  0  0
 73 77  1  0  0  0
 73 84  1  0  0  0
 74 82  1  0  0  0
 74 84  1  0  0  0
 75 80  1  0  0  0
 75 82  1  0  0  0
 75 83  2  0  0  0
 76 81  1  0  0  0
 76145  1  0  0  0
 76146  1  0  0  0
 77 78  1  0  0  0
 77 79  1  0  0  0
 77 81  1  0  0  0
 78147  1  0  0  0
 78148  1  0  0  0
 78149  1  0  0  0
 79150  1  0  0  0
 79151  1  0  0  0
 79152  1  0  0  0
 80153  1  0  0  0
 80154  1  0  0  0
 82155  1  0  0  0
M  ISO  4   1 100  68 101  80 101  81 100
M  END
> <chiral flag>
0

> <version>
0

> <s_m_source_file>
/data/baiqing/PycharmProjects/Reinvent-master-3.2/result/LINK_invent/BTK/process_docking_weight1_custom_product_contain_oxygen_bond_distance_aromatic_linkinvent_7_9_3/rearranged_h_0155.sdf

> <i_m_source_file_index>
91

> <r_mmod_Potential_Energy-OPLS-2005>
477.342407226562

> <r_mmod_Stretch_Energy-OPLS-2005>
177.982025146484

> <r_mmod_Bend_Energy-OPLS-2005>
298.635162353516

> <r_mmod_Torsional_Energy-OPLS-2005>
279.224090576172

> <r_mmod_Improper_Torsional_Energy-OPLS-2005>
12.3630437850952

> <r_mmod_Van_der_Waal_Energy-OPLS-2005>
104.738723754883

> <r_mmod_Electrostatic_Energy-OPLS-2005>
-312.149047851562

> <r_mmod_Solvation_Energy-OPLS-2005>
-222.760604858398

> <b_mmod_Minimization_Converged-OPLS-2005>
0

> <r_mmod_RMS_Derivative-OPLS-2005>
1.27813529968262

$$$$
91
                    3D
 Structure written by MMmdl.
154163  0  0  1  0            999 V2000
  -30.6432  -14.6589   20.4544 C   0  0  0  0  0  0
  -30.4236  -12.3945   19.4699 C   0  0  0  0  0  0
  -29.5067  -12.4975   18.2316 C   0  0  0  0  0  0
  -28.0294  -12.3425   18.6401 C   0  0  0  0  0  0
  -27.6468  -13.2277   19.8564 C   0  0  2  0  0  0
  -28.6897  -13.1262   20.9922 C   0  0  0  0  0  0
  -25.2530  -13.8198   20.5691 C   0  0  0  0  0  0
  -24.1814  -13.0445   20.9199 C   0  0  0  0  0  0
  -24.6397  -11.6922   20.8746 C   0  0  0  0  0  0
  -23.9071  -10.4298   21.0413 C   0  0  0  0  0  0
  -24.3623   -9.4208   21.9186 C   0  0  0  0  0  0
  -23.6295   -8.2245   22.0754 C   0  0  0  0  0  0
  -22.4277   -8.0284   21.3545 C   0  0  0  0  0  0
  -21.9915   -9.0258   20.4646 C   0  0  0  0  0  0
  -22.7245  -10.2138   20.3058 C   0  0  0  0  0  0
  -21.6855   -6.0734   22.5277 C   0  0  0  0  0  0
  -21.4015   -6.5640   23.8210 C   0  0  0  0  0  0
  -21.3660   -5.6794   24.9174 C   0  0  0  0  0  0
  -21.6043   -4.3056   24.7225 C   0  0  0  0  0  0
  -21.8821   -3.8147   23.4346 C   0  0  0  0  0  0
  -21.9195   -4.6962   22.3402 C   0  0  0  0  0  0
  -22.7837  -13.5227   21.1859 C   0  0  0  0  0  0
  -22.1665   -4.2148   21.0982 F   0  0  0  0  0  0
  -21.5626   -3.4538   25.7737 F   0  0  0  0  0  0
  -30.0024  -13.4468   20.4197 N   0  0  0  0  0  0
  -26.2958  -12.9399   20.3295 N   0  0  0  0  0  0
  -25.9327  -11.6544   20.5753 N   0  0  0  0  0  0
  -22.0487  -12.8213   22.0415 N   0  0  0  0  0  0
  -25.4234  -15.1922   20.4117 N   0  0  0  0  0  0
  -31.8317  -14.7347   20.1286 O   0  0  0  0  0  0
  -21.6639   -6.8882   21.4242 O   0  0  0  0  0  0
  -22.3516  -14.5530   20.6706 O   0  0  0  0  0  0
  -24.6265  -31.8587   23.2014 C   0  0  0  0  0  0
  -25.9111  -32.4770   23.8344 C   0  0  1  0  0  0
  -27.2261  -27.3151   20.1079 C   0  0  0  0  0  0
  -25.5922  -33.8573   24.2268 N   0  0  0  0  0  0
  -23.4199  -30.4825   21.5438 C   0  0  2  0  0  0
  -24.8652  -28.9354   20.1087 C   0  0  0  0  0  0
  -22.7471  -29.4624   22.4931 C   0  0  0  0  0  0
  -18.0282  -28.1387   22.8488 C   0  0  0  0  0  0
  -24.1489  -36.7295   23.2640 C   0  0  0  0  0  0
  -25.9605  -30.7875   21.3724 C   0  0  0  0  0  0
  -26.0327  -29.4143   20.7141 C   0  0  0  0  0  0
  -27.2116  -28.6124   20.7095 C   0  0  0  0  0  0
  -26.0268  -26.8786   19.4997 C   0  0  0  0  0  0
  -24.8635  -27.6721   19.4967 C   0  0  0  0  0  0
  -23.6342  -29.8173   20.1585 C   0  0  0  0  0  0
  -25.4113  -36.3081   24.0329 C   0  0  1  0  0  0
  -20.5883  -28.3693   23.1283 C   0  0  2  0  0  0
  -20.6773  -26.9416   22.5412 C   0  0  0  0  0  0
  -19.5751  -26.6387   21.5213 C   0  0  0  0  0  0
  -18.1929  -26.7930   22.1625 C   0  0  0  0  0  0
  -19.1535  -28.8856   23.2883 C   0  0  0  0  0  0
  -18.9460  -30.1457   23.8899 C   0  0  0  0  0  0
  -17.6462  -30.6591   24.0565 C   0  0  0  0  0  0
  -25.9052  -34.9449   23.5101 C   0  0  0  0  0  0
  -16.5352  -29.9091   23.6329 C   0  0  0  0  0  0
  -16.7271  -28.6509   23.0350 C   0  0  0  0  0  0
  -26.4493  -31.6584   25.0720 C   0  0  0  0  0  0
  -25.3728  -31.3721   26.1447 C   0  0  0  0  0  0
  -27.0339  -30.3007   24.6182 C   0  0  0  0  0  0
  -27.6050  -32.4319   25.7492 C   0  0  0  0  0  0
  -27.5578  -37.1800   24.8462 C   0  0  0  0  0  0
  -21.4184  -29.3045   22.3675 N   0  0  0  0  0  0
  -26.4289  -37.3778   23.9410 N   0  0  0  0  0  0
  -24.6879  -31.0598   22.0963 N   0  0  0  0  0  0
  -23.4191  -28.8169   23.3019 O   0  0  0  0  0  0
  -28.3566  -26.4862   20.1852 O   0  0  0  0  0  0
  -26.5629  -34.8920   22.4673 O   0  0  0  0  0  0
  -23.5428  -32.1388   23.7342 O   0  0  0  0  0  0
  -30.6880  -19.0654   18.6972 C   0  0  0  0  0  0
  -29.8151  -19.4311   19.6947 C   0  0  0  0  0  0
  -30.1098  -17.1217   20.1179 C   0  0  0  0  0  0
  -29.8725  -23.3863   20.4028 C   0  0  0  0  0  0
  -28.7003  -23.8534   19.9021 C   0  0  0  0  0  0
  -30.1920  -21.8986   20.6949 C   0  0  0  0  0  0
  -27.5815  -22.8282   19.6064 C   0  0  0  0  0  0
  -27.8746  -21.3182   19.9836 C   0  0  0  0  0  0
  -29.3620  -20.9332   19.8078 C   0  0  2  0  0  0
  -28.5361  -25.3102   19.3122 C   0  0  0  0  0  0
  -29.5021  -18.2895   20.5172 N   0  0  0  0  0  0
  -29.8960  -15.7916   20.6914 N   0  0  0  0  0  0
  -31.1327  -17.3822   18.7070 S   0  0  0  0  0  0
  -31.4685  -12.4925   19.1709 H   0  0  0  0  0  0
  -30.3385  -11.4096   19.9320 H   0  0  0  0  0  0
  -29.7728  -11.7354   17.4980 H   0  0  0  0  0  0
  -29.6544  -13.4603   17.7400 H   0  0  0  0  0  0
  -27.8660  -11.2919   18.8817 H   0  0  0  0  0  0
  -27.3787  -12.5630   17.7935 H   0  0  0  0  0  0
  -27.6530  -14.2561   19.4951 H   0  0  0  0  0  0
  -28.7000  -12.1224   21.4199 H   0  0  0  0  0  0
  -28.4392  -13.8013   21.8116 H   0  0  0  0  0  0
  -25.2775   -9.5678   22.4755 H   0  0  0  0  0  0
  -24.0001   -7.4637   22.7474 H   0  0  0  0  0  0
  -21.0845   -8.8784   19.8952 H   0  0  0  0  0  0
  -22.3712  -10.9676   19.6162 H   0  0  0  0  0  0
  -21.2011   -7.6150   23.9714 H   0  0  0  0  0  0
  -21.1478   -6.0525   25.9076 H   0  0  0  0  0  0
  -22.0600   -2.7607   23.2847 H   0  0  0  0  0  0
  -22.4114  -11.9868   22.4787 H   0  0  0  0  0  0
  -21.1106  -13.1238   22.2634 H   0  0  0  0  0  0
  -24.6564  -15.8468   20.5238 H   0  0  0  0  0  0
  -26.2708  -15.6330   20.0769 H   0  0  0  0  0  0
  -26.7180  -32.5434   23.1091 H   0  0  0  0  0  0
  -25.0049  -33.9718   25.0398 H   0  0  0  0  0  0
  -22.7141  -31.3033   21.4006 H   0  0  0  0  0  0
  -23.3751  -35.9626   23.3297 H   0  0  0  0  0  0
  -24.3581  -36.8926   22.2056 H   0  0  0  0  0  0
  -23.7244  -37.6495   23.6668 H   0  0  0  0  0  0
  -26.0926  -31.5514   20.6048 H   0  0  0  0  0  0
  -26.8407  -30.8352   22.0023 H   0  0  0  0  0  0
  -28.1072  -28.9756   21.1940 H   0  0  0  0  0  0
  -25.9426  -25.8981   19.0575 H   0  0  0  0  0  0
  -23.9622  -27.2918   19.0354 H   0  0  0  0  0  0
  -23.7555  -30.5941   19.4026 H   0  0  0  0  0  0
  -22.7533  -29.2488   19.8558 H   0  0  0  0  0  0
  -25.1294  -36.1927   25.0821 H   0  0  0  0  0  0
  -20.9974  -28.3272   24.1405 H   0  0  0  0  0  0
  -20.5672  -26.2306   23.3615 H   0  0  0  0  0  0
  -21.6644  -26.7447   22.1209 H   0  0  0  0  0  0
  -19.6916  -25.6297   21.1246 H   0  0  0  0  0  0
  -19.6687  -27.3196   20.6743 H   0  0  0  0  0  0
  -17.4198  -26.6674   21.4028 H   0  0  0  0  0  0
  -18.0332  -26.0070   22.9021 H   0  0  0  0  0  0
  -19.7936  -30.7270   24.2270 H   0  0  0  0  0  0
  -17.5018  -31.6270   24.5170 H   0  0  0  0  0  0
  -15.5354  -30.2997   23.7651 H   0  0  0  0  0  0
  -15.8671  -28.0833   22.7060 H   0  0  0  0  0  0
  -24.5901  -30.7073   25.7774 H   0  0  0  0  0  0
  -24.8919  -32.2886   26.4875 H   0  0  0  0  0  0
  -25.8052  -30.8895   27.0221 H   0  0  0  0  0  0
  -26.2917  -29.6753   24.1208 H   0  0  0  0  0  0
  -27.4036  -29.7268   25.4691 H   0  0  0  0  0  0
  -27.8784  -30.4293   23.9408 H   0  0  0  0  0  0
  -27.2657  -33.3614   26.2077 H   0  0  0  0  0  0
  -28.3854  -32.6890   25.0318 H   0  0  0  0  0  0
  -28.0725  -31.8442   26.5404 H   0  0  0  0  0  0
  -28.2589  -38.0102   24.7513 H   0  0  0  0  0  0
  -28.1079  -36.2634   24.6278 H   0  0  0  0  0  0
  -27.2301  -37.1438   25.8867 H   0  0  0  0  0  0
  -20.9360  -29.8767   21.6886 H   0  0  0  0  0  0
  -26.0168  -38.2851   24.1413 H   0  0  0  0  0  0
  -31.1111  -19.7088   17.9366 H   0  0  0  0  0  0
  -30.6913  -24.0779   20.5479 H   0  0  0  0  0  0
  -30.0538  -21.6827   21.7545 H   0  0  0  0  0  0
  -31.2498  -21.7446   20.4797 H   0  0  0  0  0  0
  -27.3979  -22.8724   18.5322 H   0  0  0  0  0  0
  -26.6581  -23.1611   20.0821 H   0  0  0  0  0  0
  -27.2493  -20.6713   19.3670 H   0  0  0  0  0  0
  -27.5791  -21.1240   21.0154 H   0  0  0  0  0  0
  -29.5594  -21.3097   18.8020 H   0  0  0  0  0  0
  -27.8415  -25.2838   18.4754 H   0  0  0  0  0  0
  -29.4856  -25.5106   18.8145 H   0  0  0  0  0  0
  -28.9997  -15.6465   21.1268 H   0  0  0  0  0  0
  1 25  1  0  0  0
  1 30  2  0  0  0
  1 82  1  0  0  0
  2  3  1  0  0  0
  2 25  1  0  0  0
  2 84  1  0  0  0
  2 85  1  0  0  0
  3  4  1  0  0  0
  3 86  1  0  0  0
  3 87  1  0  0  0
  4  5  1  0  0  0
  4 88  1  0  0  0
  4 89  1  0  0  0
  5  6  1  0  0  0
  5 26  1  0  0  0
  5 90  1  0  0  0
  6 25  1  0  0  0
  6 91  1  0  0  0
  6 92  1  0  0  0
  7  8  2  0  0  0
  7 26  1  0  0  0
  7 29  1  0  0  0
  8  9  1  0  0  0
  8 22  1  0  0  0
  9 10  1  0  0  0
  9 27  2  0  0  0
 10 11  2  0  0  0
 10 15  1  0  0  0
 11 12  1  0  0  0
 11 93  1  0  0  0
 12 13  2  0  0  0
 12 94  1  0  0  0
 13 14  1  0  0  0
 13 31  1  0  0  0
 14 15  2  0  0  0
 14 95  1  0  0  0
 15 96  1  0  0  0
 16 17  2  0  0  0
 16 21  1  0  0  0
 16 31  1  0  0  0
 17 18  1  0  0  0
 17 97  1  0  0  0
 18 19  2  0  0  0
 18 98  1  0  0  0
 19 20  1  0  0  0
 19 24  1  0  0  0
 20 21  2  0  0  0
 20 99  1  0  0  0
 21 23  1  0  0  0
 22 28  1  0  0  0
 22 32  2  0  0  0
 26 27  1  0  0  0
 28100  1  0  0  0
 28101  1  0  0  0
 29102  1  0  0  0
 29103  1  0  0  0
 33 34  1  0  0  0
 33 66  1  0  0  0
 33 70  2  0  0  0
 34 36  1  0  0  0
 34 59  1  0  0  0
 34104  1  0  0  0
 35 44  2  0  0  0
 35 45  1  0  0  0
 35 68  1  0  0  0
 36 56  1  0  0  0
 36105  1  0  0  0
 37 39  1  0  0  0
 37 47  1  0  0  0
 37 66  1  0  0  0
 37106  1  0  0  0
 38 43  2  0  0  0
 38 46  1  0  0  0
 38 47  1  0  0  0
 39 64  1  0  0  0
 39 67  2  0  0  0
 40 52  1  0  0  0
 40 53  2  0  0  0
 40 58  1  0  0  0
 41107  1  0  0  0
 41108  1  0  0  0
 41109  1  0  0  0
 41 48  1  0  0  0
 42 43  1  0  0  0
 42 66  1  0  0  0
 42110  1  0  0  0
 42111  1  0  0  0
 43 44  1  0  0  0
 44112  1  0  0  0
 45 46  2  0  0  0
 45113  1  0  0  0
 46114  1  0  0  0
 47115  1  0  0  0
 47116  1  0  0  0
 48 56  1  0  0  0
 48 65  1  0  0  0
 48117  1  0  0  0
 49 50  1  0  0  0
 49 53  1  0  0  0
 49 64  1  0  0  0
 49118  1  0  0  0
 50 51  1  0  0  0
 50119  1  0  0  0
 50120  1  0  0  0
 51 52  1  0  0  0
 51121  1  0  0  0
 51122  1  0  0  0
 52123  1  0  0  0
 52124  1  0  0  0
 53 54  1  0  0  0
 54 55  2  0  0  0
 54125  1  0  0  0
 55 57  1  0  0  0
 55126  1  0  0  0
 56 69  2  0  0  0
 57 58  2  0  0  0
 57127  1  0  0  0
 58128  1  0  0  0
 59 60  1  0  0  0
 59 61  1  0  0  0
 59 62  1  0  0  0
 60129  1  0  0  0
 60130  1  0  0  0
 60131  1  0  0  0
 61132  1  0  0  0
 61133  1  0  0  0
 61134  1  0  0  0
 62135  1  0  0  0
 62136  1  0  0  0
 62137  1  0  0  0
 63 65  1  0  0  0
 63138  1  0  0  0
 63139  1  0  0  0
 63140  1  0  0  0
 64141  1  0  0  0
 65142  1  0  0  0
 68 80  1  0  0  0
 71 72  2  0  0  0
 71 83  1  0  0  0
 71143  1  0  0  0
 72 81  1  0  0  0
 72 79  1  0  0  0
 73 81  2  0  0  0
 73 82  1  0  0  0
 73 83  1  0  0  0
 74 75  2  0  0  0
 74 76  1  0  0  0
 74144  1  0  0  0
 75 77  1  0  0  0
 75 80  1  0  0  0
 76 79  1  0  0  0
 76145  1  0  0  0
 76146  1  0  0  0
 77 78  1  0  0  0
 77147  1  0  0  0
 77148  1  0  0  0
 78 79  1  0  0  0
 78149  1  0  0  0
 78150  1  0  0  0
 79151  1  0  0  0
 80152  1  0  0  0
 80153  1  0  0  0
 82154  1  0  0  0
M  ISO  4   1 100  68 101  80 101  82 100
M  END
> <chiral flag>
0

> <version>
0

> <s_m_source_file>
/data/baiqing/PycharmProjects/Reinvent-master-3.2/result/LINK_invent/BTK/process_docking_weight1_custom_product_contain_oxygen_bond_distance_aromatic_linkinvent_7_9_3/rearranged_h_0155.sdf

> <i_m_source_file_index>
92

> <r_mmod_Potential_Energy-OPLS-2005>
38.9777565002441

> <r_mmod_Stretch_Energy-OPLS-2005>
82.7488555908203

> <r_mmod_Bend_Energy-OPLS-2005>
173.059295654297

> <r_mmod_Torsional_Energy-OPLS-2005>
219.792678833008

> <r_mmod_Improper_Torsional_Energy-OPLS-2005>
5.25128316879272

> <r_mmod_Van_der_Waal_Energy-OPLS-2005>
130.125549316406

> <r_mmod_Electrostatic_Energy-OPLS-2005>
-414.774963378906

> <r_mmod_Solvation_Energy-OPLS-2005>
-211.384201049805

> <b_mmod_Minimization_Converged-OPLS-2005>
0

> <r_mmod_RMS_Derivative-OPLS-2005>
0.680367112159729

$$$$
92
                    3D
 Structure written by MMmdl.
154163  0  0  1  0            999 V2000
  -30.5816  -14.7220   20.4626 C   0  0  0  0  0  0
  -30.4400  -12.4424   19.4693 C   0  0  0  0  0  0
  -29.5188  -12.5068   18.2281 C   0  0  0  0  0  0
  -28.0388  -12.3322   18.6302 C   0  0  0  0  0  0
  -27.6387  -13.2230   19.8373 C   0  0  2  0  0  0
  -28.6752  -13.1459   20.9796 C   0  0  0  0  0  0
  -25.2506  -13.8190   20.5605 C   0  0  0  0  0  0
  -24.1808  -13.0438   20.9171 C   0  0  0  0  0  0
  -24.6358  -11.6904   20.8688 C   0  0  0  0  0  0
  -23.9066  -10.4275   21.0381 C   0  0  0  0  0  0
  -24.3624   -9.4199   21.9178 C   0  0  0  0  0  0
  -23.6282   -8.2248   22.0740 C   0  0  0  0  0  0
  -22.4274   -8.0285   21.3535 C   0  0  0  0  0  0
  -21.9876   -9.0266   20.4660 C   0  0  0  0  0  0
  -22.7204  -10.2143   20.3040 C   0  0  0  0  0  0
  -21.6850   -6.0712   22.5269 C   0  0  0  0  0  0
  -21.4030   -6.5644   23.8213 C   0  0  0  0  0  0
  -21.3635   -5.6801   24.9178 C   0  0  0  0  0  0
  -21.6028   -4.3075   24.7247 C   0  0  0  0  0  0
  -21.8820   -3.8133   23.4387 C   0  0  0  0  0  0
  -21.9204   -4.6922   22.3412 C   0  0  0  0  0  0
  -22.7838  -13.5248   21.1867 C   0  0  0  0  0  0
  -22.1674   -4.2095   21.0995 F   0  0  0  0  0  0
  -21.5583   -3.4577   25.7775 F   0  0  0  0  0  0
  -29.9912  -13.4844   20.4151 N   0  0  0  0  0  0
  -26.2893  -12.9365   20.3154 N   0  0  0  0  0  0
  -25.9292  -11.6524   20.5667 N   0  0  0  0  0  0
  -22.0486  -12.8249   22.0441 N   0  0  0  0  0  0
  -25.4219  -15.1903   20.3931 N   0  0  0  0  0  0
  -31.7713  -14.8665   20.1524 O   0  0  0  0  0  0
  -21.6642   -6.8867   21.4245 O   0  0  0  0  0  0
  -22.3543  -14.5557   20.6715 O   0  0  0  0  0  0
  -24.6273  -31.8537   23.1951 C   0  0  0  0  0  0
  -25.9121  -32.4757   23.8273 C   0  0  1  0  0  0
  -27.2132  -27.2799   20.1198 C   0  0  0  0  0  0
  -25.5900  -33.8555   24.2204 N   0  0  0  0  0  0
  -23.4224  -30.4762   21.5399 C   0  0  2  0  0  0
  -24.8675  -28.9183   20.1123 C   0  0  0  0  0  0
  -22.7481  -29.4588   22.4891 C   0  0  0  0  0  0
  -18.0287  -28.1398   22.8466 C   0  0  0  0  0  0
  -24.1471  -36.7304   23.2630 C   0  0  0  0  0  0
  -25.9670  -30.7730   21.3677 C   0  0  0  0  0  0
  -26.0405  -29.3959   20.7132 C   0  0  0  0  0  0
  -27.2237  -28.5919   20.6969 C   0  0  0  0  0  0
  -26.0186  -26.8502   19.5108 C   0  0  0  0  0  0
  -24.8602  -27.6542   19.4983 C   0  0  0  0  0  0
  -23.6409  -29.8088   20.1571 C   0  0  0  0  0  0
  -25.4095  -36.3071   24.0306 C   0  0  1  0  0  0
  -20.5884  -28.3689   23.1266 C   0  0  2  0  0  0
  -20.6759  -26.9391   22.5434 C   0  0  0  0  0  0
  -19.5769  -26.6399   21.5178 C   0  0  0  0  0  0
  -18.1933  -26.7944   22.1562 C   0  0  0  0  0  0
  -19.1547  -28.8849   23.2874 C   0  0  0  0  0  0
  -18.9473  -30.1438   23.8914 C   0  0  0  0  0  0
  -17.6468  -30.6576   24.0581 C   0  0  0  0  0  0
  -25.9045  -34.9452   23.5072 C   0  0  0  0  0  0
  -16.5369  -29.9069   23.6329 C   0  0  0  0  0  0
  -16.7272  -28.6503   23.0329 C   0  0  0  0  0  0
  -26.4476  -31.6598   25.0679 C   0  0  0  0  0  0
  -25.3703  -31.3867   26.1430 C   0  0  0  0  0  0
  -27.0240  -30.2959   24.6221 C   0  0  0  0  0  0
  -27.6039  -32.4337   25.7422 C   0  0  0  0  0  0
  -27.5587  -37.1772   24.8419 C   0  0  0  0  0  0
  -21.4194  -29.3008   22.3634 N   0  0  0  0  0  0
  -26.4257  -37.3788   23.9431 N   0  0  0  0  0  0
  -24.6925  -31.0515   22.0930 N   0  0  0  0  0  0
  -23.4167  -28.8142   23.3019 O   0  0  0  0  0  0
  -28.3213  -26.4225   20.0817 O   0  0  0  0  0  0
  -26.5677  -34.8929   22.4668 O   0  0  0  0  0  0
  -23.5444  -32.1372   23.7272 O   0  0  0  0  0  0
  -30.5902  -19.4175   20.1925 C   0  0  0  0  0  0
  -30.8972  -18.0081   20.3751 C   0  0  0  0  0  0
  -29.2489  -19.7415   20.1518 C   0  0  0  0  0  0
  -29.8114  -17.1678   20.4881 C   0  0  0  0  0  0
  -27.1183  -21.3393   20.3041 C   0  0  0  0  0  0
  -26.8113  -22.8714   20.2807 C   0  0  0  0  0  0
  -29.1954  -22.5174   20.2296 C   0  0  0  0  0  0
  -28.5648  -21.1240   19.8172 C   0  0  1  0  0  0
  -28.1168  -23.6613   19.9608 C   0  0  2  0  0  0
  -28.2418  -25.0816   20.7287 C   0  0  0  0  0  0
  -29.7206  -15.7810   20.6602 N   0  0  0  0  0  0
  -28.3638  -18.2137   20.3979 S   0  0  0  0  0  0
  -31.4816  -12.5795   19.1735 H   0  0  0  0  0  0
  -30.3872  -11.4633   19.9463 H   0  0  0  0  0  0
  -29.7999  -11.7347   17.5087 H   0  0  0  0  0  0
  -29.6544  -13.4622   17.7173 H   0  0  0  0  0  0
  -27.8851  -11.2798   18.8761 H   0  0  0  0  0  0
  -27.3965  -12.5447   17.7769 H   0  0  0  0  0  0
  -27.6306  -14.2440   19.4543 H   0  0  0  0  0  0
  -28.6963  -12.1522   21.4278 H   0  0  0  0  0  0
  -28.3972  -13.8344   21.7810 H   0  0  0  0  0  0
  -25.2781   -9.5677   22.4760 H   0  0  0  0  0  0
  -23.9966   -7.4640   22.7458 H   0  0  0  0  0  0
  -21.0776   -8.8817   19.9007 H   0  0  0  0  0  0
  -22.3657  -10.9699   19.6158 H   0  0  0  0  0  0
  -21.2063   -7.6153   23.9710 H   0  0  0  0  0  0
  -21.1419   -6.0546   25.9088 H   0  0  0  0  0  0
  -22.0606   -2.7576   23.2941 H   0  0  0  0  0  0
  -22.4135  -11.9954   22.4901 H   0  0  0  0  0  0
  -21.1097  -13.1266   22.2616 H   0  0  0  0  0  0
  -24.6470  -15.8402   20.4764 H   0  0  0  0  0  0
  -26.2463  -15.6172   19.9904 H   0  0  0  0  0  0
  -26.7181  -32.5421   23.1006 H   0  0  0  0  0  0
  -24.9889  -33.9656   25.0234 H   0  0  0  0  0  0
  -22.7201  -31.2991   21.3936 H   0  0  0  0  0  0
  -23.3737  -35.9631   23.3251 H   0  0  0  0  0  0
  -24.3553  -36.8992   22.2057 H   0  0  0  0  0  0
  -23.7216  -37.6473   23.6713 H   0  0  0  0  0  0
  -26.0941  -31.5288   20.5914 H   0  0  0  0  0  0
  -26.8481  -30.8264   21.9972 H   0  0  0  0  0  0
  -28.1328  -28.9588   21.1537 H   0  0  0  0  0  0
  -25.9774  -25.8747   19.0448 H   0  0  0  0  0  0
  -23.9613  -27.2862   19.0218 H   0  0  0  0  0  0
  -23.7736  -30.5857   19.4044 H   0  0  0  0  0  0
  -22.7548  -29.2511   19.8470 H   0  0  0  0  0  0
  -25.1256  -36.1890   25.0791 H   0  0  0  0  0  0
  -20.9982  -28.3316   24.1382 H   0  0  0  0  0  0
  -20.5545  -26.2309   23.3646 H   0  0  0  0  0  0
  -21.6643  -26.7356   22.1307 H   0  0  0  0  0  0
  -19.6942  -25.6311   21.1164 H   0  0  0  0  0  0
  -19.6742  -27.3241   20.6741 H   0  0  0  0  0  0
  -17.4212  -26.6724   21.3966 H   0  0  0  0  0  0
  -18.0335  -26.0060   22.8922 H   0  0  0  0  0  0
  -19.7942  -30.7259   24.2309 H   0  0  0  0  0  0
  -17.5004  -31.6221   24.5241 H   0  0  0  0  0  0
  -15.5358  -30.2972   23.7649 H   0  0  0  0  0  0
  -15.8666  -28.0812   22.7037 H   0  0  0  0  0  0
  -24.5830  -30.7238   25.7837 H   0  0  0  0  0  0
  -24.8945  -32.3094   26.4767 H   0  0  0  0  0  0
  -25.7989  -30.9126   27.0267 H   0  0  0  0  0  0
  -26.2799  -29.6765   24.1207 H   0  0  0  0  0  0
  -27.3783  -29.7200   25.4783 H   0  0  0  0  0  0
  -27.8749  -30.4116   23.9504 H   0  0  0  0  0  0
  -27.2611  -33.3574   26.2092 H   0  0  0  0  0  0
  -28.3775  -32.7023   25.0218 H   0  0  0  0  0  0
  -28.0802  -31.8436   26.5263 H   0  0  0  0  0  0
  -28.2569  -38.0106   24.7498 H   0  0  0  0  0  0
  -28.1106  -36.2642   24.6134 H   0  0  0  0  0  0
  -27.2347  -37.1305   25.8831 H   0  0  0  0  0  0
  -20.9405  -29.8657   21.6760 H   0  0  0  0  0  0
  -26.0129  -38.2833   24.1549 H   0  0  0  0  0  0
  -31.3833  -20.1415   20.0625 H   0  0  0  0  0  0
  -31.9224  -17.6683   20.4042 H   0  0  0  0  0  0
  -26.4033  -20.7682   19.7067 H   0  0  0  0  0  0
  -27.0204  -20.9801   21.3304 H   0  0  0  0  0  0
  -26.4167  -23.1548   21.2587 H   0  0  0  0  0  0
  -26.0204  -23.1048   19.5638 H   0  0  0  0  0  0
  -30.1230  -22.7041   19.6853 H   0  0  0  0  0  0
  -29.4547  -22.5025   21.2904 H   0  0  0  0  0  0
  -28.5030  -21.1498   18.7275 H   0  0  0  0  0  0
  -28.1250  -23.8619   18.8858 H   0  0  0  0  0  0
  -29.1722  -25.0238   21.2932 H   0  0  0  0  0  0
  -27.4843  -25.1255   21.5123 H   0  0  0  0  0  0
  -28.7852  -15.4627   20.8505 H   0  0  0  0  0  0
  1 25  1  0  0  0
  1 30  2  0  0  0
  1 81  1  0  0  0
  2  3  1  0  0  0
  2 25  1  0  0  0
  2 83  1  0  0  0
  2 84  1  0  0  0
  3  4  1  0  0  0
  3 85  1  0  0  0
  3 86  1  0  0  0
  4  5  1  0  0  0
  4 87  1  0  0  0
  4 88  1  0  0  0
  5  6  1  0  0  0
  5 26  1  0  0  0
  5 89  1  0  0  0
  6 25  1  0  0  0
  6 90  1  0  0  0
  6 91  1  0  0  0
  7  8  2  0  0  0
  7 26  1  0  0  0
  7 29  1  0  0  0
  8  9  1  0  0  0
  8 22  1  0  0  0
  9 10  1  0  0  0
  9 27  2  0  0  0
 10 11  2  0  0  0
 10 15  1  0  0  0
 11 12  1  0  0  0
 11 92  1  0  0  0
 12 13  2  0  0  0
 12 93  1  0  0  0
 13 14  1  0  0  0
 13 31  1  0  0  0
 14 15  2  0  0  0
 14 94  1  0  0  0
 15 95  1  0  0  0
 16 17  2  0  0  0
 16 21  1  0  0  0
 16 31  1  0  0  0
 17 18  1  0  0  0
 17 96  1  0  0  0
 18 19  2  0  0  0
 18 97  1  0  0  0
 19 20  1  0  0  0
 19 24  1  0  0  0
 20 21  2  0  0  0
 20 98  1  0  0  0
 21 23  1  0  0  0
 22 28  1  0  0  0
 22 32  2  0  0  0
 26 27  1  0  0  0
 28 99  1  0  0  0
 28100  1  0  0  0
 29101  1  0  0  0
 29102  1  0  0  0
 33 34  1  0  0  0
 33 66  1  0  0  0
 33 70  2  0  0  0
 34 36  1  0  0  0
 34 59  1  0  0  0
 34103  1  0  0  0
 35 44  2  0  0  0
 35 45  1  0  0  0
 35 68  1  0  0  0
 36 56  1  0  0  0
 36104  1  0  0  0
 37 39  1  0  0  0
 37 47  1  0  0  0
 37 66  1  0  0  0
 37105  1  0  0  0
 38 43  2  0  0  0
 38 46  1  0  0  0
 38 47  1  0  0  0
 39 64  1  0  0  0
 39 67  2  0  0  0
 40 52  1  0  0  0
 40 53  2  0  0  0
 40 58  1  0  0  0
 41106  1  0  0  0
 41107  1  0  0  0
 41108  1  0  0  0
 41 48  1  0  0  0
 42 43  1  0  0  0
 42 66  1  0  0  0
 42109  1  0  0  0
 42110  1  0  0  0
 43 44  1  0  0  0
 44111  1  0  0  0
 45 46  2  0  0  0
 45112  1  0  0  0
 46113  1  0  0  0
 47114  1  0  0  0
 47115  1  0  0  0
 48 56  1  0  0  0
 48 65  1  0  0  0
 48116  1  0  0  0
 49 50  1  0  0  0
 49 53  1  0  0  0
 49 64  1  0  0  0
 49117  1  0  0  0
 50 51  1  0  0  0
 50118  1  0  0  0
 50119  1  0  0  0
 51 52  1  0  0  0
 51120  1  0  0  0
 51121  1  0  0  0
 52122  1  0  0  0
 52123  1  0  0  0
 53 54  1  0  0  0
 54 55  2  0  0  0
 54124  1  0  0  0
 55 57  1  0  0  0
 55125  1  0  0  0
 56 69  2  0  0  0
 57 58  2  0  0  0
 57126  1  0  0  0
 58127  1  0  0  0
 59 60  1  0  0  0
 59 61  1  0  0  0
 59 62  1  0  0  0
 60128  1  0  0  0
 60129  1  0  0  0
 60130  1  0  0  0
 61131  1  0  0  0
 61132  1  0  0  0
 61133  1  0  0  0
 62134  1  0  0  0
 62135  1  0  0  0
 62136  1  0  0  0
 63 65  1  0  0  0
 63137  1  0  0  0
 63138  1  0  0  0
 63139  1  0  0  0
 64140  1  0  0  0
 65141  1  0  0  0
 68 80  1  0  0  0
 71 72  1  0  0  0
 71 73  2  0  0  0
 71142  1  0  0  0
 72 74  2  0  0  0
 72143  1  0  0  0
 73 82  1  0  0  0
 73 78  1  0  0  0
 74 81  1  0  0  0
 74 82  1  0  0  0
 75 76  1  0  0  0
 75 78  1  0  0  0
 75144  1  0  0  0
 75145  1  0  0  0
 76 79  1  0  0  0
 76146  1  0  0  0
 76147  1  0  0  0
 77 78  1  0  0  0
 77 79  1  0  0  0
 77148  1  0  0  0
 77149  1  0  0  0
 78150  1  0  0  0
 79 80  1  0  0  0
 79151  1  0  0  0
 80152  1  0  0  0
 80153  1  0  0  0
 81154  1  0  0  0
M  ISO  4   1 100  68 101  80 101  81 100
M  END
> <chiral flag>
0

> <version>
0

> <s_m_source_file>
/data/baiqing/PycharmProjects/Reinvent-master-3.2/result/LINK_invent/BTK/process_docking_weight1_custom_product_contain_oxygen_bond_distance_aromatic_linkinvent_7_9_3/rearranged_h_0155.sdf

> <i_m_source_file_index>
93

> <r_mmod_Potential_Energy-OPLS-2005>
191.710372924805

> <r_mmod_Stretch_Energy-OPLS-2005>
93.3689346313477

> <r_mmod_Bend_Energy-OPLS-2005>
192.894012451172

> <r_mmod_Torsional_Energy-OPLS-2005>
281.347961425781

> <r_mmod_Improper_Torsional_Energy-OPLS-2005>
5.92706203460693

> <r_mmod_Van_der_Waal_Energy-OPLS-2005>
106.976135253906

> <r_mmod_Electrostatic_Energy-OPLS-2005>
-366.571929931641

> <r_mmod_Solvation_Energy-OPLS-2005>
-197.049133300781

> <b_mmod_Minimization_Converged-OPLS-2005>
0

> <r_mmod_RMS_Derivative-OPLS-2005>
5.33656024932861

$$$$
93
                    3D
 Structure written by MMmdl.
157166  0  0  1  0            999 V2000
  -30.5807  -14.7756   20.4375 C   0  0  0  0  0  0
  -30.4384  -12.4646   19.4727 C   0  0  0  0  0  0
  -29.5155  -12.4892   18.2358 C   0  0  0  0  0  0
  -28.0433  -12.3039   18.6523 C   0  0  0  0  0  0
  -27.6392  -13.2204   19.8385 C   0  0  2  0  0  0
  -28.6840  -13.1654   20.9746 C   0  0  0  0  0  0
  -25.2528  -13.8171   20.5646 C   0  0  0  0  0  0
  -24.1806  -13.0425   20.9168 C   0  0  0  0  0  0
  -24.6380  -11.6902   20.8727 C   0  0  0  0  0  0
  -23.9053  -10.4284   21.0399 C   0  0  0  0  0  0
  -24.3612   -9.4201   21.9164 C   0  0  0  0  0  0
  -23.6307   -8.2239   22.0735 C   0  0  0  0  0  0
  -22.4283   -8.0262   21.3530 C   0  0  0  0  0  0
  -21.9909   -9.0233   20.4631 C   0  0  0  0  0  0
  -22.7225  -10.2113   20.3047 C   0  0  0  0  0  0
  -21.6852   -6.0727   22.5281 C   0  0  0  0  0  0
  -21.4007   -6.5637   23.8215 C   0  0  0  0  0  0
  -21.3657   -5.6783   24.9178 C   0  0  0  0  0  0
  -21.6047   -4.3049   24.7223 C   0  0  0  0  0  0
  -21.8828   -3.8140   23.4347 C   0  0  0  0  0  0
  -21.9187   -4.6959   22.3406 C   0  0  0  0  0  0
  -22.7834  -13.5215   21.1822 C   0  0  0  0  0  0
  -22.1652   -4.2147   21.0977 F   0  0  0  0  0  0
  -21.5626   -3.4524   25.7725 F   0  0  0  0  0  0
  -29.9792  -13.5339   20.3915 N   0  0  0  0  0  0
  -26.2924  -12.9343   20.3197 N   0  0  0  0  0  0
  -25.9295  -11.6508   20.5725 N   0  0  0  0  0  0
  -22.0480  -12.8249   22.0416 N   0  0  0  0  0  0
  -25.4264  -15.1888   20.4050 N   0  0  0  0  0  0
  -31.7771  -14.8714   20.1435 O   0  0  0  0  0  0
  -21.6641   -6.8867   21.4241 O   0  0  0  0  0  0
  -22.3555  -14.5509   20.6634 O   0  0  0  0  0  0
  -24.6283  -31.8574   23.1976 C   0  0  0  0  0  0
  -25.9110  -32.4764   23.8319 C   0  0  1  0  0  0
  -27.2134  -27.2535   20.1481 C   0  0  0  0  0  0
  -25.5921  -33.8568   24.2255 N   0  0  0  0  0  0
  -23.4279  -30.4777   21.5407 C   0  0  2  0  0  0
  -24.8777  -28.9205   20.1166 C   0  0  0  0  0  0
  -22.7488  -29.4604   22.4909 C   0  0  0  0  0  0
  -18.0280  -28.1382   22.8484 C   0  0  0  0  0  0
  -24.1500  -36.7274   23.2630 C   0  0  0  0  0  0
  -25.9733  -30.7706   21.3786 C   0  0  0  0  0  0
  -26.0496  -29.3909   20.7225 C   0  0  0  0  0  0
  -27.2259  -28.5725   20.7192 C   0  0  0  0  0  0
  -26.0210  -26.8477   19.5171 C   0  0  0  0  0  0
  -24.8679  -27.6586   19.5021 C   0  0  0  0  0  0
  -23.6493  -29.8090   20.1589 C   0  0  0  0  0  0
  -25.4127  -36.3080   24.0325 C   0  0  1  0  0  0
  -20.5881  -28.3693   23.1279 C   0  0  2  0  0  0
  -20.6792  -26.9418   22.5411 C   0  0  0  0  0  0
  -19.5772  -26.6381   21.5217 C   0  0  0  0  0  0
  -18.1945  -26.7926   22.1619 C   0  0  0  0  0  0
  -19.1530  -28.8856   23.2876 C   0  0  0  0  0  0
  -18.9457  -30.1451   23.8908 C   0  0  0  0  0  0
  -17.6464  -30.6595   24.0554 C   0  0  0  0  0  0
  -25.9067  -34.9447   23.5093 C   0  0  0  0  0  0
  -16.5347  -29.9092   23.6319 C   0  0  0  0  0  0
  -16.7275  -28.6493   23.0360 C   0  0  0  0  0  0
  -26.4485  -31.6578   25.0702 C   0  0  0  0  0  0
  -25.3671  -31.3754   26.1394 C   0  0  0  0  0  0
  -27.0320  -30.2990   24.6194 C   0  0  0  0  0  0
  -27.6093  -32.4265   25.7448 C   0  0  0  0  0  0
  -27.5593  -37.1781   24.8453 C   0  0  0  0  0  0
  -21.4193  -29.3041   22.3656 N   0  0  0  0  0  0
  -26.4300  -37.3782   23.9409 N   0  0  0  0  0  0
  -24.6955  -31.0521   22.0957 N   0  0  0  0  0  0
  -23.4193  -28.8142   23.2999 O   0  0  0  0  0  0
  -28.3047  -26.3569   20.1513 O   0  0  0  0  0  0
  -26.5641  -34.8919   22.4664 O   0  0  0  0  0  0
  -23.5432  -32.1405   23.7251 O   0  0  0  0  0  0
  -30.9952  -19.3341   20.4613 C   0  0  0  0  0  0
  -31.2202  -17.9172   20.5969 C   0  0  0  0  0  0
  -29.6485  -19.5957   20.3359 C   0  0  0  0  0  0
  -30.0055  -17.2904   20.5210 C   0  0  0  0  0  0
  -31.0078  -23.4931   20.5892 C   0  0  0  0  0  0
  -30.1159  -23.8984   19.4087 C   0  0  0  0  0  0
  -30.1647  -22.5220   21.4398 C   0  0  0  0  0  0
  -28.6971  -23.6140   19.9050 C   0  0  2  0  0  0
  -28.8324  -20.9252   19.9555 C   0  0  0  0  0  0
  -28.1332  -24.9485   20.6786 C   0  0  0  0  0  0
  -29.7613  -15.9002   20.5905 N   0  0  0  0  0  0
  -28.9024  -22.2930   20.7035 N   0  3  1  0  0  0
  -29.0286  -18.3122   20.3717 O   0  0  0  0  0  0
  -31.4787  -12.5976   19.1683 H   0  0  0  0  0  0
  -30.3921  -11.4912   19.9645 H   0  0  0  0  0  0
  -29.8089  -11.7054   17.5352 H   0  0  0  0  0  0
  -29.6323  -13.4358   17.7085 H   0  0  0  0  0  0
  -27.9181  -11.2586   18.9408 H   0  0  0  0  0  0
  -27.3803  -12.4546   17.7979 H   0  0  0  0  0  0
  -27.6302  -14.2351   19.4440 H   0  0  0  0  0  0
  -28.7311  -12.1638   21.4016 H   0  0  0  0  0  0
  -28.4141  -13.8350   21.7924 H   0  0  0  0  0  0
  -25.2760   -9.5678   22.4742 H   0  0  0  0  0  0
  -23.9992   -7.4641   22.7479 H   0  0  0  0  0  0
  -21.0817   -8.8758   19.8983 H   0  0  0  0  0  0
  -22.3667  -10.9642   19.6173 H   0  0  0  0  0  0
  -21.2004   -7.6145   23.9720 H   0  0  0  0  0  0
  -21.1465   -6.0509   25.9082 H   0  0  0  0  0  0
  -22.0611   -2.7602   23.2846 H   0  0  0  0  0  0
  -22.4054  -11.9918   22.4854 H   0  0  0  0  0  0
  -21.1094  -13.1299   22.2567 H   0  0  0  0  0  0
  -24.6633  -15.8463   20.5222 H   0  0  0  0  0  0
  -26.2657  -15.6225   20.0418 H   0  0  0  0  0  0
  -26.7162  -32.5443   23.1053 H   0  0  0  0  0  0
  -25.0038  -33.9709   25.0378 H   0  0  0  0  0  0
  -22.7234  -31.2986   21.3908 H   0  0  0  0  0  0
  -23.3794  -35.9574   23.3270 H   0  0  0  0  0  0
  -24.3602  -36.8917   22.2050 H   0  0  0  0  0  0
  -23.7216  -37.6452   23.6665 H   0  0  0  0  0  0
  -26.1064  -31.5344   20.6113 H   0  0  0  0  0  0
  -26.8512  -30.8244   22.0105 H   0  0  0  0  0  0
  -28.1276  -28.9320   21.1961 H   0  0  0  0  0  0
  -25.9733  -25.8787   19.0410 H   0  0  0  0  0  0
  -23.9690  -27.2946   19.0239 H   0  0  0  0  0  0
  -23.7750  -30.5847   19.4020 H   0  0  0  0  0  0
  -22.7706  -29.2400   19.8514 H   0  0  0  0  0  0
  -25.1311  -36.1933   25.0821 H   0  0  0  0  0  0
  -20.9969  -28.3280   24.1403 H   0  0  0  0  0  0
  -20.5715  -26.2303   23.3609 H   0  0  0  0  0  0
  -21.6661  -26.7481   22.1190 H   0  0  0  0  0  0
  -19.6951  -25.6289   21.1256 H   0  0  0  0  0  0
  -19.6717  -27.3186   20.6745 H   0  0  0  0  0  0
  -17.4223  -26.6656   21.4016 H   0  0  0  0  0  0
  -18.0350  -26.0073   22.9015 H   0  0  0  0  0  0
  -19.7937  -30.7246   24.2305 H   0  0  0  0  0  0
  -17.5024  -31.6282   24.5127 H   0  0  0  0  0  0
  -15.5355  -30.3005   23.7642 H   0  0  0  0  0  0
  -15.8663  -28.0814   22.7102 H   0  0  0  0  0  0
  -24.5874  -30.7089   25.7686 H   0  0  0  0  0  0
  -24.8811  -32.2929   26.4727 H   0  0  0  0  0  0
  -25.7921  -30.8972   27.0222 H   0  0  0  0  0  0
  -26.2909  -29.6732   24.1207 H   0  0  0  0  0  0
  -27.3985  -29.7265   25.4722 H   0  0  0  0  0  0
  -27.8797  -30.4258   23.9457 H   0  0  0  0  0  0
  -27.2788  -33.3578   26.2052 H   0  0  0  0  0  0
  -28.3887  -32.6775   25.0240 H   0  0  0  0  0  0
  -28.0778  -31.8343   26.5317 H   0  0  0  0  0  0
  -28.2592  -38.0097   24.7556 H   0  0  0  0  0  0
  -28.1106  -36.2635   24.6222 H   0  0  0  0  0  0
  -27.2302  -37.1359   25.8847 H   0  0  0  0  0  0
  -20.9374  -29.8727   21.6832 H   0  0  0  0  0  0
  -26.0185  -38.2848   24.1456 H   0  0  0  0  0  0
  -31.7705  -20.0870   20.4170 H   0  0  0  0  0  0
  -32.1763  -17.4230   20.7031 H   0  0  0  0  0  0
  -31.2747  -24.3695   21.1827 H   0  0  0  0  0  0
  -31.9371  -23.0403   20.2451 H   0  0  0  0  0  0
  -30.3318  -23.2662   18.5449 H   0  0  0  0  0  0
  -30.2667  -24.9327   19.0957 H   0  0  0  0  0  0
  -29.8952  -23.0123   22.3767 H   0  0  0  0  0  0
  -30.6961  -21.6225   21.7404 H   0  0  0  0  0  0
  -28.0352  -23.4280   19.0587 H   0  0  0  0  0  0
  -27.7730  -20.6706   19.9095 H   0  0  0  0  0  0
  -29.0875  -21.1469   18.9191 H   0  0  0  0  0  0
  -28.6434  -24.9975   21.6409 H   0  0  0  0  0  0
  -27.0904  -24.7787   20.9489 H   0  0  0  0  0  0
  -28.7928  -15.6609   20.7304 H   0  0  0  0  0  0
  -28.1743  -22.2218   21.3998 H   0  0  0  0  0  0
  1 25  1  0  0  0
  1 30  2  0  0  0
  1 81  1  0  0  0
  2  3  1  0  0  0
  2 25  1  0  0  0
  2 84  1  0  0  0
  2 85  1  0  0  0
  3  4  1  0  0  0
  3 86  1  0  0  0
  3 87  1  0  0  0
  4  5  1  0  0  0
  4 88  1  0  0  0
  4 89  1  0  0  0
  5  6  1  0  0  0
  5 26  1  0  0  0
  5 90  1  0  0  0
  6 25  1  0  0  0
  6 91  1  0  0  0
  6 92  1  0  0  0
  7  8  2  0  0  0
  7 26  1  0  0  0
  7 29  1  0  0  0
  8  9  1  0  0  0
  8 22  1  0  0  0
  9 10  1  0  0  0
  9 27  2  0  0  0
 10 11  2  0  0  0
 10 15  1  0  0  0
 11 12  1  0  0  0
 11 93  1  0  0  0
 12 13  2  0  0  0
 12 94  1  0  0  0
 13 14  1  0  0  0
 13 31  1  0  0  0
 14 15  2  0  0  0
 14 95  1  0  0  0
 15 96  1  0  0  0
 16 17  2  0  0  0
 16 21  1  0  0  0
 16 31  1  0  0  0
 17 18  1  0  0  0
 17 97  1  0  0  0
 18 19  2  0  0  0
 18 98  1  0  0  0
 19 20  1  0  0  0
 19 24  1  0  0  0
 20 21  2  0  0  0
 20 99  1  0  0  0
 21 23  1  0  0  0
 22 28  1  0  0  0
 22 32  2  0  0  0
 26 27  1  0  0  0
 28100  1  0  0  0
 28101  1  0  0  0
 29102  1  0  0  0
 29103  1  0  0  0
 33 34  1  0  0  0
 33 66  1  0  0  0
 33 70  2  0  0  0
 34 36  1  0  0  0
 34 59  1  0  0  0
 34104  1  0  0  0
 35 44  2  0  0  0
 35 45  1  0  0  0
 35 68  1  0  0  0
 36 56  1  0  0  0
 36105  1  0  0  0
 37 39  1  0  0  0
 37 47  1  0  0  0
 37 66  1  0  0  0
 37106  1  0  0  0
 38 43  2  0  0  0
 38 46  1  0  0  0
 38 47  1  0  0  0
 39 64  1  0  0  0
 39 67  2  0  0  0
 40 52  1  0  0  0
 40 53  2  0  0  0
 40 58  1  0  0  0
 41107  1  0  0  0
 41108  1  0  0  0
 41109  1  0  0  0
 41 48  1  0  0  0
 42 43  1  0  0  0
 42 66  1  0  0  0
 42110  1  0  0  0
 42111  1  0  0  0
 43 44  1  0  0  0
 44112  1  0  0  0
 45 46  2  0  0  0
 45113  1  0  0  0
 46114  1  0  0  0
 47115  1  0  0  0
 47116  1  0  0  0
 48 56  1  0  0  0
 48 65  1  0  0  0
 48117  1  0  0  0
 49 50  1  0  0  0
 49 53  1  0  0  0
 49 64  1  0  0  0
 49118  1  0  0  0
 50 51  1  0  0  0
 50119  1  0  0  0
 50120  1  0  0  0
 51 52  1  0  0  0
 51121  1  0  0  0
 51122  1  0  0  0
 52123  1  0  0  0
 52124  1  0  0  0
 53 54  1  0  0  0
 54 55  2  0  0  0
 54125  1  0  0  0
 55 57  1  0  0  0
 55126  1  0  0  0
 56 69  2  0  0  0
 57 58  2  0  0  0
 57127  1  0  0  0
 58128  1  0  0  0
 59 60  1  0  0  0
 59 61  1  0  0  0
 59 62  1  0  0  0
 60129  1  0  0  0
 60130  1  0  0  0
 60131  1  0  0  0
 61132  1  0  0  0
 61133  1  0  0  0
 61134  1  0  0  0
 62135  1  0  0  0
 62136  1  0  0  0
 62137  1  0  0  0
 63 65  1  0  0  0
 63138  1  0  0  0
 63139  1  0  0  0
 63140  1  0  0  0
 64141  1  0  0  0
 65142  1  0  0  0
 68 80  1  0  0  0
 71 72  1  0  0  0
 71 73  2  0  0  0
 71143  1  0  0  0
 72 74  2  0  0  0
 72144  1  0  0  0
 73 79  1  0  0  0
 73 83  1  0  0  0
 74 81  1  0  0  0
 74 83  1  0  0  0
 75 76  1  0  0  0
 75 77  1  0  0  0
 75145  1  0  0  0
 75146  1  0  0  0
 76 78  1  0  0  0
 76147  1  0  0  0
 76148  1  0  0  0
 77 82  1  0  0  0
 77149  1  0  0  0
 77150  1  0  0  0
 78 80  1  0  0  0
 78 82  1  0  0  0
 78151  1  0  0  0
 79152  1  0  0  0
 79153  1  0  0  0
 79 82  1  0  0  0
 80154  1  0  0  0
 80155  1  0  0  0
 81156  1  0  0  0
 82157  1  0  0  0
M  CHG  1  82   1
M  ISO  4   1 100  68 101  80 101  81 100
M  END
> <chiral flag>
0

> <version>
0

> <s_m_source_file>
/data/baiqing/PycharmProjects/Reinvent-master-3.2/result/LINK_invent/BTK/process_docking_weight1_custom_product_contain_oxygen_bond_distance_aromatic_linkinvent_7_9_3/rearranged_h_0155.sdf

> <i_m_source_file_index>
94

> <r_mmod_Potential_Energy-OPLS-2005>
192.675201416016

> <r_mmod_Stretch_Energy-OPLS-2005>
142.95539855957

> <r_mmod_Bend_Energy-OPLS-2005>
220.765350341797

> <r_mmod_Torsional_Energy-OPLS-2005>
307.430297851562

> <r_mmod_Improper_Torsional_Energy-OPLS-2005>
6.14042377471924

> <r_mmod_Van_der_Waal_Energy-OPLS-2005>
115.430885314941

> <r_mmod_Electrostatic_Energy-OPLS-2005>
-255.871353149414

> <r_mmod_Solvation_Energy-OPLS-2005>
-438.485717773438

> <b_mmod_Minimization_Converged-OPLS-2005>
0

> <r_mmod_RMS_Derivative-OPLS-2005>
3.12597131729126

$$$$
94
                    3D
 Structure written by MMmdl.
158167  0  0  1  0            999 V2000
  -30.6291  -14.8215   20.4279 C   0  0  0  0  0  0
  -30.4216  -12.5024   19.4894 C   0  0  0  0  0  0
  -29.5088  -12.5079   18.2450 C   0  0  0  0  0  0
  -28.0388  -12.3225   18.6617 C   0  0  0  0  0  0
  -27.6325  -13.2461   19.8412 C   0  0  2  0  0  0
  -28.6776  -13.2473   20.9780 C   0  0  0  0  0  0
  -25.2470  -13.8227   20.5716 C   0  0  0  0  0  0
  -24.1782  -13.0448   20.9227 C   0  0  0  0  0  0
  -24.6396  -11.6933   20.8760 C   0  0  0  0  0  0
  -23.9081  -10.4299   21.0410 C   0  0  0  0  0  0
  -24.3628   -9.4211   21.9186 C   0  0  0  0  0  0
  -23.6300   -8.2247   22.0755 C   0  0  0  0  0  0
  -22.4282   -8.0285   21.3545 C   0  0  0  0  0  0
  -21.9921   -9.0260   20.4647 C   0  0  0  0  0  0
  -22.7253  -10.2138   20.3058 C   0  0  0  0  0  0
  -21.6856   -6.0739   22.5279 C   0  0  0  0  0  0
  -21.4017   -6.5642   23.8212 C   0  0  0  0  0  0
  -21.3659   -5.6794   24.9174 C   0  0  0  0  0  0
  -21.6044   -4.3057   24.7224 C   0  0  0  0  0  0
  -21.8819   -3.8149   23.4345 C   0  0  0  0  0  0
  -21.9193   -4.6965   22.3402 C   0  0  0  0  0  0
  -22.7800  -13.5215   21.1878 C   0  0  0  0  0  0
  -22.1662   -4.2151   21.0979 F   0  0  0  0  0  0
  -21.5627   -3.4539   25.7736 F   0  0  0  0  0  0
  -29.9685  -13.6049   20.3796 N   0  0  0  0  0  0
  -26.2900  -12.9460   20.3271 N   0  0  0  0  0  0
  -25.9330  -11.6588   20.5760 N   0  0  0  0  0  0
  -22.0453  -12.8200   22.0433 N   0  0  0  0  0  0
  -25.4137  -15.1955   20.4132 N   0  0  0  0  0  0
  -31.8334  -14.8043   20.1691 O   0  0  0  0  0  0
  -21.6645   -6.8883   21.4241 O   0  0  0  0  0  0
  -22.3481  -14.5517   20.6722 O   0  0  0  0  0  0
  -24.6367  -31.8512   23.1960 C   0  0  0  0  0  0
  -25.9170  -32.4733   23.8321 C   0  0  1  0  0  0
  -27.2075  -27.2070   20.1440 C   0  0  0  0  0  0
  -25.5947  -33.8538   24.2237 N   0  0  0  0  0  0
  -23.4364  -30.4745   21.5399 C   0  0  2  0  0  0
  -24.8850  -28.9180   20.1088 C   0  0  0  0  0  0
  -22.7533  -29.4583   22.4884 C   0  0  0  0  0  0
  -18.0298  -28.1392   22.8483 C   0  0  0  0  0  0
  -24.1490  -36.7271   23.2641 C   0  0  0  0  0  0
  -25.9883  -30.7469   21.3865 C   0  0  0  0  0  0
  -26.0598  -29.3654   20.7282 C   0  0  0  0  0  0
  -27.2269  -28.5236   20.7341 C   0  0  0  0  0  0
  -26.0188  -26.8566   19.4684 C   0  0  0  0  0  0
  -24.8730  -27.6738   19.4640 C   0  0  0  0  0  0
  -23.6586  -29.8110   20.1560 C   0  0  0  0  0  0
  -25.4119  -36.3055   24.0323 C   0  0  1  0  0  0
  -20.5907  -28.3709   23.1250 C   0  0  2  0  0  0
  -20.6785  -26.9419   22.5405 C   0  0  0  0  0  0
  -19.5759  -26.6383   21.5212 C   0  0  0  0  0  0
  -18.1939  -26.7934   22.1625 C   0  0  0  0  0  0
  -19.1554  -28.8868   23.2861 C   0  0  0  0  0  0
  -18.9473  -30.1467   23.8882 C   0  0  0  0  0  0
  -17.6470  -30.6591   24.0560 C   0  0  0  0  0  0
  -25.9063  -34.9428   23.5083 C   0  0  0  0  0  0
  -16.5361  -29.9085   23.6334 C   0  0  0  0  0  0
  -16.7283  -28.6503   23.0355 C   0  0  0  0  0  0
  -26.4517  -31.6576   25.0731 C   0  0  0  0  0  0
  -25.3720  -31.3746   26.1436 C   0  0  0  0  0  0
  -27.0375  -30.2982   24.6265 C   0  0  0  0  0  0
  -27.6058  -32.4331   25.7509 C   0  0  0  0  0  0
  -27.5576  -37.1792   24.8466 C   0  0  0  0  0  0
  -21.4232  -29.3047   22.3630 N   0  0  0  0  0  0
  -26.4288  -37.3760   23.9408 N   0  0  0  0  0  0
  -24.7064  -31.0434   22.0963 N   0  0  0  0  0  0
  -23.4209  -28.8117   23.2997 O   0  0  0  0  0  0
  -28.2463  -26.2313   20.1967 O   0  0  0  0  0  0
  -26.5638  -34.8912   22.4653 O   0  0  0  0  0  0
  -23.5503  -32.1357   23.7220 O   0  0  0  0  0  0
  -31.3247  -20.1821   19.9742 C   0  0  0  0  0  0
  -29.5110  -18.7075   20.5391 C   0  0  0  0  0  0
  -31.6719  -17.7617   19.9624 C   0  0  0  0  0  0
  -29.9694  -20.1072   20.3682 C   0  0  0  0  0  0
  -32.1523  -19.0664   19.7668 C   0  0  0  0  0  0
  -30.3409  -17.4907   20.3660 C   0  0  0  0  0  0
  -29.7485  -22.8315   20.8891 C   0  0  0  0  0  0
  -28.6325  -23.4471   20.4209 C   0  0  0  0  0  0
  -30.8695  -23.4586   21.6192 C   0  0  0  0  0  0
  -28.0941  -22.0305   20.0519 C   0  0  0  0  0  0
  -30.9144  -24.9741   21.7690 C   0  0  0  0  0  0
  -27.8564  -24.8410   20.6947 C   0  0  0  0  0  0
  -29.3890  -21.4917   20.5455 N   0  0  0  0  0  0
  -33.4766  -19.2590   19.3675 N   0  0  0  0  0  0
  -29.9213  -16.0383   20.5607 N   0  0  0  0  0  0
  -31.7835  -22.7929   22.1124 O   0  0  0  0  0  0
  -31.4635  -12.6084   19.1828 H   0  0  0  0  0  0
  -30.3639  -11.5440   20.0081 H   0  0  0  0  0  0
  -29.8045  -11.7174   17.5539 H   0  0  0  0  0  0
  -29.6248  -13.4488   17.7046 H   0  0  0  0  0  0
  -27.9117  -11.2787   18.9508 H   0  0  0  0  0  0
  -27.3786  -12.4836   17.8088 H   0  0  0  0  0  0
  -27.6068  -14.2548   19.4281 H   0  0  0  0  0  0
  -28.7321  -12.2719   21.4637 H   0  0  0  0  0  0
  -28.4022  -13.9646   21.7528 H   0  0  0  0  0  0
  -25.2771   -9.5686   22.4764 H   0  0  0  0  0  0
  -24.0007   -7.4637   22.7475 H   0  0  0  0  0  0
  -21.0852   -8.8781   19.8951 H   0  0  0  0  0  0
  -22.3711  -10.9677   19.6168 H   0  0  0  0  0  0
  -21.2012   -7.6151   23.9717 H   0  0  0  0  0  0
  -21.1481   -6.0524   25.9077 H   0  0  0  0  0  0
  -22.0598   -2.7611   23.2845 H   0  0  0  0  0  0
  -22.4079  -11.9866   22.4820 H   0  0  0  0  0  0
  -21.1067  -13.1212   22.2639 H   0  0  0  0  0  0
  -24.6432  -15.8460   20.5216 H   0  0  0  0  0  0
  -26.2564  -15.6363   20.0677 H   0  0  0  0  0  0
  -26.7233  -32.5363   23.1055 H   0  0  0  0  0  0
  -25.0088  -33.9673   25.0380 H   0  0  0  0  0  0
  -22.7352  -31.2984   21.3921 H   0  0  0  0  0  0
  -23.3757  -35.9598   23.3298 H   0  0  0  0  0  0
  -24.3579  -36.8901   22.2056 H   0  0  0  0  0  0
  -23.7240  -37.6468   23.6673 H   0  0  0  0  0  0
  -26.1369  -31.5052   20.6165 H   0  0  0  0  0  0
  -26.8620  -30.7945   22.0247 H   0  0  0  0  0  0
  -28.1213  -28.8566   21.2418 H   0  0  0  0  0  0
  -25.9532  -25.9133   18.9464 H   0  0  0  0  0  0
  -23.9799  -27.3319   18.9591 H   0  0  0  0  0  0
  -23.7889  -30.5886   19.4025 H   0  0  0  0  0  0
  -22.7752  -29.2495   19.8463 H   0  0  0  0  0  0
  -25.1304  -36.1894   25.0815 H   0  0  0  0  0  0
  -21.0002  -28.3291   24.1370 H   0  0  0  0  0  0
  -20.5684  -26.2319   23.3616 H   0  0  0  0  0  0
  -21.6651  -26.7434   22.1198 H   0  0  0  0  0  0
  -19.6919  -25.6290   21.1249 H   0  0  0  0  0  0
  -19.6697  -27.3187   20.6736 H   0  0  0  0  0  0
  -17.4209  -26.6678   21.4027 H   0  0  0  0  0  0
  -18.0338  -26.0082   22.9026 H   0  0  0  0  0  0
  -19.7947  -30.7288   24.2247 H   0  0  0  0  0  0
  -17.5023  -31.6270   24.5164 H   0  0  0  0  0  0
  -15.5360  -30.2981   23.7671 H   0  0  0  0  0  0
  -15.8682  -28.0816   22.7081 H   0  0  0  0  0  0
  -24.5907  -30.7083   25.7761 H   0  0  0  0  0  0
  -24.8902  -32.2924   26.4818 H   0  0  0  0  0  0
  -25.8022  -30.8953   27.0238 H   0  0  0  0  0  0
  -26.2981  -29.6716   24.1268 H   0  0  0  0  0  0
  -27.4007  -29.7264   25.4815 H   0  0  0  0  0  0
  -27.8879  -30.4240   23.9561 H   0  0  0  0  0  0
  -27.2658  -33.3646   26.2050 H   0  0  0  0  0  0
  -28.3890  -32.6868   25.0350 H   0  0  0  0  0  0
  -28.0705  -31.8480   26.5457 H   0  0  0  0  0  0
  -28.2591  -38.0091   24.7511 H   0  0  0  0  0  0
  -28.1076  -36.2623   24.6295 H   0  0  0  0  0  0
  -27.2295  -37.1439   25.8869 H   0  0  0  0  0  0
  -20.9426  -29.8772   21.6830 H   0  0  0  0  0  0
  -26.0161  -38.2830   24.1413 H   0  0  0  0  0  0
  -31.7601  -21.1592   19.8186 H   0  0  0  0  0  0
  -28.4852  -18.5666   20.8480 H   0  0  0  0  0  0
  -32.3816  -16.9734   19.7851 H   0  0  0  0  0  0
  -27.9299  -21.8230   18.9933 H   0  0  0  0  0  0
  -27.2590  -21.6439   20.6384 H   0  0  0  0  0  0
  -30.7666  -25.4546   20.8023 H   0  0  0  0  0  0
  -31.8782  -25.2924   22.1653 H   0  0  0  0  0  0
  -30.1341  -25.3103   22.4506 H   0  0  0  0  0  0
  -27.7764  -24.9248   21.7788 H   0  0  0  0  0  0
  -26.8398  -24.6126   20.3833 H   0  0  0  0  0  0
  -33.7583  -20.1576   18.9867 H   0  0  0  0  0  0
  -34.0007  -18.4796   18.9803 H   0  0  0  0  0  0
  -28.9434  -15.9057   20.7703 H   0  0  0  0  0  0
  1 25  1  0  0  0
  1 30  2  0  0  0
  1 85  1  0  0  0
  2  3  1  0  0  0
  2 25  1  0  0  0
  2 87  1  0  0  0
  2 88  1  0  0  0
  3  4  1  0  0  0
  3 89  1  0  0  0
  3 90  1  0  0  0
  4  5  1  0  0  0
  4 91  1  0  0  0
  4 92  1  0  0  0
  5  6  1  0  0  0
  5 26  1  0  0  0
  5 93  1  0  0  0
  6 25  1  0  0  0
  6 94  1  0  0  0
  6 95  1  0  0  0
  7  8  2  0  0  0
  7 26  1  0  0  0
  7 29  1  0  0  0
  8  9  1  0  0  0
  8 22  1  0  0  0
  9 10  1  0  0  0
  9 27  2  0  0  0
 10 11  2  0  0  0
 10 15  1  0  0  0
 11 12  1  0  0  0
 11 96  1  0  0  0
 12 13  2  0  0  0
 12 97  1  0  0  0
 13 14  1  0  0  0
 13 31  1  0  0  0
 14 15  2  0  0  0
 14 98  1  0  0  0
 15 99  1  0  0  0
 16 17  2  0  0  0
 16 21  1  0  0  0
 16 31  1  0  0  0
 17 18  1  0  0  0
 17100  1  0  0  0
 18 19  2  0  0  0
 18101  1  0  0  0
 19 20  1  0  0  0
 19 24  1  0  0  0
 20 21  2  0  0  0
 20102  1  0  0  0
 21 23  1  0  0  0
 22 28  1  0  0  0
 22 32  2  0  0  0
 26 27  1  0  0  0
 28103  1  0  0  0
 28104  1  0  0  0
 29105  1  0  0  0
 29106  1  0  0  0
 33 34  1  0  0  0
 33 66  1  0  0  0
 33 70  2  0  0  0
 34 36  1  0  0  0
 34 59  1  0  0  0
 34107  1  0  0  0
 35 44  2  0  0  0
 35 45  1  0  0  0
 35 68  1  0  0  0
 36 56  1  0  0  0
 36108  1  0  0  0
 37 39  1  0  0  0
 37 47  1  0  0  0
 37 66  1  0  0  0
 37109  1  0  0  0
 38 43  2  0  0  0
 38 46  1  0  0  0
 38 47  1  0  0  0
 39 64  1  0  0  0
 39 67  2  0  0  0
 40 52  1  0  0  0
 40 53  2  0  0  0
 40 58  1  0  0  0
 41110  1  0  0  0
 41111  1  0  0  0
 41112  1  0  0  0
 41 48  1  0  0  0
 42 43  1  0  0  0
 42 66  1  0  0  0
 42113  1  0  0  0
 42114  1  0  0  0
 43 44  1  0  0  0
 44115  1  0  0  0
 45 46  2  0  0  0
 45116  1  0  0  0
 46117  1  0  0  0
 47118  1  0  0  0
 47119  1  0  0  0
 48 56  1  0  0  0
 48 65  1  0  0  0
 48120  1  0  0  0
 49 50  1  0  0  0
 49 53  1  0  0  0
 49 64  1  0  0  0
 49121  1  0  0  0
 50 51  1  0  0  0
 50122  1  0  0  0
 50123  1  0  0  0
 51 52  1  0  0  0
 51124  1  0  0  0
 51125  1  0  0  0
 52126  1  0  0  0
 52127  1  0  0  0
 53 54  1  0  0  0
 54 55  2  0  0  0
 54128  1  0  0  0
 55 57  1  0  0  0
 55129  1  0  0  0
 56 69  2  0  0  0
 57 58  2  0  0  0
 57130  1  0  0  0
 58131  1  0  0  0
 59 60  1  0  0  0
 59 61  1  0  0  0
 59 62  1  0  0  0
 60132  1  0  0  0
 60133  1  0  0  0
 60134  1  0  0  0
 61135  1  0  0  0
 61136  1  0  0  0
 61137  1  0  0  0
 62138  1  0  0  0
 62139  1  0  0  0
 62140  1  0  0  0
 63 65  1  0  0  0
 63141  1  0  0  0
 63142  1  0  0  0
 63143  1  0  0  0
 64144  1  0  0  0
 65145  1  0  0  0
 68 82  1  0  0  0
 71 74  2  0  0  0
 71 75  1  0  0  0
 71146  1  0  0  0
 72 74  1  0  0  0
 72 76  2  0  0  0
 72147  1  0  0  0
 73 75  2  0  0  0
 73 76  1  0  0  0
 73148  1  0  0  0
 74 83  1  0  0  0
 75 84  1  0  0  0
 76 85  1  0  0  0
 77 78  2  0  0  0
 77 79  1  0  0  0
 77 83  1  0  0  0
 78 80  1  0  0  0
 78 82  1  0  0  0
 79 81  1  0  0  0
 79 86  2  0  0  0
 80 83  1  0  0  0
 80149  1  0  0  0
 80150  1  0  0  0
 81151  1  0  0  0
 81152  1  0  0  0
 81153  1  0  0  0
 82154  1  0  0  0
 82155  1  0  0  0
 84156  1  0  0  0
 84157  1  0  0  0
 85158  1  0  0  0
M  ISO  4   1 100  68 101  82 101  85 100
M  END
> <chiral flag>
0

> <version>
0

> <s_m_source_file>
/data/baiqing/PycharmProjects/Reinvent-master-3.2/result/LINK_invent/BTK/process_docking_weight1_custom_product_contain_oxygen_bond_distance_aromatic_linkinvent_7_9_3/rearranged_h_0155.sdf

> <i_m_source_file_index>
95

> <r_mmod_Potential_Energy-OPLS-2005>
451.080718994141

> <r_mmod_Stretch_Energy-OPLS-2005>
174.764144897461

> <r_mmod_Bend_Energy-OPLS-2005>
282.712921142578

> <r_mmod_Torsional_Energy-OPLS-2005>
264.528533935547

> <r_mmod_Improper_Torsional_Energy-OPLS-2005>
10.2361268997192

> <r_mmod_Van_der_Waal_Energy-OPLS-2005>
140.681900024414

> <r_mmod_Electrostatic_Energy-OPLS-2005>
-310.990478515625

> <r_mmod_Solvation_Energy-OPLS-2005>
-239.330535888672

> <b_mmod_Minimization_Converged-OPLS-2005>
0

> <r_mmod_RMS_Derivative-OPLS-2005>
0.372416853904724

$$$$
95
                    3D
 Structure written by MMmdl.
161170  0  0  1  0            999 V2000
  -30.6235  -14.6597   20.4864 C   0  0  0  0  0  0
  -30.4354  -12.4034   19.4642 C   0  0  0  0  0  0
  -29.5111  -12.5125   18.2305 C   0  0  0  0  0  0
  -28.0341  -12.3517   18.6403 C   0  0  0  0  0  0
  -27.6527  -13.2234   19.8659 C   0  0  2  0  0  0
  -28.6955  -13.0952   21.0006 C   0  0  0  0  0  0
  -25.2548  -13.8183   20.5688 C   0  0  0  0  0  0
  -24.1808  -13.0445   20.9176 C   0  0  0  0  0  0
  -24.6383  -11.6919   20.8717 C   0  0  0  0  0  0
  -23.9063  -10.4290   21.0396 C   0  0  0  0  0  0
  -24.3614   -9.4209   21.9179 C   0  0  0  0  0  0
  -23.6281   -8.2245   22.0747 C   0  0  0  0  0  0
  -22.4258   -8.0283   21.3543 C   0  0  0  0  0  0
  -21.9899   -9.0259   20.4652 C   0  0  0  0  0  0
  -22.7231  -10.2139   20.3053 C   0  0  0  0  0  0
  -21.6858   -6.0732   22.5269 C   0  0  0  0  0  0
  -21.4017   -6.5628   23.8206 C   0  0  0  0  0  0
  -21.3662   -5.6781   24.9161 C   0  0  0  0  0  0
  -21.6045   -4.3044   24.7215 C   0  0  0  0  0  0
  -21.8821   -3.8142   23.4334 C   0  0  0  0  0  0
  -21.9191   -4.6958   22.3394 C   0  0  0  0  0  0
  -22.7834  -13.5231   21.1833 C   0  0  0  0  0  0
  -22.1659   -4.2151   21.0969 F   0  0  0  0  0  0
  -21.5638   -3.4527   25.7729 F   0  0  0  0  0  0
  -30.0118  -13.4322   20.4396 N   0  0  0  0  0  0
  -26.2986  -12.9381   20.3329 N   0  0  0  0  0  0
  -25.9320  -11.6529   20.5735 N   0  0  0  0  0  0
  -22.0467  -12.8234   22.0397 N   0  0  0  0  0  0
  -25.4287  -15.1898   20.4107 N   0  0  0  0  0  0
  -31.7723  -14.8145   20.0610 O   0  0  0  0  0  0
  -21.6628   -6.8872   21.4235 O   0  0  0  0  0  0
  -22.3528  -14.5560   20.6704 O   0  0  0  0  0  0
  -24.6260  -31.8591   23.2021 C   0  0  0  0  0  0
  -25.9107  -32.4775   23.8354 C   0  0  1  0  0  0
  -27.2189  -27.3119   20.1216 C   0  0  0  0  0  0
  -25.5922  -33.8575   24.2290 N   0  0  0  0  0  0
  -23.4200  -30.4827   21.5451 C   0  0  2  0  0  0
  -24.8675  -28.9407   20.1059 C   0  0  0  0  0  0
  -22.7471  -29.4612   22.4937 C   0  0  0  0  0  0
  -18.0282  -28.1382   22.8489 C   0  0  0  0  0  0
  -24.1491  -36.7291   23.2636 C   0  0  0  0  0  0
  -25.9617  -30.7896   21.3739 C   0  0  0  0  0  0
  -26.0359  -29.4171   20.7138 C   0  0  0  0  0  0
  -27.2156  -28.6144   20.7100 C   0  0  0  0  0  0
  -26.0378  -26.9034   19.4623 C   0  0  0  0  0  0
  -24.8716  -27.6916   19.4670 C   0  0  0  0  0  0
  -23.6347  -29.8199   20.1592 C   0  0  0  0  0  0
  -25.4112  -36.3086   24.0334 C   0  0  1  0  0  0
  -20.5882  -28.3686   23.1291 C   0  0  2  0  0  0
  -20.6773  -26.9409   22.5419 C   0  0  0  0  0  0
  -19.5750  -26.6382   21.5217 C   0  0  0  0  0  0
  -18.1926  -26.7928   22.1624 C   0  0  0  0  0  0
  -19.1537  -28.8852   23.2885 C   0  0  0  0  0  0
  -18.9456  -30.1454   23.8898 C   0  0  0  0  0  0
  -17.6457  -30.6586   24.0557 C   0  0  0  0  0  0
  -25.9044  -34.9449   23.5110 C   0  0  0  0  0  0
  -16.5350  -29.9079   23.6327 C   0  0  0  0  0  0
  -16.7270  -28.6498   23.0348 C   0  0  0  0  0  0
  -26.4499  -31.6577   25.0717 C   0  0  0  0  0  0
  -25.3739  -31.3705   26.1451 C   0  0  0  0  0  0
  -27.0322  -30.2993   24.6159 C   0  0  0  0  0  0
  -27.6066  -32.4304   25.7481 C   0  0  0  0  0  0
  -27.5589  -37.1794   24.8460 C   0  0  0  0  0  0
  -21.4188  -29.3033   22.3675 N   0  0  0  0  0  0
  -26.4293  -37.3783   23.9414 N   0  0  0  0  0  0
  -24.6881  -31.0608   22.0969 N   0  0  0  0  0  0
  -23.4204  -28.8139   23.2998 O   0  0  0  0  0  0
  -28.3235  -26.4420   20.2010 O   0  0  0  0  0  0
  -26.5610  -34.8917   22.4675 O   0  0  0  0  0  0
  -23.5423  -32.1384   23.7343 O   0  0  0  0  0  0
  -29.0754  -18.2450   18.1984 C   0  0  0  0  0  0
  -29.2943  -19.4931   18.8179 C   0  0  0  0  0  0
  -29.2940  -17.0359   18.8866 C   0  0  0  0  0  0
  -29.8975  -18.3188   20.8659 C   0  0  0  0  0  0
  -29.6995  -19.5762   20.1680 C   0  0  0  0  0  0
  -29.7319  -17.0317   20.2298 C   0  0  0  0  0  0
  -30.0984  -20.9236   20.7432 C   0  0  0  0  0  0
  -29.3051  -24.6140   21.5713 C   0  0  0  0  0  0
  -28.1127  -24.0293   19.4240 C   0  0  0  0  0  0
  -30.2248  -23.4551   21.0418 C   0  0  0  0  0  0
  -28.2280  -22.5249   19.9082 C   0  0  0  0  0  0
  -28.1350  -25.0430   20.6199 C   0  0  0  0  0  0
  -29.5263  -22.1947   20.5853 N   0  0  0  0  0  0
  -29.8734  -15.7351   20.8990 N   0  0  0  0  0  0
  -31.2129  -20.8667   21.4711 N   0  3  0  0  0  0
  -26.9448  -24.8859   21.3720 O   0  0  0  0  0  0
  -31.4786  -12.5218   19.1637 H   0  0  0  0  0  0
  -30.3690  -11.4098   19.9100 H   0  0  0  0  0  0
  -29.7771  -11.7568   17.4902 H   0  0  0  0  0  0
  -29.6572  -13.4797   17.7453 H   0  0  0  0  0  0
  -27.8690  -11.2985   18.8730 H   0  0  0  0  0  0
  -27.3834  -12.5826   17.7960 H   0  0  0  0  0  0
  -27.6674  -14.2559   19.5187 H   0  0  0  0  0  0
  -28.7068  -12.0795   21.3983 H   0  0  0  0  0  0
  -28.4390  -13.7427   21.8393 H   0  0  0  0  0  0
  -25.2764   -9.5689   22.4744 H   0  0  0  0  0  0
  -24.0009   -7.4624   22.7457 H   0  0  0  0  0  0
  -21.0839   -8.8785   19.8938 H   0  0  0  0  0  0
  -22.3703  -10.9675   19.6158 H   0  0  0  0  0  0
  -21.2011   -7.6137   23.9714 H   0  0  0  0  0  0
  -21.1481   -6.0499   25.9064 H   0  0  0  0  0  0
  -22.0599   -2.7610   23.2826 H   0  0  0  0  0  0
  -22.4068  -11.9893   22.4797 H   0  0  0  0  0  0
  -21.1088  -13.1286   22.2604 H   0  0  0  0  0  0
  -24.6705  -15.8519   20.5288 H   0  0  0  0  0  0
  -26.2869  -15.6246   20.0966 H   0  0  0  0  0  0
  -26.7169  -32.5457   23.1097 H   0  0  0  0  0  0
  -25.0067  -33.9719   25.0436 H   0  0  0  0  0  0
  -22.7130  -31.3024   21.4035 H   0  0  0  0  0  0
  -23.3767  -35.9606   23.3272 H   0  0  0  0  0  0
  -24.3599  -36.8936   22.2058 H   0  0  0  0  0  0
  -23.7223  -37.6478   23.6668 H   0  0  0  0  0  0
  -26.0930  -31.5548   20.6074 H   0  0  0  0  0  0
  -26.8418  -30.8391   22.0036 H   0  0  0  0  0  0
  -28.1103  -28.9713   21.2005 H   0  0  0  0  0  0
  -25.9933  -25.9545   18.9511 H   0  0  0  0  0  0
  -23.9793  -27.3312   18.9738 H   0  0  0  0  0  0
  -23.7493  -30.5980   19.4027 H   0  0  0  0  0  0
  -22.7558  -29.2467   19.8592 H   0  0  0  0  0  0
  -25.1284  -36.1937   25.0826 H   0  0  0  0  0  0
  -20.9974  -28.3263   24.1410 H   0  0  0  0  0  0
  -20.5681  -26.2288   23.3612 H   0  0  0  0  0  0
  -21.6642  -26.7440   22.1207 H   0  0  0  0  0  0
  -19.6907  -25.6290   21.1245 H   0  0  0  0  0  0
  -19.6686  -27.3193   20.6743 H   0  0  0  0  0  0
  -17.4193  -26.6679   21.4020 H   0  0  0  0  0  0
  -18.0323  -26.0076   22.9028 H   0  0  0  0  0  0
  -19.7929  -30.7274   24.2274 H   0  0  0  0  0  0
  -17.5003  -31.6263   24.5152 H   0  0  0  0  0  0
  -15.5346  -30.2973   23.7649 H   0  0  0  0  0  0
  -15.8676  -28.0811   22.7065 H   0  0  0  0  0  0
  -24.5900  -30.7075   25.7780 H   0  0  0  0  0  0
  -24.8950  -32.2865   26.4912 H   0  0  0  0  0  0
  -25.8071  -30.8850   27.0204 H   0  0  0  0  0  0
  -26.2874  -29.6758   24.1201 H   0  0  0  0  0  0
  -27.4033  -29.7237   25.4650 H   0  0  0  0  0  0
  -27.8744  -30.4267   23.9355 H   0  0  0  0  0  0
  -27.2687  -33.3609   26.2051 H   0  0  0  0  0  0
  -28.3869  -32.6857   25.0299 H   0  0  0  0  0  0
  -28.0739  -31.8434   26.5399 H   0  0  0  0  0  0
  -28.2577  -38.0123   24.7550 H   0  0  0  0  0  0
  -28.1114  -36.2655   24.6218 H   0  0  0  0  0  0
  -27.2317  -37.1364   25.8866 H   0  0  0  0  0  0
  -20.9359  -29.8763   21.6900 H   0  0  0  0  0  0
  -26.0173  -38.2853   24.1439 H   0  0  0  0  0  0
  -28.7563  -18.2114   17.1658 H   0  0  0  0  0  0
  -29.1956  -20.3841   18.2165 H   0  0  0  0  0  0
  -29.1090  -16.1057   18.3681 H   0  0  0  0  0  0
  -30.2225  -18.3421   21.8968 H   0  0  0  0  0  0
  -29.9206  -25.4926   21.7667 H   0  0  0  0  0  0
  -28.9056  -24.3239   22.5450 H   0  0  0  0  0  0
  -27.2013  -24.1588   18.8435 H   0  0  0  0  0  0
  -28.9356  -24.2675   18.7491 H   0  0  0  0  0  0
  -30.9327  -23.2501   21.8435 H   0  0  0  0  0  0
  -30.8327  -23.8292   20.2163 H   0  0  0  0  0  0
  -28.0611  -21.8872   19.0446 H   0  0  0  0  0  0
  -27.4126  -22.3025   20.5986 H   0  0  0  0  0  0
  -29.0590  -15.4620   21.4262 H   0  0  0  0  0  0
  -31.7089  -19.9911   21.5312 H   0  0  0  0  0  0
  -31.5840  -21.6625   21.9595 H   0  0  0  0  0  0
  -26.2320  -25.2527   20.8623 H   0  0  0  0  0  0
  1 25  1  0  0  0
  1 30  2  0  0  0
  1 84  1  0  0  0
  2  3  1  0  0  0
  2 25  1  0  0  0
  2 87  1  0  0  0
  2 88  1  0  0  0
  3  4  1  0  0  0
  3 89  1  0  0  0
  3 90  1  0  0  0
  4  5  1  0  0  0
  4 91  1  0  0  0
  4 92  1  0  0  0
  5  6  1  0  0  0
  5 26  1  0  0  0
  5 93  1  0  0  0
  6 25  1  0  0  0
  6 94  1  0  0  0
  6 95  1  0  0  0
  7  8  2  0  0  0
  7 26  1  0  0  0
  7 29  1  0  0  0
  8  9  1  0  0  0
  8 22  1  0  0  0
  9 10  1  0  0  0
  9 27  2  0  0  0
 10 11  2  0  0  0
 10 15  1  0  0  0
 11 12  1  0  0  0
 11 96  1  0  0  0
 12 13  2  0  0  0
 12 97  1  0  0  0
 13 14  1  0  0  0
 13 31  1  0  0  0
 14 15  2  0  0  0
 14 98  1  0  0  0
 15 99  1  0  0  0
 16 17  2  0  0  0
 16 21  1  0  0  0
 16 31  1  0  0  0
 17 18  1  0  0  0
 17100  1  0  0  0
 18 19  2  0  0  0
 18101  1  0  0  0
 19 20  1  0  0  0
 19 24  1  0  0  0
 20 21  2  0  0  0
 20102  1  0  0  0
 21 23  1  0  0  0
 22 28  1  0  0  0
 22 32  2  0  0  0
 26 27  1  0  0  0
 28103  1  0  0  0
 28104  1  0  0  0
 29105  1  0  0  0
 29106  1  0  0  0
 33 34  1  0  0  0
 33 66  1  0  0  0
 33 70  2  0  0  0
 34 36  1  0  0  0
 34 59  1  0  0  0
 34107  1  0  0  0
 35 44  2  0  0  0
 35 45  1  0  0  0
 35 68  1  0  0  0
 36 56  1  0  0  0
 36108  1  0  0  0
 37 39  1  0  0  0
 37 47  1  0  0  0
 37 66  1  0  0  0
 37109  1  0  0  0
 38 43  2  0  0  0
 38 46  1  0  0  0
 38 47  1  0  0  0
 39 64  1  0  0  0
 39 67  2  0  0  0
 40 52  1  0  0  0
 40 53  2  0  0  0
 40 58  1  0  0  0
 41110  1  0  0  0
 41111  1  0  0  0
 41112  1  0  0  0
 41 48  1  0  0  0
 42 43  1  0  0  0
 42 66  1  0  0  0
 42113  1  0  0  0
 42114  1  0  0  0
 43 44  1  0  0  0
 44115  1  0  0  0
 45 46  2  0  0  0
 45116  1  0  0  0
 46117  1  0  0  0
 47118  1  0  0  0
 47119  1  0  0  0
 48 56  1  0  0  0
 48 65  1  0  0  0
 48120  1  0  0  0
 49 50  1  0  0  0
 49 53  1  0  0  0
 49 64  1  0  0  0
 49121  1  0  0  0
 50 51  1  0  0  0
 50122  1  0  0  0
 50123  1  0  0  0
 51 52  1  0  0  0
 51124  1  0  0  0
 51125  1  0  0  0
 52126  1  0  0  0
 52127  1  0  0  0
 53 54  1  0  0  0
 54 55  2  0  0  0
 54128  1  0  0  0
 55 57  1  0  0  0
 55129  1  0  0  0
 56 69  2  0  0  0
 57 58  2  0  0  0
 57130  1  0  0  0
 58131  1  0  0  0
 59 60  1  0  0  0
 59 61  1  0  0  0
 59 62  1  0  0  0
 60132  1  0  0  0
 60133  1  0  0  0
 60134  1  0  0  0
 61135  1  0  0  0
 61136  1  0  0  0
 61137  1  0  0  0
 62138  1  0  0  0
 62139  1  0  0  0
 62140  1  0  0  0
 63 65  1  0  0  0
 63141  1  0  0  0
 63142  1  0  0  0
 63143  1  0  0  0
 64144  1  0  0  0
 65145  1  0  0  0
 68 82  1  0  0  0
 71 72  2  0  0  0
 71 73  1  0  0  0
 71146  1  0  0  0
 72 75  1  0  0  0
 72147  1  0  0  0
 73 76  2  0  0  0
 73148  1  0  0  0
 74 75  2  0  0  0
 74 76  1  0  0  0
 74149  1  0  0  0
 75 77  1  0  0  0
 76 84  1  0  0  0
 77 83  1  0  0  0
 77 85  2  0  0  0
 78 80  1  0  0  0
 78 82  1  0  0  0
 78150  1  0  0  0
 78151  1  0  0  0
 79 81  1  0  0  0
 79 82  1  0  0  0
 79152  1  0  0  0
 79153  1  0  0  0
 80 83  1  0  0  0
 80154  1  0  0  0
 80155  1  0  0  0
 81 83  1  0  0  0
 81156  1  0  0  0
 81157  1  0  0  0
 82 86  1  0  0  0
 84158  1  0  0  0
 85159  1  0  0  0
 85160  1  0  0  0
 86161  1  0  0  0
M  CHG  1  85   1
M  ISO  4   1 100  68 101  82 101  84 100
M  END
> <chiral flag>
0

> <version>
0

> <s_m_source_file>
/data/baiqing/PycharmProjects/Reinvent-master-3.2/result/LINK_invent/BTK/process_docking_weight1_custom_product_contain_oxygen_bond_distance_aromatic_linkinvent_7_9_3/rearranged_h_0155.sdf

> <i_m_source_file_index>
96

> <r_mmod_Potential_Energy-OPLS-2005>
-20.3268642425537

> <r_mmod_Stretch_Energy-OPLS-2005>
98.1081085205078

> <r_mmod_Bend_Energy-OPLS-2005>
149.804550170898

> <r_mmod_Torsional_Energy-OPLS-2005>
313.248840332031

> <r_mmod_Improper_Torsional_Energy-OPLS-2005>
6.78246164321899

> <r_mmod_Van_der_Waal_Energy-OPLS-2005>
165.831512451172

> <r_mmod_Electrostatic_Energy-OPLS-2005>
-395.713012695312

> <r_mmod_Solvation_Energy-OPLS-2005>
-414.188659667969

> <b_mmod_Minimization_Converged-OPLS-2005>
0

> <r_mmod_RMS_Derivative-OPLS-2005>
2.23328709602356

$$$$
96
                    3D
 Structure written by MMmdl.
151159  0  0  1  0            999 V2000
  -30.6225  -14.7152   20.5129 C   0  0  0  0  0  0
  -30.4345  -12.4464   19.4798 C   0  0  0  0  0  0
  -29.5109  -12.5109   18.2428 C   0  0  0  0  0  0
  -28.0378  -12.3320   18.6551 C   0  0  0  0  0  0
  -27.6470  -13.2258   19.8614 C   0  0  2  0  0  0
  -28.6882  -13.1372   20.9996 C   0  0  0  0  0  0
  -25.2517  -13.8180   20.5689 C   0  0  0  0  0  0
  -24.1806  -13.0446   20.9210 C   0  0  0  0  0  0
  -24.6382  -11.6905   20.8741 C   0  0  0  0  0  0
  -23.9063  -10.4289   21.0410 C   0  0  0  0  0  0
  -24.3618   -9.4202   21.9182 C   0  0  0  0  0  0
  -23.6285   -8.2240   22.0753 C   0  0  0  0  0  0
  -22.4264   -8.0279   21.3542 C   0  0  0  0  0  0
  -21.9906   -9.0257   20.4640 C   0  0  0  0  0  0
  -22.7244  -10.2135   20.3051 C   0  0  0  0  0  0
  -21.6849   -6.0735   22.5274 C   0  0  0  0  0  0
  -21.4016   -6.5635   23.8216 C   0  0  0  0  0  0
  -21.3657   -5.6781   24.9173 C   0  0  0  0  0  0
  -21.6052   -4.3045   24.7221 C   0  0  0  0  0  0
  -21.8820   -3.8143   23.4336 C   0  0  0  0  0  0
  -21.9195   -4.6960   22.3395 C   0  0  0  0  0  0
  -22.7826  -13.5218   21.1851 C   0  0  0  0  0  0
  -22.1665   -4.2131   21.0978 F   0  0  0  0  0  0
  -21.5626   -3.4543   25.7745 F   0  0  0  0  0  0
  -29.9929  -13.4951   20.4291 N   0  0  0  0  0  0
  -26.2952  -12.9379   20.3321 N   0  0  0  0  0  0
  -25.9314  -11.6526   20.5784 N   0  0  0  0  0  0
  -22.0493  -12.8210   22.0413 N   0  0  0  0  0  0
  -25.4220  -15.1911   20.4086 N   0  0  0  0  0  0
  -31.7933  -14.8191   20.1308 O   0  0  0  0  0  0
  -21.6641   -6.8865   21.4228 O   0  0  0  0  0  0
  -22.3508  -14.5537   20.6702 O   0  0  0  0  0  0
  -24.6279  -31.8556   23.1963 C   0  0  0  0  0  0
  -25.9127  -32.4735   23.8297 C   0  0  1  0  0  0
  -27.2031  -27.2465   20.1761 C   0  0  0  0  0  0
  -25.5928  -33.8536   24.2201 N   0  0  0  0  0  0
  -23.4267  -30.4775   21.5378 C   0  0  2  0  0  0
  -24.8757  -28.9247   20.1064 C   0  0  0  0  0  0
  -22.7482  -29.4603   22.4897 C   0  0  0  0  0  0
  -18.0289  -28.1375   22.8464 C   0  0  0  0  0  0
  -24.1505  -36.7263   23.2639 C   0  0  0  0  0  0
  -25.9718  -30.7640   21.3861 C   0  0  0  0  0  0
  -26.0440  -29.3870   20.7289 C   0  0  0  0  0  0
  -27.2127  -28.5617   20.7514 C   0  0  0  0  0  0
  -26.0214  -26.8546   19.5106 C   0  0  0  0  0  0
  -24.8721  -27.6675   19.4800 C   0  0  0  0  0  0
  -23.6450  -29.8111   20.1534 C   0  0  0  0  0  0
  -25.4126  -36.3038   24.0312 C   0  0  1  0  0  0
  -20.5877  -28.3691   23.1250 C   0  0  2  0  0  0
  -20.6783  -26.9418   22.5402 C   0  0  0  0  0  0
  -19.5773  -26.6370   21.5209 C   0  0  0  0  0  0
  -18.1932  -26.7921   22.1608 C   0  0  0  0  0  0
  -19.1538  -28.8851   23.2849 C   0  0  0  0  0  0
  -18.9483  -30.1449   23.8858 C   0  0  0  0  0  0
  -17.6491  -30.6589   24.0549 C   0  0  0  0  0  0
  -25.9073  -34.9422   23.5060 C   0  0  0  0  0  0
  -16.5366  -29.9074   23.6363 C   0  0  0  0  0  0
  -16.7280  -28.6498   23.0352 C   0  0  0  0  0  0
  -26.4499  -31.6586   25.0709 C   0  0  0  0  0  0
  -25.3703  -31.3788   26.1421 C   0  0  0  0  0  0
  -27.0366  -30.2971   24.6279 C   0  0  0  0  0  0
  -27.6026  -32.4371   25.7475 C   0  0  0  0  0  0
  -27.5579  -37.1761   24.8451 C   0  0  0  0  0  0
  -21.4189  -29.3030   22.3634 N   0  0  0  0  0  0
  -26.4292  -37.3735   23.9406 N   0  0  0  0  0  0
  -24.6931  -31.0512   22.0959 N   0  0  0  0  0  0
  -23.4179  -28.8161   23.2999 O   0  0  0  0  0  0
  -28.2649  -26.3197   20.2489 O   0  0  0  0  0  0
  -26.5663  -34.8922   22.4652 O   0  0  0  0  0  0
  -23.5441  -32.1389   23.7274 O   0  0  0  0  0  0
  -31.9109  -18.9817   21.4497 C   0  0  0  0  0  0
  -31.5367  -17.6327   21.2826 C   0  0  0  0  0  0
  -31.0050  -20.0414   21.2170 C   0  0  0  0  0  0
  -29.3087  -18.3858   20.6734 C   0  0  0  0  0  0
  -30.2223  -17.2731   20.9082 C   0  0  0  0  0  0
  -29.6826  -19.7930   20.7918 C   0  0  0  0  0  0
  -28.7194  -23.6612   20.2856 C   0  0  0  0  0  0
  -28.7734  -22.2845   21.1217 C   0  0  0  0  0  0
  -27.9488  -24.9621   20.8332 C   0  0  0  0  0  0
  -29.8592  -15.8330   20.8263 N   0  0  0  0  0  0
  -28.8395  -20.9197   20.4376 N   0  0  0  0  0  0
  -29.2886  -23.7116   19.1898 O   0  0  0  0  0  0
  -31.4738  -12.5750   19.1774 H   0  0  0  0  0  0
  -30.3843  -11.4665   19.9540 H   0  0  0  0  0  0
  -29.7941  -11.7442   17.5209 H   0  0  0  0  0  0
  -29.6347  -13.4697   17.7365 H   0  0  0  0  0  0
  -27.8936  -11.2831   18.9145 H   0  0  0  0  0  0
  -27.3791  -12.5294   17.8078 H   0  0  0  0  0  0
  -27.6480  -14.2518   19.4924 H   0  0  0  0  0  0
  -28.7198  -12.1304   21.4177 H   0  0  0  0  0  0
  -28.4209  -13.7972   21.8248 H   0  0  0  0  0  0
  -25.2764   -9.5690   22.4762 H   0  0  0  0  0  0
  -23.9998   -7.4638   22.7477 H   0  0  0  0  0  0
  -21.0835   -8.8772   19.8949 H   0  0  0  0  0  0
  -22.3690  -10.9675   19.6163 H   0  0  0  0  0  0
  -21.2014   -7.6145   23.9699 H   0  0  0  0  0  0
  -21.1477   -6.0528   25.9073 H   0  0  0  0  0  0
  -22.0603   -2.7598   23.2856 H   0  0  0  0  0  0
  -22.4124  -11.9861   22.4779 H   0  0  0  0  0  0
  -21.1123  -13.1228   22.2654 H   0  0  0  0  0  0
  -24.6493  -15.8424   20.4999 H   0  0  0  0  0  0
  -26.2639  -15.6251   20.0528 H   0  0  0  0  0  0
  -26.7192  -32.5384   23.1040 H   0  0  0  0  0  0
  -25.0018  -33.9659   25.0302 H   0  0  0  0  0  0
  -22.7208  -31.2989   21.3914 H   0  0  0  0  0  0
  -23.3776  -35.9594   23.3307 H   0  0  0  0  0  0
  -24.3576  -36.8884   22.2049 H   0  0  0  0  0  0
  -23.7263  -37.6446   23.6694 H   0  0  0  0  0  0
  -26.1247  -31.5324   20.6277 H   0  0  0  0  0  0
  -26.8408  -30.7994   22.0294 H   0  0  0  0  0  0
  -28.0982  -28.8977   21.2723 H   0  0  0  0  0  0
  -25.9650  -25.8862   19.0329 H   0  0  0  0  0  0
  -23.9815  -27.3103   18.9816 H   0  0  0  0  0  0
  -23.7640  -30.5846   19.3928 H   0  0  0  0  0  0
  -22.7657  -29.2384   19.8547 H   0  0  0  0  0  0
  -25.1321  -36.1866   25.0800 H   0  0  0  0  0  0
  -20.9966  -28.3307   24.1378 H   0  0  0  0  0  0
  -20.5675  -26.2313   23.3590 H   0  0  0  0  0  0
  -21.6636  -26.7438   22.1186 H   0  0  0  0  0  0
  -19.6929  -25.6285   21.1229 H   0  0  0  0  0  0
  -19.6702  -27.3194   20.6746 H   0  0  0  0  0  0
  -17.4186  -26.6656   21.4022 H   0  0  0  0  0  0
  -18.0335  -26.0062   22.9011 H   0  0  0  0  0  0
  -19.7971  -30.7255   24.2187 H   0  0  0  0  0  0
  -17.5063  -31.6275   24.5160 H   0  0  0  0  0  0
  -15.5365  -30.2962   23.7728 H   0  0  0  0  0  0
  -15.8668  -28.0817   22.7069 H   0  0  0  0  0  0
  -24.5876  -30.7140   25.7758 H   0  0  0  0  0  0
  -24.8912  -32.2988   26.4781 H   0  0  0  0  0  0
  -25.7990  -30.8995   27.0234 H   0  0  0  0  0  0
  -26.2984  -29.6662   24.1298 H   0  0  0  0  0  0
  -27.3966  -29.7286   25.4865 H   0  0  0  0  0  0
  -27.8909  -30.4167   23.9606 H   0  0  0  0  0  0
  -27.2600  -33.3704   26.1961 H   0  0  0  0  0  0
  -28.3863  -32.6878   25.0319 H   0  0  0  0  0  0
  -28.0671  -31.8564   26.5449 H   0  0  0  0  0  0
  -28.2558  -38.0086   24.7523 H   0  0  0  0  0  0
  -28.1106  -36.2610   24.6273 H   0  0  0  0  0  0
  -27.2289  -37.1377   25.8843 H   0  0  0  0  0  0
  -20.9372  -29.8714   21.6800 H   0  0  0  0  0  0
  -26.0174  -38.2801   24.1447 H   0  0  0  0  0  0
  -32.9252  -19.2072   21.7493 H   0  0  0  0  0  0
  -32.2843  -16.8731   21.4679 H   0  0  0  0  0  0
  -31.3616  -21.0559   21.3288 H   0  0  0  0  0  0
  -28.2930  -18.1531   20.3861 H   0  0  0  0  0  0
  -27.8724  -22.2708   21.7392 H   0  0  0  0  0  0
  -29.5932  -22.3686   21.8331 H   0  0  0  0  0  0
  -28.1000  -25.0119   21.9135 H   0  0  0  0  0  0
  -26.8872  -24.7465   20.7182 H   0  0  0  0  0  0
  -28.8951  -15.6207   21.0338 H   0  0  0  0  0  0
  -28.0117  -20.6977   19.8886 H   0  0  0  0  0  0
  1 25  1  0  0  0
  1 30  2  0  0  0
  1 80  1  0  0  0
  2  3  1  0  0  0
  2 25  1  0  0  0
  2 83  1  0  0  0
  2 84  1  0  0  0
  3  4  1  0  0  0
  3 85  1  0  0  0
  3 86  1  0  0  0
  4  5  1  0  0  0
  4 87  1  0  0  0
  4 88  1  0  0  0
  5  6  1  0  0  0
  5 26  1  0  0  0
  5 89  1  0  0  0
  6 25  1  0  0  0
  6 90  1  0  0  0
  6 91  1  0  0  0
  7  8  2  0  0  0
  7 26  1  0  0  0
  7 29  1  0  0  0
  8  9  1  0  0  0
  8 22  1  0  0  0
  9 10  1  0  0  0
  9 27  2  0  0  0
 10 11  2  0  0  0
 10 15  1  0  0  0
 11 12  1  0  0  0
 11 92  1  0  0  0
 12 13  2  0  0  0
 12 93  1  0  0  0
 13 14  1  0  0  0
 13 31  1  0  0  0
 14 15  2  0  0  0
 14 94  1  0  0  0
 15 95  1  0  0  0
 16 17  2  0  0  0
 16 21  1  0  0  0
 16 31  1  0  0  0
 17 18  1  0  0  0
 17 96  1  0  0  0
 18 19  2  0  0  0
 18 97  1  0  0  0
 19 20  1  0  0  0
 19 24  1  0  0  0
 20 21  2  0  0  0
 20 98  1  0  0  0
 21 23  1  0  0  0
 22 28  1  0  0  0
 22 32  2  0  0  0
 26 27  1  0  0  0
 28 99  1  0  0  0
 28100  1  0  0  0
 29101  1  0  0  0
 29102  1  0  0  0
 33 34  1  0  0  0
 33 66  1  0  0  0
 33 70  2  0  0  0
 34 36  1  0  0  0
 34 59  1  0  0  0
 34103  1  0  0  0
 35 44  2  0  0  0
 35 45  1  0  0  0
 35 68  1  0  0  0
 36 56  1  0  0  0
 36104  1  0  0  0
 37 39  1  0  0  0
 37 47  1  0  0  0
 37 66  1  0  0  0
 37105  1  0  0  0
 38 43  2  0  0  0
 38 46  1  0  0  0
 38 47  1  0  0  0
 39 64  1  0  0  0
 39 67  2  0  0  0
 40 52  1  0  0  0
 40 53  2  0  0  0
 40 58  1  0  0  0
 41106  1  0  0  0
 41107  1  0  0  0
 41108  1  0  0  0
 41 48  1  0  0  0
 42 43  1  0  0  0
 42 66  1  0  0  0
 42109  1  0  0  0
 42110  1  0  0  0
 43 44  1  0  0  0
 44111  1  0  0  0
 45 46  2  0  0  0
 45112  1  0  0  0
 46113  1  0  0  0
 47114  1  0  0  0
 47115  1  0  0  0
 48 56  1  0  0  0
 48 65  1  0  0  0
 48116  1  0  0  0
 49 50  1  0  0  0
 49 53  1  0  0  0
 49 64  1  0  0  0
 49117  1  0  0  0
 50 51  1  0  0  0
 50118  1  0  0  0
 50119  1  0  0  0
 51 52  1  0  0  0
 51120  1  0  0  0
 51121  1  0  0  0
 52122  1  0  0  0
 52123  1  0  0  0
 53 54  1  0  0  0
 54 55  2  0  0  0
 54124  1  0  0  0
 55 57  1  0  0  0
 55125  1  0  0  0
 56 69  2  0  0  0
 57 58  2  0  0  0
 57126  1  0  0  0
 58127  1  0  0  0
 59 60  1  0  0  0
 59 61  1  0  0  0
 59 62  1  0  0  0
 60128  1  0  0  0
 60129  1  0  0  0
 60130  1  0  0  0
 61131  1  0  0  0
 61132  1  0  0  0
 61133  1  0  0  0
 62134  1  0  0  0
 62135  1  0  0  0
 62136  1  0  0  0
 63 65  1  0  0  0
 63137  1  0  0  0
 63138  1  0  0  0
 63139  1  0  0  0
 64140  1  0  0  0
 65141  1  0  0  0
 68 79  1  0  0  0
 71 72  2  0  0  0
 71 73  1  0  0  0
 71142  1  0  0  0
 72 75  1  0  0  0
 72143  1  0  0  0
 73 76  2  0  0  0
 73144  1  0  0  0
 74 75  2  0  0  0
 74 76  1  0  0  0
 74145  1  0  0  0
 75 80  1  0  0  0
 76 81  1  0  0  0
 77 78  1  0  0  0
 77 79  1  0  0  0
 77 82  2  0  0  0
 78 81  1  0  0  0
 78146  1  0  0  0
 78147  1  0  0  0
 79148  1  0  0  0
 79149  1  0  0  0
 80150  1  0  0  0
 81151  1  0  0  0
M  ISO  4   1 100  68 101  79 101  80 100
M  END
> <chiral flag>
0

> <version>
0

> <s_m_source_file>
/data/baiqing/PycharmProjects/Reinvent-master-3.2/result/LINK_invent/BTK/process_docking_weight1_custom_product_contain_oxygen_bond_distance_aromatic_linkinvent_7_9_3/rearranged_h_0155.sdf

> <i_m_source_file_index>
97

> <r_mmod_Potential_Energy-OPLS-2005>
212.535659790039

> <r_mmod_Stretch_Energy-OPLS-2005>
124.370719909668

> <r_mmod_Bend_Energy-OPLS-2005>
162.364822387695

> <r_mmod_Torsional_Energy-OPLS-2005>
233.579544067383

> <r_mmod_Improper_Torsional_Energy-OPLS-2005>
6.04494428634644

> <r_mmod_Van_der_Waal_Energy-OPLS-2005>
137.857879638672

> <r_mmod_Electrostatic_Energy-OPLS-2005>
-286.40234375

> <r_mmod_Solvation_Energy-OPLS-2005>
-251.852645874023

> <b_mmod_Minimization_Converged-OPLS-2005>
0

> <r_mmod_RMS_Derivative-OPLS-2005>
4.65418910980225

$$$$
97
                    3D
 Structure written by MMmdl.
155164  0  0  1  0            999 V2000
  -30.6601  -14.7983   20.4163 C   0  0  0  0  0  0
  -30.4284  -12.4894   19.4687 C   0  0  0  0  0  0
  -29.4901  -12.4250   18.2442 C   0  0  0  0  0  0
  -28.0303  -12.2452   18.6938 C   0  0  0  0  0  0
  -27.6308  -13.2083   19.8384 C   0  0  2  0  0  0
  -28.6898  -13.2557   20.9589 C   0  0  0  0  0  0
  -25.2516  -13.8164   20.5794 C   0  0  0  0  0  0
  -24.1783  -13.0433   20.9278 C   0  0  0  0  0  0
  -24.6341  -11.6915   20.8821 C   0  0  0  0  0  0
  -23.9021  -10.4300   21.0443 C   0  0  0  0  0  0
  -24.3600   -9.4226   21.9214 C   0  0  0  0  0  0
  -23.6306   -8.2248   22.0772 C   0  0  0  0  0  0
  -22.4276   -8.0288   21.3576 C   0  0  0  0  0  0
  -21.9899   -9.0246   20.4670 C   0  0  0  0  0  0
  -22.7197  -10.2141   20.3090 C   0  0  0  0  0  0
  -21.6850   -6.0758   22.5291 C   0  0  0  0  0  0
  -21.3996   -6.5657   23.8221 C   0  0  0  0  0  0
  -21.3657   -5.6801   24.9176 C   0  0  0  0  0  0
  -21.6042   -4.3066   24.7209 C   0  0  0  0  0  0
  -21.8824   -3.8169   23.4330 C   0  0  0  0  0  0
  -21.9210   -4.7000   22.3391 C   0  0  0  0  0  0
  -22.7827  -13.5259   21.1907 C   0  0  0  0  0  0
  -22.1700   -4.2206   21.0968 F   0  0  0  0  0  0
  -21.5619   -3.4535   25.7708 F   0  0  0  0  0  0
  -29.9632  -13.6088   20.3206 N   0  0  0  0  0  0
  -26.2901  -12.9316   20.3363 N   0  0  0  0  0  0
  -25.9264  -11.6505   20.5888 N   0  0  0  0  0  0
  -22.0454  -12.8231   22.0431 N   0  0  0  0  0  0
  -25.4206  -15.1873   20.4276 N   0  0  0  0  0  0
  -31.8896  -14.7427   20.3143 O   0  0  0  0  0  0
  -21.6653   -6.8887   21.4249 O   0  0  0  0  0  0
  -22.3542  -14.5590   20.6782 O   0  0  0  0  0  0
  -24.6333  -31.8521   23.1996 C   0  0  0  0  0  0
  -25.9160  -32.4743   23.8327 C   0  0  1  0  0  0
  -27.2274  -27.2479   20.1198 C   0  0  0  0  0  0
  -25.5950  -33.8548   24.2246 N   0  0  0  0  0  0
  -23.4303  -30.4759   21.5443 C   0  0  2  0  0  0
  -24.8802  -28.9291   20.1058 C   0  0  0  0  0  0
  -22.7499  -29.4585   22.4916 C   0  0  0  0  0  0
  -18.0290  -28.1350   22.8504 C   0  0  0  0  0  0
  -24.1483  -36.7276   23.2639 C   0  0  0  0  0  0
  -25.9791  -30.7600   21.3829 C   0  0  0  0  0  0
  -26.0534  -29.3832   20.7218 C   0  0  0  0  0  0
  -27.2276  -28.5574   20.7185 C   0  0  0  0  0  0
  -26.0279  -26.8742   19.4676 C   0  0  0  0  0  0
  -24.8766  -27.6830   19.4634 C   0  0  0  0  0  0
  -23.6473  -29.8128   20.1600 C   0  0  0  0  0  0
  -25.4112  -36.3064   24.0325 C   0  0  1  0  0  0
  -20.5894  -28.3671   23.1274 C   0  0  2  0  0  0
  -20.6769  -26.9384   22.5411 C   0  0  0  0  0  0
  -19.5744  -26.6357   21.5212 C   0  0  0  0  0  0
  -18.1929  -26.7897   22.1630 C   0  0  0  0  0  0
  -19.1544  -28.8828   23.2883 C   0  0  0  0  0  0
  -18.9465  -30.1431   23.8897 C   0  0  0  0  0  0
  -17.6463  -30.6564   24.0550 C   0  0  0  0  0  0
  -25.9063  -34.9436   23.5089 C   0  0  0  0  0  0
  -16.5354  -29.9055   23.6329 C   0  0  0  0  0  0
  -16.7277  -28.6460   23.0379 C   0  0  0  0  0  0
  -26.4511  -31.6585   25.0733 C   0  0  0  0  0  0
  -25.3733  -31.3745   26.1457 C   0  0  0  0  0  0
  -27.0366  -30.3003   24.6244 C   0  0  0  0  0  0
  -27.6044  -32.4333   25.7529 C   0  0  0  0  0  0
  -27.5576  -37.1789   24.8455 C   0  0  0  0  0  0
  -21.4206  -29.3023   22.3659 N   0  0  0  0  0  0
  -26.4276  -37.3777   23.9418 N   0  0  0  0  0  0
  -24.7004  -31.0460   22.0986 N   0  0  0  0  0  0
  -23.4192  -28.8115   23.3013 O   0  0  0  0  0  0
  -28.3117  -26.3272   20.1793 O   0  0  0  0  0  0
  -26.5638  -34.8917   22.4663 O   0  0  0  0  0  0
  -23.5480  -32.1354   23.7284 O   0  0  0  0  0  0
  -28.7767  -19.7676   20.4367 C   0  0  0  0  0  0
  -30.7977  -20.8952   20.2316 C   0  0  0  0  0  0
  -29.4364  -21.0731   20.3152 C   0  0  0  0  0  0
  -29.5969  -18.6190   20.3893 C   0  0  0  0  0  0
  -29.1056  -23.7166   20.2249 C   0  0  0  0  0  0
  -29.1750  -16.9732   17.8968 C   0  0  0  0  0  0
  -28.2076  -17.0778   19.0764 C   0  0  0  0  0  0
  -30.3923  -16.2275   18.4592 C   0  0  0  0  0  0
  -29.1421  -17.0910   20.2947 C   0  0  1  0  0  0
  -28.0168  -24.8638   19.9207 C   0  0  0  0  0  0
  -30.0821  -15.9533   19.8664 N   0  0  0  0  0  0
  -28.7175  -22.3775   20.2197 N   0  0  0  0  0  0
  -30.2720  -24.0516   20.4512 O   0  0  0  0  0  0
  -31.2566  -19.1817   20.2758 S   0  0  0  0  0  0
  -31.4597  -12.6186   19.1329 H   0  0  0  0  0  0
  -30.4133  -11.5544   20.0323 H   0  0  0  0  0  0
  -29.7770  -11.5925   17.6000 H   0  0  0  0  0  0
  -29.5813  -13.3262   17.6390 H   0  0  0  0  0  0
  -27.9289  -11.2175   19.0419 H   0  0  0  0  0  0
  -27.3499  -12.3464   17.8473 H   0  0  0  0  0  0
  -27.5955  -14.1825   19.3722 H   0  0  0  0  0  0
  -28.7616  -12.2930   21.4678 H   0  0  0  0  0  0
  -28.4238  -13.9961   21.7165 H   0  0  0  0  0  0
  -25.2734   -9.5748   22.4798 H   0  0  0  0  0  0
  -24.0063   -7.4631   22.7459 H   0  0  0  0  0  0
  -21.0845   -8.8728   19.8953 H   0  0  0  0  0  0
  -22.3629  -10.9692   19.6224 H   0  0  0  0  0  0
  -21.1965   -7.6164   23.9736 H   0  0  0  0  0  0
  -21.1473   -6.0526   25.9081 H   0  0  0  0  0  0
  -22.0602   -2.7643   23.2788 H   0  0  0  0  0  0
  -22.4035  -11.9865   22.4783 H   0  0  0  0  0  0
  -21.1101  -13.1301   22.2663 H   0  0  0  0  0  0
  -24.6535  -15.8418   20.5384 H   0  0  0  0  0  0
  -26.2799  -15.6288   20.1302 H   0  0  0  0  0  0
  -26.7227  -32.5377   23.1056 H   0  0  0  0  0  0
  -25.0074  -33.9668   25.0378 H   0  0  0  0  0  0
  -22.7288  -31.2999   21.4017 H   0  0  0  0  0  0
  -23.3754  -35.9599   23.3274 H   0  0  0  0  0  0
  -24.3574  -36.8930   22.2059 H   0  0  0  0  0  0
  -23.7217  -37.6462   23.6682 H   0  0  0  0  0  0
  -26.1197  -31.5203   20.6124 H   0  0  0  0  0  0
  -26.8555  -30.8070   22.0188 H   0  0  0  0  0  0
  -28.1202  -28.9063   21.2202 H   0  0  0  0  0  0
  -25.9382  -25.9288   18.9559 H   0  0  0  0  0  0
  -23.9879  -27.3308   18.9588 H   0  0  0  0  0  0
  -23.7573  -30.5906   19.4032 H   0  0  0  0  0  0
  -22.7657  -29.2407   19.8629 H   0  0  0  0  0  0
  -25.1290  -36.1900   25.0816 H   0  0  0  0  0  0
  -20.9999  -28.3233   24.1387 H   0  0  0  0  0  0
  -20.5648  -26.2270   23.3616 H   0  0  0  0  0  0
  -21.6637  -26.7380   22.1215 H   0  0  0  0  0  0
  -19.6901  -25.6266   21.1240 H   0  0  0  0  0  0
  -19.6678  -27.3166   20.6745 H   0  0  0  0  0  0
  -17.4197  -26.6659   21.4032 H   0  0  0  0  0  0
  -18.0325  -26.0019   22.9009 H   0  0  0  0  0  0
  -19.7942  -30.7250   24.2258 H   0  0  0  0  0  0
  -17.5016  -31.6258   24.5122 H   0  0  0  0  0  0
  -15.5352  -30.2955   23.7643 H   0  0  0  0  0  0
  -15.8681  -28.0763   22.7114 H   0  0  0  0  0  0
  -24.5880  -30.7125   25.7785 H   0  0  0  0  0  0
  -24.8961  -32.2925   26.4902 H   0  0  0  0  0  0
  -25.8045  -30.8898   27.0229 H   0  0  0  0  0  0
  -26.2968  -29.6752   24.1234 H   0  0  0  0  0  0
  -27.3998  -29.7261   25.4775 H   0  0  0  0  0  0
  -27.8862  -30.4263   23.9532 H   0  0  0  0  0  0
  -27.2625  -33.3619   26.2115 H   0  0  0  0  0  0
  -28.3875  -32.6925   25.0390 H   0  0  0  0  0  0
  -28.0706  -31.8466   26.5457 H   0  0  0  0  0  0
  -28.2567  -38.0116   24.7560 H   0  0  0  0  0  0
  -28.1101  -36.2651   24.6207 H   0  0  0  0  0  0
  -27.2305  -37.1351   25.8860 H   0  0  0  0  0  0
  -20.9364  -29.8758   21.6893 H   0  0  0  0  0  0
  -26.0143  -38.2839   24.1463 H   0  0  0  0  0  0
  -27.6994  -19.7043   20.4938 H   0  0  0  0  0  0
  -31.5708  -21.6462   20.1198 H   0  0  0  0  0  0
  -29.4735  -17.9680   17.5651 H   0  0  0  0  0  0
  -28.7294  -16.4606   17.0450 H   0  0  0  0  0  0
  -27.5664  -16.2081   19.0839 H   0  0  0  0  0  0
  -27.5313  -17.9294   19.0012 H   0  0  0  0  0  0
  -31.3025  -16.8239   18.3887 H   0  0  0  0  0  0
  -30.5742  -15.3134   17.8939 H   0  0  0  0  0  0
  -28.6028  -16.8074   21.1998 H   0  0  0  0  0  0
  -27.1184  -24.5828   20.4694 H   0  0  0  0  0  0
  -27.7858  -24.7593   18.8599 H   0  0  0  0  0  0
  -27.7189  -22.2754   20.0905 H   0  0  0  0  0  0
  1 25  1  0  0  0
  1 30  2  0  0  0
  1 81  1  0  0  0
  2  3  1  0  0  0
  2 25  1  0  0  0
  2 85  1  0  0  0
  2 86  1  0  0  0
  3  4  1  0  0  0
  3 87  1  0  0  0
  3 88  1  0  0  0
  4  5  1  0  0  0
  4 89  1  0  0  0
  4 90  1  0  0  0
  5  6  1  0  0  0
  5 26  1  0  0  0
  5 91  1  0  0  0
  6 25  1  0  0  0
  6 92  1  0  0  0
  6 93  1  0  0  0
  7  8  2  0  0  0
  7 26  1  0  0  0
  7 29  1  0  0  0
  8  9  1  0  0  0
  8 22  1  0  0  0
  9 10  1  0  0  0
  9 27  2  0  0  0
 10 11  2  0  0  0
 10 15  1  0  0  0
 11 12  1  0  0  0
 11 94  1  0  0  0
 12 13  2  0  0  0
 12 95  1  0  0  0
 13 14  1  0  0  0
 13 31  1  0  0  0
 14 15  2  0  0  0
 14 96  1  0  0  0
 15 97  1  0  0  0
 16 17  2  0  0  0
 16 21  1  0  0  0
 16 31  1  0  0  0
 17 18  1  0  0  0
 17 98  1  0  0  0
 18 19  2  0  0  0
 18 99  1  0  0  0
 19 20  1  0  0  0
 19 24  1  0  0  0
 20 21  2  0  0  0
 20100  1  0  0  0
 21 23  1  0  0  0
 22 28  1  0  0  0
 22 32  2  0  0  0
 26 27  1  0  0  0
 28101  1  0  0  0
 28102  1  0  0  0
 29103  1  0  0  0
 29104  1  0  0  0
 33 34  1  0  0  0
 33 66  1  0  0  0
 33 70  2  0  0  0
 34 36  1  0  0  0
 34 59  1  0  0  0
 34105  1  0  0  0
 35 44  2  0  0  0
 35 45  1  0  0  0
 35 68  1  0  0  0
 36 56  1  0  0  0
 36106  1  0  0  0
 37 39  1  0  0  0
 37 47  1  0  0  0
 37 66  1  0  0  0
 37107  1  0  0  0
 38 43  2  0  0  0
 38 46  1  0  0  0
 38 47  1  0  0  0
 39 64  1  0  0  0
 39 67  2  0  0  0
 40 52  1  0  0  0
 40 53  2  0  0  0
 40 58  1  0  0  0
 41108  1  0  0  0
 41109  1  0  0  0
 41110  1  0  0  0
 41 48  1  0  0  0
 42 43  1  0  0  0
 42 66  1  0  0  0
 42111  1  0  0  0
 42112  1  0  0  0
 43 44  1  0  0  0
 44113  1  0  0  0
 45 46  2  0  0  0
 45114  1  0  0  0
 46115  1  0  0  0
 47116  1  0  0  0
 47117  1  0  0  0
 48 56  1  0  0  0
 48 65  1  0  0  0
 48118  1  0  0  0
 49 50  1  0  0  0
 49 53  1  0  0  0
 49 64  1  0  0  0
 49119  1  0  0  0
 50 51  1  0  0  0
 50120  1  0  0  0
 50121  1  0  0  0
 51 52  1  0  0  0
 51122  1  0  0  0
 51123  1  0  0  0
 52124  1  0  0  0
 52125  1  0  0  0
 53 54  1  0  0  0
 54 55  2  0  0  0
 54126  1  0  0  0
 55 57  1  0  0  0
 55127  1  0  0  0
 56 69  2  0  0  0
 57 58  2  0  0  0
 57128  1  0  0  0
 58129  1  0  0  0
 59 60  1  0  0  0
 59 61  1  0  0  0
 59 62  1  0  0  0
 60130  1  0  0  0
 60131  1  0  0  0
 60132  1  0  0  0
 61133  1  0  0  0
 61134  1  0  0  0
 61135  1  0  0  0
 62136  1  0  0  0
 62137  1  0  0  0
 62138  1  0  0  0
 63 65  1  0  0  0
 63139  1  0  0  0
 63140  1  0  0  0
 63141  1  0  0  0
 64142  1  0  0  0
 65143  1  0  0  0
 68 80  1  0  0  0
 71 73  1  0  0  0
 71 74  2  0  0  0
 71144  1  0  0  0
 72 73  2  0  0  0
 72 84  1  0  0  0
 72145  1  0  0  0
 73 82  1  0  0  0
 74 84  1  0  0  0
 74 79  1  0  0  0
 75 80  1  0  0  0
 75 82  1  0  0  0
 75 83  2  0  0  0
 76 77  1  0  0  0
 76 78  1  0  0  0
 76146  1  0  0  0
 76147  1  0  0  0
 77 79  1  0  0  0
 77148  1  0  0  0
 77149  1  0  0  0
 78 81  1  0  0  0
 78150  1  0  0  0
 78151  1  0  0  0
 79 81  1  0  0  0
 79152  1  0  0  0
 80153  1  0  0  0
 80154  1  0  0  0
 82155  1  0  0  0
M  ISO  4   1 100  68 101  80 101  81 100
M  END
> <chiral flag>
0

> <version>
0

> <s_m_source_file>
/data/baiqing/PycharmProjects/Reinvent-master-3.2/result/LINK_invent/BTK/process_docking_weight1_custom_product_contain_oxygen_bond_distance_aromatic_linkinvent_7_9_3/rearranged_h_0155.sdf

> <i_m_source_file_index>
98

> <r_mmod_Potential_Energy-OPLS-2005>
481.323425292969

> <r_mmod_Stretch_Energy-OPLS-2005>
133.877532958984

> <r_mmod_Bend_Energy-OPLS-2005>
246.7109375

> <r_mmod_Torsional_Energy-OPLS-2005>
356.910186767578

> <r_mmod_Improper_Torsional_Energy-OPLS-2005>
31.3689422607422

> <r_mmod_Van_der_Waal_Energy-OPLS-2005>
116.468452453613

> <r_mmod_Electrostatic_Energy-OPLS-2005>
-285.147155761719

> <r_mmod_Solvation_Energy-OPLS-2005>
-237.328903198242

> <b_mmod_Minimization_Converged-OPLS-2005>
0

> <r_mmod_RMS_Derivative-OPLS-2005>
3.06999897956848

$$$$
98
                    3D
 Structure written by MMmdl.
151160  0  0  1  0            999 V2000
  -30.5188  -14.8992   20.4210 C   0  0  0  0  0  0
  -30.4552  -12.5468   19.4929 C   0  0  0  0  0  0
  -29.5244  -12.5132   18.2571 C   0  0  0  0  0  0
  -28.0575  -12.3024   18.6786 C   0  0  0  0  0  0
  -27.6413  -13.2304   19.8495 C   0  0  2  0  0  0
  -28.6861  -13.2117   20.9876 C   0  0  0  0  0  0
  -25.2512  -13.8185   20.5667 C   0  0  0  0  0  0
  -24.1806  -13.0434   20.9203 C   0  0  0  0  0  0
  -24.6403  -11.6913   20.8767 C   0  0  0  0  0  0
  -23.9083  -10.4293   21.0422 C   0  0  0  0  0  0
  -24.3634   -9.4201   21.9201 C   0  0  0  0  0  0
  -23.6294   -8.2244   22.0767 C   0  0  0  0  0  0
  -22.4277   -8.0290   21.3548 C   0  0  0  0  0  0
  -21.9922   -9.0268   20.4654 C   0  0  0  0  0  0
  -22.7258  -10.2143   20.3063 C   0  0  0  0  0  0
  -21.6853   -6.0739   22.5280 C   0  0  0  0  0  0
  -21.4016   -6.5642   23.8213 C   0  0  0  0  0  0
  -21.3659   -5.6793   24.9176 C   0  0  0  0  0  0
  -21.6042   -4.3053   24.7220 C   0  0  0  0  0  0
  -21.8819   -3.8147   23.4341 C   0  0  0  0  0  0
  -21.9190   -4.6969   22.3400 C   0  0  0  0  0  0
  -22.7828  -13.5220   21.1856 C   0  0  0  0  0  0
  -22.1657   -4.2152   21.0975 F   0  0  0  0  0  0
  -21.5629   -3.4538   25.7729 F   0  0  0  0  0  0
  -29.9727  -13.6201   20.4030 N   0  0  0  0  0  0
  -26.2940  -12.9386   20.3280 N   0  0  0  0  0  0
  -25.9341  -11.6537   20.5795 N   0  0  0  0  0  0
  -22.0469  -12.8212   22.0419 N   0  0  0  0  0  0
  -25.4181  -15.1916   20.4023 N   0  0  0  0  0  0
  -31.7019  -15.0405   20.0933 O   0  0  0  0  0  0
  -21.6639   -6.8886   21.4243 O   0  0  0  0  0  0
  -22.3522  -14.5523   20.6702 O   0  0  0  0  0  0
  -24.6456  -31.8457   23.1875 C   0  0  0  0  0  0
  -25.9223  -32.4705   23.8274 C   0  0  1  0  0  0
  -27.2235  -27.1419   20.1488 C   0  0  0  0  0  0
  -25.5987  -33.8506   24.2218 N   0  0  0  0  0  0
  -23.4506  -30.4672   21.5308 C   0  0  2  0  0  0
  -24.9009  -28.8998   20.1082 C   0  0  0  0  0  0
  -22.7604  -29.4561   22.4814 C   0  0  0  0  0  0
  -18.0326  -28.1426   22.8472 C   0  0  0  0  0  0
  -24.1496  -36.7238   23.2639 C   0  0  0  0  0  0
  -26.0068  -30.7248   21.3831 C   0  0  0  0  0  0
  -26.0798  -29.3354   20.7277 C   0  0  0  0  0  0
  -27.2403  -28.4731   20.7324 C   0  0  0  0  0  0
  -26.0147  -26.8161   19.4874 C   0  0  0  0  0  0
  -24.8818  -27.6519   19.4744 C   0  0  0  0  0  0
  -23.6785  -29.8007   20.1490 C   0  0  0  0  0  0
  -25.4110  -36.3024   24.0335 C   0  0  1  0  0  0
  -20.5951  -28.3742   23.1217 C   0  0  2  0  0  0
  -20.6820  -26.9447   22.5372 C   0  0  0  0  0  0
  -19.5785  -26.6412   21.5197 C   0  0  0  0  0  0
  -18.1965  -26.7974   22.1609 C   0  0  0  0  0  0
  -19.1587  -28.8895   23.2859 C   0  0  0  0  0  0
  -18.9501  -30.1494   23.8886 C   0  0  0  0  0  0
  -17.6500  -30.6606   24.0570 C   0  0  0  0  0  0
  -25.9067  -34.9404   23.5070 C   0  0  0  0  0  0
  -16.5386  -29.9099   23.6343 C   0  0  0  0  0  0
  -16.7309  -28.6530   23.0346 C   0  0  0  0  0  0
  -26.4555  -31.6552   25.0693 C   0  0  0  0  0  0
  -25.3746  -31.3723   26.1386 C   0  0  0  0  0  0
  -27.0411  -30.2961   24.6216 C   0  0  0  0  0  0
  -27.6115  -32.4277   25.7465 C   0  0  0  0  0  0
  -27.5586  -37.1745   24.8461 C   0  0  0  0  0  0
  -21.4282  -29.3084   22.3586 N   0  0  0  0  0  0
  -26.4266  -37.3742   23.9448 N   0  0  0  0  0  0
  -24.7210  -31.0325   22.0903 N   0  0  0  0  0  0
  -23.4243  -28.8102   23.2959 O   0  0  0  0  0  0
  -28.2603  -26.1360   20.2320 O   0  0  0  0  0  0
  -26.5630  -34.8914   22.4640 O   0  0  0  0  0  0
  -23.5562  -32.1315   23.7079 O   0  0  0  0  0  0
  -30.1902  -18.4817   19.8968 C   0  0  0  0  0  0
  -29.6905  -19.8823   20.1287 C   0  0  0  0  0  0
  -28.6834  -19.8859   21.0501 C   0  0  0  0  0  0
  -29.5879  -17.4163   20.6150 C   0  0  0  0  0  0
  -28.7477  -23.2389   20.2483 C   0  0  0  0  0  0
  -30.2178  -21.2532   19.5391 C   0  0  0  0  0  0
  -27.8906  -21.1053   21.5375 C   0  0  0  0  0  0
  -28.5758  -22.5337   21.6129 C   0  0  0  0  0  0
  -27.8937  -24.6500   19.9587 C   0  0  0  0  0  0
  -29.3722  -22.5272   19.3377 N   0  0  0  0  0  0
  -29.6455  -15.9805   20.6672 N   0  0  0  0  0  0
  -28.3541  -18.2271   21.6053 S   0  0  0  0  0  0
  -31.4861  -12.7167   19.1793 H   0  0  0  0  0  0
  -30.4568  -11.5825   20.0045 H   0  0  0  0  0  0
  -29.8341  -11.7211   17.5738 H   0  0  0  0  0  0
  -29.6153  -13.4496   17.7047 H   0  0  0  0  0  0
  -27.9552  -11.2602   18.9868 H   0  0  0  0  0  0
  -27.3899  -12.4328   17.8271 H   0  0  0  0  0  0
  -27.6200  -14.2390   19.4354 H   0  0  0  0  0  0
  -28.7602  -12.2198   21.4360 H   0  0  0  0  0  0
  -28.3917  -13.8867   21.7930 H   0  0  0  0  0  0
  -25.2784   -9.5670   22.4777 H   0  0  0  0  0  0
  -23.9993   -7.4634   22.7494 H   0  0  0  0  0  0
  -21.0848   -8.8797   19.8958 H   0  0  0  0  0  0
  -22.3731  -10.9687   19.6168 H   0  0  0  0  0  0
  -21.2014   -7.6151   23.9720 H   0  0  0  0  0  0
  -21.1478   -6.0521   25.9077 H   0  0  0  0  0  0
  -22.0600   -2.7606   23.2837 H   0  0  0  0  0  0
  -22.4072  -11.9846   22.4762 H   0  0  0  0  0  0
  -21.1115  -13.1283   22.2656 H   0  0  0  0  0  0
  -24.6387  -15.8342   20.4892 H   0  0  0  0  0  0
  -26.2480  -15.6307   20.0260 H   0  0  0  0  0  0
  -26.7288  -32.5312   23.1002 H   0  0  0  0  0  0
  -25.0180  -33.9618   25.0394 H   0  0  0  0  0  0
  -22.7548  -31.2932   21.3744 H   0  0  0  0  0  0
  -23.3790  -35.9535   23.3230 H   0  0  0  0  0  0
  -24.3619  -36.8911   22.2071 H   0  0  0  0  0  0
  -23.7204  -37.6401   23.6690 H   0  0  0  0  0  0
  -26.1539  -31.4785   20.6074 H   0  0  0  0  0  0
  -26.8816  -30.7797   22.0192 H   0  0  0  0  0  0
  -28.1340  -28.8014   21.2446 H   0  0  0  0  0  0
  -25.8926  -25.8660   18.9918 H   0  0  0  0  0  0
  -23.9842  -27.3060   18.9820 H   0  0  0  0  0  0
  -23.8205  -30.5783   19.3975 H   0  0  0  0  0  0
  -22.7952  -29.2436   19.8305 H   0  0  0  0  0  0
  -25.1280  -36.1835   25.0820 H   0  0  0  0  0  0
  -21.0042  -28.3322   24.1338 H   0  0  0  0  0  0
  -20.5737  -26.2350   23.3583 H   0  0  0  0  0  0
  -21.6681  -26.7467   22.1142 H   0  0  0  0  0  0
  -19.6957  -25.6323   21.1218 H   0  0  0  0  0  0
  -19.6734  -27.3222   20.6732 H   0  0  0  0  0  0
  -17.4237  -26.6724   21.4013 H   0  0  0  0  0  0
  -18.0371  -26.0129   22.9015 H   0  0  0  0  0  0
  -19.7985  -30.7318   24.2235 H   0  0  0  0  0  0
  -17.5056  -31.6277   24.5184 H   0  0  0  0  0  0
  -15.5387  -30.2997   23.7696 H   0  0  0  0  0  0
  -15.8714  -28.0843   22.7052 H   0  0  0  0  0  0
  -24.5979  -30.7017   25.7705 H   0  0  0  0  0  0
  -24.8878  -32.2892   26.4716 H   0  0  0  0  0  0
  -25.8039  -30.8978   27.0221 H   0  0  0  0  0  0
  -26.3012  -29.6681   24.1247 H   0  0  0  0  0  0
  -27.4124  -29.7243   25.4730 H   0  0  0  0  0  0
  -27.8875  -30.4263   23.9470 H   0  0  0  0  0  0
  -27.2779  -33.3640   26.1959 H   0  0  0  0  0  0
  -28.3973  -32.6710   25.0298 H   0  0  0  0  0  0
  -28.0734  -31.8432   26.5434 H   0  0  0  0  0  0
  -28.2495  -38.0146   24.7610 H   0  0  0  0  0  0
  -28.1183  -36.2668   24.6126 H   0  0  0  0  0  0
  -27.2336  -37.1187   25.8870 H   0  0  0  0  0  0
  -20.9475  -29.8822   21.6788 H   0  0  0  0  0  0
  -26.0125  -38.2789   24.1532 H   0  0  0  0  0  0
  -30.9802  -18.3162   19.1773 H   0  0  0  0  0  0
  -30.6340  -21.0165   18.5591 H   0  0  0  0  0  0
  -31.1033  -21.5333   20.1121 H   0  0  0  0  0  0
  -27.5251  -20.8728   22.5373 H   0  0  0  0  0  0
  -26.9894  -21.1893   20.9278 H   0  0  0  0  0  0
  -27.9512  -23.1759   22.2344 H   0  0  0  0  0  0
  -29.5347  -22.4729   22.1295 H   0  0  0  0  0  0
  -26.9388  -24.4897   20.4609 H   0  0  0  0  0  0
  -27.6723  -24.6127   18.8934 H   0  0  0  0  0  0
  -28.7762  -15.5985   21.0066 H   0  0  0  0  0  0
  1 25  1  0  0  0
  1 30  2  0  0  0
  1 81  1  0  0  0
  2  3  1  0  0  0
  2 25  1  0  0  0
  2 83  1  0  0  0
  2 84  1  0  0  0
  3  4  1  0  0  0
  3 85  1  0  0  0
  3 86  1  0  0  0
  4  5  1  0  0  0
  4 87  1  0  0  0
  4 88  1  0  0  0
  5  6  1  0  0  0
  5 26  1  0  0  0
  5 89  1  0  0  0
  6 25  1  0  0  0
  6 90  1  0  0  0
  6 91  1  0  0  0
  7  8  2  0  0  0
  7 26  1  0  0  0
  7 29  1  0  0  0
  8  9  1  0  0  0
  8 22  1  0  0  0
  9 10  1  0  0  0
  9 27  2  0  0  0
 10 11  2  0  0  0
 10 15  1  0  0  0
 11 12  1  0  0  0
 11 92  1  0  0  0
 12 13  2  0  0  0
 12 93  1  0  0  0
 13 14  1  0  0  0
 13 31  1  0  0  0
 14 15  2  0  0  0
 14 94  1  0  0  0
 15 95  1  0  0  0
 16 17  2  0  0  0
 16 21  1  0  0  0
 16 31  1  0  0  0
 17 18  1  0  0  0
 17 96  1  0  0  0
 18 19  2  0  0  0
 18 97  1  0  0  0
 19 20  1  0  0  0
 19 24  1  0  0  0
 20 21  2  0  0  0
 20 98  1  0  0  0
 21 23  1  0  0  0
 22 28  1  0  0  0
 22 32  2  0  0  0
 26 27  1  0  0  0
 28 99  1  0  0  0
 28100  1  0  0  0
 29101  1  0  0  0
 29102  1  0  0  0
 33 34  1  0  0  0
 33 66  1  0  0  0
 33 70  2  0  0  0
 34 36  1  0  0  0
 34 59  1  0  0  0
 34103  1  0  0  0
 35 44  2  0  0  0
 35 45  1  0  0  0
 35 68  1  0  0  0
 36 56  1  0  0  0
 36104  1  0  0  0
 37 39  1  0  0  0
 37 47  1  0  0  0
 37 66  1  0  0  0
 37105  1  0  0  0
 38 43  2  0  0  0
 38 46  1  0  0  0
 38 47  1  0  0  0
 39 64  1  0  0  0
 39 67  2  0  0  0
 40 52  1  0  0  0
 40 53  2  0  0  0
 40 58  1  0  0  0
 41106  1  0  0  0
 41107  1  0  0  0
 41108  1  0  0  0
 41 48  1  0  0  0
 42 43  1  0  0  0
 42 66  1  0  0  0
 42109  1  0  0  0
 42110  1  0  0  0
 43 44  1  0  0  0
 44111  1  0  0  0
 45 46  2  0  0  0
 45112  1  0  0  0
 46113  1  0  0  0
 47114  1  0  0  0
 47115  1  0  0  0
 48 56  1  0  0  0
 48 65  1  0  0  0
 48116  1  0  0  0
 49 50  1  0  0  0
 49 53  1  0  0  0
 49 64  1  0  0  0
 49117  1  0  0  0
 50 51  1  0  0  0
 50118  1  0  0  0
 50119  1  0  0  0
 51 52  1  0  0  0
 51120  1  0  0  0
 51121  1  0  0  0
 52122  1  0  0  0
 52123  1  0  0  0
 53 54  1  0  0  0
 54 55  2  0  0  0
 54124  1  0  0  0
 55 57  1  0  0  0
 55125  1  0  0  0
 56 69  2  0  0  0
 57 58  2  0  0  0
 57126  1  0  0  0
 58127  1  0  0  0
 59 60  1  0  0  0
 59 61  1  0  0  0
 59 62  1  0  0  0
 60128  1  0  0  0
 60129  1  0  0  0
 60130  1  0  0  0
 61131  1  0  0  0
 61132  1  0  0  0
 61133  1  0  0  0
 62134  1  0  0  0
 62135  1  0  0  0
 62136  1  0  0  0
 63 65  1  0  0  0
 63137  1  0  0  0
 63138  1  0  0  0
 63139  1  0  0  0
 64140  1  0  0  0
 65141  1  0  0  0
 68 79  1  0  0  0
 71 72  1  0  0  0
 71 74  2  0  0  0
 71142  1  0  0  0
 72 73  2  0  0  0
 72 76  1  0  0  0
 73 77  1  0  0  0
 73 82  1  0  0  0
 74 81  1  0  0  0
 74 82  1  0  0  0
 75 78  1  0  0  0
 75 79  1  0  0  0
 75 80  2  0  0  0
 76 80  1  0  0  0
 76143  1  0  0  0
 76144  1  0  0  0
 77 78  1  0  0  0
 77145  1  0  0  0
 77146  1  0  0  0
 78147  1  0  0  0
 78148  1  0  0  0
 79149  1  0  0  0
 79150  1  0  0  0
 81151  1  0  0  0
M  ISO  4   1 100  68 101  79 101  81 100
M  END
> <chiral flag>
0

> <version>
0

> <s_m_source_file>
/data/baiqing/PycharmProjects/Reinvent-master-3.2/result/LINK_invent/BTK/process_docking_weight1_custom_product_contain_oxygen_bond_distance_aromatic_linkinvent_7_9_3/rearranged_h_0155.sdf

> <i_m_source_file_index>
99

> <r_mmod_Potential_Energy-OPLS-2005>
432.202087402344

> <r_mmod_Stretch_Energy-OPLS-2005>
207.748672485352

> <r_mmod_Bend_Energy-OPLS-2005>
289.123809814453

> <r_mmod_Torsional_Energy-OPLS-2005>
217.402801513672

> <r_mmod_Improper_Torsional_Energy-OPLS-2005>
8.72435855865479

> <r_mmod_Van_der_Waal_Energy-OPLS-2005>
118.544914245605

> <r_mmod_Electrostatic_Energy-OPLS-2005>
-366.800537109375

> <r_mmod_Solvation_Energy-OPLS-2005>
-220.151641845703

> <b_mmod_Minimization_Converged-OPLS-2005>
0

> <r_mmod_RMS_Derivative-OPLS-2005>
2.51263809204102

$$$$
99
                    3D
 Structure written by MMmdl.
160169  0  0  1  0            999 V2000
  -30.5978  -14.6558   20.5060 C   0  0  0  0  0  0
  -30.4403  -12.3968   19.4780 C   0  0  0  0  0  0
  -29.5190  -12.5047   18.2421 C   0  0  0  0  0  0
  -28.0400  -12.3442   18.6459 C   0  0  0  0  0  0
  -27.6553  -13.2151   19.8719 C   0  0  2  0  0  0
  -28.6913  -13.0707   21.0078 C   0  0  0  0  0  0
  -25.2572  -13.8159   20.5733 C   0  0  0  0  0  0
  -24.1828  -13.0419   20.9192 C   0  0  0  0  0  0
  -24.6394  -11.6889   20.8747 C   0  0  0  0  0  0
  -23.9063  -10.4282   21.0424 C   0  0  0  0  0  0
  -24.3611   -9.4186   21.9193 C   0  0  0  0  0  0
  -23.6279   -8.2228   22.0757 C   0  0  0  0  0  0
  -22.4253   -8.0288   21.3565 C   0  0  0  0  0  0
  -21.9896   -9.0263   20.4659 C   0  0  0  0  0  0
  -22.7239  -10.2140   20.3060 C   0  0  0  0  0  0
  -21.6846   -6.0723   22.5302 C   0  0  0  0  0  0
  -21.4016   -6.5628   23.8235 C   0  0  0  0  0  0
  -21.3657   -5.6786   24.9199 C   0  0  0  0  0  0
  -21.6034   -4.3046   24.7236 C   0  0  0  0  0  0
  -21.8821   -3.8131   23.4363 C   0  0  0  0  0  0
  -21.9187   -4.6951   22.3413 C   0  0  0  0  0  0
  -22.7851  -13.5241   21.1833 C   0  0  0  0  0  0
  -22.1663   -4.2138   21.0992 F   0  0  0  0  0  0
  -21.5605   -3.4529   25.7741 F   0  0  0  0  0  0
  -30.0081  -13.4181   20.4543 N   0  0  0  0  0  0
  -26.2999  -12.9334   20.3353 N   0  0  0  0  0  0
  -25.9317  -11.6485   20.5752 N   0  0  0  0  0  0
  -22.0478  -12.8270   22.0410 N   0  0  0  0  0  0
  -25.4283  -15.1893   20.4194 N   0  0  0  0  0  0
  -31.7408  -14.8351   20.0662 O   0  0  0  0  0  0
  -21.6618   -6.8883   21.4262 O   0  0  0  0  0  0
  -22.3559  -14.5546   20.6682 O   0  0  0  0  0  0
  -24.6271  -31.8571   23.1996 C   0  0  0  0  0  0
  -25.9111  -32.4759   23.8343 C   0  0  1  0  0  0
  -27.2178  -27.2914   20.1148 C   0  0  0  0  0  0
  -25.5922  -33.8559   24.2269 N   0  0  0  0  0  0
  -23.4222  -30.4791   21.5412 C   0  0  2  0  0  0
  -24.8663  -28.9252   20.1050 C   0  0  0  0  0  0
  -22.7479  -29.4607   22.4905 C   0  0  0  0  0  0
  -18.0294  -28.1370   22.8478 C   0  0  0  0  0  0
  -24.1482  -36.7272   23.2640 C   0  0  0  0  0  0
  -25.9649  -30.7758   21.3755 C   0  0  0  0  0  0
  -26.0335  -29.4022   20.7135 C   0  0  0  0  0  0
  -27.2083  -28.5946   20.7091 C   0  0  0  0  0  0
  -26.0325  -26.8700   19.4765 C   0  0  0  0  0  0
  -24.8693  -27.6671   19.4773 C   0  0  0  0  0  0
  -23.6377  -29.8109   20.1563 C   0  0  0  0  0  0
  -25.4111  -36.3071   24.0333 C   0  0  1  0  0  0
  -20.5889  -28.3687   23.1259 C   0  0  2  0  0  0
  -20.6771  -26.9406   22.5398 C   0  0  0  0  0  0
  -19.5749  -26.6375   21.5195 C   0  0  0  0  0  0
  -18.1932  -26.7915   22.1612 C   0  0  0  0  0  0
  -19.1542  -28.8850   23.2864 C   0  0  0  0  0  0
  -18.9471  -30.1444   23.8894 C   0  0  0  0  0  0
  -17.6468  -30.6577   24.0559 C   0  0  0  0  0  0
  -25.9054  -34.9443   23.5100 C   0  0  0  0  0  0
  -16.5362  -29.9074   23.6321 C   0  0  0  0  0  0
  -16.7277  -28.6484   23.0359 C   0  0  0  0  0  0
  -26.4507  -31.6592   25.0727 C   0  0  0  0  0  0
  -25.3749  -31.3755   26.1469 C   0  0  0  0  0  0
  -27.0365  -30.3013   24.6210 C   0  0  0  0  0  0
  -27.6056  -32.4360   25.7486 C   0  0  0  0  0  0
  -27.5585  -37.1784   24.8465 C   0  0  0  0  0  0
  -21.4195  -29.3031   22.3650 N   0  0  0  0  0  0
  -26.4285  -37.3775   23.9424 N   0  0  0  0  0  0
  -24.6903  -31.0561   22.0946 N   0  0  0  0  0  0
  -23.4198  -28.8146   23.2992 O   0  0  0  0  0  0
  -28.3498  -26.4664   20.2031 O   0  0  0  0  0  0
  -26.5623  -34.8918   22.4672 O   0  0  0  0  0  0
  -23.5431  -32.1387   23.7307 O   0  0  0  0  0  0
  -29.9268  -18.2403   20.9419 C   0  0  0  0  0  0
  -29.5192  -19.3605   20.0864 C   0  0  0  0  0  0
  -28.8878  -18.9129   18.9508 C   0  0  0  0  0  0
  -29.6455  -16.9616   20.4446 C   0  0  0  0  0  0
  -30.0426  -20.7840   20.2292 C   0  0  0  0  0  0
  -29.8900  -24.6162   20.0759 C   0  0  0  0  0  0
  -27.6048  -23.8887   20.3804 C   0  0  0  0  0  0
  -30.2957  -23.1914   19.5903 C   0  0  0  0  0  0
  -27.9881  -22.3968   19.9360 C   0  0  0  0  0  0
  -28.4493  -25.0510   19.7357 C   0  0  0  0  0  0
  -28.4459  -19.6796   17.7494 C   0  0  0  0  0  0
  -29.4402  -22.0468   20.0553 N   0  0  0  0  0  0
  -29.8381  -15.6938   20.9864 N   0  0  0  0  0  0
  -31.3578  -20.7758   20.4984 N   0  3  0  0  0  0
  -28.3028  -24.9872   18.4117 F   0  0  0  0  0  0
  -28.7662  -17.1572   18.9414 S   0  0  0  0  0  0
  -31.4835  -12.5242   19.1829 H   0  0  0  0  0  0
  -30.3772  -11.3997   19.9188 H   0  0  0  0  0  0
  -29.7873  -11.7436   17.5090 H   0  0  0  0  0  0
  -29.6659  -13.4689   17.7533 H   0  0  0  0  0  0
  -27.8792  -11.2909   18.8788 H   0  0  0  0  0  0
  -27.3891  -12.5698   17.8011 H   0  0  0  0  0  0
  -27.6752  -14.2514   19.5349 H   0  0  0  0  0  0
  -28.7031  -12.0465   21.3840 H   0  0  0  0  0  0
  -28.4259  -13.6952   21.8619 H   0  0  0  0  0  0
  -25.2770   -9.5608   22.4754 H   0  0  0  0  0  0
  -23.9961   -7.4602   22.7477 H   0  0  0  0  0  0
  -21.0815   -8.8793   19.8984 H   0  0  0  0  0  0
  -22.3715  -10.9668   19.6155 H   0  0  0  0  0  0
  -21.2030   -7.6140   23.9745 H   0  0  0  0  0  0
  -21.1471   -6.0511   25.9109 H   0  0  0  0  0  0
  -22.0593   -2.7586   23.2872 H   0  0  0  0  0  0
  -22.4051  -11.9934   22.4815 H   0  0  0  0  0  0
  -21.1110  -13.1353   22.2598 H   0  0  0  0  0  0
  -24.6611  -15.8421   20.5420 H   0  0  0  0  0  0
  -26.2777  -15.6375   20.1019 H   0  0  0  0  0  0
  -26.7169  -32.5414   23.1082 H   0  0  0  0  0  0
  -25.0114  -33.9722   25.0442 H   0  0  0  0  0  0
  -22.7166  -31.2998   21.3947 H   0  0  0  0  0  0
  -23.3761  -35.9583   23.3283 H   0  0  0  0  0  0
  -24.3577  -36.8912   22.2059 H   0  0  0  0  0  0
  -23.7209  -37.6456   23.6674 H   0  0  0  0  0  0
  -26.1113  -31.5395   20.6101 H   0  0  0  0  0  0
  -26.8399  -30.8159   22.0131 H   0  0  0  0  0  0
  -28.1046  -28.9532   21.1966 H   0  0  0  0  0  0
  -25.9859  -25.9111   18.9830 H   0  0  0  0  0  0
  -23.9743  -27.2986   18.9946 H   0  0  0  0  0  0
  -23.7615  -30.5873   19.4003 H   0  0  0  0  0  0
  -22.7557  -29.2449   19.8513 H   0  0  0  0  0  0
  -25.1284  -36.1925   25.0824 H   0  0  0  0  0  0
  -20.9996  -28.3263   24.1373 H   0  0  0  0  0  0
  -20.5644  -26.2305   23.3607 H   0  0  0  0  0  0
  -21.6644  -26.7403   22.1207 H   0  0  0  0  0  0
  -19.6910  -25.6285   21.1224 H   0  0  0  0  0  0
  -19.6683  -27.3183   20.6722 H   0  0  0  0  0  0
  -17.4201  -26.6663   21.4016 H   0  0  0  0  0  0
  -18.0328  -26.0054   22.9003 H   0  0  0  0  0  0
  -19.7956  -30.7247   24.2267 H   0  0  0  0  0  0
  -17.5034  -31.6258   24.5159 H   0  0  0  0  0  0
  -15.5362  -30.2983   23.7647 H   0  0  0  0  0  0
  -15.8676  -28.0798   22.7087 H   0  0  0  0  0  0
  -24.5877  -30.7152   25.7815 H   0  0  0  0  0  0
  -24.9002  -32.2935   26.4941 H   0  0  0  0  0  0
  -25.8075  -30.8899   27.0222 H   0  0  0  0  0  0
  -26.2949  -29.6746   24.1237 H   0  0  0  0  0  0
  -27.4062  -29.7297   25.4735 H   0  0  0  0  0  0
  -27.8820  -30.4311   23.9447 H   0  0  0  0  0  0
  -27.2642  -33.3652   26.2067 H   0  0  0  0  0  0
  -28.3845  -32.6949   25.0299 H   0  0  0  0  0  0
  -28.0748  -31.8501   26.5403 H   0  0  0  0  0  0
  -28.2583  -38.0103   24.7541 H   0  0  0  0  0  0
  -28.1099  -36.2633   24.6239 H   0  0  0  0  0  0
  -27.2308  -37.1365   25.8869 H   0  0  0  0  0  0
  -20.9377  -29.8772   21.6876 H   0  0  0  0  0  0
  -26.0160  -38.2841   24.1455 H   0  0  0  0  0  0
  -30.4569  -18.4159   21.8674 H   0  0  0  0  0  0
  -30.5831  -25.3336   19.6380 H   0  0  0  0  0  0
  -30.0413  -24.6861   21.1536 H   0  0  0  0  0  0
  -27.6711  -23.9545   21.4665 H   0  0  0  0  0  0
  -26.5517  -24.0475   20.1519 H   0  0  0  0  0  0
  -31.3364  -23.0581   19.8714 H   0  0  0  0  0  0
  -30.2798  -23.1721   18.5000 H   0  0  0  0  0  0
  -27.6882  -22.2454   18.9002 H   0  0  0  0  0  0
  -27.4140  -21.6841   20.5271 H   0  0  0  0  0  0
  -28.9906  -20.6196   17.6609 H   0  0  0  0  0  0
  -27.3762  -19.8934   17.7882 H   0  0  0  0  0  0
  -28.6386  -19.1070   16.8400 H   0  0  0  0  0  0
  -29.0233  -15.3447   21.4708 H   0  0  0  0  0  0
  -31.8554  -19.9002   20.5356 H   0  0  0  0  0  0
  -31.8850  -21.6253   20.6313 H   0  0  0  0  0  0
  1 25  1  0  0  0
  1 30  2  0  0  0
  1 83  1  0  0  0
  2  3  1  0  0  0
  2 25  1  0  0  0
  2 87  1  0  0  0
  2 88  1  0  0  0
  3  4  1  0  0  0
  3 89  1  0  0  0
  3 90  1  0  0  0
  4  5  1  0  0  0
  4 91  1  0  0  0
  4 92  1  0  0  0
  5  6  1  0  0  0
  5 26  1  0  0  0
  5 93  1  0  0  0
  6 25  1  0  0  0
  6 94  1  0  0  0
  6 95  1  0  0  0
  7  8  2  0  0  0
  7 26  1  0  0  0
  7 29  1  0  0  0
  8  9  1  0  0  0
  8 22  1  0  0  0
  9 10  1  0  0  0
  9 27  2  0  0  0
 10 11  2  0  0  0
 10 15  1  0  0  0
 11 12  1  0  0  0
 11 96  1  0  0  0
 12 13  2  0  0  0
 12 97  1  0  0  0
 13 14  1  0  0  0
 13 31  1  0  0  0
 14 15  2  0  0  0
 14 98  1  0  0  0
 15 99  1  0  0  0
 16 17  2  0  0  0
 16 21  1  0  0  0
 16 31  1  0  0  0
 17 18  1  0  0  0
 17100  1  0  0  0
 18 19  2  0  0  0
 18101  1  0  0  0
 19 20  1  0  0  0
 19 24  1  0  0  0
 20 21  2  0  0  0
 20102  1  0  0  0
 21 23  1  0  0  0
 22 28  1  0  0  0
 22 32  2  0  0  0
 26 27  1  0  0  0
 28103  1  0  0  0
 28104  1  0  0  0
 29105  1  0  0  0
 29106  1  0  0  0
 33 34  1  0  0  0
 33 66  1  0  0  0
 33 70  2  0  0  0
 34 36  1  0  0  0
 34 59  1  0  0  0
 34107  1  0  0  0
 35 44  2  0  0  0
 35 45  1  0  0  0
 35 68  1  0  0  0
 36 56  1  0  0  0
 36108  1  0  0  0
 37 39  1  0  0  0
 37 47  1  0  0  0
 37 66  1  0  0  0
 37109  1  0  0  0
 38 43  2  0  0  0
 38 46  1  0  0  0
 38 47  1  0  0  0
 39 64  1  0  0  0
 39 67  2  0  0  0
 40 52  1  0  0  0
 40 53  2  0  0  0
 40 58  1  0  0  0
 41110  1  0  0  0
 41111  1  0  0  0
 41112  1  0  0  0
 41 48  1  0  0  0
 42 43  1  0  0  0
 42 66  1  0  0  0
 42113  1  0  0  0
 42114  1  0  0  0
 43 44  1  0  0  0
 44115  1  0  0  0
 45 46  2  0  0  0
 45116  1  0  0  0
 46117  1  0  0  0
 47118  1  0  0  0
 47119  1  0  0  0
 48 56  1  0  0  0
 48 65  1  0  0  0
 48120  1  0  0  0
 49 50  1  0  0  0
 49 53  1  0  0  0
 49 64  1  0  0  0
 49121  1  0  0  0
 50 51  1  0  0  0
 50122  1  0  0  0
 50123  1  0  0  0
 51 52  1  0  0  0
 51124  1  0  0  0
 51125  1  0  0  0
 52126  1  0  0  0
 52127  1  0  0  0
 53 54  1  0  0  0
 54 55  2  0  0  0
 54128  1  0  0  0
 55 57  1  0  0  0
 55129  1  0  0  0
 56 69  2  0  0  0
 57 58  2  0  0  0
 57130  1  0  0  0
 58131  1  0  0  0
 59 60  1  0  0  0
 59 61  1  0  0  0
 59 62  1  0  0  0
 60132  1  0  0  0
 60133  1  0  0  0
 60134  1  0  0  0
 61135  1  0  0  0
 61136  1  0  0  0
 61137  1  0  0  0
 62138  1  0  0  0
 62139  1  0  0  0
 62140  1  0  0  0
 63 65  1  0  0  0
 63141  1  0  0  0
 63142  1  0  0  0
 63143  1  0  0  0
 64144  1  0  0  0
 65145  1  0  0  0
 68 80  1  0  0  0
 71 72  1  0  0  0
 71 74  2  0  0  0
 71146  1  0  0  0
 72 73  2  0  0  0
 72 75  1  0  0  0
 73 81  1  0  0  0
 73 86  1  0  0  0
 74 83  1  0  0  0
 74 86  1  0  0  0
 75 82  1  0  0  0
 75 84  2  0  0  0
 76 78  1  0  0  0
 76 80  1  0  0  0
 76147  1  0  0  0
 76148  1  0  0  0
 77 79  1  0  0  0
 77 80  1  0  0  0
 77149  1  0  0  0
 77150  1  0  0  0
 78 82  1  0  0  0
 78151  1  0  0  0
 78152  1  0  0  0
 79 82  1  0  0  0
 79153  1  0  0  0
 79154  1  0  0  0
 80 85  1  0  0  0
 81155  1  0  0  0
 81156  1  0  0  0
 81157  1  0  0  0
 83158  1  0  0  0
 84159  1  0  0  0
 84160  1  0  0  0
M  CHG  1  84   1
M  ISO  4   1 100  68 101  80 101  83 100
M  END
> <chiral flag>
0

> <version>
0

> <s_m_source_file>
/data/baiqing/PycharmProjects/Reinvent-master-3.2/result/LINK_invent/BTK/process_docking_weight1_custom_product_contain_oxygen_bond_distance_aromatic_linkinvent_7_9_3/rearranged_h_0155.sdf

> <i_m_source_file_index>
100

> <r_mmod_Potential_Energy-OPLS-2005>
5.75457000732422

> <r_mmod_Stretch_Energy-OPLS-2005>
91.2885971069336

> <r_mmod_Bend_Energy-OPLS-2005>
194.928955078125

> <r_mmod_Torsional_Energy-OPLS-2005>
289.011138916016

> <r_mmod_Improper_Torsional_Energy-OPLS-2005>
9.80802726745605

> <r_mmod_Van_der_Waal_Energy-OPLS-2005>
121.130508422852

> <r_mmod_Electrostatic_Energy-OPLS-2005>
-309.303283691406

> <r_mmod_Solvation_Energy-OPLS-2005>
-447.989562988281

> <b_mmod_Minimization_Converged-OPLS-2005>
0

> <r_mmod_RMS_Derivative-OPLS-2005>
2.9036922454834

$$$$
